#------------------------------------------------------------------------------
#$Date: 2020-11-25 00:36:13 +0200 (Wed, 25 Nov 2020) $
#$Revision: 259237 $
#$URL: file:///home/coder/svn-repositories/cod/cif/4/51/82/4518263.cif $
#------------------------------------------------------------------------------
#
# This file is available in the Crystallography Open Database (COD),
# http://www.crystallography.net/
#
# All data on this site have been placed in the public domain by the
# contributors.
#
data_4518263
loop_
_publ_author_name
'Liu, Tanggao'
'Xu, Fan'
'Liu, Xiaojuan'
'Huang, Zhiqing'
'Long, Lipeng'
'Xu, Guohai'
'Xiao, Hong'
'Chen, Zhengwang'
_publ_section_title
;
 Switching the Regioselectivity Access to Pyrroles and Isoquinolines from
 Ketoxime Acetates and Ynals
;
_journal_name_full               'ACS Omega'
_journal_paper_doi               10.1021/acsomega.0c05272
_journal_year                    2020
_chemical_formula_moiety         'C19 H14 F N O2'
_chemical_formula_sum            'C19 H14 F N O2'
_chemical_formula_weight         307.31
_space_group_crystal_system      triclinic
_space_group_IT_number           2
_space_group_name_Hall           '-P 1'
_space_group_name_H-M_alt        'P -1'
_atom_sites_solution_hydrogens   geom
_atom_sites_solution_primary     direct
_audit_creation_date             2020-08-18
_audit_creation_method
;
Olex2 1.2
(compiled 2018.05.29 svn.r3508 for OlexSys, GUI svn.r5506)
;
_cell_angle_alpha                79.6830(10)
_cell_angle_beta                 62.7520(10)
_cell_angle_gamma                75.3920(10)
_cell_formula_units_Z            2
_cell_length_a                   9.2551(4)
_cell_length_b                   9.7521(4)
_cell_length_c                   9.9640(5)
_cell_measurement_reflns_used    6328
_cell_measurement_temperature    293(2)
_cell_measurement_theta_max      27.433
_cell_measurement_theta_min      2.909
_cell_volume                     771.56(6)
_computing_cell_refinement       'SAINT V8.38A (?, 2016)'
_computing_data_reduction        'SAINT V8.38A (?, 2016)'
_computing_molecular_graphics    'Olex2 (Dolomanov et al., 2009)'
_computing_publication_material  'Olex2 (Dolomanov et al., 2009)'
_computing_structure_refinement  'XL (Sheldrick, 2008)'
_computing_structure_solution    'XS (Sheldrick, 2008)'
_diffrn_ambient_temperature      293(2)
_diffrn_measured_fraction_theta_full 0.984
_diffrn_measured_fraction_theta_max 0.982
_diffrn_measurement_device_type  'CCD area detector'
_diffrn_radiation_type           MoK\a
_diffrn_radiation_wavelength     0.71076
_diffrn_reflns_av_R_equivalents  0.0237
_diffrn_reflns_av_unetI/netI     0.0252
_diffrn_reflns_Laue_measured_fraction_full 0.984
_diffrn_reflns_Laue_measured_fraction_max 0.982
_diffrn_reflns_limit_h_max       11
_diffrn_reflns_limit_h_min       -12
_diffrn_reflns_limit_k_max       12
_diffrn_reflns_limit_k_min       -12
_diffrn_reflns_limit_l_max       12
_diffrn_reflns_limit_l_min       -12
_diffrn_reflns_number            11154
_diffrn_reflns_point_group_measured_fraction_full 0.984
_diffrn_reflns_point_group_measured_fraction_max 0.982
_diffrn_reflns_theta_full        25.243
_diffrn_reflns_theta_max         27.471
_diffrn_reflns_theta_min         2.988
_exptl_absorpt_coefficient_mu    0.094
_exptl_crystal_colour            yellow
_exptl_crystal_density_diffrn    1.323
_exptl_crystal_description       strip
_exptl_crystal_F_000             320
_exptl_crystal_size_max          0.26
_exptl_crystal_size_mid          0.22
_exptl_crystal_size_min          0.18
_refine_diff_density_max         0.175
_refine_diff_density_min         -0.183
_refine_diff_density_rms         0.029
_refine_ls_extinction_method     none
_refine_ls_goodness_of_fit_ref   1.056
_refine_ls_hydrogen_treatment    constr
_refine_ls_matrix_type           full
_refine_ls_number_parameters     209
_refine_ls_number_reflns         3456
_refine_ls_number_restraints     0
_refine_ls_restrained_S_all      1.056
_refine_ls_R_factor_all          0.0599
_refine_ls_R_factor_gt           0.0454
_refine_ls_shift/su_max          0.000
_refine_ls_shift/su_mean         0.000
_refine_ls_structure_factor_coef Fsqd
_refine_ls_weighting_details
'w=1/[\s^2^(Fo^2^)+(0.0503P)^2^+0.1785P] where P=(Fo^2^+2Fc^2^)/3'
_refine_ls_weighting_scheme      calc
_refine_ls_wR_factor_gt          0.1121
_refine_ls_wR_factor_ref         0.1215
_reflns_Friedel_coverage         0.000
_reflns_number_gt                2713
_reflns_number_total             3456
_reflns_threshold_expression     'I > 2\s(I)'
_iucr_refine_instructions_details
;

    cjl20200806sy_0m.res created by SHELXL-2014/7

TITL CJL20200806SY_0m in P-1 #2
REM reset to P-1 #2
CELL 0.71076 9.2551 9.7521 9.964 79.683 62.752 75.392
ZERR 2 0.0004 0.0004 0.0005 0.001 0.001 0.001
LATT 1
SFAC C H F N O
UNIT 38 28 2 2 4
 
L.S. 10
PLAN  20
BOND
fmap 2
acta
REM <olex2.extras>
REM <HklSrc "%.\\CJL20200806SY_0m.hkl">
REM </olex2.extras>
 
WGHT    0.050300    0.178500
FVAR       2.98892
O2    5    0.396848    0.325913    0.692035    11.00000    0.04276    0.08520 =
         0.05492    0.01270   -0.01427   -0.01498
N1    4    0.159499    0.283412    0.895721    11.00000    0.03920    0.04422 =
         0.03981   -0.00173   -0.01518   -0.01103
F1    3   -0.193918    0.188787    0.498641    11.00000    0.08203    0.10736 =
         0.06631   -0.00449   -0.04824   -0.02222
C6    1    0.374816    0.258240    1.147889    11.00000    0.03843    0.04991 =
         0.03621   -0.00473   -0.01078   -0.01316
O1    5    0.326312    0.437575    0.972157    11.00000    0.10207    0.06310 =
         0.08035    0.02229   -0.05906   -0.04410
C18   1    0.252008    0.364425    0.759256    11.00000    0.04427    0.04761 =
         0.04479    0.00286   -0.02004   -0.01326
C7    1    0.301753    0.322478    1.040150    11.00000    0.04748    0.04663 =
         0.04327   -0.00201   -0.01741   -0.01534
C12   1   -0.029543    0.222073    0.807782    11.00000    0.03792    0.04145 =
         0.04134   -0.00513   -0.01402   -0.00909
C9    1    0.084172    0.168113    1.123822    11.00000    0.05644    0.05312 =
         0.03552   -0.00408   -0.01637   -0.01865
AFIX  43
H9    2    0.079393    0.129837    1.217892    11.00000   -1.20000
AFIX   0
C8    1    0.196558    0.247220    1.019229    11.00000    0.04552    0.04429 =
         0.03820   -0.00467   -0.01715   -0.00998
C10   1   -0.021556    0.155249    1.064196    11.00000    0.05073    0.05883 =
         0.04019   -0.00617   -0.01172   -0.02408
AFIX  43
H10   2   -0.109762    0.107638    1.112219    11.00000   -1.20000
AFIX   0
C11   1    0.026796    0.224797    0.922692    11.00000    0.03715    0.04701 =
         0.04015   -0.00869   -0.01158   -0.01081
C13   1    0.081615    0.184880    0.662365    11.00000    0.03671    0.07805 =
         0.04391   -0.01237   -0.01354   -0.00690
AFIX  43
H13   2    0.194776    0.166984    0.634961    11.00000   -1.20000
AFIX   0
C17   1   -0.197472    0.247421    0.846153    11.00000    0.03824    0.06271 =
         0.04812   -0.01542   -0.01096   -0.00997
AFIX  43
H17   2   -0.273683    0.272002    0.943323    11.00000   -1.20000
AFIX   0
C1    1    0.414761    0.112883    1.176714    11.00000    0.04833    0.05261 =
         0.04643   -0.00755   -0.01657   -0.00842
AFIX  43
H1    2    0.390202    0.051205    1.132361    11.00000   -1.20000
AFIX   0
C16   1   -0.253262    0.236756    0.742505    11.00000    0.03902    0.06522 =
         0.06362   -0.01006   -0.02336   -0.00864
AFIX  43
H16   2   -0.366109    0.253793    0.768706    11.00000   -1.20000
AFIX   0
C5    1    0.412929    0.348705    1.215115    11.00000    0.05743    0.05700 =
         0.05045   -0.00344   -0.02280   -0.02115
AFIX  43
H5    2    0.388633    0.446518    1.195117    11.00000   -1.20000
AFIX   0
C14   1    0.027044    0.174048    0.557994    11.00000    0.05349    0.09138 =
         0.03848   -0.01202   -0.01473   -0.01225
AFIX  43
H14   2    0.101958    0.149140    0.460595    11.00000   -1.20000
AFIX   0
C15   1   -0.139484    0.200703    0.600774    11.00000    0.05904    0.05901 =
         0.04980    0.00054   -0.03195   -0.01422
C2    1    0.491266    0.059277    1.271553    11.00000    0.05843    0.06383 =
         0.06177    0.00490   -0.02672   -0.00616
AFIX  43
H2    2    0.519057   -0.038447    1.289931    11.00000   -1.20000
AFIX   0
C4    1    0.486632    0.293697    1.311311    11.00000    0.06627    0.08726 =
         0.05144   -0.00626   -0.02753   -0.03104
AFIX  43
H4    2    0.509525    0.354582    1.357878    11.00000   -1.20000
AFIX   0
C3    1    0.526191    0.149713    1.338448    11.00000    0.05770    0.09367 =
         0.05161    0.00801   -0.02850   -0.02074
AFIX  43
H3    2    0.576979    0.113115    1.402549    11.00000   -1.20000
AFIX   0
C19   1    0.154478    0.494139    0.715859    11.00000    0.07251    0.05546 =
         0.10848    0.02503   -0.04170   -0.01009
AFIX 137
H19A  2    0.140394    0.570776    0.771944    11.00000   -1.50000
H19B  2    0.047869    0.476899    0.737986    11.00000   -1.50000
H19C  2    0.211866    0.518938    0.609477    11.00000   -1.50000
AFIX   0
HKLF 4
 
REM  CJL20200806SY_0m in P-1 #2
REM R1 =  0.0454 for    2713 Fo > 4sig(Fo)  and  0.0599 for all    3456 data
REM    209 parameters refined using      0 restraints
 
END  
     
WGHT      0.0503      0.1785 

REM Highest difference peak  0.175,  deepest hole -0.183,  1-sigma level  0.029
Q1    1  -0.0549  0.2454  0.5657  11.00000  0.05    0.18
Q2    1   0.2364  0.2808  1.0347  11.00000  0.05    0.16
Q3    1   0.0597  0.2936  0.9135  11.00000  0.05    0.16
Q4    1   0.2340  0.5618  0.6610  11.00000  0.05    0.16
Q5    1   0.1802  0.1625  1.0573  11.00000  0.05    0.15
Q6    1  -0.1976  0.1668  0.6960  11.00000  0.05    0.15
Q7    1  -0.0408  0.2285  1.0128  11.00000  0.05    0.15
Q8    1  -0.0671  0.1429  0.5982  11.00000  0.05    0.15
Q9    1  -0.0007  0.2197  0.8619  11.00000  0.05    0.15
Q10   1  -0.1153  0.1938  0.8369  11.00000  0.05    0.14
Q11   1   0.1628  0.2848  0.9769  11.00000  0.05    0.14
Q12   1   0.3423  0.2871  1.1006  11.00000  0.05    0.13
Q13   1   0.0237  0.1692  0.7609  11.00000  0.05    0.13
Q14   1  -0.1007  0.2326  0.8208  11.00000  0.05    0.13
Q15   1   0.1027  0.2530  1.0952  11.00000  0.05    0.13
Q16   1   0.1063  0.2467  0.9016  11.00000  0.05    0.13
Q17   1  -0.0066  0.2138  1.1164  11.00000  0.05    0.13
Q18   1   0.1922  0.4094  0.7114  11.00000  0.05    0.13
Q19   1   0.3401  0.3019  1.2205  11.00000  0.05    0.13
Q20   1   0.4408  0.1907  1.1181  11.00000  0.05    0.12

  REM The information below was added by Olex2.
  REM
  REM R1 = 0.0454 for 2713 Fo > 4sig(Fo) and 0.0599 for all 11154 data
  REM n/a parameters refined using n/a restraints
  REM Highest difference peak 0.18, deepest hole -0.18
  REM Mean Shift 0, Max Shift 0.000.

  REM +++ Tabular Listing of Refinement Information +++
  REM R1_all = 0.0599
  REM R1_gt = 0.0454
  REM wR_ref = 0.1215
  REM GOOF = 1.056
  REM Shift_max = 0.000
  REM Shift_mean = 0
  REM Reflections_all = 11154
  REM Reflections_gt = 2713
  REM Parameters = n/a
  REM Hole = -0.18
  REM Peak = 0.18
  REM Flack = n/a

  
;
_cod_data_source_file            ao0c05272_si_003.cif
_cod_data_source_block           cjl20200806sy_0m
_cod_database_code               4518263
_shelx_shelxl_version_number     2014/7
_shelx_space_group_comment
;
The symmetry employed for this shelxl refinement is uniquely defined
by the following loop, which should always be used as a source of
symmetry information in preference to the above space-group names.
They are only intended as comments.
;
_olex2_refinement_description
;
1. Fixed Uiso
 At 1.2 times of:
  All C(H) groups
 At 1.5 times of:
  All C(H,H,H) groups
2.a Aromatic/amide H refined with riding coordinates:
 C9(H9), C10(H10), C13(H13), C17(H17), C1(H1), C16(H16), C5(H5), C14(H14),
 C2(H2), C4(H4), C3(H3)
2.b Idealised Me refined as rotating group:
 C19(H19A,H19B,H19C)
;
_olex2_submission_special_instructions 'No special instructions were received'
loop_
_space_group_symop_operation_xyz
'x, y, z'
'-x, -y, -z'
loop_
_atom_site_label
_atom_site_type_symbol
_atom_site_fract_x
_atom_site_fract_y
_atom_site_fract_z
_atom_site_U_iso_or_equiv
_atom_site_adp_type
_atom_site_occupancy
_atom_site_site_symmetry_order
_atom_site_calc_flag
_atom_site_refinement_flags_posn
_atom_site_refinement_flags_adp
_atom_site_refinement_flags_occupancy
_atom_site_disorder_assembly
_atom_site_disorder_group
O2 O 0.39685(13) 0.32591(14) 0.69204(13) 0.0657(3) Uani 1 1 d . . . . .
N1 N 0.15950(14) 0.28341(12) 0.89572(13) 0.0415(3) Uani 1 1 d . . . . .
F1 F -0.19392(14) 0.18879(13) 0.49864(13) 0.0784(3) Uani 1 1 d . . . . .
C6 C 0.37482(16) 0.25824(15) 1.14789(15) 0.0425(3) Uani 1 1 d . . . . .
O1 O 0.32631(18) 0.43757(13) 0.97216(16) 0.0724(4) Uani 1 1 d . . . . .
C18 C 0.25201(18) 0.36443(15) 0.75926(17) 0.0453(3) Uani 1 1 d . . . . .
C7 C 0.30175(18) 0.32248(15) 1.04015(16) 0.0456(3) Uani 1 1 d . . . . .
C12 C -0.02954(16) 0.22207(14) 0.80778(16) 0.0409(3) Uani 1 1 d . . . . .
C9 C 0.08417(19) 0.16811(16) 1.12382(16) 0.0481(4) Uani 1 1 d . . . . .
H9 H 0.0794 0.1298 1.2179 0.058 Uiso 1 1 calc R . . . .
C8 C 0.19656(17) 0.24722(15) 1.01923(16) 0.0426(3) Uani 1 1 d . . . . .
C10 C -0.02156(19) 0.15525(17) 1.06420(16) 0.0500(4) Uani 1 1 d . . . . .
H10 H -0.1098 0.1076 1.1122 0.060 Uiso 1 1 calc R . . . .
C11 C 0.02680(16) 0.22480(15) 0.92269(16) 0.0422(3) Uani 1 1 d . . . . .
C13 C 0.08161(18) 0.18488(19) 0.66237(17) 0.0542(4) Uani 1 1 d . . . . .
H13 H 0.1948 0.1670 0.6350 0.065 Uiso 1 1 calc R . . . .
C17 C -0.19747(18) 0.24742(17) 0.84615(18) 0.0511(4) Uani 1 1 d . . . . .
H17 H -0.2737 0.2720 0.9433 0.061 Uiso 1 1 calc R . . . .
C1 C 0.41476(18) 0.11288(17) 1.17671(17) 0.0504(4) Uani 1 1 d . . . . .
H1 H 0.3902 0.0512 1.1324 0.061 Uiso 1 1 calc R . . . .
C16 C -0.25326(19) 0.23676(18) 0.7425(2) 0.0551(4) Uani 1 1 d . . . . .
H16 H -0.3661 0.2538 0.7687 0.066 Uiso 1 1 calc R . . . .
C5 C 0.4129(2) 0.34871(18) 1.21511(18) 0.0533(4) Uani 1 1 d . . . . .
H5 H 0.3886 0.4465 1.1951 0.064 Uiso 1 1 calc R . . . .
C14 C 0.0270(2) 0.1740(2) 0.55799(18) 0.0625(5) Uani 1 1 d . . . . .
H14 H 0.1020 0.1491 0.4606 0.075 Uiso 1 1 calc R . . . .
C15 C -0.1395(2) 0.20070(17) 0.60077(18) 0.0527(4) Uani 1 1 d . . . . .
C2 C 0.4913(2) 0.0593(2) 1.2716(2) 0.0636(5) Uani 1 1 d . . . . .
H2 H 0.5191 -0.0384 1.2899 0.076 Uiso 1 1 calc R . . . .
C4 C 0.4866(2) 0.2937(2) 1.3113(2) 0.0642(5) Uani 1 1 d . . . . .
H4 H 0.5095 0.3546 1.3579 0.077 Uiso 1 1 calc R . . . .
C3 C 0.5262(2) 0.1497(2) 1.3384(2) 0.0664(5) Uani 1 1 d . . . . .
H3 H 0.5770 0.1131 1.4025 0.080 Uiso 1 1 calc R . . . .
C19 C 0.1545(3) 0.4941(2) 0.7159(3) 0.0827(6) Uani 1 1 d . . . . .
H19A H 0.1404 0.5708 0.7719 0.124 Uiso 1 1 calc GR . . . .
H19B H 0.0479 0.4769 0.7380 0.124 Uiso 1 1 calc GR . . . .
H19C H 0.2119 0.5189 0.6095 0.124 Uiso 1 1 calc GR . . . .
loop_
_atom_site_aniso_label
_atom_site_aniso_U_11
_atom_site_aniso_U_22
_atom_site_aniso_U_33
_atom_site_aniso_U_23
_atom_site_aniso_U_13
_atom_site_aniso_U_12
O2 0.0428(6) 0.0852(9) 0.0549(7) 0.0127(6) -0.0143(5) -0.0150(6)
N1 0.0392(6) 0.0442(6) 0.0398(6) -0.0017(5) -0.0152(5) -0.0110(5)
F1 0.0820(7) 0.1074(9) 0.0663(7) -0.0045(6) -0.0482(6) -0.0222(6)
C6 0.0384(7) 0.0499(8) 0.0362(7) -0.0047(6) -0.0108(6) -0.0132(6)
O1 0.1021(10) 0.0631(7) 0.0803(9) 0.0223(6) -0.0591(8) -0.0441(7)
C18 0.0443(8) 0.0476(8) 0.0448(8) 0.0029(6) -0.0200(6) -0.0133(6)
C7 0.0475(8) 0.0466(8) 0.0433(8) -0.0020(6) -0.0174(6) -0.0153(6)
C12 0.0379(7) 0.0415(7) 0.0413(7) -0.0051(5) -0.0140(6) -0.0091(5)
C9 0.0564(8) 0.0531(8) 0.0355(7) -0.0041(6) -0.0164(6) -0.0186(7)
C8 0.0455(7) 0.0443(7) 0.0382(7) -0.0047(6) -0.0172(6) -0.0100(6)
C10 0.0507(8) 0.0588(9) 0.0402(8) -0.0062(6) -0.0117(6) -0.0241(7)
C11 0.0372(7) 0.0470(7) 0.0401(7) -0.0087(6) -0.0116(6) -0.0108(6)
C13 0.0367(7) 0.0781(11) 0.0439(8) -0.0124(7) -0.0135(6) -0.0069(7)
C17 0.0382(7) 0.0627(9) 0.0481(8) -0.0154(7) -0.0110(6) -0.0100(7)
C1 0.0483(8) 0.0526(8) 0.0464(8) -0.0076(7) -0.0166(7) -0.0084(7)
C16 0.0390(7) 0.0652(10) 0.0636(10) -0.0101(8) -0.0234(7) -0.0086(7)
C5 0.0574(9) 0.0570(9) 0.0504(9) -0.0034(7) -0.0228(7) -0.0211(7)
C14 0.0535(9) 0.0914(13) 0.0385(8) -0.0120(8) -0.0147(7) -0.0122(9)
C15 0.0590(9) 0.0590(9) 0.0498(9) 0.0005(7) -0.0319(7) -0.0142(7)
C2 0.0584(10) 0.0638(10) 0.0618(10) 0.0049(8) -0.0267(8) -0.0062(8)
C4 0.0663(10) 0.0873(13) 0.0514(9) -0.0063(9) -0.0275(8) -0.0310(10)
C3 0.0577(10) 0.0937(14) 0.0516(10) 0.0080(9) -0.0285(8) -0.0207(9)
C19 0.0725(12) 0.0555(11) 0.1085(17) 0.0250(11) -0.0417(12) -0.0101(9)
loop_
_atom_type_symbol
_atom_type_description
_atom_type_scat_dispersion_real
_atom_type_scat_dispersion_imag
_atom_type_scat_source
C C 0.0033 0.0016 'International Tables Vol C Tables 4.2.6.8 and 6.1.1.4'
H H 0.0000 0.0000 'International Tables Vol C Tables 4.2.6.8 and 6.1.1.4'
F F 0.0171 0.0103 'International Tables Vol C Tables 4.2.6.8 and 6.1.1.4'
N N 0.0061 0.0033 'International Tables Vol C Tables 4.2.6.8 and 6.1.1.4'
O O 0.0106 0.0060 'International Tables Vol C Tables 4.2.6.8 and 6.1.1.4'
loop_
_geom_angle_atom_site_label_1
_geom_angle_atom_site_label_2
_geom_angle_atom_site_label_3
_geom_angle
_geom_angle_site_symmetry_1
_geom_angle_site_symmetry_3
_geom_angle_publ_flag
C8 N1 C18 124.47(11) . . ?
C11 N1 C18 126.54(12) . . ?
C11 N1 C8 108.94(11) . . ?
C1 C6 C7 122.70(13) . . ?
C1 C6 C5 119.10(14) . . ?
C5 C6 C7 118.10(13) . . ?
O2 C18 N1 119.64(13) . . ?
O2 C18 C19 124.58(15) . . ?
N1 C18 C19 115.77(14) . . ?
O1 C7 C6 120.77(13) . . ?
O1 C7 C8 120.16(14) . . ?
C8 C7 C6 119.05(12) . . ?
C13 C12 C11 121.45(12) . . ?
C17 C12 C11 119.99(13) . . ?
C17 C12 C13 118.40(13) . . ?
C8 C9 C10 108.03(13) . . ?
N1 C8 C7 120.82(12) . . ?
C9 C8 N1 107.25(12) . . ?
C9 C8 C7 129.30(13) . . ?
C11 C10 C9 108.35(13) . . ?
N1 C11 C12 123.86(12) . . ?
C10 C11 N1 107.40(12) . . ?
C10 C11 C12 128.10(13) . . ?
C14 C13 C12 121.03(14) . . ?
C16 C17 C12 120.98(14) . . ?
C6 C1 C2 120.02(15) . . ?
C15 C16 C17 118.54(14) . . ?
C4 C5 C6 120.17(16) . . ?
C15 C14 C13 118.44(15) . . ?
F1 C15 C16 118.75(14) . . ?
F1 C15 C14 118.65(15) . . ?
C16 C15 C14 122.60(15) . . ?
C3 C2 C1 120.23(17) . . ?
C3 C4 C5 120.18(16) . . ?
C4 C3 C2 120.28(17) . . ?
loop_
_geom_bond_atom_site_label_1
_geom_bond_atom_site_label_2
_geom_bond_distance
_geom_bond_site_symmetry_2
_geom_bond_publ_flag
O2 C18 1.1835(18) . ?
N1 C18 1.4479(18) . ?
N1 C8 1.3880(18) . ?
N1 C11 1.3800(17) . ?
F1 C15 1.3580(17) . ?
C6 C7 1.487(2) . ?
C6 C1 1.384(2) . ?
C6 C5 1.392(2) . ?
O1 C7 1.2189(18) . ?
C18 C19 1.479(2) . ?
C7 C8 1.4598(19) . ?
C12 C11 1.4656(19) . ?
C12 C13 1.387(2) . ?
C12 C17 1.3852(19) . ?
C9 C8 1.374(2) . ?
C9 C10 1.395(2) . ?
C10 C11 1.372(2) . ?
C13 C14 1.377(2) . ?
C17 C16 1.378(2) . ?
C1 C2 1.384(2) . ?
C16 C15 1.362(2) . ?
C5 C4 1.379(2) . ?
C14 C15 1.364(2) . ?
C2 C3 1.370(3) . ?
C4 C3 1.369(3) . ?
loop_
_refln_index_h
_refln_index_k
_refln_index_l
_refln_F_squared_meas
_refln_F_squared_sigma
-2 0 0 2531.15 53.52
-2 0 0 2472.01 55.83
-2 0 0 2407.55 53.85
2 0 0 2421.67 53.9
2 0 0 2449.11 55.93
2 0 0 2493.67 53.46
-3 0 0 1475.16 34.27
-3 0 0 1508.62 37.14
-3 0 0 1520.55 33.69
3 0 0 1433.55 33.45
3 0 0 1514.34 37.27
-4 0 0 268.64 11.85
-4 0 0 300.76 12.32
-4 0 0 283.71 9.53
4 0 0 283.38 12.38
4 0 0 301.93 8.74
4 0 0 279.87 9.65
-5 0 0 2552.66 58.39
-5 0 0 2555.75 57.15
5 0 0 2441.43 56.78
5 0 0 2617.23 60.5
5 0 0 2498.16 63.03
-6 0 0 287.31 10.21
6 0 0 261.5 15.39
6 0 0 266.15 9.32
6 0 0 273.82 11.01
-7 0 0 0.41 2.35
7 0 0 4.33 2.26
7 0 0 8.31 4.3
7 0 0 -6.3 5.52
-8 0 0 15.95 4.6
8 0 0 14.43 4.18
8 0 0 16.36 8.44
8 0 0 18.77 5.33
-9 0 0 245.77 18.86
-9 0 0 231.53 11.48
9 0 0 230.43 12.89
9 0 0 240.27 18.49
-10 0 0 45.19 7.88
-10 0 0 51.04 12.62
10 0 0 43.3 12.15
10 -1 0 8.7 9.8
10 -1 0 23.18 6.63
-10 1 0 11.31 10.17
9 -1 0 60.53 9.2
9 -1 0 61.32 12.02
-9 1 0 66.98 13.25
-9 1 0 53.88 6.99
8 -1 0 57.84 16.68
8 -1 0 56.71 6.88
-8 1 0 60.38 18.88
-8 1 0 42.46 5.97
7 -1 0 432.26 13.11
7 -1 0 477.25 17.57
7 -1 0 442.49 22.22
-7 1 0 444.28 13.19
-7 1 0 507.34 23.28
-7 1 0 472.1 14.1
6 -1 0 67.25 4.14
6 -1 0 58.67 6.93
6 -1 0 65.32 9.62
-6 1 0 61.91 5.12
-6 1 0 54.52 8.77
5 -1 0 13.87 5.6
5 -1 0 22 2.69
5 -1 0 23.44 4.32
-5 1 0 14.15 4.46
-5 1 0 25.98 4.24
4 -1 0 3180.76 71.4
4 -1 0 3202.34 74.51
4 -1 0 3104.02 68.21
-4 1 0 3140.91 68.4
-4 1 0 3128.11 71.28
-4 1 0 3040.23 73.85
3 -1 0 5016.55 111.5
3 -1 0 4984.31 109.08
-3 1 0 5056.87 106.83
-3 1 0 4777.25 111.14
-3 1 0 5071.19 109.16
2 -1 0 1091.88 23.78
2 -1 0 1100.28 29.03
2 -1 0 1108.03 31.72
-2 1 0 1043.12 26.83
-2 1 0 1163.8 32.71
-2 1 0 1079.58 23.82
-2 1 0 1026.79 25.59
-1 -1 0 1327.16 30
-4 -1 0 78.28 4.83
-4 -1 0 73.76 4.24
-4 -1 0 72.47 6.37
4 1 0 70.46 4.44
4 1 0 76.72 6.86
-5 -1 0 9.72 2.82
-5 -1 0 13.71 3.17
5 1 0 9.03 2.99
-6 -1 0 67.28 5.64
-6 -1 0 72.76 6.11
6 1 0 54.17 9.15
6 1 0 74.59 5.21
6 1 0 70.82 6.54
-7 -1 0 6.71 3.8
7 1 0 7.73 6.31
7 1 0 -2.78 3.5
-8 -1 0 86.42 8.55
8 1 0 96.17 7.85
8 1 0 82.05 12.04
-9 -1 0 198.92 11.41
9 1 0 197.32 11.08
9 1 0 202.24 17.95
-10 -1 0 103.2 15.9
10 1 0 110.71 15.77
10 1 0 115.71 9.62
9 -2 0 -1.93 8.66
-9 2 0 4.42 8.91
8 -2 0 69.25 12.88
8 -2 0 73.83 9.89
-8 2 0 79.76 4.36
-8 2 0 78.79 14.51
-8 2 0 83.93 3.75
7 -2 0 -9.13 6.49
7 -2 0 -0.18 4.14
-7 2 0 -7.17 5.56
-7 2 0 0.94 1.62
-7 2 0 -1.74 2.05
6 -2 0 -6.3 3.85
6 -2 0 3.04 1.5
-6 2 0 0.41 1.93
-6 2 0 0.67 4.98
-6 2 0 0.45 1.54
5 -2 0 1153.12 30.64
5 -2 0 1090.77 25.36
-5 2 0 1129.59 25.6
4 -2 0 179.21 8.84
4 -2 0 175.78 10.83
-4 2 0 193.81 11.08
-4 2 0 190.05 5.4
-4 2 0 180.75 8.85
3 -2 0 1216.03 26.57
3 -2 0 1257.24 32.53
3 -2 0 1221.38 30.38
-3 2 0 1184.53 31.1
-3 2 0 1187.26 26.58
-3 2 0 1228.56 32.45
-3 2 0 1230.08 38.8
2 -2 0 3362.79 73.81
2 -2 0 3197.11 74.76
2 -2 0 3320.61 75
2 -2 0 3374.25 70.83
-2 2 0 3332.41 70.74
-2 2 0 3375.71 73.87
-2 2 0 3377.28 75.16
-2 2 0 3148.3 74.58
-1 -2 0 501.73 13.07
-1 -2 0 597.06 12.23
-1 -2 0 519.36 13.98
1 2 0 495.42 12.62
1 2 0 494 12.96
1 2 0 491.53 13.76
-2 -2 0 4277.26 93.2
2 2 0 4139.79 91.76
-3 -2 0 363.89 10.82
-3 -2 0 332.79 12.25
3 2 0 353.65 8.7
3 2 0 341.63 12.29
3 2 0 344.74 10.54
-4 -2 0 3628.63 78.52
-4 -2 0 3681.76 84.28
-4 -2 0 3751.62 81.11
4 2 0 3639.23 78.75
4 2 0 3629.24 84.31
4 2 0 3400.71 84.69
-5 -2 0 5072.74 109.95
-5 -2 0 4947.85 107.38
5 2 0 4769.38 109.27
5 2 0 4982.3 114.31
-6 -2 0 42.59 4.51
-6 -2 0 48.9 5.8
6 2 0 50.1 7.86
6 2 0 41.72 4.54
-7 -2 0 130.98 8.28
-7 -2 0 131.96 9.09
7 2 0 130.79 8.12
7 2 0 126.98 11.96
-8 -2 0 90.34 8.32
-8 -2 0 115.19 9.44
8 2 0 102.49 7.4
8 2 0 108.85 13.61
-9 -2 0 338.16 15.28
9 2 0 336.3 20.74
9 2 0 317 12.91
-10 -2 0 11.45 5.89
10 2 0 12.13 7.51
9 -3 0 34.65 7.94
9 -3 0 36.16 11.2
8 -3 0 34.49 7.73
8 -3 0 25.96 9.63
-8 3 0 28.47 10.43
7 -3 0 1.55 7.71
7 -3 0 4.52 5.52
-7 3 0 5.87 7.76
6 -3 0 180.94 13.99
6 -3 0 182.2 11.91
-6 3 0 203.72 15.16
5 -3 0 116.36 8.94
5 -3 0 123.83 11.52
-5 3 0 116.1 11.3
4 -3 0 121.74 8.31
4 -3 0 116 10.06
-4 3 0 125.26 10.02
3 -3 0 378.7 13.37
3 -3 0 388.1 8.91
-3 3 0 385.85 13.63
-3 3 0 378.77 14.38
2 -3 0 3841.07 81.43
2 -3 0 3769.8 85.07
2 -3 0 3798.42 85.94
2 -3 0 3685.51 81.88
-2 3 0 3832.2 86.37
-2 3 0 3782.33 85.21
-2 3 0 3805.16 85.88
-2 -3 0 305.67 9.63
-2 -3 0 299.64 7.52
-2 -3 0 266.91 10.78
2 3 0 273.89 10.62
2 3 0 286.11 9.26
-3 -3 0 1399.07 34.19
-3 -3 0 1394.96 35.92
-3 -3 0 1435.33 30.81
-3 -3 0 1442.15 30.83
3 3 0 1390.17 35.76
-4 -3 0 260.17 10.07
-4 -3 0 245.81 11.93
-4 -3 0 263.1 6.76
4 3 0 242.64 9.4
4 3 0 243.93 11.99
-5 -3 0 518.96 13.23
-5 -3 0 524.89 13
-5 -3 0 525.15 16.55
5 3 0 530.67 19.79
5 3 0 525.89 13.24
-6 -3 0 107.17 5.13
-6 -3 0 113.58 8.12
6 3 0 104.11 6.42
6 3 0 110.23 10
-7 -3 0 213.97 8.25
-7 -3 0 247.04 12.29
7 3 0 218.89 8.49
7 3 0 237.14 15.85
-8 -3 0 66.38 8.79
-8 -3 0 60.21 5.82
8 3 0 65.57 5.7
8 3 0 83.7 12.9
-9 -3 0 73.96 9.8
9 3 0 59.7 11.65
-10 -3 0 9.99 6.23
10 3 0 13.66 3.59
10 3 0 9.04 8.69
9 -4 0 19.88 6.9
-9 4 0 -2.96 9
8 -4 0 151.32 13.2
-8 4 0 138.8 17.66
7 -4 0 14.39 6.78
-7 4 0 9.45 8.02
6 -4 0 408.86 18.03
-6 4 0 420.61 21.87
5 -4 0 66.2 8.71
-5 4 0 55.13 10.49
4 -4 0 2038.35 51.07
-4 4 0 2068.24 54.2
3 -4 0 646.39 21.44
3 -4 0 650.31 19.99
3 -4 0 647.33 14.92
-3 4 0 623.22 21.03
-3 4 0 649.37 21.88
2 -4 0 2953.55 77.87
2 -4 0 2982.31 64.49
2 -4 0 2988.91 68.14
2 -4 0 2997.96 64.41
-2 4 0 2953.87 68.45
-2 4 0 2740.8 76.39
-2 4 0 3014.99 70.02
0 -4 0 1914.31 46.11
0 -4 0 1882.9 44.48
0 -4 0 1978.29 44.11
0 -4 0 1934.07 43.94
0 4 0 1918.58 46.34
0 4 0 1868.58 43.78
0 4 0 1946.12 44.62
-1 -4 0 14.99 4.3
-1 -4 0 14.45 2.6
-1 -4 0 19.63 3.19
-1 -4 0 14.51 2.81
1 4 0 21.64 4.45
1 4 0 20.45 3.27
-2 -4 0 1248.95 28.42
-2 -4 0 1236.07 31.11
-2 -4 0 1261.94 31.02
-2 -4 0 1237.83 32.22
2 4 0 1223.28 28.44
2 4 0 1238.53 31.85
2 4 0 1198.18 30.67
-3 -4 0 1046.07 23.38
-3 -4 0 1038.43 28.79
-3 -4 0 1026.31 26.95
3 4 0 1072.85 24.13
3 4 0 1005.2 26.63
3 4 0 1018.6 30.66
-4 -4 0 5776.15 131
4 4 0 6053.19 133.77
-5 -4 0 616.57 19.28
5 4 0 589.14 23.48
-6 -4 0 1636.67 42.16
6 4 0 1623.9 46.02
-7 -4 0 168.07 11.04
-7 -4 0 149.3 5.75
-7 -4 0 150.99 5.61
7 4 0 154.85 13.87
-8 -4 0 299.92 9.14
-8 -4 0 314.78 9.88
-8 -4 0 332.91 15.77
8 4 0 325.58 19.5
-9 -4 0 147.06 11.98
9 4 0 143.56 14.99
-10 -4 0 7.22 6.49
10 4 0 8.04 7.95
8 -5 0 14.24 7.14
-8 5 0 3.86 9.38
7 -5 0 54.66 9.3
-7 5 0 63.18 12.82
6 -5 0 12.79 6.51
-6 5 0 14.97 8.02
5 -5 0 353.58 16.69
-5 5 0 331.88 19.01
4 -5 0 138.51 10.4
-4 5 0 127.04 12.06
3 -5 0 266.85 7.63
3 -5 0 271.63 12.59
3 -5 0 259.8 7.83
-3 5 0 267.33 14.75
2 -5 0 -2.76 3.11
2 -5 0 -0.64 1.83
2 -5 0 0.13 3.31
2 -5 0 -1.89 2.06
-2 5 0 1.16 3.63
-2 5 0 2.58 4.88
1 -5 0 3076.79 66.74
1 -5 0 3043.21 66.82
1 -5 0 2867.76 73.35
1 -5 0 2965.79 68.87
-1 5 0 3058.47 71.28
-1 5 0 2876.55 75.03
0 -5 0 95.06 7.73
0 -5 0 100.92 6.15
0 -5 0 100.32 6.13
0 5 0 98.33 6.41
0 5 0 108.39 8.86
0 5 0 94.55 5.58
-1 -5 0 7972.29 177.52
-1 -5 0 8205.2 175.32
1 5 0 7982.75 175.07
-2 -5 0 3.74 2.58
-2 -5 0 11.18 2.49
-2 -5 0 4.48 2.47
-2 -5 0 0.64 8.21
2 5 0 7.01 2.68
2 5 0 5.97 2.31
2 5 0 -1.04 4.22
-3 -5 0 795.63 24.9
-3 -5 0 797.1 22.9
-3 -5 0 834.12 19.57
3 5 0 814.79 19.71
3 5 0 810.26 24.64
-4 -5 0 1277.69 27.93
-4 -5 0 1299.9 35.37
4 5 0 1200.44 34.8
-5 -5 0 1527.88 39.37
5 5 0 1461.26 41.92
-6 -5 0 26.82 5.92
6 5 0 27.21 7.23
-7 -5 0 1717.28 45.3
7 5 0 1631.36 49.09
-8 -5 0 34.04 7.22
-9 -5 0 7.25 10.09
9 5 0 2.49 7.5
-10 -5 0 1.88 6.66
10 5 0 8.69 8.4
8 -6 0 89.11 12.59
-8 6 0 61.11 14.01
7 -6 0 18.04 7.16
-7 6 0 5.27 8.38
6 -6 0 21.51 7.41
-6 6 0 22.44 9.07
5 -6 0 10.27 5.92
-5 6 0 14.15 8.12
4 -6 0 -3.08 4.54
-4 6 0 3.12 7.15
3 -6 0 -5.09 4.08
-3 6 0 4.38 11.4
2 -6 0 226.21 8.52
2 -6 0 224.12 8.25
2 -6 0 234.75 11.79
-2 6 0 231.39 14.3
1 -6 0 315.97 13.81
1 -6 0 300.81 12.46
1 -6 0 293.96 11.92
1 -6 0 305.04 10.62
-1 6 0 323.04 15.48
0 -6 0 267.42 10.69
0 -6 0 276.11 10.53
0 -6 0 275.26 11.37
0 -6 0 272.18 13
0 6 0 288.92 16.67
0 6 0 249.23 9.97
-1 -6 0 2949.37 71.4
-1 -6 0 3039.16 68.59
1 6 0 2978.05 74.8
1 6 0 2902.6 67.84
-2 -6 0 940.92 29.44
-2 -6 0 1020.97 25.22
-2 -6 0 1031.92 27.29
2 6 0 956.38 25.07
2 6 0 988.27 28.96
3 6 0 10.66 2.82
3 6 0 3.64 5.24
-4 -6 0 410.9 10.94
-4 -6 0 442.72 16.27
-4 -6 0 402.77 11.12
4 6 0 419.48 17.77
4 6 0 402.88 11.22
-5 -6 0 1762.71 45.17
5 6 0 1673.95 47.19
-6 -6 0 363.73 16.27
6 6 0 325.36 17.88
-7 -6 0 417.38 18.17
7 6 0 406.51 21.44
8 6 0 27.53 8.68
-9 -6 0 11.42 7.01
9 6 0 18.4 8.62
-10 -6 0 4.8 7.03
10 6 0 18.87 8.89
7 -7 0 8.09 7.23
-7 7 0 -4.25 9.53
6 -7 0 3.36 6.82
-6 7 0 -9.16 8.03
5 -7 0 -7.2 5.11
-5 7 0 1.54 8.34
4 -7 0 30.83 7.43
-4 7 0 36.07 10.05
3 -7 0 12.95 2.9
3 -7 0 13.47 6.24
3 -7 0 10.53 2.91
-3 7 0 18.65 8.34
2 -7 0 -4.57 4.2
2 -7 0 -1.22 2.47
-2 7 0 0.08 7.96
1 -7 0 4.02 4.04
1 -7 0 9.54 3.28
1 -7 0 9.97 3.26
-1 7 0 4.29 6.76
0 -7 0 157.38 9.73
0 -7 0 177.5 8.96
0 7 0 171.98 13.09
-1 -7 0 534.93 17.31
-1 -7 0 527.85 17.54
1 7 0 547.36 20.63
-2 -7 0 63.21 7.29
-2 -7 0 71.8 6.99
2 7 0 53.9 6.08
2 7 0 62.54 9.73
-3 -7 0 -4.9 2.88
-3 -7 0 -1.13 3.75
-4 -7 0 1319.73 33.65
-4 -7 0 1363.21 37.28
4 7 0 1316.78 31.97
4 7 0 1410.27 39.61
-5 -7 0 637.44 22.66
5 7 0 642.98 24.63
-6 -7 0 673.21 24.51
6 7 0 679.65 26.93
7 7 0 24.37 8.33
-8 -7 0 8.18 6.11
8 7 0 12.73 7.66
-9 -7 0 75.13 10.91
9 7 0 97.88 15.05
6 -8 0 13.98 7.95
-6 8 0 -10.3 9.09
5 -8 0 91.15 11.69
-5 8 0 81.9 15.79
4 -8 0 22.17 2.77
4 -8 0 28.53 8.15
-4 8 0 23.11 10.32
3 -8 0 14.25 3.34
3 -8 0 9.59 5.91
3 -8 0 9.78 3.11
-3 8 0 4.71 8.97
2 -8 0 44.38 7.41
2 -8 0 51.63 5.49
2 -8 0 39.19 5.72
-2 8 0 43.88 10.13
1 -8 0 11.85 5.24
1 -8 0 17.98 4.47
-1 8 0 20.74 8.76
0 -8 0 2.83 4.65
0 -8 0 3.72 4.82
0 8 0 3.62 7.58
-1 -8 0 -4.09 4.08
-1 -8 0 -9.99 6.47
1 8 0 -1.63 6.44
-2 -8 0 1158.24 32.97
-2 -8 0 1146.6 31.27
2 8 0 1258.03 48.41
-3 -8 0 59 8.1
-3 -8 0 52.71 7
3 8 0 53.31 6.38
3 8 0 59.39 9.29
-4 -8 0 10.99 5.38
-4 -8 0 7.2 3.34
4 8 0 3.13 6.2
4 8 0 2.65 3.33
-5 -8 0 1504.06 41.42
-5 -8 0 1368.52 32.5
-5 -8 0 1380.78 32.31
5 8 0 1459.04 43.21
6 8 0 88.34 12.93
-7 -8 0 -0.2 6.3
-8 -8 0 128.39 14.55
8 8 0 139.77 15.7
-9 -8 0 0.58 6.36
9 8 0 35.69 9.5
5 -9 0 20.01 8.49
-5 9 0 3.07 10.69
-4 9 0 -12.58 9.23
3 -9 0 206.48 11.13
3 -9 0 237.33 15.68
-3 9 0 183.69 18.15
2 -9 0 -6.16 3.1
2 -9 0 6.86 5.76
-2 9 0 -11.37 8.26
1 -9 0 0.42 5.2
1 -9 0 1.71 3.89
-1 9 0 -4.43 8.15
0 -9 0 11.15 4.9
0 -9 0 7.64 5.48
0 9 0 15.67 8.37
-1 -9 0 247.01 12.91
-1 -9 0 237.75 12.61
1 9 0 251.41 16.67
-2 -9 0 71.26 10.51
-2 -9 0 74.85 9.55
2 9 0 76.53 11.68
-3 -9 0 633.27 22.94
-3 -9 0 635.4 19.98
3 9 0 673.92 25.54
-4 -9 0 175.96 13.52
4 9 0 156.48 8.69
4 9 0 183.67 14.95
-5 -9 0 148.38 6.55
-5 -9 0 161.48 14
5 9 0 159 6.87
5 9 0 189.66 15.59
-6 -9 0 138.06 13.73
6 9 0 166.92 15.05
-7 -9 0 304.6 17.9
7 9 0 326.79 20.1
-8 -9 0 45.38 9.93
-4 10 0 40.8 13.32
3 -10 0 22.09 7.86
3 -10 0 15.31 4.06
-3 10 0 -3.24 10.38
2 -10 0 97.17 11.91
2 -10 0 70.54 8.34
-2 10 0 51.08 12.64
1 -10 0 -0.82 4.02
-1 10 0 -5.12 8.86
0 -10 0 140.81 11.51
0 -10 0 115.24 10.47
0 10 0 115.28 15.45
-1 -10 0 83.19 9.77
-1 -10 0 84.33 10.11
1 10 0 81.42 13.56
-2 -10 0 289.88 15.73
-2 -10 0 294.46 14.25
2 10 0 310.78 18.04
-3 -10 0 78.34 9.02
-3 -10 0 68.92 10.84
3 10 0 86.03 13.2
-4 -10 0 101.82 11.24
-4 -10 0 118.33 7.78
4 10 0 116.53 13.6
-5 -10 0 2.74 6.55
5 10 0 9.9 7.05
-6 -10 0 2.81 7
6 10 0 25.85 8.63
-7 -10 0 2.02 7.03
3 -11 0 32.4 11.62
-3 11 0 3.11 11.68
2 -11 0 9.85 4.75
2 -11 0 20.36 7.37
-2 11 0 -9.2 11.37
1 -11 0 29.32 7.98
1 -11 0 31.67 6.28
-1 11 0 14.38 9.96
0 -11 0 7.24 5.73
0 -11 0 8.73 6.28
0 11 0 4.1 8.55
-1 -11 0 15.5 6.03
-1 -11 0 2.67 6.02
1 11 0 16.3 8.87
-2 -11 0 98.28 10.64
-2 -11 0 76.29 11.06
2 11 0 129.51 14.7
-3 -11 0 -2.28 5.84
-3 -11 0 5.96 4.27
3 11 0 19.58 7.98
-4 -11 0 3.19 6.17
4 11 0 20.25 7.5
-5 -11 0 39.9 9.09
5 11 0 62.23 11.46
-6 -11 0 3.1 7.37
6 11 0 30.25 8.28
0 -12 0 26.73 7.36
0 -12 0 8.45 7.5
-1 -12 0 25.01 6.76
-1 -12 0 12.05 6.95
1 12 0 29.81 10.31
-2 -12 0 -3.96 6.56
2 12 0 25.64 9.16
-3 -12 0 17.23 5.86
3 12 0 20.72 8.55
-4 -12 0 59.9 7.22
4 12 0 69.2 11.03
-3 -12 1 -3.9 7.06
2 12 -1 25.58 8.66
-2 -12 1 1.07 6.45
1 12 -1 25.06 9.68
-1 -12 1 1.4 6.59
-1 -12 1 4.4 5.75
0 12 -1 47.72 11.84
0 -12 1 32.81 7.48
-5 -11 1 52.54 10.69
4 11 -1 27.58 8.53
-4 -11 1 39.55 5.4
3 11 -1 4.35 8.75
-3 -11 1 13.2 4.19
-3 -11 1 3.2 6.92
2 11 -1 215.3 20.8
-2 -11 1 171.19 14.32
-2 -11 1 202.84 11.86
1 11 -1 80.78 15.31
-1 -11 1 96.16 10.84
0 11 -1 60.65 12.57
0 -11 1 80.54 15.73
0 -11 1 62.79 9.7
1 -11 1 53.4 8.86
1 -11 1 78.96 11.4
-2 11 -1 -13.05 10.21
2 -11 1 -2.3 4.04
2 -11 1 7.08 6.73
3 -11 1 78.76 12.63
7 10 -1 70.11 12.17
-6 -10 1 49.27 9.69
5 10 -1 43.5 9.98
4 10 -1 38.81 9.73
-4 -10 1 27.74 7.65
3 10 -1 75.38 13.52
-3 -10 1 81.98 7.37
-3 -10 1 79.75 10.46
2 10 -1 0.9 7.45
-2 -10 1 -2.66 5.84
-2 -10 1 6.43 4.7
1 10 -1 181.57 16.8
-1 -10 1 176.06 13.3
-1 -10 1 202.7 12.62
0 10 -1 271.62 19.76
0 -10 1 278.74 14.65
0 -10 1 282.99 15.61
-1 10 -1 -7.8 9.19
1 -10 1 9.55 6.04
1 -10 1 -4.99 4.09
-2 10 -1 8.51 10.69
2 -10 1 11.53 4.47
2 -10 1 17.7 7.28
-3 10 -1 -4.04 12.78
3 -10 1 18.21 6.98
3 -10 1 3.01 3.64
-4 10 -1 -15.97 10.41
4 -10 1 10.95 7.6
8 9 -1 86.51 13.68
7 9 -1 140.26 15.46
-7 -9 1 93.51 14.14
6 9 -1 2.93 6.83
-6 -9 1 3.23 6.85
5 9 -1 17.13 7.25
-5 -9 1 -1.01 6.36
4 9 -1 54.95 5.3
4 9 -1 71.92 12.41
-4 -9 1 79.98 5.4
3 9 -1 135.78 8.67
3 9 -1 154.75 14.94
-3 -9 1 159.87 8.82
-3 -9 1 153.02 12.93
2 9 -1 454.27 22.13
-2 -9 1 434.44 16.42
-2 -9 1 475.51 19.23
1 9 -1 66.87 12.79
-1 -9 1 60.65 8.45
-1 -9 1 53.14 8.86
0 9 -1 99.65 15.38
0 -9 1 107.83 10.35
0 -9 1 117.22 9.85
-1 9 -1 254.15 19.18
1 -9 1 282.41 12.72
1 -9 1 293.08 15.04
-2 9 -1 -10.8 8.77
2 -9 1 7.11 5.75
2 -9 1 -2.47 3.58
-3 9 -1 95.62 16.64
3 -9 1 145.88 13.35
3 -9 1 98 7.37
3 -9 1 123.78 8.38
4 -9 1 5.38 5.99
-5 9 -1 -15.46 10.41
5 -9 1 3.7 6.4
8 8 -1 373.86 22.74
-8 -8 1 342.22 20.06
7 8 -1 146.98 15.51
-7 -8 1 126.44 14.29
6 8 -1 265.41 20.99
-6 -8 1 279.74 16.36
5 8 -1 718.14 28.46
-5 -8 1 689.71 26.27
4 8 -1 347.13 19.04
4 8 -1 322.2 10.27
-4 -8 1 337.62 13.5
-4 -8 1 362.08 16.71
3 8 -1 26.61 8.25
3 8 -1 22.26 6.68
-3 -8 1 27.5 4.28
-3 -8 1 28.97 7.16
2 8 -1 17.74 8.17
2 8 -1 3.37 4.66
-2 -8 1 1.79 5.36
-2 -8 1 7.13 4
1 8 -1 487.62 22.1
-1 -8 1 469.24 16.95
-1 -8 1 502.35 18.02
0 8 -1 918.49 31.93
0 -8 1 910.2 26.4
0 -8 1 920.67 27.17
-1 8 -1 149.12 15.63
1 -8 1 146.63 9.09
1 -8 1 161.84 11.16
-2 8 -1 440.63 23.33
2 -8 1 425.12 14.55
2 -8 1 448.14 18.65
2 -8 1 421.6 16
-3 8 -1 104.01 15.49
3 -8 1 97.24 6.42
3 -8 1 102.23 10.54
-4 8 -1 25.04 10.74
4 -8 1 27.89 3.75
4 -8 1 43.89 8.88
4 -8 1 28.91 3.27
5 -8 1 16.91 7.88
-6 8 -1 48.89 13.16
6 -8 1 64.1 10.98
-9 -7 1 29.28 8.26
8 7 -1 13.22 8.21
-8 -7 1 7.32 7.09
7 7 -1 123.04 14.42
-7 -7 1 148.71 13.72
6 7 -1 772.25 30.4
-6 -7 1 757.19 26.84
5 7 -1 32.59 8.4
-5 -7 1 51.17 8.25
4 7 -1 48.48 9.42
-4 -7 1 46.21 7.61
3 7 -1 -4.53 2.59
3 7 -1 -1.39 6.04
-3 -7 1 2.79 4.77
-3 -7 1 -3.78 2.49
-2 -7 1 607.76 20.05
-2 -7 1 572.72 17.08
1 7 -1 28.53 4.72
1 7 -1 26.3 7.83
-1 -7 1 38.83 5.93
0 7 -1 601.81 23.53
0 -7 1 557.89 18.2
0 -7 1 555.39 18.58
-1 7 -1 275.23 12.13
1 -7 1 289.46 13.11
1 -7 1 297.12 11.4
1 -7 1 295.54 11.64
-2 7 -1 267.82 17.5
2 -7 1 246.83 13.15
2 -7 1 264.36 10.22
-3 7 -1 249.47 18.62
3 -7 1 250.38 8.92
3 -7 1 255.24 14.15
3 -7 1 237.24 8.8
-4 7 -1 76.96 14.5
4 -7 1 73.07 10.76
-5 7 -1 86.94 15.1
5 -7 1 82.45 10.72
-6 7 -1 0.78 8.74
6 -7 1 -5.24 6.46
-7 7 -1 28.93 12.08
7 -7 1 42.37 9.09
9 6 -1 101.25 13.88
-9 -6 1 81.99 12.59
8 6 -1 105.27 14.65
-8 -6 1 90.51 11.8
7 6 -1 252.93 26.89
-7 -6 1 193.25 14.51
6 6 -1 536.24 24.35
-6 -6 1 560.84 21.71
5 6 -1 1092.4 35.39
-5 -6 1 1101.54 32.27
4 6 -1 54.78 9.01
-4 -6 1 71.06 8.51
3 6 -1 1.39 2.03
3 6 -1 -2.93 6.28
-3 -6 1 3.46 1.91
-3 -6 1 -0.02 4.03
2 6 -1 76.68 10.57
2 6 -1 91.84 5.72
-2 -6 1 98.14 5.51
-2 -6 1 94.24 7.32
1 6 -1 1054.34 29.17
1 6 -1 1092.37 32.42
-1 -6 1 1076.65 28.71
-1 -6 1 1064.39 27.3
0 6 -1 5699.2 130.57
0 6 -1 5760.52 131.04
0 6 -1 6255.72 136.24
0 -6 1 6050.74 130.98
0 -6 1 5845.95 130.9
0 -6 1 5986.31 131.26
-1 6 -1 102.99 11.64
-1 6 -1 78.27 5.29
1 -6 1 72.45 5.64
1 -6 1 79.71 7.23
-2 6 -1 132.09 12.72
2 -6 1 120.18 6.3
2 -6 1 125.75 9.01
2 -6 1 122.71 6.29
-3 6 -1 3.29 6.88
3 -6 1 3.51 4.26
3 -6 1 4.49 2.02
-4 6 -1 457.51 22.29
4 -6 1 444.17 18.27
-5 6 -1 124.28 14.69
5 -6 1 114.63 11.82
-6 6 -1 166.77 17.02
6 -6 1 163.83 13.15
-7 6 -1 -2.78 8.52
7 -6 1 10.08 6.96
-8 6 -1 -2.84 9.6
8 -6 1 6.05 6.64
9 5 -1 47.28 11.12
-9 -5 1 40.47 8.63
8 5 -1 257.37 19.05
-8 -5 1 275.35 18.25
7 5 -1 490.7 23.38
-7 -5 1 505.58 20.44
6 5 -1 556.34 23.94
-6 -5 1 560.63 20.87
5 5 -1 245.42 14.41
-5 -5 1 243.2 12.27
4 5 -1 279.1 18.12
-4 -5 1 294.14 12.64
3 5 -1 535.67 20.32
-3 -5 1 549.01 13
-3 -5 1 569.08 18.06
2 5 -1 3100.85 68.11
2 5 -1 3154.91 74.15
-2 -5 1 3087.58 71.23
-2 -5 1 3051.18 74.6
-2 -5 1 3049.02 67.95
1 5 -1 1997.05 48.18
1 5 -1 2077.04 47.11
1 5 -1 2076.91 52.21
-1 -5 1 2022.43 52
-1 -5 1 2089.04 48.55
-1 -5 1 2000.27 46.81
0 5 -1 2833.52 67.67
0 -5 1 2957.75 65.88
0 -5 1 2898.82 65.97
0 -5 1 2902.03 69.8
-1 5 -1 1029.06 27.13
-1 5 -1 1008.7 25.26
-1 5 -1 1046.49 30.57
1 -5 1 1030.82 25.49
1 -5 1 1032.19 27.11
1 -5 1 997.76 25.23
1 -5 1 998.08 29.34
-2 5 -1 86.32 10.13
2 -5 1 76.36 4.6
2 -5 1 78.85 7.15
2 -5 1 79.17 4.55
-3 5 -1 691.73 24.67
3 -5 1 681.9 21.53
3 -5 1 641.43 16.19
3 -5 1 672.08 16.23
-4 5 -1 277.43 16.29
4 -5 1 263.64 13.41
-5 5 -1 -5.4 6.14
5 -5 1 -3.14 5.17
-6 5 -1 65.42 12.97
6 -5 1 63.72 10.48
-7 5 -1 118.32 22.67
7 -5 1 120.31 12.68
-8 5 -1 51.7 13.25
-9 5 -1 4.94 10.44
9 -5 1 16.2 6.82
10 4 -1 15.67 14.09
-10 -4 1 -5.48 6.48
9 4 -1 78.59 13.21
8 4 -1 339.11 20.91
-8 -4 1 355.87 17.27
7 4 -1 258.83 16.97
-7 -4 1 283.53 14.68
6 4 -1 1184.02 37.63
-6 -4 1 1224.71 34.05
5 4 -1 226.94 13.89
-5 -4 1 221.89 11.55
4 4 -1 341.08 15.59
-4 -4 1 349.7 13.57
3 4 -1 2526.73 61.38
-3 -4 1 2482.8 58.68
-3 -4 1 2492.97 64.57
1 4 -1 3863.47 94.24
1 4 -1 4036.51 87.08
1 4 -1 4015.98 91.26
-1 -4 1 4000.2 88.67
-1 -4 1 4000.37 87.17
-1 -4 1 4003.08 91.78
0 4 -1 6368.01 137.36
0 -4 1 6285.66 140.91
-1 4 -1 2050.99 47.04
-1 4 -1 2108.63 51.74
1 -4 1 2055.14 47.06
1 -4 1 2140.26 51.78
1 -4 1 2087.67 48.75
-2 4 -1 1031.51 27.4
-2 4 -1 1025.07 24.18
2 -4 1 1026.41 24.19
2 -4 1 1018.74 27.3
2 -4 1 1080.12 24.42
2 -4 1 1062.62 29.54
-3 4 -1 409.49 16.75
3 -4 1 428.87 10.04
3 -4 1 410.7 14.65
-4 4 -1 855.29 28.14
4 -4 1 817.66 24.89
-5 4 -1 16.73 6.43
5 -4 1 12.8 5.37
-6 4 -1 30.38 8.7
6 -4 1 24.85 6.69
-7 4 -1 2.59 7.55
7 -4 1 2.16 5.77
-8 4 -1 132.13 17.67
8 -4 1 148.48 13.16
-9 4 -1 101.23 16.15
9 -4 1 128.62 13.02
10 3 -1 1.45 10.98
-10 -3 1 3.02 7.18
9 3 -1 4.99 2.52
9 3 -1 -6.55 6.98
-9 -3 1 -6.14 5.09
8 3 -1 91.73 5.48
8 3 -1 89.49 13.49
-8 -3 1 95.75 10.11
7 3 -1 1233.6 40.16
-7 -3 1 1185.96 28.88
-7 -3 1 1296.46 35.03
6 3 -1 78.52 10.05
6 3 -1 73 3.99
-6 -3 1 74.84 4.13
5 3 -1 24.7 6.08
-5 -3 1 36.98 5.38
4 3 -1 242.4 12.72
-4 -3 1 241.55 10.26
3 3 -1 3133.16 71.38
3 3 -1 3162.81 74.24
-3 -3 1 3126.91 74.15
-3 -3 1 3163.57 72.29
2 3 -1 1412.32 36.13
2 3 -1 1416.28 35.75
-2 -3 1 1436.25 36.38
-2 -3 1 1405.12 34.14
1 3 -1 2385.64 55.18
1 3 -1 2234.47 52.75
1 3 -1 2340.92 51.27
-1 -3 1 2423.94 55.77
-1 -3 1 2348.21 51.27
-1 -3 1 2305.49 52.97
-1 3 -1 1230.92 31.35
-1 3 -1 1197.16 27.27
1 -3 1 1183.28 28.72
1 -3 1 1128.37 30.35
1 -3 1 1203.14 27.34
-2 3 -1 7376.69 165.91
2 -3 1 7670.06 165.83
-3 3 -1 4161.7 92.24
-3 3 -1 3989.17 93.96
-3 3 -1 4116.7 95.59
3 -3 1 4096.56 92.28
3 -3 1 4110.18 94.3
-4 3 -1 623.8 21.97
4 -3 1 598.69 19.24
-5 3 -1 389.86 18.28
5 -3 1 370.63 15.14
-6 3 -1 98.76 11.22
6 -3 1 83.47 9.21
-7 3 -1 115.14 14.39
7 -3 1 115.33 10.95
-8 3 -1 26.98 10.18
8 -3 1 40.28 8.09
-9 3 -1 40.6 12.22
9 -3 1 64.98 11.05
10 2 -1 1.2 12.86
-10 -2 1 -7.61 5.4
9 2 -1 -0.56 8.18
9 2 -1 7.49 3.43
-9 -2 1 0.02 5.35
8 2 -1 281.36 11.5
8 2 -1 293.86 19.39
-8 -2 1 264.51 11.14
-8 -2 1 316.03 14.65
7 2 -1 34.17 8.57
7 2 -1 39.31 5.28
-7 -2 1 34.39 7.31
-7 -2 1 52.86 8.28
6 2 -1 531.8 22.09
6 2 -1 494.8 14.33
-6 -2 1 529.17 17.74
-6 -2 1 504.29 14.48
5 2 -1 189.06 14.34
5 2 -1 184.47 6.8
-5 -2 1 202.35 9.6
-5 -2 1 194.4 6.9
4 2 -1 1622.25 42.35
4 2 -1 1598.1 35.63
4 2 -1 1511.18 38.35
-4 -2 1 1631.91 35.66
-4 -2 1 1645.88 39.6
3 2 -1 8.78 2.61
-3 -2 1 14.39 3.15
-3 -2 1 11.77 3.87
2 2 -1 785.04 22.24
2 2 -1 836.3 20.67
-2 -2 1 824.67 20.76
-2 -2 1 812.93 22.56
0 2 -1 682.56 16.74
0 2 -1 688.08 16.46
0 -2 1 684.98 16.54
0 -2 1 688.41 16.83
0 -2 1 741.2 19.25
-1 2 -1 748.27 17.19
-1 2 -1 761.7 22.09
-1 2 -1 728.75 18.36
1 -2 1 752.67 19.5
1 -2 1 772.57 17.31
1 -2 1 714.99 19.75
-2 2 -1 2021.33 46.39
-2 2 -1 1990.46 48.16
-2 2 -1 2048.51 43.44
-2 2 -1 2031.97 47.9
2 -2 1 2045.79 46.59
2 -2 1 1993.54 43.48
2 -2 1 2039.67 48.02
-3 2 -1 609.4 19.3
-3 2 -1 628.65 25.22
3 -2 1 626.37 17.61
3 -2 1 579.77 24.72
-4 2 -1 3611.61 84.09
-4 2 -1 3764.71 87.58
-4 2 -1 3677.6 90.1
4 -2 1 3853.8 84.73
4 -2 1 3693.02 87.16
-5 2 -1 297.27 15.06
5 -2 1 311.2 15.71
5 -2 1 298.5 12.49
-6 2 -1 129.24 11.51
6 -2 1 111.61 9.03
6 -2 1 130.16 11.42
-7 2 -1 121.81 12.95
7 -2 1 106.07 12.61
7 -2 1 120.79 10.23
-8 2 -1 12.45 13.35
8 -2 1 24.65 6.68
8 -2 1 21.35 13.58
-9 2 -1 2.29 8.54
9 -2 1 1.31 9.29
9 -2 1 5.07 8.23
-10 2 -1 8.59 10.01
10 -2 1 9.72 9.45
10 -2 1 13.46 6.58
10 1 -1 98.78 25.12
10 1 -1 106.62 8.19
-10 -1 1 70.75 8.78
9 1 -1 35.18 10.95
-9 -1 1 25.19 6.46
8 1 -1 30.06 5.04
8 1 -1 27.05 9.11
-8 -1 1 30.52 6.21
7 1 -1 388.07 13.89
7 1 -1 389.3 20.84
-7 -1 1 369.57 19.02
-7 -1 1 408.94 15.28
6 1 -1 -3.2 2.82
6 1 -1 -8.81 5.19
-6 -1 1 -5.09 2.92
-6 -1 1 7.21 3.92
5 1 -1 37.65 4.32
5 1 -1 50.18 4.59
-5 -1 1 32.56 4.48
-5 -1 1 48.25 5.66
4 1 -1 106.92 8.63
-4 -1 1 106.82 5.24
-4 -1 1 111.12 6.38
3 1 -1 20.93 4.2
3 1 -1 26.33 2.53
3 1 -1 27.81 3.4
-3 -1 1 25.84 2.69
-3 -1 1 31.49 3.96
-3 1 -1 1904.98 40.74
-3 1 -1 1831.62 45.69
-3 1 -1 1861.72 43.7
-3 1 -1 1876.9 40.76
-3 1 -1 1951.57 46.26
3 -1 1 1912.73 44.01
3 -1 1 1941.32 46.12
-4 1 -1 1184.59 26
-4 1 -1 1153.4 32.2
-4 1 -1 1164.93 31.98
-4 1 -1 1140.32 29.42
4 -1 1 1182.85 32.31
4 -1 1 1196.46 29.94
-5 1 -1 1397.14 39.4
-5 1 -1 1404.94 31.86
-5 1 -1 1433.32 37.95
-5 1 -1 1418.7 31.85
5 -1 1 1419.58 35.89
5 -1 1 1449.66 39.64
-6 1 -1 132.72 5.57
-6 1 -1 128.93 5.15
-6 1 -1 139.78 11.34
6 -1 1 131 11.73
6 -1 1 136.2 8.66
-7 1 -1 115.13 5.11
-7 1 -1 114.85 13.25
7 -1 1 109.11 9.05
7 -1 1 97.17 12.67
-8 1 -1 5.19 7.01
-8 1 -1 7.52 4.8
-8 1 -1 12.04 2.4
8 -1 1 10.11 8.18
8 -1 1 5.21 4.88
-9 1 -1 12.86 9.48
9 -1 1 6.6 8.14
9 -1 1 12.28 5.73
-10 1 -1 8.87 8.72
10 -1 1 9.72 7.36
10 -1 1 5.36 9.29
10 0 -1 69.8 8.72
9 0 -1 5.37 8.12
9 0 -1 17.53 4.93
-9 0 1 5.01 5.08
8 0 -1 105.18 9.07
8 0 -1 96.55 14.44
-8 0 1 96.68 9.03
7 0 -1 10.29 4.35
7 0 -1 -3.04 7.39
-7 0 1 8.85 4.36
6 0 -1 203.77 8.53
6 0 -1 200.75 9.8
6 0 -1 192.25 14.19
-6 0 1 216.33 9.66
-5 0 1 364.81 12.05
-5 0 1 345.73 12.16
4 0 -1 101.76 8.72
4 0 -1 111.14 5.61
4 0 -1 107.75 5.92
-4 0 1 104.05 5.96
-4 0 1 116.01 6.25
3 0 -1 6762.24 148.72
-3 0 1 6737.08 145.25
-3 0 1 6672.27 151.47
-3 0 1 6706.29 145.13
1 0 -1 1481.97 34.96
1 0 -1 1545.81 34.02
1 0 -1 1553.88 33.66
-1 0 1 1524.06 34.03
-1 0 1 1534.48 34.23
-1 0 1 1519.08 35.02
-2 0 -1 481.56 12.39
-2 0 -1 484.25 11.41
-2 0 -1 488.89 13.62
-2 0 -1 489.93 12.65
-2 0 -1 484.16 13.5
2 0 1 481.3 13.53
2 0 1 509.29 11.49
2 0 1 484.11 12.46
-4 0 -1 1.11 1.91
-4 0 -1 2.72 1.41
-4 0 -1 0.34 1.29
-4 0 -1 2.65 2.65
4 0 1 2.59 1.31
4 0 1 -1.44 1.92
-5 0 -1 15.19 3.25
-5 0 -1 19.02 3.07
5 0 1 17.51 5.3
5 0 1 11.68 2.14
-6 0 -1 37.6 3.82
-6 0 -1 42.48 4.36
-6 0 -1 36.28 6.89
6 0 1 41.54 5.53
6 0 1 45.51 3.65
6 0 1 45.06 7.82
-7 0 -1 185.83 14.46
-7 0 -1 191.37 7.96
-7 0 -1 184.79 7.58
7 0 1 173.01 7.23
7 0 1 187.33 10.24
7 0 1 171.71 13.25
-8 0 -1 14.69 7.83
-8 0 -1 10.1 5.87
-8 0 -1 16.55 3.25
8 0 1 11.31 7.23
8 0 1 23.99 5.44
-9 0 -1 14 8.11
-9 0 -1 19.02 6.81
9 0 1 10.83 8.88
9 0 1 21.96 6.12
-10 0 -1 -1.63 7.85
-10 0 -1 -4.74 3.73
10 0 1 9.43 7.83
10 0 1 5.15 4.49
9 -1 -1 4.8 4.7
9 -1 -1 -5.89 7.81
-9 1 1 0.32 3.9
-9 1 1 -2.52 6.64
8 -1 -1 129.75 10.32
8 -1 -1 115.56 15.34
8 -1 -1 113.75 8.68
-8 1 1 132.78 15.89
-8 1 1 128.08 8.72
7 -1 -1 39.29 9.85
7 -1 -1 45.25 4.52
7 -1 -1 50.13 7.79
6 -1 -1 392.93 15.01
6 -1 -1 368.24 19.33
-6 1 1 401.33 13.14
5 -1 -1 12.63 3.95
5 -1 -1 10.71 6.21
5 -1 -1 19.39 2.91
-5 1 1 30.63 4.84
4 -1 -1 957.3 28.45
4 -1 -1 951.63 23.26
-4 1 1 941.4 24.96
-4 1 1 980.59 23.7
3 -1 -1 25.92 4.84
3 -1 -1 32.01 3.07
3 -1 -1 25.07 3.48
-3 1 1 16.62 6.7
-3 1 1 20.21 3.26
2 -1 -1 38.03 2.78
2 -1 -1 25.76 4.25
-2 1 1 36.06 3.06
-2 1 1 27.27 4.04
0 -1 -1 11.94 1.57
-3 -1 -1 1068.36 25.36
-3 -1 -1 1100.97 25.44
-3 -1 -1 1126.36 25.55
-3 -1 -1 1093.72 27.73
3 1 1 1098 27.84
3 1 1 1071.01 25.38
3 1 1 1063.65 25.46
-4 -1 -1 4838.82 114.15
-4 -1 -1 5116.34 109.02
-4 -1 -1 5075.21 109.17
-4 -1 -1 4995.49 109.02
4 1 1 5079.58 113.09
4 1 1 4960.89 109.24
4 1 1 4991.17 108.95
-5 -1 -1 9602.98 205.94
-5 -1 -1 9272.69 206.04
5 1 1 9802.85 211.48
-6 -1 -1 347.14 15.52
-6 -1 -1 360.95 11.71
-6 -1 -1 336.57 11.73
6 1 1 359.25 16.68
-7 -1 -1 82.65 6.37
-7 -1 -1 72.44 5.46
7 1 1 77.58 5.37
7 1 1 76.48 9.93
7 1 1 75.13 6.81
8 1 1 -1.6 3.99
8 1 1 -7.86 5.72
-9 -1 -1 -0.57 4.14
-9 -1 -1 -2.6 6.84
9 1 1 0.44 4.19
9 1 1 3.3 8.03
-10 -1 -1 1.13 6.83
-10 -1 -1 13.17 9.01
10 1 1 6.82 4.64
10 1 1 -4.89 6.82
9 -2 -1 4.09 8.59
9 -2 -1 14.24 6.02
-9 2 1 2.77 9.03
8 -2 -1 29.8 9.69
8 -2 -1 35.53 7.13
-8 2 1 34.59 4.95
-8 2 1 33.95 10.99
7 -2 -1 63.69 4.62
7 -2 -1 64.2 11.32
7 -2 -1 64.24 8.47
-7 2 1 70.32 12.52
-7 2 1 65.36 5.7
6 -2 -1 68.41 4.5
6 -2 -1 56.58 8.05
6 -2 -1 72.1 10.99
-6 2 1 77.69 11.39
-6 2 1 69.5 5.63
5 -2 -1 346.02 13.83
5 -2 -1 347.69 16.9
5 -2 -1 338.99 10.18
-5 2 1 357.5 11.1
-5 2 1 356.31 17.19
4 -2 -1 1676.32 38.5
4 -2 -1 1658.67 41.68
4 -2 -1 1683.12 44.72
-4 2 1 1733.41 39.05
-4 2 1 1738.17 45.23
3 -2 -1 1174.04 27.12
3 -2 -1 1201.84 32.43
-3 2 1 1154.11 31.91
-3 2 1 1196.61 34.88
-3 2 1 1153.47 29.7
-3 2 1 1185.86 27.29
2 -2 -1 3.9 1.6
2 -2 -1 -1.21 2.43
-2 2 1 -0.07 2.32
-2 2 1 -2.27 2.48
-2 2 1 0.97 1.51
-2 2 1 -2.04 2.47
-2 -2 -1 24.39 2.46
-2 -2 -1 27.13 2.19
-2 -2 -1 27.82 4.04
-2 -2 -1 26.47 2.33
2 2 1 26.84 2.26
2 2 1 22.43 2.97
2 2 1 34.23 2.8
-3 -2 -1 865.02 21.71
-3 -2 -1 875.75 21.78
-3 -2 -1 882.54 23.18
-3 -2 -1 883.34 20.76
-3 -2 -1 872.56 20.68
3 2 1 887.3 20.75
3 2 1 891.16 21.78
3 2 1 872.06 23.13
-4 -2 -1 2209.7 50.39
-4 -2 -1 2188.38 49.08
-4 -2 -1 2206.75 50.34
-4 -2 -1 2213.48 56.02
4 2 1 2207.38 49.27
4 2 1 2172.23 53.01
4 2 1 2164.86 50.21
-5 -2 -1 1149.69 29.11
-5 -2 -1 1208.35 29.6
-5 -2 -1 1143.09 27.84
5 2 1 1137.64 29.26
5 2 1 1142.33 28.15
5 2 1 1196.19 33.18
-7 -2 -1 101.56 6.38
-7 -2 -1 113.3 7.82
7 2 1 105.53 10.65
-8 -2 -1 -4.02 3.75
8 2 1 -4.53 5.76
8 2 1 -0.78 3.5
-9 -2 -1 273.99 13.13
9 2 1 263.64 19.43
9 2 1 275.48 15.3
-10 -2 -1 -2.17 4.45
10 2 1 8.8 4.06
10 2 1 -3.22 8.26
-11 -2 -1 -1.65 5.09
-11 -2 -1 0 13.02
11 2 1 8.19 4.33
11 2 1 9.7 10.43
9 -3 -1 37.01 8.03
9 -3 -1 22.71 10.02
-9 3 1 15.6 10.5
8 -3 -1 122.87 16.05
-8 3 1 126.23 16.79
7 -3 -1 22.43 9.04
7 -3 -1 22.14 6.57
7 -3 -1 21.7 2.78
-7 3 1 16.02 8.19
-7 3 1 27.18 2.84
-7 3 1 29.69 3.23
6 -3 -1 11.21 7.51
6 -3 -1 24.67 6.31
6 -3 -1 25.5 2.85
-6 3 1 27.83 3.47
-6 3 1 19.66 7.4
5 -3 -1 11.43 2.02
5 -3 -1 3.99 6.44
5 -3 -1 12.33 4.79
-5 3 1 7.67 6.02
-5 3 1 12.81 2.31
4 -3 -1 0.58 1.6
4 -3 -1 -4.46 3.41
4 -3 -1 -0.32 4.6
-4 3 1 3.8 2
-4 3 1 0.01 4.32
3 -3 -1 47.01 5.93
3 -3 -1 51.14 3.39
-3 3 1 37.69 5.75
-3 3 1 41.29 7.42
-3 3 1 45.93 3.25
1 -3 -1 2178.78 50.09
1 -3 -1 2191.07 48.45
1 -3 -1 2225.2 50.51
-1 3 1 2215.91 52.29
-1 3 1 2136.17 49.95
-1 3 1 2163.35 48.33
-1 3 1 2158.53 50.27
0 -3 -1 3176.77 72.43
0 -3 -1 3279.33 71.72
0 -3 -1 3254.49 71.71
0 -3 -1 3304.21 71.99
0 3 1 3313.67 72.22
0 3 1 3247.38 72.54
0 3 1 3296.84 71.68
-1 -3 -1 645.3 16.45
-1 -3 -1 624.3 16.34
-1 -3 -1 620.35 16.35
-1 -3 -1 624.88 16.4
1 3 1 611.31 16.09
1 3 1 639.47 16.42
1 3 1 678.29 16.28
-2 -3 -1 817.06 19.34
-2 -3 -1 786.67 20.42
-2 -3 -1 816.91 20.47
-2 -3 -1 809.94 20.44
2 3 1 842.15 19.48
2 3 1 750.71 20.05
2 3 1 789.1 20.3
-3 -3 -1 3077.4 65.81
-3 -3 -1 3001.91 67.65
-3 -3 -1 3037.32 65.75
-3 -3 -1 3041.63 67.68
-3 -3 -1 2910.56 68.39
3 3 1 2981.28 67.5
3 3 1 2953.68 68.39
3 3 1 3019.37 65.79
-4 -3 -1 2990.95 70.81
-4 -3 -1 3048.87 66
-4 -3 -1 3014.62 65.91
-4 -3 -1 3064.98 68.4
4 3 1 2996.96 70.92
4 3 1 2894.18 67.98
-5 -3 -1 1509.6 37.22
-5 -3 -1 1500.93 34.63
-5 -3 -1 1497.5 37.25
-5 -3 -1 1501.94 36.19
5 3 1 1575.02 38.51
5 3 1 1476.28 36.95
5 3 1 1469.58 39.92
-6 -3 -1 1304.66 31.7
-6 -3 -1 1296.93 31.23
-6 -3 -1 1360.73 34.16
6 3 1 1304.66 38.86
6 3 1 1342.52 31.77
-7 -3 -1 654.63 26.74
-7 -3 -1 599.45 16.89
7 3 1 606.93 24.22
7 3 1 614.28 17.44
-8 -3 -1 142.17 10.33
-8 -3 -1 142.04 7.43
8 3 1 137.65 13.95
-9 -3 -1 15.69 5.53
9 3 1 13.65 4.05
9 3 1 5.15 6.86
-10 -3 -1 15.69 6.09
10 3 1 11.8 3.69
10 3 1 14.05 8.36
-11 -3 -1 -10.21 4.97
11 3 1 12.01 14.74
8 -4 -1 10.92 6.47
-8 4 1 4.88 9
7 -4 -1 -1.74 11.78
7 -4 -1 1.65 9.96
-7 4 1 5.31 12.36
6 -4 -1 221.54 13.75
6 -4 -1 202.61 16.02
-6 4 1 221.02 16.56
5 -4 -1 1695.07 39.04
5 -4 -1 1726.33 45.32
5 -4 -1 1742.08 48.63
-5 4 1 1666.77 37.46
-5 4 1 1696.6 48.8
4 -4 -1 55.72 7.86
4 -4 -1 45.27 3.34
-4 4 1 43.21 3.32
-4 4 1 34.99 7.2
3 -4 -1 860.19 20.68
3 -4 -1 880.73 25.08
-3 4 1 864.88 20.5
-3 4 1 872.58 26.63
-3 4 1 823.14 25.41
2 -4 -1 1895.73 45.72
2 -4 -1 1878.69 42.19
-2 4 1 1862.58 46.35
-2 4 1 1858.91 42.05
-2 4 1 1838 46.33
1 -4 -1 225.02 9.26
1 -4 -1 211.98 7.97
1 -4 -1 226.55 11.52
1 -4 -1 229.04 7.74
-1 4 1 231.55 9.39
-1 4 1 226.23 9.22
-1 4 1 230.57 8.66
-1 4 1 236.8 9.95
0 -4 -1 24.23 3.9
0 -4 -1 20.16 2.86
0 -4 -1 19.13 3.6
0 -4 -1 22.04 3.32
0 4 1 26.54 4.75
0 4 1 24.75 4.27
0 4 1 20.23 2.8
-1 -4 -1 119.35 6
-1 -4 -1 121.92 5.88
-1 -4 -1 123.31 5.98
-1 -4 -1 135.45 6.75
1 4 1 121.47 5.94
1 4 1 128.43 6.69
1 4 1 119.61 6.05
-2 -4 -1 906.58 23.65
-2 -4 -1 911.37 24.83
-2 -4 -1 933.22 23.42
-2 -4 -1 878.71 23.38
2 4 1 882.92 23.52
2 4 1 899.68 22.05
2 4 1 870.43 24.52
-3 -4 -1 524.36 13.49
-3 -4 -1 517.61 15.45
-3 -4 -1 505.09 16.02
3 4 1 499.36 15.09
3 4 1 526.93 13.61
3 4 1 493.34 15.63
-4 -4 -1 2080.8 52.64
-4 -4 -1 2176.44 48.25
-4 -4 -1 2163.92 51.46
-4 -4 -1 2203.81 48.38
-4 -4 -1 2215.5 56.56
4 4 1 2157.02 53.4
-5 -4 -1 24.07 3.55
-5 -4 -1 21.92 2.95
-5 -4 -1 19.22 3.82
5 4 1 19.12 5.42
-6 -4 -1 102.84 4.83
-6 -4 -1 107.35 7.63
6 4 1 95.09 10.21
-7 -4 -1 7.29 2.31
-7 -4 -1 11.08 3.05
-7 -4 -1 1.62 4.11
7 4 1 1.35 4.98
-8 -4 -1 86.52 6.27
-8 -4 -1 80.62 5.37
-8 -4 -1 85.93 9.72
8 4 1 61.5 11.17
-9 -4 -1 412.73 13.76
-9 -4 -1 443.75 18.53
9 4 1 407.74 13.81
9 4 1 416.64 22.84
-10 -4 -1 6.58 6.73
10 4 1 11.84 7.76
8 -5 -1 40.46 8.61
-8 5 1 29.28 10.88
7 -5 -1 75.01 11.1
-7 5 1 75.54 14.34
6 -5 -1 111.68 12.8
-6 5 1 104.79 14.23
5 -5 -1 52.2 8.32
-5 5 1 57.19 10.37
4 -5 -1 191.86 11.88
4 -5 -1 176.97 5.97
4 -5 -1 174.81 6.08
-4 5 1 187.85 13.56
3 -5 -1 412.76 11.74
3 -5 -1 421.23 16.3
-3 5 1 423.12 17.67
-3 5 1 410.39 12.41
2 -5 -1 1925.8 45.24
2 -5 -1 2060.57 45.44
2 -5 -1 1948.96 49.28
2 -5 -1 2041.43 51.1
-2 5 1 2039.58 45.35
-2 5 1 1917.77 48.97
1 -5 -1 1779.91 43.85
1 -5 -1 1804.49 41.51
1 -5 -1 1815.85 44.2
1 -5 -1 1759.41 41.47
-1 5 1 1728.49 43.46
-1 5 1 1776.8 44.69
-1 5 1 1825.59 41.52
0 -5 -1 2.33 3.24
0 -5 -1 -4.73 2.24
0 -5 -1 8.51 3.03
0 -5 -1 0.75 2.92
0 5 1 6.74 3.24
0 5 1 -4.99 2.41
0 5 1 7.24 4.27
-1 -5 -1 487.53 14.79
-1 -5 -1 482.63 14.81
-1 -5 -1 479.13 15.63
-1 -5 -1 492.92 16.47
1 5 1 494.98 15.61
1 5 1 457.89 19.51
-2 -5 -1 314.7 11.14
-2 -5 -1 303.9 10.09
-2 -5 -1 301.22 12.23
-2 -5 -1 304.57 10.94
2 5 1 293.04 11.39
2 5 1 297.95 10.13
2 5 1 278.24 10.48
-3 -5 -1 300.4 9.62
-3 -5 -1 314.44 11.74
-3 -5 -1 305.72 12.8
3 5 1 287.49 11.91
3 5 1 298.64 9.7
-4 -5 -1 558.7 17.97
-4 -5 -1 568.93 14.99
-4 -5 -1 534.9 19.01
-4 -5 -1 604.51 15.87
4 5 1 560.39 19.04
4 5 1 580.43 15.13
-5 -5 -1 1328.34 35.82
-5 -5 -1 1348.87 30.57
-5 -5 -1 1324.91 30.58
5 5 1 1289.62 36.66
-6 -5 -1 480.78 12.75
-6 -5 -1 508.81 13.07
-6 -5 -1 516.47 18.15
6 5 1 482.2 20.12
-7 -5 -1 37.85 6.54
-7 -5 -1 41.81 3.31
-7 -5 -1 36.64 3.86
7 5 1 30.92 8.11
-8 -5 -1 717.59 18.1
-8 -5 -1 685.72 17.36
-8 -5 -1 741.94 24.82
8 5 1 696.82 28.5
-9 -5 -1 15.55 4.54
-9 -5 -1 24.79 6.99
-9 -5 -1 20.87 2.89
9 5 1 31.55 9.34
-10 -5 -1 23.54 7.15
10 5 1 18.56 8.65
7 -6 -1 45.54 9.49
-7 6 1 27.9 10.57
6 -6 -1 262.58 16.53
-6 6 1 240.37 18.87
5 -6 -1 281.51 16.34
-5 6 1 271.37 18.12
4 -6 -1 300.98 8.97
4 -6 -1 329.04 16.26
4 -6 -1 310.71 8.84
-4 6 1 316.42 18.05
3 -6 -1 286.69 14.34
3 -6 -1 284.24 9.25
3 -6 -1 267.82 9.33
-3 6 1 301.9 15.83
2 -6 -1 768.82 23.84
2 -6 -1 757.24 19.71
2 -6 -1 707.06 19.59
-2 6 1 762.74 25.24
-2 6 1 733.7 26.33
1 -6 -1 788.57 23.43
1 -6 -1 810.21 20.96
1 -6 -1 729.76 24.95
-1 6 1 760.15 23
0 -6 -1 122.67 8.37
0 -6 -1 115.81 6.84
0 -6 -1 104.06 7.99
0 -6 -1 117.53 8.3
0 6 1 127.1 10.21
-1 -6 -1 2317.66 53.82
-1 -6 -1 2292.89 55.15
-1 -6 -1 2269.94 54.19
-1 -6 -1 2327.52 54.08
1 6 1 2294.54 54.93
1 6 1 2161.08 53.62
-2 -6 -1 2.07 2.98
-2 -6 -1 0.56 2.85
-2 -6 -1 -7.45 4.4
2 6 1 0.61 2.79
-3 -6 -1 1068.87 28.46
-3 -6 -1 973.01 29.09
-3 -6 -1 1018.58 25.69
3 6 1 1002.76 25.76
-4 -6 -1 985.12 23.95
-4 -6 -1 969 27.46
4 6 1 943.83 24.05
4 6 1 949.01 28.26
-5 -6 -1 846 25.71
-5 -6 -1 856.48 22.39
-5 -6 -1 829.43 20.69
5 6 1 818.18 27.31
-6 -6 -1 247.52 12.98
-6 -6 -1 233.03 7.25
-6 -6 -1 229.14 7.05
6 6 1 217.85 14.18
-7 -6 -1 72.41 9.83
7 6 1 67.64 11.14
-8 -6 -1 190.83 13.46
8 6 1 170.78 15.33
-9 -6 -1 45.94 8.54
9 6 1 59.73 11.43
-10 -6 -1 117.93 12.91
10 6 1 133.89 16.2
7 -7 -1 8.16 7.02
-7 7 1 1.97 11.92
6 -7 -1 115.25 13.39
-6 7 1 77.04 14.77
5 -7 -1 -0.29 6.49
-5 7 1 0.72 8.16
4 -7 -1 444.82 14.89
4 -7 -1 500.27 22.6
4 -7 -1 430.44 12.23
-4 7 1 490.05 22.88
3 -7 -1 216.94 8.52
3 -7 -1 208.76 8.47
3 -7 -1 227.26 13.34
-3 7 1 228.34 16.36
2 -7 -1 3.67 4.58
2 -7 -1 6.59 5.45
2 -7 -1 13.42 3.91
-2 7 1 4.55 7.03
1 -7 -1 12.4 5.29
1 -7 -1 3.1 3.09
1 -7 -1 -2.05 2.94
1 -7 -1 8.03 4.95
-1 7 1 3.5 4.81
-1 7 1 4.6 6.24
0 -7 -1 289.26 11.61
0 -7 -1 273.56 13
0 -7 -1 293.9 13.59
0 7 1 296.53 15.41
-1 -7 -1 168.19 9.17
-1 -7 -1 164.22 9.87
-1 -7 -1 146.55 10.08
-2 -7 -1 259.42 10.88
-2 -7 -1 249.12 17.95
-2 -7 -1 238.73 13.15
2 7 1 226.9 12.77
2 7 1 247.8 12.56
-3 -7 -1 682.34 21.4
-3 -7 -1 639.56 25.08
3 7 1 650.01 21.54
3 7 1 616.2 18.67
-4 -7 -1 4243.54 91.18
-4 -7 -1 4184.53 95.48
4 7 1 3992.31 95.84
4 7 1 3962.53 91.14
-5 -7 -1 222.5 8.16
-5 -7 -1 213.56 8.05
-5 -7 -1 218.25 12.58
5 7 1 185.94 12.97
5 7 1 191.54 8.08
-6 -7 -1 415.21 11.1
-6 -7 -1 414.47 11.16
-6 -7 -1 421.39 17.97
6 7 1 411.92 19.69
-7 -7 -1 166.53 12.84
7 7 1 140.29 13.93
-8 -7 -1 141.7 12.83
8 7 1 133.22 19.51
-9 -7 -1 33.35 8.49
9 7 1 32.09 9.65
-10 -7 -1 16.21 8.15
10 7 1 24.13 9.35
6 -8 -1 32.24 8.7
-6 8 1 16.52 10.74
5 -8 -1 87.85 13.17
-5 8 1 53.78 12.27
4 -8 -1 210.05 7.79
4 -8 -1 262.47 16.68
-4 8 1 249.35 19.64
3 -8 -1 40.55 6.24
3 -8 -1 56.31 12.67
-3 8 1 45.76 10.27
2 -8 -1 88.36 6.52
2 -8 -1 74.63 6.57
2 -8 -1 80.35 9.52
-2 8 1 73.6 12.49
1 -8 -1 16.11 6.24
1 -8 -1 16.28 4.36
-1 8 1 15.38 7.91
0 -8 -1 8.92 4.39
0 -8 -1 1.56 4.84
0 8 1 9.09 7.06
-1 -8 -1 37.18 6.5
-1 -8 -1 27.84 5.69
1 8 1 36.54 7.75
-2 -8 -1 5.55 4.56
-2 -8 -1 8.14 4.9
2 8 1 13.84 6.33
-3 -8 -1 1399.59 38.23
-3 -8 -1 1422.23 35.91
3 8 1 1378.41 38.98
-4 -8 -1 28.56 6.15
4 8 1 32.27 13.68
4 8 1 32.88 5.6
-5 -8 -1 1531.26 39.25
-5 -8 -1 1751.66 46.14
-5 -8 -1 1716.91 39.53
5 8 1 1716.59 46.75
5 8 1 1616.97 39.67
-6 -8 -1 342.12 16.99
-6 -8 -1 304.39 9.5
6 8 1 319.01 17.97
-7 -8 -1 136.83 13.06
7 8 1 153.27 13.96
-8 -8 -1 8.25 6.22
8 8 1 10.28 7.37
-9 -8 -1 66.56 10.65
9 8 1 83.14 13.3
5 -9 -1 12.4 7.5
-5 9 1 -8.03 9.63
4 -9 -1 172.36 14.74
-4 9 1 114.18 17.85
3 -9 -1 77.4 12.01
3 -9 -1 58.82 6.96
-3 9 1 50.38 11.64
2 -9 -1 28.26 4.73
2 -9 -1 29.05 9.51
1 -9 -1 17.9 5.87
1 -9 -1 24.69 5.89
-1 9 1 17.96 8.6
0 -9 -1 54.1 7.9
0 -9 -1 46.54 7.75
0 9 1 67.96 16.93
-1 -9 -1 49.88 6.92
-1 -9 -1 55.69 8.49
1 9 1 59.64 10.66
-2 -9 -1 176.92 11.97
-2 -9 -1 191.54 11.65
2 9 1 202.92 13.68
-3 -9 -1 5.55 5.89
-3 -9 -1 17.78 5.35
3 9 1 22.03 7.19
-4 -9 -1 1397.73 35.39
-4 -9 -1 1346.72 39.41
4 9 1 1378.83 40.35
-5 -9 -1 322.05 18.13
5 9 1 288.94 11.4
5 9 1 325.94 17.74
-6 -9 -1 2.08 5.82
-6 -9 -1 8.39 3.63
6 9 1 0.55 5.95
-7 -9 -1 -2.01 6.25
7 9 1 8.63 6.97
-8 -9 -1 107.08 13.59
8 9 1 130.75 14.95
9 9 1 64.35 12.6
4 -10 -1 93.54 19.59
-4 10 1 67.37 16.9
3 -10 -1 12.87 3.81
3 -10 -1 27.35 8.1
-3 10 1 0.79 9.78
2 -10 -1 11.06 4.81
2 -10 -1 22.57 8.02
-2 10 1 -6.31 8.74
1 -10 -1 36.06 6
1 -10 -1 32.58 7.8
-1 10 1 32.5 10.05
0 -10 -1 94.11 9.64
0 -10 -1 106.91 11.54
0 10 1 90.18 13.65
-1 -10 -1 1.18 4.78
-1 -10 -1 -0.18 5.09
1 10 1 1.39 6.52
-2 -10 -1 486.39 19.15
-2 -10 -1 495.52 19.98
2 10 1 498.37 21.34
-3 -10 -1 167.55 11.19
-3 -10 -1 165.51 13.14
3 10 1 191.33 14.11
-4 -10 -1 82.39 13.4
-4 -10 -1 89.49 12.2
4 10 1 104.78 11.75
-5 -10 -1 153.24 12.69
-5 -10 -1 143.13 8.22
5 10 1 151.71 12.89
-6 -10 -1 10.04 6.46
6 10 1 14.18 6.84
-7 -10 -1 85.35 13.1
7 10 1 130.12 13.69
-8 -10 -1 1.01 7.03
8 10 1 16.54 8.4
2 -11 -1 -1.77 3.94
2 -11 -1 3.47 6.38
1 -11 -1 24.43 7.68
1 -11 -1 27.89 5.74
-1 11 1 22.7 9.8
0 -11 -1 4.79 5.2
0 -11 -1 2.74 6.16
0 11 1 5.11 7.62
-1 -11 -1 19.48 6.86
-1 -11 -1 7.75 6.03
1 11 1 15.01 7.8
-2 -11 -1 0.33 4.99
2 11 1 13.08 6.47
-3 -11 -1 274.43 16.41
-3 -11 -1 255.87 13.95
3 11 1 305.91 16.88
-4 -11 -1 10.91 4.58
-4 -11 -1 6.31 6.9
4 11 1 23.57 6.85
-5 -11 -1 0.15 6.44
-5 -11 -1 8.47 3.95
5 11 1 15.24 6.38
-6 -11 -1 0.65 7.06
7 11 1 49.84 9.78
0 -12 -1 18.78 7.12
0 -12 -1 -2.25 8.78
0 12 1 12.21 8.32
-1 -12 -1 70.46 11.17
1 12 1 79.63 12.95
-2 -12 -1 30.88 7.1
-2 -12 -1 19.38 7.63
-3 -12 -1 11 6.76
-3 -12 -1 23.72 6.18
-4 -12 -1 26.28 5.6
-4 -12 -1 25.85 8.62
-4 -11 2 -2.06 7.23
3 11 -2 113.47 15.45
-3 -11 2 84.07 12.84
-3 -11 2 112.84 9.61
2 11 -2 13.22 8.54
-2 -11 2 -3.09 6.07
-2 -11 2 15.29 5.26
1 11 -2 7.68 9.44
-1 -11 2 9.52 5.28
-1 -11 2 -1.04 6.22
0 11 -2 10.97 9.79
0 -11 2 6.16 7.07
0 -11 2 13.12 7.96
-1 11 -2 24.18 11.7
1 -11 2 24.75 6.44
1 -11 2 28.62 9.49
-2 11 -2 -15.51 10.41
2 -11 2 17.52 7.26
2 -11 2 3.96 4.55
6 10 -2 88.88 13.65
5 10 -2 19.01 7.82
-5 -10 2 0.74 7.47
4 10 -2 21.95 8.24
-4 -10 2 13.43 7.91
3 10 -2 70.42 14
-3 -10 2 67.72 6.43
-3 -10 2 52.08 9.32
2 10 -2 179.49 19.05
-2 -10 2 169.21 10.37
-2 -10 2 170.05 16.03
1 10 -2 1003.97 37.21
-1 -10 2 983.73 35.93
-1 -10 2 1013.71 32.09
0 10 -2 16.05 10.26
0 -10 2 15.94 6.08
-1 10 -2 -3.92 9.43
1 -10 2 1.57 4.56
1 -10 2 5.46 5.59
-2 10 -2 -6.19 11.64
2 -10 2 7.31 4.49
2 -10 2 8.9 5.94
-3 10 -2 71.69 14.89
3 -10 2 77.17 7.43
4 -10 2 22.14 7.66
7 9 -2 43.47 10.52
-7 -9 2 20.43 8.27
6 9 -2 79.1 14.04
-6 -9 2 51.22 9.47
5 9 -2 118.48 14.95
-5 -9 2 90.99 11.8
4 9 -2 3.27 11.87
-4 -9 2 0.08 6.47
3 9 -2 -3.02 4.23
3 9 -2 -2.21 7.74
-3 -9 2 6.34 4.6
-3 -9 2 0.17 6.76
2 9 -2 380.63 21.56
-2 -9 2 359.82 17.91
-2 -9 2 358.48 14.1
1 9 -2 35.21 10.16
-1 -9 2 34.9 7.25
-1 -9 2 30.39 5.95
0 9 -2 10.37 9.74
0 -9 2 15.79 5.56
0 -9 2 16.26 5.82
-1 9 -2 60.17 12.21
1 -9 2 67.35 9.89
1 -9 2 72.97 8.5
-2 9 -2 57.95 12.67
2 -9 2 81.88 11
-3 9 -2 -4.5 9.64
3 -9 2 -3.38 3.33
3 -9 2 3.96 6.08
-4 9 -2 -12.41 9.87
4 -9 2 0.41 6.37
-5 9 -2 18.09 12.27
5 -9 2 35.52 9.07
-6 9 -2 49.68 15.18
8 8 -2 19.29 9.36
-8 -8 2 -6.19 10.25
7 8 -2 7.37 7.72
-7 -8 2 0.26 6.43
6 8 -2 21.18 8.17
-6 -8 2 7.85 7.29
5 8 -2 15.22 12.2
-5 -8 2 11.38 6.37
4 8 -2 132.15 14.54
-4 -8 2 134.28 12.66
3 8 -2 20.33 9.1
3 8 -2 22.01 3.75
-3 -8 2 23.12 3.69
-3 -8 2 20.68 7.06
2 8 -2 1051.99 35.38
2 8 -2 966.54 26.95
-2 -8 2 1009.19 27.56
-2 -8 2 1062.82 31.51
1 8 -2 417.1 21.74
-1 -8 2 446.07 17.63
-1 -8 2 427.14 15.82
0 8 -2 472.79 23.17
0 -8 2 461.02 17.31
0 -8 2 457.27 17.42
-1 8 -2 73.03 12.66
1 -8 2 103.05 10.11
1 -8 2 90.87 14.39
-2 8 -2 576 27.1
2 -8 2 573.79 21.5
2 -8 2 548.23 17.82
-3 8 -2 187.6 18.79
3 -8 2 185.49 8.29
3 -8 2 185.91 13.34
-4 8 -2 100.52 16.62
4 -8 2 112.2 12.33
4 -8 2 111.69 5.28
-5 8 -2 8.4 10.9
5 -8 2 23.01 7.43
-6 8 -2 0 11.13
6 -8 2 4.53 7.02
-7 8 -2 233.95 24.08
7 -8 2 244.71 20.12
8 7 -2 76.19 14.3
-8 -7 2 52.16 10.29
7 7 -2 6.96 7.17
-7 -7 2 1.42 7.53
6 7 -2 45.51 10.4
-6 -7 2 31.67 8.1
5 7 -2 88.92 13.16
-5 -7 2 63.03 9.83
4 7 -2 81.16 12.64
-4 -7 2 74.33 10.42
3 7 -2 271.12 8.84
3 7 -2 274.18 16.56
-3 -7 2 281.25 14.07
-3 -7 2 288.51 10.26
2 7 -2 105.12 13.1
-2 -7 2 110.75 9.97
-2 -7 2 117.58 6.78
1 7 -2 1056.88 33.32
1 7 -2 908.67 25.88
-1 -7 2 969.67 28.17
-1 -7 2 954.63 26.16
0 7 -2 2809.59 72.23
0 -7 2 2757.24 66.06
0 -7 2 2855.14 69.28
-1 7 -2 321.81 19.47
1 -7 2 322.2 12.65
1 -7 2 307.22 13.74
-2 7 -2 154.86 15.7
-2 7 -2 117.61 6.71
2 -7 2 125.67 7.6
2 -7 2 120.98 7.08
2 -7 2 128.06 10.14
-3 7 -2 12.39 9.13
3 -7 2 17.94 3.48
3 -7 2 19.57 6.54
3 -7 2 17.34 3.24
-4 7 -2 212.97 18.69
4 -7 2 199.82 8.53
4 -7 2 206.36 6.91
4 -7 2 242.84 14.63
-5 7 -2 49.41 11.91
5 -7 2 51.65 9.37
-6 7 -2 44.13 12.65
6 -7 2 36.69 8.68
-7 7 -2 31.45 12.84
7 -7 2 32.06 8.82
-9 -6 2 59.14 14.72
8 6 -2 20.68 8.5
-8 -6 2 17.45 7.98
7 6 -2 4.92 6.81
-7 -6 2 3.07 6.64
6 6 -2 95.45 13.79
-6 -6 2 74.4 10.24
5 6 -2 437.83 21.57
-5 -6 2 417.95 18.65
4 6 -2 398.78 19.7
-4 -6 2 388.54 16.47
3 6 -2 372.43 18.48
3 6 -2 346.05 10.89
-3 -6 2 352.69 9.24
-3 -6 2 354.79 15.45
2 6 -2 -3.95 6.2
2 6 -2 1.44 2.44
-2 -6 2 1.82 2.28
-2 -6 2 7.64 4.34
1 6 -2 1547.75 39.79
1 6 -2 1628.23 45.33
-1 -6 2 1566.1 40.05
-1 -6 2 1565.74 37.98
0 6 -2 0.87 3.22
0 6 -2 10.09 7.53
0 -6 2 2.87 3.58
-1 6 -2 322.2 11.55
-1 6 -2 356.54 18.74
1 -6 2 341.06 12.28
1 -6 2 337.29 13.34
-2 6 -2 128.07 13.88
2 -6 2 125.81 8.61
2 -6 2 108.94 9.79
2 -6 2 132.2 6.93
-3 6 -2 266.59 16.79
3 -6 2 264.63 8.99
3 -6 2 261.51 9.11
3 -6 2 280.87 13.58
-4 6 -2 5.3 7.71
4 -6 2 3.53 2.25
4 -6 2 0 5.51
4 -6 2 -1.11 1.72
-5 6 -2 223.86 18.32
5 -6 2 216.79 14.17
-6 6 -2 468.28 25.48
6 -6 2 462.67 20.64
-7 6 -2 -2.09 8.76
7 -6 2 6 6.6
-8 6 -2 22.13 11.55
8 -6 2 30.88 8.76
9 5 -2 13.66 8.28
-9 -5 2 7.38 7.33
8 5 -2 22.93 9.54
-8 -5 2 33.17 8.63
7 5 -2 3.11 7.84
-7 -5 2 -5.8 5.93
6 5 -2 87.6 11.9
-6 -5 2 81.92 11
5 5 -2 -1.61 6.11
-5 -5 2 2.82 4.64
4 5 -2 -2.23 5.38
-4 -5 2 -5.3 3.69
3 5 -2 641.86 24.36
-3 -5 2 643.93 20.78
2 5 -2 1157.96 27.28
2 5 -2 1190.18 34.97
-2 -5 2 1178.45 27.4
-2 -5 2 1177.12 31.44
0 5 -2 182.68 8.41
0 5 -2 208.3 13.62
0 -5 2 186.06 8.35
0 -5 2 190.27 9
-1 5 -2 358.13 16.92
-1 5 -2 325.63 12.09
1 -5 2 350.54 11.67
1 -5 2 343.79 12.72
-2 5 -2 839.88 28.29
-2 5 -2 821.96 21.11
2 -5 2 836.25 24.16
2 -5 2 845.45 21.35
-3 5 -2 1027.67 25.07
-3 5 -2 1132.69 47.23
3 -5 2 1073.15 28.99
3 -5 2 1078.21 25.31
3 -5 2 1037.14 30.03
-4 5 -2 904.97 31.15
4 -5 2 844.74 26.61
-5 5 -2 125.1 13.97
5 -5 2 104.43 10.54
-6 5 -2 443.11 23.32
6 -5 2 430.51 19.43
-7 5 -2 191.75 28.01
7 -5 2 150.94 13.65
-8 5 -2 271.34 22.25
8 -5 2 290.99 17.87
-9 5 -2 -11.66 9.02
9 -5 2 9.74 7.24
9 4 -2 103.07 14.7
-9 -4 2 66.64 10.93
8 4 -2 12.89 8.9
-8 -4 2 22.19 10.96
-7 -4 2 -3.03 5.52
6 4 -2 16.15 7.05
-6 -4 2 23.43 6.8
5 4 -2 977.98 32.72
-5 -4 2 1009.45 29.47
4 4 -2 16.87 5.77
-4 -4 2 21.36 4.72
3 4 -2 691.87 23.76
-3 -4 2 683.42 20.77
2 4 -2 4487.96 103.67
2 4 -2 4532.03 96.53
-2 -4 2 4407.54 100.51
-2 -4 2 4469.94 96.21
1 4 -2 5079.26 113.62
1 4 -2 5067.87 111.34
1 4 -2 5238.59 117.31
-1 -4 2 5222.49 114.11
-1 -4 2 5090.11 111.52
-1 -4 2 5149.43 117.84
0 4 -2 159.33 6.62
0 -4 2 162.46 7.7
0 -4 2 153.21 10.9
0 -4 2 159.6 6.94
-1 4 -2 7249.33 158.56
-1 4 -2 7378.16 164.84
1 -4 2 7373.01 163.7
-2 4 -2 802.31 22.55
-2 4 -2 834.68 20.33
-2 4 -2 865.9 26.93
2 -4 2 837.56 23.18
2 -4 2 823.76 20.83
2 -4 2 827.67 25.51
-3 4 -2 582.03 21.73
-3 4 -2 576.76 14.05
3 -4 2 552.78 18.11
3 -4 2 582.62 14.29
3 -4 2 575.27 14.13
4 -4 2 93.14 8.3
-5 4 -2 367.3 18.97
5 -4 2 388.08 16.27
-6 4 -2 1138.35 38.08
6 -4 2 1093.79 33.23
-7 4 -2 20.87 8.42
7 -4 2 30.7 7.46
-8 4 -2 23.6 9.97
8 -4 2 28.23 7.79
-9 4 -2 11.84 9.21
9 -4 2 30.1 8.26
9 3 -2 37.95 11.11
-9 -3 2 28.53 8.79
8 3 -2 16.5 8.55
-8 -3 2 21.92 6.93
7 3 -2 45.94 10.02
-7 -3 2 32.63 6.93
6 3 -2 636.49 26.51
-6 -3 2 648.37 21.94
5 3 -2 1.48 5.07
-5 -3 2 7.37 4.59
4 3 -2 65.55 12.83
-4 -3 2 82.51 7.03
3 3 -2 1535.58 40.98
-3 -3 2 1508.21 38
2 3 -2 669.51 21.53
2 3 -2 698.78 15.32
2 3 -2 661.58 18.93
-2 -3 2 683.7 21.99
-2 -3 2 693.27 19.48
1 3 -2 5783.03 128.97
-1 -3 2 5733.53 126.25
0 3 -2 1976.23 46.76
0 3 -2 2115.59 50.56
0 3 -2 1983.46 46.01
0 -3 2 2140.64 50.18
0 -3 2 2023.41 50.38
0 -3 2 2063.66 47.12
-1 3 -2 1482.08 38.09
-1 3 -2 1388.75 34.21
-1 3 -2 1458.42 33.59
1 -3 2 1473.23 33.79
1 -3 2 1437.04 34.53
1 -3 2 1484.4 37.74
-2 3 -2 959.85 28.04
-2 3 -2 931.17 21.89
2 -3 2 930.19 24.48
2 -3 2 940.52 22.11
2 -3 2 903.83 27
-3 3 -2 51.95 7.03
-3 3 -2 53.81 2.71
-3 3 -2 41.79 4.93
3 -3 2 51.01 2.93
3 -3 2 45.08 5.18
3 -3 2 54.52 6.4
-4 3 -2 256.48 13.33
4 -3 2 252.08 11.36
-5 3 -2 499.04 20.53
5 -3 2 499.6 17.69
-6 3 -2 32.55 8.45
6 -3 2 31.57 6.51
-7 3 -2 357.89 20.46
7 -3 2 373.6 17.34
-8 3 -2 991.61 42.55
8 -3 2 969.75 31.94
-9 3 -2 22.14 10.74
9 -3 2 24.88 7.38
-10 3 -2 67.72 14.92
10 -3 2 119.86 12.74
9 2 -2 11.61 8.14
-9 -2 2 8.03 6.53
8 2 -2 123.45 14.24
-8 -2 2 143.36 12.04
7 2 -2 162.3 15.5
7 2 -2 162.41 7.59
-7 -2 2 168.57 11.6
-7 -2 2 149.09 8.17
6 2 -2 2250.77 52.98
6 2 -2 2319.69 63.04
-6 -2 2 2486.63 58.15
-6 -2 2 2329.25 53.24
5 2 -2 1906.14 51.92
5 2 -2 1895.11 44.12
-5 -2 2 1883.2 42.98
-5 -2 2 1919.76 47.33
4 2 -2 260.2 13.44
4 2 -2 256.54 7.46
-4 -2 2 266.03 7.78
-4 -2 2 265.8 11.31
3 2 -2 187.77 5.27
3 2 -2 194.64 10.75
3 2 -2 179.27 8.18
-3 -2 2 201.07 9.07
-3 -2 2 188.31 10.88
2 2 -2 6075.08 127.28
2 2 -2 5814.63 136.38
2 2 -2 5979.91 133.55
-2 -2 2 5949.61 136.57
-2 -2 2 6013.95 130.8
1 2 -2 31.74 5.06
1 2 -2 32.46 3.33
1 2 -2 38.82 2.32
1 2 -2 30.25 2.38
-1 -2 2 30.37 2.37
-1 -2 2 30.29 5.59
-1 -2 2 28.79 3.99
0 2 -2 892.65 22.03
0 2 -2 909.01 21.29
0 -2 2 904.89 22.14
0 -2 2 912.56 21.42
0 -2 2 894.66 24.66
-1 2 -2 332.02 12.31
-1 2 -2 335.74 9.25
-1 2 -2 320.12 9.71
1 -2 2 326.17 11.95
1 -2 2 343.91 9.48
1 -2 2 308.25 10.36
-2 2 -2 2880.76 62.28
-2 2 -2 2831.27 64.36
-2 2 -2 2943.36 67.18
2 -2 2 2919.68 62.46
2 -2 2 2819.03 64.97
2 -2 2 2778.68 66.36
-3 2 -2 6723.69 147.41
-3 2 -2 6644.44 150.25
-3 2 -2 6940.4 151.32
3 -2 2 6693.23 148.96
3 -2 2 6733.19 150.51
-4 2 -2 19.37 4.32
-4 2 -2 20.83 6.71
-4 2 -2 17.83 5.15
4 -2 2 16.06 3.87
4 -2 2 21.14 5.54
-5 2 -2 407.91 17.51
5 -2 2 388.7 14.73
-6 2 -2 6.84 6.27
6 -2 2 5.29 3.91
-7 2 -2 737.8 28.71
7 -2 2 724 24.35
-8 2 -2 -0.98 7.74
8 -2 2 6.66 5.48
-9 2 -2 -0.4 8.45
9 -2 2 16.17 9.3
-10 2 -2 93.11 16.89
10 -2 2 84.46 11.58
9 1 -2 84.37 7.19
9 1 -2 63.38 12.48
-9 -1 2 65.2 10.43
8 1 -2 -0.63 6.6
8 1 -2 3.59 3.27
-8 -1 2 -4.42 8.13
7 1 -2 216.77 16.94
7 1 -2 204.92 9.76
-7 -1 2 214.58 12.51
6 1 -2 1429.03 43.53
-6 -1 2 1423.59 35.78
-6 -1 2 1518.41 41.14
5 1 -2 1125.56 27.72
5 1 -2 1116.58 34.31
-5 -1 2 1139.55 30.11
-5 -1 2 1102.31 27.81
4 1 -2 6208.91 142.13
4 1 -2 6615.1 147.1
4 1 -2 6430.21 140.18
-4 -1 2 6630.88 142.85
-4 -1 2 6525.99 140.37
3 1 -2 7460.89 164.42
3 1 -2 7376.31 161.42
-3 -1 2 7449.54 159
-3 -1 2 7449.5 161.8
-3 -1 2 7264.4 164.24
2 1 -2 857.56 23.9
2 1 -2 858 19.9
-2 -1 2 874.88 22.17
-2 -1 2 816.08 23.59
-2 -1 2 868 20.06
1 1 -2 5484.4 119.71
-1 -1 2 5536.71 119.88
0 1 -2 4831.43 104.73
-2 1 -2 977.08 25.65
-2 1 -2 995.84 24.08
-2 1 -2 1004.63 22.52
2 -1 2 1012.59 22.61
2 -1 2 968.88 24.04
2 -1 2 958 25.38
-3 1 -2 686.95 19.96
-3 1 -2 678.83 20.2
-3 1 -2 677.69 15.84
-3 1 -2 686.61 18.27
3 -1 2 664.08 18.27
3 -1 2 657.63 19.65
3 -1 2 678.38 15.63
-4 1 -2 1437.65 31.32
-4 1 -2 1419.48 31.85
-4 1 -2 1407.31 37.17
-4 1 -2 1439.27 38.52
-4 1 -2 1392.38 34.74
-5 1 -2 1500.36 33.49
-5 1 -2 1486.46 33.58
-5 1 -2 1546.82 41.71
5 -1 2 1514.9 41.19
5 -1 2 1533.04 38.19
-6 1 -2 2699.3 60.38
-6 1 -2 2763.8 70.45
-6 1 -2 2764.94 60.36
6 -1 2 2766.31 65.88
6 -1 2 2855.6 70.46
-7 1 -2 942.22 33.07
-7 1 -2 894.33 21.85
-7 1 -2 933.2 21.97
7 -1 2 948.55 28.04
7 -1 2 967.99 32.86
-8 1 -2 265.44 18.14
-8 1 -2 268.62 8.04
-8 1 -2 262.83 8.27
8 -1 2 285.33 19.03
8 -1 2 268.61 13.91
-9 1 -2 38.3 10.7
9 -1 2 53.24 9.13
9 -1 2 46.29 11.27
-10 1 -2 74.5 14.36
10 -1 2 61.06 10.86
10 -1 2 84.83 15.4
9 0 -2 61.03 12.49
9 0 -2 72.06 8.44
-9 0 2 50.98 7.81
8 0 -2 530.96 26.49
8 0 -2 509.45 18.28
-8 0 2 497.69 19.09
7 0 -2 49.05 10.24
7 0 -2 28.5 8.44
6 0 -2 2535.15 60.53
6 0 -2 2535.24 67.89
-6 0 2 2632.17 61.29
5 0 -2 522.18 16.44
5 0 -2 525.06 18.5
5 0 -2 538.45 21.5
-5 0 2 509.82 16.26
-5 0 2 553.85 17.11
4 0 -2 15.5 3.28
4 0 -2 15.33 3.31
4 0 -2 16.75 5.69
-4 0 2 18.84 3.68
3 0 -2 6741.34 145.97
3 0 -2 6645.28 153.14
-3 0 2 6750.55 146.22
-3 0 2 6670.13 145.32
-3 0 2 6726.91 149.38
0 0 -2 4420.31 97.84
0 0 2 4608.34 98.02
-1 0 -2 4134.71 89.54
-1 0 -2 4104.36 89.26
1 0 2 4132.75 89.57
-2 0 -2 486.69 13.66
-2 0 -2 461.14 13.25
-2 0 -2 459.28 11.79
2 0 2 469.15 11.8
2 0 2 467.8 12.74
2 0 2 486.61 13.49
-3 0 -2 664.14 15.88
-3 0 -2 664.57 17.37
-3 0 -2 656.23 18.68
-3 0 -2 661.94 18.92
3 0 2 669.65 15.85
3 0 2 681.29 18.91
3 0 2 635.09 18.51
3 0 2 653.83 17.41
-4 0 -2 106.79 4.29
-4 0 -2 103.84 7.39
-4 0 -2 104.16 7.47
-4 0 -2 104.24 4.31
-4 0 -2 109.28 5.86
4 0 2 100.48 7.71
4 0 2 109.15 4.43
4 0 2 102.15 5.84
-5 0 -2 616.96 15.66
-5 0 -2 629.4 21.39
-5 0 -2 618.45 17.87
-5 0 -2 627.06 15.86
5 0 2 596.21 20.38
5 0 2 626.77 21.3
-6 0 -2 440.89 12.58
-6 0 -2 455.1 21.27
-6 0 -2 447.82 12.6
6 0 2 454.12 15.54
6 0 2 459.94 22.42
-7 0 -2 464.13 21.25
-7 0 -2 434.06 13.09
-7 0 -2 420.88 12.89
7 0 2 501.36 21.73
7 0 2 452.33 20.18
-8 0 -2 356.43 11.9
-8 0 -2 388.04 21.09
-8 0 -2 347.28 11.62
8 0 2 378.91 15.59
8 0 2 363.12 19.62
-9 0 -2 1147.98 41.35
-9 0 -2 1108.51 28.51
9 0 2 1140.08 40.71
9 0 2 1130.66 33.53
-10 0 -2 133.02 16.84
-10 0 -2 102.48 9.2
10 0 2 133.14 15.43
10 0 2 129.73 11.88
-11 0 -2 13.1 15.63
11 0 2 20.79 6.39
9 -1 -2 21.32 8.82
9 -1 -2 19.08 5.55
-9 1 2 7.25 5.37
-9 1 2 11.86 8.48
8 -1 -2 10.79 7.5
8 -1 -2 11.92 4.83
-8 1 2 6.52 6.31
7 -1 -2 607.29 26.56
7 -1 -2 623.12 21.14
-7 1 2 621.75 19.94
6 -1 -2 480.01 21.76
6 -1 -2 474.83 20.3
-6 1 2 515.67 18.3
5 -1 -2 1309.01 38.73
5 -1 -2 1320.97 33.74
5 -1 -2 1280.77 32.23
4 -1 -2 4820.98 105.84
4 -1 -2 4812.37 110.66
4 -1 -2 4718.32 106.34
-4 1 2 4710.7 106.35
-4 1 2 4813.42 105.75
3 -1 -2 6019.97 129.84
3 -1 -2 6090.74 130.71
-3 1 2 5815.67 133.24
-3 1 2 5875.6 130.91
-3 1 2 5994.66 130.08
2 -1 -2 64.78 4.96
2 -1 -2 67.79 4.65
2 -1 -2 65.99 5.8
-2 1 2 67.34 5.01
-2 1 2 65.02 5.67
-2 1 2 64.14 5.05
1 -1 -2 2847.99 65.52
1 -1 -2 2890.98 64.59
1 -1 -2 3086.74 64
-1 1 2 2791.42 63.93
-1 1 2 2881.04 65.22
-1 1 2 2805.78 64.46
0 -1 -2 837.07 20.69
0 -1 -2 873.87 20.89
0 -1 -2 837.11 20.18
0 1 2 865.9 20.82
0 1 2 884.32 20.95
0 1 2 899.16 21.27
-1 -1 -2 2581.67 55.95
-1 -1 -2 2629.95 56.9
-1 -1 -2 2486.37 56.55
1 1 2 2556.52 56.82
1 1 2 2524.18 56.61
1 1 2 2641.64 55.89
-2 -1 -2 2454.04 53.94
-2 -1 -2 2350.13 53.41
-2 -1 -2 2401.09 53.92
-2 -1 -2 2406.75 53.83
2 1 2 2491.98 53.92
2 1 2 2408.94 53.86
2 1 2 2355.72 53.79
2 1 2 2488.43 53.54
-3 -1 -2 3492.49 77.59
-3 -1 -2 3449.94 75.49
-3 -1 -2 3411.06 77.3
-3 -1 -2 3463.31 76.1
3 1 2 3379.93 77.59
3 1 2 3551.83 75.6
3 1 2 3377.38 77.36
-4 -1 -2 2.79 1.66
-4 -1 -2 1.32 2.68
-4 -1 -2 2.4 2.86
-4 -1 -2 1.69 1.83
-4 -1 -2 0.13 1.49
4 1 2 0.01 1.54
4 1 2 0.76 2.02
4 1 2 -0.48 2.56
-5 -1 -2 699.5 22.72
-5 -1 -2 697.87 18.19
-5 -1 -2 733.51 24.84
-5 -1 -2 692.03 18.19
5 1 2 689.52 22.35
5 1 2 681.94 19.34
-6 -1 -2 1779.97 44.23
-6 -1 -2 1883.7 43.28
-6 -1 -2 1817.48 43.15
-6 -1 -2 1859.71 50.68
6 1 2 1852.12 44.79
6 1 2 1913.95 52.37
-7 -1 -2 508.55 17.66
-7 -1 -2 488.72 21.4
-7 -1 -2 465.98 14.39
7 1 2 472.99 16.17
7 1 2 463.24 20.24
-8 -1 -2 77.27 6.19
-8 -1 -2 88.17 12.35
-8 -1 -2 66.15 6.94
8 1 2 90.49 12.47
8 1 2 86.64 9.4
-9 -1 -2 36.86 16.55
-9 -1 -2 56.76 7.11
9 1 2 67.73 9.18
9 1 2 52.95 16.51
-10 -1 -2 113.83 8.58
-10 -1 -2 142.35 17.05
10 1 2 122.69 10.82
10 1 2 146.52 15.63
-11 -1 -2 13.62 11.74
11 1 2 4.79 9.14
11 1 2 14.94 5.8
9 -2 -2 189.51 13.21
9 -2 -2 168.52 17.89
-9 2 2 160.89 19.12
8 -2 -2 406.46 23.71
8 -2 -2 404.64 18.12
-8 2 2 402.79 14.23
-8 2 2 365.03 23
7 -2 -2 52.09 8.76
7 -2 -2 52.1 10.7
7 -2 -2 34.94 4.85
-7 2 2 48.36 10.56
-7 2 2 44.4 6.45
6 -2 -2 626.36 25.66
6 -2 -2 658.47 21.62
6 -2 -2 598.47 17.65
5 -2 -2 15.56 6.73
5 -2 -2 22.88 6.11
4 -2 -2 279.01 14.31
4 -2 -2 280.22 11.86
4 -2 -2 282.05 9.8
-4 2 2 285.75 10.42
3 -2 -2 1452.88 36.15
3 -2 -2 1466.52 41.67
3 -2 -2 1461.95 34.26
-3 2 2 1404.63 35.88
-3 2 2 1472.13 34.48
-3 2 2 1439.43 37.73
2 -2 -2 140.25 7.74
2 -2 -2 144.47 6.22
2 -2 -2 139.14 7.14
-2 2 2 143.47 7.67
-2 2 2 137.17 6.29
-2 -2 -2 625.87 15.99
-2 -2 -2 621.06 16.09
-2 -2 -2 624.93 15.34
-2 -2 -2 635.04 16.16
2 2 2 632.66 15.38
2 2 2 639.14 16.13
2 2 2 610.32 16.25
-3 -2 -2 6044.14 131.88
-4 -2 -2 2659.2 59.97
-4 -2 -2 2656.9 61.99
-4 -2 -2 2557.95 59.79
-4 -2 -2 2629.36 59.73
-4 -2 -2 2628.99 59.6
4 2 2 2686.26 59.81
4 2 2 2629.79 61.99
4 2 2 2756.74 60.12
-5 -2 -2 528.37 14.88
-5 -2 -2 516.68 18.92
-5 -2 -2 503.27 14.63
-5 -2 -2 482.36 17.17
5 2 2 492.36 14.82
5 2 2 498.59 17.7
-6 -2 -2 160.34 8.98
-6 -2 -2 158.87 7.52
-6 -2 -2 152.56 7.26
6 2 2 147.75 10.38
6 2 2 149.7 7.84
-7 -2 -2 77.22 6.14
-7 -2 -2 80.71 5.88
7 2 2 77.34 6.62
7 2 2 78.01 9.67
-8 -2 -2 49.84 6.16
8 2 2 52.95 9.91
8 2 2 56.58 7
-9 -2 -2 838.16 46.38
9 2 2 775.78 24.54
9 2 2 859.5 45.59
-10 -2 -2 51.47 8.01
-10 -2 -2 51.04 11.6
10 2 2 52.72 8.22
10 2 2 55.63 11.82
-11 -2 -2 43.24 11.55
-11 -2 -2 44.56 6.99
11 2 2 49.68 12.1
8 -3 -2 4.75 7.95
8 -3 -2 7.91 5.69
-8 3 2 -4.49 7.58
7 -3 -2 123.57 11.72
-7 3 2 133.58 7.19
6 -3 -2 118.58 10.37
6 -3 -2 123.52 6.73
6 -3 -2 130.45 13.76
-6 3 2 133.41 7.41
-6 3 2 139.87 14.24
5 -3 -2 3824.24 93.3
5 -3 -2 3799.95 89.53
5 -3 -2 3705.6 84.7
-5 3 2 3893.07 94.26
-5 3 2 3907.26 85.21
4 -3 -2 195.67 7.73
4 -3 -2 181.91 12.07
-4 3 2 190.59 8.06
-4 3 2 195.38 12.61
3 -3 -2 24.41 4.91
3 -3 -2 16.42 3.06
3 -3 -2 18.28 4.82
-3 3 2 21.19 5.02
-3 3 2 19.24 4.53
-3 3 2 17.11 3.21
2 -3 -2 6858.11 147.29
2 -3 -2 6862.19 147.1
2 -3 -2 6631.39 144.5
-2 3 2 6647.03 146.92
-2 3 2 6702.6 144.46
-2 3 2 6705.8 147.34
-2 3 2 6312.79 146.53
1 -3 -2 3004.47 67.48
1 -3 -2 2928.82 66.2
1 -3 -2 3243.23 68.54
-1 3 2 2814.42 69.07
-1 3 2 2968.14 66.84
-1 3 2 2930.1 66.11
-1 3 2 2973.85 68.83
-1 -3 -2 634.28 16.9
-1 -3 -2 659.48 14.69
-1 -3 -2 654.96 17.32
1 3 2 640.39 14.66
1 3 2 635.65 17.14
1 3 2 649.26 16.91
-2 -3 -2 2308.4 50.9
-2 -3 -2 2282.78 51.27
-2 -3 -2 2190.95 49.63
-2 -3 -2 2167.1 51.08
2 3 2 2237.13 49.66
2 3 2 2283.84 50.96
2 3 2 2255.39 51.19
-3 -3 -2 1126.52 27.1
-3 -3 -2 1149.03 27.73
-3 -3 -2 1086.76 27.4
-3 -3 -2 1095.83 26.62
-3 -3 -2 1078.12 27.14
3 3 2 1104.22 31.21
3 3 2 1101.46 26.7
3 3 2 1115.2 27.54
-4 -3 -2 4986.58 109.71
-4 -3 -2 5059.72 112.13
-4 -3 -2 5080.69 111.55
-4 -3 -2 5014.4 109.78
-4 -3 -2 5002.19 111.04
4 3 2 4996.51 112.08
-5 -3 -2 159.01 9.2
-5 -3 -2 171.6 8.01
-5 -3 -2 170.29 7.26
-5 -3 -2 163.42 6.87
-5 -3 -2 161.58 7.57
5 3 2 169.7 7.26
5 3 2 167.89 9.83
-6 -3 -2 -1.28 2.46
-6 -3 -2 0.64 2.66
-6 -3 -2 1.19 2.16
6 3 2 1.97 2.5
6 3 2 -2.34 4.02
-7 -3 -2 -1.41 3.43
-7 -3 -2 5.09 2.71
7 3 2 1.06 4.67
-8 -3 -2 5.96 4.44
8 3 2 12.23 3.9
8 3 2 7.82 7.04
-9 -3 -2 32.23 6.14
9 3 2 27.69 10.67
9 3 2 30.87 5.17
-10 -3 -2 159.7 11.4
10 3 2 151.57 15.3
10 3 2 169.9 10.1
-11 -3 -2 3.81 5.58
-11 -3 -2 2.75 7.29
-11 -3 -2 14.88 4.69
11 3 2 15.91 4.5
11 3 2 12.35 9.17
8 -4 -2 114.61 15.52
8 -4 -2 136.12 12.69
-8 4 2 126.67 16.95
7 -4 -2 5.16 5.74
7 -4 -2 -8.52 7.07
-7 4 2 3.64 7.47
6 -4 -2 1.57 5.14
6 -4 -2 -1.54 6.83
6 -4 -2 2.82 2.05
-6 4 2 2.71 6.73
-6 4 2 1.34 2.45
5 -4 -2 519.46 22.21
5 -4 -2 508.94 19.53
5 -4 -2 468.69 13.79
-5 4 2 512.43 22.7
-5 4 2 469 13.93
4 -4 -2 51.79 4.8
4 -4 -2 57.61 7.92
4 -4 -2 62.61 10.44
-4 4 2 51.65 13.6
-4 4 2 54.16 4.88
3 -4 -2 4738.9 106.13
3 -4 -2 5028.06 111.43
3 -4 -2 4819.7 111
-3 4 2 4825.14 106.06
-3 4 2 4690.16 111.27
-3 4 2 5005.76 111.76
2 -4 -2 1618.96 39.88
2 -4 -2 1526.86 36.49
-2 4 2 1521.95 38.98
-2 4 2 1545.99 36.4
-2 4 2 1568.27 39.63
1 -4 -2 776.75 20.39
1 -4 -2 819.21 22.63
-1 4 2 810.96 21.73
-1 4 2 786.81 21.14
-1 4 2 769.71 20.23
-1 4 2 805.45 22.83
0 -4 -2 906.73 22.86
0 -4 -2 898.6 22.04
0 4 2 927.89 22.6
0 4 2 885.23 23.9
0 4 2 893.54 21.94
0 4 2 886.49 22.63
-1 -4 -2 1506.29 33.79
-1 -4 -2 1486.53 35.47
-1 -4 -2 1511.74 35.89
1 4 2 1536.06 33.86
1 4 2 1469.09 35.32
1 4 2 1385.74 35.48
-2 -4 -2 4365.51 94.5
-2 -4 -2 4377.93 95.38
-2 -4 -2 4318.27 95.88
-2 -4 -2 4124.47 100.61
2 4 2 4401.06 95.92
2 4 2 4211.17 93.99
2 4 2 4425.56 95.52
-3 -4 -2 2.5 2.53
-3 -4 -2 7.37 3.24
-3 -4 -2 2.26 2.48
3 4 2 0.91 2.18
3 4 2 1.23 2.16
-4 -4 -2 81.96 5.85
-4 -4 -2 79.6 6.26
-4 -4 -2 84 5.03
-4 -4 -2 88.98 5.43
-4 -4 -2 84.28 6.26
4 4 2 90.46 5.16
4 4 2 87.5 6.38
-5 -4 -2 611.67 20.21
-5 -4 -2 645.25 17.19
-5 -4 -2 629.73 17
-5 -4 -2 632.85 19.1
5 4 2 629.24 20.42
-6 -4 -2 1279.98 33.04
-6 -4 -2 1237.77 30.36
-6 -4 -2 1205.81 30.01
6 4 2 1207.07 35.11
-7 -4 -2 45.63 7.24
-7 -4 -2 73.26 6.33
-7 -4 -2 69.18 6
7 4 2 62.12 9.64
-8 -4 -2 18.96 5.27
8 4 2 23.77 7.97
-9 -4 -2 74.77 7.24
-9 -4 -2 67.21 9.51
-9 -4 -2 76.39 9.72
9 4 2 59.51 11.57
9 4 2 59.66 6.86
-10 -4 -2 23.74 4.86
-10 -4 -2 27.3 6.67
10 4 2 13.73 7.96
10 4 2 21.27 4.63
-11 -4 -2 -4.55 8.13
11 4 2 7.51 7.7
7 -5 -2 23.49 7.57
-7 5 2 14.6 8.87
6 -5 -2 275.65 16.77
-6 5 2 309.71 19.99
5 -5 -2 808.62 20.42
5 -5 -2 824.45 27.4
-5 5 2 856.99 30.93
4 -5 -2 14.9 3.13
4 -5 -2 17.23 5.99
-4 5 2 12.53 3.15
-4 5 2 20.61 6.87
3 -5 -2 86.58 5.86
3 -5 -2 101.11 8.7
-3 5 2 100.32 9.6
-3 5 2 92.66 5.87
2 -5 -2 2744.6 62.76
2 -5 -2 2791.32 66.58
-2 5 2 2729.21 65.52
-2 5 2 2837.24 62.7
1 -5 -2 4611.41 104.26
1 -5 -2 4757.57 107.19
-1 5 2 4690.54 105.5
-1 5 2 4819.93 106.32
-1 5 2 4791.45 104.32
0 -5 -2 8764.57 194.2
0 5 2 8645.7 188.52
-1 -5 -2 365.1 12.26
-1 -5 -2 372.07 11.47
-1 -5 -2 372.38 13.31
1 5 2 364.41 11.71
1 5 2 364.56 13.31
-2 -5 -2 1.42 2.31
-2 -5 -2 1.15 2.89
-2 -5 -2 4.3 3.23
-2 -5 -2 0.02 2.2
2 5 2 0.64 2.78
2 5 2 -0.42 2.38
2 5 2 2.35 5.08
-3 -5 -2 0.24 2.27
-3 -5 -2 1.93 2.64
3 5 2 -0.69 2.26
3 5 2 -2.36 2.27
3 5 2 -2.49 2.74
-4 -5 -2 21.05 5.11
-4 -5 -2 12.25 3.53
-4 -5 -2 27.63 4.41
-4 -5 -2 19.45 3.15
4 5 2 19.84 4.14
4 5 2 22.6 3.74
-5 -5 -2 246.54 9
-5 -5 -2 232.35 8.65
-5 -5 -2 259.73 15.57
-5 -5 -2 215.92 12.68
5 5 2 218.04 11.43
-6 -5 -2 51.34 5.22
-6 -5 -2 51.98 6.53
-6 -5 -2 56.81 4.61
6 5 2 41.5 7.83
-7 -5 -2 -7.1 3.5
-7 -5 -2 3.85 2.95
-7 -5 -2 5.8 2.29
7 5 2 -1.32 5.32
-8 -5 -2 98.99 6.11
-8 -5 -2 92.02 6.62
-8 -5 -2 81.54 9.6
8 5 2 79.21 11.89
-9 -5 -2 -1.17 3.56
-9 -5 -2 -4.19 4.97
9 5 2 0.95 11.67
-10 -5 -2 150.32 17.32
10 5 2 152.23 16.31
-11 -5 -2 2.95 6.28
11 5 2 11.74 8.54
7 -6 -2 11.52 7.06
-7 6 2 -1.94 8.92
6 -6 -2 5.22 6.31
-6 6 2 2.04 7.8
5 -6 -2 248.79 15.7
5 -6 -2 196.22 6.9
-5 6 2 222.36 16.81
4 -6 -2 1015.58 25.67
4 -6 -2 1037.88 32.32
4 -6 -2 1054.8 25.66
-4 6 2 1087.01 34.53
-4 6 2 1041.11 25.53
3 -6 -2 2400.04 54.13
3 -6 -2 2349.26 59.76
3 -6 -2 2264.04 54.09
-3 6 2 2456.25 60.93
-3 6 2 2358.06 54
2 -6 -2 259.62 9.66
2 -6 -2 243.72 13.09
-2 6 2 247.72 13.19
-2 6 2 241.31 11.52
-2 6 2 238.3 9.51
1 -6 -2 11.5 3.38
1 -6 -2 14.09 4.98
-1 6 2 13.82 3.9
-1 6 2 14.08 5.24
0 -6 -2 23.63 3.9
0 -6 -2 23.24 3.97
0 -6 -2 20.4 3.93
0 -6 -2 23.31 5.21
0 6 2 21.61 3.92
0 6 2 25.81 5.28
0 6 2 19.07 3.78
-1 -6 -2 817.79 22.82
-1 -6 -2 848 23.66
-1 -6 -2 868.77 25.65
-1 -6 -2 849.69 24.25
1 6 2 889.16 23.77
1 6 2 851.9 23.25
-2 -6 -2 60.91 6.67
-2 -6 -2 73.05 6.29
-2 -6 -2 67.14 6.41
2 6 2 69.63 6.17
2 6 2 56.88 6.09
2 6 2 65.42 5.85
-3 -6 -2 22.4 5.12
-3 -6 -2 18.76 3.93
3 6 2 24.74 3.98
3 6 2 24.63 4.38
-4 -6 -2 411.12 15.74
-4 -6 -2 453.54 13.9
-4 -6 -2 411.88 15.75
4 6 2 438.96 14.08
-5 -6 -2 13.85 4.78
-5 -6 -2 21.43 3.79
-5 -6 -2 21.78 3.55
5 6 2 17.81 3.49
5 6 2 11.15 4.97
-6 -6 -2 -1.38 4.14
-6 -6 -2 0.82 2.24
-6 -6 -2 1.58 2.84
6 6 2 -6.27 5.33
-7 -6 -2 -1.4 4.31
-7 -6 -2 7.23 3.2
7 6 2 -5.79 5.05
-8 -6 -2 -2.68 5.42
-8 -6 -2 1.05 2.98
8 6 2 4.12 6.42
-9 -6 -2 9.28 3.27
-9 -6 -2 -1.65 4.22
-9 -6 -2 -1.15 6.13
9 6 2 4.77 8.21
-10 -6 -2 5.12 6.23
10 6 2 2.05 7.85
-6 7 2 43.58 11.41
5 -7 -2 11.49 7.05
-5 7 2 13.78 8.5
4 -7 -2 185.87 7.67
4 -7 -2 176.9 7.7
4 -7 -2 219.36 15.03
-4 7 2 181.7 15.72
3 -7 -2 11.98 3.81
3 -7 -2 12.1 5.6
-3 7 2 14.51 7.07
2 -7 -2 553.26 16.78
2 -7 -2 533.79 20.71
2 -7 -2 521.65 16.41
-2 7 2 542.37 18.1
-2 7 2 529.89 21.2
1 -7 -2 1631.61 40.94
1 -7 -2 1572.59 41.39
1 -7 -2 1646.46 39.77
1 -7 -2 1653.49 43.41
-1 7 2 1540.81 40.94
-1 7 2 1603.27 39.53
-1 7 2 1615.65 44.25
0 -7 -2 15.94 4.1
0 -7 -2 20.47 4.93
0 -7 -2 22.31 5.76
0 7 2 25.85 4.42
0 7 2 24.41 6.22
0 7 2 19.7 4.39
-1 -7 -2 44 10.42
-1 -7 -2 63.26 6.74
-1 -7 -2 68.58 6.8
1 7 2 73.68 8.3
-2 -7 -2 154.03 9.36
-2 -7 -2 148.53 9.59
2 7 2 161.35 9.31
-3 -7 -2 118.91 8.92
-3 -7 -2 119.7 8.17
3 7 2 115.53 8.34
3 7 2 118.83 9.28
-4 -7 -2 783.66 24.9
-4 -7 -2 759.77 25.07
-4 -7 -2 840.26 25.11
4 7 2 794.19 22.32
4 7 2 778.89 24.04
-5 -7 -2 3.46 3.28
-5 -7 -2 3.41 4.04
-5 -7 -2 3.38 3.63
-6 -7 -2 425.63 17.68
-6 -7 -2 405.35 12.92
-6 -7 -2 424.3 13.17
6 7 2 390.69 18.14
-7 -7 -2 227.7 14.3
-7 -7 -2 246.4 8.62
-7 -7 -2 245.21 9.01
7 7 2 229.04 15.05
-8 -7 -2 286.67 23.04
-8 -7 -2 280.89 8.57
8 7 2 261.78 17.09
-9 -7 -2 11.48 6.71
9 7 2 17.64 8.56
-10 -7 -2 100.02 13.34
10 7 2 110.83 14.59
5 -8 -2 147.96 14.38
-5 8 2 101.9 16.24
4 -8 -2 736.83 27.65
4 -8 -2 665.7 18.15
-4 8 2 699.13 29.12
3 -8 -2 317.38 16.87
3 -8 -2 317.35 13.38
3 -8 -2 298.59 11.4
-3 8 2 324.74 19.02
2 -8 -2 6.59 6.2
2 -8 -2 4.07 3.54
-2 8 2 -4.47 6.79
1 -8 -2 84.8 7.56
1 -8 -2 92.88 10.71
-1 8 2 65.77 11.24
0 -8 -2 356.5 19.09
0 -8 -2 405.99 17.33
0 -8 -2 369.19 15.04
0 8 2 371.26 14.67
0 8 2 413.04 17.47
-1 -8 -2 1235.2 34.43
-1 -8 -2 1324.5 34.67
-1 -8 -2 1258.82 35.5
-2 -8 -2 363.26 15.1
-2 -8 -2 308.22 14.75
-2 -8 -2 374.84 15.12
-3 -8 -2 2048.83 54.71
-3 -8 -2 2267.45 55.34
-3 -8 -2 2271.7 53.69
3 8 2 2143.29 53.81
-4 -8 -2 520.67 19.86
-4 -8 -2 560.38 17.87
4 8 2 509.11 19.14
-5 -8 -2 293.24 14.74
-5 -8 -2 290.92 11.7
5 8 2 265.66 11.22
5 8 2 273.63 16.99
-6 -8 -2 24.11 5.93
-6 -8 -2 15.71 5.78
-6 -8 -2 23.79 4.2
6 8 2 24.5 7.33
-7 -8 -2 26.91 3.75
7 8 2 24.19 7.66
-8 -8 -2 0.68 5.52
8 8 2 2.96 6.79
-9 -8 -2 15.44 7.39
9 8 2 36.98 9.82
-10 -8 -2 53.81 9.7
5 -9 -2 121.34 18.14
-5 9 2 80.68 14.5
-4 9 2 55.25 12.45
3 -9 -2 81.74 6.85
3 -9 -2 106.39 12.95
-3 9 2 75.5 12.25
2 -9 -2 1.46 3.89
2 -9 -2 13.22 6.9
-2 9 2 -1.52 7.45
1 -9 -2 20.74 4.93
1 -9 -2 24.34 7.61
-1 9 2 12.17 7.8
0 -9 -2 -3.28 5.52
0 -9 -2 0.58 4.31
0 9 2 1.18 6.59
-1 -9 -2 5.1 4.75
-1 -9 -2 1.79 5.57
1 9 2 10.36 6.01
-2 -9 -2 224.13 13.17
-2 -9 -2 230.87 13.41
2 9 2 239.52 13.07
-3 -9 -2 7.75 5.25
-3 -9 -2 3.73 5.96
3 9 2 14.27 5.34
-4 -9 -2 821.52 24.84
-4 -9 -2 802.53 27.42
4 9 2 803.77 26.3
-5 -9 -2 603.87 19.21
-5 -9 -2 613.92 22.95
5 9 2 595.41 22.59
-6 -9 -2 43.45 5.36
-6 -9 -2 30.59 7.61
-6 -9 -2 32.92 5.94
6 9 2 32.66 7.63
6 9 2 42.17 5.26
-7 -9 -2 149.67 7.22
-7 -9 -2 158.64 13.86
7 9 2 152.4 14.05
-8 -9 -2 124.68 13.57
8 9 2 149.84 20.91
-9 -9 -2 75.38 12.59
9 9 2 105.51 14.41
3 -10 -2 10.08 7.6
3 -10 -2 -2.4 3.27
-3 10 2 -13.98 8.35
2 -10 -2 21.46 4.85
2 -10 -2 25.78 7.95
-2 10 2 7.67 8.37
1 -10 -2 46.44 8.66
1 -10 -2 36.98 5.89
-1 10 2 34.63 9.31
0 -10 -2 21.52 5.82
0 10 2 26.56 13.39
-1 -10 -2 -0.46 5.7
-1 -10 -2 0.59 4.59
1 10 2 4.45 5.87
-2 -10 -2 107.58 10.91
-2 -10 -2 119.06 10.81
2 10 2 122.07 10.92
-3 -10 -2 299.89 15.15
-3 -10 -2 302.25 16.23
3 10 2 337.13 17.12
-4 -10 -2 191.46 11.67
4 10 2 189.93 12.73
-5 -10 -2 126.46 11.89
5 10 2 156.56 12.21
-6 -10 -2 99.79 7.8
-6 -10 -2 96.14 12.44
6 10 2 126.91 12.25
-7 -10 -2 158.24 13.76
-7 -10 -2 164.23 8.37
7 10 2 195.59 15.11
-8 -10 -2 4.99 6.47
8 10 2 20.22 7.36
2 -11 -2 4.14 4.27
2 -11 -2 6.99 7.19
-2 11 2 -16.63 11.54
1 -11 -2 7.56 6.97
1 -11 -2 4.56 4.54
-1 11 2 -0.3 7.96
0 -11 -2 30.16 7.85
0 -11 -2 20.7 6.12
0 11 2 27.89 8.17
-1 -11 -2 226.73 14.94
-1 -11 -2 210.98 13.81
1 11 2 231.75 14.53
-2 -11 -2 124.44 19.41
-2 -11 -2 96.88 11.28
2 11 2 120.68 11
-3 -11 -2 123.78 11.29
-3 -11 -2 113.89 12.34
3 11 2 160.16 11.87
-4 -11 -2 41.95 7.09
-4 -11 -2 43.16 8.59
-5 -11 -2 23.44 7.99
-5 -11 -2 33.01 5.92
-6 -11 -2 4.11 6.92
-6 -11 -2 8.31 4.55
-7 -11 -2 18.39 8.47
0 -12 -2 3.69 10.94
0 12 2 7.37 6.73
-1 -12 -2 10.14 6.82
-2 -12 -2 148.08 13.29
-2 -12 -2 121.18 12.64
-3 -12 -2 14.3 7.22
-3 -12 -2 25.99 10.82
-4 -12 -2 48.25 10.03
-4 -12 -2 72.98 9.97
-5 -12 -2 82.21 9.03
-5 -12 -2 49.58 9.42
6 12 2 132.95 12.15
3 11 -3 31.83 9.45
-3 -11 3 -0.9 7.11
2 11 -3 4.76 8.68
-2 -11 3 3.2 6.96
1 11 -3 19.89 10.54
-1 -11 3 16.99 5.51
-1 -11 3 2.92 6.59
0 11 -3 142.14 18.51
0 -11 3 141.01 12.22
0 -11 3 116.36 12.72
-1 11 -3 13.31 11.87
1 -11 3 19.95 6.93
1 -11 3 11.95 6.04
-2 11 -3 -0.16 11.43
2 -11 3 9.62 5.84
2 -11 3 25.65 7.14
-5 -10 3 6.26 7.92
4 10 -3 148.12 16.34
3 10 -3 13.63 8.7
-3 -10 3 3.25 6.94
2 10 -3 12.51 9.03
-2 -10 3 19.57 6.79
-2 -10 3 6.67 6.78
1 10 -3 60.08 12.46
-1 -10 3 51.97 10.89
-1 -10 3 79.37 9.1
0 10 -3 8.98 10.09
0 -10 3 8 5.99
0 -10 3 2.91 5.9
-1 10 -3 9.55 10.48
1 -10 3 8.96 5.48
1 -10 3 15 6.3
-2 10 -3 -0.95 10.7
2 -10 3 3.22 4.6
2 -10 3 12.61 6.27
-3 10 -3 5.21 12.02
3 -10 3 14.48 4.73
3 -10 3 19.59 7.15
4 -10 3 3.53 6.77
6 9 -3 13.66 7.18
-6 -9 3 7.45 6.92
-5 -9 3 37.69 9.53
4 9 -3 14.54 8.62
-4 -9 3 2.69 7.02
3 9 -3 46.43 5.95
3 9 -3 69.69 13.72
-3 -9 3 64.15 5.14
-3 -9 3 55.74 9.67
2 9 -3 719.35 33.45
-2 -9 3 694.96 21.06
-2 -9 3 712.84 29.35
1 9 -3 25.14 10.17
-1 -9 3 21.41 6.97
-1 -9 3 21.3 5.6
0 9 -3 208.61 18.87
0 -9 3 185.27 11.81
0 -9 3 183.46 12.51
-1 9 -3 10.4 10.23
1 -9 3 10.55 5.21
1 -9 3 3.98 5.21
-2 9 -3 19.89 12.59
2 -9 3 19.14 5.09
2 -9 3 20.08 6.54
-3 9 -3 4.03 11.09
3 -9 3 3.49 5.99
3 -9 3 2.92 3.74
-4 9 -3 -6.05 10.53
4 -9 3 6.93 6.61
-5 9 -3 0.75 11.86
5 -9 3 12.43 7.17
-7 -8 3 35.59 9.9
6 8 -3 138.88 15.66
-6 -8 3 82.43 13.41
5 8 -3 31.8 8.76
-5 -8 3 36.18 9.05
4 8 -3 38.01 13.15
-4 -8 3 47.96 8.8
3 8 -3 40.67 4.23
3 8 -3 51.03 10.52
-3 -8 3 45.8 8.58
2 8 -3 309.77 19.93
2 8 -3 273.55 11.2
-2 -8 3 320.82 15.87
1 8 -3 981.58 35.53
-1 -8 3 996.04 30.25
-1 -8 3 949.48 27.19
0 8 -3 314.69 20.93
0 -8 3 297.08 14.38
0 -8 3 300.43 13.93
-1 8 -3 40.72 11.37
1 -8 3 53.95 8.57
1 -8 3 42.18 6.43
-2 8 -3 3.98 9.9
2 -8 3 -1.58 4.83
2 -8 3 -0.56 4.09
-3 8 -3 15.74 9.95
3 -8 3 24.04 6.87
3 -8 3 17.75 4.33
-4 8 -3 1.51 16.13
4 -8 3 3.08 2.44
4 -8 3 -0.94 5.97
4 -8 3 -5.11 2.82
-5 8 -3 3.62 11.15
5 -8 3 28.49 8.39
-6 8 -3 0.95 11.61
6 -8 3 16.65 8.15
-7 8 -3 32.95 14.61
7 -8 3 31.77 11.14
7 7 -3 72.9 14.25
-7 -7 3 40.06 9.26
6 7 -3 227.92 17.75
-6 -7 3 211.17 15.37
5 7 -3 255.3 18.93
-5 -7 3 222.73 14.91
4 7 -3 140.21 15.16
-4 -7 3 113.66 12.48
3 7 -3 117.51 5.07
3 7 -3 114.92 14.69
-3 -7 3 98.28 11.34
2 7 -3 405.57 12.83
2 7 -3 409.62 20.76
-2 -7 3 410.44 13.16
-2 -7 3 426.38 17.44
1 7 -3 910.83 32.17
1 7 -3 801.78 23.39
-1 -7 3 866.99 24.03
-1 -7 3 906.43 27.09
0 7 -3 41.02 9.55
0 -7 3 32.54 5.61
0 -7 3 41.7 6.62
-1 7 -3 606.17 26.7
1 -7 3 567.89 19.85
1 -7 3 575.51 20.99
-2 7 -3 11.28 9.02
2 -7 3 -0.12 3.55
2 -7 3 1.95 4.76
-3 7 -3 250.56 10.04
-3 7 -3 284.58 20.76
3 -7 3 277.01 10.28
3 -7 3 287.01 15
3 -7 3 275.02 14.02
-4 7 -3 9 9.34
4 -7 3 5.27 2.4
4 -7 3 7.02 5.9
4 -7 3 5.27 3
-5 7 -3 131.18 18.63
5 -7 3 151.43 13.25
-6 7 -3 44.07 13.29
6 -7 3 54.32 9.81
-7 7 -3 29.8 12.61
7 -7 3 31.76 8.21
8 6 -3 31.34 10.37
-8 -6 3 11.59 7.47
7 6 -3 45.72 10.69
-7 -6 3 24.2 8.51
6 6 -3 432.89 23.2
-6 -6 3 401.9 19.26
5 6 -3 21.09 7.84
-5 -6 3 20.49 6.8
4 6 -3 85.28 12.89
-4 -6 3 94.46 11.13
3 6 -3 104.67 12.97
-3 -6 3 101.81 10.49
2 6 -3 279.31 9.16
2 6 -3 281.88 17.14
-2 -6 3 287.6 10.42
-2 -6 3 272.18 13.62
1 6 -3 32.52 4.84
1 6 -3 31.89 7.97
-1 -6 3 30.63 4.29
-1 -6 3 29.24 5.38
0 6 -3 288.07 16.6
0 6 -3 256.55 10.57
0 -6 3 269.97 12.15
0 -6 3 262.6 11.1
-1 6 -3 826.67 29.6
1 -6 3 818.96 23.25
1 -6 3 807.35 23.95
-2 6 -3 13.74 3.05
-2 6 -3 17.77 7.79
2 -6 3 10.66 4.21
2 -6 3 10.4 3.63
-3 6 -3 156.09 8.09
-3 6 -3 164.31 15.06
3 -6 3 151.64 10.88
3 -6 3 166.52 7.87
-4 6 -3 397.98 21.96
4 -6 3 371.69 11.05
4 -6 3 391.86 17.63
-5 6 -3 103.67 16.35
5 -6 3 101.11 11.5
-6 6 -3 85.53 16.96
6 -6 3 81.46 11.52
-7 6 -3 72.22 15.1
7 -6 3 77.11 11.42
-8 6 -3 -9.87 9.03
8 -6 3 4.3 6.37
8 5 -3 22.26 9.04
-8 -5 3 -1.86 6.46
7 5 -3 336.52 21.83
-7 -5 3 337.01 18.44
6 5 -3 720.65 34.93
-6 -5 3 692.1 25.98
5 5 -3 210.04 15.73
-5 -5 3 239.41 14.59
4 5 -3 1172.52 37.76
-4 -5 3 1144.75 33.52
3 5 -3 -2.8 6.01
-3 -5 3 6.7 4.96
2 5 -3 10.17 2.17
2 5 -3 4.88 5.74
-2 -5 3 10.54 4.36
-2 -5 3 8.87 2.3
1 5 -3 460.92 13.51
1 5 -3 532.31 31.75
-1 -5 3 475.61 16.68
-1 -5 3 456.69 13.87
0 5 -3 2376.52 57.9
0 5 -3 2535.18 63.12
0 -5 3 2402.69 56.59
0 -5 3 2463.17 57.92
-1 5 -3 26.9 7.85
-1 5 -3 12.36 3.61
-1 5 -3 15.16 3.43
1 -5 3 14.53 4.12
1 -5 3 22.04 4.26
-2 5 -3 46.26 5.19
-2 5 -3 46.97 14.79
2 -5 3 43.51 6.19
2 -5 3 43.91 5.35
-3 5 -3 16.69 2.68
-3 5 -3 21.8 7.93
3 -5 3 15.11 4.78
3 -5 3 22.25 3.43
-4 5 -3 123.02 5.13
-4 5 -3 151.51 13.97
4 -5 3 123.2 10.17
4 -5 3 133.75 5.68
4 -5 3 128.1 5.22
-5 5 -3 719.41 29
5 -5 3 698.05 24.3
-6 5 -3 50.17 11.73
6 -5 3 40.91 7.71
-7 5 -3 386.28 23.78
7 -5 3 387.18 19.72
-8 5 -3 -6.59 9.6
8 -5 3 3.99 6.86
-9 5 -3 -7.39 9.49
9 -5 3 18.39 8
8 4 -3 51.81 11.36
-8 -4 3 42.57 9.22
7 4 -3 211.45 18.25
-7 -4 3 197.76 20.44
6 4 -3 6.15 6.8
-6 -4 3 5.21 5.97
5 4 -3 424.22 21.06
-5 -4 3 450.69 18.11
4 4 -3 496.05 21.4
-4 -4 3 531.54 18.8
3 4 -3 496.88 20.73
-3 -4 3 489.87 17.4
2 4 -3 184.34 11.89
2 4 -3 181.37 5.95
2 4 -3 169.97 5.52
-2 -4 3 181.23 9.99
1 4 -3 219.93 7.71
1 4 -3 257.29 13.99
-1 -4 3 234.42 10.79
0 4 -3 1.67 5.35
-1 4 -3 69.18 5.31
-1 4 -3 73.99 5.16
-1 4 -3 96.96 10.38
1 -4 3 76.21 5.94
1 -4 3 62.83 6.43
-2 4 -3 1686.14 46.03
-2 4 -3 1721.05 43.8
-2 4 -3 1691.46 39.35
2 -4 3 1642.75 41.51
2 -4 3 1701.61 39.76
-3 4 -3 20.95 6.82
-3 4 -3 11.73 2.21
3 -4 3 4.9 3.66
3 -4 3 13.12 2.8
-4 4 -3 11.22 6.88
-4 4 -3 7.57 1.57
4 -4 3 8.26 1.99
4 -4 3 5.85 4.3
-5 4 -3 542.95 23.92
5 -4 3 549.44 20.06
-6 4 -3 551.57 25.29
6 -4 3 532.01 21.07
-7 4 -3 8.67 8.71
7 -4 3 3.4 6.29
-8 4 -3 0.32 8.32
8 -4 3 -0.75 6.5
-9 4 -3 189.7 20.66
9 -4 3 225.28 16.21
9 3 -3 24.73 12.93
-9 -3 3 18.58 7.94
8 3 -3 29.68 9.79
-8 -3 3 19.38 7.72
7 3 -3 341.84 21.32
-7 -3 3 345.9 17.81
6 3 -3 796.28 31.5
-6 -3 3 810.11 26.84
5 3 -3 3163.14 80.2
-5 -3 3 3081.74 74.95
4 3 -3 6.17 5.42
-4 -3 3 12.02 4.93
3 3 -3 361.02 24.06
-3 -3 3 409.49 15.13
2 3 -3 6.59 1.57
2 3 -3 7.42 5.13
-2 -3 3 7.61 3.8
1 3 -3 3239.14 72.78
1 3 -3 3339.34 78.99
1 3 -3 3411.74 73.24
1 3 -3 3275.67 75.5
-1 -3 3 3337.17 73.1
-1 -3 3 3301.36 75.83
-1 -3 3 3389.15 79.79
0 3 -3 754.06 20.53
0 3 -3 799.38 24.65
0 3 -3 755.33 19.37
0 -3 3 785.8 22.65
0 -3 3 747.92 24.15
0 -3 3 753.75 19.6
-1 3 -3 105.14 5.58
-1 3 -3 104.29 5.75
1 -3 3 113.24 8.63
1 -3 3 110.25 6.13
1 -3 3 100.61 5.83
-2 3 -3 422.38 16.77
-2 3 -3 414.1 13.28
-2 3 -3 408.69 11.93
2 -3 3 423.58 12.39
2 -3 3 410.67 15.97
-3 3 -3 81.2 4.08
-3 3 -3 81.39 8.61
3 -3 3 69.05 6.28
3 -3 3 85.14 4.76
-4 3 -3 2.91 1.23
-4 3 -3 1.82 5.07
4 -3 3 2.26 1.46
4 -3 3 0.85 3.39
-5 3 -3 1005.78 32.66
5 -3 3 978.42 28.84
-6 3 -3 686.76 26.96
6 -3 3 702.24 23.3
-7 3 -3 -2.05 6.43
7 -3 3 6.09 5.76
-8 3 -3 82.77 21.15
8 -3 3 87.59 10.94
-9 3 -3 15.42 10.01
9 -3 3 7.48 5.79
-10 3 -3 18.4 11.83
10 -3 3 71.69 11.63
-9 -2 3 112.78 13.48
8 2 -3 145.82 16.34
-8 -2 3 129.39 12.51
7 2 -3 47.24 10.49
-7 -2 3 53.08 8.41
-7 -2 3 37.4 4.99
6 2 -3 182.37 7.54
6 2 -3 205.59 16.53
-6 -2 3 174.68 8.18
-6 -2 3 199.23 12.91
5 2 -3 1155.07 37.01
-5 -2 3 1194.33 33.26
-5 -2 3 1175.98 28.15
4 2 -3 121.2 5.03
4 2 -3 117.7 11.5
-4 -2 3 117.59 5.38
3 2 -3 1105.22 32.7
3 2 -3 1120.08 25.78
3 2 -3 1121.62 25.89
-3 -2 3 1111.91 25.9
-3 -2 3 1139.93 30.2
2 2 -3 395.29 10.34
2 2 -3 383.5 13.14
2 2 -3 377.82 15.25
2 2 -3 382.93 10.25
-2 -2 3 367.96 15.17
-2 -2 3 397.8 13.7
1 2 -3 3207.86 70.21
1 2 -3 3129.83 72.39
1 2 -3 3268.25 70.37
-1 -2 3 3212.42 75.45
0 2 -3 1163.69 31.14
0 2 -3 1152.23 27.23
0 2 -3 1133.01 28.26
0 -2 3 1141.34 28.73
0 -2 3 1193.01 31.75
0 -2 3 1121.82 28.43
-1 2 -3 536.2 14.81
-1 2 -3 560.76 15.12
-1 2 -3 547.44 18.17
1 -2 3 548.8 18.02
1 -2 3 558.51 15.34
1 -2 3 541.54 15.14
-2 2 -3 154.07 6.85
-2 2 -3 143.53 5.77
-2 2 -3 145.66 9.17
2 -2 3 136.85 6.8
2 -2 3 156.92 6.53
-3 2 -3 1180.4 27.41
-3 2 -3 1133.33 29.88
-3 2 -3 1204.34 36.69
3 -2 3 1202.72 32.65
3 -2 3 1200.74 27.67
-4 2 -3 1669.53 36.72
-4 2 -3 1704.46 44.39
4 -2 3 1602.06 40.95
4 -2 3 1625.6 36.71
-5 2 -3 40.55 8.24
5 -2 3 37.04 6.19
-6 2 -3 643.25 25.08
6 -2 3 666.21 21.9
-7 2 -3 182.3 14.76
7 -2 3 180.39 11.93
-8 2 -3 813.52 32.72
8 -2 3 835.47 27.82
-9 2 -3 145.73 16.22
9 -2 3 136.01 21.19
-10 2 -3 70.53 14.19
10 -2 3 93.79 12.03
-9 -1 3 42.03 8.86
8 1 -3 23.42 10.06
-8 -1 3 24.42 7.3
7 1 -3 505.25 26.42
7 1 -3 514.41 16.7
-7 -1 3 545.24 20.47
6 1 -3 1212.17 34.7
6 1 -3 1218.24 39.58
-6 -1 3 1269.61 35.03
-6 -1 3 1205.84 31.31
5 1 -3 614.3 17.48
5 1 -3 602.01 24.05
-5 -1 3 622.56 18.6
-5 -1 3 642.42 21.78
4 1 -3 923.53 23.3
4 1 -3 898.63 29.32
-4 -1 3 960.12 26.56
-4 -1 3 918.56 23.56
3 1 -3 2091.85 53.09
3 1 -3 2069.32 47.36
-3 -1 3 2087.2 50.19
-3 -1 3 2104.71 47.55
2 1 -3 2247.95 57.88
2 1 -3 2222.81 52.74
2 1 -3 2351.9 51
-2 -1 3 2212.67 55.84
-2 -1 3 2304.52 50.86
-2 -1 3 2250.62 55.35
1 1 -3 6529.32 141.59
1 1 -3 6680.04 145.4
-1 -1 3 6527.26 143.5
-1 -1 3 6539.99 145.36
0 1 -3 3593.68 80.41
0 1 -3 3550.82 77.53
0 1 -3 3445.65 78.27
0 1 -3 3489.82 77.88
0 -1 3 3536.97 77.56
0 -1 3 3519.01 80.6
0 -1 3 3559.86 78.63
-1 1 -3 3696.25 82.81
-1 1 -3 3832.12 83.06
-1 1 -3 3722.91 85.42
1 -1 3 3804.43 83.18
1 -1 3 3681.4 85.23
1 -1 3 3862.6 83.23
-2 1 -3 2355 53.37
-2 1 -3 2308.96 52.24
-2 1 -3 2302.16 55.54
2 -1 3 2261.97 54.96
2 -1 3 2434.32 55.98
2 -1 3 2364.33 53.51
-3 1 -3 925.94 27.7
-3 1 -3 857.49 20.79
-3 1 -3 870.65 24.96
3 -1 3 862.81 20.8
3 -1 3 869.22 24.54
3 -1 3 801.82 22.57
-4 1 -3 1099.11 30.59
-4 1 -3 1074.19 27.76
-4 1 -3 1064.83 24.69
-4 1 -3 1036.24 29.65
4 -1 3 1057.95 27.91
4 -1 3 1056.13 24.58
4 -1 3 1012.31 29.4
-5 1 -3 9.52 1.77
-5 1 -3 11.97 2.15
-5 1 -3 12.54 5.32
5 -1 3 15.1 2.03
5 -1 3 11.24 3.42
-6 1 -3 38.82 7.94
-6 1 -3 40.31 3.39
-6 1 -3 46.21 3.08
6 -1 3 42.82 9.83
-7 1 -3 50.79 3.43
-7 1 -3 53.23 9.81
-7 1 -3 49.76 3.65
7 -1 3 48.65 7.65
-8 1 -3 189.46 16.74
-8 1 -3 183.68 6.08
-8 1 -3 182.98 6.16
8 -1 3 198.31 12.69
-9 1 -3 33.61 10.43
9 -1 3 44.94 7.76
-10 1 -3 1.92 8.78
10 -1 3 1.72 5.77
11 -1 3 339.8 19.04
8 0 -3 110.31 8.68
8 0 -3 103.26 14.79
-8 0 3 91.72 11.17
7 0 -3 369.33 14.83
7 0 -3 363.21 21.62
-7 0 3 379 16.79
6 0 -3 32.7 8.41
6 0 -3 43.61 6.76
-6 0 3 39.91 6.89
5 0 -3 2838.41 65.66
5 0 -3 2809.34 72.41
-5 0 3 2801.88 65.89
-5 0 3 2891.12 67.52
4 0 -3 44.3 6.33
-4 0 3 52.08 7.22
-4 0 3 45.38 6.01
3 0 -3 529.83 16.57
3 0 -3 564.7 15.88
3 0 -3 542.43 19.16
-3 0 3 555.45 15.85
-3 0 3 566.74 17.41
2 0 -3 320.16 11.41
2 0 -3 332.27 10.44
2 0 -3 320.71 14.1
-2 0 3 325.33 13.32
-2 0 3 322.15 12.01
-2 0 3 323.78 10.56
1 0 -3 2421.5 53.55
1 0 -3 2321.49 55.45
1 0 -3 2350.44 54.24
-1 0 3 2414.97 54.64
-1 0 3 2346.14 55.59
-1 0 3 2395.13 53.55
0 0 -3 420.99 11.97
0 0 -3 466.36 15.97
0 0 -3 415.6 12.47
0 0 -3 431.25 15.08
0 0 3 434.99 12.92
0 0 3 427.67 12.12
0 0 3 439.9 13.83
-2 0 -3 46.5 3.67
-2 0 -3 50.13 7.98
2 0 3 43.51 3.57
2 0 3 42.91 5.25
2 0 3 53.15 4.52
-3 0 -3 528.69 16.42
-3 0 -3 522.27 14.96
-3 0 -3 525.2 13.81
-3 0 -3 510.41 15.85
3 0 3 501.41 14.92
3 0 3 534.57 14.97
3 0 3 530.68 16.05
-4 0 -3 1716.69 41.93
-4 0 -3 1739.52 44.24
-4 0 -3 1785.24 45.02
-4 0 -3 1724.46 39.66
4 0 3 1804.59 43.21
4 0 3 1737.91 42.35
4 0 3 1701.6 46.17
-5 0 -3 2038.79 48.24
-5 0 -3 1947.83 45.24
-5 0 -3 2020.84 46.75
-5 0 -3 2006.18 51.26
5 0 3 1956.83 50.73
5 0 3 2000.37 48.3
5 0 3 2049.16 45.73
-6 0 -3 1574.87 53.95
-6 0 -3 1540.97 35.5
-6 0 -3 1490.02 35.49
6 0 3 1510.49 39.09
-7 0 -3 622.72 24.58
-7 0 -3 623.18 16.62
-7 0 -3 605.25 16.58
7 0 3 625.01 20.65
7 0 3 628.95 24.21
-8 0 -3 347.14 11.28
-8 0 -3 331.59 11.03
-8 0 -3 356.19 19.58
8 0 3 343.21 15.43
8 0 3 366.59 20.09
-9 0 -3 145.42 8.08
-9 0 -3 139.7 7.45
9 0 3 161.02 12.27
-10 0 -3 127.73 17.11
-10 0 -3 106.52 6.58
10 0 3 132.53 16.83
10 0 3 128.85 12.23
-11 0 -3 2.83 8.21
11 0 3 13.18 6.41
11 0 3 11.8 9.22
8 -1 -3 72.05 14.19
8 -1 -3 84.09 9.07
-8 1 3 64.97 11.1
7 -1 -3 97.88 13.28
7 -1 -3 110.13 9.63
-7 1 3 101.91 10.32
6 -1 -3 777.75 29.54
6 -1 -3 748.92 23.48
-6 1 3 756.76 26.14
5 -1 -3 149.31 13.23
5 -1 -3 137.5 9.15
-5 1 3 128.33 10.02
4 -1 -3 65.1 6.68
4 -1 -3 68.2 6.13
4 -1 -3 65.28 14.15
-4 1 3 70.53 7.61
3 -1 -3 3546.22 80.53
3 -1 -3 3540.75 83.78
-3 1 3 3547.24 80.78
-3 1 3 3661.13 87.9
2 -1 -3 5364.85 116.91
2 -1 -3 5288.37 118.91
2 -1 -3 5443.26 119.22
-2 1 3 5271.71 117.12
-2 1 3 5285.19 121.95
-2 1 3 5241.96 116.85
1 -1 -3 3394.4 77.61
1 -1 -3 3614.93 77.1
1 -1 -3 3398.88 76.97
-1 1 3 3448 77.7
-1 1 3 3423.8 76.92
-1 1 3 3426.57 77.12
0 -1 -3 3125.93 70.32
0 -1 -3 3177.41 70.74
0 -1 -3 3101.36 70.52
0 1 3 3228.76 70.85
0 1 3 3137.01 70.47
0 1 3 3249.7 70.78
-1 -1 -3 955.19 23.51
-1 -1 -3 940.94 23.56
-1 -1 -3 947.57 23.45
-1 -1 -3 977.32 23.17
1 1 3 955.78 23.55
1 1 3 967.51 23.21
1 1 3 921.51 23.47
-2 -1 -3 3259.64 71.9
-2 -1 -3 3306.99 72.21
-2 -1 -3 3176.15 72.32
-2 -1 -3 3182.64 72.26
2 1 3 3322.99 72.44
2 1 3 3282.7 71.99
2 1 3 3249.28 72.38
2 1 3 3188.18 71.83
-3 -1 -3 1107.26 27.03
-3 -1 -3 1150.52 28.73
-3 -1 -3 1075.2 27.69
-3 -1 -3 1108.37 28.04
-3 -1 -3 1196.93 28.5
3 1 3 1147.05 28.32
3 1 3 1126.42 27.09
3 1 3 1145.74 28.09
-4 -1 -3 379.96 11.39
-4 -1 -3 384.93 12.47
-4 -1 -3 375.81 13.63
-4 -1 -3 385.65 13.44
4 1 3 400.83 12.67
4 1 3 385.28 13.66
4 1 3 387.98 11.37
-5 -1 -3 242.09 8.74
-5 -1 -3 258.91 8.97
-5 -1 -3 257.41 11.69
-5 -1 -3 260.27 10.01
-5 -1 -3 259.45 12
5 1 3 265.82 9.04
5 1 3 262.38 12.23
-6 -1 -3 98.88 9.64
-6 -1 -3 89.74 5.56
-6 -1 -3 97.9 5.73
6 1 3 101.4 7.31
6 1 3 88.67 8.73
-7 -1 -3 221.08 13.86
-7 -1 -3 222.07 9.26
-7 -1 -3 234.33 9.24
7 1 3 222.92 14.21
7 1 3 220.98 10.95
-8 -1 -3 309.1 13.42
-8 -1 -3 306.82 11.52
-8 -1 -3 328.9 19.17
8 1 3 321.43 14.09
8 1 3 343.52 18.96
-9 -1 -3 750.79 21.53
-9 -1 -3 758.31 31.98
9 1 3 762.98 31.63
9 1 3 744.73 25
-10 -1 -3 21.11 4.68
-10 -1 -3 26.1 9.37
10 1 3 15.01 9.47
10 1 3 24.84 6.57
-11 -1 -3 92.82 11.15
-11 -1 -3 105.06 16.8
11 1 3 83.03 15.75
11 1 3 91.73 11.89
8 -2 -3 136.67 11.48
8 -2 -3 149.54 15.88
-8 2 3 115.35 10.06
-8 2 3 128.3 16.49
7 -2 -3 35.43 9.28
7 -2 -3 52.09 7.78
-7 2 3 41.08 7.07
6 -2 -3 340.39 15.35
6 -2 -3 331.86 19.55
-6 2 3 365.65 14.38
5 -2 -3 398.73 19.46
5 -2 -3 402.73 15.67
-5 2 3 401.48 14.9
4 -2 -3 49.89 13.28
4 -2 -3 16.99 3.61
4 -2 -3 20.32 4.66
-4 2 3 13.66 4.36
3 -2 -3 215 10.13
3 -2 -3 189.59 8.7
3 -2 -3 210.83 11.23
-3 2 3 190.21 11.02
-3 2 3 205.85 10.96
2 -2 -3 1444.61 36.68
2 -2 -3 1431.92 34.97
2 -2 -3 1482.56 36.42
-2 2 3 1441.6 35.8
-2 2 3 1454.61 35.11
-2 2 3 1392.65 36.33
1 -2 -3 110.07 6.22
1 -2 -3 115.88 6.69
1 -2 -3 111.33 6.41
-1 2 3 121.51 6.43
-1 2 3 123.16 6.75
0 -2 -3 2233.04 50.74
0 -2 -3 2195.36 50.25
0 -2 -3 2163.32 48.98
0 2 3 2136.48 48.98
0 2 3 2210.11 50.69
0 2 3 2230.58 50.36
-1 -2 -3 1754.73 39.65
-1 -2 -3 1835.48 42.4
-1 -2 -3 1808.09 42.05
1 2 3 1838.52 42.42
1 2 3 1814.62 39.93
1 2 3 1839.02 42.13
-3 -2 -3 2066.59 48.08
-3 -2 -3 2107.34 48.11
-3 -2 -3 2078.49 47.64
-3 -2 -3 2053.76 47.7
-3 -2 -3 2084.94 47.81
3 2 3 2078.14 47.65
3 2 3 2090.33 48.2
3 2 3 2115.34 48.09
3 2 3 2041.86 47.64
-4 -2 -3 1451.07 34.78
-4 -2 -3 1438.89 36.33
-4 -2 -3 1466.34 36.12
-4 -2 -3 1400.65 35.01
-4 -2 -3 1415.92 35.19
4 2 3 1482.2 36.27
4 2 3 1500.7 35.36
4 2 3 1469.68 34.83
-5 -2 -3 45.09 4.47
-5 -2 -3 43.68 4.96
-5 -2 -3 40 7.33
-5 -2 -3 44.47 5.49
-5 -2 -3 46.98 4.44
5 2 3 46.15 4.78
5 2 3 49.23 7.49
5 2 3 40.11 4.47
-6 -2 -3 136.83 10.14
-6 -2 -3 142.49 7
-6 -2 -3 142.04 7.49
6 2 3 144.7 10.25
6 2 3 137.61 7.93
-7 -2 -3 300.22 16.14
-7 -2 -3 311.53 11.7
-7 -2 -3 310.57 12.79
7 2 3 301.44 12.37
7 2 3 303.9 15.91
-8 -2 -3 119.83 13.34
8 2 3 141.09 12.52
8 2 3 129.3 10.86
-9 -2 -3 379.09 21.98
-9 -2 -3 357.99 14.51
9 2 3 372.08 21.44
9 2 3 360.76 15.86
-10 -2 -3 79.1 8.32
-10 -2 -3 75.97 14.61
10 2 3 68.52 12.55
10 2 3 66.14 9.36
-11 -2 -3 38.84 6.35
-11 -2 -3 52.84 11.81
11 2 3 47.43 11.28
11 2 3 59.87 9.21
8 -3 -3 33.7 7.13
8 -3 -3 27.49 9.5
-8 3 3 27.13 10.03
7 -3 -3 65.18 13.05
7 -3 -3 74.82 10.35
-7 3 3 73.97 13.3
-7 3 3 73.09 7.38
6 -3 -3 31.37 6.55
6 -3 -3 19.71 8.6
-6 3 3 21.48 8.36
-6 3 3 24.09 5.03
5 -3 -3 66.03 6.15
5 -3 -3 67.34 8.65
5 -3 -3 71.07 11.29
-5 3 3 62.25 10.33
-5 3 3 74.1 7.6
4 -3 -3 1702.49 43.6
4 -3 -3 1706.96 56.58
4 -3 -3 1616.34 40.21
3 -3 -3 1.43 2.88
3 -3 -3 0.88 4.15
3 -3 -3 -1.2 3.67
-3 3 3 -0.09 3.15
2 -3 -3 2549.58 59.54
2 -3 -3 2550.48 59.71
2 -3 -3 2490.43 58.1
-2 3 3 2512.29 57.66
-2 3 3 2453.47 59.77
1 -3 -3 3994.52 89.64
1 -3 -3 4081.78 90.5
1 -3 -3 4135.54 91.13
-1 3 3 3971.84 90.89
-1 3 3 4055.69 89.64
-1 3 3 3971.9 89.62
0 -3 -3 1012.73 23.78
0 -3 -3 1080.83 28.61
0 -3 -3 990.63 25.41
0 3 3 1001.77 25.45
0 3 3 981.76 23.62
0 3 3 1008.74 26.52
-1 -3 -3 2625.16 59.22
-1 -3 -3 2567.56 58.52
1 3 3 2636.52 58.67
1 3 3 2476.72 58.93
-2 -3 -3 4787.41 108.46
-2 -3 -3 5063.84 108.85
2 3 3 5117.43 108.98
2 3 3 4765.19 108.36
-3 -3 -3 4428.34 97
-3 -3 -3 4536.17 102.53
-3 -3 -3 4337.74 95.69
-3 -3 -3 4457.93 97.09
3 3 3 4289.21 96.98
3 3 3 4295.84 96
3 3 3 4304.32 96.97
-4 -3 -3 6916.79 152.01
-4 -3 -3 6880.04 152.32
-4 -3 -3 6973.16 152.56
-4 -3 -3 7004.7 152.02
4 3 3 7082.64 152.81
-5 -3 -3 88.12 8.86
-5 -3 -3 94.13 6.18
-5 -3 -3 93.32 6.24
-5 -3 -3 93.14 6.85
-5 -3 -3 83.86 6.02
5 3 3 101.41 6.14
5 3 3 89.61 6.36
-6 -3 -3 272.97 10.47
-6 -3 -3 275.3 10.95
6 3 3 278.83 13.55
-7 -3 -3 189.17 9.59
-7 -3 -3 195.36 9.84
-7 -3 -3 214.21 10.97
7 3 3 183.93 12.29
7 3 3 204.75 9.96
-8 -3 -3 93.26 11.02
-8 -3 -3 133.46 9.07
8 3 3 132.44 9.22
8 3 3 130.24 12.65
-9 -3 -3 698.46 28.98
-9 -3 -3 720.35 22.74
9 3 3 707.97 29.04
9 3 3 688.31 25.43
-10 -3 -3 136.53 14.9
-10 -3 -3 148.97 10.55
-10 -3 -3 142.45 11.12
10 3 3 128.02 10.21
10 3 3 141.93 16.27
-11 -3 -3 19.12 5.44
-11 -3 -3 12.52 5.64
-11 -3 -3 11.43 8.31
11 3 3 21.1 5.8
11 3 3 20.66 9.41
7 -4 -3 1.25 5.64
7 -4 -3 -5.45 7.54
-7 4 3 11.36 8.66
6 -4 -3 81.8 13.62
6 -4 -3 83.68 6.29
6 -4 -3 86.77 10.45
-6 4 3 96.5 14.71
5 -4 -3 164.43 8.18
5 -4 -3 158.16 13.93
5 -4 -3 189.45 12.26
-5 4 3 163.65 14.55
4 -4 -3 15.98 6.53
4 -4 -3 10.37 3.54
4 -4 -3 12.98 5.58
-4 4 3 16.37 6.33
3 -4 -3 149.97 9.85
3 -4 -3 150.12 10.57
3 -4 -3 151.91 7.86
-3 4 3 160.71 10.92
-3 4 3 157.47 8.34
2 -4 -3 161.83 12.24
2 -4 -3 182.39 9.61
2 -4 -3 181.22 11.76
-2 4 3 176.37 9.77
-2 4 3 178.52 8.19
1 -4 -3 1301.89 34.09
1 -4 -3 1289.76 37.31
1 -4 -3 1331.29 32.43
-1 4 3 1320.86 32.53
-1 4 3 1312.31 32.19
-1 4 3 1308.53 32.27
0 -4 -3 50.7 5.62
0 -4 -3 49.07 7.14
0 4 3 46.71 3.42
0 4 3 48.85 3.85
0 4 3 40.14 5.58
0 4 3 40.06 4.73
-1 -4 -3 1402.08 37.36
1 4 3 1465.17 35.17
1 4 3 1466.1 35.87
-2 -4 -3 2477.62 57.56
-2 -4 -3 2530.29 57.8
2 4 3 2459.23 53.63
-4 -4 -3 798.43 22.23
-4 -4 -3 886.01 25.27
-4 -4 -3 867.32 23.51
-4 -4 -3 839.27 22.35
-4 -4 -3 836.19 22.63
4 4 3 822.22 22.39
4 4 3 820.2 22.49
4 4 3 830.21 23.12
-5 -4 -3 29.18 6.03
-5 -4 -3 21.62 3.77
-5 -4 -3 15.28 3.75
-5 -4 -3 21.99 4.02
5 4 3 15.33 3.52
-6 -4 -3 9.61 4.35
-6 -4 -3 6.98 3.22
-6 -4 -3 7.42 2.75
6 4 3 6.27 4.38
-7 -4 -3 21.04 4.23
-7 -4 -3 6.54 4.61
-7 -4 -3 32.96 4.48
7 4 3 17.26 6.16
-8 -4 -3 17.75 5.56
-8 -4 -3 34.44 5.37
8 4 3 36.32 5.45
8 4 3 30.82 8.15
-9 -4 -3 -0.78 4.46
-9 -4 -3 -1.82 4.4
9 4 3 8.25 4.46
9 4 3 0.32 7.02
-10 -4 -3 -2.98 4.47
-10 -4 -3 3.37 6.17
10 4 3 5.97 4.91
10 4 3 6.49 8.14
-11 -4 -3 142.54 10.57
-11 -4 -3 163.71 12.78
-11 -4 -3 169.11 17.16
11 4 3 155.28 9.91
11 4 3 153.35 15.94
7 -5 -3 29.19 7.9
-7 5 3 18.88 9.84
6 -5 -3 3.05 7.67
6 -5 -3 10.82 6.55
-6 5 3 11.2 8.09
5 -5 -3 30.63 7.15
5 -5 -3 21.61 4.72
5 -5 -3 12.93 7.78
-5 5 3 30.31 5.79
-5 5 3 16.54 8.06
4 -5 -3 533.87 21.24
4 -5 -3 497.79 15.67
4 -5 -3 538.41 20.85
-4 5 3 534.55 21.89
3 -5 -3 1.48 4.61
3 -5 -3 -6.28 2.8
-3 5 3 -0.11 4.85
2 -5 -3 1015.11 26.91
2 -5 -3 1081.69 30.57
-2 5 3 1023.95 28.49
1 -5 -3 402.06 13.29
1 -5 -3 378.02 18.06
-1 5 3 418.51 13.87
-1 5 3 398.62 13.1
0 -5 -3 72.83 5.71
0 -5 -3 64.75 7.29
0 5 3 60.74 8.21
0 5 3 78.9 5.56
0 5 3 67.98 4.39
-1 -5 -3 152.38 7.66
-1 -5 -3 133.32 8.49
1 5 3 143.24 5.46
1 5 3 141.09 7.45
-2 -5 -3 900.43 24.26
-2 -5 -3 897.79 24.5
-2 -5 -3 929.49 24.37
2 5 3 855.63 24.06
2 5 3 838.35 20.39
2 5 3 865.8 23.8
-3 -5 -3 58.48 5.22
-3 -5 -3 64.71 6
3 5 3 59.76 4.3
3 5 3 56.11 5.9
3 5 3 51.27 5.43
-4 -5 -3 384.71 14.61
-4 -5 -3 362.7 12.37
-4 -5 -3 367.87 13.64
-4 -5 -3 354.53 12.47
4 5 3 369.3 12.48
4 5 3 375.09 13.05
4 5 3 360.67 13.49
-5 -5 -3 1090.82 28.19
-5 -5 -3 1026.19 28.95
-5 -5 -3 1061.09 32.11
-5 -5 -3 1051.72 27.56
5 5 3 1088.13 30.07
-6 -5 -3 510.12 17.87
-6 -5 -3 490.54 15.56
6 5 3 526.61 18.98
-7 -5 -3 103.81 9.64
-7 -5 -3 137.93 7.29
7 5 3 122.55 10.86
-8 -5 -3 202.46 12.73
-8 -5 -3 240.14 9.79
-8 -5 -3 227.34 10.58
8 5 3 209.57 14.73
-9 -5 -3 51.28 7.75
-9 -5 -3 56.43 7.32
9 5 3 58.83 10.51
-10 -5 -3 11.22 6.03
-10 -5 -3 14.99 4.93
10 5 3 22.63 8.75
-11 -5 -3 22.62 7.23
11 5 3 29.78 9.84
6 -6 -3 6.56 6.6
5 -6 -3 51.41 9.15
-5 6 3 62.82 5.09
-5 6 3 39.57 10.05
4 -6 -3 24.87 4.02
4 -6 -3 32.6 7.04
-4 6 3 44.34 8.91
3 -6 -3 250.07 10.58
3 -6 -3 268.59 15.15
-3 6 3 276.85 15.76
-3 6 3 267.52 14.82
2 -6 -3 1218.92 32.09
2 -6 -3 1310.11 36.69
-2 6 3 1300.65 35.18
-2 6 3 1304.59 32.26
-2 6 3 1212.25 33.67
1 -6 -3 266.72 10.9
1 -6 -3 283.32 13.43
-1 6 3 279.49 11.02
-1 6 3 277 12.09
-1 6 3 267.55 10.7
0 -6 -3 335.98 13.95
0 6 3 322.29 10.83
0 6 3 334.46 12.25
0 6 3 339.27 15.03
-1 -6 -3 1321.92 34.23
-1 -6 -3 1288.46 33.01
-1 -6 -3 1230.78 29.87
1 6 3 1258.67 32.56
1 6 3 1283.27 30.37
1 6 3 1234.21 29.81
-2 -6 -3 417.63 14.52
-2 -6 -3 410.58 12.04
-2 -6 -3 411.65 14.94
2 6 3 417.95 14.55
2 6 3 392.94 11.55
-3 -6 -3 80.46 6.66
-3 -6 -3 74.79 6.48
-3 -6 -3 72.13 7.15
3 6 3 75.2 7.87
3 6 3 78.79 6.62
-4 -6 -3 226.5 11.14
-4 -6 -3 212.75 10.25
-4 -6 -3 229.86 10.34
4 6 3 220.41 9.53
4 6 3 217.03 9.67
4 6 3 207.77 10.74
-5 -6 -3 2.63 2.81
-5 -6 -3 6.47 4.36
-5 -6 -3 7.89 4.2
-5 -6 -3 5.18 3.89
5 6 3 1.84 4.58
5 6 3 9.01 3.38
-6 -6 -3 1.3 3.6
-6 -6 -3 8.54 2.88
6 6 3 -2.26 4.34
-7 -6 -3 120.71 6.85
-7 -6 -3 114 10.51
7 6 3 105.92 10.78
-8 -6 -3 17.54 6.52
-8 -6 -3 25.91 7.51
8 6 3 26.72 7.75
-9 -6 -3 55.78 7.28
-9 -6 -3 61.7 8.81
9 6 3 60.07 10.25
-10 -6 -3 176.74 9.92
-10 -6 -3 204.26 14.13
10 6 3 195.42 17.89
-11 -6 -3 2.37 5.79
11 6 3 6.33 7.44
6 -7 -3 6.07 6.31
5 -7 -3 44.71 9.26
5 -7 -3 42.73 4.84
-5 7 3 40.41 10.1
4 -7 -3 412.57 19.71
4 -7 -3 351.76 12.68
-4 7 3 393.3 20.04
3 -7 -3 153.07 8.7
3 -7 -3 179.93 8.88
3 -7 -3 182.81 13.81
-3 7 3 172.16 8.8
-3 7 3 171.68 15.81
2 -7 -3 593.87 22.96
2 -7 -3 608.33 18.58
-2 7 3 600.41 18.42
-2 7 3 597.57 21.88
1 -7 -3 110.18 11.25
1 -7 -3 125.56 8.35
-1 7 3 127.88 8.33
-1 7 3 132.87 11.73
0 -7 -3 133.34 10.42
0 -7 -3 150.47 9.12
0 7 3 157.99 9.92
0 7 3 148.32 7.81
0 7 3 150.16 9.03
-1 -7 -3 89.44 6.02
-1 -7 -3 101.83 9.39
-1 -7 -3 98.68 8.06
1 7 3 89 7.8
1 7 3 89.03 5.88
1 7 3 77.18 10.93
-2 -7 -3 1692.3 43.6
-2 -7 -3 1658.71 39.92
2 7 3 1675.32 45.39
-3 -7 -3 252.04 11.97
-3 -7 -3 244.39 11.96
-3 -7 -3 244.21 11.03
3 7 3 227.94 9.5
3 7 3 235.28 11.33
-4 -7 -3 178.11 10.74
-4 -7 -3 198.82 10.22
-4 -7 -3 176.05 10.81
4 7 3 179.81 9.22
-5 -7 -3 154.93 10.52
-5 -7 -3 129.71 10
-5 -7 -3 155.65 9.03
5 7 3 142.6 9.2
5 7 3 134.41 9.45
-6 -7 -3 17.15 5.76
-6 -7 -3 27.96 4.3
-6 -7 -3 24.83 4.84
6 7 3 25.47 6.13
-7 -7 -3 86.86 9.92
-7 -7 -3 114.48 6.86
-7 -7 -3 109.6 9.27
7 7 3 97.11 10.41
-8 -7 -3 25.7 7.13
8 7 3 29.63 7.98
-9 -7 -3 170.74 13.29
9 7 3 161.4 14.93
-10 -7 -3 8.63 6.43
10 7 3 14.27 7.83
5 -8 -3 11.58 7.74
-5 8 3 2.12 8.65
4 -8 -3 4.67 6.75
-4 8 3 0.45 7.48
3 -8 -3 262.6 16.1
3 -8 -3 276.68 11.46
-3 8 3 257.42 16.5
-3 8 3 275.64 11.18
2 -8 -3 322.74 13.08
-2 8 3 318.74 12.96
-2 8 3 316.67 16.71
1 -8 -3 10.46 5.97
1 -8 -3 16.73 6.9
-1 8 3 16.82 4.91
-1 8 3 10.33 6.44
0 -8 -3 246.58 14.08
0 -8 -3 267.66 12.62
0 8 3 250.64 12.52
0 8 3 247.33 13.03
0 8 3 245.1 10.77
-1 -8 -3 315.29 12.14
-1 -8 -3 336.49 14.41
-1 -8 -3 321.86 15.84
1 8 3 327.92 14.14
1 8 3 332.21 13.14
1 8 3 306.24 11.76
-2 -8 -3 218.67 12.2
-2 -8 -3 209.88 10.08
-2 -8 -3 222.04 12.96
2 8 3 226.96 10.28
2 8 3 224.62 12.09
-3 -8 -3 356.97 15.05
-3 -8 -3 345.16 14.09
-3 -8 -3 351.74 15.42
3 8 3 341.32 13
-4 -8 -3 841.23 26.62
-4 -8 -3 777.22 25.25
-4 -8 -3 878.63 25.68
-5 -8 -3 25.37 6.07
-5 -8 -3 31.33 5.75
5 8 3 24.29 5.79
-6 -8 -3 63.9 7.36
-6 -8 -3 50.14 8.16
6 8 3 52.82 12.26
-7 -8 -3 5.71 4.03
-7 -8 -3 15.24 3.72
-7 -8 -3 -8.3 5.83
7 8 3 5.29 5.98
-8 -8 -3 92.19 5.94
8 8 3 67.79 11.88
-9 -8 -3 4.48 5.6
-9 -8 -3 5.17 3.38
-10 -8 -3 76.97 12.04
10 8 3 86.07 14.19
4 -9 -3 155.53 15.32
-4 9 3 101.07 16.02
3 -9 -3 14.83 3.87
3 -9 -3 18.77 7.36
-3 9 3 2.55 7.95
2 -9 -3 17.65 6.97
2 -9 -3 17.21 4.99
1 -9 -3 40.29 9.15
1 -9 -3 34.98 6.04
-1 9 3 28.09 7.92
0 -9 -3 140.48 12.94
0 -9 -3 131.78 10.32
0 9 3 128.99 17.83
-1 -9 -3 -4.45 5.64
-1 -9 -3 0.08 4.6
1 9 3 -0.65 4.47
-2 -9 -3 732.33 24.77
-2 -9 -3 697.34 23.76
-2 -9 -3 698.71 27.82
2 9 3 679.54 21
-3 -9 -3 631.83 23.01
-3 -9 -3 685.18 23.82
-3 -9 -3 693.31 23.35
-4 -9 -3 -6.71 5.4
-4 -9 -3 1.83 5.3
-4 -9 -3 -3.33 4.78
4 9 3 8.61 4.44
-5 -9 -3 23.34 7.18
-5 -9 -3 27.73 7
5 9 3 32.04 6.42
-6 -9 -3 -2.79 6.75
-6 -9 -3 -3.05 4.27
6 9 3 4.95 5.17
-7 -9 -3 168.19 13.34
-7 -9 -3 176.45 9.82
7 9 3 192.66 13.75
-8 -9 -3 275.56 17.44
8 9 3 282.15 17.36
-9 -9 -3 23.57 7.43
9 9 3 36.91 9.53
3 -10 -3 42.84 10.43
-3 10 3 9.18 9.49
2 -10 -3 -0.75 6.3
2 -10 -3 -2.23 3.9
1 -10 -3 44.4 9.1
1 -10 -3 53.43 7.76
0 -10 -3 -2.5 4.54
0 -10 -3 1.48 5.78
0 10 3 -2.76 5.7
-1 -10 -3 34.14 5.62
-1 -10 -3 22.85 7.49
1 10 3 18.54 5.45
-2 -10 -3 72.4 9.63
-2 -10 -3 68.43 7.64
-2 -10 -3 65.48 10.88
-3 -10 -3 -3.83 5.52
-3 -10 -3 -6.26 4.13
-3 -10 -3 2.12 5.63
3 10 3 9.84 4.02
-4 -10 -3 398.18 27.96
-4 -10 -3 327.91 16.08
4 10 3 339.83 14.66
-5 -10 -3 -0.07 5.23
-5 -10 -3 -6.05 5.79
5 10 3 10.26 7.01
-6 -10 -3 114.51 11.99
-6 -10 -3 107.19 9.61
6 10 3 134.68 10.97
-7 -10 -3 239.03 16.17
-7 -10 -3 205.37 11.07
7 10 3 234.23 14.83
-8 -10 -3 6.92 7
8 10 3 15.55 6.42
-9 -10 -3 13.71 11.82
2 -11 -3 -2.47 4.2
1 -11 -3 13.03 5.71
1 -11 -3 16.87 7.35
-1 11 3 4.84 7.55
0 -11 -3 1.08 4.99
0 -11 -3 2.52 7
0 11 3 2.75 5.82
-1 -11 -3 219.48 14.36
-1 -11 -3 245.05 16.13
1 11 3 250.43 12.79
-2 -11 -3 1.01 7.34
-3 -11 -3 18.97 6.68
-3 -11 -3 21.23 6.93
-4 -11 -3 87.16 10.75
-4 -11 -3 63.38 10.21
4 11 3 116.96 10
-5 -11 -3 297.58 15.05
-5 -11 -3 292.3 18.06
5 11 3 345.49 15.3
-6 -11 -3 10.78 9.36
7 11 3 134.86 11.25
-8 -11 -3 5.7 10.72
0 -12 -3 33.48 8.65
0 -12 -3 22.79 7.74
-1 -12 -3 8.05 6.38
-1 -12 -3 14.27 7.13
-2 -12 -3 75.99 11.78
-2 -12 -3 80.64 11.71
-3 -12 -3 -6.88 6.18
-3 -12 -3 -1.13 6.2
-5 -12 -3 103.25 10.98
-5 -12 -3 92.26 12.08
-6 -12 -3 51.56 8.56
-6 -12 -3 25.45 9.54
1 11 -4 27.14 11.09
-1 -11 4 1.21 6.96
0 11 -4 43.38 12.54
0 -11 4 34.21 7.25
0 -11 4 24.12 7.77
-1 11 -4 38.58 13.45
1 -11 4 20.34 6.98
4 10 -4 28.93 8.67
-4 -10 4 -2.44 7.51
3 10 -4 78.91 14.33
2 10 -4 96.98 15.99
-2 -10 4 58.96 10.06
-2 -10 4 83.71 7.47
1 10 -4 10.23 9.77
-1 -10 4 8.76 7.43
-1 -10 4 -3.8 6.31
0 10 -4 53.23 12.8
0 -10 4 30.67 8.03
0 -10 4 42.4 7.46
-1 10 -4 125.8 19.39
1 -10 4 122.29 11.88
1 -10 4 135.63 16.98
-2 10 -4 23.22 12.86
2 -10 4 29.02 6.43
2 -10 4 39.31 9.09
-3 10 -4 -15.36 11.73
3 -10 4 6.81 4.73
3 -10 4 24.66 7.75
-4 10 -4 19.47 14.64
4 -10 4 40.66 8.96
5 9 -4 155.77 16.56
-5 -9 4 101.47 15.05
4 9 -4 40.88 9.87
-4 -9 4 26.16 8.46
3 9 -4 5.7 8.2
-3 -9 4 -1.87 6.25
2 9 -4 17.96 8.89
-2 -9 4 27.62 4.56
-2 -9 4 13.09 6.82
1 9 -4 6.68 9.44
-1 -9 4 7.32 7.04
0 9 -4 97.92 16.61
0 -9 4 69.91 9.17
0 -9 4 63.19 8.72
-1 9 -4 109.45 18.04
1 -9 4 106.27 10.5
1 -9 4 78.29 9.8
-2 9 -4 31.76 12.42
2 -9 4 34.19 6.19
2 -9 4 44.35 7.91
-3 9 -4 35.16 13.74
3 -9 4 38.53 5.81
3 -9 4 54.6 9.04
-4 9 -4 22.4 12.47
4 -9 4 48.64 9.49
4 -9 4 26.77 5.11
5 -9 4 145.64 14.31
6 8 -4 136.3 15.73
-6 -8 4 104.16 14.58
5 8 -4 23.07 9.17
-5 -8 4 9.27 7.01
4 8 -4 41.46 10.65
-4 -8 4 24.67 7.68
3 8 -4 11.58 8.26
-3 -8 4 3.78 6.32
2 8 -4 266.03 27.56
-2 -8 4 220.68 14.23
-2 -8 4 220.97 10.87
1 8 -4 341.89 21.6
-1 -8 4 313.56 16.44
-1 -8 4 314.17 13.63
0 8 -4 57.59 11.57
0 -8 4 63.74 8.45
0 -8 4 58.33 9.46
-1 8 -4 13.18 10.37
1 -8 4 3.79 4.82
1 -8 4 3.3 4.89
-2 8 -4 -5.29 9.57
2 -8 4 -2.62 4
2 -8 4 6.4 5.32
3 -8 4 29.07 7.38
3 -8 4 28.23 5.19
-4 8 -4 -4.17 10.69
4 -8 4 0.63 3.66
4 -8 4 0.83 5.86
-5 8 -4 98.14 17.56
5 -8 4 114.04 13.21
-6 8 -4 22.69 13.02
6 -8 4 40.98 8.93
-7 -7 4 42.79 13.68
6 7 -4 288.15 21.13
-6 -7 4 264.86 18.48
5 7 -4 9.2 8.11
-5 -7 4 -2.32 7.08
4 7 -4 2.14 7.54
-4 -7 4 3.48 6.86
3 7 -4 525.73 25.49
-3 -7 4 519.27 21.69
2 7 -4 1186.42 39.86
2 7 -4 1080.6 28.2
-2 -7 4 1205.25 35.1
-2 -7 4 1154.16 28.8
1 7 -4 -2.23 2.97
-1 -7 4 -2.72 3.57
-1 -7 4 -0.98 5.64
0 7 -4 253.18 18.17
0 -7 4 263.13 12.13
0 -7 4 261.26 13.61
-1 7 -4 -5.65 9.2
1 -7 4 -7.15 4.35
1 -7 4 -8.61 4.3
-2 7 -4 233 20.32
2 -7 4 226.83 12.91
2 -7 4 228.95 17.07
-3 7 -4 233.1 20.7
3 -7 4 238.41 11.03
3 -7 4 245.91 14.15
-4 7 -4 29.49 4.37
-4 7 -4 25.33 11.35
4 -7 4 29.94 7.24
4 -7 4 38.63 5.15
-5 7 -4 82.26 15.32
5 -7 4 99.32 4.51
5 -7 4 100.05 12.09
-6 7 -4 0.59 11.32
6 -7 4 20.1 7.32
-7 7 -4 12.27 12.52
7 -7 4 0.28 6.12
7 6 -4 382.22 24.15
-7 -6 4 352.92 20.51
6 6 -4 75.91 14.8
-6 -6 4 45.92 9.51
5 6 -4 445.25 23.5
-5 -6 4 455.67 21.24
4 6 -4 28.93 9.13
-4 -6 4 24.21 7.72
3 6 -4 73.08 13.22
-3 -6 4 82.8 10.95
2 6 -4 480.18 13.74
2 6 -4 476.8 23.24
2 6 -4 453.1 13.14
-2 -6 4 485.1 19.22
-2 -6 4 462.69 15.03
1 6 -4 2.75 7.8
-1 -6 4 2.88 5.19
-1 -6 4 5.64 3.45
0 6 -4 141.05 9.12
0 6 -4 165.98 14.52
0 -6 4 149.64 9.75
0 -6 4 138.42 8.9
-1 6 -4 -4.61 7.29
1 -6 4 -11.31 6.71
-2 6 -4 20.78 9.9
2 -6 4 17.8 4.77
2 -6 4 18.24 5.4
-3 6 -4 139.98 7.61
-3 6 -4 153.35 18.07
3 -6 4 148.99 11.42
3 -6 4 149.73 8.9
-4 6 -4 1641.58 41.12
-4 6 -4 1756.59 53.61
4 -6 4 1707.65 46.56
4 -6 4 1733.74 40.84
-5 6 -4 179.5 17.96
5 -6 4 203.25 14.07
5 -6 4 190.61 6.42
5 -6 4 190.37 7.14
-6 6 -4 -4.1 9.97
6 -6 4 8.81 6.71
-7 6 -4 -7.67 10.43
7 -6 4 1.11 6.64
-8 6 -4 9.54 12.04
8 -6 4 11.05 8.1
7 5 -4 397.92 23.88
-7 -5 4 372.14 20.64
6 5 -4 117.03 14.49
-6 -5 4 109.61 13.15
-5 -5 4 280.34 18.24
4 5 -4 597.2 26.2
-4 -5 4 585.71 22.23
3 5 -4 215.19 16.45
-3 -5 4 236.69 13.13
2 5 -4 1725.43 48.89
2 5 -4 1623.76 38.21
-2 -5 4 1714.89 44.47
1 5 -4 254.12 15.68
1 5 -4 230.3 8.59
-1 -5 4 253.27 12.61
-1 -5 4 247.12 9.5
0 5 -4 11.83 7.24
0 5 -4 6.07 2.77
0 -5 4 2.42 7.46
-1 5 -4 572.2 23.8
1 -5 4 563.57 18.02
1 -5 4 556.86 18.14
-2 5 -4 74.23 13.01
-2 5 -4 63.63 6.57
2 -5 4 58.09 6.58
2 -5 4 56.16 6.87
-3 5 -4 729.13 28.81
-3 5 -4 696.16 19.26
3 -5 4 690.72 22.72
-4 5 -4 336.51 21.22
-4 5 -4 312.09 10.35
4 -5 4 318.84 14.81
4 -5 4 321.42 11.12
-5 5 -4 608.06 27.49
-5 5 -4 576.54 14.74
5 -5 4 655.5 23.24
5 -5 4 581.9 14.96
-6 5 -4 99.22 16.23
6 -5 4 87.9 10.48
-7 5 -4 148.7 18.51
7 -5 4 131.83 12.57
-8 5 -4 302.04 24.04
8 -5 4 307.63 18.71
-9 5 -4 114.84 19.98
9 -5 4 116.4 12.97
8 4 -4 77.05 21.73
-8 -4 4 30.34 9.04
7 4 -4 153.45 15.82
-7 -4 4 175.01 14.9
6 4 -4 55.49 11.28
5 4 -4 1865.12 54.9
-5 -4 4 1814.1 49.54
4 4 -4 -1.33 6.1
-4 -4 4 6.53 6.06
3 4 -4 11.55 6.86
-3 -4 4 21.09 6.15
2 4 -4 1534.25 34.96
2 4 -4 1561.97 44.22
2 4 -4 1446.28 34.47
-2 -4 4 1554.81 40.36
1 4 -4 425.3 19.13
1 4 -4 428.8 12.69
1 4 -4 385.56 11.86
-1 -4 4 408.09 12.54
0 4 -4 312.65 16.17
0 4 -4 290.49 10.24
0 -4 4 296.05 10.87
0 -4 4 301.95 12.63
-1 4 -4 48.39 9.55
-1 4 -4 27.27 4.37
1 -4 4 27.98 4.85
1 -4 4 26.15 5.05
-2 4 -4 579.34 16.93
-2 4 -4 608.96 23.94
2 -4 4 582.62 18.49
-3 4 -4 524.78 15.17
-3 4 -4 530.6 22.83
3 -4 4 536.64 15.76
3 -4 4 504.94 17.92
-4 4 -4 1085.8 26.67
-4 4 -4 1165.01 37.34
4 -4 4 1077.31 31.32
4 -4 4 1130.89 27.29
-5 4 -4 817.09 19.55
-5 4 -4 855.66 31.43
5 -4 4 811.41 19.72
5 -4 4 836.8 26.69
-6 4 -4 286.51 18.93
6 -4 4 296.66 15.69
-7 4 -4 77.37 15.3
7 -4 4 85.75 11.37
-8 4 -4 62.97 13.27
8 -4 4 79.24 12.09
-9 4 -4 27.27 11.44
9 -4 4 29.51 7.94
10 -4 4 8.88 7.18
8 3 -4 13.33 8.7
-8 -3 4 3.89 7.58
7 3 -4 181.31 16.5
-7 -3 4 182.58 14.87
6 3 -4 479.92 24.56
-6 -3 4 437.27 20.11
5 3 -4 149.73 14.22
-5 -3 4 150.65 11.76
4 3 -4 94.71 12.33
-4 -3 4 86.36 10.26
3 3 -4 6.79 1.77
3 3 -4 3.41 5.2
3 3 -4 7.24 2.06
-3 -3 4 6.76 4.97
2 3 -4 3476.39 77.71
2 3 -4 3708.89 78.11
2 3 -4 3518.38 91.38
-2 -3 4 3510.41 86.68
1 3 -4 301.64 15.21
1 3 -4 292.16 9.36
1 3 -4 297.43 9.8
-1 -3 4 293.46 12.47
0 3 -4 0.35 1.94
0 3 -4 5.4 5.51
0 -3 4 -2.04 3.36
0 -3 4 -2.88 2.25
-1 3 -4 171.54 11.46
-1 3 -4 191.86 12.84
-1 3 -4 166.54 7.81
1 -3 4 167.63 7.89
1 -3 4 177.33 8.33
-2 3 -4 29.48 5.96
-2 3 -4 30.95 4.37
-2 3 -4 42.24 7.67
2 -3 4 33.22 4.75
2 -3 4 32.07 4.3
-3 3 -4 312.69 16.27
-3 3 -4 294.73 9.82
3 -3 4 293.17 12.09
3 -3 4 305.75 10.51
-4 3 -4 18.83 11.87
-4 3 -4 15.44 2.55
4 -3 4 15.67 2.9
4 -3 4 16.94 6.06
-5 3 -4 1148.84 25.98
-5 3 -4 1130.84 36.08
5 -3 4 1115.91 31.95
5 -3 4 1087.47 25.96
-6 3 -4 97.03 12.14
6 -3 4 88.18 9.82
-7 3 -4 518.72 24.62
7 -3 4 512.23 20.83
-8 3 -4 438.26 28.4
8 -3 4 423.01 23.5
-9 3 -4 11.98 10.18
9 -3 4 24.25 8.36
-10 3 -4 32.43 12.1
10 -3 4 35.26 8.83
8 2 -4 156.03 16.38
-8 -2 4 142.16 14.89
7 2 -4 32.71 10.04
-7 -2 4 20.11 7.42
6 2 -4 1191.85 29.5
-6 -2 4 1197.55 30
-6 -2 4 1296.99 37.03
5 2 -4 528.54 23.54
5 2 -4 546.05 14.81
-5 -2 4 525.32 15.18
-5 -2 4 553.08 20.56
4 2 -4 146.59 13.41
4 2 -4 166.65 6.8
4 2 -4 174.25 6.78
-4 -2 4 154.47 7.01
-4 -2 4 168.27 11.93
3 2 -4 722.64 18.56
3 2 -4 724.65 25.54
3 2 -4 715.62 22.03
-3 -2 4 757.11 22.96
-3 -2 4 724.45 18.61
2 2 -4 2515.15 57.2
2 2 -4 2484.8 58.7
2 2 -4 2663.51 64.36
-2 -2 4 2565.02 61.05
1 2 -4 3663.78 80.15
1 2 -4 3575.97 79.95
1 2 -4 3644.12 85.56
-1 -2 4 3594.83 82.81
0 2 -4 6376.83 136.6
0 2 -4 6352 141.06
0 2 -4 5950.22 137.37
0 2 -4 6184.13 136.25
0 -2 4 6421.4 138.26
0 -2 4 6314.71 136.45
0 -2 4 6224.34 141.49
-1 2 -4 2308.65 60.38
-1 2 -4 2229.25 52.69
-1 2 -4 2275.43 52.58
1 -2 4 2341.29 55.43
1 -2 4 2231.41 56.58
1 -2 4 2304.39 52.9
-2 2 -4 3952.2 93.28
-2 2 -4 4082.38 89.54
-2 2 -4 3998.8 88.41
2 -2 4 3900.06 91.75
2 -2 4 3857.19 92.52
2 -2 4 4120.86 89
-3 2 -4 592.48 16.3
-3 2 -4 596.78 18.17
-3 2 -4 631.02 22.12
3 -2 4 622.42 16.82
3 -2 4 598.88 18.51
3 -2 4 597.89 20.99
-4 2 -4 2250.12 57.93
-4 2 -4 2236.89 50.67
4 -2 4 2189.31 55.16
4 -2 4 2319.5 50.98
-5 2 -4 497.98 13.05
-5 2 -4 507.04 24.14
5 -2 4 448.76 19.96
5 -2 4 499.32 13.81
-6 2 -4 6.25 6.48
-6 2 -4 11.47 1.83
-6 2 -4 9.33 2.02
6 -2 4 10.21 1.93
6 -2 4 12.61 5.19
-7 2 -4 229.07 16.92
7 -2 4 223.42 13.46
-8 2 -4 15.64 8.04
8 -2 4 12.15 6.67
-9 2 -4 12.78 9.4
9 -2 4 9.52 8.17
-10 2 -4 24.72 9.89
10 -2 4 24.02 8.29
8 1 -4 15.58 7.95
-8 -1 4 -6.39 8.58
7 1 -4 119.34 7.64
7 1 -4 134.61 15.62
-7 -1 4 117.65 12.09
6 1 -4 1286.05 43.18
6 1 -4 1243.12 32.23
-6 -1 4 1324.7 37.52
-6 -1 4 1240.73 33.6
5 1 -4 345.16 19.28
-5 -1 4 339.29 16.64
-5 -1 4 318.7 12.22
4 1 -4 2838.34 72.6
4 1 -4 2916.38 65.11
-4 -1 4 2873.02 68.98
-4 -1 4 2824.58 65.37
3 1 -4 88.4 5.94
-3 -1 4 95.4 6.18
-3 -1 4 94.38 8.87
2 1 -4 686.86 18.17
2 1 -4 662.48 22.51
-2 -1 4 700.46 21.01
-2 -1 4 673.62 18.22
1 1 -4 2203.09 49.1
1 1 -4 2142.14 48.91
1 1 -4 2101.2 50.95
1 1 -4 2101.62 52.79
-1 -1 4 2172.52 51.2
-1 -1 4 2095.99 48.93
-1 -1 4 2126.02 53.18
0 1 -4 1094.47 26.72
0 1 -4 1061.27 26.44
0 1 -4 1044.26 27.35
0 1 -4 1090.28 29.79
-1 1 -4 58.15 8.17
-1 1 -4 56.96 4.41
-1 1 -4 59.95 4.84
-1 1 -4 57.17 7.76
1 -1 4 49.93 7.08
1 -1 4 52.98 5.5
1 -1 4 58.57 4.74
-2 1 -4 285.98 12.93
-2 1 -4 273.26 9.66
-2 1 -4 280.92 11.45
2 -1 4 290.45 10.17
2 -1 4 267.03 11.92
2 -1 4 286.2 10.45
-3 1 -4 5043.32 110.85
-3 1 -4 5075.52 112.61
3 -1 4 5040.2 114.7
3 -1 4 5101.52 111.04
-4 1 -4 9262.75 213.8
-4 1 -4 9999 214.67
-4 1 -4 9896.8 208.49
4 -1 4 9804.79 211.52
4 -1 4 9495.4 213.42
-5 1 -4 178.75 11.52
-5 1 -4 182.94 6.96
5 -1 4 168.6 9.25
5 -1 4 174.09 6.62
-6 1 -4 773.92 27.04
-6 1 -4 728.87 18.5
6 -1 4 709.29 19.97
6 -1 4 703.78 22.94
-7 1 -4 32.56 4
-7 1 -4 35.6 8.26
7 -1 4 38.09 6.82
-8 1 -4 19.73 8.59
-8 1 -4 14.11 2.3
-8 1 -4 15.85 2.66
8 -1 4 10.86 6.35
-9 1 -4 -6.61 7.6
9 -1 4 0.18 5.94
-10 1 -4 123.5 17.54
10 -1 4 123.29 12.88
-11 1 -4 38.25 13.64
11 -1 4 51.08 9.44
8 0 -4 92.49 7.79
8 0 -4 97.09 14.35
-8 0 4 59.39 9.18
7 0 -4 12.82 8.32
7 0 -4 14.39 4.11
-7 0 4 11.18 6.72
6 0 -4 370.97 20.78
6 0 -4 362.94 14.75
-6 0 4 361.92 17.31
5 0 -4 5.23 6.55
5 0 -4 10.93 3.91
-5 0 4 2.61 5.59
4 0 -4 1735.58 47.57
4 0 -4 1691.65 41.52
-4 0 4 1701.24 46.99
-4 0 4 1669.54 41.75
3 0 -4 2968.4 74.28
3 0 -4 3146.43 71.8
-3 0 4 3078.28 71.98
-3 0 4 3062.78 70.53
2 0 -4 1541.81 40.69
2 0 -4 1575.46 37.4
-2 0 4 1569.54 39.24
-2 0 4 1509.94 41.13
-2 0 4 1561 37.5
1 0 -4 7792.35 170.68
-1 0 4 7839.66 171.09
-1 0 4 7649.31 175.53
-1 0 4 7992.71 169.83
0 0 -4 899.69 22.81
0 0 -4 857.19 23.14
0 0 -4 880.21 22.56
0 0 -4 879.55 24.37
0 0 4 872.01 25.63
0 0 4 892.35 24.77
0 0 4 867.41 22.64
-1 0 -4 1220.85 30.73
-1 0 -4 1243.21 30.36
-1 0 -4 1233.99 30.2
-1 0 -4 1230.82 31.59
1 0 4 1243.79 30.62
1 0 4 1193.71 30.14
1 0 4 1233.29 32.12
-2 0 -4 8295.9 180.38
-2 0 -4 8347.13 180.89
2 0 4 8358.29 181.01
2 0 4 8329.11 180.52
-4 0 -4 2081.52 47.71
-4 0 -4 2069.55 51.14
-4 0 -4 2037.35 49.43
4 0 4 2057.87 51.14
4 0 4 2132.31 49.97
4 0 4 2073.92 47.61
-5 0 -4 11.92 2.63
-5 0 -4 9.56 4.35
5 0 4 4.75 3.56
5 0 4 10.14 2.57
-6 0 -4 1103.68 26.7
-6 0 -4 1054.2 26.62
-6 0 -4 1006.24 42.55
6 0 4 1111.03 30.34
6 0 4 1123.93 26.75
-7 0 -4 8.87 2.79
-7 0 -4 7.81 2.61
-7 0 -4 7.59 6.54
7 0 4 -0.55 4.07
-8 0 -4 401.19 12.88
-8 0 -4 432.47 12.9
-8 0 -4 422.84 22.22
8 0 4 405.47 17.55
-9 0 -4 11.24 3.44
-9 0 -4 7.95 10.86
-9 0 -4 13.51 4.28
9 0 4 11.93 6.4
-10 0 -4 44.37 4.88
-10 0 -4 55.57 13.03
10 0 4 37.06 8.23
-11 0 -4 1.38 9.03
11 0 4 9.46 6.31
8 -1 -4 5.36 7.43
-8 1 4 2.68 5.77
7 -1 -4 9.71 8.09
7 -1 -4 9.53 4.72
-7 1 4 8.08 5.87
6 -1 -4 169.55 15.43
6 -1 -4 180.78 10.85
-6 1 4 170.09 12.27
5 -1 -4 11.93 5.48
5 -1 -4 6.97 6.77
-5 1 4 3.2 5.34
4 -1 -4 2144.86 51.87
4 -1 -4 2066.36 55.94
-4 1 4 2185.9 53.03
3 -1 -4 291.94 14.1
3 -1 -4 295.31 11.74
-3 1 4 290.23 12.88
-3 1 4 292.86 12.97
2 -1 -4 777.49 28.05
2 -1 -4 802.42 24.15
2 -1 -4 857.25 25.3
-2 1 4 823.24 22.56
-2 1 4 822.32 23.24
-2 1 4 783.93 24.02
1 -1 -4 1394.74 33.31
1 -1 -4 1326.39 34
1 -1 -4 1346.68 33.55
-1 1 4 1346.27 36.13
-1 1 4 1261.96 38.7
-1 1 4 1342.57 34.23
0 -1 -4 3138.79 71.67
0 -1 -4 3117.28 71.37
0 -1 -4 3218.21 71.42
0 1 4 3134.02 71.41
0 1 4 3173.32 72.37
0 1 4 3147.77 71.78
-1 -1 -4 1330.46 32.59
-1 -1 -4 1343.88 33.22
-1 -1 -4 1355.29 32.91
-1 -1 -4 1335.47 32.81
1 1 4 1368.38 32.92
1 1 4 1277.48 32.57
1 1 4 1341.06 32.87
-2 -1 -4 2060.74 47.59
-2 -1 -4 2092.1 48.04
-2 -1 -4 2084.67 50.26
-2 -1 -4 2027.51 47.96
2 1 4 2038.19 47.54
2 1 4 2031.85 47.58
2 1 4 1985.98 47.81
-3 -1 -4 117.94 7.33
-3 -1 -4 107.82 10.75
-3 -1 -4 126.97 8.2
-3 -1 -4 120.77 7.25
3 1 4 112.55 6.5
3 1 4 113.1 6.4
3 1 4 105.29 6.67
-4 -1 -4 2555.85 59.98
-4 -1 -4 2564.09 58.77
-4 -1 -4 2545.77 59.54
-4 -1 -4 2432.67 57.18
4 1 4 2509.65 57.31
4 1 4 2467.73 59.32
-5 -1 -4 3741.47 88.85
-5 -1 -4 3748.63 85.25
-5 -1 -4 3962.24 90.12
-5 -1 -4 3903.55 89.73
5 1 4 3798.47 85.19
5 1 4 3827.92 87.38
-6 -1 -4 317.66 14.26
-6 -1 -4 328.23 11.14
-6 -1 -4 321.04 15.32
6 1 4 323.59 11.13
6 1 4 316.57 13.22
6 1 4 335.47 15.32
-7 -1 -4 86.69 9.93
-7 -1 -4 88.63 6
7 1 4 95.49 10.6
7 1 4 102.62 10.57
-8 -1 -4 -6.35 6.64
8 1 4 5.6 6.04
8 1 4 -2.67 4.89
-9 -1 -4 25.06 4.57
-9 -1 -4 27.61 9.95
9 1 4 28.17 8.76
9 1 4 28.66 7.14
-10 -1 -4 39.01 6.36
-10 -1 -4 33.4 10.19
10 1 4 37 10.98
10 1 4 35.51 7.64
-11 -1 -4 6.52 7.57
-11 -1 -4 5.35 3.81
11 1 4 6.93 7.47
11 1 4 7.12 9.16
7 -2 -4 12.11 5.37
7 -2 -4 5.79 7.38
-7 2 4 1.95 4.92
6 -2 -4 88.91 12.99
6 -2 -4 93.05 9.62
-6 2 4 81.89 9.78
5 -2 -4 596.13 20.48
5 -2 -4 581.69 24.61
-5 2 4 614.22 28.89
4 -2 -4 687.28 25.01
4 -2 -4 705.64 22.23
-4 2 4 700.54 22.14
3 -2 -4 216.29 12.25
3 -2 -4 210.47 10.51
-3 2 4 208.99 10.83
2 -2 -4 301.06 11.79
2 -2 -4 330.37 12.61
-2 2 4 317.18 12.41
-2 2 4 333.07 13.03
1 -2 -4 668.31 19.29
1 -2 -4 647.25 18.84
1 -2 -4 630.15 18.71
-1 2 4 633.96 18.74
-1 2 4 650 21.23
-1 2 4 651.89 19.11
0 -2 -4 36.52 4.09
0 -2 -4 33.66 4.54
0 2 4 39.99 6.6
0 2 4 43.23 4.8
0 2 4 51.31 5.33
-1 -2 -4 2233.1 62.59
-1 -2 -4 2619.55 56.99
-1 -2 -4 2759.61 59.66
1 2 4 2632.66 59.08
1 2 4 2434.34 65
1 2 4 2689.9 57.6
-2 -2 -4 579.76 17.05
-2 -2 -4 592.03 21.49
-2 -2 -4 573.11 15.41
2 2 4 562.6 16.48
2 2 4 587.49 22.24
2 2 4 561.73 14.96
-3 -2 -4 9715.58 211.11
3 2 4 9487.36 215.75
-4 -2 -4 677.02 19.42
-4 -2 -4 669.62 19.35
-4 -2 -4 673.72 19.37
-4 -2 -4 723.55 20.25
4 2 4 675.33 19.18
-5 -2 -4 2682.35 64.23
-5 -2 -4 2662.41 63.27
-5 -2 -4 2730.14 63.21
-5 -2 -4 2668.3 62.09
5 2 4 2777.25 63.46
-6 -2 -4 35.62 4.65
-6 -2 -4 30.56 6.06
-6 -2 -4 24.72 4.71
-6 -2 -4 26.59 4.21
6 2 4 29.14 4.18
6 2 4 28.36 4.9
6 2 4 32.34 5.9
-7 -2 -4 167.4 12.56
-7 -2 -4 168.86 8.46
7 2 4 165.21 12.25
7 2 4 153.18 9.59
-8 -2 -4 381.89 20.08
-8 -2 -4 381.66 14.8
8 2 4 421.22 20.5
8 2 4 414.08 16.54
-9 -2 -4 701.89 29.8
-9 -2 -4 713.33 21.44
9 2 4 669.83 23.48
9 2 4 693.59 29.06
-10 -2 -4 1.26 8.03
-10 -2 -4 8.2 4.34
10 2 4 1.39 5.28
10 2 4 5.34 8.25
-11 -2 -4 39.94 11.1
-11 -2 -4 29.55 5.66
11 2 4 36.5 7.26
11 2 4 36.68 11.63
7 -3 -4 2.42 5.33
7 -3 -4 7.43 7.87
-7 3 4 4.65 7.54
-7 3 4 2.49 4.51
6 -3 -4 274.7 15.24
6 -3 -4 298.28 18.79
-6 3 4 289.74 14.01
-6 3 4 276.62 18.92
5 -3 -4 38.07 8.44
5 -3 -4 32.87 6.49
-5 3 4 31.99 6.17
4 -3 -4 561.7 22.38
4 -3 -4 553.73 20.13
-4 3 4 569.71 18.89
3 -3 -4 21.19 5.59
3 -3 -4 24.71 5.99
-3 3 4 14.93 4.76
2 -3 -4 458.43 16.14
2 -3 -4 423.3 14.46
-2 3 4 442.46 15.09
-2 3 4 422.6 15.28
1 -3 -4 696.22 19.42
1 -3 -4 670.28 19.62
1 -3 -4 689.41 20.54
-1 3 4 696.87 19.89
-1 3 4 645.3 18.99
0 -3 -4 2366.68 55.87
0 -3 -4 2390.52 53.98
0 -3 -4 2483.61 56.94
0 3 4 2348.8 53.93
0 3 4 2405.78 56.75
-1 -3 -4 7502.82 166.26
-1 -3 -4 7691 167.6
1 3 4 7679.68 167.06
-2 -3 -4 572.57 16.98
-2 -3 -4 592.88 13.65
2 3 4 599.16 17.79
-3 -3 -4 45.88 3.66
-3 -3 -4 52.23 4.85
-3 -3 -4 58.48 4.25
-3 -3 -4 51.39 5.38
3 3 4 50.54 5.15
3 3 4 69.22 8.45
-4 -3 -4 3218.84 73.06
-4 -3 -4 3235.58 72.76
-4 -3 -4 3250.19 73.75
-4 -3 -4 3181.55 73.42
4 3 4 3190.62 75.13
4 3 4 3193.36 72.76
4 3 4 3273.26 73.48
-5 -3 -4 2658.21 63.02
-5 -3 -4 2783.81 65.15
-5 -3 -4 2610.01 62.77
-5 -3 -4 2528.81 70.53
-5 -3 -4 2800.21 63.1
-5 -3 -4 2703.93 64.06
5 3 4 2789.7 63.2
5 3 4 2720.17 63.82
5 3 4 2703.1 62.73
-6 -3 -4 28.45 5.68
-6 -3 -4 37.97 5.29
-6 -3 -4 29.95 4.9
6 3 4 31.26 5.69
6 3 4 27.76 4.77
6 3 4 25.85 4.14
-7 -3 -4 380.5 14.3
-7 -3 -4 396.55 21.2
-7 -3 -4 375.15 15.14
7 3 4 393.13 18.36
7 3 4 388.09 14.8
-8 -3 -4 -5.75 7.81
8 3 4 7.53 7.01
-9 -3 -4 390.37 16.9
-9 -3 -4 404.42 21.25
-9 -3 -4 406.29 15.89
9 3 4 428.13 22.11
9 3 4 410.33 17.25
-10 -3 -4 227.88 18.3
-10 -3 -4 229.35 12.29
-10 -3 -4 219.58 12.77
10 3 4 239.4 18.41
10 3 4 225.41 13.34
-11 -3 -4 7.35 5.05
-11 -3 -4 10.11 5.93
-11 -3 -4 8.78 8.38
11 3 4 7.14 8.98
11 3 4 11.47 5.59
7 -4 -4 12.08 6.45
7 -4 -4 30.88 9.05
-7 4 4 21.36 11.26
6 -4 -4 36.23 8.11
6 -4 -4 48.58 11.14
-6 4 4 30.86 10.73
-6 4 4 27.07 5.61
5 -4 -4 721.72 28.11
5 -4 -4 722.52 25.37
-5 4 4 707.65 28.62
-5 4 4 755.72 22.49
4 -4 -4 2.32 5.6
4 -4 -4 1.26 5.28
-4 4 4 -1.18 3.97
-4 4 4 -7.35 5.57
3 -4 -4 40.8 8.16
3 -4 -4 40.22 6.93
-3 4 4 33.5 5.32
-3 4 4 41.31 7.19
2 -4 -4 10.94 4.11
2 -4 -4 9.31 5.11
-2 4 4 12.46 3.98
-2 4 4 18.02 3.93
1 -4 -4 264.16 10.45
1 -4 -4 285.83 14.45
1 -4 -4 255.85 10.76
-1 4 4 267.81 10.39
-1 4 4 250.24 9.88
-1 4 4 270.26 10.88
0 -4 -4 35.67 3.58
0 -4 -4 36.61 5.44
0 -4 -4 37.36 4.64
0 4 4 39.22 3.61
0 4 4 36.98 3.58
0 4 4 37.93 4.91
-1 -4 -4 157.66 7.82
-1 -4 -4 171.62 9.27
1 4 4 157.16 8.19
-2 -4 -4 2415.9 58.35
-2 -4 -4 2601.1 59.22
2 4 4 2467.98 58.91
2 4 4 2529.49 58.52
-3 -4 -4 474.06 15.84
-3 -4 -4 467.51 14.07
-3 -4 -4 500.81 12.56
-3 -4 -4 542.12 21.99
3 4 4 477.45 15.45
3 4 4 488.12 15.91
-4 -4 -4 840.73 23.6
-4 -4 -4 873.46 23.98
-4 -4 -4 852.92 22.07
4 4 4 886.33 24.1
4 4 4 854.69 23.82
4 4 4 825.1 26.19
-5 -4 -4 153.96 8.23
-5 -4 -4 159.78 8.89
-5 -4 -4 159.97 8.22
-5 -4 -4 161.49 8.91
-5 -4 -4 159.12 8.84
5 4 4 161.39 8.66
5 4 4 160.11 8.82
-6 -4 -4 280.62 11.6
-6 -4 -4 277.6 11.97
-6 -4 -4 266.53 14.2
6 4 4 275.8 12.78
6 4 4 274.29 12.15
-7 -4 -4 1621.3 56.12
-7 -4 -4 1529.17 40.28
-7 -4 -4 1494.41 39.48
-8 -4 -4 328.82 18.65
-8 -4 -4 358.9 14.73
-8 -4 -4 347.18 15.19
8 4 4 339.49 17.97
8 4 4 372.33 14.88
-9 -4 -4 681.59 22.39
-9 -4 -4 631.7 22.22
-9 -4 -4 667.82 27.78
9 4 4 619.13 21.66
9 4 4 656.65 26.96
-10 -4 -4 13.94 5.43
-10 -4 -4 19.57 8.13
-10 -4 -4 20.99 6.13
10 4 4 15.38 5.59
10 4 4 18.09 8.79
-11 -4 -4 8.6 8.08
-11 -4 -4 3.84 5.37
-11 -4 -4 14.67 5.84
11 4 4 14.04 5.78
11 4 4 17.05 9.27
6 -5 -4 80.11 17.02
6 -5 -4 109.03 12.58
-6 5 4 97.98 7.49
-6 5 4 106.77 17.34
5 -5 -4 34.64 8.37
5 -5 -4 15.55 6.61
-5 5 4 21.72 8.63
-5 5 4 20.83 4.51
4 -5 -4 58.85 8.74
4 -5 -4 52.65 10.23
-4 5 4 48.54 8.84
-4 5 4 59.59 7.15
3 -5 -4 167.26 11.42
3 -5 -4 157.97 12.13
-3 5 4 158.88 11.67
-3 5 4 160.62 9.27
2 -5 -4 -2.05 4.86
-2 5 4 3 3.55
-2 5 4 5.75 3.44
-2 5 4 2.47 4.86
1 -5 -4 15.94 5.54
-1 5 4 19.52 3.72
-1 5 4 23.86 4.43
-1 5 4 19.99 4.09
0 -5 -4 185.51 12.99
0 5 4 183.28 6.76
0 5 4 197.46 7.38
0 5 4 180.79 9.09
-1 -5 -4 67.56 6.93
1 5 4 70.65 6.38
-2 -5 -4 2089.17 50.28
2 5 4 2022.5 49.48
-3 -5 -4 603.34 18.79
3 5 4 565.69 13.87
3 5 4 590.33 18.48
-4 -5 -4 4259.76 97.6
-4 -5 -4 4603.62 101.31
-4 -5 -4 4478.42 100.23
4 5 4 4310.44 101.82
4 5 4 4351.51 100.6
4 5 4 4647.92 103.83
-5 -5 -4 1553.16 43.49
-5 -5 -4 1601.87 39.51
-5 -5 -4 1515.49 38.69
5 5 4 1582.3 39.15
5 5 4 1571.71 43.13
5 5 4 1557.58 39.91
-6 -5 -4 331.6 14.01
-6 -5 -4 337.81 13.24
-6 -5 -4 319.15 13.5
6 5 4 337.72 14
6 5 4 320.51 13.86
-7 -5 -4 4.84 4.16
7 5 4 -0.71 5.38
-8 -5 -4 275.02 14.44
-8 -5 -4 312.92 13.51
8 5 4 289.62 17.25
-9 -5 -4 990.43 36.51
-9 -5 -4 1080.3 31.88
9 5 4 1054.16 35.63
-10 -5 -4 121.5 10.03
-10 -5 -4 126.88 11.14
-10 -5 -4 152.46 15.34
10 5 4 136.41 14.76
-11 -5 -4 32.79 10.14
-11 -5 -4 26.77 6.43
-11 -5 -4 36.07 8.9
11 5 4 28.23 9.83
6 -6 -4 23.9 7.53
-6 6 4 22.68 9.53
5 -6 -4 2.18 6.03
-5 6 4 4.03 7.16
-5 6 4 6.06 3.52
4 -6 -4 2.34 5.97
-4 6 4 -1.46 3.41
-4 6 4 -3.84 5.78
3 -6 -4 3.98 6.06
-3 6 4 6.17 3.92
-3 6 4 -3.35 5.05
2 -6 -4 -0.55 5.57
-2 6 4 1.76 3.65
-2 6 4 1.57 4.47
1 -6 -4 -6.67 5.06
-1 6 4 2.93 3.59
-1 6 4 1.7 3.51
-1 6 4 5.12 2.89
0 -6 -4 54.28 8.67
0 6 4 57.93 6.54
0 6 4 70.87 5.86
0 6 4 64.9 4.51
-1 -6 -4 232.77 12.3
1 6 4 225 10.68
-2 -6 -4 13.09 5.43
2 6 4 12.13 4.23
-3 -6 -4 80.87 8.31
-3 -6 -4 82.78 8.59
3 6 4 75.76 11.08
3 6 4 80.29 3.59
-4 -6 -4 74.68 8
-4 -6 -4 81.94 8.27
-4 -6 -4 74.05 6.35
4 6 4 72.18 7.91
-5 -6 -4 965.75 26.43
-5 -6 -4 900.33 25.38
-5 -6 -4 975.98 28.09
5 6 4 907.56 25.4
5 6 4 910.31 27.22
-6 -6 -4 62.77 7.11
-6 -6 -4 62.29 7.5
-6 -6 -4 75.09 8.23
6 6 4 52.15 7.32
6 6 4 49.22 7.24
-7 -6 -4 10.82 4.71
-7 -6 -4 -3.44 4.96
7 6 4 2.71 8.34
-8 -6 -4 138.04 10.12
-8 -6 -4 139.08 11.67
8 6 4 142.42 12.78
-9 -6 -4 198.74 13.24
-9 -6 -4 195.5 11.39
9 6 4 206.98 16.65
-10 -6 -4 19.19 6.67
10 6 4 15.83 7.93
-11 -6 -4 1.6 5.51
-11 -6 -4 -3.94 4.76
-11 -6 -4 13.24 7.9
11 6 4 7.79 7.84
5 -7 -4 6.72 6.68
-5 7 4 -7.72 7.33
4 -7 -4 -2.84 6.24
-4 7 4 9.29 3.66
-4 7 4 -0.31 6.25
3 -7 -4 40.04 8.26
-3 7 4 57.48 7.25
-3 7 4 53.85 9.91
2 -7 -4 249.78 15.71
-2 7 4 248.14 11.59
-2 7 4 247.94 13.46
-2 7 4 277.75 13.32
1 -7 -4 1.04 5.54
-1 7 4 12.89 5.26
-1 7 4 14.13 4.61
0 -7 -4 828.92 26.77
0 7 4 782.87 20.83
-1 -7 -4 131.36 11.22
-1 -7 -4 147.49 9.71
1 7 4 147.01 5.96
1 7 4 163.76 9.67
-2 -7 -4 224.96 12.4
-2 -7 -4 198.7 11.31
2 7 4 210.18 11.21
-3 -7 -4 123.27 9.11
-3 -7 -4 116.91 5.59
-3 -7 -4 117.19 9.7
3 7 4 109.13 5.05
3 7 4 118.11 9.2
-4 -7 -4 981.58 26.78
-4 -7 -4 1085.69 32.63
-4 -7 -4 1062.85 30.75
4 7 4 1036.08 30.21
4 7 4 1004.77 27.22
-5 -7 -4 64.33 8.41
-5 -7 -4 69.26 8.49
-5 -7 -4 62.04 7.83
5 7 4 60.07 8.25
5 7 4 64.95 6.87
-6 -7 -4 81.33 8.52
-6 -7 -4 70.84 8.35
6 7 4 56.22 8.23
-7 -7 -4 30.75 5.9
-7 -7 -4 25.85 7.01
7 7 4 42.06 12.65
-8 -7 -4 1319.56 35.28
-8 -7 -4 1367.4 39.72
8 7 4 1320.74 40.03
-9 -7 -4 52.69 7.79
-9 -7 -4 62.28 10.25
9 7 4 66.05 11.72
-10 -7 -4 11.98 6.34
-10 -7 -4 6.38 4.82
10 7 4 18.13 8.2
-11 -7 -4 -0.06 5.74
11 7 4 20.6 8.08
4 -8 -4 -0.71 6.59
4 -8 -4 -0.01 3.58
-4 8 4 2.28 3.32
-4 8 4 -5.94 7.06
3 -8 -4 106.63 13.14
-3 8 4 88.63 12.15
2 -8 -4 203.83 10.72
2 -8 -4 198.5 15.29
-2 8 4 202.98 11.08
-2 8 4 183.25 13.44
1 -8 -4 4.72 6.9
1 -8 -4 12.09 4.6
-1 8 4 16.03 4.85
0 -8 -4 74.67 11.38
0 8 4 58.68 8.03
0 8 4 69.36 8.47
-1 -8 -4 1398.66 37.02
-1 -8 -4 1401.4 38.9
1 8 4 1337.8 36.33
1 8 4 1258 31.28
1 8 4 1302.88 31.78
-2 -8 -4 444.19 18.3
-2 -8 -4 447.56 17.59
2 8 4 394.28 11.88
2 8 4 398.35 11.38
2 8 4 435.27 16.93
-3 -8 -4 3.21 5.48
-3 -8 -4 -4.49 4.8
-3 -8 -4 -1.73 2.84
3 8 4 1.87 4.8
3 8 4 2.11 2.55
-4 -8 -4 265.73 13.76
-4 -8 -4 258.45 14.22
-4 -8 -4 249.43 11.3
4 8 4 254.91 13.34
4 8 4 249.44 10.16
-5 -8 -4 276.13 13.49
-5 -8 -4 296.48 15.23
5 8 4 264.98 12.5
-6 -8 -4 274.05 15.16
6 8 4 254.72 12.95
-7 -8 -4 30.91 6.63
-7 -8 -4 32.81 8.06
7 8 4 49.99 9.76
-8 -8 -4 130.2 10.16
-8 -8 -4 154.18 13.38
8 8 4 154.41 13.28
-9 -8 -4 29.08 5.59
-9 -8 -4 35.52 8.26
9 8 4 35.78 8.51
-10 -8 -4 253.79 16.61
-10 -8 -4 208 13.88
10 8 4 280.74 19.01
-4 9 4 53.41 11.59
3 -9 -4 31.86 5.41
3 -9 -4 28.17 7.99
-3 9 4 11.43 8
-3 9 4 25.81 4.92
2 -9 -4 59.95 8.01
2 -9 -4 54.41 9.97
-2 9 4 33.91 8.5
-2 9 4 52.12 7.97
1 -9 -4 2.94 7.09
1 -9 -4 -1.27 4.27
-1 9 4 2.15 4.66
-1 9 4 -7.68 6.66
0 -9 -4 80.64 9.66
0 9 4 68.85 9.15
0 9 4 59.86 8.23
-1 -9 -4 161.64 11.88
-1 -9 -4 149.76 13.45
1 9 4 160.12 6.84
1 9 4 136.12 11.21
-2 -9 -4 441.59 18.22
-2 -9 -4 448.86 19.37
2 9 4 438.15 17.78
2 9 4 399.61 15.97
2 9 4 405.05 12.34
-3 -9 -4 697.2 24.06
-3 -9 -4 698.76 24.38
-3 -9 -4 647.99 18.73
3 9 4 667.21 23.65
-4 -9 -4 9.28 5.72
-4 -9 -4 6 5.21
4 9 4 6.42 3.52
-5 -9 -4 67.15 9.53
-5 -9 -4 52.61 7.74
-5 -9 -4 63.93 9.46
-6 -9 -4 -8.61 4.8
-6 -9 -4 -5.02 9.25
6 9 4 4.93 4.36
-7 -9 -4 0.29 6.29
-7 -9 -4 -3.07 4.88
7 9 4 4.52 4.79
-8 -9 -4 88.71 12.46
-8 -9 -4 68.28 11.09
8 9 4 96.41 11.51
-9 -9 -4 39.56 8.5
-10 -9 -4 109.59 13.43
10 9 4 151.87 13.62
2 -10 -4 10.26 7.07
2 -10 -4 15.68 5.05
1 -10 -4 -0.47 6.12
1 -10 -4 -1.24 4.82
0 -10 -4 26.6 8.64
0 -10 -4 35.24 6.97
0 10 4 31.81 7.84
-1 -10 -4 36.51 8.76
-1 -10 -4 36.2 6.97
1 10 4 52.25 5.55
-2 -10 -4 208.33 15.49
-2 -10 -4 210.36 13.63
2 10 4 207.28 10.29
2 10 4 247.02 8.33
-3 -10 -4 7.03 5.91
-3 -10 -4 4.74 6.4
-3 -10 -4 0.72 2.93
-4 -10 -4 11.69 7
-4 -10 -4 8.24 6.45
-5 -10 -4 203.91 14.13
-5 -10 -4 206.96 13.33
5 10 4 249.79 11.36
-6 -10 -4 17.42 6.12
-6 -10 -4 15.07 7
-7 -10 -4 233.28 16.64
-7 -10 -4 227.56 13.02
7 10 4 275.46 14.1
-8 -10 -4 90.96 9.69
-8 -10 -4 105.86 13.32
-9 -10 -4 116.14 12.96
1 -11 -4 3.16 5.21
1 -11 -4 -1.14 6.44
0 -11 -4 1.83 5.28
0 -11 -4 0.25 6.34
-1 -11 -4 48.75 11.85
-1 -11 -4 68.17 10.92
-2 -11 -4 13.25 6.56
-3 -11 -4 22.99 9.32
-3 -11 -4 27.06 7.8
-4 -11 -4 -0.92 6.06
-4 -11 -4 -9.14 5.95
-5 -11 -4 0.4 6
-5 -11 -4 8.86 6.47
-6 -11 -4 35.87 8.79
-6 -11 -4 38.16 7.6
-7 -11 -4 56.52 10.03
-7 -11 -4 58.31 8.26
-1 -12 -4 -3.49 6.99
-1 -12 -4 -0.61 5.73
-2 -12 -4 -2.79 5.98
-2 -12 -4 4.72 7.06
-3 -12 -4 -6.01 6.3
-3 -12 -4 -3.39 5.85
-4 -12 -4 20.05 8.59
-4 -12 -4 38.9 8.53
-5 -12 -4 0.22 7.05
-6 -12 -4 96.06 11.21
-6 -12 -4 102.67 15.07
2 10 -5 14.84 9
-2 -10 5 2.55 7.77
1 10 -5 10.53 9.76
-1 -10 5 -1.61 6.5
0 10 -5 3.04 10.16
0 -10 5 4.96 5.3
0 -10 5 -7.75 6.05
-1 10 -5 -5.69 9.74
1 -10 5 15.45 6.97
1 -10 5 -3.47 5.34
-2 10 -5 19.33 12.92
2 -10 5 24.17 7.33
2 -10 5 16.21 6.35
-3 10 -5 9.35 13.33
3 -10 5 11.56 5.99
3 -10 5 31.9 7.98
4 9 -5 24.93 9.18
-4 -9 5 17.04 9.93
3 9 -5 138.78 16.53
-3 -9 5 88.2 13.73
2 9 -5 22.02 4.67
2 9 -5 23.86 9.77
-2 -9 5 8.44 7.82
1 9 -5 36.39 11.51
-1 -9 5 17.57 7.38
0 9 -5 131 16.67
0 -9 5 141.9 10.62
0 -9 5 125.92 14.98
-1 9 -5 35.44 12.56
1 -9 5 43.98 7.86
1 -9 5 35.42 7.34
-2 9 -5 -8.21 11
2 -9 5 2.85 5.6
2 -9 5 10.06 5.95
-3 9 -5 4.52 12.33
3 -9 5 11.97 5.44
3 -9 5 20.94 7.23
-4 9 -5 50.25 15.71
4 -9 5 95.95 13.12
4 -9 5 64.19 8.58
-5 9 -5 5.63 13.67
5 -9 5 19.83 7.93
5 8 -5 43.98 11.27
-5 -8 5 21.03 9.28
4 8 -5 15.79 8.42
-4 -8 5 7.16 7.05
3 8 -5 30.92 10.25
-3 -8 5 22.86 8.73
2 8 -5 21.25 9.81
-2 -8 5 7.79 7.4
-2 -8 5 11.37 3.44
1 8 -5 7.81 8.33
-1 -8 5 -2.84 3.87
0 8 -5 29.95 10.82
0 -8 5 22.82 5.86
0 -8 5 18.3 7.21
-1 8 -5 2.72 10.48
1 -8 5 -3.53 4.81
1 -8 5 2.4 5.41
-2 8 -5 -10.7 9.93
2 -8 5 -1.18 4.94
2 -8 5 -4.24 4.56
-3 8 -5 -6.72 9.82
3 -8 5 -3.35 4.09
3 -8 5 0.67 5.39
-4 8 -5 129.53 21.01
4 -8 5 135.22 9.73
4 -8 5 170.92 14.47
-5 8 -5 67.83 15.45
-6 8 -5 -5.28 12.81
6 -8 5 12.74 7.83
5 7 -5 10.99 7.83
-5 -7 5 5.04 7.12
4 7 -5 144.54 16.34
-4 -7 5 107.17 13.62
3 7 -5 264.4 18.65
-3 -7 5 240.17 15.6
2 7 -5 13.2 3.28
2 7 -5 0.88 14.52
2 7 -5 8.92 2.95
-2 -7 5 7.92 10.11
1 7 -5 95.23 15.28
1 7 -5 89.21 7.03
-1 -7 5 80.36 11.64
-1 -7 5 86.62 7.74
0 7 -5 -2.25 8.85
0 -7 5 -11.33 5.2
0 -7 5 -5.64 4.38
-1 7 -5 371.84 22.2
1 -7 5 354.4 16.04
1 -7 5 372.18 16.03
-2 7 -5 142.7 18.93
2 -7 5 166.64 11.28
2 -7 5 172.42 11.58
-3 7 -5 97.27 17.77
3 -7 5 103.49 10.61
3 -7 5 96.44 10.58
-4 7 -5 91.16 17.96
4 -7 5 98.96 8.37
4 -7 5 101.95 11.19
-5 7 -5 27.13 13.06
5 -7 5 31.16 8.22
5 -7 5 39.22 6.33
-6 7 -5 -0.92 11.37
6 -7 5 6.7 7.35
-7 7 -5 15.37 13.59
7 -7 5 22.03 8.19
6 6 -5 36.76 9.98
-6 -6 5 12.31 9.32
-5 -6 5 59.14 10
4 6 -5 47.82 10.99
-4 -6 5 41.3 8.32
3 6 -5 44.26 15.62
-3 -6 5 44.79 10.77
2 6 -5 86.89 13.06
2 6 -5 99.92 5.53
2 6 -5 100.58 6.13
-2 -6 5 111.42 10.98
1 6 -5 166.09 7.72
1 6 -5 153.83 16.63
-1 -6 5 151.62 12.8
0 6 -5 182.55 17.89
0 -6 5 210.45 10.87
0 -6 5 194.04 12.07
-1 6 -5 426.28 23.04
1 -6 5 454.27 17.56
1 -6 5 424.88 18.62
-2 6 -5 1259.02 43.43
2 -6 5 1275.57 34.8
2 -6 5 1281.78 35.8
-3 6 -5 437.47 24.58
3 -6 5 440.32 18.48
3 -6 5 457.01 16.53
-4 6 -5 254.48 13.05
-4 6 -5 291.5 22.47
4 -6 5 260.9 14.94
4 -6 5 282.13 12
-5 6 -5 101.52 19.89
-5 6 -5 84.07 6.59
5 -6 5 96.24 11.46
5 -6 5 104.25 6.44
-6 6 -5 5.17 11.22
6 -6 5 6.77 6.7
-7 6 -5 10.35 12.13
-8 6 -5 -8.32 10.96
8 -6 5 6.54 7.63
6 5 -5 43.76 10.57
-6 -5 5 29.61 9.63
5 5 -5 0.84 7.92
-5 -5 5 -3.65 6.15
4 5 -5 22.71 15.4
3 5 -5 719.29 29.48
-3 -5 5 704.42 25.14
2 5 -5 75.5 5.28
2 5 -5 73.36 4.41
2 5 -5 69.51 11.51
-2 -5 5 74.78 10.39
1 5 -5 24.43 4.18
1 5 -5 19.74 3.81
1 5 -5 12.09 8.8
-1 -5 5 20.39 3.99
-1 -5 5 17.7 6.07
0 5 -5 153 7.64
0 5 -5 156.68 15.73
0 -5 5 165.46 11.01
0 -5 5 166.23 9.14
-1 5 -5 61.08 10.74
1 -5 5 70.62 8.48
1 -5 5 69.6 7.61
-2 5 -5 5.16 8.09
2 -5 5 -2.63 4.28
2 -5 5 3.72 7.92
-3 5 -5 2752.02 75.18
3 -5 5 2949.01 66.58
3 -5 5 2762.47 68.5
-4 5 -5 443.5 24.98
-4 5 -5 406.52 13.62
4 -5 5 430.58 16.31
4 -5 5 408.74 18.09
-5 5 -5 37.19 4.56
-5 5 -5 65.48 12.76
5 -5 5 52.41 8.73
5 -5 5 45.7 5.52
-6 5 -5 255.89 20.63
6 -5 5 247.23 15.67
-7 5 -5 -8.35 9.88
7 -5 5 -11.35 5.81
-8 5 -5 -0.68 10.49
8 -5 5 5.64 7.31
-9 5 -5 61.43 14.72
7 4 -5 45.56 10.78
-7 -4 5 32.58 9.35
6 4 -5 15.42 8.66
-6 -4 5 4.89 7.43
5 4 -5 3.94 6.76
-5 -4 5 -1.95 6.73
4 4 -5 6.3 7.65
-4 -4 5 -1.52 5.83
3 4 -5 46.86 9.8
3 4 -5 45.62 3.47
3 4 -5 51.89 3.02
-3 -4 5 36.87 7.47
2 4 -5 30.49 3.53
2 4 -5 30.93 4.31
2 4 -5 31.74 8.13
-2 -4 5 25.6 6
1 4 -5 162.66 7.16
1 4 -5 185.19 8.25
1 4 -5 174.89 14.75
-1 -4 5 163.52 11.31
0 4 -5 223.1 16.02
0 4 -5 229.16 9.18
0 -4 5 238.04 12.22
-1 4 -5 500.42 22.55
-1 4 -5 504.54 17.88
1 -4 5 493.87 16.55
1 -4 5 488.58 17.39
-2 4 -5 149.63 14.95
2 -4 5 135.44 9.07
2 -4 5 134.21 9.24
-3 4 -5 1937.98 46.94
-3 4 -5 2001.86 56.04
3 -4 5 2016.03 47.77
3 -4 5 1918.67 50.07
-4 4 -5 793.06 21.31
-4 4 -5 797.3 31.08
4 -4 5 778.41 24.99
-5 4 -5 241.2 17.71
-5 4 -5 217.6 8.4
5 -4 5 233.24 13.68
5 -4 5 218.3 8.94
-6 4 -5 41.2 3.48
-6 4 -5 55.25 12.31
6 -4 5 45.45 4.23
6 -4 5 45.26 7.89
-7 4 -5 16.67 16.25
7 -4 5 -5 7.39
-8 4 -5 0.22 9.55
8 -4 5 4.79 7.3
-9 4 -5 5.96 10.2
9 -4 5 18.73 8.04
-10 4 -5 46.87 22.88
10 -4 5 73.01 18.26
7 3 -5 16.43 8.7
-7 -3 5 2.52 7.23
6 3 -5 11.02 8.64
-6 -3 5 -1.8 6.79
-5 -3 5 39.09 8.46
4 3 -5 158.6 6.56
4 3 -5 157.1 5.7
4 3 -5 158.24 15.15
-4 -3 5 127.54 11.89
3 3 -5 -3.56 6.16
3 3 -5 3.97 1.89
-3 -3 5 -6.85 5.14
2 3 -5 48.72 4.84
2 3 -5 58.76 4.41
2 3 -5 61.99 9.6
-2 -3 5 57.42 8.8
1 3 -5 128.36 11.76
1 3 -5 139.72 6.58
1 3 -5 150.01 7.31
-1 -3 5 143.74 9.8
0 3 -5 115.43 10.13
0 3 -5 107.75 18.6
0 3 -5 129.68 7.24
0 -3 5 127.45 7.19
0 -3 5 115.32 9.37
-1 3 -5 580.51 22.9
-1 3 -5 579.61 17.43
1 -3 5 587.61 18.69
1 -3 5 577.58 18.36
-2 3 -5 150.82 13.39
2 -3 5 138.53 8.97
2 -3 5 136.81 8.66
-3 3 -5 246.61 9.81
3 -3 5 256.53 11.86
3 -3 5 267.4 11.28
-4 3 -5 370.02 19.72
4 -3 5 362.68 15.2
4 -3 5 379.99 12.64
-5 3 -5 -8.21 6.64
-5 3 -5 -3.11 2.22
5 -3 5 2.56 2.79
5 -3 5 -4.07 4.19
-6 3 -5 251.68 8.22
-6 3 -5 265.92 18.45
6 -3 5 249.02 14.23
6 -3 5 228.81 11.08
-7 3 -5 193.87 17.68
7 -3 5 169.86 12.96
-8 3 -5 17.47 9.34
8 -3 5 24.78 10.14
-9 3 -5 94.77 17.04
9 -3 5 111.91 13.61
-10 3 -5 29.79 12.23
10 -3 5 33.27 9.12
7 2 -5 20.04 8.14
-7 -2 5 -12.69 6.86
6 2 -5 65.15 12.12
6 2 -5 80.79 4.98
5 2 -5 -4.44 7.04
-5 -2 5 0.12 5.83
-5 -2 5 -0.36 3.17
4 2 -5 334.41 10.89
4 2 -5 342.19 19.22
4 2 -5 321.68 10.77
-4 -2 5 321.32 16.84
-4 -2 5 318.93 11.09
3 2 -5 108.32 6
3 2 -5 102.29 11.55
3 2 -5 108.25 6.12
-3 -2 5 102.15 10.4
2 2 -5 1.25 2.77
2 2 -5 -7.06 4.98
2 2 -5 1.04 2.34
-2 -2 5 -5.24 4.52
1 2 -5 212.83 8.69
1 2 -5 182.71 12.11
1 2 -5 202.01 8.16
-1 -2 5 199.85 17.23
0 2 -5 439.74 18.6
0 2 -5 458.04 14.43
0 2 -5 459.49 15.77
0 -2 5 456.25 16.29
-1 2 -5 745.78 21.02
-1 2 -5 775.83 25.65
1 -2 5 756.5 22.14
-2 2 -5 691.35 20.17
-2 2 -5 701.37 24.6
-2 2 -5 663.61 19.51
2 -2 5 720.11 20.62
2 -2 5 715.21 20.66
-3 2 -5 211.04 8.85
-3 2 -5 214.49 14.14
3 -2 5 205.58 9.93
-4 2 -5 721.91 24.5
-4 2 -5 715.99 25.99
4 -2 5 720.78 22.56
4 -2 5 742.51 20.15
-5 2 -5 131.36 6.57
-5 2 -5 130.46 12.1
5 -2 5 133.04 6.59
5 -2 5 115.09 8.95
-6 2 -5 54.62 10.26
-6 2 -5 39.22 4.43
6 -2 5 40.19 4.17
6 -2 5 43.58 7.29
-7 2 -5 357.49 13.52
-7 2 -5 377.63 21.19
-7 2 -5 362.85 10.58
7 -2 5 365.38 17.45
-8 2 -5 44.46 10.46
8 -2 5 41.06 8.14
-9 2 -5 108.49 17.01
9 -2 5 123.66 13.33
-10 2 -5 42.61 11.63
10 -2 5 41.68 9.51
-11 2 -5 -3.37 8.48
7 1 -5 14.92 8.43
-7 -1 5 3.79 7.11
6 1 -5 11.48 3.51
6 1 -5 2.31 6.37
-6 -1 5 5.2 6.98
5 1 -5 12.22 3.71
5 1 -5 9.45 7.69
-5 -1 5 11.43 4.18
-5 -1 5 4.75 6.99
4 1 -5 46.23 8.7
4 1 -5 40.81 8.02
-4 -1 5 36.68 7.88
-4 -1 5 42.16 5.67
3 1 -5 8.33 5.75
3 1 -5 12.92 4.08
-3 -1 5 12.33 3.92
-3 -1 5 4.14 4.99
2 1 -5 54.69 6.15
2 1 -5 59.11 5.69
2 1 -5 43.33 11.94
-2 -1 5 57.9 8.56
-2 -1 5 49.6 6.98
1 1 -5 797.97 25.66
1 1 -5 806.29 21.86
1 1 -5 806.92 21.6
-1 -1 5 805.94 24.11
-1 -1 5 761.11 21.72
0 1 -5 797.34 26.66
0 1 -5 817.22 22
0 1 -5 802.37 24.96
0 -1 5 787.58 25.69
0 -1 5 796.23 23.28
-1 1 -5 501.94 18.33
-1 1 -5 483.49 15.27
1 -1 5 528.97 17.78
1 -1 5 485.92 18.62
1 -1 5 504.77 16.33
-2 1 -5 1358.45 34.25
-2 1 -5 1381.51 38.47
-2 1 -5 1402.17 34.77
-2 1 -5 1432.92 35.3
2 -1 5 1392.81 34.8
2 -1 5 1329.81 37.33
2 -1 5 1336.32 35.27
-3 1 -5 4991.04 115.81
-3 1 -5 4968.71 111.2
3 -1 5 4978.02 114.89
3 -1 5 5169.67 113.02
-4 1 -5 3787.94 92.08
-4 1 -5 3866.77 92.04
4 -1 5 3909.36 89.1
4 -1 5 3861.11 86.35
-5 1 -5 1368.68 39.95
-5 1 -5 1307.87 33.14
5 -1 5 1467.38 46.45
5 -1 5 1323.23 32.97
-6 1 -5 724.19 26.34
-6 1 -5 710.52 19.14
6 -1 5 689.62 18.76
6 -1 5 710 23.32
-7 1 -5 217.4 8.58
-7 1 -5 226.32 16.49
-7 1 -5 207.4 8.06
7 -1 5 213.26 13.11
7 -1 5 215.63 8.26
-8 1 -5 440.2 13.35
-8 1 -5 458.29 13.06
-8 1 -5 477.74 24.58
8 -1 5 461.42 20.23
-9 1 -5 598.21 28.4
-9 1 -5 556.46 15.07
9 -1 5 593.12 23.91
-10 1 -5 294.67 22.81
10 -1 5 304.96 18.05
-11 1 -5 -1.31 10
11 -1 5 5.82 6.69
7 0 -5 12.71 3.89
7 0 -5 17.93 7.55
-7 0 5 -5.52 11.67
6 0 -5 505.32 24.66
6 0 -5 491.86 17.36
-6 0 5 488.41 20.68
5 0 -5 3.61 7.27
5 0 -5 2.92 3.89
-5 0 5 -4.88 6.22
4 0 -5 20.08 4.57
4 0 -5 12.34 6.89
-4 0 5 9 5.95
3 0 -5 82.44 7.13
3 0 -5 61.25 9.48
-3 0 5 63.68 8.41
-3 0 5 70.61 6.96
2 0 -5 262.03 13.55
2 0 -5 283.49 11.43
-2 0 5 285.27 19.78
-2 0 5 269.65 10.92
1 0 -5 216.59 11.52
-1 0 5 231.37 9.53
-1 0 5 221.27 12.07
-1 0 5 217.4 10.73
0 0 -5 1411.9 35.07
0 0 5 1440.65 36.41
0 0 5 1406.88 35.26
0 0 5 1420.64 37.9
-1 0 -5 28.08 5.62
-1 0 -5 33.76 4.68
-1 0 -5 37.39 4.45
1 0 5 34.75 4.96
1 0 5 35.97 6.18
1 0 5 34.95 4.65
-2 0 -5 573.79 17.38
-2 0 -5 571.79 19.45
-2 0 -5 583.74 18.15
-2 0 -5 570.3 17.42
2 0 5 561.38 18.95
2 0 5 591.45 20.07
2 0 5 599.16 18.38
-3 0 -5 6653.03 144.31
-3 0 -5 6426.03 142.73
-3 0 -5 6649.44 146.1
-3 0 -5 6613.35 143.92
3 0 5 6687.57 144.22
3 0 5 6030.96 147.7
-4 0 -5 62.01 5.36
-4 0 -5 65.17 8.1
4 0 5 60.77 6.18
4 0 5 67.08 6.75
4 0 5 56.07 5.76
-5 0 -5 43.35 7.98
-5 0 -5 37.3 5.3
5 0 5 39.02 6.45
5 0 5 35.59 4.8
-6 0 -5 371.66 14.38
-6 0 -5 399.6 20.9
6 0 5 383.41 12.44
6 0 5 402.38 15.9
-7 0 -5 806.1 24.32
-7 0 -5 831.07 22.41
-7 0 -5 893.25 30.87
7 0 5 856.03 22.85
7 0 5 860.39 26.79
-8 0 -5 68.55 13.75
-8 0 -5 57.84 6.1
-8 0 -5 59.98 6.84
8 0 5 64.5 10.87
-9 0 -5 644.31 21.8
-9 0 -5 716.95 31.97
-9 0 -5 677.59 19.33
9 0 5 693.98 25.2
-10 0 -5 71.01 5.48
-10 0 -5 74.18 14.06
10 0 5 81.81 16.74
-11 0 -5 9.92 9.55
11 0 5 5.02 6.81
7 -1 -5 14.5 4.82
7 -1 -5 16.24 7.72
-7 1 5 11.36 6.67
6 -1 -5 123.83 14.28
6 -1 -5 97.47 8.96
-6 1 5 91.87 11.47
5 -1 -5 38.93 8.72
5 -1 -5 45.02 6.7
-5 1 5 32.77 7.6
4 -1 -5 217.16 14.55
-4 1 5 216.79 13.09
3 -1 -5 667.96 20.5
3 -1 -5 646.05 23.58
-3 1 5 658.92 22.19
2 -1 -5 5.48 3.76
2 -1 -5 1.4 4.08
-2 1 5 -1.99 4.58
1 -1 -5 71.76 6.58
1 -1 -5 54.85 8.15
-1 1 5 67.01 7.77
-1 1 5 61.87 7.35
-1 1 5 64.05 5.99
0 -1 -5 7.16 3.16
0 -1 -5 -4.21 2.84
0 1 5 0.49 2.41
0 1 5 1.28 3.93
-1 -1 -5 1716.01 42.73
-1 -1 -5 1776.29 42.73
-1 -1 -5 1750.26 43.3
-1 -1 -5 1701.99 42.37
1 1 5 1740.19 42.63
1 1 5 1829.27 43.11
1 1 5 1747.19 43.24
-2 -1 -5 2120.85 50.11
-2 -1 -5 2131.32 50.22
-2 -1 -5 2070.73 49.5
-2 -1 -5 2063.8 49.75
2 1 5 2087.71 49.89
2 1 5 1976.48 49.52
2 1 5 2142.01 49.95
-3 -1 -5 9375.12 197.74
-3 -1 -5 8697.27 197.04
-3 -1 -5 9003.59 196.42
3 1 5 8955.65 199.29
3 1 5 9162.79 197.28
3 1 5 9030.24 197.33
-4 -1 -5 626.4 20.19
-4 -1 -5 613.06 19.29
-4 -1 -5 605.33 17.84
4 1 5 606.59 18.99
-5 -1 -5 32.84 5.26
-5 -1 -5 29.37 4.81
-5 -1 -5 34.88 6.05
-5 -1 -5 28.61 5.17
5 1 5 24.22 6.11
5 1 5 35.64 6.05
-6 -1 -5 236.24 13.53
-6 -1 -5 221.1 9.45
6 1 5 230.5 9.49
6 1 5 243.8 18.15
-7 -1 -5 81.57 6.49
-7 -1 -5 87.65 6.52
-7 -1 -5 75.67 10.79
7 1 5 69.42 8.64
7 1 5 80.82 6.4
-8 -1 -5 4206.57 103.86
-8 -1 -5 4138.04 95.85
8 1 5 4175.13 98.22
-9 -1 -5 16.57 4.27
-9 -1 -5 10.03 9.28
9 1 5 14.61 6.13
-10 -1 -5 203.15 9.73
-10 -1 -5 171.82 18.43
10 1 5 212.19 14.3
-11 -1 -5 4.89 3.69
-11 -1 -5 -10.09 7.06
11 1 5 3.88 6.15
7 -2 -5 153.94 15.43
7 -2 -5 120.06 12.2
-7 2 5 111.52 11.79
6 -2 -5 152.41 11.32
6 -2 -5 142.51 15.6
-6 2 5 171.35 12.87
5 -2 -5 0.59 4.52
5 -2 -5 -0.95 5.96
-5 2 5 -3.02 4.91
4 -2 -5 521.38 22
4 -2 -5 539.74 19.54
-4 2 5 555.45 20.18
3 -2 -5 185.95 10.79
3 -2 -5 191.52 19.28
-3 2 5 160.7 11.06
2 -2 -5 96.86 8.11
2 -2 -5 88.15 8.42
-2 2 5 76.55 8.32
1 -2 -5 717.5 21.4
1 -2 -5 678.12 20.71
-1 2 5 679 21.11
-1 2 5 682.64 23.21
0 -2 -5 762.89 21.82
0 -2 -5 705.97 20.18
0 2 5 741.11 21.7
0 2 5 724.6 21.01
-1 -2 -5 139.42 8.82
-1 -2 -5 149.94 8.42
1 2 5 137.84 7.9
1 2 5 142.95 8.3
1 2 5 153.39 7.96
-2 -2 -5 26.74 4.18
-2 -2 -5 20.34 4.48
-2 -2 -5 20.22 4.88
-2 -2 -5 30.68 4.56
2 2 5 23.24 4.27
2 2 5 27.9 4.39
2 2 5 28.16 4.38
-3 -2 -5 339.93 12.74
-3 -2 -5 344.77 12.51
3 2 5 367.39 12.91
3 2 5 346.6 11.69
3 2 5 344.35 12.96
-4 -2 -5 1350.48 35.04
-4 -2 -5 1379.21 34.92
-4 -2 -5 1338.2 34
-4 -2 -5 1355.18 34.14
4 2 5 1357.98 34.03
4 2 5 1332.36 34.06
4 2 5 1350.88 34.87
-5 -2 -5 169.27 9.29
-5 -2 -5 185.54 9.87
-5 -2 -5 178.15 8.44
5 2 5 173.63 8.44
5 2 5 192.77 9.55
-6 -2 -5 2828.24 68.78
-6 -2 -5 2702.61 66.44
6 2 5 2767.32 64.66
6 2 5 2831.94 66.72
-7 -2 -5 114.35 9.6
-7 -2 -5 116.18 11.46
-7 -2 -5 120.67 8.1
7 2 5 118.98 9.79
7 2 5 112.89 7.93
-8 -2 -5 451.94 22.76
-8 -2 -5 421.87 19.14
-8 -2 -5 454.66 16.58
8 2 5 469.43 19.06
8 2 5 523.45 22.48
-9 -2 -5 223.81 17.46
-9 -2 -5 224.03 12.83
9 2 5 205.08 16.94
9 2 5 206.67 13.54
-10 -2 -5 73.59 14.26
-10 -2 -5 98.78 8.16
10 2 5 72.29 12.28
10 2 5 85.71 10.79
-11 -2 -5 237.06 19.44
-11 -2 -5 253.45 12.14
11 2 5 224.51 20.1
11 2 5 281.34 25.11
7 -3 -5 33.36 7
-7 3 5 29.24 8.99
-7 3 5 22.14 6
6 -3 -5 12.69 7.05
6 -3 -5 6.77 9.02
-6 3 5 2.56 5.09
5 -3 -5 8.57 7.26
5 -3 -5 8.04 5.35
-5 3 5 13.57 5.86
4 -3 -5 154.68 11.48
4 -3 -5 172.01 12.94
-4 3 5 152.57 10.93
3 -3 -5 338.03 18.61
3 -3 -5 331.38 15.01
-3 3 5 339.76 17.21
2 -3 -5 648.49 21.41
2 -3 -5 675.98 21.71
-2 3 5 646.4 20.86
-2 3 5 614.93 21.09
1 -3 -5 2054.24 50.79
1 -3 -5 1922.34 46.94
-1 3 5 1918.68 47.73
-1 3 5 1843.98 46.78
0 -3 -5 88.45 5.89
0 -3 -5 109.64 8.49
0 3 5 90.13 6.56
0 3 5 96.66 7.71
-1 -3 -5 2.4 3.29
-1 -3 -5 -1.04 1.79
1 3 5 1.75 3.22
1 3 5 2.27 2.75
-2 -3 -5 1354.7 34.29
-2 -3 -5 1270.25 29.98
2 3 5 1305.02 30.23
2 3 5 1321.58 33.8
-3 -3 -5 7430.68 160.4
-3 -3 -5 7363.6 163.95
-3 -3 -5 7624.62 161.11
3 3 5 7443.23 163.5
3 3 5 7340.72 160.44
-4 -3 -5 1282.33 32.13
-4 -3 -5 1330.87 34.41
-4 -3 -5 1330.42 32.91
4 3 5 1304.26 33.56
-5 -3 -5 357.54 13.83
-5 -3 -5 375.8 13.96
-5 -3 -5 335.54 14.83
5 3 5 335.69 12.87
-6 -3 -5 126.41 9.1
-6 -3 -5 143.02 8.41
-6 -3 -5 140.54 10.8
-6 -3 -5 143.01 10.14
6 3 5 130.11 9.44
6 3 5 142.89 9.51
6 3 5 138.18 8.3
-7 -3 -5 1565.01 47.91
-7 -3 -5 1577.72 48.99
-7 -3 -5 1636.13 42.18
7 3 5 1612.67 41.94
7 3 5 1576.67 47.9
7 3 5 1780.36 52.05
-8 -3 -5 7186.7 163.33
-8 -3 -5 7323.23 162.08
-8 -3 -5 7252.82 168.01
8 3 5 7366.77 163.34
8 3 5 7322.67 167.27
-9 -3 -5 68.21 12.98
-9 -3 -5 63.14 8.57
-9 -3 -5 87.31 10.5
9 3 5 83.87 10.02
9 3 5 86.08 13.31
-10 -3 -5 139 18.97
-10 -3 -5 140.27 11.49
-10 -3 -5 140.6 10.24
10 3 5 128.22 18.7
10 3 5 134 12.03
-11 -3 -5 20.75 9.09
-11 -3 -5 18.25 7.03
11 3 5 15.36 6.37
11 3 5 19.15 9.84
6 -4 -5 71.92 13.44
6 -4 -5 41.28 8.06
-6 4 5 45.72 10.58
-6 4 5 68.43 8.73
5 -4 -5 238.21 16.7
-5 4 5 232.05 17.08
-5 4 5 246.16 13.21
4 -4 -5 144.54 12.59
4 -4 -5 149.56 12.97
-4 4 5 153.12 10.96
-4 4 5 145.92 12.81
3 -4 -5 9.84 5.65
3 -4 -5 21.9 6.31
-3 4 5 13.59 5.3
2 -4 -5 116.62 10.15
2 -4 -5 110.68 9.05
-2 4 5 127.32 8.64
-2 4 5 109.97 9.21
1 -4 -5 221.35 12.2
1 -4 -5 209.71 10.17
-1 4 5 208.2 9.77
-1 4 5 212.44 10.9
0 -4 -5 1045.52 32.63
0 -4 -5 1032.93 25.58
0 4 5 1037.01 28.33
0 4 5 970.87 25.32
-1 -4 -5 2033.91 48.7
1 4 5 1870.59 43.3
1 4 5 1919.41 47.5
-2 -4 -5 643.93 20.49
2 4 5 646.29 19.82
-3 -4 -5 21.87 4.78
3 4 5 20.04 4.13
-4 -4 -5 2347.57 53.82
-4 -4 -5 2376.91 57.25
-4 -4 -5 2375.54 54.33
4 4 5 2414.52 57.06
-5 -4 -5 611.6 18.76
-5 -4 -5 595.27 18.09
-5 -4 -5 621.28 19.77
5 4 5 617.51 19.39
-6 -4 -5 56.55 7.24
-6 -4 -5 46.38 6.04
-6 -4 -5 46.82 6.9
-6 -4 -5 39.41 6.54
6 4 5 38.03 6.74
-7 -4 -5 196.52 13.64
-7 -4 -5 205.9 18.68
-7 -4 -5 197.43 11.73
7 4 5 186.68 11.53
7 4 5 215.41 12.9
-8 -4 -5 196.6 14.96
-8 -4 -5 174.46 13.4
-8 -4 -5 216.79 12.52
8 4 5 210.98 13.52
8 4 5 223.08 15.03
-9 -4 -5 -2.54 4.61
-9 -4 -5 -1.91 5.27
9 4 5 -9.12 6.29
9 4 5 -7.99 5.28
-10 -4 -5 92.11 10.28
-10 -4 -5 96.96 9.32
-10 -4 -5 94.51 20.58
10 4 5 90.69 10.41
-11 -4 -5 544.53 28.16
-11 -4 -5 563.44 22.38
-11 -4 -5 518.97 21.3
11 4 5 530.64 27.26
11 4 5 562.15 21.41
6 -5 -5 7.4 6.05
-6 5 5 8.9 7.79
-6 5 5 18.46 6.54
5 -5 -5 34.35 7.88
5 -5 -5 34.15 8.64
-5 5 5 33.26 5.62
-5 5 5 38.86 9.48
4 -5 -5 193.8 14.12
-4 5 5 215.49 15.13
-4 5 5 203.85 11.66
3 -5 -5 123.79 13.13
3 -5 -5 131.58 12.1
-3 5 5 126.13 9.64
-3 5 5 141.13 17.97
2 -5 -5 2.15 4.24
2 -5 -5 -5.08 5.08
-2 5 5 -0.66 4.15
-2 5 5 -4.08 6.84
1 -5 -5 93.46 6.95
1 -5 -5 84.89 9.93
-1 5 5 72.77 7.95
-1 5 5 92.31 6.64
-1 5 5 93.08 7.06
0 -5 -5 290.67 13.58
0 5 5 271.94 9.29
0 5 5 285.43 12.65
0 5 5 269.62 9.15
-1 -5 -5 28.79 6.3
1 5 5 26.36 5.21
2 5 5 88.01 7.69
-3 -5 -5 1598.07 41.16
3 5 5 1577.59 43.67
-4 -5 -5 667.03 21.05
-4 -5 -5 663.91 16.93
-4 -5 -5 620.75 16.4
4 5 5 666.06 23.03
-5 -5 -5 22.62 4.28
-5 -5 -5 22.92 4.59
-5 -5 -5 19.96 4.97
-5 -5 -5 23.36 5.23
5 5 5 17.01 4.76
5 5 5 26.2 4.28
-6 -5 -5 831.58 25.13
-6 -5 -5 858.26 25.73
-6 -5 -5 804.96 23.93
6 5 5 821 25.01
-7 -5 -5 2724.81 67.46
-7 -5 -5 2749.73 66.42
7 5 5 2678.45 65.87
7 5 5 2681.08 66.68
-8 -5 -5 2236.85 59.41
-8 -5 -5 2277.96 56.75
-8 -5 -5 2217.67 55.62
8 5 5 2148.01 58.2
-9 -5 -5 32.77 6.85
-9 -5 -5 34.13 8.73
-9 -5 -5 30.84 6.66
9 5 5 32.75 9.03
-10 -5 -5 -0.88 4.71
-10 -5 -5 6.42 8
-10 -5 -5 -1.25 5.06
10 5 5 -3.85 6.96
-11 -5 -5 1.54 7.25
-11 -5 -5 5.6 9
-11 -5 -5 1.45 5.66
11 5 5 5.87 7.28
5 -6 -5 170.21 14.21
-5 6 5 163.03 16.3
-5 6 5 193.46 10.47
4 -6 -5 5.99 6.58
-4 6 5 3.46 4.45
-4 6 5 6.59 6.26
-3 6 5 41.1 6.25
2 -6 -5 367.11 18.14
-2 6 5 384.8 14.05
-2 6 5 350.75 15.33
-2 6 5 369.96 15.05
1 -6 -5 265.23 14.37
-1 6 5 274.03 10.41
-1 6 5 262.7 11.28
-1 6 5 259.52 12.38
0 -6 -5 422.27 17.91
0 6 5 405.04 12.2
0 6 5 407.71 15.93
0 6 5 393.18 11.49
-1 -6 -5 21.78 5.98
1 6 5 27.74 5.52
-2 -6 -5 90.03 9.65
2 6 5 96.46 7.72
-3 -6 -5 412.63 16.07
3 6 5 396.76 15.37
-4 -6 -5 2993.78 73.83
4 6 5 2938.99 70.86
-5 -6 -5 405.55 23.33
-5 -6 -5 403.12 13.13
-5 -6 -5 421.09 16.56
-5 -6 -5 365.65 12.69
5 6 5 393.05 12.95
5 6 5 402.54 15.82
-6 -6 -5 76.45 6.75
-6 -6 -5 74.05 8.68
-6 -6 -5 46.58 12.15
6 6 5 47.51 7.35
-7 -6 -5 503.34 19.9
-7 -6 -5 536.12 20.26
-7 -6 -5 529.94 20.19
7 6 5 537.1 20.28
7 6 5 540.15 19.85
-8 -6 -5 764.42 24.75
-8 -6 -5 780.37 27.35
-8 -6 -5 754.68 25.71
8 6 5 755.77 26.89
-9 -6 -5 339.83 15.67
-9 -6 -5 340.58 18.42
-9 -6 -5 348.33 16.97
9 6 5 331.23 18.9
-10 -6 -5 4.39 6.22
-10 -6 -5 1.28 5.89
-10 -6 -5 -6.9 4.44
10 6 5 -3.77 7.53
-11 -6 -5 8.96 5.94
-11 -6 -5 17.09 8.69
-11 -6 -5 17.73 6.53
11 6 5 15.53 8.2
-5 7 5 7.02 8.5
4 -7 -5 41.72 9.11
-4 7 5 28.87 8.3
-4 7 5 52.73 7.31
3 -7 -5 190.85 15.06
-3 7 5 181.82 13.49
-3 7 5 188.13 11.2
2 -7 -5 -1.27 6.45
-2 7 5 -2.23 4.69
-2 7 5 3.43 4.38
1 -7 -5 -6.18 5.96
-1 7 5 -0.25 4.27
0 -7 -5 598.02 22.48
0 7 5 594.82 16.56
0 7 5 633.63 20.8
0 7 5 592.61 15.54
-1 -7 -5 186.25 12.57
1 7 5 218.74 11.69
-2 -7 -5 213.91 13.16
2 7 5 218.63 11.36
-3 -7 -5 255.18 13.48
-3 -7 -5 267.01 14.03
3 7 5 239.08 12.71
-4 -7 -5 22.79 6.3
-4 -7 -5 16.64 5.31
4 7 5 19.42 5.25
-5 -7 -5 -5.4 3.51
-5 -7 -5 -2.45 3.94
-5 -7 -5 -4.56 4.92
5 7 5 -1.94 2.79
5 7 5 4.89 4.14
-6 -7 -5 29.81 6.89
-6 -7 -5 50.07 6.74
-6 -7 -5 59.61 8.83
6 7 5 37.04 6.65
-7 -7 -5 1093.49 33.36
-7 -7 -5 1073.75 31.44
7 7 5 1091.75 31.92
-8 -7 -5 517.63 19.65
-8 -7 -5 575.56 22.6
8 7 5 527.63 21.6
-9 -7 -5 12.79 5.83
-9 -7 -5 26.63 6.97
9 7 5 12.86 6.65
-10 -7 -5 12.92 6.91
-10 -7 -5 2.25 5.64
-10 -7 -5 -1.97 5.11
10 7 5 3.06 7.76
-11 -7 -5 6.36 7.08
-11 -7 -5 2.36 5.73
-11 -7 -5 -6.12 5.03
11 7 5 -0.44 7.27
4 -8 -5 10.25 8.03
-4 8 5 13.82 6.01
3 -8 -5 35.05 8.92
-3 8 5 42.07 7.24
-3 8 5 30.49 8.06
2 -8 -5 42.37 9.59
-2 8 5 35.69 7.33
-2 8 5 61.84 8.19
1 -8 -5 452.98 20.81
-1 8 5 490 14.31
-1 8 5 400.34 16.01
-1 8 5 443.79 17.28
0 -8 -5 125.79 13.13
0 8 5 154.2 5.69
0 8 5 139.96 10.57
0 8 5 112.71 7.21
-1 -8 -5 10.69 5.63
-1 -8 -5 14.01 7.08
1 8 5 23.42 5.89
-2 -8 -5 -1.67 6.18
-2 -8 -5 -4.45 4.87
2 8 5 6.17 5.11
-3 -8 -5 148.11 11.76
-3 -8 -5 148.54 12.18
3 8 5 141.71 11.16
-4 -8 -5 435.79 18.91
-4 -8 -5 448.06 18.42
4 8 5 429.38 18.28
-5 -8 -5 -6.02 3.95
-5 -8 -5 0.87 4.71
-5 -8 -5 -0.11 5.19
5 8 5 -7.29 5.13
5 8 5 -0.41 3.35
-6 -8 -5 258.37 14.97
-6 -8 -5 240.4 13.76
-6 -8 -5 219.02 13.14
6 8 5 253.35 14.68
-7 -8 -5 1147.25 45.39
-7 -8 -5 1090.64 32.07
7 8 5 1084.6 32.02
-8 -8 -5 154.51 13.36
-8 -8 -5 135.32 11.12
8 8 5 161.08 12.52
-9 -8 -5 440.45 17.74
-9 -8 -5 457.93 20.73
9 8 5 444.72 21.08
-10 -8 -5 7.36 5.62
-10 -8 -5 5.2 6.53
3 -9 -5 -7.18 10.78
3 -9 -5 -5.43 3.99
-3 9 5 3.18 4
2 -9 -5 1.91 4.46
2 -9 -5 2.41 6.49
-2 9 5 6.01 4.52
1 -9 -5 54.7 10.14
-1 9 5 38.29 6.59
-1 9 5 36.04 6.66
0 -9 -5 504.03 19.4
0 -9 -5 497.71 22.76
0 9 5 427.85 16.88
0 9 5 472.86 18.51
0 9 5 504.21 13.42
-1 -9 -5 233.22 13.51
1 9 5 211.33 12.85
-2 -9 -5 7.29 6.68
-2 -9 -5 10.45 5.94
2 9 5 15.01 5.95
-3 -9 -5 11.33 5.87
-3 -9 -5 19.09 7.35
3 9 5 9.67 5.95
-4 -9 -5 6.52 6.65
-4 -9 -5 10.78 6.66
4 9 5 10.29 6.44
-5 -9 -5 292.97 16.67
-5 -9 -5 256.37 10.92
-5 -9 -5 302.72 15.31
5 9 5 291.39 13.55
5 9 5 275.14 15.16
-6 -9 -5 -3.33 5.58
-6 -9 -5 -8.35 5.56
-6 -9 -5 6.78 6.63
-7 -9 -5 148.26 12.77
-7 -9 -5 158.6 11.93
7 9 5 173.85 10.91
-8 -9 -5 13.17 6.08
-8 -9 -5 11.41 7.11
-9 -9 -5 97.91 13.05
-9 -9 -5 143.03 14.17
9 9 5 144.73 13
-10 -9 -5 -5.07 5.56
-10 -9 -5 3.06 6.82
2 -10 -5 68.69 9.55
-2 10 5 77.3 8.9
1 -10 -5 34.66 6.99
1 -10 -5 43.92 9.86
-1 10 5 31.17 6.64
0 -10 -5 34.81 7.52
0 -10 -5 21.33 8.11
0 10 5 19.8 6.49
-1 -10 -5 17.55 6.29
-1 -10 -5 11.88 7.97
1 10 5 21.41 6.33
-2 -10 -5 67.8 10.64
-2 -10 -5 80.23 10.52
2 10 5 76.65 10.25
-3 -10 -5 6.65 7.97
3 10 5 7.9 10.32
-4 -10 -5 21.99 7.37
-4 -10 -5 11.69 7.09
-5 -10 -5 41.93 6.18
-5 -10 -5 60.57 9.72
-5 -10 -5 72.56 10.63
-6 -10 -5 -0.23 5.58
-6 -10 -5 5.57 6.7
-7 -10 -5 35.1 8.89
-7 -10 -5 41.1 7.68
-8 -10 -5 179.37 12.73
-8 -10 -5 177.71 15.37
8 10 5 229.12 12.75
-9 -10 -5 103.38 13.58
-9 -10 -5 88.52 10.14
0 -11 -5 4.05 7.95
0 -11 -5 -2.46 7.46
-1 -11 -5 22.09 8.91
-1 -11 -5 33.48 7.86
-2 -11 -5 -1.93 5.86
-2 -11 -5 -8.26 6.92
-3 -11 -5 61.89 9.72
-3 -11 -5 73.77 10.98
-4 -11 -5 26.79 8.03
-4 -11 -5 7.12 7.49
-5 -11 -5 27.02 8.24
-5 -11 -5 29.03 9.88
-6 -11 -5 18.54 7.15
-6 -11 -5 24.54 8.09
-7 -11 -5 108.27 12.84
-7 -11 -5 106.36 11.73
-8 -11 -5 2.64 5.74
-2 -12 -5 9.71 7.28
-2 -12 -5 2.5 6.3
-3 -12 -5 -3.63 6.93
-3 -12 -5 -3.52 6.51
-4 -12 -5 -2.47 6.76
-4 -12 -5 2.12 7.2
-5 -12 -5 33.41 8.52
-5 -12 -5 35.81 9.28
-6 -12 -5 80.47 18.05
-6 -12 -5 77.68 15.36
2 9 -6 15.25 9.77
-2 -9 6 -9.48 6.76
1 9 -6 17.41 4.85
1 9 -6 13.17 9.03
-1 -9 6 8.18 6.68
0 9 -6 99.86 18.1
0 -9 6 110.46 10.1
0 -9 6 83.44 12.04
-1 9 -6 -0.91 9.49
1 -9 6 -0.7 5.98
1 -9 6 4.93 5.38
-2 9 -6 20.9 12.95
2 -9 6 27.85 7.49
2 -9 6 38.99 13.37
-3 9 -6 114.88 19.67
3 -9 6 133.96 11.85
3 -9 6 152.19 13.46
-4 9 -6 -4.73 13.07
4 -9 6 14.95 5.82
4 -9 6 30.92 8.17
-4 -8 6 25.86 14.17
3 8 -6 6.79 7.71
-3 -8 6 -1.18 7.87
2 8 -6 50.68 7.05
2 8 -6 87.78 15.33
-2 -8 6 68.01 10.78
1 8 -6 102.67 8.32
1 8 -6 105.64 16.74
-1 -8 6 85.34 12.35
-1 -8 6 101.79 8.23
0 8 -6 4.81 10.06
0 -8 6 9.64 4.86
0 -8 6 -2.96 6.46
-1 8 -6 13.38 11.54
1 -8 6 17.52 6.96
1 -8 6 21.34 6.65
-2 8 -6 -8.3 8.84
2 -8 6 7.79 5.66
2 -8 6 1.92 5.67
-3 8 -6 61.34 15.9
3 -8 6 48.44 7.61
-4 8 -6 100.49 19.44
4 -8 6 134.65 14.08
4 -8 6 126.07 10.29
-5 8 -6 115.91 22.74
5 -8 6 171.09 15.08
5 -8 6 139.33 9.25
-6 8 -6 231.33 27.92
6 -8 6 279.97 18.6
5 7 -6 27.05 10.94
-5 -7 6 -1.06 11.5
4 7 -6 35.83 9.86
-4 -7 6 4.08 7.99
3 7 -6 2.9 8.02
-3 -7 6 2.26 7.18
2 7 -6 -1.44 2.7
2 7 -6 1.72 8.25
-2 -7 6 -2.56 6.62
1 7 -6 365.48 14.01
1 7 -6 338.85 21.73
-1 -7 6 352.14 13.68
-1 -7 6 363.44 19.18
0 7 -6 146.42 17.93
0 -7 6 152.47 17.23
0 -7 6 149.62 13.03
-1 7 -6 88.11 15
1 -7 6 95.36 9.81
1 -7 6 85.22 10.64
-2 7 -6 13.1 11.14
2 -7 6 20.59 6.49
2 -7 6 16.79 6.11
-3 7 -6 479.08 28.51
3 -7 6 464.45 19.98
3 -7 6 456.3 18.36
-4 7 -6 203.63 22.85
4 -7 6 208.65 11.98
-5 7 -6 25.58 13.26
5 -7 6 27.97 8.18
5 -7 6 36.81 5.42
-6 7 -6 -6.76 10.78
6 -7 6 21.85 8.19
-7 7 -6 31.11 14.07
-5 -6 6 38.83 9.7
4 6 -6 11.48 7.89
-4 -6 6 -7.47 6.26
3 6 -6 -0.52 7.62
-3 -6 6 -9.41 6.59
2 6 -6 481.89 14.19
2 6 -6 456.53 13.45
2 6 -6 483.44 24.47
-2 -6 6 472.88 22.31
1 6 -6 -7.5 8.33
1 6 -6 7.19 2.77
1 6 -6 4.26 3.77
-1 -6 6 0.5 3.94
-1 -6 6 -7.02 5.5
0 6 -6 255.48 20.19
0 -6 6 266.27 12.54
0 -6 6 258.1 15.56
-1 6 -6 1058.2 39.24
1 -6 6 1066.73 30.9
1 -6 6 1043.14 32.18
-2 6 -6 944.5 37.31
2 -6 6 941.23 29.13
2 -6 6 945.19 29.25
-3 6 -6 7.6 10.86
3 -6 6 14.03 5.38
3 -6 6 12.01 5.72
-4 6 -6 0.7 13.53
4 -6 6 11.32 6.49
4 -6 6 4.59 5.27
-5 6 -6 168.01 19.25
5 -6 6 192.13 23.41
5 -6 6 175.95 9.57
-6 6 -6 160.14 19.8
6 -6 6 171.87 7.4
6 -6 6 186.45 15.45
-7 6 -6 48.69 15.01
7 -6 6 84.39 13.57
-8 6 -6 46.15 15.1
-6 -5 6 9.93 8.48
5 5 -6 33.2 10.04
-5 -5 6 14.98 8.82
4 5 -6 -1.13 7.11
-4 -5 6 -7.73 6.72
3 5 -6 238.44 17.54
-3 -5 6 225.8 15
2 5 -6 98.85 6.38
2 5 -6 108.72 5.56
2 5 -6 117.14 15.19
-2 -5 6 113.65 11.53
1 5 -6 5.61 4.96
1 5 -6 10.75 2.8
1 5 -6 -3.87 7.56
-1 -5 6 1.07 6.41
0 5 -6 572.8 18.96
0 5 -6 549.51 26.49
0 -5 6 564.92 21.25
0 -5 6 566.1 18.7
-1 5 -6 2999.75 80.84
1 -5 6 3122.92 74.95
1 -5 6 3148.21 73.51
-2 5 -6 1436.77 47.32
2 -5 6 1466.4 39.7
2 -5 6 1458.58 39.69
-3 5 -6 2061.26 60.83
3 -5 6 2033.76 53.06
3 -5 6 2082.41 54
-4 5 -6 38 12.41
4 -5 6 39.34 7.81
4 -5 6 44.99 6.41
-5 5 -6 57.32 6.83
-5 5 -6 64.75 13.36
5 -5 6 67.37 6.88
5 -5 6 64.66 10.91
-6 5 -6 31.84 4.58
-6 5 -6 43.03 12.09
6 -5 6 38.02 10.93
6 -5 6 45.46 4.84
-7 5 -6 299.12 24.87
7 -5 6 324.19 19.1
-8 5 -6 147.09 21.76
8 -5 6 188.37 16.17
-9 5 -6 -9.41 18.27
9 -5 6 6.97 9.33
6 4 -6 122.91 15.99
-6 -4 6 118.72 15.41
5 4 -6 2.05 7.67
-5 -4 6 -2.08 6.88
4 4 -6 14.28 8.5
-4 -4 6 6.59 6.56
3 4 -6 15.4 7.7
-3 -4 6 7.69 7.17
2 4 -6 124.19 6.81
2 4 -6 107.27 12.97
2 4 -6 121.42 5.87
-2 -4 6 112.92 11.99
1 4 -6 142.99 15.32
1 4 -6 147.84 7.13
-1 -4 6 150.81 11.51
0 4 -6 762.46 29.23
0 4 -6 722.67 21.95
0 4 -6 803.23 23.01
0 -4 6 772.75 22.63
0 -4 6 817.87 25.95
-1 4 -6 10.55 4.48
-1 4 -6 0.36 7.85
1 -4 6 10.62 5.02
1 -4 6 8.09 4.39
-2 4 -6 3681.95 92.57
2 -4 6 3679.15 85.49
2 -4 6 3577.33 94.48
-3 4 -6 645.39 28.09
3 -4 6 687.09 22.1
3 -4 6 694.27 23.14
-4 4 -6 858.09 33.55
4 -4 6 823.32 24.36
4 -4 6 811.28 26.86
-5 4 -6 352.09 12.74
-5 4 -6 401.17 23.78
5 -4 6 365.79 13.46
5 -4 6 358.63 17.58
-6 4 -6 159.49 18.38
6 -4 6 159.18 13.45
6 -4 6 163.68 7.68
-7 4 -6 31.1 3.55
-7 4 -6 17.22 9.89
7 -4 6 25.33 8.12
-8 4 -6 57.83 14.11
8 -4 6 75.22 11.55
-9 4 -6 12.2 11.49
9 -4 6 19.75 8.58
6 3 -6 25.61 8.5
-6 -3 6 -1.66 7.45
5 3 -6 71.08 12.83
-5 -3 6 39.57 8.48
4 3 -6 0.15 2.38
3 3 -6 621.29 17.37
3 3 -6 628.78 17.47
3 3 -6 668.48 27.48
-3 -3 6 654.65 24.62
2 3 -6 117.38 7.08
2 3 -6 105.23 13.21
2 3 -6 125.04 7.38
-2 -3 6 106.56 10.74
1 3 -6 583.2 24.34
1 3 -6 560.08 16.94
-1 -3 6 587.65 21.09
0 3 -6 311.96 11.86
0 3 -6 348.17 13.16
0 3 -6 329.39 18.66
0 -3 6 339.51 15.48
-1 3 -6 44.95 6.45
-1 3 -6 35.98 9.83
1 -3 6 38.72 6.61
1 -3 6 44.27 6.29
-2 3 -6 4555.81 109.56
2 -3 6 4571.74 106.59
2 -3 6 4461.84 103.31
-3 3 -6 829.69 30.55
3 -3 6 781.83 25.49
3 -3 6 782.76 23.72
-4 3 -6 273.32 17.78
4 -3 6 265.18 13.73
4 -3 6 258.35 11.88
-5 3 -6 1.63 3.26
-5 3 -6 18.65 9.11
5 -3 6 7.97 5.83
5 -3 6 8.23 4.03
-6 3 -6 31.52 10.32
6 -3 6 33.99 4.41
6 -3 6 36.66 7.97
-7 3 -6 1308.92 31.08
-7 3 -6 1369.5 45.95
7 -3 6 1288.17 39.23
7 -3 6 1266.57 31.01
-8 3 -6 537.05 27.96
8 -3 6 507.14 22.51
-9 3 -6 30.76 11.16
9 -3 6 34.4 8.99
-10 3 -6 56 15.18
10 -3 6 56.41 10.32
-6 -2 6 34.63 8.85
5 2 -6 -2.83 6.48
-5 -2 6 -5.84 6.82
4 2 -6 211.31 16.71
-4 -2 6 192.27 14.93
3 2 -6 307.53 12.69
3 2 -6 315.26 18.48
-3 -2 6 316.25 17
2 2 -6 2.35 6.15
2 2 -6 6.8 2.97
-2 -2 6 -0.47 5.06
1 2 -6 1.97 4.01
1 2 -6 3.09 2.82
1 2 -6 -2.28 5.89
-1 -2 6 3.65 4.68
0 2 -6 1075.03 33.98
0 2 -6 1107.44 29.04
0 2 -6 1048.86 28.39
0 -2 6 1102.06 31.47
-1 2 -6 1768.01 43.36
-1 2 -6 1670.75 51.74
1 -2 6 1718.31 52.99
1 -2 6 1732.4 42.96
-2 2 -6 6.6 7.71
-2 2 -6 5.05 4.05
2 -2 6 10.41 4.22
2 -2 6 5.71 3.98
-3 2 -6 1685.3 62.7
3 -2 6 1693.44 43.78
3 -2 6 1733.54 42.91
-4 2 -6 892.98 30.92
4 -2 6 897.64 25
4 -2 6 872.2 26.84
-5 2 -6 164.04 14.1
-5 2 -6 144.13 7.92
5 -2 6 162.69 8.69
5 -2 6 157.82 11.05
-6 2 -6 -0.71 7.52
-6 2 -6 -1.07 2.83
6 -2 6 2.29 4.86
-7 2 -6 210.43 9.93
-7 2 -6 221.06 18.95
7 -2 6 241.76 15.14
7 -2 6 215.92 8.81
-8 2 -6 799.2 20.76
-8 2 -6 765.06 20.22
-8 2 -6 819.56 38.48
8 -2 6 791.3 20.25
8 -2 6 816.45 29.53
-9 2 -6 39.04 12.17
9 -2 6 37.7 9.31
-10 2 -6 123.18 18.8
10 -2 6 129.26 14.51
6 1 -6 9.64 3.51
6 1 -6 11.05 7.25
-6 -1 6 -6.73 6.8
5 1 -6 303.09 19.72
5 1 -6 281.73 11.6
-5 -1 6 267.66 23.55
4 1 -6 9.62 6.67
4 1 -6 8.59 3.8
-4 -1 6 6.34 7.19
3 1 -6 655.14 20.38
3 1 -6 684.5 26.68
3 1 -6 695.1 20.35
-3 -1 6 702.44 22.73
-3 -1 6 698.97 24.5
2 1 -6 16.9 4.38
2 1 -6 9.09 5.35
2 1 -6 16.91 3.79
-2 -1 6 17.57 3.8
-2 -1 6 14.85 6.12
1 1 -6 189.58 9.47
1 1 -6 179.11 8.74
1 1 -6 173.62 12.81
-1 -1 6 186.68 11.87
-1 -1 6 172.55 8.72
0 1 -6 289.76 15.19
0 1 -6 307.57 12.2
0 1 -6 282.08 11.22
0 -1 6 300.67 13.86
-1 1 -6 4.91 5.99
-1 1 -6 3.09 3.81
-1 1 -6 4.4 3.6
1 -1 6 3.76 4.51
-2 1 -6 3197.55 77.08
-2 1 -6 3127.47 73.53
2 -1 6 3146.07 73.52
2 -1 6 3092.15 73.3
-3 1 -6 330.36 16.67
-3 1 -6 313.23 13.58
3 -1 6 327.63 13.1
3 -1 6 318.29 13.59
-4 1 -6 -3.68 6.17
4 -1 6 -3.19 3.35
-5 1 -6 1129.22 35.49
-5 1 -6 1055.38 28.38
5 -1 6 1069.47 31.22
5 -1 6 1088.88 28.52
-6 1 -6 691.17 26.96
-6 1 -6 650.32 19.25
6 -1 6 671.7 19.68
6 -1 6 657.29 22.72
-7 1 -6 348.48 12.67
-7 1 -6 362.4 20.17
7 -1 6 357.69 17.52
-8 1 -6 215.99 17.72
-8 1 -6 193.54 9.15
8 -1 6 195.35 9.53
8 -1 6 243.76 15.77
-9 1 -6 121.59 6.19
-9 1 -6 107.55 16.16
-9 1 -6 104.54 6.66
9 -1 6 106.09 15.7
-10 1 -6 4.89 8.02
10 -1 6 6.59 6.67
-11 1 -6 16.26 11.42
11 -1 6 12.2 7.36
6 0 -6 22.31 4.6
6 0 -6 26.19 8.75
-6 0 6 15.96 7.53
5 0 -6 -4.07 3.67
5 0 -6 8.37 12
-5 0 6 3.35 6.8
4 0 -6 574.86 24.64
4 0 -6 506.73 23.39
-4 0 6 550.57 22.07
3 0 -6 46.02 8.97
3 0 -6 40.4 5.79
-3 0 6 34.52 7.39
2 0 -6 4.86 5.31
2 0 -6 4.91 4.05
-2 0 6 0.36 5.31
1 0 -6 312.05 12.58
1 0 -6 278.63 14.23
-1 0 6 297.04 13.63
0 0 -6 453.25 17.86
0 0 -6 483.45 16.17
0 0 6 480.51 19.46
-1 0 -6 3539 81.67
-1 0 -6 3544.82 83.53
1 0 6 3487.68 84.12
1 0 6 3603.55 82.49
-2 0 -6 169.95 11.5
-2 0 -6 146.64 9.36
2 0 6 159.33 9.16
2 0 6 163.91 10.74
-3 0 -6 1494.25 39.03
-3 0 -6 1496.55 40.95
3 0 6 1526.98 39.05
3 0 6 1481.29 39.94
3 0 6 1519.8 38.41
-4 0 -6 54.79 9.24
-4 0 -6 45.38 6.79
4 0 6 35.48 6.13
4 0 6 40.83 5.98
-5 0 -6 1178.43 35.28
-5 0 -6 1159.91 32.48
5 0 6 1152.35 32.59
5 0 6 1121.84 30
-6 0 -6 0.41 3.23
-6 0 -6 2.56 5.84
6 0 6 -1.66 2.77
6 0 6 -4.91 3.63
-7 0 -6 1555.72 46.06
-7 0 -6 1521.88 38.15
7 0 6 1466.06 37.35
7 0 6 1532.89 42.05
-8 0 -6 3795.64 88.65
-8 0 -6 4046.33 100.26
-8 0 -6 3847.9 89.24
8 0 6 3951.63 88.83
8 0 6 4058.53 95.03
-9 0 -6 42.91 11.38
-9 0 -6 35.43 4.84
-9 0 -6 41.74 5.49
9 0 6 35.25 8.53
-10 0 -6 234.13 20.45
10 0 6 213.12 15.98
-11 0 -6 15.59 11.32
11 0 6 15.58 7.44
6 -1 -6 95.83 8.97
6 -1 -6 113.51 14.54
-6 1 6 97.41 17.97
5 -1 -6 186.63 11.55
5 -1 -6 218.01 23.17
-5 1 6 216.65 14.56
4 -1 -6 -7.48 5.7
4 -1 -6 3.74 4.63
-4 1 6 0.12 5.89
3 -1 -6 0.21 5.12
3 -1 -6 9.83 4.91
-3 1 6 -1.17 4.93
2 -1 -6 272.66 12.38
2 -1 -6 213.63 21.63
-2 1 6 261.77 13.83
1 -1 -6 -5.1 3.84
1 -1 -6 -0.43 3.85
-1 1 6 5.46 4.45
0 -1 -6 73.87 7.67
0 -1 -6 83.65 7.6
0 1 6 84.66 12.51
0 1 6 83.21 9.05
-1 -1 -6 204.65 10.59
-1 -1 -6 201.89 10.73
1 1 6 207.27 10.47
-2 -1 -6 1869.36 46.39
-2 -1 -6 1853.5 46.16
2 1 6 1820.59 46.4
2 1 6 1870.58 46.2
-3 -1 -6 878.96 25.38
-3 -1 -6 896.85 26.33
3 1 6 857.37 32.89
3 1 6 869.99 24.73
-4 -1 -6 1360.85 36.05
4 1 6 1388.37 34.9
4 1 6 1330.59 35.74
4 1 6 1297.32 35.72
-5 -1 -6 177.71 13.19
-5 -1 -6 202.26 12.44
5 1 6 192.49 12.71
5 1 6 196.72 9.51
-6 -1 -6 5.81 5.36
-6 -1 -6 -5.97 4.54
6 1 6 1.43 4.01
6 1 6 2.67 3.05
-7 -1 -6 151.36 14.32
7 1 6 173.24 12.5
7 1 6 155.2 9.25
-8 -1 -6 301.35 13.3
-8 -1 -6 329.26 20.51
8 1 6 329.73 13.21
8 1 6 352.73 17.16
-9 -1 -6 5.72 3.57
-9 -1 -6 2.38 7.91
9 1 6 2.25 6.06
-10 -1 -6 97.64 7.64
-10 -1 -6 88.9 15.23
-11 -1 -6 146.08 8.56
-11 -1 -6 140.29 18.09
11 1 6 142.88 13.96
6 -2 -6 23.02 5.82
-6 2 6 19.15 7.06
5 -2 -6 8.45 5.69
5 -2 -6 22.46 7.74
-5 2 6 12.46 6.55
4 -2 -6 17.36 7.07
4 -2 -6 14.63 5.67
-4 2 6 15.51 6.53
3 -2 -6 81.94 8.53
3 -2 -6 75.22 10.25
-3 2 6 72.83 9.8
2 -2 -6 15.76 5.65
2 -2 -6 17.35 5.31
-2 2 6 11.66 5.78
1 -2 -6 28.09 5.58
1 -2 -6 33.88 10.98
-1 2 6 19.26 5.58
-1 2 6 23.26 5.85
0 -2 -6 -3.62 3.24
0 -2 -6 -0.41 4.15
0 2 6 -1.6 7.26
-1 -2 -6 842.09 24.5
-1 -2 -6 803.18 22.68
1 2 6 827.38 23.96
1 2 6 821.93 24.32
-2 -2 -6 169.85 8.86
-2 -2 -6 178.33 9.95
2 2 6 178.71 9.12
2 2 6 212.59 10.43
-3 -2 -6 188.6 9.98
-3 -2 -6 209.64 10.45
3 2 6 187.58 10.03
3 2 6 197.97 9.01
-4 -2 -6 1222.35 32.34
-4 -2 -6 1280.68 33.79
-4 -2 -6 1243.71 33.64
4 2 6 1249.29 32.86
4 2 6 1219.96 32.28
-5 -2 -6 1330.89 35.51
-5 -2 -6 1378.65 40.31
5 2 6 1323.65 34.59
5 2 6 1307.78 35.36
-6 -2 -6 204.6 12.74
-6 -2 -6 192.32 11.61
6 2 6 207.73 10.07
6 2 6 195.92 11.62
-7 -2 -6 6721.26 155.51
-7 -2 -6 7055.69 158.77
7 2 6 7063.73 155.78
7 2 6 6756.32 152.64
-8 -2 -6 124.24 16.56
-8 -2 -6 176.72 12.7
-8 -2 -6 142.9 14.91
8 2 6 156.8 12.73
-9 -2 -6 57.25 7.19
-9 -2 -6 60.35 9.56
-9 -2 -6 54.67 11.25
9 2 6 52.96 8.58
-10 -2 -6 41.28 11.15
-10 -2 -6 36.3 5.56
-10 -2 -6 33.86 7.63
10 2 6 34.46 8.07
-11 -2 -6 44.81 8.58
-11 -2 -6 34.57 11.59
-11 -2 -6 57.67 8.32
11 2 6 42.81 8.74
6 -3 -6 124.81 14.27
6 -3 -6 98.36 10.55
5 -3 -6 19.91 7.69
5 -3 -6 14.28 6.28
-5 3 6 14.37 6.44
4 -3 -6 22.85 6.6
4 -3 -6 25.12 7.27
-4 3 6 19.31 6.25
3 -3 -6 187.59 13.27
3 -3 -6 193.42 12.79
-3 3 6 201.88 13.13
2 -3 -6 29.44 6.84
2 -3 -6 30.91 6.38
-2 3 6 36.98 7
1 -3 -6 351.45 16.62
1 -3 -6 360.63 15.62
-1 3 6 358.73 15.18
-1 3 6 338.48 14.46
0 -3 -6 70.95 6.59
0 -3 -6 72.87 8.06
0 3 6 76.73 7.87
0 3 6 81.78 8.63
-1 -3 -6 48.37 6.52
-1 -3 -6 53.37 10.74
1 3 6 60.3 8.36
1 3 6 60.92 6.65
-2 -3 -6 12.53 3
-2 -3 -6 13.24 4.3
2 3 6 9.82 4.43
2 3 6 14.62 3.18
-3 -3 -6 45.5 5.83
-3 -3 -6 44.05 6.94
3 3 6 39.1 4.12
3 3 6 45.11 5.96
-4 -3 -6 85.73 7.78
-4 -3 -6 78.97 7.68
-4 -3 -6 97.4 6.26
4 3 6 92.34 7.23
4 3 6 79.79 5.65
-5 -3 -6 2.57 4.88
-5 -3 -6 -2.16 7.52
-5 -3 -6 3.59 3.93
5 3 6 0.84 3.17
-6 -3 -6 33.8 6.45
-6 -3 -6 34.45 6.41
-6 -3 -6 34.13 5.81
6 3 6 28.72 8.9
6 3 6 40.21 6.82
-7 -3 -6 133.78 12.33
-7 -3 -6 120.65 12.48
-7 -3 -6 175.79 10.83
7 3 6 164.71 10.92
7 3 6 166.78 12.55
-8 -3 -6 86.37 9.29
-8 -3 -6 97.54 12.74
-8 -3 -6 96.69 10.95
8 3 6 104.23 9.29
8 3 6 88.66 11.13
-9 -3 -6 1114.02 33.92
-9 -3 -6 1112.39 38.09
-9 -3 -6 1082.63 31.52
9 3 6 1147.47 34.23
-10 -3 -6 161.02 10.63
-10 -3 -6 153.7 24.09
10 3 6 160.04 13.12
-11 -3 -6 85.32 15.73
-11 -3 -6 81.98 9.09
-12 -3 -6 12.29 5.29
-12 -3 -6 11.94 6.87
-12 -3 -6 10.49 10.1
5 -4 -6 75.82 11.18
5 -4 -6 107.22 14.16
-5 4 6 97.13 10.49
-5 4 6 107.97 14.1
4 -4 -6 140.83 13.07
4 -4 -6 142.05 13.76
-4 4 6 143 11.55
3 -4 -6 12.83 6.27
3 -4 -6 5.59 5.99
-3 4 6 18.64 5.72
2 -4 -6 80.06 9.12
2 -4 -6 79.01 10.49
-2 4 6 93.06 9.86
1 -4 -6 1.54 4.21
1 -4 -6 0.62 4.96
-1 4 6 7.37 4.8
-1 4 6 0.05 4.55
0 -4 -6 322.09 14.51
0 -4 -6 298.87 11.16
0 4 6 310.88 13.48
0 4 6 300.56 11.8
-1 -4 -6 10.32 4.84
-1 -4 -6 1.47 2.11
1 4 6 3.15 3.1
1 4 6 10.18 4.23
-2 -4 -6 323.3 13.92
2 4 6 319.53 15.09
-3 -4 -6 3.83 4.72
3 4 6 5.04 4.3
-4 -4 -6 3685.11 81.18
-4 -4 -6 3562.42 80.23
-4 -4 -6 3644.88 88.75
4 4 6 3647.85 85.27
-5 -4 -6 134.91 7.41
-5 -4 -6 139.96 9.49
-5 -4 -6 142.01 8.57
5 4 6 130.85 9.28
-6 -4 -6 112.88 7.72
-6 -4 -6 111.27 9.68
6 4 6 86.13 8.13
-7 -4 -6 3156.2 76.32
-7 -4 -6 3138.04 75.58
-7 -4 -6 3231.33 77.66
7 4 6 3137.27 75.25
-8 -4 -6 135.7 11.63
-8 -4 -6 128.44 10.79
-8 -4 -6 123.72 12.78
8 4 6 137.53 10.66
-9 -4 -6 21.04 6.78
-9 -4 -6 24.59 5.56
-9 -4 -6 19.7 7.76
9 4 6 9.6 7.08
9 4 6 11.86 6.53
-10 -4 -6 21.84 5.53
-10 -4 -6 13.63 6.69
-10 -4 -6 18.41 8.1
10 4 6 23.55 7.25
10 4 6 24.05 8.75
-11 -4 -6 5.01 8.07
-11 -4 -6 4.74 6.16
-11 -4 -6 3.88 7.04
11 4 6 4.94 8.26
11 4 6 5.31 6.44
5 -5 -6 19.54 7.33
5 -5 -6 5.8 6.23
-5 5 6 12.37 9.1
4 -5 -6 7.27 6.52
4 -5 -6 3.86 6.4
-4 5 6 16.21 6.8
-4 5 6 5.35 5.13
3 -5 -6 -2.64 8.63
3 -5 -6 -1.07 5.56
-3 5 6 -0.01 4.9
-3 5 6 2.05 4.53
2 -5 -6 -0.8 5.71
2 -5 -6 5.91 5.03
-2 5 6 2.38 4.81
-2 5 6 4.75 4.73
1 -5 -6 34.25 6.53
1 -5 -6 33.67 7.55
-1 5 6 35.13 6.07
-1 5 6 49.73 7.09
-1 5 6 40.04 6.4
0 -5 -6 132.68 8.1
0 -5 -6 126.49 11.34
0 5 6 133.06 7.36
0 5 6 142.17 10.12
-1 -5 -6 -2.34 5.31
1 5 6 3.99 4.25
-2 -5 -6 515.37 19.08
2 5 6 515.66 18.5
-3 -5 -6 1813.06 46.8
3 5 6 1812.38 46.25
-4 -5 -6 22.32 5.79
4 5 6 19.82 5.59
-5 -5 -6 5.2 2.69
-5 -5 -6 9.39 5.12
5 5 6 4.77 4.24
-6 -5 -6 509.94 18.51
-6 -5 -6 511.87 17.59
-6 -5 -6 495.91 19.11
6 5 6 488.63 18.61
-7 -5 -6 8.56 5.41
-7 -5 -6 11.29 5.44
-7 -5 -6 -6.49 6.09
7 5 6 7.9 5.65
-8 -5 -6 -0.11 5.51
-8 -5 -6 -8.97 4.66
-8 -5 -6 -6.04 5.67
8 5 6 0.48 5.5
8 5 6 -3.78 5.67
-9 -5 -6 370.71 16.72
-9 -5 -6 357.57 19.07
-9 -5 -6 353.86 16.85
9 5 6 333.38 18.92
-10 -5 -6 164.11 12.48
-10 -5 -6 158.95 11.91
-10 -5 -6 174.32 15.49
10 5 6 168.99 15.21
-11 -5 -6 15.99 7.23
-11 -5 -6 12.24 8.64
-11 -5 -6 7.61 6.36
11 5 6 17.23 8.42
4 -6 -6 -5.47 6.29
-4 6 6 4.37 4.86
-4 6 6 -1.22 6.04
3 -6 -6 18.78 7.51
-3 6 6 18.23 6.21
-3 6 6 16.64 5.51
-2 6 6 -1.73 4.35
-2 6 6 3.31 4.62
1 -6 -6 67.19 11.3
-1 6 6 106.37 7.04
-1 6 6 94.16 9.69
-1 6 6 79.8 7.21
0 -6 -6 33.86 7.39
0 6 6 51.48 4.93
0 6 6 47.6 4.56
0 6 6 53.76 7.33
-1 -6 -6 36.93 8.21
1 6 6 35.14 5.92
-2 -6 -6 207.71 12.85
2 6 6 218.07 11.59
-3 -6 -6 156.05 12.08
3 6 6 153.51 11.02
-4 -6 -6 27.32 6.8
4 6 6 30.38 6.72
-5 -6 -6 353.1 10.99
-5 -6 -6 333.31 10.36
-5 -6 -6 334 15.58
5 6 6 346.79 15.12
-6 -6 -6 249.38 14.53
-6 -6 -6 293.01 11.14
-6 -6 -6 299.35 12.03
-6 -6 -6 311.17 14.94
6 6 6 279.16 13.85
-7 -6 -6 260.95 13.95
-7 -6 -6 270.98 15.01
-7 -6 -6 263.51 13.31
7 6 6 226.28 14.03
7 6 6 251.49 12.84
-8 -6 -6 -3.7 5.22
-8 -6 -6 -4.82 5.51
-8 -6 -6 -8.14 4.51
8 6 6 -3.05 5.02
8 6 6 -5.98 5.19
-9 -6 -6 53.2 8.35
-9 -6 -6 40.52 8.34
-9 -6 -6 34.8 7.24
9 6 6 37.99 8.58
-10 -6 -6 2.16 6.22
-10 -6 -6 8.11 5.43
-10 -6 -6 0.05 5.98
10 6 6 5.5 6.65
-11 -6 -6 38.11 7.97
-11 -6 -6 36.18 7.59
-11 -6 -6 43.06 10.35
11 6 6 37.92 9.32
4 -7 -6 27.26 8.58
-4 7 6 14.16 7.75
3 -7 -6 231.77 16.88
-3 7 6 203.05 13.97
-3 7 6 249.38 13.12
2 -7 -6 40.53 8.92
-2 7 6 55.87 9.09
-2 7 6 30.33 6.43
1 -7 -6 128.2 12.73
-1 7 6 168.57 11.65
-1 7 6 175 7.83
-1 7 6 121.6 8.47
0 -7 -6 43.91 8.3
0 7 6 56.04 8.49
-1 -7 -6 -12.01 5.58
1 7 6 0.86 4.77
-2 -7 -6 309.78 16.48
2 7 6 329.74 15.1
-3 -7 -6 198.73 13.64
3 7 6 178.29 11.66
-4 -7 -6 13.43 6.15
4 7 6 2.27 5.4
-5 -7 -6 323.09 15.74
-5 -7 -6 332.28 16.08
5 7 6 314.91 15.54
-6 -7 -6 -3.25 5.29
-6 -7 -6 4.69 3.27
-6 -7 -6 4.39 5.38
-6 -7 -6 1 3.12
6 7 6 -1.54 5.01
-7 -7 -6 90.19 11.3
-7 -7 -6 111.64 9.27
-7 -7 -6 122.1 8.2
-7 -7 -6 115.44 11.18
7 7 6 95.93 9.03
7 7 6 84.82 10.13
-8 -7 -6 26.98 8.03
-8 -7 -6 25.17 10.85
-8 -7 -6 27.74 7.18
8 7 6 42.95 8.77
-9 -7 -6 6.06 5.24
-9 -7 -6 -5.84 5.09
-9 -7 -6 1.3 8.74
9 7 6 -3.73 5.51
-10 -7 -6 -3.75 4.86
-10 -7 -6 -3.57 5.78
-10 -7 -6 -6.34 5.62
10 7 6 1.2 6.22
-11 -7 -6 7.55 6.39
-11 -7 -6 14.76 6.66
-11 -7 -6 34.73 9.21
3 -8 -6 5.32 7.14
-3 8 6 25.2 9.69
2 -8 -6 4.15 7.07
-2 8 6 5.61 5.53
-2 8 6 -5.67 5.21
1 -8 -6 436.4 21.7
-1 8 6 438.19 17.59
-1 8 6 367.45 14.66
0 -8 -6 1.96 6.35
0 8 6 9.8 5.61
-1 -8 -6 154.77 15.68
1 8 6 173.48 11.89
-2 -8 -6 2.61 6.63
2 8 6 10.78 5.68
-3 -8 -6 280.16 15.83
-3 -8 -6 280.86 15.25
3 8 6 263.4 14.08
-4 -8 -6 748.93 25.75
-4 -8 -6 751.3 25.91
4 8 6 709.99 24.95
-5 -8 -6 59.79 10.03
-5 -8 -6 69.11 10.41
5 8 6 53.04 8.28
-6 -8 -6 343.07 17.14
-6 -8 -6 358.78 16.7
-6 -8 -6 298.3 12.04
6 8 6 346.4 16.66
-7 -8 -6 241.72 17.21
-7 -8 -6 246.17 11.88
-7 -8 -6 272.98 15.01
7 8 6 269.69 13.31
7 8 6 279.36 18.08
-8 -8 -6 6.41 5.27
-8 -8 -6 8.54 6.23
-8 -8 -6 7.04 6.1
8 8 6 5.2 8.37
-9 -8 -6 9.31 6.78
-9 -8 -6 19.03 6.21
-9 -8 -6 1.53 5.77
9 8 6 13.09 5.75
-10 -8 -6 31.35 7.44
-10 -8 -6 31.02 8.11
-10 -8 -6 56.83 10.43
10 8 6 42.09 8.75
2 -9 -6 21.82 8.91
2 -9 -6 14.44 5.53
-2 9 6 24.35 6
1 -9 -6 3.01 7.46
-1 9 6 11.49 8.27
0 -9 -6 4.79 5.2
0 -9 -6 4.07 7.32
0 9 6 2.9 4.87
-1 -9 -6 47.22 7.74
-1 -9 -6 44.24 10.1
1 9 6 50.06 7.89
-2 -9 -6 21.92 8.58
-2 -9 -6 32.96 7.05
2 9 6 27.6 6.73
-3 -9 -6 3.76 6.66
-3 -9 -6 4.56 5.28
3 9 6 -1.95 5.34
-4 -9 -6 23.84 7.81
-4 -9 -6 38.03 9.41
4 9 6 33.32 7.85
-5 -9 -6 37.78 8.36
-5 -9 -6 39.71 9.33
5 9 6 32.6 8.5
-6 -9 -6 87.45 11.72
-6 -9 -6 88.95 11.15
-6 -9 -6 81.58 7.91
6 9 6 105.03 11.85
-7 -9 -6 101.76 11.47
-7 -9 -6 97.08 11.37
-8 -9 -6 25.98 7.86
-8 -9 -6 50.04 7.76
-8 -9 -6 32.32 7.45
8 9 6 42.85 9.54
-9 -9 -6 11.83 5.63
-9 -9 -6 -2.96 5.66
-9 -9 -6 2.68 6.38
9 9 6 20.16 6.3
-10 -9 -6 13.47 6.2
-10 -9 -6 1.03 6.16
-10 -9 -6 -11.15 5.53
10 9 6 15.77 6.61
1 -10 -6 139.6 13.93
-1 10 6 131.95 11.55
0 -10 -6 2.21 7.37
0 10 6 6.77 9.1
-1 -10 -6 20.2 10.8
-1 -10 -6 15.92 8.66
-2 -10 -6 119.25 12.4
-2 -10 -6 95.88 13.76
2 10 6 117.21 11.84
-3 -10 -6 122.05 12.97
-3 -10 -6 122.61 13.59
3 10 6 139.31 12.74
-4 -10 -6 249.24 16.52
-4 -10 -6 257.28 17.3
4 10 6 226.9 15.6
-5 -10 -6 120.3 12.42
-5 -10 -6 160.98 15.47
5 10 6 134.13 12.23
-6 -10 -6 54.34 9.05
-6 -10 -6 53.54 9.48
-7 -10 -6 51.84 9.39
-7 -10 -6 67.5 8.31
-7 -10 -6 64.68 11.05
-8 -10 -6 41.09 7.06
-9 -10 -6 12.03 5.13
-9 -10 -6 -1.77 7.4
-9 -10 -6 -7.27 5.57
-1 -11 -6 39.32 8.41
-1 -11 -6 42.97 10.58
1 11 6 58.51 8.9
-2 -11 -6 1.8 8.36
-2 -11 -6 13.12 6.75
2 11 6 18.3 6.75
-3 -11 -6 6.15 6.87
-3 -11 -6 6.45 7.88
3 11 6 2.99 6.09
-4 -11 -6 353.39 19.98
-4 -11 -6 313 18.98
4 11 6 310.37 18.29
-5 -11 -6 32.28 8.78
-5 -11 -6 19.9 8.02
-6 -11 -6 51.5 9.52
-6 -11 -6 49.37 9.44
-7 -11 -6 15.92 9.84
-7 -11 -6 18.08 8.33
-8 -11 -6 -3.52 10.73
-8 -11 -6 1.01 6.86
-4 -12 -6 27.85 8.56
-4 -12 -6 36.79 9.73
-5 -12 -6 3.82 7.62
-5 -12 -6 2.59 7.22
0 9 -7 9.11 5.43
0 9 -7 6.07 15.41
0 -9 7 4.8 4.51
0 -9 7 -3.95 6.74
-1 9 -7 0.11 17.27
1 -9 7 -6.31 9.93
1 -9 7 11.04 5.48
-2 9 -7 19.64 24.05
2 -9 7 26.24 8.03
2 -9 7 32.67 7.54
-3 9 -7 -8.99 20.21
3 -9 7 -11.66 6.75
3 -9 7 17.17 7.37
2 8 -7 10.55 13.09
-2 -8 7 -8.17 6.89
1 8 -7 57.66 13.14
1 8 -7 40.68 9.64
-1 -8 7 56.01 10.42
0 8 -7 7.77 10.05
0 8 -7 1.69 4.51
0 -8 7 6.14 6.34
0 -8 7 -2.51 6.18
-1 8 -7 14.23 11.42
1 -8 7 5.98 6.69
1 -8 7 17.36 6.04
-2 8 -7 18.89 12.65
2 -8 7 23.29 12.57
2 -8 7 24.32 7.63
-3 8 -7 27.53 13.29
3 -8 7 38.89 7.94
-4 8 -7 -21.89 11.97
4 -8 7 -2.81 5.44
4 -8 7 15.94 7.09
-5 8 -7 131.2 27.26
5 -8 7 154.96 10.84
5 -8 7 185.97 15.95
3 7 -7 80.74 14.05
-3 -7 7 46.54 10.07
2 7 -7 14.73 8.95
-2 -7 7 -5.78 6.44
1 7 -7 -2.66 3.73
1 7 -7 7.04 9.08
-1 -7 7 -2.23 7.33
0 7 -7 54.52 8.34
0 7 -7 47.36 12.66
0 -7 7 60.43 8.36
0 -7 7 52.18 9.76
-1 7 -7 31.77 12.18
1 -7 7 31.7 7.59
-2 7 -7 0.62 10.73
2 -7 7 9.77 5.82
2 -7 7 7.79 6.63
-3 7 -7 20.39 12.57
3 -7 7 33.35 7.44
-4 7 -7 148.69 22.21
4 -7 7 162.98 11.83
4 -7 7 175.89 14.36
-5 7 -7 71.82 16.52
5 -7 7 90.95 9.23
5 -7 7 93.06 12.99
-6 7 -7 7.57 12.24
6 -7 7 28.83 9.46
6 -7 7 28.63 5.33
-7 7 -7 24.82 20.68
4 6 -7 27.75 9.13
-4 -6 7 2.02 8.69
3 6 -7 20.4 9.04
-3 -6 7 0.25 7.03
2 6 -7 291.87 20.96
2 6 -7 229.58 9.75
-2 -6 7 265.18 17
1 6 -7 111.67 15.18
1 6 -7 109.36 8.5
-1 -6 7 115.85 13.91
0 6 -7 231.89 20.09
0 6 -7 233.34 16.37
-1 6 -7 103.88 10.42
-1 6 -7 108.91 15.57
1 -6 7 101.18 12.19
1 -6 7 109.62 10.06
-2 6 -7 13.26 11.08
2 -6 7 13.94 6.01
2 -6 7 7.71 6.44
-3 6 -7 388.14 26.27
3 -6 7 394.16 17.55
3 -6 7 401.52 18.35
-4 6 -7 244.2 23.45
4 -6 7 263.96 16.44
4 -6 7 274.76 14.1
-5 6 -7 15.01 12.95
5 -6 7 36.52 8.72
5 -6 7 29.6 5.74
-6 6 -7 5.29 12.38
6 -6 7 36.96 9.04
6 -6 7 21.2 4.48
-7 6 -7 105.29 18.59
7 -6 7 117.98 13.43
-8 6 -7 9.27 18.55
4 5 -7 41.84 10.75
-4 -5 7 29.08 9.73
3 5 -7 51.79 11.34
-3 -5 7 40.12 9.71
2 5 -7 2.6 7.86
2 5 -7 -2.33 3.88
-2 -5 7 -3.21 7.22
1 5 -7 73.27 17.21
1 5 -7 56.28 7
0 5 -7 225.53 19.23
0 5 -7 254.66 12.73
0 -5 7 239.98 12.48
0 -5 7 242.6 15.96
-1 5 -7 732.26 31.52
-1 5 -7 741.33 24.21
1 -5 7 704.02 23.66
1 -5 7 727.24 26.13
-2 5 -7 24.59 10.21
2 -5 7 26.15 7.41
2 -5 7 32.52 7.17
-3 5 -7 1.26 10.14
3 -5 7 3.56 5.83
3 -5 7 1.86 5.25
-4 5 -7 218.95 21.35
4 -5 7 211.72 14.72
4 -5 7 236.98 12.97
-5 5 -7 120.12 18.08
-6 5 -7 406.59 27.59
6 -5 7 391.14 14.25
6 -5 7 410.9 20.55
-7 5 -7 1.82 9.99
7 -5 7 21.7 8.23
7 -5 7 17.17 3.9
-8 5 -7 -2.74 10.15
8 -5 7 -3.24 6.98
-9 5 -7 -19.03 12.04
5 4 -7 3.62 8.38
-5 -4 7 -12.92 7.27
4 4 -7 3.37 7.55
-4 -4 7 -5.37 7.5
3 4 -7 21.75 9.16
3 4 -7 21.96 3.48
-3 -4 7 20.73 7.86
2 4 -7 39.09 4.42
-2 -4 7 15.3 8.67
1 4 -7 25.04 8.72
1 4 -7 36.88 7.09
1 4 -7 37.53 5.59
-1 -4 7 34.42 8.41
0 4 -7 1084.27 38.35
0 4 -7 1082.15 30.75
0 -4 7 1144.6 34.59
-1 4 -7 126.85 12.7
-1 4 -7 115.58 14.66
1 -4 7 112.66 11.22
1 -4 7 102.78 16.91
-2 4 -7 1021.2 30.53
-2 4 -7 997.03 36.61
2 -4 7 986.61 30.73
2 -4 7 978.54 29.92
-3 4 -7 18.24 10.03
3 -4 7 21.35 6.98
3 -4 7 11.47 6.17
-4 4 -7 24.13 10.9
4 -4 7 5.96 5.56
4 -4 7 15.36 6.81
-5 4 -7 -1.17 9.19
5 -4 7 4.94 4.27
5 -4 7 4.14 6.19
6 -4 7 71.74 6.89
6 -4 7 85.12 12.94
-7 4 -7 651.84 19.53
-7 4 -7 695.97 33.07
7 -4 7 729.24 27.79
-8 4 -7 25.76 11.56
8 -4 7 31.44 8.81
-9 4 -7 -13.22 10.92
9 -4 7 -2.78 7.63
5 3 -7 34.8 9.43
-5 -3 7 11.89 8.78
4 3 -7 155.78 7.14
4 3 -7 169.06 16.94
-4 -3 7 160.77 15.57
3 3 -7 43.71 11.88
-3 -3 7 45.3 9.74
2 3 -7 528.76 17.05
2 3 -7 569.83 25.88
2 3 -7 535.11 16.64
-2 -3 7 568.42 23.49
1 3 -7 375.43 14.44
1 3 -7 371.8 20.11
-1 -3 7 392.5 18.71
0 3 -7 43.21 6.57
0 3 -7 32.73 8.95
0 -3 7 45.18 8.3
-1 3 -7 524.52 19.12
-1 3 -7 503.04 23.95
1 -3 7 485.43 18.24
1 -3 7 503.42 19.61
-2 3 -7 183.08 11.95
-2 3 -7 192 16.98
2 -3 7 140.99 11.29
2 -3 7 156.49 12.09
-3 3 -7 155.91 16.42
3 -3 7 113.14 10.73
3 -3 7 127.15 11.05
-4 3 -7 83.73 13.58
4 -3 7 63.73 9.82
4 -3 7 69.5 10.66
-5 3 -7 338.22 22.37
5 -3 7 317.23 13.75
5 -3 7 324.29 16.68
-6 3 -7 -2.12 10.33
6 -3 7 7.79 4.03
6 -3 7 19.58 7.12
-7 3 -7 124.35 7.7
7 -3 7 166.51 21.17
7 -3 7 127.63 7.99
-8 3 -7 0.99 9.18
8 -3 7 -0.11 6.93
8 -3 7 2.81 2.57
-9 3 -7 -6.74 10.08
9 -3 7 -8.66 6.5
-10 3 -7 178.38 23.64
10 -3 7 185.76 17.35
5 2 -7 5.09 3.47
5 2 -7 6.88 7.92
-5 -2 7 -3.9 7.76
4 2 -7 6.93 8.08
4 2 -7 10.12 3.74
-4 -2 7 9.53 7.83
3 2 -7 45.19 10.15
3 2 -7 45.21 6.47
2 2 -7 107.41 13.38
2 2 -7 100.26 8.34
-2 -2 7 102.22 11.49
1 2 -7 449.4 21.68
1 2 -7 451.83 16.15
-1 -2 7 487.6 20.19
0 2 -7 -1.97 6.71
0 2 -7 0.94 3.96
0 -2 7 2.75 5.29
-1 2 -7 137.74 13.83
-1 2 -7 148.71 9.72
1 -2 7 136.48 11.35
-2 2 -7 411.33 22.38
-2 2 -7 359.99 18.82
2 -2 7 355.86 15.97
-3 2 -7 109.28 12.88
-3 2 -7 83.81 9.39
3 -2 7 81.56 9.27
3 -2 7 74.78 9.25
-4 2 -7 233.76 17.53
4 -2 7 222.76 13.92
4 -2 7 216.74 12.25
-5 2 -7 205.45 17.44
5 -2 7 193.79 10.87
5 -2 7 198.1 12.97
-6 2 -7 515.67 25.46
6 -2 7 533.05 17.37
6 -2 7 549.24 21.84
-7 2 -7 1837.87 56.46
7 -2 7 1735.74 43.55
7 -2 7 1836.15 50.48
-8 2 -7 -3.69 9.35
8 -2 7 -0.26 6.33
-9 2 -7 3.07 2.27
-9 2 -7 1.09 9.65
9 -2 7 -3.16 6.83
-10 2 -7 8.78 10.06
10 -2 7 5.2 6.96
5 1 -7 32.79 9.23
-5 -1 7 37.43 9.53
4 1 -7 -4.59 3.78
4 1 -7 1.79 7.48
-4 -1 7 -5.1 6.61
3 1 -7 334.58 13.74
3 1 -7 363.86 20.4
-3 -1 7 364.95 18.79
2 1 -7 512.88 17.71
2 1 -7 529.71 23.05
-2 -1 7 520.86 21.13
1 1 -7 779.88 23.58
1 1 -7 792.5 28.4
-1 -1 7 807.88 26.99
0 1 -7 272.04 16.04
0 1 -7 287.49 12.86
0 -1 7 284.14 14.81
-1 1 -7 50.17 10.38
-1 1 -7 46.54 7.07
1 -1 7 40.87 6.71
-2 1 -7 11.09 8.74
-2 1 -7 3.38 7.33
2 -1 7 20.21 5.78
-3 1 -7 882.16 43.32
-3 1 -7 860.88 26.69
3 -1 7 852.52 26.43
3 -1 7 871.86 27.11
-4 1 -7 52.4 8.03
-4 1 -7 64.03 10.91
4 -1 7 52.26 8.31
4 -1 7 42.02 6.4
-5 1 -7 12.18 5.31
-5 1 -7 11.55 7.13
5 -1 7 14.17 5.73
5 -1 7 7.83 4.21
-6 1 -7 123.75 15.54
6 -1 7 143.17 8.7
6 -1 7 155.12 11.93
-7 1 -7 636.97 29.16
7 -1 7 665.79 24.81
7 -1 7 634.42 19.62
-8 1 -7 35.39 10.06
8 -1 7 38.15 8.12
8 -1 7 38.19 5.07
-9 1 -7 5.79 9.81
-9 1 -7 9.3 4.06
9 -1 7 11.69 7.81
9 -1 7 10.75 3.34
-10 1 -7 269.14 22.89
-10 1 -7 263.91 11.31
10 -1 7 287.87 18.59
-11 1 -7 15.76 12.83
11 -1 7 27.75 8.53
5 0 -7 9.45 7.39
5 0 -7 0.62 3.91
-5 0 7 -5.3 6.65
4 0 -7 310.21 14.17
4 0 -7 367.82 23.54
-4 0 7 352.67 29.17
3 0 -7 449.59 21.63
3 0 -7 426.66 16.64
-3 0 7 458.05 20.55
2 0 -7 75.44 10.73
2 0 -7 64.87 13.12
-2 0 7 74.11 9.92
1 0 -7 33.16 7.47
1 0 -7 44.78 6.75
-1 0 7 46.57 8.01
0 0 -7 0.03 4.08
0 0 -7 -0.98 5.63
0 0 7 10.13 5.53
-1 0 -7 783.56 26.15
-1 0 -7 812.53 24.79
1 0 7 777.55 24.89
-2 0 -7 169.25 12.98
-2 0 -7 162.69 16.11
2 0 7 161.09 10.91
-3 0 -7 286.71 15.74
-3 0 -7 262.79 12.99
3 0 7 262.37 13.38
3 0 7 265.64 13.35
-4 0 -7 8.12 6.92
-4 0 -7 4.02 4.61
4 0 7 4.16 4.56
4 0 7 6.27 5.06
-5 0 -7 182.69 11.42
5 0 7 200.76 12.18
5 0 7 204.38 10.48
-6 0 -7 5.32 7.83
-6 0 -7 9.35 6.58
6 0 7 14.89 5.49
6 0 7 14.86 4.19
-7 0 -7 378.31 20.72
7 0 7 384.13 14.62
7 0 7 403.1 18.66
-8 0 -7 5.58 8.14
8 0 7 12.08 4.22
8 0 7 9.93 6.46
-9 0 -7 5.8 3.58
9 0 7 1.25 3.04
9 0 7 5.57 10.13
-10 0 -7 1.12 8.61
-10 0 -7 2.57 2.99
10 0 7 4.65 7.22
-11 0 -7 -1.97 7.94
11 0 7 13.1 7.28
5 -1 -7 21.82 5.8
5 -1 -7 25.56 7.86
-5 1 7 10.24 7.65
4 -1 -7 68.16 11.51
4 -1 -7 52.67 8.48
-4 1 7 50.7 10.19
3 -1 -7 497.51 22.16
3 -1 -7 516.56 19.25
-3 1 7 497.82 21.37
2 -1 -7 5.17 5.99
2 -1 -7 1.03 4.75
-2 1 7 -1.68 5.69
1 -1 -7 45.74 13.37
1 -1 -7 47.17 7.86
-1 1 7 49.43 7.64
0 -1 -7 663.96 22.78
0 -1 -7 700.04 23.09
0 1 7 695.05 23.44
-1 -1 -7 1.37 5.13
-1 -1 -7 14.68 8.57
1 1 7 13.21 5.47
1 1 7 1.7 6.09
-2 -1 -7 3030.23 79.61
-2 -1 -7 3174.72 74.3
2 1 7 3127.3 74.1
2 1 7 3084.96 74.71
-3 -1 -7 397.92 16.03
-3 -1 -7 401.57 17.43
3 1 7 382.86 15.86
3 1 7 391.46 15.4
-4 -1 -7 5.77 4.26
-4 -1 -7 2.82 6.07
4 1 7 0.16 3.89
4 1 7 2.78 4.44
4 1 7 -3.37 5.95
-5 -1 -7 189.89 11.61
-5 -1 -7 201.3 13.67
5 1 7 190.41 12.01
5 1 7 182.88 14.7
-6 -1 -7 2935.61 72.47
-6 -1 -7 2838.67 89.14
6 1 7 3031.29 72.74
6 1 7 2948.58 72.22
-7 -1 -7 833.32 30.56
-7 -1 -7 807.88 27.62
7 1 7 831 31.11
7 1 7 847.55 28.19
-8 -1 -7 10.73 5.86
-8 -1 -7 7.38 7.72
8 1 7 -6.01 6.66
8 1 7 3.29 6.44
-9 -1 -7 121.3 10.24
-9 -1 -7 124.82 11.93
-9 -1 -7 112.59 15.02
9 1 7 105.36 12.64
9 1 7 130.3 9.2
-10 -1 -7 40.87 10.79
-10 -1 -7 72.48 10.9
-10 -1 -7 57.8 7.74
10 1 7 53.53 9.67
-11 -1 -7 120.48 13.14
-11 -1 -7 123.34 18.1
11 1 7 117.01 14.06
5 -2 -7 11.29 5.69
5 -2 -7 28.85 8.11
-5 2 7 14.99 7.41
4 -2 -7 311.02 17.55
4 -2 -7 292.69 15.39
-4 2 7 308.89 17.01
3 -2 -7 168.93 11.86
3 -2 -7 186.8 13.33
-3 2 7 176.49 13.57
2 -2 -7 55.28 7.86
2 -2 -7 56.63 9.68
-2 2 7 63.31 8.99
1 -2 -7 603.9 21.39
1 -2 -7 578.37 21.17
-1 2 7 622.24 22.21
0 -2 -7 105.94 9.08
0 -2 -7 135.41 10.71
0 2 7 112.04 11.02
0 2 7 142.96 10.91
-1 -2 -7 995.72 29.46
1 2 7 1070.51 30.54
1 2 7 1000.45 29.83
-2 -2 -7 13.57 4.98
-2 -2 -7 26.16 5.74
2 2 7 16.42 5.48
2 2 7 17.34 5.1
-3 -2 -7 362.17 14.77
-3 -2 -7 372.54 15.05
3 2 7 354.38 15.08
3 2 7 338.03 13.9
-4 -2 -7 1756.99 45.6
-4 -2 -7 1743.21 49.08
4 2 7 1707.75 44.3
4 2 7 1746.26 44.74
-5 -2 -7 2582.07 63.11
-5 -2 -7 2626.73 63.61
-5 -2 -7 2489.27 61.7
5 2 7 2496.15 61.3
5 2 7 2475.36 61.65
-6 -2 -7 69.32 10.97
-7 -2 -7 346.99 17.7
-7 -2 -7 379.57 19.53
7 2 7 405.96 15.2
7 2 7 374.7 17.21
-8 -2 -7 82.45 12
-8 -2 -7 74.87 10.62
8 2 7 74.32 10.1
8 2 7 72 8
-9 -2 -7 51.92 10.59
-9 -2 -7 57.9 8.96
-9 -2 -7 51.57 7.45
9 2 7 52.99 8.81
9 2 7 55.31 7.3
-10 -2 -7 7.65 8.96
-10 -2 -7 13.63 4.57
-10 -2 -7 24.5 8.56
10 2 7 12.15 8.78
-11 -2 -7 10.33 10.21
-11 -2 -7 12.87 5.02
-11 -2 -7 14.65 7.13
11 2 7 14.81 6.97
5 -3 -7 11.72 6
-5 3 7 17.61 7.18
4 -3 -7 115.08 11.26
4 -3 -7 148.76 13.65
-4 3 7 115.85 12.65
3 -3 -7 101.05 10.64
3 -3 -7 114.4 11.64
-3 3 7 116.22 11.9
2 -3 -7 361.59 17.16
2 -3 -7 370.82 17.26
-2 3 7 383.51 17.54
1 -3 -7 164.26 12.31
1 -3 -7 163.2 10.81
-1 3 7 158.71 11.27
0 -3 -7 539.37 20.18
0 3 7 532.68 19.79
0 3 7 485.76 18.73
-1 -3 -7 373.06 13.49
-1 -3 -7 407.77 17.12
1 3 7 401.37 16.58
1 3 7 388.47 15.28
-2 -3 -7 1442.55 38.53
-2 -3 -7 1348.34 34.37
2 3 7 1420.34 38.17
2 3 7 1410.16 35.47
-3 -3 -7 290.2 14.14
-3 -3 -7 293.49 11.68
3 3 7 288.51 13.92
3 3 7 284.85 11.08
-4 -3 -7 322.17 12.16
-4 -3 -7 342.32 14.03
-4 -3 -7 337.42 15.32
4 3 7 331.39 14.47
4 3 7 317.48 12.14
-5 -3 -7 170.83 11.55
-5 -3 -7 144.96 11
-5 -3 -7 157.36 9.52
5 3 7 178.83 11.08
-6 -3 -7 5630.06 129.03
-6 -3 -7 5657.22 129.3
6 3 7 5614.48 127.42
-7 -3 -7 1451.07 40.99
-7 -3 -7 1436.49 42.43
7 3 7 1437.5 38.63
7 3 7 1461.48 40.81
-8 -3 -7 82.75 10.68
-8 -3 -7 72.06 12.56
-8 -3 -7 65.44 8.94
8 3 7 92.79 11.27
8 3 7 80.07 8.84
-9 -3 -7 197.15 11.64
-9 -3 -7 197.35 13.86
-9 -3 -7 192.27 15.96
9 3 7 204.35 14.07
9 3 7 201.06 11.73
-10 -3 -7 22.92 7.95
-10 -3 -7 25.49 11.15
-10 -3 -7 24.61 5.78
10 3 7 29.51 9.15
-11 -3 -7 41.34 11.55
-11 -3 -7 57.36 9.86
-11 -3 -7 55.79 8.53
11 3 7 42.12 9.07
-5 4 7 15.08 7.8
4 -4 -7 10.49 6.72
-4 4 7 19.53 6.93
3 -4 -7 17 7.86
3 -4 -7 26.53 7.31
-3 4 7 19.57 6.6
2 -4 -7 14.02 6.57
2 -4 -7 5.83 6.03
-2 4 7 12.71 6.15
1 -4 -7 503.18 17.93
1 -4 -7 514.47 20.81
-1 4 7 524.87 20.02
-1 4 7 458.05 17.88
0 -4 -7 -3.8 5.91
0 -4 -7 -1.3 3.5
0 4 7 5.36 5.2
0 4 7 -0.45 4.94
-1 -4 -7 254.31 13.64
1 4 7 248.17 12.85
1 4 7 229.57 10.62
-2 -4 -7 355.91 10.83
-2 -4 -7 404.08 17.05
2 4 7 364.81 11.41
2 4 7 367.8 16.06
-3 -4 -7 2284.17 50.59
-3 -4 -7 2202.47 50.39
-3 -4 -7 2223.45 56.73
3 4 7 2368.18 56.89
3 4 7 2219.09 50.68
-4 -4 -7 13.43 5.82
-4 -4 -7 27.1 4.34
-4 -4 -7 38.57 7.04
4 4 7 23.37 5.4
-5 -4 -7 1736.1 46.59
-5 -4 -7 1659.74 41.96
-5 -4 -7 1795.09 43.76
5 4 7 1790.05 45.71
-6 -4 -7 106.02 11.64
-6 -4 -7 140.96 8.7
6 4 7 121.5 10.38
-7 -4 -7 140.44 12.2
-7 -4 -7 124.4 11.84
7 4 7 135.83 10.97
-8 -4 -7 469.92 19.12
-8 -4 -7 520.19 20.76
-8 -4 -7 494.07 21.29
8 4 7 472.69 18.64
-9 -4 -7 84.55 9.45
-9 -4 -7 80.95 11.92
-9 -4 -7 91.89 10.98
9 4 7 91.94 9.66
-10 -4 -7 114.56 14.09
-10 -4 -7 105.7 9.94
-10 -4 -7 98.92 12.21
10 4 7 106.06 11.7
-11 -4 -7 44.68 11.08
-11 -4 -7 32.57 6.59
-11 -4 -7 40.05 8.46
11 4 7 38.31 8.45
4 -5 -7 5.49 6.9
-4 5 7 10.68 6.84
-4 5 7 9.93 6.15
3 -5 -7 24.58 6.84
3 -5 -7 7.67 6.93
-3 5 7 17.6 6.49
-3 5 7 24.14 6.65
2 -5 -7 318.99 15.34
-2 5 7 331.64 15.41
-2 5 7 332.58 16.33
1 -5 -7 391.78 18.35
-1 5 7 367.2 16.77
-1 5 7 335.43 14.27
0 -5 -7 179.32 8.69
0 -5 -7 194.56 12.93
0 5 7 197.49 11.85
0 5 7 174.44 9.61
-1 -5 -7 -3.24 5.49
1 5 7 -0.45 4.9
-2 -5 -7 546.79 20.98
2 5 7 576.57 20.83
-3 -5 -7 688.53 23.66
3 5 7 677.92 23.07
-4 -5 -7 91.72 11.13
4 5 7 119.55 9.8
-5 -5 -7 506.81 20.42
-5 -5 -7 532.13 17.03
-5 -5 -7 511.59 14.44
5 5 7 504.63 19.18
-6 -5 -7 26.25 7.09
-6 -5 -7 39.95 7.02
6 5 7 35.74 6.5
-7 -5 -7 947.46 28.68
-7 -5 -7 917.51 28.95
-7 -5 -7 918.75 29.61
7 5 7 915.65 28.93
-8 -5 -7 1.06 6.46
-8 -5 -7 -9.66 5.04
-8 -5 -7 -2.08 4.92
8 5 7 -0.92 4.91
-9 -5 -7 162.66 13.05
-9 -5 -7 160.63 13.76
-9 -5 -7 143.3 11.5
9 5 7 140.07 11.38
-10 -5 -7 16.63 5.97
-10 -5 -7 16.28 8.13
-10 -5 -7 21.68 7.2
-11 -5 -7 6.96 11.18
-11 -5 -7 30.81 9.9
-11 -5 -7 19.45 6.47
4 -6 -7 -0.41 6.75
-4 6 7 -3.91 6.36
-4 6 7 8.72 5.4
3 -6 -7 95.78 13.49
3 -6 -7 148.39 11.2
-3 6 7 109.11 11.49
-3 6 7 125.08 12.91
2 -6 -7 115.48 13.02
2 -6 -7 114.22 9.5
-2 6 7 128.67 11.5
-2 6 7 112.61 10.15
1 -6 -7 11.85 9
-1 6 7 -0.58 5.21
-1 6 7 6.41 3.86
0 -6 -7 11.75 6.72
0 6 7 6.41 3.77
0 6 7 12.17 6
0 6 7 14.74 3.86
-1 -6 -7 330.39 17.78
1 6 7 335.5 15.96
-2 -6 -7 1708.4 46.73
2 6 7 1670.8 45.38
-3 -6 -7 1360.61 39.3
3 6 7 1402.58 38.99
-4 -6 -7 33.32 7.32
4 6 7 25.76 6.33
-5 -6 -7 16.72 6.59
5 6 7 3.15 5.48
-6 -6 -7 337.73 11.16
-6 -6 -7 330.42 12.47
-6 -6 -7 308.09 16
6 6 7 328.11 15.57
-7 -6 -7 43.08 10.38
-7 -6 -7 33.79 7.71
-7 -6 -7 33.91 6.82
7 6 7 35.9 7.19
-8 -6 -7 45.2 8.47
-8 -6 -7 47.9 9.21
-8 -6 -7 61.54 9.85
8 6 7 56.31 8.5
-9 -6 -7 32.01 7.7
-9 -6 -7 36.34 8.4
-10 -6 -7 6.36 6.39
-10 -6 -7 10.27 6.05
-10 -6 -7 24.8 7.99
-11 -6 -7 -3.94 7.05
-11 -6 -7 4.33 5.45
3 -7 -7 3.09 7.31
-3 7 7 19.77 6.25
-3 7 7 2.74 6.04
2 -7 -7 149.52 14.95
-2 7 7 126.85 10.23
-2 7 7 153.89 12.43
1 -7 -7 28.63 7.83
-1 7 7 20.86 6.48
-1 7 7 22.78 4.52
0 -7 -7 352.2 18.37
0 7 7 338.72 16.41
-1 -7 -7 10.81 7.21
1 7 7 11.79 6.05
-2 -7 -7 51.44 9.16
2 7 7 71.42 9.06
-3 -7 -7 112.59 12.74
3 7 7 96.65 11.18
-4 -7 -7 162.84 12.5
4 7 7 165.62 12.09
-5 -7 -7 302.04 16.31
5 7 7 285.46 15.81
-6 -7 -7 327.57 10.46
-6 -7 -7 342.8 11.12
-6 -7 -7 374.15 17.5
-6 -7 -7 353.84 17.11
6 7 7 360.23 17.26
-7 -7 -7 191.12 13.18
-7 -7 -7 172.94 10.33
-7 -7 -7 161.07 13.78
7 7 7 179.35 12.46
-8 -7 -7 48.9 8.7
-8 -7 -7 64.63 10.19
-8 -7 -7 46.62 8.89
8 7 7 57.44 9.01
-9 -7 -7 3.53 5.33
-9 -7 -7 4.14 5.92
-9 -7 -7 5.3 6.17
9 7 7 4.68 5.74
-10 -7 -7 46.46 9.39
-10 -7 -7 33.97 7.67
-10 -7 -7 42.28 8.7
10 7 7 44.93 8.83
-11 -7 -7 -9.16 11.04
-11 -7 -7 5.63 7.56
-11 -7 -7 -3.91 4.95
11 7 7 6.27 6.68
2 -8 -7 55.48 11.16
-2 8 7 62.09 10
1 -8 -7 108.04 14.09
-1 8 7 117.01 12.27
0 -8 -7 22.23 8.68
0 8 7 34.73 7.24
-1 -8 -7 202.13 15.76
1 8 7 207.12 13.68
-2 -8 -7 550.89 23.78
2 8 7 554.45 21.9
-3 -8 -7 480.22 21.97
3 8 7 472.28 20.19
-4 -8 -7 45.71 9.11
4 8 7 36.15 8
-5 -8 -7 -0.9 5.85
-5 -8 -7 -0.04 6.38
5 8 7 5.25 7.08
-6 -8 -7 652.79 28.28
-6 -8 -7 690.83 24.97
6 8 7 640.2 27.58
-7 -8 -7 70.62 11.67
-7 -8 -7 63.71 7.05
-7 -8 -7 67.99 11.57
-7 -8 -7 74.19 6.72
7 8 7 75.25 10.08
-8 -8 -7 128.46 9.85
-8 -8 -7 109.4 11.71
-8 -8 -7 128.39 12.82
8 8 7 111.3 11.06
-9 -8 -7 2.84 6.51
-9 -8 -7 -2.6 5.81
-9 -8 -7 8.14 5.52
9 8 7 11.35 5.34
-10 -8 -7 -1.5 5.74
-10 -8 -7 -6.23 6.06
10 8 7 4.83 5.52
1 -9 -7 5.37 7.97
-1 9 7 11.94 6.87
0 -9 -7 96.02 13.76
0 9 7 93.26 15.97
-1 -9 -7 2.92 7.18
-2 -9 -7 58.17 10.31
2 9 7 30.95 11.88
-3 -9 -7 485.91 21.51
-3 -9 -7 481.43 22.37
3 9 7 457.96 22.04
-4 -9 -7 381.95 20.11
-4 -9 -7 420.35 19.89
4 9 7 364.59 18.19
-5 -9 -7 181.07 24.19
-5 -9 -7 165.26 13.27
5 9 7 158.68 13.68
-6 -9 -7 32.13 7.76
-6 -9 -7 32.3 8.35
6 9 7 21.32 7.32
-7 -9 -7 -0.85 5.94
-7 -9 -7 3.05 6.06
7 9 7 6.72 5.89
-8 -9 -7 22.37 7.01
-8 -9 -7 22.96 7.48
-8 -9 -7 30.87 7.29
8 9 7 24.32 7.64
-9 -9 -7 -5.87 5.81
-9 -9 -7 -3.14 5.23
-9 -9 -7 -1.82 4.8
-10 -9 -7 -1.52 5.9
-10 -9 -7 -1.61 5.58
0 -10 -7 22.03 6.8
0 10 7 28.5 7.22
-1 -10 -7 9.3 8.18
-1 -10 -7 12.25 6.01
1 10 7 9.42 6.11
-2 -10 -7 124.27 14.79
-2 -10 -7 130.78 12.93
2 10 7 126.68 12.59
-3 -10 -7 3.79 6.51
-3 -10 -7 1.92 7.24
3 10 7 5.54 6.2
-4 -10 -7 13.05 7.98
-4 -10 -7 6.47 7.08
4 10 7 5.97 6.81
-5 -10 -7 2.37 7.56
-5 -10 -7 -0.07 6.39
5 10 7 7.3 6.99
-6 -10 -7 164.12 14.36
-6 -10 -7 179.99 15.12
6 10 7 176.88 14.79
-7 -10 -7 104.17 13.07
-7 -10 -7 117.95 13.62
7 10 7 108.41 12.83
-8 -10 -7 63.41 10.69
-8 -10 -7 37.93 9.07
-9 -10 -7 -5.86 7.08
-2 -11 -7 21.98 7.71
-2 -11 -7 35.79 11
2 11 7 30.87 7.53
-3 -11 -7 347.97 19.97
-3 -11 -7 357.46 21.12
3 11 7 346.3 19.21
-4 -11 -7 437.92 22.43
-4 -11 -7 415.8 21.79
4 11 7 406.56 20.97
-5 -11 -7 13.75 7.49
-5 -11 -7 9.96 8.12
5 11 7 14.85 7.18
-6 -11 -7 31.59 8.73
-6 -11 -7 34.34 8.28
6 11 7 35.82 8.43
-7 -11 -7 56.13 16.08
-7 -11 -7 61.12 10.26
0 8 -8 16.08 11.34
0 8 -8 22 5.93
0 -8 8 22.63 9.21
0 -8 8 23.63 6
-1 8 -8 0.04 5.65
1 -8 8 -3.79 7.2
1 -8 8 5.38 5.39
-2 8 -8 -9.11 16.21
2 -8 8 -5.57 7.07
2 -8 8 19.18 10.37
3 -8 8 4.39 6.7
3 -8 8 18.1 7.13
-4 8 -8 13.34 13.81
4 -8 8 15.65 8.06
4 -8 8 33.86 8.85
2 7 -8 13.36 9.78
1 7 -8 114.31 16.98
-1 -7 8 77.92 12.02
0 7 -8 55.76 12.99
0 7 -8 48.73 7.99
0 -7 8 39.84 9.16
-1 7 -8 10.73 10
-1 7 -8 4.63 5.73
1 -7 8 7.2 5.58
1 -7 8 -1.95 7.08
-2 7 -8 12.01 10.94
2 -7 8 7.3 7.15
2 -7 8 2.17 5.9
-3 7 -8 -5.33 9.74
3 -7 8 6.43 6.66
3 -7 8 -7.51 9.74
-4 7 -8 61.78 15.66
4 -7 8 101.16 13.56
4 -7 8 70.05 11.24
-5 7 -8 -9.46 11.99
5 -7 8 7.57 7.44
5 -7 8 -4.56 6.67
6 -7 8 1.56 7.56
6 -7 8 3.24 5.39
2 6 -8 104.56 16.4
-2 -6 8 68.64 12.02
1 6 -8 8.72 9.29
1 6 -8 -5.66 3.79
-1 -6 8 -5.82 6.65
0 6 -8 43.39 6.81
0 6 -8 48.01 12.45
0 -6 8 35.03 8.77
-1 6 -8 94.53 17.19
-1 6 -8 59.14 8.48
1 -6 8 61.47 10.25
1 -6 8 77.85 9.99
-2 6 -8 -0.71 5.72
-2 6 -8 -6.8 10.47
2 -6 8 -4.04 9.31
2 -6 8 11.87 5.73
-3 6 -8 38.31 13.27
3 -6 8 42.99 8.2
3 -6 8 41.35 7.82
-4 6 -8 -10.74 11.42
4 -6 8 -1.8 5.67
4 -6 8 6.41 6.69
-5 6 -8 18.83 12.96
5 -6 8 30.07 8.87
5 -6 8 32.55 6.58
-6 6 -8 19.41 13.67
6 -6 8 33.71 5.76
6 -6 8 30.6 9.37
-7 6 -8 149.33 24.6
7 -6 8 143.89 15.82
3 5 -8 131.5 16.61
-3 -5 8 98.85 13.9
2 5 -8 285.93 21.41
2 5 -8 242.87 12.45
-2 -5 8 275.61 18.16
1 5 -8 295.99 21.51
1 5 -8 265.85 12.49
-1 -5 8 297.62 19.04
0 5 -8 244.11 13.11
0 5 -8 250.69 19.39
0 -5 8 246.27 17.53
-1 5 -8 205.65 13.48
-1 5 -8 225.41 20.27
1 -5 8 242.5 26.16
1 -5 8 214.57 13.41
-2 5 -8 112.09 11.64
-2 5 -8 117.72 16.43
2 -5 8 109.8 11.09
2 -5 8 108.89 12.46
-3 5 -8 186.22 20.88
3 -5 8 190.99 13.49
3 -5 8 201.4 13.73
-4 5 -8 55.45 13.05
4 -5 8 63.16 8.61
4 -5 8 69.78 10.95
-5 5 -8 -14.95 10.05
5 -5 8 -1.86 4.69
5 -5 8 -4.46 6.14
-6 5 -8 6.74 11.63
6 -5 8 4.85 6.98
6 -5 8 4.07 4.05
-7 5 -8 9.44 12.6
7 -5 8 7.64 7.9
7 -5 8 15.33 3.98
-8 5 -8 42.95 15.78
8 -5 8 46.16 10.89
-4 -4 8 40.44 11.35
3 4 -8 18.33 8.76
-3 -4 8 2.22 7.35
2 4 -8 153.17 9.25
2 4 -8 194.06 18.04
-2 -4 8 174.26 14.84
1 4 -8 8.06 4.77
1 4 -8 22.52 9.68
-1 -4 8 11.44 7.81
0 4 -8 395.39 16.31
-1 4 -8 469.09 18.84
-1 4 -8 457.29 25.16
1 -4 8 476.74 21.39
-2 4 -8 9.69 6.15
-2 4 -8 -1.89 9.87
2 -4 8 4.09 6.9
2 -4 8 13.27 5.95
-3 4 -8 495.72 20.96
-3 4 -8 492.71 26.16
3 -4 8 503.72 20.41
3 -4 8 504.93 20.68
-4 4 -8 53.92 14.03
4 -4 8 78.72 9.92
4 -4 8 71.25 10.63
-5 4 -8 -4.17 15.8
5 -4 8 4.43 4.89
5 -4 8 1.6 6.6
-6 4 -8 28.44 11.84
6 -4 8 31.1 8.65
6 -4 8 38.17 5.91
-7 4 -8 77.4 14.85
7 -4 8 78.95 11.74
7 -4 8 84.47 7.26
-8 4 -8 -1.97 11.47
8 -4 8 -5.34 6.97
8 -4 8 5.58 3.28
-9 4 -8 -8.29 11.97
9 -4 8 3.76 11.5
4 3 -8 200.45 18.07
-4 -3 8 159.09 16.51
3 3 -8 10.66 4.04
3 3 -8 26.78 8.82
-3 -3 8 12.54 8.41
2 3 -8 13.88 4.78
2 3 -8 21.49 9.04
-2 -3 8 22.1 8.52
1 3 -8 84.1 14.07
1 3 -8 66.89 8.47
-1 -3 8 81.16 11.66
0 3 -8 161.6 16.4
0 3 -8 164.13 11.44
0 -3 8 163.48 14.48
-1 3 -8 66.13 9.45
-1 3 -8 75.05 14.53
1 -3 8 63.79 9.86
-2 3 -8 166.09 16.15
-2 3 -8 159.2 12.17
2 -3 8 165.21 13.64
2 -3 8 153.32 11.87
-3 3 -8 57.36 8.76
-3 3 -8 64.26 12.9
3 -3 8 63.68 10.46
3 -3 8 53.04 8.45
-4 3 -8 361.74 23.54
-4 3 -8 379.77 18.28
4 -3 8 368.13 16.67
4 -3 8 353.17 17.42
-5 3 -8 195.35 20.4
5 -3 8 233.03 15.06
5 -3 8 231.53 12.85
-6 3 -8 16.09 10.61
6 -3 8 19.46 8.55
6 -3 8 13.81 4.89
-7 3 -8 -6.2 9.71
7 -3 8 7.88 4.48
7 -3 8 -6.43 6.78
-8 3 -8 5.89 10.13
8 -3 8 1.61 7.32
-9 3 -8 28.21 13.11
9 -3 8 26.5 9.04
-10 3 -8 28.34 21.73
4 2 -8 22.7 7.94
4 2 -8 3.2 3.69
-4 -2 8 5.07 7.87
3 2 -8 72.93 13.2
3 2 -8 42.46 6.96
-3 -2 8 43.91 10.16
2 2 -8 402.45 21.66
2 2 -8 441.91 25.47
-2 -2 8 439.77 21.51
1 2 -8 531.15 24.95
-1 -2 8 528.79 24.12
0 2 -8 17.29 8.71
0 2 -8 17.15 5.69
0 -2 8 12.6 7.4
-1 2 -8 306.35 14.63
-1 2 -8 299.61 19.22
1 -2 8 299.19 16.84
-2 2 -8 2154.06 55.46
-2 2 -8 2129.42 59.89
2 -2 8 2209.32 56.49
-3 2 -8 2127.77 55.58
-3 2 -8 2132.2 60.39
3 -2 8 2126.33 55.15
3 -2 8 2163.85 55.28
-4 2 -8 110.06 14.69
-4 2 -8 130.18 11.45
4 -2 8 112.7 11.07
4 -2 8 108.2 10.7
-5 2 -8 73.98 13.08
-5 2 -8 97.31 10.28
5 -2 8 97.92 9.47
5 -2 8 86.73 11.09
-6 2 -8 -2.51 9.18
6 -2 8 -1.55 6.14
6 -2 8 2.63 4.17
-7 2 -8 88.03 14.9
7 -2 8 93.77 13.34
-8 2 -8 -10.35 9.15
8 -2 8 -8.06 6.36
8 -2 8 1.49 3.13
-9 2 -8 -9.67 9.89
9 -2 8 4.16 2.8
9 -2 8 -5.68 6.64
-10 2 -8 0.49 11.45
10 -2 8 9.13 8.42
4 1 -8 99.85 8.36
-4 -1 8 114.01 14.46
3 1 -8 94.19 8.83
3 1 -8 128.92 14.71
-3 -1 8 101.49 13.59
2 1 -8 208.37 16.75
2 1 -8 175.83 11.32
-2 -1 8 203.86 16.19
1 1 -8 108.83 9.92
1 1 -8 112.72 13.33
-1 -1 8 108.45 11.84
0 1 -8 109.32 9.96
0 1 -8 122.65 13.38
0 -1 8 115.81 11.63
-1 1 -8 120.83 14.01
-1 1 -8 116.6 10.22
1 -1 8 134.49 12.47
-2 1 -8 152.17 14.83
-2 1 -8 122.6 11.59
2 -1 8 150.68 12.68
-3 1 -8 219.96 14.01
-3 1 -8 264.96 18.27
3 -1 8 284.72 14.94
3 -1 8 263.27 14.23
-4 1 -8 85.68 13.9
-4 1 -8 89.64 10.37
4 -1 8 69.87 9.56
4 -1 8 92.42 10.23
-5 1 -8 0.58 5.24
-5 1 -8 -7.13 7.73
5 -1 8 -0.76 4.9
-6 1 -8 0.15 8.66
-6 1 -8 -0.41 6.02
6 -1 8 4.45 4.43
6 -1 8 -3.55 5.85
-7 1 -8 220.99 19.11
7 -1 8 191.48 14.39
7 -1 8 225.39 11.45
-8 1 -8 32.43 12.16
8 -1 8 34.26 9.04
-9 1 -8 7.87 8.84
9 -1 8 13.9 3.66
9 -1 8 5.43 7.1
-10 1 -8 18.72 3.77
-10 1 -8 1.49 9.47
10 -1 8 15.12 3.74
10 -1 8 12.96 7.23
4 0 -8 54.43 8.21
-4 0 8 57.92 10.39
3 0 -8 253.25 13.6
3 0 -8 306.79 19.51
-3 0 8 268.73 17.31
2 0 -8 323.28 15.24
2 0 -8 346.01 18.99
-2 0 8 369.57 29.62
1 0 -8 603.82 24.16
1 0 -8 617.32 21.35
-1 0 8 579.61 23.08
0 0 -8 36.42 8.1
0 0 -8 47.82 7.37
0 0 8 39.61 8.11
-1 0 -8 591.67 23.81
-1 0 -8 648.69 22.34
1 0 8 653.55 23.62
-2 0 -8 5131.82 118.94
2 0 8 5211.92 119.61
-3 0 -8 1387.79 39.22
3 0 8 1413.78 39.16
-4 0 -8 6.62 5.69
-4 0 -8 6.19 7.85
4 0 8 6.14 5.34
4 0 8 3.4 5.03
-5 0 -8 172.23 11.83
-5 0 -8 145.62 15.1
5 0 8 168.08 10.82
5 0 8 178.46 12.33
-6 0 -8 27.55 7.56
-6 0 -8 25.65 9.07
6 0 8 31.79 5.76
6 0 8 23.07 7.11
-7 0 -8 489.23 24.73
-7 0 -8 520.78 22.13
7 0 8 499.23 17.95
7 0 8 485.17 21.23
-8 0 -8 4.67 8.58
8 0 8 0.82 10.91
-9 0 -8 14.93 9.81
-9 0 -8 25.47 7.81
9 0 8 19.9 7.84
9 0 8 20.57 4.42
-10 0 -8 6.94 9.89
10 0 8 11.11 4.41
10 0 8 9.22 7.26
-11 0 -8 1.5 10.14
11 0 8 22.65 7.91
4 -1 -8 21.41 6.94
-4 1 8 14.99 8.12
3 -1 -8 32.58 7.22
-3 1 8 32 7.82
2 -1 -8 12.03 6.06
2 -1 -8 23.11 7.33
-2 1 8 3.36 6.28
1 -1 -8 148.42 12.78
1 -1 -8 154.55 11.95
-1 1 8 144.67 13.33
0 -1 -8 215.04 13.68
0 -1 -8 232.34 13.9
0 1 8 243.87 14.35
-1 -1 -8 271.18 15.03
-1 -1 -8 301.83 15.7
1 1 8 316.4 16.22
-2 -1 -8 104.86 11.19
-2 -1 -8 105.95 11.65
-3 -1 -8 1593.98 43.28
-3 -1 -8 1576.92 43.89
3 1 8 1591.47 43.16
-4 -1 -8 587.13 21.83
-4 -1 -8 609.22 23.78
4 1 8 599.6 21.33
-5 -1 -8 8.95 5.57
-5 -1 -8 15.65 8.23
5 1 8 11.55 5.75
5 1 8 7.48 4.95
-6 -1 -8 15.44 6.17
-6 -1 -8 13.27 7.97
6 1 8 13.86 4.76
6 1 8 17.4 6.64
-7 -1 -8 113.03 11.41
-7 -1 -8 128.69 14.5
7 1 8 136.75 10.08
7 1 8 110.74 12.4
-8 -1 -8 34.83 10.1
-8 -1 -8 33.86 7.87
8 1 8 23.2 5.22
8 1 8 21.7 7.56
-9 -1 -8 -2.64 7.46
-9 -1 -8 9.48 6.48
9 1 8 3.57 3.7
9 1 8 -5.42 6.07
-10 -1 -8 17.28 4.62
-10 -1 -8 24.71 8.21
-10 -1 -8 14.3 9.98
10 1 8 11.95 7.14
10 1 8 16.16 4.4
-11 -1 -8 4.51 7.12
-11 -1 -8 -3.6 3.39
11 1 8 5.76 6.96
4 -2 -8 210.36 15.44
4 -2 -8 252.22 16.6
-4 2 8 229.87 16.32
3 -2 -8 183.65 13.83
3 -2 -8 149.6 11.94
-3 2 8 167.26 14.3
2 -2 -8 3.1 5.53
2 -2 -8 -6.58 5.05
-2 2 8 -5.05 6.09
1 -2 -8 600.56 22.39
1 -2 -8 601.97 22.44
-1 2 8 588.29 22.77
0 -2 -8 -4.89 5.66
0 -2 -8 -4.88 4.74
0 2 8 -5.65 5.5
-1 -2 -8 2014.23 52.73
-1 -2 -8 1989.19 51.34
1 2 8 2113.79 53.84
-2 -2 -8 2167.19 55.02
-2 -2 -8 2089.55 53.02
2 2 8 2198.77 55.22
2 2 8 2060.99 53.97
-3 -2 -8 19.93 6.48
-3 -2 -8 22.24 6.42
3 2 8 18.37 6.63
3 2 8 11.62 5.22
-4 -2 -8 73.48 9.74
4 2 8 51.31 7.49
4 2 8 47.13 7.82
-5 -2 -8 1349.53 39.38
-5 -2 -8 1354.39 38.81
5 2 8 1336.52 37.42
-6 -2 -8 624.84 24.77
-6 -2 -8 616.86 23.62
6 2 8 621.51 21.23
6 2 8 629.99 22.85
-7 -2 -8 630.15 25.85
-7 -2 -8 614.95 23.73
7 2 8 625.51 21.44
7 2 8 621.08 23.96
-8 -2 -8 291.63 18.24
-8 -2 -8 312.7 17.07
8 2 8 284.33 16.6
8 2 8 291.66 13.81
-9 -2 -8 -5.65 6.91
-9 -2 -8 -5.79 3.72
9 2 8 2.87 3.7
-10 -2 -8 20.49 5.42
-10 -2 -8 18.87 8.09
-10 -2 -8 16.14 9.48
10 2 8 12.78 7.04
10 2 8 19.31 4.86
-11 -2 -8 86.84 8.77
-11 -2 -8 100.33 13.04
-11 -2 -8 77.49 14.1
11 2 8 87.43 12.31
4 -3 -8 60.94 10.19
-4 3 8 83.28 12.23
3 -3 -8 16.18 6.14
-3 3 8 -2.07 6.33
2 -3 -8 100.71 11.56
2 -3 -8 116.35 11.59
-2 3 8 109.57 12.5
1 -3 -8 302.32 16.3
1 -3 -8 292.3 16.83
-1 3 8 325.04 17.17
0 -3 -8 193.09 13.72
0 -3 -8 186.48 11.37
0 3 8 185.42 12.79
-1 -3 -8 228.6 14.43
1 3 8 226.11 13.35
1 3 8 189.11 12.42
-2 -3 -8 318.89 13.09
-2 -3 -8 356.51 16.05
2 3 8 333.83 15.96
2 3 8 304.53 14.82
-3 -3 -8 4662.24 106.09
-3 -3 -8 4819.2 110.42
3 3 8 4557.17 106.31
3 3 8 4853.95 110.15
-4 -3 -8 28.57 7.11
-4 -3 -8 38.71 7.03
4 3 8 24.24 6.28
4 3 8 31.15 6.42
-5 -3 -8 193.01 13.48
-5 -3 -8 163.64 10.06
5 3 8 177.01 11.65
5 3 8 151.63 9.63
-6 -3 -8 692.35 24.98
-6 -3 -8 696.68 25.37
6 3 8 697.14 23.41
-7 -3 -8 14.65 6.98
-7 -3 -8 21.4 13.02
7 3 8 19.95 5.82
-8 -3 -8 70.82 10.89
-8 -3 -8 74.71 10.79
8 3 8 68.45 8.71
8 3 8 69.95 10.04
-9 -3 -8 24.08 8.71
-9 -3 -8 16.92 5.44
-9 -3 -8 26.35 8.35
9 3 8 15.04 8.25
9 3 8 25.76 5.73
-10 -3 -8 98.2 12.2
-10 -3 -8 84.49 9.76
-10 -3 -8 96.26 15.75
10 3 8 106.65 10.05
10 3 8 106.44 12.51
-11 -3 -8 21.48 8.09
-11 -3 -8 17.4 5.5
-11 -3 -8 8.25 9.38
11 3 8 14.79 7.9
4 -4 -8 94.7 12.87
-4 4 8 101.39 12.16
3 -4 -8 -0.91 5.8
-3 4 8 4.9 6.24
2 -4 -8 161 12.1
2 -4 -8 147.85 16.19
-2 4 8 159.22 13.6
1 -4 -8 182.76 14.25
1 -4 -8 193.01 11.82
-1 4 8 200.57 14.07
0 -4 -8 -5.84 5.86
0 4 8 -9.75 5.52
0 4 8 3.93 6.01
-1 -4 -8 271.72 15.86
-1 -4 -8 252.5 10.86
1 4 8 252.53 12.28
1 4 8 277.19 15.36
-2 -4 -8 140.27 10.19
-2 -4 -8 179.39 13.38
2 4 8 136.09 8.29
2 4 8 141.91 12.63
-3 -4 -8 382.85 17.56
3 4 8 332.17 11.65
3 4 8 357.06 16.54
-4 -4 -8 315.74 12.22
-4 -4 -8 322.14 16.62
-4 -4 -8 313.35 11.21
4 4 8 308.33 15.32
4 4 8 306.43 11.15
-5 -4 -8 2274.8 55.84
-5 -4 -8 2372.85 57.45
-5 -4 -8 2419.12 61.47
5 4 8 2471.7 60.8
-6 -4 -8 2380.39 61.07
-6 -4 -8 2302.95 56.84
6 4 8 2387.88 59.84
-7 -4 -8 45.76 8.51
-7 -4 -8 47.66 8.11
7 4 8 46.07 7.69
-8 -4 -8 81.48 11.18
-8 -4 -8 99.19 11.2
8 4 8 86.64 9.66
-9 -4 -8 -2.29 6.13
-9 -4 -8 -0.19 6.39
-9 -4 -8 8.21 5.11
9 4 8 2.39 4.35
-10 -4 -8 68.26 9.12
-10 -4 -8 68.09 13.21
-10 -4 -8 65.39 10.06
10 4 8 67.29 9.04
-11 -4 -8 27.57 8.44
-11 -4 -8 25.93 11.16
3 -5 -8 5.45 6.71
-3 5 8 2.8 5.66
-3 5 8 5.31 6.66
2 -5 -8 124.83 13.47
2 -5 -8 189.15 13.41
1 -5 -8 64.4 7.98
1 -5 -8 38.41 8.79
-1 5 8 56.57 9.09
0 -5 -8 0.09 5.86
0 -5 -8 5.15 3.74
0 5 8 -0.34 5.69
-1 -5 -8 107.18 6.58
-1 -5 -8 113.98 11.71
1 5 8 85.57 6.9
1 5 8 110.56 11.51
-2 -5 -8 1169.79 35.39
2 5 8 1097.59 33.77
-3 -5 -8 383.39 18.48
3 5 8 359.97 16.92
-4 -5 -8 111.54 11.94
4 5 8 93.38 11.14
-5 -5 -8 64.8 9.81
-5 -5 -8 76.21 4.75
-5 -5 -8 65.01 6.62
5 5 8 53.27 8.05
-6 -5 -8 415.52 16.1
-6 -5 -8 413.53 13.84
-6 -5 -8 442.49 19.57
6 5 8 408.75 18.64
-7 -5 -8 61.11 10.36
-7 -5 -8 57.82 9.38
7 5 8 64.86 8.77
-8 -5 -8 191.32 13.49
-8 -5 -8 204.33 14.32
-8 -5 -8 205.73 20.46
8 5 8 212.18 13.16
-9 -5 -8 142.77 12.84
-9 -5 -8 134.14 13.49
-9 -5 -8 153.9 12.18
9 5 8 145.84 11.62
-10 -5 -8 25.78 6.73
-10 -5 -8 27.64 9.17
-10 -5 -8 28.57 8.17
10 5 8 34.39 7.39
-11 -5 -8 35.44 8.74
-11 -5 -8 35.81 7.43
-11 -5 -8 25.85 9.77
3 -6 -8 11.92 7.51
-3 6 8 16.33 6.48
-3 6 8 7.73 6.23
2 -6 -8 59.4 10.62
-2 6 8 51.14 8.83
-2 6 8 40.29 11.27
1 -6 -8 55.33 10.3
-1 6 8 55.51 9.89
0 -6 -8 25.77 8.43
0 6 8 33.26 7.57
1 6 8 99.02 11.25
-2 -6 -8 6.53 6.63
2 6 8 14.7 6.72
-3 -6 -8 244.99 15.18
3 6 8 259.45 15.28
-4 -6 -8 1796.59 49.47
4 6 8 1793.12 48.81
-5 -6 -8 66.01 11.13
5 6 8 68.08 9.15
-6 -6 -8 263.53 15.6
-6 -6 -8 229.94 12.03
-6 -6 -8 265.22 8.65
6 6 8 246.46 15.12
-7 -6 -8 92.68 11.4
-7 -6 -8 81.34 8.93
7 6 8 89.93 10.58
-8 -6 -8 0.18 5.29
-8 -6 -8 7.28 6.54
-9 -6 -8 27.08 6.99
-9 -6 -8 28.5 9.03
-9 -6 -8 32.21 7.99
9 6 8 37.1 7.58
-10 -6 -8 25.95 8.46
-10 -6 -8 15.59 7.08
-10 -6 -8 13.9 6.11
10 6 8 16.8 6.48
-11 -6 -8 25.93 8.38
-11 -6 -8 -0.09 5.02
-11 -6 -8 -7.4 7.63
2 -7 -8 1.41 7.45
-2 7 8 10.64 6.37
1 -7 -8 -0.46 7.15
-1 7 8 10.06 6.13
0 -7 -8 2.11 7.49
-1 -7 -8 61.77 10.86
1 7 8 48.51 8.13
-2 -7 -8 112.71 13.44
2 7 8 105.48 10.57
-3 -7 -8 13.87 11.51
3 7 8 19.68 7.04
-4 -7 -8 229.98 15.81
4 7 8 227.08 15.23
-5 -7 -8 84.91 12.18
5 7 8 95.44 11.72
-6 -7 -8 78.21 11.41
-7 -7 -8 242.92 15.3
-7 -7 -8 215.87 11.67
-7 -7 -8 234.28 15.77
-7 -7 -8 257.43 9.11
7 7 8 248.45 15.12
-8 -7 -8 60.92 9.71
-8 -7 -8 65.5 9.87
-8 -7 -8 50.07 8.41
8 7 8 66.62 9.61
-9 -7 -8 -0.66 5.46
-9 -7 -8 -2.21 5.02
9 7 8 -4.18 5.47
-10 -7 -8 1.8 6.4
-10 -7 -8 -2.03 5.11
-10 -7 -8 -7.53 5.86
10 7 8 0.33 5.73
-11 -7 -8 22.2 8.17
-11 -7 -8 17.78 14.5
-11 -7 -8 22.23 7.67
1 -8 -8 61.24 11.77
-1 8 8 74.88 10.85
0 -8 -8 2.72 6.57
0 8 8 5.53 6.23
-1 -8 -8 86.2 13.7
1 8 8 117.31 12.01
-2 -8 -8 -1.35 6.93
2 8 8 2.18 6.07
-3 -8 -8 90.54 12.16
3 8 8 102.18 12.46
-4 -8 -8 648.41 25.9
4 8 8 619.72 24.28
-5 -8 -8 12.09 8.59
5 8 8 9.1 6.24
-6 -8 -8 221.36 15.84
6 8 8 220.01 14.38
-7 -8 -8 17.46 6.84
7 8 8 24.02 7.01
-8 -8 -8 38.47 10.38
-8 -8 -8 25.08 7.24
-8 -8 -8 25.46 7.3
8 8 8 33.12 7.9
-9 -8 -8 17.94 7.34
-9 -8 -8 22.15 7.57
-9 -8 -8 15.42 6.86
9 8 8 14.4 6.33
-10 -8 -8 -1.66 5.54
-10 -8 -8 -1.46 6.58
-10 -8 -8 -6.83 5.81
0 9 8 76.17 11.99
-1 -9 -8 16.96 8.42
1 9 8 32.28 8.12
-2 -9 -8 -2.27 7.36
2 9 8 6.5 6.33
-3 -9 -8 8.93 8.02
3 9 8 3.84 6.71
-4 -9 -8 63.25 10.98
4 9 8 76.88 12.15
-5 -9 -8 99.06 12.88
-5 -9 -8 110.59 13.86
5 9 8 105.08 11.55
-6 -9 -8 14.43 7.72
-6 -9 -8 10.23 6.45
6 9 8 22.5 6.87
-7 -9 -8 -2.46 6.22
-7 -9 -8 0.52 7.16
7 9 8 8.36 5.99
-8 -9 -8 -5.63 6.41
-8 -9 -8 7.84 6.19
8 9 8 -1.81 6.2
-9 -9 -8 -8.05 6.61
-9 -9 -8 5.67 6.51
9 9 8 3.2 7.02
-1 -10 -8 64.16 13.72
1 10 8 106.37 12.61
-2 -10 -8 0.63 6.31
-2 -10 -8 0.6 7.99
2 10 8 2.91 6
-3 -10 -8 53.84 9.72
-3 -10 -8 74.6 12.6
3 10 8 38.3 8.34
-4 -10 -8 60.24 10.83
-4 -10 -8 32.67 8.21
4 10 8 50.69 9.09
-5 -10 -8 30.1 9.37
-5 -10 -8 39.02 8.9
5 10 8 31.57 7.75
-6 -10 -8 89.09 13.35
-6 -10 -8 91.5 13.72
6 10 8 90.5 12.74
-7 -10 -8 7.78 7.49
-7 -10 -8 2.14 7.59
7 10 8 1.05 6.57
-8 -10 -8 4.27 7.99
-8 -10 -8 -1.9 7
8 10 8 18.25 8.75
-4 -11 -8 -2.73 8.49
-4 -11 -8 3.91 7.25
4 11 8 -0.62 6.27
-5 -11 -8 17.57 8.2
-5 -11 -8 20.4 9.29
5 11 8 12.98 7.18
-6 -11 -8 24.18 9.12
-1 7 -9 7.05 15.87
-1 7 -9 -1.26 5.77
1 -7 9 11.88 8.17
1 -7 9 5.02 6.11
-2 7 -9 19.9 21.76
-2 7 -9 24.14 8.7
2 -7 9 16.22 7.66
-3 7 -9 10.91 21.57
-3 7 -9 16.53 6.93
3 -7 9 12.58 7
3 -7 9 -1.25 7.08
-4 7 -9 -18.81 16.55
4 -7 9 4.4 6.69
4 -7 9 -0.51 6.21
-1 -6 9 17.76 9.89
0 6 -9 70 13.74
0 6 -9 67.43 9.2
0 -6 9 54.01 10.37
-1 6 -9 39.55 12.31
-1 6 -9 27.02 7.16
1 -6 9 28.39 9.23
-2 6 -9 332.73 25.39
-2 6 -9 344.3 18.3
2 -6 9 349.84 19.5
2 -6 9 367.64 18.37
-3 6 -9 2.82 11.42
-3 6 -9 -0.15 6.05
3 -6 9 5.59 7.07
3 -6 9 5.62 7.21
-4 6 -9 41.03 15.21
4 -6 9 43.13 9.2
-5 6 -9 -5.48 11.07
5 -6 9 11 6.08
5 -6 9 13.16 7.47
6 -6 9 13.73 7.2
6 -6 9 10.11 5.49
2 5 -9 35.34 10.22
1 5 -9 16.12 8.86
-1 -5 9 13.11 8.76
0 5 -9 19.34 9.74
0 5 -9 25.66 6.23
0 -5 9 23.89 9.16
-1 5 -9 102.71 11.56
-1 5 -9 119.4 16.15
1 -5 9 109.74 14.12
-2 5 -9 88.68 17.49
-2 5 -9 70.33 11.32
2 -5 9 83.86 11.46
2 -5 9 55.51 9.9
-3 5 -9 2.28 6.3
-3 5 -9 11.37 10.12
3 -5 9 2.04 6.22
3 -5 9 0.04 11.56
-4 5 -9 -7.8 10.81
-4 5 -9 -1.5 5.79
4 -5 9 -7.24 6.07
4 -5 9 1.94 5.93
-5 5 -9 8.65 11.94
5 -5 9 10.05 7.22
5 -5 9 14.41 6.24
-6 5 -9 135.6 20.22
6 -5 9 133.13 14.82
6 -5 9 141.52 11.26
-7 5 -9 7.3 12
7 -5 9 26.37 5.14
7 -5 9 24.23 8.64
2 4 -9 22.62 9.09
2 4 -9 -0.9 5.17
-2 -4 9 5.5 7.46
1 4 -9 75.1 8.83
-1 -4 9 84.3 12.45
0 4 -9 22.72 6.12
0 4 -9 36.51 10.42
0 -4 9 22.42 8.88
-1 4 -9 630.64 23.59
-1 4 -9 672.51 30.89
1 -4 9 636.67 25.79
-2 4 -9 285.85 21.02
-2 4 -9 282.04 16.2
2 -4 9 271.53 15.68
2 -4 9 283.47 20.79
-3 4 -9 135.81 18.84
-3 4 -9 135.38 13.43
3 -4 9 141.4 13.23
3 -4 9 141.23 13.14
-4 4 -9 22.96 12.62
-4 4 -9 25.97 7.78
4 -4 9 16.59 7.32
4 -4 9 24.83 7.07
-5 4 -9 17.67 7.48
-5 4 -9 16.42 10.46
5 -4 9 8.26 6.54
5 -4 9 15.98 6.14
-6 4 -9 8.25 11.13
6 -4 9 10.35 5.03
6 -4 9 5.44 7.18
-7 4 -9 9.17 11.62
7 -4 9 11.1 7.9
7 -4 9 12.06 4.48
-8 4 -9 15.88 13.99
8 -4 9 18.86 8.61
8 -4 9 21.36 4.55
2 3 -9 40.95 9.7
2 3 -9 17.17 5.45
-2 -3 9 27.21 9.15
1 3 -9 36.78 10.5
1 3 -9 17.79 5.85
-1 -3 9 17 8.42
0 3 -9 171.09 17
0 3 -9 154.54 12.01
0 -3 9 163.2 15.46
-1 3 -9 352.07 17.22
-1 3 -9 392.06 33.48
1 -3 9 366.9 20.04
-2 3 -9 134.07 11.86
-2 3 -9 111.49 16.63
2 -3 9 116.09 12.42
-3 3 -9 637.07 30.44
-3 3 -9 674.94 25.32
3 -3 9 674.87 25.21
3 -3 9 698.39 25.69
-4 3 -9 172.99 14.37
-4 3 -9 164.88 17.83
4 -3 9 189.68 13.64
4 -3 9 197.82 14.77
-5 3 -9 465.03 31.7
5 -3 9 394.78 17.76
5 -3 9 392.14 22.01
-6 3 -9 -0.88 10.82
-6 3 -9 11.12 7.12
6 -3 9 -2.82 6.12
6 -3 9 -1.25 4.6
-7 3 -9 -11.62 9.15
7 -3 9 2.48 3.9
7 -3 9 4.43 7.32
-8 3 -9 -17.57 9.88
8 -3 9 -2.11 6.56
8 -3 9 2.32 3.74
-9 3 -9 -5.13 11.39
9 -3 9 10.47 8.04
3 2 -9 21.93 7.89
-3 -2 9 8.59 8.26
2 2 -9 99.33 9.76
2 2 -9 150.51 15.53
-2 -2 9 126.76 13.99
1 2 -9 117.72 10.63
1 2 -9 140 15.1
-1 -2 9 128 14.58
0 2 -9 -9.31 4.83
0 2 -9 4.67 7.39
0 -2 9 -2.04 6.84
-1 2 -9 559.29 26.08
-1 2 -9 528.12 20.94
-2 2 -9 -4.77 5.54
-2 2 -9 2.41 8.57
2 -2 9 8.5 6.97
-3 2 -9 4.2 6.39
-3 2 -9 8.07 8.89
3 -2 9 16.21 7.06
-4 2 -9 579.43 23.76
-4 2 -9 575.9 28.53
4 -2 9 598.61 23.58
4 -2 9 590.91 22.84
-5 2 -9 25.07 11.04
-5 2 -9 48.73 9.12
5 -2 9 47.87 8.61
5 -2 9 42.03 7.46
-6 2 -9 424.01 23.34
-6 2 -9 402.88 25.36
6 -2 9 421.06 17.72
6 -2 9 473.14 31.93
-7 2 -9 -8.51 9.06
-7 2 -9 6.22 6.35
7 -2 9 -6.82 6.29
7 -2 9 -2.69 3.89
-8 2 -9 -11.28 9.08
8 -2 9 -2.55 6.6
8 -2 9 5.6 4.03
-9 2 -9 -11.51 9.39
9 -2 9 3.61 3.36
9 -2 9 -2.83 7.03
-10 2 -9 -6.26 12.19
3 1 -9 -1.25 4.36
-3 -1 9 4.79 7.63
2 1 -9 93.76 9.96
-2 -1 9 112.43 14.22
1 1 -9 -1.39 5.37
1 1 -9 10.35 6.79
-1 -1 9 4.22 6.84
0 1 -9 83.57 10.08
0 1 -9 95.56 12.84
0 -1 9 96.82 11.54
-1 1 -9 1131.42 34.1
-1 1 -9 1146 38.23
1 -1 9 1124.16 36.09
-2 1 -9 1249.29 40.47
-2 1 -9 1263.28 37.3
2 -1 9 1248.76 37.73
-3 1 -9 376 17.94
-3 1 -9 356.47 21.11
3 -1 9 355.54 18.16
-4 1 -9 950.47 35.37
-4 1 -9 978.86 31.78
4 -1 9 966.68 30.88
4 -1 9 950.41 31.2
-5 1 -9 3.41 6.46
-5 1 -9 -0.37 9.08
5 -1 9 -4.4 5.46
5 -1 9 1.72 5.58
-6 1 -9 375.49 23.3
-6 1 -9 352.9 19.14
6 -1 9 345.13 16.06
6 -1 9 348.09 18.71
-7 1 -9 5.74 5.85
-7 1 -9 6.66 9.66
7 -1 9 5.35 4.52
7 -1 9 -1.01 6.99
-8 1 -9 3.71 9.39
-8 1 -9 19.41 6.91
8 -1 9 3.39 7.22
8 -1 9 16.73 4.85
-9 1 -9 69.01 11.81
-9 1 -9 44.58 13.55
9 -1 9 69.66 6.98
9 -1 9 51.35 10.46
-10 1 -9 -11.96 9.31
-10 1 -9 -1.13 7.31
-10 1 -9 -2.28 3.24
10 -1 9 1.73 3.29
10 -1 9 7.54 7.8
3 0 -9 21.82 7.52
3 0 -9 6.16 5.26
-3 0 9 4.65 7.49
2 0 -9 21.82 6.55
2 0 -9 43.33 10.06
-2 0 9 25.61 8.45
1 0 -9 187.12 13.17
1 0 -9 218.01 15.55
-1 0 9 214.63 16.17
0 0 -9 -6.96 5.5
0 0 -9 1.81 6.04
-1 0 -9 47.32 8.33
-1 0 -9 76.1 11.34
1 0 9 62.51 9.67
-2 0 -9 88.52 12.11
-2 0 -9 87.39 11.34
2 0 9 99.52 11.21
-3 0 -9 -10.72 6.7
-3 0 -9 -4.08 5.29
3 0 9 -7.51 5.64
-4 0 -9 4.63 7.93
-4 0 -9 -1.06 6.12
4 0 9 -4.07 5.79
-5 0 -9 102.72 14.53
-5 0 -9 125.12 12.24
5 0 9 120.1 12.1
5 0 9 112.21 11.25
-6 0 -9 813.68 32.35
-6 0 -9 808.46 29.19
6 0 9 797.68 26.51
6 0 9 814.34 28.86
-7 0 -9 7.78 8.95
7 0 9 -2.48 4.6
-8 0 -9 25.94 8.07
-8 0 -9 23.74 10.34
8 0 9 23.38 5.35
8 0 9 15.09 7.28
-9 0 -9 31.66 8.24
-9 0 -9 34.83 11.79
9 0 9 39.75 9.63
9 0 9 48.53 7.1
-10 0 -9 -6.13 8.85
-10 0 -9 3.79 7.12
-10 0 -9 4.27 3.76
10 0 9 7.91 3.71
10 0 9 6.41 7.71
3 -1 -9 1.96 5.79
3 -1 -9 22.93 7.79
-3 1 9 8.55 7.38
2 -1 -9 209.25 14.74
2 -1 -9 163.86 13.09
-2 1 9 173.68 15.47
1 -1 -9 169.49 12.72
1 -1 -9 192.89 14.07
-1 1 9 162.57 14.91
0 -1 -9 387.66 18.19
0 -1 -9 420.99 19.29
0 1 9 436.1 26.87
-1 -1 -9 687.54 24.78
-1 -1 -9 685.29 24.99
1 1 9 724.7 26.38
-2 -1 -9 1408.33 40.06
-2 -1 -9 1388.86 40.11
2 1 9 1330.39 39.93
-3 -1 -9 5.9 6.01
3 1 9 -2.01 6.52
-4 -1 -9 160.63 14.86
-4 -1 -9 164.49 12.18
4 1 9 138.66 12.46
-5 -1 -9 650.66 26.21
-5 -1 -9 652.15 24.84
5 1 9 643.35 23.48
-6 -1 -9 520.72 21.79
-6 -1 -9 506.51 24.72
6 1 9 511.58 20.14
6 1 9 514.61 22.17
-7 -1 -9 183.51 16.62
-7 -1 -9 202.11 14.33
7 1 9 193.61 12.55
7 1 9 180.33 14.73
-8 -1 -9 5.3 6.83
-8 -1 -9 -3.79 7.61
8 1 9 3.7 4.35
8 1 9 0.87 5.85
-9 -1 -9 84.01 12.44
-9 -1 -9 81.36 20.42
9 1 9 82.39 8.56
9 1 9 79.4 12.14
-10 -1 -9 58.51 10.3
-10 -1 -9 48.57 7.79
-10 -1 -9 52.35 12.62
10 1 9 48.74 9.55
10 1 9 50.98 7.22
-11 -1 -9 89.43 14.17
-11 -1 -9 87.83 8.49
-11 -1 -9 74.36 19.86
11 1 9 100.08 9.17
11 1 9 85.96 13.74
3 -2 -9 79.53 10.84
-3 2 9 131.84 14.18
2 -2 -9 26.18 7.46
-2 2 9 31.05 8.28
1 -2 -9 249.25 17.04
1 -2 -9 204.39 14.83
-1 2 9 235.99 16.41
0 -2 -9 74.58 11.04
0 -2 -9 89.21 10.08
0 2 9 81.43 15.07
-1 -2 -9 123.43 12.04
-1 -2 -9 124.69 11.23
1 2 9 121.43 12.88
-2 -2 -9 1610.67 44.98
-2 -2 -9 1598.18 43.23
2 2 9 1627.45 45.49
-3 -2 -9 46.73 8.23
-3 -2 -9 56.44 8.92
3 2 9 47.1 8.12
-4 -2 -9 561.69 22.25
-4 -2 -9 562.85 22.5
4 2 9 568.78 22.33
-5 -2 -9 387.23 19.3
-5 -2 -9 394.19 19.18
5 2 9 402.18 18.33
-6 -2 -9 -1.36 7.31
-6 -2 -9 -5.3 5.51
6 2 9 2.95 5.03
-7 -2 -9 3.96 6.84
-7 -2 -9 2.58 7.36
7 2 9 2.79 4.96
-8 -2 -9 4.28 6.01
-8 -2 -9 -3.49 6.96
8 2 9 11.67 5.13
8 2 9 -2.33 7.13
-9 -2 -9 -2.75 7.55
-9 -2 -9 2.95 5.88
9 2 9 4.04 4.49
9 2 9 -3.68 6.39
-10 -2 -9 1.8 4.56
-10 -2 -9 -3.22 8.63
-10 -2 -9 11.48 7.52
10 2 9 11.88 7.33
10 2 9 12.58 5
-11 -2 -9 14.66 7.64
-11 -2 -9 4.76 9.78
-11 -2 -9 6.27 4.51
11 2 9 4.94 4.66
11 2 9 6.84 7.75
-3 3 9 17.7 7.59
2 -3 -9 167.82 12.33
2 -3 -9 138.18 13.8
-2 3 9 146.66 14.41
1 -3 -9 16.73 5.81
1 -3 -9 7.43 8.29
-1 3 9 8.85 6.91
0 -3 -9 381.94 18.04
0 -3 -9 386.83 19
-1 -3 -9 158.92 13.66
-1 -3 -9 176.75 10.8
1 3 9 154.61 12.72
-2 -3 -9 162.71 13.27
-2 -3 -9 148.61 9.95
2 3 9 170.43 13.69
2 3 9 130.4 11.12
-3 -3 -9 2.07 5.95
3 3 9 -8.09 6.41
-4 -3 -9 886.5 29.56
-4 -3 -9 844.6 27.78
4 3 9 900.08 29.11
4 3 9 801.49 25.59
-5 -3 -9 2754.89 69.98
-5 -3 -9 2792.55 67.98
5 3 9 2635.86 68.39
5 3 9 2771.37 68.86
-6 -3 -9 209.29 15.15
-6 -3 -9 211.73 14.86
6 3 9 226.65 13.99
-7 -3 -9 514.17 23.05
-7 -3 -9 526.46 22.46
7 3 9 519 20.51
-8 -3 -9 77.46 16.44
-8 -3 -9 83.33 12.59
8 3 9 83.54 9.35
-9 -3 -9 -0.6 6.36
-9 -3 -9 -5.76 6.22
9 3 9 1.64 4.75
-10 -3 -9 72.54 10.99
-10 -3 -9 59.85 19.53
-10 -3 -9 56.37 9.33
10 3 9 80.46 9.7
10 3 9 75.35 12.57
-11 -3 -9 95.4 17.33
-11 -3 -9 117.53 14.32
-11 -3 -9 113.18 12.63
11 3 9 128.81 16.37
11 3 9 127.71 14.25
2 -4 -9 -0.33 6.77
-2 4 9 14.22 7.16
1 -4 -9 128.85 13.76
1 -4 -9 188.42 13.3
-1 4 9 147.32 13.85
0 -4 -9 21.29 14.31
0 4 9 21.98 8.97
-1 -4 -9 7.31 7.37
1 4 9 0.78 6.38
-2 -4 -9 701.02 26.15
-2 -4 -9 684.01 19.93
2 4 9 656.82 20.96
2 4 9 710.52 25.98
-3 -4 -9 15.07 3.92
-3 -4 -9 13.11 7.17
3 4 9 16.67 7.18
3 4 9 6.7 4.24
-4 -4 -9 936.36 30.91
-4 -4 -9 891.8 24.34
-4 -4 -9 881.04 24.52
4 4 9 960.2 30.42
4 4 9 870.48 24.51
-5 -4 -9 83.03 9.3
-5 -4 -9 99.32 12.29
5 4 9 81.98 10.31
-6 -4 -9 8.25 6.14
-6 -4 -9 7.21 7.11
6 4 9 13.23 6.52
-7 -4 -9 190.08 13.61
-7 -4 -9 184.09 14.11
7 4 9 203.63 13.45
-8 -4 -9 9.52 7.02
-8 -4 -9 8.88 9.6
8 4 9 8.27 5.71
-9 -4 -9 66.64 11.24
-9 -4 -9 72.84 11.44
9 4 9 70.47 9.41
-10 -4 -9 23.29 9.48
-10 -4 -9 20.69 8.21
-10 -4 -9 29.69 7.77
10 4 9 25.92 7.33
-11 -4 -9 32.77 7.05
-11 -4 -9 33.18 9.51
-11 -4 -9 30.29 10.82
11 4 9 32.5 7.01
2 -5 -9 -1.95 6.16
-2 5 9 0.69 6.31
1 -5 -9 63.59 10.78
-1 5 9 84.53 11.96
0 -5 -9 35.66 9.09
0 5 9 30.81 7.63
-1 -5 -9 -3.95 6.93
1 5 9 -6.23 3.78
1 5 9 -2.37 10.86
2 5 9 -0.01 6.09
-3 -5 -9 597.96 24.14
3 5 9 550.3 22.39
-4 -5 -9 133.11 13.28
4 5 9 134.42 12.79
-5 -5 -9 754.66 19.25
-5 -5 -9 780.47 27.62
-5 -5 -9 723.39 21.98
5 5 9 749.51 26.53
-6 -5 -9 45.98 8.03
-6 -5 -9 48.71 8.52
6 5 9 67.56 9.46
-7 -5 -9 76.15 10.27
-7 -5 -9 88.25 16.28
7 5 9 85.08 9.95
-8 -5 -9 2.63 6.64
-8 -5 -9 6.88 6.87
8 5 9 4.79 8.9
-9 -5 -9 56.38 11.1
-9 -5 -9 55.11 8.56
-9 -5 -9 73.8 11.57
9 5 9 77.4 10.05
-10 -5 -9 154.62 12.93
-10 -5 -9 165.17 14.86
-10 -5 -9 146.27 15.31
10 5 9 148.23 12.1
-11 -5 -9 -0.44 8.07
-11 -5 -9 -5.94 6.33
-11 -5 -9 -0.83 5.09
11 5 9 -5.67 5.34
1 -6 -9 26.54 9.08
-1 6 9 36.38 8.34
0 -6 -9 22.61 8.5
0 6 9 19.91 4.79
0 6 9 24.27 7.55
-1 -6 -9 45.6 9.78
1 6 9 40.29 8
-2 -6 -9 3.84 7.5
2 6 9 -3.44 6.2
-3 -6 -9 136.21 13.94
3 6 9 123 18.19
-4 -6 -9 330.54 27.56
6 6 9 469.45 23.66
-7 -6 -9 -5.66 4.68
-7 -6 -9 0.38 7.06
7 6 9 11.38 6.27
-8 -6 -9 15.53 6.94
-8 -6 -9 8.92 6.26
8 6 9 15.63 6.52
-9 -6 -9 54.72 10.69
-9 -6 -9 82.29 11.29
-9 -6 -9 62.72 10.12
9 6 9 71.02 10.47
-10 -6 -9 87.49 13.43
-10 -6 -9 92.41 12.95
-10 -6 -9 98.4 11.95
-11 -6 -9 45.31 18.02
-11 -6 -9 47.02 8.57
-11 -6 -9 51.26 10.02
11 6 9 44.44 8.25
1 -7 -9 43.25 10.18
-1 7 9 59.27 9.54
0 -7 -9 -0.43 7.82
0 7 9 1.9 6.35
-1 -7 -9 -4.07 7.37
1 7 9 5.4 6.21
-2 -7 -9 4.53 7.43
2 7 9 0.92 6.05
-3 -7 -9 808.5 30.1
3 7 9 800.04 28.47
-4 -7 -9 15.38 8.08
4 7 9 18.12 7.36
-5 -7 -9 7.27 7.27
5 7 9 6.13 6.7
-6 -7 -9 140.67 13.54
6 7 9 134 12.17
-7 -7 -9 3.36 6.85
7 7 9 4.23 5.73
-8 -7 -9 62.42 10.01
-8 -7 -9 83.21 12.25
-8 -7 -9 45.91 11.43
8 7 9 71.13 10.23
-9 -7 -9 24.34 8.47
-9 -7 -9 14.03 6.99
-9 -7 -9 19.75 6.96
9 7 9 30.21 7.89
-10 -7 -9 25.53 8.51
-10 -7 -9 29.15 7.67
-10 -7 -9 16.84 7.85
10 7 9 21.88 7.61
0 -8 -9 -13.45 11.1
0 8 9 9.25 6.2
-1 -8 -9 4.84 7.91
1 8 9 21.01 7.23
-2 -8 -9 50.18 9.91
2 8 9 45.16 8.13
-3 -8 -9 10.02 7.97
3 8 9 11 6.87
-4 -8 -9 115.27 14.36
4 8 9 94.87 11.54
-5 -8 -9 29.36 8.99
5 8 9 29.85 8.57
-6 -8 -9 80.79 12.68
6 8 9 80.44 11.78
-7 -8 -9 83.92 12.4
-7 -8 -9 79.17 12.88
7 8 9 83.35 11.81
-8 -8 -9 -1.38 6.98
-8 -8 -9 -0.43 6.37
8 8 9 6.09 5.56
-9 -8 -9 2.12 6.7
-9 -8 -9 1.29 6.89
9 8 9 -0.44 6.26
-10 -8 -9 3.54 7.48
-10 -8 -9 12.38 6.71
10 8 9 12.07 7.37
-1 -9 -9 9.24 9.21
1 9 9 9.49 6.04
-2 -9 -9 -5.37 6.83
2 9 9 5.78 6.65
-3 -9 -9 160.6 15.27
3 9 9 184.41 15.14
-4 -9 -9 46.66 10.55
4 9 9 38.68 9.06
-5 -9 -9 7.43 7.92
5 9 9 11.49 6.77
-6 -9 -9 1.13 7.66
-6 -9 -9 20.87 8.12
6 9 9 12.94 7.01
-7 -9 -9 46.03 8.85
-7 -9 -9 33.01 9.59
7 9 9 53.09 9.36
-8 -9 -9 -3.44 6.69
-8 -9 -9 -5.9 6.98
-9 -9 -9 16.09 8.41
3 10 9 5.07 6.83
-4 -10 -9 21.38 7.8
-4 -10 -9 19.07 9.04
4 10 9 22.2 7.23
-5 -10 -9 -3.54 6.33
-5 -10 -9 -4.35 7.53
5 10 9 3.07 6.06
-6 -10 -9 51.82 10.74
-6 -10 -9 47.83 10.77
6 10 9 80.6 12.64
-7 -10 -9 1.6 8
-2 6 -10 38.22 8.43
2 -6 10 51.71 10.26
-3 6 -10 2.78 6.63
3 -6 10 8.83 6.86
3 -6 10 -1.47 7.05
-4 6 -10 102.97 25.03
-4 6 -10 131.89 14.49
4 -6 10 140.87 15.01
4 -6 10 134.64 14.07
0 5 -10 24.02 11
0 5 -10 -7.04 5.54
0 -5 10 2.28 11.45
-1 5 -10 191.87 14.2
-1 5 -10 241.52 21.22
1 -5 10 192.88 17.38
-2 5 -10 44.65 13.12
-2 5 -10 37.8 10.3
2 -5 10 48.45 10.3
-3 5 -10 103.17 19.4
-3 5 -10 118.35 13.6
3 -5 10 119.87 14.05
3 -5 10 112.61 13.48
-4 5 -10 83.01 12.85
-4 5 -10 66.76 15.39
4 -5 10 88.21 12.28
4 -5 10 81.91 12.19
-5 5 -10 142.01 22.62
-5 5 -10 163.41 15
5 -5 10 164.34 15.07
5 -5 10 162.62 13.36
-6 5 -10 -0.67 19.1
-6 5 -10 32.16 8.67
6 -5 10 28.89 8.07
6 -5 10 32.07 8.95
1 4 -10 12.91 6.04
-1 -4 10 23.3 14.78
0 4 -10 25.11 9.86
0 4 -10 10 6.95
0 -4 10 24.78 9.41
-1 4 -10 105.41 16.54
-1 4 -10 65.05 9.5
1 -4 10 86.11 14.04
-2 4 -10 25.43 10.11
-2 4 -10 26.51 7.98
2 -4 10 28.19 9.23
-3 4 -10 135.06 17.36
-3 4 -10 135.3 22.97
3 -4 10 121.01 13.95
-4 4 -10 29.08 12.13
-4 4 -10 33.6 8.88
4 -4 10 29.49 8.03
4 -4 10 31.38 8.64
-5 4 -10 142.94 13.93
-5 4 -10 105.96 19.96
5 -4 10 115.31 13.55
-6 4 -10 115.14 19.02
-6 4 -10 169.45 15
6 -4 10 160.36 12.68
6 -4 10 141.4 15.16
-7 4 -10 44.18 9.51
-7 4 -10 21.89 13.6
7 -4 10 19.6 8.34
7 -4 10 36.59 7.01
1 3 -10 -4.44 5.15
1 3 -10 23.81 8.04
-1 -3 10 -5.92 7.1
0 3 -10 100.03 10.79
0 -3 10 80.37 12.9
-1 3 -10 33.44 10.49
-1 3 -10 12.79 6.87
1 -3 10 26.68 9.05
-2 3 -10 258.87 16.44
-2 3 -10 274.32 20.98
2 -3 10 274.83 18.26
-3 3 -10 55.34 9.43
-3 3 -10 65.11 13.27
3 -3 10 54.31 10.01
-4 3 -10 12.52 9.25
-4 3 -10 7.41 6.79
4 -3 10 9.26 7.81
4 -3 10 16.65 8.2
-5 3 -10 14.93 10.76
-5 3 -10 9.78 7.58
5 -3 10 10.39 6.53
5 -3 10 4 6.71
-6 3 -10 -2.32 10.5
-6 3 -10 3.86 6.95
6 -3 10 5.95 5.81
6 -3 10 -0.98 6.59
-7 3 -10 1.58 10.97
-7 3 -10 3.36 6.65
7 -3 10 1.4 7.15
7 -3 10 2.36 4.68
-8 3 -10 12.44 12.43
-8 3 -10 14.91 7.26
8 -3 10 10.82 8.64
8 -3 10 24.31 8.66
2 2 -10 -3.58 5.21
1 2 -10 -5.7 5.55
-1 -2 10 5.94 8.51
0 2 -10 0.75 5.74
0 2 -10 28.87 8.39
0 -2 10 9.75 7.93
-1 2 -10 5.37 6.43
-1 2 -10 13.97 8.23
1 -2 10 3.9 6.67
-2 2 -10 272.65 16.7
-2 2 -10 323.56 33.84
2 -2 10 282.09 17.54
-3 2 -10 2.17 8.59
-3 2 -10 -3.89 5.73
3 -2 10 -2.53 5.92
-4 2 -10 124.79 20.89
-4 2 -10 110.44 17.04
4 -2 10 112.46 18.5
4 -2 10 121.24 14.44
-5 2 -10 0.7 6.56
5 -2 10 -3.74 6.19
5 -2 10 1.34 5.9
-6 2 -10 146.8 18.95
-6 2 -10 170.24 14.27
6 -2 10 179.82 13.06
6 -2 10 156.13 14.48
-7 2 -10 9.22 7.58
-7 2 -10 -3 10.49
7 -2 10 -1.71 6.13
7 -2 10 4.71 4.87
-8 2 -10 11 12.52
-8 2 -10 26.8 8.75
8 -2 10 16.98 5.35
8 -2 10 11.23 7.6
-9 2 -10 -10.15 10.52
-9 2 -10 15.11 8.05
9 -2 10 14.41 9.67
9 -2 10 17.02 4.67
-2 -1 10 7.48 8.75
1 1 -10 7.54 6.02
-1 -1 10 5.01 8.12
0 1 -10 6.11 6.69
0 -1 10 13.59 8.24
-1 1 -10 -3.06 5.97
-1 1 -10 3.96 6.68
1 -1 10 -2.38 6.11
-2 1 -10 181.24 13.9
-2 1 -10 192.78 16.24
2 -1 10 160.24 14.13
-3 1 -10 5.63 8.23
-3 1 -10 2.27 6.32
3 -1 10 0.94 6.94
-4 1 -10 246.59 19.7
-4 1 -10 224.62 16.11
4 -1 10 217.95 15.63
-5 1 -10 -0.56 8.97
-5 1 -10 0.92 9.18
5 -1 10 -4 5.31
-6 1 -10 42.86 9.34
-6 1 -10 31.42 11.24
6 -1 10 50.65 8.07
6 -1 10 35.4 8.26
-7 1 -10 22.78 8.15
-7 1 -10 15.81 11.65
7 -1 10 13.68 7.08
7 -1 10 19.2 5.81
-8 1 -10 -9.43 9.08
-8 1 -10 3.26 7.03
8 -1 10 10.65 5.23
8 -1 10 5.23 7.23
-9 1 -10 -14.5 9.86
-9 1 -10 -2.26 6.15
9 -1 10 4.7 4.4
9 -1 10 -6.1 6.14
-10 1 -10 -16.31 11
-10 1 -10 3.02 8.3
2 0 -10 31.22 7.38
-2 0 10 26.24 8.8
1 0 -10 5.1 6.19
1 0 -10 20.17 8.1
-1 0 10 9.03 7.4
0 0 -10 -0.09 5.87
0 0 10 2.08 6.48
-1 0 -10 4.72 6.27
-1 0 -10 10.83 6.59
1 0 10 5.83 7.1
-2 0 -10 37.31 9.07
-2 0 -10 50.17 9.21
2 0 10 35.28 9.17
-3 0 -10 363.36 18.76
-3 0 -10 373.82 20.3
-4 0 -10 228.93 15.99
-4 0 -10 246.38 17.93
4 0 10 239.05 14.92
-5 0 -10 117.15 15.49
-5 0 -10 154.83 20.87
5 0 10 114.11 12.02
-6 0 -10 7.5 8.76
-6 0 -10 11.42 6.42
6 0 10 12.55 6.17
6 0 10 10.46 7.54
-7 0 -10 1.59 6.86
-7 0 -10 6.38 9.9
7 0 10 -0.65 6.71
7 0 10 6.58 5.09
-8 0 -10 43.75 14.76
-8 0 -10 71.64 11.5
8 0 10 59.04 8.98
8 0 10 43.23 9.05
-9 0 -10 0.79 7
-9 0 -10 -10 9.41
9 0 10 -4.7 6.93
9 0 10 4.09 4.14
-10 0 -10 -4.84 7.85
10 0 10 2.99 4.02
10 0 10 0.56 7.53
1 -1 -10 14.81 6.81
1 -1 -10 7.27 7.31
-1 1 10 4.29 6.87
0 -1 -10 133.87 12.52
0 -1 -10 97.62 12.33
0 1 10 110.24 13.89
-1 -1 -10 -7.52 6.01
-1 -1 -10 6.55 5.28
1 1 10 -2.93 6.07
-2 -1 -10 161.09 12.92
-2 -1 -10 142.7 13.17
2 1 10 140.13 14.11
-3 -1 -10 136.5 12.76
-3 -1 -10 114.3 12.99
-4 -1 -10 -2.05 5.78
-4 -1 -10 -1.87 6.68
4 1 10 -0.88 6.18
-5 -1 -10 -5.86 7.14
-5 -1 -10 -1.64 6.67
5 1 10 -7.1 5.68
-6 -1 -10 -1.16 7.85
-6 -1 -10 -5.31 5.55
6 1 10 -4.62 4.99
-7 -1 -10 15.48 7.5
-7 -1 -10 14.62 9.66
7 1 10 17.92 7.8
7 1 10 21.06 6.39
-8 -1 -10 29.14 8.12
-8 -1 -10 14.39 9.91
8 1 10 20.97 7.97
8 1 10 21.08 6.09
-9 -1 -10 17.85 8.41
9 1 10 11.31 7.47
9 1 10 14.4 5.13
-10 -1 -10 0.65 10.46
-10 -1 -10 7.31 7.29
10 1 10 -2.31 7.41
10 1 10 14.18 4.93
2 -2 -10 0.13 6.37
-2 2 10 4.68 7.17
1 -2 -10 138.52 12.38
1 -2 -10 91.84 12.05
-1 2 10 103.57 13.62
0 2 10 19.88 7.37
-1 -2 -10 5.68 5.25
-1 -2 -10 -9.56 6.22
1 2 10 -2.91 6.71
-2 -2 -10 126.6 11.3
-2 -2 -10 96.16 12.24
2 2 10 123.37 13.34
-3 -2 -10 706.11 26.74
3 2 10 708.55 36.63
-4 -2 -10 0.14 6.28
4 2 10 2.03 6.41
-5 -2 -10 12.96 7.75
-5 -2 -10 1.12 10.52
5 2 10 0.19 5.68
-6 -2 -10 -4.1 6.96
-6 -2 -10 9.73 7.72
6 2 10 -4.91 4.51
-7 -2 -10 149.12 13
-7 -2 -10 132.09 15.77
7 2 10 155.98 12.33
-8 -2 -10 21.82 8
-8 -2 -10 12.71 8.85
8 2 10 18.42 6.38
-9 -2 -10 111.96 13.5
-9 -2 -10 75.7 13.19
9 2 10 94.02 13.38
9 2 10 105.1 9.88
-10 -2 -10 87.98 16.49
-10 -2 -10 118.75 14.28
10 2 10 112.49 12.11
10 2 10 114.12 14.18
2 -3 -10 5.99 7.52
-2 3 10 7.33 8.19
1 -3 -10 -7.01 6.54
-1 3 10 7.43 7.43
0 -3 -10 335.73 19.24
0 -3 -10 380.31 16.6
0 3 10 355.02 19.59
-1 -3 -10 11.57 7.53
1 3 10 17.73 7.75
-2 -3 -10 1029.26 30.33
2 3 10 1078.86 35.02
-3 -3 -10 104.81 16.09
-3 -3 -10 117.65 9.48
3 3 10 93.34 11.75
-4 -3 -10 62.82 8.91
-4 -3 -10 53.14 13.08
-5 -3 -10 42.92 8.27
5 3 10 34.02 8.61
-6 -3 -10 33.79 10.33
-6 -3 -10 49.24 8.84
6 3 10 48.97 8.94
-7 -3 -10 43.98 9.23
-7 -3 -10 50.9 10.14
7 3 10 60.21 10.14
-8 -3 -10 -6.45 8.26
-8 -3 -10 1.07 6.9
-9 -3 -10 -2.61 7.24
-9 -3 -10 -9.7 7.83
9 3 10 1.5 5.67
-10 -3 -10 -0.79 9.98
-10 -3 -10 6.76 5.26
-10 -3 -10 12.99 7.4
10 3 10 7.59 5.29
-11 -3 -10 104 17.31
-11 -3 -10 113.38 11.61
-11 -3 -10 134.04 15.54
1 -4 -10 179.59 15.62
-1 4 10 201.57 16.26
0 -4 -10 18.41 8.55
0 4 10 25.92 7.6
-1 -4 -10 9.34 7.61
1 4 10 4.34 7.05
-2 -4 -10 12.02 7.57
2 4 10 15.95 6.76
-3 -4 -10 319.18 18.03
-3 -4 -10 307.97 12.49
3 4 10 317.45 18.19
-4 -4 -10 661.58 26.27
-4 -4 -10 644.56 20.22
4 4 10 664.4 26.54
-5 -4 -10 -0.85 5.81
5 4 10 1.63 3.39
5 4 10 5.27 6.68
-6 -4 -10 25.19 6.93
-6 -4 -10 19.89 7.06
6 4 10 13.96 7.51
-7 -4 -10 18.47 7.49
-7 -4 -10 28.94 8.46
7 4 10 20.44 7.07
-8 -4 -10 11.77 7.62
-8 -4 -10 -3.22 6.82
8 4 10 4.33 5.08
-9 -4 -10 17.3 7.63
9 4 10 19.24 6.54
-10 -4 -10 47.63 8.12
-10 -4 -10 37.81 10.86
-10 -4 -10 67.96 11.21
10 4 10 67.89 10
1 -5 -10 -3.02 7.35
-1 5 10 14.7 7.31
0 -5 -10 66.02 11.29
0 5 10 88.94 12.34
-1 -5 -10 262.14 18.82
-1 -5 -10 380.51 11.66
1 5 10 298.66 18.2
-2 -5 -10 226.7 17.1
2 5 10 234.17 16.31
-3 -5 -10 48.06 9.5
3 5 10 33.45 7.78
-4 -5 -10 15.77 7.6
4 5 10 11.74 6.91
-5 -5 -10 299.46 8.76
-5 -5 -10 228.82 16.05
5 5 10 221.62 15.02
-6 -5 -10 1.46 6.54
-6 -5 -10 -0.74 3.92
6 5 10 -7.31 4.87
-7 -5 -10 -9.76 5.37
-7 -5 -10 -3.7 6.41
7 5 10 3.45 5.85
-8 -5 -10 155.9 14.72
-8 -5 -10 138.52 15.23
8 5 10 160.5 13.22
-9 -5 -10 147.24 14.48
-9 -5 -10 148.25 14.82
9 5 10 156.89 12.88
-10 -5 -10 24.91 7.27
-10 -5 -10 20.12 8.33
-10 -5 -10 14.82 8.95
10 5 10 20.48 7.09
0 -6 -10 24.87 9.66
0 6 10 28.05 8.15
-1 -6 -10 74.26 11.63
1 6 10 89.04 12.31
-2 -6 -10 1.32 7.65
2 6 10 -3.1 6.49
-3 -6 -10 219.71 16.98
3 6 10 207.81 15.82
-4 -6 -10 210.02 15.53
4 6 10 218.01 15.05
-5 -6 -10 23.31 8.66
5 6 10 15.27 6.76
-6 -6 -10 -1.02 6.33
6 6 10 9.41 6.56
-7 -6 -10 22.44 5.42
-7 -6 -10 30.66 8.93
7 6 10 33.82 8.08
-8 -6 -10 65.98 10.78
-8 -6 -10 44.22 8.24
-9 -6 -10 36.43 9.27
-9 -6 -10 47.69 10.35
-9 -6 -10 40.67 8.62
9 6 10 47.87 8.75
-10 -6 -10 -3.43 7.31
-10 -6 -10 6.57 6.39
10 6 10 6.49 5.99
-1 -7 -10 86.88 13.14
1 7 10 115.41 13.64
-2 -7 -10 11.74 8.27
2 7 10 -1.58 6.83
-3 -7 -10 123.96 15.11
3 7 10 138.71 13.99
-4 -7 -10 -5.99 7.28
4 7 10 8.23 6.84
-5 -7 -10 7.85 7.89
5 7 10 -0.1 6.34
-6 -7 -10 17.51 8.35
6 7 10 21.83 7.71
-7 -7 -10 15.97 8.26
7 7 10 32.86 7.63
-8 -7 -10 21.35 8.84
8 7 10 27.4 7.77
-9 -7 -10 258.88 17.2
-9 -7 -10 230.03 17.31
9 7 10 247.32 16.62
-10 -7 -10 6.82 8.08
-10 -7 -10 9.77 6.79
10 7 10 0.42 5.66
-2 -8 -10 6.1 9.56
2 8 10 1.98 6.73
-3 -8 -10 114.17 13.78
3 8 10 123.09 13.7
-4 -8 -10 32.02 9.24
4 8 10 32.85 8.58
-5 -8 -10 23.82 8.87
5 8 10 37 8.66
-6 -8 -10 4.69 7.75
6 8 10 14.48 6.68
-7 -8 -10 0.29 7.44
7 8 10 1.08 6.25
-8 -8 -10 52.76 10.16
-8 -8 -10 41.87 10.03
8 8 10 72.48 10.89
-9 -8 -10 12.33 9.18
-9 -8 -10 8.58 12.81
9 8 10 7.08 7.42
-3 -9 -10 160.69 18.68
3 9 10 173.37 15.37
-4 -9 -10 37.7 12.67
4 9 10 46.77 9.21
-5 -9 -10 -8.11 7.63
5 9 10 -2.66 6.85
-6 -9 -10 -2.32 7.66
6 9 10 2.64 6.25
-7 -9 -10 32.06 9.98
-7 -9 -10 39.04 14.28
7 9 10 37.37 12.63
-8 -9 -10 22.29 9.64
-8 -9 -10 10.55 8.45
8 9 10 9.11 8.14
-2 4 -11 -6.95 6.29
2 -4 11 -4.08 7.03
-3 4 -11 25.38 11.34
-3 4 -11 8.62 7.82
3 -4 11 19.46 8.38
-4 4 -11 110.98 13.99
-4 4 -11 129.08 20.11
4 -4 11 111.43 14.42
4 -4 11 74.95 12.43
-5 4 -11 -6.01 11.46
-5 4 -11 0.49 6.96
5 -4 11 -2.2 7.16
5 -4 11 -2.19 6.49
-6 4 -11 6.34 7.68
-1 3 -11 23.87 9.59
1 -3 11 7.95 8.45
-2 3 -11 8.03 8.58
-2 3 -11 3.67 6.79
2 -3 11 0.2 7.28
-3 3 -11 48.5 12.22
-3 3 -11 40.16 9.2
3 -3 11 47.64 9.96
-4 3 -11 22.05 8.46
-4 3 -11 20.6 11.46
4 -3 11 16.7 7.35
-5 3 -11 19.54 11.3
-5 3 -11 16.21 7.75
5 -3 11 8.17 7.29
5 -3 11 6.69 7.82
-6 3 -11 8.52 11.83
-6 3 -11 24.41 8.56
6 -3 11 11.74 8.02
6 -3 11 15.16 6.67
-7 3 -11 -2.84 7.43
-7 3 -11 -17.68 10.31
7 -3 11 -0.05 5.43
7 -3 11 -8.79 5.7
1 -2 11 38 10.18
-2 2 -11 9.32 7.33
-2 2 -11 27.6 9.69
2 -2 11 9.88 8.56
-3 2 -11 8.24 8.75
-3 2 -11 1.88 6.65
3 -2 11 2.13 6.26
-4 2 -11 107.92 13.49
-4 2 -11 126.66 17.57
4 -2 11 94.49 13.13
-5 2 -11 7.78 8.03
-5 2 -11 0.25 9.52
5 -2 11 7.73 6.79
-6 2 -11 -3.46 6.88
-6 2 -11 -4.22 10.7
6 -2 11 -7.85 6.36
-7 2 -11 -11.62 10.47
-7 2 -11 1.25 7.05
7 -2 11 -3.31 5.03
-8 2 -11 -3.44 11.64
-8 2 -11 -16.43 9.85
8 -2 11 -6.65 8.47
0 1 -11 174.65 15.36
0 -1 11 124.76 15.69
-2 1 -11 27.49 8.59
-2 1 -11 17.13 7.86
2 -1 11 13.09 7.89
-3 1 -11 36.29 9
3 -1 11 32.51 9.36
-4 1 -11 6 6.95
4 -1 11 4.79 7.26
-5 1 -11 31.49 13.28
-5 1 -11 27.07 9.19
5 -1 11 25.07 7.81
-6 1 -11 60.94 10.91
-6 1 -11 63.75 13.96
6 -1 11 57.41 10.78
6 -1 11 70.15 11.09
-7 1 -11 4.2 10.59
-7 1 -11 8.11 7.81
7 -1 11 12.68 5.93
7 -1 11 3.25 7.65
-8 1 -11 -0.67 7
8 -1 11 -8.74 5.92
8 -1 11 2.2 8.86
-9 1 -11 8.03 9.8
9 -1 11 10.33 12.75
9 -1 11 9.24 8.85
0 0 -11 37.77 8.78
0 0 11 40.75 10.02
-1 0 -11 50.17 14.92
-1 0 -11 10.46 7.44
1 0 11 18.85 8.11
-2 0 -11 13.76 6.82
-2 0 -11 3.78 6.84
2 0 11 1.26 6.71
-3 0 -11 30.32 8.63
-3 0 -11 38.75 9.07
3 0 11 27.92 8.83
-4 0 -11 -2.04 7.59
-4 0 -11 1.52 6.58
4 0 11 -1.95 6.71
-5 0 -11 255.52 19.22
-5 0 -11 242.05 17.22
5 0 11 241.63 16.1
-6 0 -11 -2.77 9.29
-6 0 -11 -3.06 6.9
6 0 11 6.35 6.07
-7 0 -11 1.01 6.66
7 0 11 -0.5 5.14
7 0 11 -8.43 6.91
-8 0 -11 12.66 8.27
-8 0 -11 -10.98 9.94
8 0 11 5.45 5.88
8 0 11 5.37 6.85
-9 0 -11 11.08 9.28
-9 0 -11 3.09 11.62
9 0 11 10.3 7.27
9 0 11 19.29 7.23
0 -1 -11 -6.02 6.41
0 1 11 2.64 7.35
-1 -1 -11 184.01 15.28
1 1 11 215.22 16.07
-2 -1 -11 55.01 9.8
2 1 11 64.13 10.53
-3 -1 -11 20.31 7.56
-3 -1 -11 3.65 7.11
3 1 11 3.81 6.43
-4 -1 -11 0.93 6.96
-4 -1 -11 7.63 7.05
4 1 11 1 6.66
-5 -1 -11 78.51 13.55
-5 -1 -11 75.55 12.58
5 1 11 81.37 12.49
-6 -1 -11 17.38 7.67
-6 -1 -11 21.71 9.97
6 1 11 21 7.63
-7 -1 -11 76.3 12.88
-7 -1 -11 53.37 12.28
7 1 11 65.82 10.3
-8 -1 -11 70.73 11.52
8 1 11 61.76 10.05
-9 -1 -11 11.75 11.31
-9 -1 -11 16.98 8.54
9 1 11 21.59 9.3
9 1 11 32.04 6.97
-1 -2 -11 616.94 23.09
-1 -2 -11 571.26 25.2
1 2 11 518.16 25.14
-2 -2 -11 120.69 13.99
-2 -2 -11 179.28 12.06
2 2 11 145.33 14.67
-3 -2 -11 24.34 6.57
-3 -2 -11 10.91 7.09
3 2 11 12.56 7.25
-4 -2 -11 354.84 19.93
-4 -2 -11 370.84 18.18
4 2 11 366.11 19.82
-5 -2 -11 17.63 8
-5 -2 -11 25.07 8.39
5 2 11 24.1 7.97
-6 -2 -11 7.69 8.03
-6 -2 -11 0.99 6.43
6 2 11 -5.11 5.63
-7 -2 -11 42.94 9.71
-7 -2 -11 34.53 10.62
7 2 11 51.06 8.99
-8 -2 -11 3.26 7.09
-8 -2 -11 -15.36 8.41
8 2 11 9.3 5.7
-9 -2 -11 30.03 9.64
-9 -2 -11 2.52 11.32
9 2 11 21.59 6.06
-10 -2 -11 84.99 15.55
10 2 11 140.44 11.88
0 -3 -11 -5.32 6.94
0 3 11 -5.4 6.98
-1 -3 -11 185.46 16.37
1 3 11 217.02 16.76
-2 -3 -11 265.26 12.83
-2 -3 -11 196.9 16.78
2 3 11 233.33 16.31
-3 -3 -11 20.4 8.54
3 3 11 20.74 7.94
-4 -3 -11 50.06 10.18
-4 -3 -11 70.79 9.31
-5 -3 -11 7.17 6.52
5 3 11 6.64 6.63
-6 -3 -11 163.38 14.17
-6 -3 -11 150.02 13.87
6 3 11 167.6 14.06
-7 -3 -11 -2.8 6.9
-7 -3 -11 -5.41 7.37
7 3 11 0.24 6.05
-8 -3 -11 133.48 14.4
-8 -3 -11 89.28 13.63
8 3 11 128.09 12.41
-9 -3 -11 98.17 14.9
-9 -3 -11 129.32 14.83
9 3 11 122.97 11.79
-10 -3 -11 23.63 11.68
-10 -3 -11 38.93 12.1
10 3 11 45.15 8.23
0 -4 -11 61.05 11.15
0 4 11 62.59 10.82
-1 -4 -11 635.96 25.01
-1 -4 -11 564.99 26.11
1 4 11 591.84 26.06
-2 -4 -11 -0.21 7.27
2 4 11 6.28 7.04
-3 -4 -11 -6.33 7.2
3 4 11 8.32 7.06
-4 -4 -11 15.8 7.8
4 4 11 11.88 6.78
-5 -4 -11 8.19 7.63
5 4 11 4.74 5.86
-6 -4 -11 84.44 10.09
-6 -4 -11 78.73 11.88
6 4 11 87.56 12.3
-7 -4 -11 -1.97 6.79
7 4 11 0.86 6.09
-8 -4 -11 -7.4 8.21
-8 -4 -11 1.77 6.79
8 4 11 5.31 6.35
-9 -4 -11 -8.19 7.39
9 4 11 5.6 5.79
-10 -4 -11 7.85 10.25
-10 -4 -11 21.85 9.21
10 4 11 36.83 7.71
-1 -5 -11 107.74 14.93
1 5 11 144.94 14.91
-2 -5 -11 13.1 8.6
2 5 11 -0.57 7.09
-3 -5 -11 49.12 10.64
3 5 11 47.4 9.94
-4 -5 -11 5.12 7.46
4 5 11 6.51 6.18
-5 -5 -11 200.68 16.27
5 5 11 233.22 16.4
-6 -5 -11 10.72 7.24
6 5 11 7.28 6.09
-7 -5 -11 1.26 5.59
-7 -5 -11 1.46 7.43
7 5 11 11.18 6.21
-8 -5 -11 -7.71 7.29
8 5 11 5.91 6.35
-9 -5 -11 -7.81 6.56
9 5 11 1.58 5.47
-10 -5 -11 3.34 6.45
-10 -5 -11 -8.17 7.42
10 5 11 2.46 5.89
-2 -6 -11 11.26 8.77
2 6 11 3.37 6.27
-3 -6 -11 27.02 9.56
3 6 11 22.19 8.26
-4 -6 -11 52.47 10.71
4 6 11 48.95 9.27
-5 -6 -11 5.19 7.61
5 6 11 19.94 7.36
-6 -6 -11 69.67 11.27
6 6 11 70.6 10.8
-7 -6 -11 40.77 9.04
7 6 11 62.9 10
-8 -6 -11 141.12 15.41
8 6 11 166.65 14.48
-9 -6 -11 -4.86 7.46
9 6 11 2.83 6.05
-3 -7 -11 37.1 12.25
3 7 11 27.39 8.33
-4 -7 -11 0.68 8.13
4 7 11 0.29 6.29
-5 -7 -11 80.9 12.96
5 7 11 73.71 11.04
-6 -7 -11 -2.9 6.86
6 7 11 4.37 6.54
-7 -7 -11 36.31 9.99
7 7 11 50.66 9.72
-8 -7 -11 9.39 8.13
8 7 11 13.21 7.65
-9 -7 -11 30.34 11.32
-4 -8 -11 21.22 12.21
4 8 11 17.11 14.11
-5 -8 -11 -5.67 11.81
5 8 11 15.03 11.02
-6 -8 -11 -3.07 11.45
6 8 11 6.88 10.92
-7 -8 -11 -4.08 11.25
7 8 11 22.38 12.62
-3 2 -12 20.8 9.07
3 -2 12 19.19 8.63
-4 2 -12 2.45 8.59
-4 2 -12 -7.75 6.93
4 -2 12 -11.45 6.67
-5 2 -12 11.71 8.33
-5 2 -12 17.2 11.29
5 -2 12 9.4 7.07
-6 2 -12 28.78 9.69
-6 2 -12 14.76 11.97
6 -2 12 27.87 8.25
-3 1 -12 42.98 10.03
3 -1 12 57.33 10.89
-4 1 -12 -2.83 6.86
-4 1 -12 2.7 8.01
4 -1 12 1.12 6.73
-5 1 -12 8.82 7.68
-5 1 -12 11.58 10.46
5 -1 12 11.62 7.45
-6 1 -12 -4.27 7.07
-6 1 -12 -11.18 9.76
6 -1 12 4.49 6.32
-7 1 -12 15.71 12.58
-7 1 -12 27.02 10.46
7 -1 12 21.47 9.21
-2 0 -12 -2.67 10.33
2 0 12 -1.11 11.15
-3 0 -12 -2.39 7.23
-3 0 -12 20.13 7.96
3 0 12 13.54 7.49
-4 0 -12 15.22 7.8
-4 0 -12 21.04 8.84
4 0 12 17.16 7.82
-5 0 -12 34.28 11.27
-5 0 -12 28.69 8.63
5 0 12 28.3 7.54
-6 0 -12 38.7 12.3
-6 0 -12 52.89 10.82
6 0 12 71.76 11.38
-7 0 -12 -6.89 10.62
-7 0 -12 9.77 7.89
7 0 12 3.89 6.32
-8 0 -12 5.63 13.54
8 0 12 2.52 6.22
-2 -1 -12 104.57 13.98
2 1 12 126.67 14.11
-3 -1 -12 19.94 8.84
3 1 12 16.89 7.13
-4 -1 -12 7.55 7.38
-4 -1 -12 27.12 7.75
4 1 12 13.64 7.8
-5 -1 -12 10.16 8.04
-5 -1 -12 -1.44 7.11
5 1 12 6.31 6.96
-6 -1 -12 16.93 10.12
-6 -1 -12 20.89 9.11
6 1 12 18.85 7.6
-7 -1 -12 8.2 7.92
-7 -1 -12 -16.48 15.38
7 1 12 5 6.27
-8 -1 -12 -9.23 10.15
-8 -1 -12 0.91 10.22
8 1 12 10.46 6.22
-2 -2 -12 64.48 11.7
2 2 12 75.24 13.25
-3 -2 -12 27 8.59
3 2 12 25.13 8.22
-4 -2 -12 52.5 10.46
4 2 12 38.36 9.37
-5 -2 -12 145.79 13.8
-5 -2 -12 113.74 14.18
5 2 12 148.91 14.36
-6 -2 -12 -0.86 7.66
-6 -2 -12 -0.22 7.17
6 2 12 1.58 6.63
-7 -2 -12 90.68 13.68
-7 -2 -12 66.78 12.92
7 2 12 96.04 12.37
-8 -2 -12 19.64 8.59
-8 -2 -12 3.13 11.59
8 2 12 32.25 7.91
-2 -3 -12 19.77 8.94
2 3 12 29.46 14.07
-3 -3 -12 37.06 9.84
3 3 12 45.2 9.29
-4 -3 -12 0.43 7.72
4 3 12 5.97 6.5
-5 -3 -12 1.52 6.65
5 3 12 -2.21 5.77
-6 -3 -12 19.88 7.92
-6 -3 -12 6.7 7.26
6 3 12 15.47 7.35
-7 -3 -12 34.42 10.08
-7 -3 -12 26.49 9.33
7 3 12 40.19 8.81
-8 -3 -12 -2.54 7.2
-8 -3 -12 -14.72 8.04
8 3 12 0.84 5.97
-9 -3 -12 87.72 17.05
-9 -3 -12 125.99 18.61
-2 -4 -12 91.68 14.71
-3 -4 -12 25.97 9.23
3 4 12 39.55 9.49
-4 -4 -12 15.65 8.7
4 4 12 27.05 8.56
-5 -4 -12 26.77 9.05
5 4 12 33.62 8.59
-6 -4 -12 20.8 6.52
-6 -4 -12 7.35 7.18
6 4 12 12.54 7.38
-7 -4 -12 22.65 7.59
-7 -4 -12 27.8 9.37
7 4 12 29.82 8.24
-8 -4 -12 36.73 10.19
-8 -4 -12 44.3 12.79
-3 -5 -12 -0.86 9.34
-4 -5 -12 21.99 9.23
4 5 12 35.04 9.17
-5 -5 -12 116.13 14.7
5 5 12 95.3 12
-6 -5 -12 16.37 8.03
6 5 12 22.56 7.76
-7 -5 -12 95.65 14.94
7 5 12 104.56 13.46
8 5 12 8.23 6.72
4 6 12 37.05 15.18
-5 -6 -12 19.93 17.64
6 6 12 20.55 11.41
