#------------------------------------------------------------------------------
#$Date: 2020-11-04 03:14:36 +0200 (Wed, 04 Nov 2020) $
#$Revision: 258694 $
#$URL: file:///home/coder/svn-repositories/cod/cif/4/51/81/4518132.cif $
#------------------------------------------------------------------------------
#
# This file is available in the Crystallography Open Database (COD),
# http://www.crystallography.net/
#
# All data on this site have been placed in the public domain by the
# contributors.
#
data_4518132
loop_
_publ_author_name
'Vincent, Rebecca C.'
'Vishnoi, Pratap'
'Preefer, Molleigh B.'
'Shen, Jimmy-Xuan'
'Seeler, Fabian'
'Persson, Kristin A.'
'Seshadri, Ram'
_publ_section_title
;
 Li<sub>5</sub>VF<sub>4</sub>(SO<sub>4</sub>)<sub>2</sub>: A Prototype
 High-Voltage Li-Ion Cathode.
;
_journal_issue                   43
_journal_name_full               'ACS applied materials &amp; interfaces'
_journal_page_first              48662
_journal_page_last               48668
_journal_paper_doi               10.1021/acsami.0c14781
_journal_volume                  12
_journal_year                    2020
_chemical_formula_sum            'F4 Li5 O8 S2 V'
_chemical_formula_weight         353.76
_space_group_crystal_system      monoclinic
_space_group_IT_number           14
_space_group_name_Hall           '-P 2ybc'
_space_group_name_H-M_alt        'P 1 21/c 1'
_audit_creation_method           SHELXL-2014/7
_cell_angle_alpha                90
_cell_angle_beta                 110.335(4)
_cell_angle_gamma                90
_cell_formula_units_Z            2
_cell_length_a                   5.1496(9)
_cell_length_b                   13.045(2)
_cell_length_c                   7.1182(12)
_cell_measurement_reflns_used    1028
_cell_measurement_temperature    299(2)
_cell_measurement_theta_max      25.52
_cell_measurement_theta_min      3.12
_cell_volume                     448.37(13)
_computing_structure_refinement  'SHELXL-2014/7 (Sheldrick, 2014)'
_diffrn_ambient_temperature      299(2)
_diffrn_measured_fraction_theta_full 1.000
_diffrn_measured_fraction_theta_max 0.999
_diffrn_measurement_device_type  'Bruker Kappa Apex II'
_diffrn_radiation_type           MoK\a
_diffrn_radiation_wavelength     0.71073
_diffrn_reflns_av_R_equivalents  0.0866
_diffrn_reflns_av_unetI/netI     0.0715
_diffrn_reflns_Laue_measured_fraction_full 1.000
_diffrn_reflns_Laue_measured_fraction_max 0.999
_diffrn_reflns_limit_h_max       6
_diffrn_reflns_limit_h_min       -6
_diffrn_reflns_limit_k_max       16
_diffrn_reflns_limit_k_min       -16
_diffrn_reflns_limit_l_max       8
_diffrn_reflns_limit_l_min       -8
_diffrn_reflns_number            4609
_diffrn_reflns_point_group_measured_fraction_full 1.000
_diffrn_reflns_point_group_measured_fraction_max 0.999
_diffrn_reflns_theta_full        25.242
_diffrn_reflns_theta_max         26.443
_diffrn_reflns_theta_min         3.123
_exptl_absorpt_coefficient_mu    1.669
_exptl_absorpt_correction_T_max  0.7454
_exptl_absorpt_correction_T_min  0.3474
_exptl_absorpt_correction_type   multi-scan
_exptl_absorpt_process_details   sadabs
_exptl_crystal_colour            green
_exptl_crystal_density_diffrn    2.620
_exptl_crystal_description       block
_exptl_crystal_F_000             340
_exptl_crystal_size_max          0.150
_exptl_crystal_size_mid          0.100
_exptl_crystal_size_min          0.100
_refine_diff_density_max         1.151
_refine_diff_density_min         -0.852
_refine_diff_density_rms         0.166
_refine_ls_extinction_method     none
_refine_ls_goodness_of_fit_ref   1.061
_refine_ls_hydrogen_treatment    undef
_refine_ls_matrix_type           full
_refine_ls_number_parameters     92
_refine_ls_number_reflns         925
_refine_ls_number_restraints     0
_refine_ls_restrained_S_all      1.061
_refine_ls_R_factor_all          0.0716
_refine_ls_R_factor_gt           0.0508
_refine_ls_shift/su_max          0.000
_refine_ls_shift/su_mean         0.000
_refine_ls_structure_factor_coef Fsqd
_refine_ls_weighting_details
'w=1/[\s^2^(Fo^2^)+(0.0722P)^2^+0.4194P] where P=(Fo^2^+2Fc^2^)/3'
_refine_ls_weighting_scheme      calc
_refine_ls_wR_factor_gt          0.1256
_refine_ls_wR_factor_ref         0.1384
_reflns_Friedel_coverage         0.000
_reflns_number_gt                700
_reflns_number_total             925
_reflns_threshold_expression     'I > 2\s(I)'
_cod_data_source_file            am0c14781_si_001.cif
_cod_data_source_block           Li5VF4(SO4)2
_cod_depositor_comments          'Adding full bibliography for 4518132.cif.'
_cod_original_cell_volume        448.36(13)
_cod_original_sg_symbol_H-M      'P 21/c'
_cod_database_code               4518132
_shelx_shelxl_version_number     2014/7
_shelx_space_group_comment
;
The symmetry employed for this shelxl refinement is uniquely defined
by the following loop, which should always be used as a source of
symmetry information in preference to the above space-group names.
They are only intended as comments.
;
_shelx_estimated_absorpt_t_min   0.788
_shelx_estimated_absorpt_t_max   0.851
_shelx_res_file
;

    pv40last_0m_a.res created by SHELXL-2014/7

TITL pv40last_0m_a.res in P2(1)/c
CELL  0.71073    5.1496   13.0447    7.1182    90.000   110.335    90.000
ZERR    2.000   0.0009    0.0022    0.0012     0.000     0.004     0.000
LATT 1
SYMM -X, 1/2+Y, 1/2-Z
SFAC Li O  F  S  V
UNIT 10  16  8  4  2
L.S. 10
ACTA
BOND $H
FMAP 2
PLAN 20
size 0.15 0.1 0.1
TEMP 26.030
WGHT    0.072200    0.419400
FVAR       0.86625
V1    5    0.000000    0.500000    0.500000    10.50000    0.01301    0.01336 =
         0.01669    0.00104    0.00319    0.00101
S1    4    0.410505    0.857403    0.353478    11.00000    0.01422    0.01467 =
         0.01807    0.00017    0.00294    0.00171
F2    3    0.125787    0.528614    0.284849    11.00000    0.02031    0.02563 =
         0.01729   -0.00012    0.00608   -0.00364
F1    3    0.800191    0.626842    0.444816    11.00000    0.01782    0.01937 =
         0.02894    0.00040    0.00128    0.00179
O4    2    0.303671    0.901202    0.501739    11.00000    0.02070    0.03063 =
         0.02006   -0.00224    0.00610    0.00561
O3    2    0.343219    0.925448    0.175967    11.00000    0.01648    0.02777 =
         0.02525    0.00711    0.00354    0.00335
O1    2    0.266341    0.757899    0.289054    11.00000    0.02428    0.01457 =
         0.03652   -0.00421   -0.00091   -0.00297
O2    2    0.709290    0.844987    0.436443    11.00000    0.01785    0.02511 =
         0.02770    0.00352    0.00475    0.00374
LI2   1    0.423384    0.614287    0.299656    11.00000    0.01595    0.02322 =
         0.04212   -0.00016    0.00093   -0.00395
LI3   1    1.009191    0.751722    0.488573    11.00000    0.02540    0.02946 =
         0.04481    0.00506    0.00505    0.00349
LI1   1    0.033124    0.488052    0.002871    10.50000    0.01013
HKLF 4

REM  pv40last_0m_a.res in P2(1)/c
REM R1 =  0.0508 for     700 Fo > 4sig(Fo)  and  0.0716 for all     925 data
REM     92 parameters refined using      0 restraints

END

WGHT      0.0732      0.3932

REM Highest difference peak  1.151,  deepest hole -0.852,  1-sigma level  0.166
Q1    1   0.0739  0.5032  0.3939  11.00000  0.05    1.15
Q2    1   0.3410  0.8545  0.4636  11.00000  0.05    0.73
Q3    1   0.1675  0.5421  0.1574  11.00000  0.05    0.54
Q4    1   0.7589  0.6062  0.6385  11.00000  0.05    0.51
Q5    1   0.3277  0.7690  0.1370  11.00000  0.05    0.49
Q6    1   1.2392  0.7466  0.4614  11.00000  0.05    0.47
Q7    1   0.4007  0.9308  0.0845  11.00000  0.05    0.47
Q8    1   0.2473  0.8813  0.5855  11.00000  0.05    0.47
Q9    1   0.7744  0.8537  0.3433  11.00000  0.05    0.47
Q10   1   0.3784  0.9986  0.1701  11.00000  0.05    0.47
Q11   1   0.2691  0.5105  0.0343  11.00000  0.05    0.46
Q12   1   0.3692  0.7891  0.3461  11.00000  0.05    0.45
Q13   1   0.2541  0.6724  0.3015  11.00000  0.05    0.44
Q14   1   0.1639  0.6152  0.3098  11.00000  0.05    0.44
Q15   1   0.7542  0.7223  0.3997  11.00000  0.05    0.44
Q16   1   0.2315  0.5427  0.4771  11.00000  0.05    0.43
Q17   1   0.3625  0.7478  0.2348  11.00000  0.05    0.39
Q18   1   0.3070  0.9486  0.2974  11.00000  0.05    0.39
Q19   1   0.7086  0.9093  0.4469  11.00000  0.05    0.39
Q20   1   0.6552  0.8471  0.5442  11.00000  0.05    0.39
;
_shelx_res_checksum              2746
_shelx_hkl_file
;
   1   0   0   16.80   10.00
   1   0   0   -3.90    8.50
  -1   0   0   13.60   11.00
  -1   0   0   14.50    9.70
  -1   0   0   11.50    8.60
  -2   0   0  540.75   57.69
   2   0   0  512.55   56.49
  -2   0   0  480.45   56.49
  -3   0   0 2046.60  209.48
  -3   0   0 2062.39  208.18
   3   0   0 1931.81  208.08
   4   0   0   18.30   15.20
  -4   0   0   25.90   22.80
  -4   0   0   16.30   21.80
  -5   0   0  509.45   68.19
   5   0   0  500.25   65.69
  -5   0   0  640.74   69.99
   6   0   0    0.70   24.80
  -6   0   0  -12.60   28.20
  -6   0   0   -3.30   33.00
   0  -1   0    0.20    4.30
   0  -1   0   -1.40    4.00
   0   1   0    1.00    4.80
   0   1   0   -2.10    5.70
   0   1   0   -2.10    3.30
   1  -1   0 1403.86  134.09
   1  -1   0 1227.18  134.29
   1  -1   0 1267.87  133.29
  -1  -1   0 1283.57  133.59
   1  -1   0 1307.47  134.69
  -1  -1   0 1349.07  133.69
  -1   1   0 1291.17  134.89
  -1   1   0 1279.57  133.69
   1   1   0 1212.88  133.49
  -1   1   0 1369.16  134.59
  -2  -1   0 2124.99  216.78
   2  -1   0 2202.18  216.98
   2  -1   0 2205.48  217.98
  -2  -1   0 2146.89  217.28
  -2   1   0 2097.89  216.68
   2   1   0 1963.20  216.58
  -2   1   0 2014.00  217.78
   3  -1   0  792.52   81.99
  -3  -1   0  758.72   82.89
  -3  -1   0  773.62   81.79
  -3   1   0  645.24   83.19
  -3   1   0  771.82   82.19
   3   1   0  746.03   81.39
  -4  -1   0   36.50   21.30
   4  -1   0   31.20   16.10
  -4  -1   0   18.40   22.20
  -4   1   0  -32.70   21.40
   4   1   0   16.10   16.10
  -4   1   0   21.40   22.90
  -5  -1   0   -6.30   26.10
   5  -1   0    2.60   17.90
  -5  -1   0   -0.70   24.20
  -5   1   0    0.00   23.80
  -5   1   0   51.79   29.00
   5   1   0   30.50   21.00
  -6  -1   0  -15.10   31.60
  -6  -1   0   13.80   28.20
   6  -1   0  -14.90   35.20
   6   1   0  -22.60   21.40
  -6   1   0  -27.00   29.90
  -6   1   0    6.10   33.70
   0  -2   0 1365.36  157.08
   0   2   0 1633.74  157.88
   0   2   0 1492.85  157.48
   0   2   0 1643.14  157.28
   1  -2   0 2436.36  266.97
  -1  -2   0 2696.93  266.17
  -1  -2   0 2948.41  266.47
   1  -2   0 2397.36  266.87
  -1  -2   0 2831.32  266.47
  -1   2   0 2623.14  266.57
  -1   2   0 2387.46  267.17
  -1   2   0 2500.35  267.37
  -1   2   0 2538.65  268.57
   1   2   0 2682.03  266.47
  -2  -2   0 1414.66  154.38
   2  -2   0 1637.14  154.98
  -2   2   0 1507.15  156.28
   2   2   0 1376.46  154.08
  -2   2   0 1533.65  154.48
  -3  -2   0  154.08   25.50
  -3  -2   0  189.18   27.00
   3  -2   0  163.48   25.00
  -3   2   0  167.08   27.20
   3   2   0  154.88   24.60
  -3   2   0  110.29   27.10
  -4  -2   0   29.40   21.90
  -4  -2   0   15.50   20.20
   4  -2   0   -5.70   14.50
  -4   2   0   18.50   21.60
   4   2   0  -20.00   15.10
  -4   2   0   -1.00   21.90
   5  -2   0   36.20   19.40
  -5  -2   0   50.69   28.40
  -5  -2   0   38.50   24.40
  -5   2   0   27.30   26.20
   5   2   0   36.30   20.80
  -6  -2   0  289.07   47.50
  -6  -2   0  223.18   41.60
  -6   2   0  219.68   46.30
   6   2   0  238.98   45.10
   0  -3   0  -19.80   10.30
   0  -3   0    3.10   11.40
   0   3   0   11.90   11.90
   0   3   0    4.60   10.10
   0   3   0   -7.40   12.80
   1  -3   0  158.78   28.90
  -1  -3   0  235.28   30.00
   1  -3   0  226.18   29.30
   1  -3   0  250.87   32.80
   1  -3   0  243.58   30.50
   1   3   0  311.37   30.20
  -1   3   0  260.37   31.70
  -1   3   0  258.67   35.50
  -1   3   0  221.78   30.40
   1   3   0  293.77   31.90
  -2  -3   0 1208.78  118.49
  -2  -3   0 1260.27  119.79
  -2   3   0 1110.79  121.59
  -2   3   0 1047.20  123.19
  -2   3   0 1138.79  120.09
   2   3   0 1141.09  119.69
  -2   3   0 1088.49  121.89
   3  -3   0 1204.78  124.39
  -3  -3   0 1212.68  124.49
  -3   3   0 1053.89  125.89
  -3   3   0 1195.58  124.19
   3   3   0 1192.38  123.79
  -4  -3   0   16.20   19.50
  -4  -3   0    1.20   22.00
   4  -3   0   10.00   15.60
   4   3   0   26.00   16.40
  -4   3   0   48.10   24.10
  -4   3   0  -13.20   22.70
  -5  -3   0   78.29   26.30
   5  -3   0  101.49   23.60
  -5  -3   0  124.99   30.20
  -5   3   0   50.99   29.30
  -5   3   0   42.30   30.40
   5   3   0   61.29   22.60
   0  -4   0  791.62   78.39
   0   4   0  779.72   79.99
   0   4   0  686.93   78.69
   0   4   0  636.24   77.09
   1  -4   0 6754.62  729.33
   1  -4   0 7447.35  728.53
   1  -4   0 7107.79  728.13
  -1  -4   0 7732.03  728.03
  -1   4   0 7280.97  728.83
  -1   4   0 6844.52  730.63
  -1   4   0 6864.11  727.83
   2  -4   0 1496.25  158.58
  -2  -4   0 1457.95  154.28
  -2  -4   0 1665.13  155.28
  -2   4   0 1441.16  157.48
  -2   4   0 1510.95  160.18
   2   4   0 1538.15  155.18
  -2   4   0 1372.16  156.78
   3  -4   0  281.37   38.90
   3  -4   0  246.88   35.40
  -3  -4   0  274.87   35.10
  -3   4   0  249.68   38.90
   3   4   0  264.87   35.00
   4  -4   0  683.93   81.69
  -4  -4   0  763.22   82.09
  -4  -4   0  693.83   80.89
   4  -4   0  654.83   80.29
   4   4   0  721.43   79.79
  -4   4   0  738.63   84.59
  -4   4   0  769.32   81.89
  -5  -4   0   21.70   26.10
   5  -4   0   10.30   18.30
  -5  -4   0   26.00   22.90
   5   4   0   65.49   20.70
  -5   4   0   38.40   32.10
  -5   4   0   17.90   27.60
   0  -5   0   -9.20   12.20
   0   5   0   33.60   17.10
   0   5   0  -10.10   12.60
   1  -5   0 2895.31  277.07
   1  -5   0 2293.07  278.47
  -1  -5   0 2715.23  276.87
  -1   5   0 2691.73  278.17
   1   5   0 2977.10  278.07
  -1   5   0 2914.21  281.07
  -1   5   0 2431.26  276.37
   2  -5   0  799.72   90.79
  -2  -5   0  852.81   84.69
  -2   5   0  668.13   86.49
  -2   5   0  794.22   92.19
  -2   5   0  759.92   88.59
   2   5   0  880.51   84.99
  -3  -5   0 1378.76  144.29
   3  -5   0 1371.66  146.89
  -3  -5   0 1472.55  146.49
   3  -5   0 1452.75  150.38
  -3   5   0 1269.47  148.39
   3   5   0 1424.06  145.89
  -4  -5   0  503.15   61.79
  -4  -5   0  478.25   61.19
   4  -5   0  510.05   61.29
   4  -5   0  527.95   64.39
   4   5   0  502.25   59.39
  -4   5   0  440.36   63.19
  -4   5   0  581.84   64.19
  -5  -5   0   44.30   28.80
  -5  -5   0   28.70   23.30
   5  -5   0   29.30   21.00
  -5   5   0  101.89   33.90
  -5   5   0   52.99   29.50
   5   5   0   71.29   20.90
   0  -6   0  500.85   59.19
   0   6   0  461.25   59.99
   0   6   0  598.74   62.49
  -1  -6   0  600.94   65.49
   1  -6   0  591.14   70.19
  -1   6   0  529.55   71.19
   1   6   0  674.93   67.79
  -1   6   0  583.34   68.49
   2  -6   0 1422.06  158.18
  -2  -6   0 1517.45  153.28
  -2   6   0 1452.35  156.68
  -2   6   0 1501.65  154.68
  -2   6   0 1467.05  160.78
   3  -6   0   42.90   23.00
  -3  -6   0   -0.10   10.30
  -3  -6   0   27.30   15.70
   3  -6   0   13.30   15.60
  -3   6   0  -18.40   18.50
   3   6   0   13.30   12.60
  -3   6   0  -29.10   22.20
  -4  -6   0   10.80   18.80
   4  -6   0    3.80   20.80
   4  -6   0   17.90   18.60
   4   6   0   12.00   14.20
  -4   6   0   14.10   24.90
   5  -6   0  377.16   52.19
  -5  -6   0  586.24   57.59
  -5  -6   0  264.77   49.50
  -5   6   0  330.97   54.69
   5   6   0  459.45   52.19
  -5   6   0  415.66   58.79
   0  -7   0  -14.50   14.60
   0   7   0   -6.30   17.70
   0   7   0  -15.70   15.00
  -1  -7   0  135.39   24.50
   1  -7   0  196.38   32.00
  -1   7   0  184.48   33.40
   1   7   0  211.98   29.00
  -1   7   0  181.38   28.80
  -2  -7   0  992.80  104.89
   2  -7   0  987.10  110.89
   2  -7   0  874.61  104.59
   2   7   0 1115.49  106.29
  -2   7   0  990.10  109.39
  -2   7   0 1000.50  114.29
  -2   7   0  927.81  105.49
  -3  -7   0  139.09   21.00
   3  -7   0  142.99   25.00
   3  -7   0  149.09   33.30
  -3   7   0  124.39   33.10
   3   7   0  151.28   21.50
  -3   7   0   70.79   26.00
  -3   7   0  141.69   37.10
   4  -7   0  131.59   27.80
  -4  -7   0  129.69   27.30
   4  -7   0  167.58   33.40
  -4   7   0   64.29   29.80
   4   7   0  187.88   25.70
   5  -7   0   31.30   27.80
   5  -7   0   27.00   22.60
  -5  -7   0   41.80   23.40
  -5  -7   0   94.59   29.80
  -5   7   0   85.99   35.90
   5   7   0   41.20   18.90
  -5   7   0   66.89   29.70
   0  -8   0 6063.49  591.04
   0   8   0 5199.78  590.14
   0   8   0 6070.79  593.34
  -1  -8   0  314.47   39.70
   1  -8   0  231.78   41.60
  -1   8   0  326.37   48.20
  -1   8   0  317.27   41.50
   1   8   0  340.37   43.70
  -2  -8   0  255.07   30.90
   2  -8   0  216.28   39.00
  -2   8   0  129.49   28.80
   2   8   0  256.67   34.50
  -2   8   0  239.48   37.30
  -2   8   0  196.98   44.30
   3  -8   0   90.89   22.20
   3  -8   0   85.29   30.80
  -3  -8   0  119.79   18.90
  -3   8   0   83.29   30.60
  -3   8   0   69.19   34.00
  -3   8   0   48.70   24.40
   4  -8   0  338.67   49.20
   4  -8   0  306.67   41.50
   4   8   0  316.97   38.80
  -4   8   0  168.28   40.70
  -5  -8   0  627.74   68.69
   5  -8   0  598.04   68.69
   5  -8   0  579.74   67.69
  -5   8   0  325.17   65.79
  -5   8   0  551.64   69.19
   5   8   0  528.85   63.19
   0  -9   0    5.80   18.20
   0   9   0  -35.50   19.20
   0   9   0   22.30   18.70
   1  -9   0   28.90   22.20
  -1  -9   0    8.60   15.90
  -1   9   0   18.80   19.60
   1   9   0   39.40   22.60
  -1   9   0   11.00   22.90
   2  -9   0   43.90   25.60
   2  -9   0   46.10   19.40
  -2  -9   0   64.09   18.90
  -2   9   0   93.99   35.00
  -2   9   0   12.40   23.50
   2   9   0   55.99   20.10
   3  -9   0  587.74   74.69
   3  -9   0  669.33   86.29
  -3  -9   0  784.12   73.79
  -3   9   0  572.94   76.69
  -3   9   0  744.13   84.69
  -3   9   0  539.35   88.49
   4  -9   0  241.08   34.90
   4  -9   0  193.88   41.20
   4   9   0  266.07   31.00
  -4   9   0   88.29   35.20
   5  -9   0   34.80   25.10
  -5   9   0   34.60   32.10
   5   9   0   91.19   20.20
  -5   9   0   20.10   29.50
   0 -10   0  195.08   34.70
   0  10   0  207.48   35.50
   0  10   0  254.47   41.30
  -1 -10   0  961.30  102.09
   1 -10   0  823.32  106.49
  -1  10   0  848.02  104.19
  -1  10   0  888.81  109.39
   1  10   0 1033.00  106.59
   1  10   0 1011.70  106.79
   2 -10   0  216.78   44.20
   2 -10   0  253.57   34.00
  -2 -10   0  238.48   34.70
   2  10   0  285.37   40.90
  -2  10   0  188.18   47.90
  -2  10   0  209.18   40.50
   3 -10   0  164.18   37.10
  -3 -10   0  148.39   25.20
  -3  10   0   93.39   43.70
  -3  10   0  112.29   33.90
   4 -10   0  284.37   37.80
   4 -10   0  258.87   47.50
  -4  10   0  150.88   38.70
  -4  10   0  234.48   46.40
   0 -11   0   -6.60   22.30
   0  11   0  -14.80   26.50
   0  11   0  -12.40   23.80
  -1 -11   0   16.20   19.20
   1 -11   0  -10.90   24.80
   1  11   0   25.00   26.00
  -1  11   0   40.10   24.20
   1  11   0   60.09   29.10
  -1  11   0   38.90   28.70
   2 -11   0  117.99   24.80
  -2 -11   0  105.79   25.20
   2 -11   0  106.89   33.10
  -2  11   0   82.39   31.70
  -2  11   0  102.19   38.40
   2  11   0  127.99   31.40
   3 -11   0    3.00   27.20
  -3 -11   0   33.60   18.40
  -3  11   0  -35.30   32.10
  -3  11   0   17.00   28.60
   4 -11   0   30.90   32.10
  -4  11   0   30.80   33.80
   0 -12   0  271.87   44.90
   0  12   0  304.17   45.50
   0  12   0  261.97   50.19
  -1 -12   0  200.68   34.50
   1 -12   0  199.68   41.40
   1  12   0  226.28   43.70
  -1  12   0  198.48   37.80
  -1  12   0  174.48   43.80
   1  12   0  198.78   40.40
   2 -12   0  106.29   24.70
   2 -12   0   25.90   33.80
  -2 -12   0   67.89   24.10
  -2  12   0   20.80   35.30
   2  12   0  143.69   34.50
  -2  12   0  118.19   33.10
  -3 -12   0  831.52   95.19
   3 -12   0  940.71  111.79
  -3  12   0  815.42  105.99
  -3  12   0  838.52  115.79
   4 -12   0  240.18   49.00
  -4  12   0  180.68   48.80
   0 -13   0    5.20   26.10
   0  13   0  -11.50   24.80
   0  13   0   13.20   31.70
  -1 -13   0   72.69   26.70
   1 -13   0   49.99   32.40
  -1  13   0  106.09   31.40
   1  13   0   75.09   34.40
   1  13   0   57.79   32.50
  -1  13   0   65.99   36.80
  -2 -13   0  309.17   42.90
   2 -13   0  263.37   39.70
   2 -13   0  307.57   57.19
   2  13   0  238.68   47.70
  -2  13   0  286.77   49.20
  -2  13   0  212.48   53.49
   2  13   0  377.56   53.99
   3 -13   0  308.47   60.09
   3 -13   0  255.77   41.20
  -3 -13   0  346.97   45.60
  -3  13   0  355.06   56.49
  -3  13   0  363.36   71.69
   0 -14   0  561.44   78.99
   0  14   0  571.64   83.19
   0  14   0  664.63   80.89
   1 -14   0  -31.00   30.80
  -1 -14   0   34.20   26.10
   1  14   0   42.20   33.50
  -1  14   0   20.10   36.80
  -1  14   0   56.99   30.10
   1  14   0   59.89   33.70
   2 -14   0  343.97   60.39
  -2 -14   0  350.36   47.20
   2 -14   0  341.37   44.70
  -2  14   0  261.17   59.39
  -2  14   0  246.98   50.69
   2  14   0  397.66   83.59
   2  14   0  336.57   55.59
  -3 -14   0  206.48   36.70
   3 -14   0  155.98   29.20
   3 -14   0  166.18   50.49
  -3  14   0  134.19   42.90
  -3  14   0  141.29   54.89
   0 -15   0   -6.00   28.80
   0  15   0  -13.60   28.20
   0  15   0   24.20   35.90
   1 -15   0  -40.80   31.20
  -1 -15   0   11.30   27.40
   1 -15   0   36.70   29.60
   1  15   0   62.89   36.50
  -1  15   0   33.40   30.60
   1  15   0   23.90   32.70
  -1  15   0   83.29   42.10
   2 -15   0   14.50   23.20
  -2 -15   0   13.10   25.00
   2 -15   0   48.60   43.20
   2  15   0   51.79   40.10
  -2  15   0    8.70   35.10
  -2  15   0  -28.30   32.70
   0 -16   0   31.70   36.10
   0  16   0  164.18   48.50
   0  16   0  127.09   39.30
   1 -16   0  127.79   48.40
   1 -16   0  129.49   52.09
  -1  16   0  186.38   52.39
   1  16   0  202.28   51.19
  -1  16   0   90.69   40.80
   1  16   0  237.08   51.39
  -6   0   1   17.30   26.50
   6   0  -1   11.50   19.90
  -5   0   1    0.20   22.50
   5   0  -1    1.10   16.10
   4   0  -1   19.50   14.10
  -4   0   1   -9.90   16.20
  -3   0   1  -15.10   11.00
   3   0  -1   11.70   13.40
  -2   0   1   -0.30   10.10
  -1   0   1   -5.60    4.80
   1   0  -1   -0.80    5.80
   1   0  -1   -1.10    6.40
  -1   0   1    6.20    7.50
   0   0  -1   -3.20    6.70
   0   0   1   13.80    7.50
   0   0   1   -2.70    5.30
   0   0  -1   -1.70    6.30
   0   0  -1    1.90    6.30
   0   0   1    8.10    6.70
   1   0   1   -7.40   11.20
   1   0   1   19.10   11.40
   1   0   1  -20.50    7.00
  -1   0  -1   19.90   12.90
  -1   0  -1    2.20    9.20
   1   0   1   22.70   13.30
   1   0   1   14.70    9.50
  -1   0  -1   -6.00   12.70
  -1   0  -1   -8.90    9.10
   2   0   1   18.40   12.80
  -2   0  -1   40.00   16.40
  -3   0  -1  -22.00   18.60
  -3   0  -1  -12.00   17.80
   3   0   1   -0.10   15.10
  -4   0  -1   20.40   22.90
  -4   0  -1  -16.00   23.30
   4   0   1   29.40   18.80
   5   0   1  -11.30   19.60
  -5   0  -1   -6.10   25.20
  -5   0  -1  -26.80   28.60
  -6  -1   1  390.96   65.69
   6  -1  -1  592.14   66.79
  -6   1   1  535.25   69.99
   6   1  -1  475.75   65.29
  -6   1   1  779.12   73.89
  -5  -1   1  419.76   45.70
  -5  -1   1  240.88   41.20
   5  -1  -1  261.47   39.20
  -5   1   1  263.77   43.40
   5   1  -1  276.67   39.10
   4  -1  -1  127.99   22.40
  -4  -1   1  112.19   26.00
  -4  -1   1   81.29   20.70
  -4   1   1   58.29   22.20
   4   1  -1  109.49   21.10
   3  -1  -1    0.80   13.90
  -3  -1   1   10.90   16.70
  -3  -1   1   -5.10   10.70
   3   1  -1    2.20   12.60
  -3   1   1  -13.60   12.10
  -2  -1   1  331.87   39.40
   2   1  -1  375.16   40.60
  -2   1   1  322.97   40.20
  -1  -1   1 3336.47  348.27
   1  -1  -1 3424.56  348.07
   1  -1  -1 3277.57  348.37
   1  -1  -1 3356.16  348.17
  -1  -1   1 3738.03  348.17
   1   1  -1 3610.14  348.17
  -1   1   1 3189.98  348.57
  -1   1   1 3396.96  348.17
  -1   1   1 3569.44  348.27
   1   1  -1 3309.87  348.17
   0  -1   1  256.57   28.80
   0  -1   1  241.78   28.50
   0  -1  -1  249.58   28.10
   0  -1  -1  264.17   28.30
   0   1  -1  234.88   29.20
   0   1   1  237.48   28.80
   0   1   1  241.08   28.00
   0   1   1  250.87   28.20
   0   1  -1  250.87   28.10
  -1  -1  -1 2211.28  228.98
   1  -1   1 2194.08  229.08
  -1  -1  -1 2156.88  229.38
  -1  -1  -1 2373.36  229.58
  -1  -1  -1 2322.87  229.48
   1  -1   1 2242.08  229.28
   1  -1   1 2209.98  229.08
   1  -1   1 1927.71  229.18
   1  -1   1 2267.07  229.48
  -1   1  -1 2216.58  230.28
  -1   1  -1 2240.28  228.98
  -1   1  -1 2145.19  229.38
  -1   1  -1 2387.66  229.88
   1   1   1 2322.57  229.58
   1   1   1 2285.97  229.38
   1   1   1 2317.67  228.98
  -2  -1  -1 3968.50  433.06
  -2  -1  -1 3870.21  432.16
   2  -1   1 4317.77  433.26
  -2  -1  -1 4536.05  434.16
  -2   1  -1 4254.57  433.26
  -2   1  -1 4767.22  434.46
   2   1   1 4510.35  433.06
   2   1   1 3763.82  432.96
  -3  -1  -1   -2.10   18.40
   3  -1   1    0.80   14.90
  -3  -1  -1   22.00   19.50
  -3   1  -1   -0.60   21.00
   3   1   1   -2.70   15.00
  -3   1  -1   10.10   18.70
  -4  -1  -1  408.66   54.49
   4  -1   1  464.95   54.79
  -4  -1  -1  454.95   54.79
  -4   1  -1  415.86   54.79
  -4   1  -1  350.56   53.39
   4   1   1  413.26   53.89
  -5  -1  -1  148.59   34.50
  -5  -1  -1  185.88   38.50
   5  -1   1  168.98   32.40
  -5   1  -1  194.48   36.50
   5   1   1  150.28   31.90
  -5   1  -1  228.38   40.30
   6  -2  -1    9.60   19.00
  -6  -2   1   -7.30   26.10
  -6  -2   1  -13.00   29.60
  -6   2   1   76.89   34.30
  -6   2   1   34.10   27.70
   6   2  -1  -30.50   18.00
  -5  -2   1  132.69   28.40
  -5  -2   1  213.38   34.30
   5  -2  -1  108.79   25.40
  -5   2   1   56.39   30.60
  -5   2   1  174.88   33.50
   5   2  -1  151.78   26.20
  -4  -2   1 1067.09   98.19
   4  -2  -1  810.52   96.79
  -4  -2   1  893.11   96.89
  -4   2   1  896.91   98.89
   4   2  -1  836.82   96.29
  -3  -2   1  901.31   95.29
   3   2  -1  866.21   95.09
  -3   2   1  925.71   96.39
  -2  -2   1    3.00    9.10
  -2   2   1    8.20   10.80
   2   2  -1   14.00   11.40
   1  -2  -1  235.28   22.80
   1  -2  -1   89.79   20.20
  -1  -2   1  142.89   19.10
  -1  -2   1  174.28   19.20
   1  -2  -1  169.68   18.80
  -1   2   1  143.69   19.80
  -1   2   1  222.68   23.10
  -1   2   1  199.48   19.00
  -1   2   1  114.99   19.40
   1   2  -1  143.49   19.30
   0  -2  -1 1494.65  150.88
   0  -2   1 1433.36  150.68
   0  -2  -1 1551.84  151.08
   0  -2   1 1299.17  150.08
   0  -2   1 1602.24  151.08
   0  -2  -1 1586.94  151.68
   0   2  -1 1327.57  150.48
   0   2   1 1516.15  151.68
   0   2   1 1520.45  151.08
   0   2   1 1490.25  151.08
   0   2  -1 1477.35  150.78
   0   2  -1 1358.86  152.88
   1  -2   1 5022.20  504.45
  -1  -2  -1 4953.00  504.55
   1  -2   1 4321.57  504.45
  -1   2  -1 4478.95  506.35
  -1   2  -1 5350.36  505.25
   1   2   1 5232.78  504.75
   1   2   1 5010.70  504.75
  -1   2  -1 4984.80  504.75
   1   2   1 5257.27  504.65
  -1   2  -1 4825.22  504.35
  -2  -2  -1   56.49   18.00
  -2  -2  -1   58.79   12.90
   2  -2   1   27.30   13.80
  -2   2  -1   50.99   17.90
  -2   2  -1   51.69   18.30
  -2   2  -1   34.60   17.80
   2   2   1   62.69   13.80
  -3  -2  -1  183.28   25.10
   3  -2   1  179.48   28.20
  -3  -2  -1  226.48   32.10
  -3  -2  -1  288.07   33.40
   3   2   1  152.58   27.50
  -3   2  -1  252.17   33.90
  -3   2  -1  219.48   32.40
   4  -2   1   24.90   19.80
  -4  -2  -1   78.09   26.30
  -4  -2  -1   88.69   25.60
   4   2   1   98.79   20.80
  -4   2  -1   87.59   28.70
  -4   2  -1   36.00   25.50
  -5  -2  -1   47.10   29.00
  -5  -2  -1   25.10   25.60
   5  -2   1   30.60   22.80
   5   2   1    0.10   20.60
  -5   2  -1   54.79   32.30
  -5   2  -1   23.50   27.80
  -6  -3   1    1.90   24.30
  -6  -3   1   -7.40   29.50
   6  -3  -1  -22.30   17.60
  -6   3   1   11.90   31.60
  -6   3   1  -30.60   27.20
   6   3  -1  -15.40   17.50
  -5  -3   1  119.09   30.10
   5  -3  -1   99.29   23.70
  -5  -3   1   68.39   24.30
   5   3  -1  122.89   23.60
  -5   3   1   75.59   30.10
  -5   3   1   89.19   30.10
  -4  -3   1  684.73   65.89
   4  -3  -1  515.95   64.89
  -4  -3   1  538.75   63.49
   4   3  -1  561.34   63.39
  -4   3   1  494.45   67.49
  -3  -3   1  197.08   28.00
  -3   3   1  170.88   29.80
   3   3  -1  247.78   28.80
   2  -3  -1  281.97   39.30
  -2  -3   1  322.67   36.80
  -2   3   1  313.17   39.00
  -2   3   1  339.17   44.30
   2   3  -1  351.26   37.60
   1  -3  -1  757.32   71.29
  -1  -3   1  616.64   65.79
   1  -3  -1  528.05   66.69
   1  -3  -1  788.82   69.89
  -1  -3   1  601.34   66.39
   1  -3  -1  691.23   67.19
   1  -3  -1  519.05   68.09
   1   3  -1  543.05   65.79
   1   3  -1  632.14   66.29
  -1   3   1  752.72   67.89
  -1   3   1  741.23   69.79
   0  -3  -1 4864.41  468.75
   0  -3  -1 4826.92  468.25
   0  -3   1 3982.40  469.65
   0  -3  -1 4492.25  467.65
   0   3   1 4714.53  468.85
   0   3   1 4753.82  467.85
   0   3   1 4452.85  468.35
   0   3  -1 4563.44  469.95
   0   3   1 4973.10  468.35
   0   3  -1 4270.77  467.75
  -1  -3  -1  680.73   70.39
   1  -3   1  506.05   77.99
   1  -3   1  697.93   70.69
   1  -3   1  603.94   70.49
  -1   3  -1  669.53   72.19
  -1   3  -1  693.03   71.59
   1   3   1  727.43   70.99
  -1   3  -1  640.74   75.79
  -1   3  -1  705.53   72.39
   2  -3   1  797.72   83.79
  -2  -3  -1  767.52   82.39
  -2  -3  -1  883.31   84.99
   2  -3   1  710.33   83.49
  -2   3  -1  749.13   84.49
  -2   3  -1  753.52   87.49
   2   3   1  721.43   83.19
  -2   3  -1  902.01   85.69
   3  -3   1 3730.03  363.26
  -3  -3  -1 3238.88  362.66
  -3  -3  -1 3375.86  361.36
  -3  -3  -1 3927.01  364.36
  -3   3  -1 3758.22  364.66
  -3   3  -1 3422.66  362.86
   3   3   1 3375.56  362.86
  -4  -3  -1  108.89   26.30
   4  -3   1   32.20   20.10
  -4  -3  -1  103.69   26.50
  -4   3  -1   78.79   28.30
  -4   3  -1   22.70   26.90
   4   3   1   78.09   20.50
  -5  -3  -1   84.39   29.20
  -5  -3  -1  135.39   33.50
   5  -3   1  102.89   29.10
   5  -3   1  117.19   31.50
  -5   3  -1  106.89   33.10
   5   3   1  111.89   26.50
  -5   3  -1  126.89   34.70
  -6  -4   1    0.70   30.40
  -6  -4   1   -7.60   23.80
   6  -4  -1  -25.50   18.80
  -6   4   1  -12.00   27.50
   6   4  -1  -13.60   20.20
  -6   4   1   -1.50   35.10
  -5  -4   1   -8.50   18.40
   5  -4  -1   17.80   18.10
  -5  -4   1   -3.80   26.00
  -5   4   1   35.30   26.50
  -5   4   1  -38.20   25.20
   5   4  -1   -1.80   15.90
   4  -4  -1  220.08   34.90
  -4  -4   1  207.78   31.50
  -4   4   1  170.68   37.40
   4   4  -1  297.67   33.40
  -3  -4   1   33.10   13.20
   3  -4  -1   23.60   15.30
  -3   4   1    9.70   18.90
   3   4  -1   68.09   14.30
  -2  -4   1   24.70   10.00
  -2  -4   1   38.80    9.60
   2  -4  -1   22.80   15.30
   2  -4  -1   25.20   10.30
  -2   4   1   15.70   14.40
  -2   4   1   19.10   15.10
   2   4  -1   31.80   12.20
   1  -4  -1    8.60   11.70
  -1  -4   1    2.50   10.40
   1  -4  -1    3.50   13.30
  -1   4   1    5.10   14.20
  -1   4   1   -4.00   15.90
   1   4  -1    4.80   14.50
   0  -4  -1  608.94   57.79
   0  -4  -1  549.05   58.29
   0  -4  -1  493.75   55.79
   0  -4  -1  484.75   57.29
   0   4  -1  490.25   57.59
   0   4  -1  465.15   60.39
   0   4   1  524.55   58.99
   0   4   1  494.95   56.29
   0   4   1  527.95   58.49
   1  -4   1  124.69   19.00
  -1  -4  -1  120.79   18.30
  -1   4  -1  130.09   22.90
  -1   4  -1  132.29   21.20
  -1   4  -1  105.29   27.30
   1   4   1  132.69   19.50
  -2  -4  -1   -1.80   10.10
   2  -4   1   -2.40   12.60
   2  -4   1   -4.90   14.60
  -2   4  -1   10.40   15.30
  -2   4  -1    8.20   20.20
  -2   4  -1   33.30   16.60
   2   4   1   20.80   11.40
  -2   4  -1   10.20   18.00
   3  -4   1  703.83   71.79
  -3  -4  -1  568.54   71.39
   3  -4   1  658.93   72.09
  -3  -4  -1  788.82   74.39
  -3  -4  -1  609.74   68.99
  -3   4  -1  630.64   74.19
   3   4   1  594.64   70.89
  -3   4  -1  590.44   72.99
   4  -4   1   24.50   19.90
  -4  -4  -1   54.69   23.30
  -4  -4  -1   24.00   22.50
   4  -4   1   49.70   23.00
   4   4   1   12.00   17.30
  -4   4  -1    5.50   28.10
  -4   4  -1    7.70   26.30
   5  -4   1  -17.50   25.40
  -5  -4  -1   -8.60   24.30
  -5  -4  -1    0.10   26.20
   5  -4   1  -23.30   21.30
   5   4   1   23.00   20.70
  -5   4  -1  -30.90   34.40
  -5   4  -1  -18.40   28.20
  -5  -5   1  207.98   35.50
  -5  -5   1  128.19   27.50
   5  -5  -1  136.99   28.90
   5   5  -1  177.58   28.70
  -5   5   1  139.19   34.30
   4  -5  -1  155.38   27.90
   4  -5  -1  146.59   29.10
  -4  -5   1  202.38   27.60
  -4   5   1  111.09   31.90
   4   5  -1  179.88   26.30
   3  -5  -1  340.27   46.50
  -3  -5   1  341.17   42.40
  -3   5   1  372.96   49.60
   3   5  -1  389.76   42.70
  -3   5   1  356.96   48.10
  -2  -5   1  459.85   47.50
   2  -5  -1  373.36   52.69
  -2  -5   1  424.26   48.00
  -2   5   1  440.36   53.79
  -2   5   1  440.36   51.49
   1  -5  -1   19.40   12.80
  -1  -5   1    7.40   11.30
   1  -5  -1   -2.90   14.50
  -1   5   1   22.90   14.70
   1   5  -1   15.10   15.60
  -1   5   1    3.50   16.90
   0  -5   1  767.02   75.39
   0  -5  -1  583.24   73.39
   0  -5  -1  713.53   73.79
   0   5   1  759.42   75.59
   0   5  -1  637.64   73.89
   0   5   1  646.24   74.99
   0   5  -1  623.94   75.79
   0   5   1  692.93   72.39
  -1  -5  -1 1291.47  133.89
  -1   5  -1 1231.48  135.09
   1   5   1 1334.37  133.59
  -1   5  -1 1275.67  139.49
   2  -5   1  678.53   73.89
   2  -5   1  589.14   73.09
  -2  -5  -1  771.72   73.29
   2   5   1  793.42   73.79
  -2   5  -1  624.14   76.99
  -2   5  -1  675.93   75.79
  -2   5  -1  643.34   81.79
  -2   5  -1  593.64   76.09
   3  -5   1  983.60   97.99
  -3  -5  -1  929.71   95.69
   3  -5   1  955.50   97.69
  -3   5  -1  935.41   99.69
  -3   5  -1  881.01  100.49
  -3   5  -1  716.33  103.69
   3   5   1  880.71   96.89
  -4  -5  -1  158.68   32.40
   4  -5   1  126.19   28.10
  -4  -5  -1  181.38   31.70
   4  -5   1  160.78   30.90
  -4   5  -1  197.38   35.00
  -4   5  -1  170.68   37.60
   4   5   1  153.68   27.40
  -5  -5  -1    0.70   23.40
   5  -5   1   -8.30   23.20
  -5  -5  -1   -6.40   26.50
   5  -5   1   -2.80   26.60
  -5   5  -1  -18.00   36.40
  -5   5  -1   15.40   30.50
   5   5   1   -5.40   17.70
  -5  -6   1    1.80   18.00
   5  -6  -1   26.60   20.10
  -5  -6   1  -27.00   25.60
   5   6  -1   14.90   16.30
  -5   6   1   38.80   27.00
  -5   6   1  -32.50   29.60
   4  -6  -1  617.34   75.89
  -4  -6   1  646.54   71.39
   4  -6  -1  640.14   75.19
   4   6  -1  685.13   71.69
  -4   6   1  587.24   77.19
  -3  -6   1   20.90   12.70
  -3  -6   1    9.10   10.40
   3  -6  -1    5.70   18.10
   3   6  -1   14.70   17.60
  -3   6   1    4.60   19.70
   3   6  -1   -8.00   11.10
  -3   6   1   -8.10   23.40
  -2  -6   1  132.39   20.30
   2  -6  -1  124.49   20.20
   2  -6  -1  102.99   25.20
   2   6  -1  165.08   26.00
  -2   6   1  130.29   25.70
   1  -6  -1  725.43   80.99
   1  -6  -1  596.64   82.69
  -1  -6   1  779.12   81.29
  -1   6   1  763.42   85.89
  -1   6   1  722.53   82.89
   1   6  -1  921.51   84.49
   0  -6  -1  393.86   43.70
   0  -6   1  319.67   44.80
   0   6  -1  377.76   47.80
   0   6  -1  326.07   44.60
   0   6   1  361.56   46.30
   0   6   1  357.76   41.60
   0   6   1  366.76   46.30
  -1  -6  -1  852.81   88.79
   1  -6   1  711.83   92.39
  -1   6  -1  796.82   95.29
   1   6   1  843.62   88.39
  -1   6  -1  843.02   91.09
   1   6   1  882.11   89.49
   2  -6   1  197.28   27.80
   2  -6   1  242.48   36.50
  -2  -6  -1  225.88   29.20
  -2   6  -1  204.88   32.20
  -2   6  -1  209.78   32.80
   2   6   1  216.18   28.50
  -2   6  -1  223.38   41.40
  -2   6  -1  183.08   30.80
  -3  -6  -1  123.29   19.70
   3  -6   1  126.29   24.90
   3  -6   1  100.79   22.70
   3  -6   1  138.09   29.70
  -3   6  -1  119.39   29.50
  -3   6  -1   70.09   27.60
  -3   6  -1  134.89   34.10
   3   6   1  122.59   21.60
   4  -6   1  -15.90   18.20
   4  -6   1   20.00   22.70
  -4  -6  -1   16.50   21.90
  -4  -6  -1   16.40   23.10
   4  -6   1   18.50   22.10
   4   6   1   -5.00   15.60
  -4   6  -1  -56.69   24.60
  -4   6  -1  -35.00   30.30
  -5  -6  -1  -42.90   23.50
  -5  -6  -1  -26.80   26.40
   5  -6   1   -9.50   25.50
  -5   6  -1  -19.10   29.30
   5   6   1   -7.10   18.00
  -5   6  -1  -51.89   37.60
  -5  -7   1  171.28   29.60
   5  -7  -1  196.18   33.80
  -5   7   1  153.28   37.10
  -5   7   1   94.19   33.70
   5   7  -1  221.88   29.50
   4  -7  -1    8.90   19.80
  -4  -7   1   -6.90   13.70
  -4   7   1  -12.20   22.60
   4   7  -1  -13.00   13.20
  -3  -7   1  376.26   47.90
   3  -7  -1  381.46   55.49
  -3  -7   1  421.86   48.50
   3   7  -1  561.34   54.69
  -3   7   1  421.76   55.69
  -3   7   1  333.87   51.59
   2  -7  -1  -16.10   13.00
   2  -7  -1   -7.90   18.80
  -2  -7   1   10.10   13.20
  -2   7   1    3.70   13.90
  -2   7   1  -10.20   21.50
  -2   7   1   13.80   18.70
   2   7  -1    4.50   16.40
  -1  -7   1 1428.86  149.49
   1  -7  -1 1201.78  151.58
   1  -7  -1 1457.85  149.19
  -1   7   1 1405.46  150.88
  -1   7   1 1369.96  153.68
   1   7  -1 1712.63  153.08
   0  -7  -1   37.30   14.20
   0  -7   1    4.80   15.30
   0   7  -1   32.80   18.90
   0   7   1   34.50   19.10
   0   7  -1   23.10   15.30
   0   7   1   14.20   17.00
  -1  -7  -1 2237.28  233.48
   1  -7   1 2142.99  236.58
   1   7   1 2178.68  232.58
  -1   7  -1 2246.08  234.98
  -1   7  -1 2355.06  239.88
   1   7   1 2415.26  234.88
   2  -7   1  400.16   49.00
  -2  -7  -1  293.67   40.30
  -2   7  -1  316.77   53.69
   2   7   1  315.27   40.20
  -2   7  -1  353.86   45.60
   3  -7   1  157.18   27.90
   3  -7   1  177.68   29.80
  -3  -7  -1  257.37   27.80
   3  -7   1  206.28   37.60
  -3   7  -1  153.28   34.10
  -3   7  -1  164.38   34.80
  -3   7  -1  157.28   40.60
  -3   7  -1  221.78   36.40
   3   7   1  164.38   27.10
   4  -7   1 1240.68  133.09
  -4  -7  -1 1251.17  132.29
   4  -7   1 1404.86  132.29
   4  -7   1 1181.18  137.09
   4   7   1 1224.98  131.09
  -4   7  -1 1003.60  135.89
  -4   7  -1 1247.08  134.69
   5  -7   1   -1.70   25.90
   5  -7   1   -8.90   24.00
  -5  -7  -1  -16.10   26.90
   5   7   1   27.80   18.60
  -5   7  -1  -39.70   30.60
  -5   7  -1   20.40   37.00
   5  -8  -1  149.39   32.80
  -5  -8   1  137.19   26.40
   5   8  -1  173.58   26.10
  -5   8   1   62.69   32.00
  -4  -8   1  300.47   35.80
   4  -8  -1  256.87   43.60
  -4   8   1  183.88   39.50
  -4   8   1  312.17   48.60
  -3  -8   1  509.75   56.39
   3  -8  -1  522.95   66.19
   3   8  -1  590.04   61.59
  -3   8   1  483.45   66.39
  -3   8   1  343.87   57.29
  -2  -8   1    5.00   14.50
   2  -8  -1   31.20   16.00
   2  -8  -1   39.60   22.50
  -2   8   1   -4.50   23.80
   2   8  -1   65.39   20.70
  -2   8   1   48.10   22.20
   1  -8  -1 1194.58  128.79
  -1  -8   1 1197.78  129.19
   1  -8  -1 1221.38  131.89
   1   8  -1 1318.37  131.89
  -1   8   1 1151.58  130.49
  -1   8   1 1238.88  134.49
   0  -8   1    3.20   15.50
   0  -8  -1   -2.50   14.10
   0   8   1   23.40   19.20
   0   8   1   10.30   17.80
   0   8  -1   -2.60   18.90
   0   8  -1  -16.20   15.10
   1  -8   1  164.88   31.30
  -1  -8  -1  161.48   25.40
   1   8   1  165.18   27.50
  -1   8  -1  130.39   27.20
  -1   8  -1  145.69   36.10
  -2  -8  -1  265.87   33.40
   2  -8   1  254.77   41.70
  -2   8  -1  218.98   46.70
  -2   8  -1  276.47   40.60
   2   8   1  229.78   31.80
   3  -8   1   64.99   30.50
  -3  -8  -1  149.39   21.80
  -3   8  -1   95.39   30.00
  -3   8  -1   90.19   30.00
  -3   8  -1   62.49   28.10
  -3   8  -1  145.39   40.00
   3   8   1  134.49   22.00
   4  -8   1  263.87   41.40
   4  -8   1  224.78   34.30
  -4   8  -1  174.78   40.30
  -4   8  -1  122.19   38.40
   4   8   1  187.68   29.70
   5  -9  -1  305.87   40.70
  -5   9   1  116.89   36.40
   4  -9  -1  248.58   42.00
  -4   9   1  268.27   45.90
  -4   9   1  120.39   32.70
   3  -9  -1   13.10   23.60
  -3  -9   1  -23.40   14.60
   3   9  -1   11.80   19.80
  -3   9   1   -3.50   16.70
  -3   9   1   -1.80   25.10
   2  -9  -1  477.75   64.49
   2  -9  -1  460.95   57.39
  -2  -9   1  460.65   56.99
   2   9  -1  556.64   61.29
  -2   9   1  476.95   63.79
  -2   9   1  450.45   68.19
  -1  -9   1  433.66   51.59
   1  -9  -1  470.85   49.40
   1  -9  -1  319.67   51.99
   1   9  -1  409.96   53.59
  -1   9   1  397.46   54.29
  -1   9   1  399.36   58.59
   0  -9   1  610.24   82.89
   0  -9  -1  757.72   82.99
   0   9   1  775.82   84.79
   0   9  -1  683.23   83.29
   0   9  -1  783.62   87.39
   0   9   1  798.92   86.19
   1  -9   1  131.09   32.80
  -1  -9  -1  189.98   29.20
  -1   9  -1  156.98   39.90
  -1   9  -1  225.68   33.40
   1   9   1  229.78   33.50
  -2  -9  -1   39.50   16.80
   2  -9   1   19.90   23.00
  -2   9  -1   32.40   30.80
  -2   9  -1   53.09   25.00
  -3  -9  -1  335.57   44.30
   3  -9   1  349.96   53.89
  -3   9  -1  365.56   51.69
  -3   9  -1  388.96   64.19
   3   9   1  311.77   41.80
   4  -9   1   57.19   29.90
   4  -9   1   -0.50   20.30
  -4   9  -1   58.09   31.10
   4   9   1   45.70   18.30
   4 -10  -1  -49.70   24.90
  -4  10   1   16.10   22.90
  -4  10   1   -6.70   33.20
  -3 -10   1   -8.80   16.70
   3 -10  -1   13.70   27.40
   3 -10  -1   27.40   16.10
  -3  10   1    8.50   27.70
   3  10  -1    3.30   20.00
  -2 -10   1  -13.70   15.70
   2 -10  -1   13.40   17.80
   2 -10  -1   -6.40   25.20
  -2  10   1  -21.40   22.00
   2  10  -1    6.30   19.00
  -2  10   1  -10.00   25.40
  -1 -10   1   41.40   20.00
   1 -10  -1   38.60   21.50
   1 -10  -1   48.80   24.80
   1  10  -1   42.60   24.00
  -1  10   1   23.70   22.20
   1  10  -1   75.39   26.80
  -1  10   1   25.40   26.70
   0 -10  -1  106.79   25.40
   0 -10   1  104.79   26.80
   0  10   1  136.09   33.20
   0  10   1  139.99   29.10
   0  10  -1  146.79   34.50
   0  10  -1  145.79   28.20
  -1 -10  -1  618.04   68.99
   1 -10   1  561.24   74.69
  -1  10  -1  551.84   77.19
   1  10   1  568.24   74.29
   1  10   1  633.94   71.49
  -1  10  -1  502.95   71.79
  -2 -10  -1  116.79   24.40
   2 -10   1  116.29   33.00
  -2  10  -1  117.59   31.80
  -2  10  -1  127.59   40.00
  -3 -10  -1   29.50   18.00
   3 -10   1   37.30   27.40
   3  10   1    8.20   15.00
  -3  10  -1   35.20   35.30
  -3  10  -1   18.50   27.40
   4 -10   1  109.59   36.90
   4  10   1  131.99   24.30
   4 -11  -1  194.18   41.70
  -4  11   1  194.38   45.60
  -4  11   1  101.29   31.20
  -3 -11   1  100.39   23.30
   3 -11  -1   78.49   32.60
   3 -11  -1   54.59   19.30
   3  11  -1   60.19   26.30
  -3  11   1   56.89   33.70
   2 -11  -1 1275.87  147.59
   2 -11  -1 1421.76  157.58
  -2 -11   1 1299.07  147.89
   2  11  -1 1541.75  152.58
  -2  11   1 1451.45  160.58
  -2  11   1 1438.46  153.78
   1 -11  -1    1.30   22.30
  -1 -11   1   48.80   22.10
   1 -11  -1   49.50   25.20
  -1  11   1   43.00   25.90
   1  11  -1   72.09   27.70
   1  11  -1   50.29   26.80
  -1  11   1   42.60   31.10
   0 -11   1  261.07   46.10
   0 -11  -1  349.37   47.60
   0  11   1  429.06   53.19
   0  11   1  393.96   55.49
   0  11  -1  350.86   57.29
   0  11  -1  361.56   48.60
   1 -11   1  155.08   36.00
  -1 -11  -1  154.58   30.90
   1  11   1  229.78   38.80
  -1  11  -1  152.68   32.80
   1  11   1  207.88   36.80
  -1  11  -1  131.89   40.40
   2 -11   1   73.49   31.90
  -2 -11  -1  117.39   25.80
  -2  11  -1  140.79   33.00
   2  11   1  137.09   32.60
  -2  11  -1  108.59   39.20
  -3 -11  -1  472.25   59.19
   3 -11   1  506.85   71.79
  -3  11  -1  478.05   82.09
  -3  11  -1  469.85   66.69
   4 -11   1    8.00   29.50
   4  11   1   20.30   24.20
   4 -12  -1  520.05   72.99
  -4  12   1  427.66   70.09
   3 -12  -1  230.28   38.10
  -3 -12   1  335.97   42.60
   3 -12  -1  257.47   53.29
  -3  12   1  314.67   53.99
   3  12  -1  378.16   59.59
   2 -12  -1   -5.10   28.30
   2 -12  -1   10.80   20.00
  -2 -12   1  -11.70   18.80
  -2  12   1    7.40   32.20
  -2  12   1   22.80   28.20
   2  12  -1    0.90   23.40
  -1 -12   1  215.28   34.40
   1 -12  -1  195.48   32.60
   1 -12  -1  149.29   37.90
   1  12  -1  195.48   41.00
  -1  12   1  158.88   43.00
   1  12  -1  155.18   36.80
  -1  12   1  196.58   37.30
   0 -12  -1 1042.80  116.39
   0 -12   1 1099.09  117.39
   0  12  -1  935.91  120.29
   0  12  -1  980.00  116.59
   0  12   1 1138.49  120.99
   0  12   1 1002.00  118.49
   1 -12   1  124.59   33.20
  -1 -12  -1  180.88   33.00
   1  12   1  222.08   40.40
   1  12   1  157.38   40.50
  -1  12  -1  134.29   33.10
  -1  12  -1  156.08   42.10
  -2 -12  -1  -14.40   19.90
   2 -12   1  -46.30   26.70
  -2  12  -1   -4.10   32.90
  -2  12  -1   19.00   27.80
   3 -12   1  126.69   40.10
  -3 -12  -1  186.98   30.10
  -3  12  -1  130.19   49.10
  -3  12  -1  160.78   38.90
   3 -13  -1  380.66   54.99
  -3 -13   1  524.95   61.19
   3 -13  -1  573.34   76.59
  -3  13   1  463.55   69.29
   2 -13  -1   23.80   20.40
   2 -13  -1  -27.90   32.20
  -2 -13   1   37.80   21.70
  -2  13   1    4.50   34.90
   2  13  -1   22.90   30.60
  -2  13   1   24.30   29.70
   2  13  -1   12.60   28.10
  -1 -13   1  883.91  102.89
   1 -13  -1 1183.48  111.69
   1 -13  -1  796.22  101.09
  -1  13   1  880.01  106.89
   1  13  -1  949.90  107.29
  -1  13   1  846.52  112.49
   1  13  -1  846.12  108.69
   0 -13   1   -7.60   26.20
   0 -13  -1  -12.60   25.90
   0 -13  -1  -12.10   27.20
   0  13   1    4.20   32.00
   0  13  -1    2.30   29.70
   0  13  -1    6.20   24.10
   0  13   1   22.30   27.30
  -1 -13  -1   30.70   24.80
   1 -13   1   17.60   25.20
  -1  13  -1   56.89   27.10
   1  13   1   62.59   31.10
   1  13   1   15.20   30.60
  -1  13  -1   -6.70   29.00
   2 -13   1  426.36   66.89
  -2 -13  -1  487.15   61.99
  -2  13  -1  374.36   72.59
   2  13   1  630.24   71.09
  -2  13  -1  457.15   65.99
   3 -13   1   21.40   29.50
  -3 -13  -1    5.70   21.20
  -3  13  -1    7.90   30.80
  -3  13  -1  -38.10   36.60
   3 -14  -1   48.90   20.80
  -3 -14   1   57.99   28.40
   3 -14  -1  -26.50   37.70
  -3  14   1   45.00   36.50
   2 -14  -1   89.49   23.60
   2 -14  -1   71.09   41.00
  -2 -14   1   40.50   25.80
  -2  14   1  103.49   37.30
  -2  14   1   88.79   44.50
   2  14  -1   67.19   37.00
   2  14  -1   71.69   35.10
   1 -14  -1   19.30   33.70
   1 -14  -1   81.19   27.90
  -1 -14   1   81.99   28.50
  -1  14   1  142.49   35.70
  -1  14   1   74.29   41.40
   1  14  -1  133.49   36.40
   1  14  -1  114.49   37.70
   0 -14  -1   24.10   27.90
   0 -14   1    7.50   29.80
   0 -14  -1   18.10   29.30
   0  14  -1   48.30   34.40
   0  14  -1   81.39   30.30
   0  14   1   34.40   30.90
   0  14   1   37.20   36.20
   1 -14   1  -33.30   32.30
  -1 -14  -1   -5.90   24.00
  -1  14  -1   42.20   33.40
  -1  14  -1    5.90   26.80
   1  14   1   26.90   32.90
   1  14   1   23.00   31.40
  -2 -14  -1   -1.20   23.70
   2 -14   1  -17.70   31.30
   2 -14   1  -18.10   23.90
  -2  14  -1   -6.30   35.00
   2  14   1  -20.50   31.90
  -2  14  -1   22.80   30.20
  -2 -15   1   41.50   26.90
   2 -15  -1   19.40   22.80
   2 -15  -1   22.00   41.40
   2  15  -1   -0.20   33.40
   2  15  -1   37.40   36.40
  -2  15   1   27.80   33.00
  -2  15   1   33.20   41.40
   1 -15  -1  516.85   74.69
  -1 -15   1  579.34   70.19
   1 -15  -1  567.24   66.09
  -1  15   1  405.46   78.89
   1  15  -1  575.84   78.39
   1  15  -1  485.85   70.89
  -1  15   1  519.25   72.49
   0 -15  -1  259.67   40.40
   0 -15   1  207.38   44.00
   0 -15  -1  236.38   46.60
   0  15  -1  104.29   44.20
   0  15  -1  246.28   42.20
   0  15   1  194.08   41.70
   0  15   1  157.98   49.70
   1 -15   1   66.79   37.30
  -1 -15  -1   46.20   28.80
   1  15   1   54.59   35.10
  -1  15  -1   62.79   32.40
   1  15   1   56.09   40.60
  -1  15  -1   25.30   34.50
   2 -15   1    0.20   41.40
   2 -15   1   67.29   31.10
  -2  15  -1   18.80   33.70
   1 -16  -1  131.19   58.09
   1 -16  -1   78.09   34.40
  -1 -16   1   69.19   31.10
  -1  16   1   55.19   44.90
   1  16  -1   83.69   42.70
  -1  16   1  108.69   45.30
   1  16  -1  160.28   41.20
   0 -16  -1  140.89   43.00
   0 -16  -1  150.88   37.80
   0 -16   1  122.89   41.20
   0  16  -1  110.29   44.50
   0  16  -1  125.29   37.50
   0  16   1  155.68   41.60
   0  16   1  144.59   51.69
  -6   0   2  319.37   49.70
   6   0  -2  352.46   46.70
  -5   0   2  -14.00   18.80
   5   0  -2   21.70   16.10
   4   0  -2 3399.86  369.56
  -4   0   2 3805.82  369.86
  -3   0   2   17.20   11.50
   2   0  -2  472.15   46.70
  -2   0   2  388.56   47.10
   1   0  -2 2064.79  205.88
  -1   0   2 1921.51  205.68
  -1   0   2 2007.50  206.08
   1   0  -2 2222.48  206.08
  -1   0   2 1972.80  206.18
   1   0  -2 1825.72  205.68
   1   0  -2 2025.60  206.48
   1   0  -2 2078.09  205.98
   0   0   2  625.84   75.49
   0   0   2  838.22   76.49
   0   0  -2  708.43   75.79
   0   0  -2  607.04   75.89
   0   0   2  758.12   76.59
   0   0  -2  830.92   76.29
   1   0   2 1135.09  120.19
  -1   0  -2 1129.79  120.19
  -1   0  -2 1116.29  119.59
   1   0   2 1219.88  119.99
   2   0   2   13.20   12.70
  -2   0  -2   14.40   17.70
  -2   0  -2   24.90   18.00
   2   0   2   29.10   15.50
   3   0   2 3372.46  367.66
  -3   0  -2 3646.94  368.76
  -3   0  -2 3654.13  369.76
   3   0   2 3678.73  368.96
   4   0   2  121.89   32.10
   4   0   2  192.18   32.20
  -4   0  -2  204.98   36.00
  -4   0  -2  214.78   37.00
   5   0   2  437.36   54.79
  -5   0  -2  394.16   56.99
  -5   0  -2  362.96   56.09
   5   0   2  326.57   52.49
   6  -1  -2  163.68   30.20
  -6  -1   2  195.68   35.60
   6   1  -2  170.08   29.80
  -6   1   2  134.79   35.90
   5  -1  -2   78.09   21.60
  -5  -1   2  113.49   25.10
  -5   1   2   96.79   26.00
   5   1  -2   95.99   21.70
  -4  -1   2   42.60   16.10
   4  -1  -2   72.39   18.70
  -4   1   2   54.49   16.60
   4   1  -2   60.09   17.90
  -3  -1   2   24.70   12.30
  -3   1   2   18.00   12.40
   2  -1  -2   17.20    8.10
  -2  -1   2   -6.20   10.30
   2   1  -2   17.40    8.90
  -2   1   2   34.60   11.20
  -2   1   2   27.20   11.20
   1  -1  -2 4017.60  374.56
   1  -1  -2 3192.58  373.86
   1  -1  -2 3224.78  374.46
   1  -1  -2 4152.18  374.86
  -1  -1   2 3597.34  374.06
  -1  -1   2 3574.54  373.96
  -1  -1   2 3744.23  374.36
   1  -1  -2 3721.93  374.06
   1   1  -2 3566.54  374.16
   1   1  -2 3868.31  374.16
  -1   1   2 3559.24  373.96
  -1   1   2 3593.04  374.16
  -1   1   2 3941.01  374.86
   0  -1  -2 4030.10  390.06
   0  -1  -2 3891.31  390.26
   0  -1   2 3672.43  389.96
   0  -1  -2 3655.43  389.56
   0   1   2 3725.73  389.76
   0   1   2 4259.57  390.26
   0   1  -2 4175.98  389.86
   0   1  -2 3688.03  389.86
   0   1   2 3319.27  390.16
   1  -1   2  406.96   44.80
  -1  -1  -2  392.06   44.50
   1  -1   2  367.66   46.10
  -1  -1  -2  414.06   45.50
   1   1   2  427.76   45.10
   1   1   2  354.56   45.50
  -1   1  -2  317.77   45.60
  -1   1  -2  407.26   47.10
  -2  -1  -2  113.29   23.10
  -2  -1  -2  118.19   19.50
   2  -1   2  133.59   21.70
  -2  -1  -2  128.29   23.70
   2  -1   2   93.19   19.40
  -2   1  -2  157.88   24.70
   2   1   2  129.79   21.80
   2   1   2  105.79   19.50
  -2   1  -2  124.09   24.20
  -3  -1  -2   24.60   21.00
   3  -1   2    2.70   16.30
  -3  -1  -2    8.80   21.20
   3  -1   2   22.70   19.00
  -3   1  -2  -12.30   21.60
   3   1   2   25.30   19.60
  -3   1  -2   15.40   22.60
   3   1   2   -5.70   15.20
   4  -1   2  108.39   28.50
  -4  -1  -2   95.99   30.00
   4  -1   2  103.09   27.40
  -4  -1  -2  101.19   30.50
  -4   1  -2   98.59   32.30
  -4   1  -2   90.59   31.20
   4   1   2  134.89   29.20
   4   1   2   98.49   25.20
   5  -1   2  216.18   39.30
   5  -1   2  238.98   41.40
  -5  -1  -2  208.08   40.90
  -5  -1  -2  238.78   43.70
  -5   1  -2  239.28   43.60
   5   1   2  217.48   40.50
  -5   1  -2  166.68   41.80
   5   1   2  177.48   37.10
   6  -2  -2   74.39   24.80
  -6  -2   2  120.39   28.80
   6   2  -2   94.79   22.70
  -6   2   2   48.40   30.30
   5  -2  -2  249.38   38.10
  -5  -2   2  263.37   37.30
   5   2  -2  289.17   36.70
  -5   2   2  239.78   40.00
  -4  -2   2  886.01   93.59
  -4   2   2  860.81   93.79
   4   2  -2  844.32   93.19
  -3  -2   2  885.11   88.39
   3   2  -2  902.31   88.79
  -3   2   2  699.53   88.39
  -2  -2   2   65.99   12.60
   2  -2  -2   56.09    9.70
   2  -2  -2   26.50   10.00
  -2   2   2   47.50   12.60
  -2   2   2   77.29   16.90
  -2   2   2   29.50   10.00
   1  -2  -2  499.05   46.20
  -1  -2   2  434.16   45.00
   1  -2  -2  397.26   43.30
   1  -2  -2  329.07   44.40
  -1   2   2  446.66   47.20
   1   2  -2  362.16   43.50
  -1   2   2  371.56   44.80
   0  -2  -2  428.36   45.80
   0  -2   2  412.46   45.90
   0  -2   2  359.66   45.90
   0   2   2  394.66   46.20
   0   2  -2  390.06   47.00
   0   2   2  421.16   46.00
  -1  -2  -2   27.70   12.20
   1  -2   2   13.80   10.20
   1  -2   2   21.20   12.10
  -1  -2  -2   27.20   14.70
   1  -2   2   33.50   15.20
  -1   2  -2   40.40   16.90
   1   2   2   23.80   12.10
  -1   2  -2   14.30   15.60
   1   2   2    4.70   13.80
   2  -2   2  822.02   90.69
  -2  -2  -2  897.41   91.29
  -2  -2  -2  854.51   89.99
  -2  -2  -2  882.41   91.69
   2  -2   2  793.92   90.19
  -2   2  -2  905.01   91.29
  -2   2  -2  871.71   93.09
  -2   2  -2  920.21   92.79
   2   2   2  766.82   90.49
   2   2   2  766.32   90.39
  -3  -2  -2  518.45   62.89
   3  -2   2  443.06   61.09
   3  -2   2  566.24   63.09
  -3  -2  -2  536.55   63.89
  -3   2  -2  522.25   65.69
   3   2   2  515.35   62.59
  -3   2  -2  579.54   63.19
   3   2   2  518.15   61.59
  -4  -2  -2  716.03   78.89
  -4  -2  -2  636.74   77.29
   4  -2   2  712.63   78.59
   4  -2   2  627.84   76.29
   4   2   2  577.44   76.29
  -4   2  -2  680.53   80.69
   4   2   2  607.34   77.99
  -4   2  -2  665.23   78.09
   5  -2   2  122.89   32.00
   5  -2   2   90.89   30.80
  -5  -2  -2   97.29   35.40
  -5  -2  -2  144.79   36.00
   5   2   2   96.09   30.40
   5   2   2  121.79   34.50
  -5   2  -2   88.19   38.00
  -5   2  -2  107.39   36.60
   6  -3  -2  199.98   32.10
  -6  -3   2  132.79   31.00
  -6   3   2  105.09   34.60
   6   3  -2  149.79   28.80
  -5  -3   2  217.08   32.90
   5  -3  -2  176.38   34.90
  -5   3   2  300.87   40.00
   5   3  -2  225.48   31.90
  -4  -3   2   30.00   15.50
  -4   3   2   43.10   18.70
   4   3  -2   63.09   16.00
  -3  -3   2 1257.07  133.79
   3   3  -2 1439.56  133.99
  -3   3   2 1143.49  134.19
  -2  -3   2   17.40   11.00
   2  -3  -2   15.50    8.80
   2  -3  -2  -25.30   11.00
  -2   3   2    5.20   14.70
   2   3  -2    2.20    7.90
  -2   3   2   -0.10    9.90
  -2   3   2    9.20    9.20
  -1  -3   2    5.50   11.40
   1  -3  -2   16.30   11.40
   1  -3  -2   23.70    8.60
  -1   3   2   32.60   13.40
   1   3  -2   -8.50    7.60
  -1   3   2    6.60   14.10
   0  -3   2  104.69   18.10
   0  -3  -2  109.39   18.40
   0   3  -2  124.39   25.70
   0   3   2  140.29   20.10
   0   3   2  121.49   19.00
   1  -3   2   -3.10    9.00
   1  -3   2    4.90   14.60
  -1  -3  -2   -2.70   10.60
  -1  -3  -2   -6.00   15.00
  -1   3  -2   -2.40   17.40
   1   3   2   -8.30   11.40
  -1   3  -2   -6.60   15.90
  -1   3  -2  -19.60   11.30
  -2  -3  -2  318.67   39.30
  -2  -3  -2  264.27   36.60
  -2  -3  -2  301.97   37.90
   2  -3   2  257.77   35.70
   2  -3   2  300.67   36.90
   2   3   2  269.07   35.20
  -2   3  -2  243.08   38.00
  -2   3  -2  300.77   38.30
  -2   3  -2  314.67   44.50
   2   3   2  343.67   36.80
  -3  -3  -2   26.70   21.70
   3  -3   2   16.10   18.50
  -3  -3  -2   25.10   19.80
   3  -3   2   13.50   18.70
  -3  -3  -2   18.70   14.40
  -3   3  -2   20.60   19.20
   3   3   2    6.20   20.10
  -3   3  -2   36.50   25.00
  -3   3  -2   33.20   23.60
   3   3   2    3.90   15.10
  -4  -3  -2  165.88   36.80
  -4  -3  -2  228.58   39.30
   4  -3   2  292.07   38.10
   4  -3   2  253.17   39.10
   4   3   2  192.78   35.00
  -4   3  -2  262.27   42.90
  -4   3  -2  255.07   43.10
   4   3   2  237.08   38.00
   5  -3   2   61.29   29.40
  -5  -3  -2   42.60   28.90
  -5  -3  -2   49.60   30.80
   5  -3   2  -15.30   24.30
  -5   3  -2  -36.60   30.00
   5   3   2  -32.30   21.20
   5   3   2   15.60   30.00
  -5   3  -2  105.69   39.40
   6  -4  -2  179.48   32.60
  -6  -4   2  138.89   29.90
   6   4  -2  120.79   26.20
  -6   4   2   67.59   33.70
  -5  -4   2  988.40  103.79
   5  -4  -2  939.41  107.09
  -5   4   2  897.31  107.89
   5   4  -2  971.20  103.29
  -4  -4   2   22.10   15.30
   4   4  -2   49.20   15.20
  -4   4   2   40.90   20.30
  -3  -4   2 3716.03  376.16
   3  -4  -2 3390.46  376.36
   3   4  -2 3908.11  375.76
  -3   4   2 3775.72  378.56
  -3   4   2 3588.04  376.66
   2  -4  -2 1738.13  169.68
  -2  -4   2 1857.21  169.78
   2  -4  -2 1477.25  171.08
  -2  -4   2 1527.35  169.48
  -2   4   2 1806.62  172.38
  -2   4   2 1493.95  170.28
   1  -4  -2   16.30   13.00
  -1  -4   2   27.50   12.30
   1  -4  -2   20.20   10.30
  -1   4   2   35.90   14.80
  -1   4   2   19.50   15.10
   1   4  -2   18.90    9.10
   0  -4   2  336.07   40.20
   0  -4  -2  352.76   40.80
   0  -4  -2  344.57   42.50
   0   4  -2  305.47   46.90
   0   4  -2  326.77   40.60
   0   4   2  390.06   44.30
   0   4   2  361.86   41.70
   1  -4   2  954.10  105.39
   1  -4   2 1004.10  102.89
  -1  -4  -2 1068.89  102.69
  -1   4  -2  888.01  106.99
  -1   4  -2 1008.10  103.99
   1   4   2 1021.00  103.09
  -1   4  -2  873.81  102.59
  -2  -4  -2 7205.08  726.83
   2  -4   2 7145.38  726.63
  -2  -4  -2 7536.85  726.73
   2  -4   2 7034.30  726.43
  -2   4  -2 7235.08  727.23
  -2   4  -2 7072.99  731.13
   2   4   2 6649.73  726.73
  -3  -4  -2   39.90   15.00
  -3  -4  -2   43.90   21.40
  -3  -4  -2   43.90   21.30
   3  -4   2   31.90   19.30
   3  -4   2   39.80   19.40
  -3   4  -2    5.00   24.50
  -3   4  -2   32.40   22.70
   3   4   2   19.80   15.90
  -3   4  -2   33.50   25.80
   4  -4   2  685.33   73.29
  -4  -4  -2  588.84   72.39
  -4  -4  -2  491.65   69.69
   4  -4   2  516.15   69.29
   4   4   2  555.64   73.49
  -4   4  -2  628.74   75.99
  -4   4  -2  666.13   74.69
   4   4   2  575.74   69.69
  -5  -4  -2  224.08   46.30
  -5  -4  -2  327.77   48.70
   5  -4   2  337.87   46.80
   5  -4   2  277.37   47.20
  -5   4  -2  278.37   51.89
   5   4   2  416.26   50.39
   5   4   2  226.58   41.90
  -5   4  -2  302.97   53.19
  -6  -5   2  157.38   33.00
   6  -5  -2  249.97   39.50
  -6   5   2  135.19   38.40
   6   5  -2  205.48   32.60
   5  -5  -2  183.28   34.30
  -5  -5   2  173.98   28.40
   5   5  -2  182.58   27.60
  -5   5   2  120.89   33.80
  -4  -5   2   -5.40   13.90
   4   5  -2   -7.10   12.50
  -4   5   2   12.50   19.50
  -3  -5   2  100.29   17.80
   3  -5  -2   62.49   19.50
   3  -5  -2   90.49   15.50
  -3   5   2   76.79   24.40
  -3   5   2  109.49   20.80
  -2  -5   2  160.78   19.80
  -2  -5   2  155.78   20.10
   2  -5  -2   77.39   22.60
   2  -5  -2  156.38   19.60
   2   5  -2  140.19   18.40
  -2   5   2  161.38   25.70
  -2   5   2  118.79   20.10
   1  -5  -2 1066.79  116.49
  -1   5   2 1053.09  118.59
   1   5  -2 1265.67  122.39
   0  -5  -2 2181.88  206.68
   0  -5   2 1838.82  205.18
   0   5   2 2122.89  206.48
   0   5  -2 1974.00  206.18
   0   5  -2 1775.82  209.28
   0   5   2 2110.39  207.68
   1  -5   2 1054.09  112.99
  -1  -5  -2 1140.69  113.49
  -1   5  -2 1048.70  114.09
   1   5   2 1132.49  113.79
  -1   5  -2 1038.00  114.29
  -1   5  -2 1035.40  118.99
   2  -5   2   27.10   17.70
  -2  -5  -2   48.60   14.40
  -2   5  -2   28.00   23.00
  -2   5  -2   35.30   24.90
  -2   5  -2   43.00   17.00
   2   5   2   37.30   14.80
   3  -5   2   66.99   21.90
  -3  -5  -2   89.19   24.60
  -3  -5  -2   97.09   23.00
  -3  -5  -2   84.39   18.10
   3  -5   2   52.19   20.70
  -3   5  -2   98.29   29.90
  -3   5  -2   17.10   27.60
   3   5   2   55.09   18.10
  -3   5  -2   61.79   27.70
   4  -5   2  393.16   52.39
   4  -5   2  417.96   52.29
  -4  -5  -2  476.65   55.19
  -4  -5  -2  393.96   54.29
   4   5   2  341.47   49.00
   4   5   2  390.26   53.29
  -4   5  -2  360.06   56.69
  -4   5  -2  390.76   57.49
  -5  -5  -2  323.37   51.19
  -5  -5  -2  293.07   51.29
   5  -5   2  387.76   51.39
   5  -5   2  400.96   53.49
  -5   5  -2  297.87   54.79
   5   5   2  277.87   45.60
   5   5   2  386.26   53.59
  -5   5  -2  392.36   59.29
  -5  -6   2  146.49   26.00
   5  -6  -2  125.69   32.30
   5   6  -2  203.98   26.80
  -5   6   2   53.09   30.60
   4  -6  -2  832.62   94.19
  -4  -6   2  902.81   91.99
  -4   6   2  731.93   95.49
   4   6  -2  886.81   91.29
  -3  -6   2   -2.70   11.70
   3  -6  -2  -11.10   12.10
   3  -6  -2   -5.80   15.80
  -3   6   2    7.70   22.30
  -3   6   2  -29.20   16.40
   2  -6  -2  497.65   58.19
  -2  -6   2  523.15   58.69
   2  -6  -2  417.96   61.09
   2   6  -2  678.13   65.59
  -2   6   2  544.05   63.59
   1  -6  -2  113.39   22.40
   1  -6  -2  169.08   19.40
  -1  -6   2  107.79   20.90
  -1   6   2  129.09   23.50
   1   6  -2  136.29   26.90
   0  -6  -2  730.63   85.39
   0   6   2  897.71   88.69
   0   6   2  840.42   85.19
   0   6  -2  774.82   85.79
   0   6  -2  741.13   89.89
  -1  -6  -2  393.56   47.40
   1   6   2  399.86   48.40
  -1   6  -2  447.76   50.79
  -1   6  -2  400.16   56.49
   2  -6   2   51.99   18.40
  -2  -6  -2   34.20   14.60
  -2   6  -2   34.60   26.90
  -2   6  -2   33.70   23.70
   2   6   2   40.50   15.40
  -2   6  -2   27.30   18.20
   3  -6   2 1558.54  151.88
   3  -6   2 1456.55  152.18
  -3  -6  -2 1527.55  150.78
  -3  -6  -2 1409.96  152.08
  -3   6  -2 1482.75  153.88
   3   6   2 1373.76  151.28
  -3   6  -2 1207.08  159.28
  -4  -6  -2  105.09   32.00
   4  -6   2   86.39   27.40
  -4  -6  -2  150.98   31.10
   4  -6   2  133.69   29.60
   4   6   2  143.79   31.80
  -4   6  -2   88.99   37.50
   4   6   2   99.79   24.20
  -4   6  -2  110.09   36.10
  -5  -7   2   17.40   15.70
   5  -7  -2   33.00   24.90
  -5   7   2    3.20   24.50
   5   7  -2  -14.90   15.30
  -4  -7   2  283.77   36.60
   4  -7  -2  240.88   39.10
  -4   7   2  298.27   43.70
  -3  -7   2   15.00   12.90
   3  -7  -2   -1.00   13.00
   3  -7  -2  -26.00   17.00
  -3  -7   2   24.70   12.90
  -3   7   2   34.20   19.70
   3   7  -2   22.70   22.20
  -3   7   2   26.30   22.10
  -2  -7   2  -16.50   12.60
   2  -7  -2   19.50   12.70
   2  -7  -2   17.20   16.60
  -2   7   2   16.60   18.00
   2   7  -2   17.20   19.60
  -1  -7   2   -4.50   13.60
   1  -7  -2    8.10   15.60
   1  -7  -2   -2.30   12.80
   1   7  -2   30.20   18.70
  -1   7   2  -26.20   15.40
   0  -7   2  -24.40   15.80
   0  -7  -2   18.90   14.90
   0   7  -2   18.20   15.10
   0   7   2    3.00   13.60
   0   7   2    2.50   18.60
   0   7  -2    4.80   17.30
  -1  -7  -2   33.60   14.80
   1   7   2   36.40   14.90
  -1   7  -2   26.90   17.90
  -1   7  -2   19.00   24.70
  -2  -7  -2   20.30   14.20
   2  -7   2   38.20   16.90
  -2   7  -2   24.10   24.60
   2   7   2   37.10   14.60
  -2   7  -2   17.70   17.80
  -2   7  -2   49.20   28.40
  -3  -7  -2   69.29   25.60
   3  -7   2   63.39   20.20
  -3  -7  -2   84.39   19.30
   3  -7   2  104.59   24.20
   3   7   2   59.19   18.40
  -3   7  -2   96.79   32.40
  -3   7  -2   71.29   33.00
   4  -7   2   12.70   23.30
  -4  -7  -2   34.80   25.80
   4  -7   2   -7.50   23.20
   4  -7   2    6.70   24.50
   4   7   2   34.80   18.30
  -4   7  -2  -18.60   34.90
  -5  -8   2  123.89   23.90
  -5   8   2  111.39   32.60
   4  -8  -2  395.96   53.79
  -4  -8   2  342.87   47.60
  -4   8   2  300.87   51.59
   4   8  -2  516.95   57.99
  -4   8   2  435.46   59.39
   3  -8  -2   17.40   14.70
  -3  -8   2  -11.10   13.20
   3  -8  -2  -22.20   18.60
  -3  -8   2   -2.70   12.30
  -3   8   2  -32.30   17.00
  -3   8   2   27.40   23.30
   3   8  -2  -12.50   21.90
   2  -8  -2 1471.75  151.48
   2  -8  -2 1361.66  155.48
  -2  -8   2 1493.85  152.18
  -2   8   2 1478.05  155.48
   1  -8  -2  400.76   52.39
  -1  -8   2  411.96   50.39
   1  -8  -2  417.86   49.40
   1   8  -2  406.16   54.49
  -1   8   2  411.06   53.89
   0  -8   2  769.52   86.69
   0  -8  -2  801.42   84.39
   0   8   2  769.22   82.89
   0   8   2  706.43   87.19
   0   8  -2  711.33   84.59
   0   8  -2  746.53   88.39
   0   8   2  818.52   87.09
  -1  -8  -2 1486.05  151.98
   1  -8   2 1280.07  155.28
  -1   8  -2 1495.65  153.38
  -1   8  -2 1425.16  160.18
   1   8   2 1504.95  151.78
   2  -8   2    8.20   21.50
  -2  -8  -2   49.80   16.80
  -2   8  -2   95.99   32.90
  -2   8  -2   11.20   19.40
   2   8   2   55.39   16.00
  -3  -8  -2  896.41   89.09
   3  -8   2  775.92   96.19
   3  -8   2  792.82   89.09
   3   8   2  748.53   88.09
  -3   8  -2  693.13  102.79
  -3   8  -2  884.21   92.39
  -4  -8  -2  127.79   30.60
   4  -8   2  115.49   28.40
   4  -8   2  114.99   31.10
   4  -8   2   53.69   26.30
  -4   8  -2  149.09   38.70
   4   8   2   71.19   23.20
  -5  -9   2   91.79   20.80
  -5   9   2   14.90   26.00
  -4  -9   2   65.59   17.40
   4  -9  -2    7.70   24.20
  -4   9   2   16.80   23.50
   4   9  -2  122.69   30.40
  -4   9   2  100.99   34.40
   3  -9  -2   12.40   15.50
   3  -9  -2    8.20   21.30
  -3  -9   2   -6.20   15.00
  -3   9   2   -7.60   24.80
   3   9  -2   21.20   23.20
   2  -9  -2   58.59   16.40
  -2  -9   2   32.10   17.40
   2  -9  -2   20.10   22.10
  -2   9   2   15.50   21.90
   2   9  -2   47.80   22.10
   1  -9  -2 2033.90  236.78
  -1  -9   2 2361.06  235.98
   1  -9  -2 2189.88  233.98
  -1   9   2 2329.37  237.18
   1   9  -2 2376.96  239.18
   1   9  -2 2310.17  236.68
   0  -9   2 2340.37  241.78
   0  -9  -2 2483.55  240.68
   0   9   2 2272.67  238.68
   0   9   2 2425.66  241.88
   0   9  -2 2061.19  243.58
   0   9  -2 2156.48  239.98
   0   9   2 2446.66  243.18
   1  -9   2   75.49   25.90
  -1  -9  -2   50.09   19.10
   1   9   2   93.59   19.80
   1   9   2   63.29   28.60
   1   9   2   63.99   21.40
  -1   9  -2   49.40   21.70
  -1   9  -2   58.89   30.50
  -2  -9  -2   -5.10   16.00
   2  -9   2  -16.90   19.90
  -2   9  -2   -4.70   27.30
   2   9   2   -6.80   14.50
  -2   9  -2  -29.70   18.90
  -3  -9  -2   21.90   17.40
   3  -9   2    9.30   22.30
  -3   9  -2  -13.80   27.80
   3   9   2  -21.20   14.00
  -3   9  -2    9.90   22.00
   4  -9   2  114.49   30.10
  -4  -9  -2  196.38   33.90
   4  -9   2  125.69   33.80
   4  -9   2   76.99   27.70
   4   9   2  122.09   25.40
  -4   9  -2  104.99   38.30
  -4   9  -2   80.79   39.20
  -5  10   2   87.89   30.00
   4 -10  -2  -23.70   24.10
  -4  10   2  -41.20   29.80
  -4  10   2    8.10   21.50
  -3 -10   2 1141.39  118.99
   3 -10  -2  993.50  118.09
   3 -10  -2 1059.29  126.09
  -3  10   2 1091.29  126.99
   3  10  -2 1253.57  124.99
   2 -10  -2   27.60   16.80
   2 -10  -2    1.30   24.00
  -2 -10   2    0.10   17.80
  -2  10   2    9.20   22.70
   2  10  -2    5.30   23.30
  -1 -10   2  445.66   56.39
   1 -10  -2  463.15   59.99
   1 -10  -2  502.35   54.79
   1  10  -2  399.46   58.09
  -1  10   2  419.46   56.49
   1  10  -2  428.16   59.49
   0 -10   2  856.21   97.09
   0 -10  -2  992.20   95.99
   0  10   2  752.32   91.59
   0  10   2  818.82   98.19
   0  10   2  837.72   97.89
   0  10  -2  798.42   94.99
   0  10  -2  919.01  100.09
   1 -10   2   11.70   21.70
  -1 -10  -2   29.50   19.80
   1  10   2   16.00   16.20
  -1  10  -2    8.90   29.30
   1  10   2    3.20   27.30
   1  10   2    0.60   20.40
  -1  10  -2   -3.60   19.80
  -2 -10  -2  522.75   60.19
   2 -10   2  507.55   69.09
  -2  10  -2  431.96   62.89
  -2  10  -2  492.35   75.59
   2  10   2  505.55   58.69
  -3 -10  -2    2.60   17.50
   3 -10   2  -27.60   21.20
  -3  10  -2   -7.60   32.40
   3  10   2    5.90   16.20
  -3  10  -2  -17.50   24.10
  -4 -10  -2  422.76   49.00
   4 -10   2  216.88   47.60
   4  10   2  286.27   39.40
  -4  10  -2  234.58   58.09
   4 -11  -2   21.80   17.70
   4 -11  -2    3.90   28.70
  -4  11   2   10.20   31.50
   3 -11  -2  193.58   30.20
   3 -11  -2  149.09   39.40
  -3 -11   2  199.18   31.30
   3  11  -2  218.18   39.70
  -3  11   2  242.68   44.20
   2 -11  -2  295.17   48.80
  -2 -11   2  263.37   38.90
   2 -11  -2  276.07   36.70
   2  11  -2  262.07   43.40
  -2  11   2  300.77   45.60
  -1 -11   2  211.48   32.70
   1 -11  -2  158.78   36.10
   1 -11  -2  218.08   30.60
   1  11  -2  239.48   36.10
  -1  11   2  145.59   34.20
  -1  11   2  213.78   42.60
   1  11  -2  142.99   34.50
   0 -11   2   13.20   21.60
   0 -11  -2   -7.20   20.20
   0  11   2   26.30   26.60
   0  11  -2   19.70   20.80
   0  11  -2    3.30   24.10
   0  11   2   49.60   27.60
   1 -11   2    0.30   22.00
  -1 -11  -2    2.70   21.50
   1  11   2   30.10   23.70
  -1  11  -2   -1.40   27.70
   1  11   2  -49.70   26.10
  -1  11  -2    0.30   21.50
   2 -11   2  207.78   43.80
  -2 -11  -2  202.18   31.50
  -2  11  -2  178.28   48.90
   2  11   2  168.18   28.80
  -2  11  -2  176.68   37.00
   3 -11   2    5.20   24.80
  -3 -11  -2   10.50   18.90
   3  11   2    8.60   16.70
  -3  11  -2   -5.10   25.90
  -3  11  -2   24.40   37.50
   4 -12  -2   17.80   32.90
  -4  12   2  106.39   38.50
   3 -12  -2  529.55   68.89
  -3 -12   2  584.64   70.59
   3 -12  -2  569.94   81.29
  -3  12   2  647.44   79.69
   3  12  -2  620.34   74.79
  -2 -12   2  178.08   33.10
   2 -12  -2  214.38   43.20
   2 -12  -2  225.18   31.20
   2  12  -2  217.68   39.30
  -2  12   2  166.18   40.60
  -1 -12   2  249.28   42.10
   1 -12  -2  367.46   42.10
   1 -12  -2  338.97   50.89
   1  12  -2  248.18   46.50
  -1  12   2  270.67   52.99
  -1  12   2  294.67   47.00
   1  12  -2  413.46   48.50
   0 -12  -2  230.08   37.80
   0 -12   2  214.78   40.10
   0  12  -2  111.69   37.80
   0  12   2  243.88   40.70
   0  12   2  277.77   47.00
   0  12  -2  248.08   37.00
  -1 -12  -2  196.38   34.70
   1 -12   2  146.19   37.70
  -1  12  -2  158.08   34.20
   1  12   2  188.68   38.90
   1  12   2  228.38   41.80
  -1  12  -2  188.78   44.80
  -2 -12  -2  808.42   92.09
   2 -12   2  684.43  101.39
   2  12   2  914.01   99.79
  -2  12  -2  773.22  109.79
  -2  12  -2  775.32   99.69
   2  12   2  895.01   92.39
  -3 -12  -2   23.10   21.30
   3 -12   2   34.90   30.10
   3  12   2   54.99   20.70
  -3  12  -2   46.90   30.40
  -3  12  -2   67.29   44.80
   3 -13  -2  -20.40   34.10
   3 -13  -2   48.30   20.30
  -3 -13   2   13.60   22.10
   3  13  -2   -3.60   26.10
  -3  13   2   -1.00   32.00
  -2 -13   2   79.49   27.60
   2 -13  -2  163.08   26.90
   2 -13  -2  140.89   41.70
  -2  13   2  152.18   39.60
   2  13  -2  189.38   38.10
   2  13  -2   99.09   34.30
   1 -13  -2  212.78   43.90
   1 -13  -2  265.07   35.50
  -1 -13   2  195.48   36.30
   1  13  -2  142.99   38.90
   1  13  -2  244.58   40.30
  -1  13   2  214.88   41.30
   0 -13  -2  151.98   34.60
   0 -13   2  125.39   33.50
   0  13  -2  126.69   39.00
   0  13   2  216.48   44.70
   0  13  -2  137.19   32.10
   0  13   2  160.68   36.10
   1 -13   2   89.69   30.50
  -1 -13  -2   62.29   26.70
   1  13   2   12.10   37.90
   1  13   2   58.29   33.40
  -1  13  -2  116.39   37.00
  -1  13  -2   40.40   26.40
  -2 -13  -2  -11.90   20.30
   2 -13   2   -6.50   27.40
  -2  13  -2   -9.20   28.50
   2  13   2   62.39   33.10
  -2  13  -2  -29.40   31.80
  -3 -14   2   58.89   34.80
   3 -14  -2  114.09   44.10
   3 -14  -2   62.59   22.60
   3  14  -2   84.39   34.00
  -3  14   2   53.19   36.90
  -2 -14   2  324.57   48.80
   2 -14  -2  350.76   45.30
   2 -14  -2  359.06   64.59
   2  14  -2  336.37   56.29
  -2  14   2  352.16   57.59
   2  14  -2  372.86   58.19
   1 -14  -2  354.06   43.30
   1 -14  -2  346.07   55.49
  -1 -14   2  291.87   47.50
   1  14  -2  318.97   48.00
  -1  14   2  325.97   51.49
   1  14  -2  191.28   49.90
   0 -14  -2  163.98   37.00
   0 -14   2  100.99   33.70
   0  14  -2  111.29   39.80
   0  14   2  141.79   43.90
   0  14   2  159.78   36.60
   0  14  -2  150.08   32.70
  -1 -14  -2  350.16   44.00
   1 -14   2  184.08   44.40
  -1  14  -2  182.98   40.40
  -1  14  -2  174.68   48.30
   1  14   2  342.77   50.79
  -2 -14  -2   28.00   23.00
   2 -14   2   52.99   32.50
   2  14   2  -24.00   32.10
  -2  14  -2   11.20   29.60
  -2  14  -2    2.10   37.10
   2 -15  -2   20.80   22.80
  -2 -15   2   47.00   25.70
   2 -15  -2   17.80   44.80
   2  15  -2   57.39   38.20
  -2  15   2   96.19   39.20
   2  15  -2   11.90   32.90
   1 -15  -2  101.49   27.90
   1 -15  -2  134.99   43.20
  -1 -15   2   71.29   31.10
   1  15  -2  127.99   35.20
  -1  15   2   57.59   36.30
   1  15  -2   33.60   36.40
   0 -15   2   17.10   26.10
   0 -15  -2   56.49   31.70
   0  15  -2   70.79   38.00
   0  15   2   59.29   35.50
   0  15  -2   76.79   29.50
   0  15   2   95.49   42.80
   1 -15   2   50.49   29.20
  -1 -15  -2   33.40   28.40
  -1  15  -2   88.99   37.70
  -1  15  -2   39.20   30.10
   1  15   2   50.69   35.40
  -6   0   3   21.50   23.90
   6   0  -3   16.80   19.10
  -5   0   3   39.30   20.10
   5   0  -3   34.20   19.70
  -4   0   3   -4.30   14.20
  -3   0   3   11.00   12.90
  -3   0   3   30.00   14.50
  -2   0   3   13.10    9.40
   1   0  -3   -3.50    8.30
  -1   0   3   11.70   13.30
  -1   0   3    9.90   13.30
   1   0  -3   -9.20   10.40
   0   0  -3   -4.00   12.00
   0   0   3   -7.40   14.10
   0   0   3   -0.30   12.30
   1   0   3   11.00   17.30
  -1   0  -3  -17.40   16.10
   1   0   3   14.00   13.70
   2   0   3   12.40   18.00
  -2   0  -3   -0.30   19.60
   2   0   3   -8.00   14.10
  -3   0  -3   50.29   26.20
   3   0   3    0.90   19.50
   3   0   3   13.40   19.20
   4   0   3   -9.00   22.30
   4   0   3   14.10   23.50
  -4   0  -3   15.30   29.70
   6  -1  -3   -0.80   19.30
  -6  -1   3  -12.20   21.10
   6   1  -3   18.50   19.00
  -6   1   3  -17.60   23.40
  -5  -1   3  972.00   98.59
   5  -1  -3  845.52   99.79
  -5   1   3  920.91   98.19
   5   1  -3  826.22   97.79
  -4  -1   3    4.50   14.80
  -4   1   3   17.70   15.60
   3  -1  -3  336.77   37.40
  -3  -1   3  269.87   38.60
   3   1  -3  322.47   37.80
  -3   1   3  318.57   38.30
   2  -1  -3 3208.28  327.37
  -2  -1   3 3151.38  327.87
  -2  -1   3 3199.38  327.27
   2  -1  -3 3285.77  327.47
  -2   1   3 3149.08  327.67
   2   1  -3 3302.17  327.47
  -2   1   3 3141.49  328.77
   1  -1  -3  934.91  111.29
  -1  -1   3 1114.69  112.09
   1  -1  -3 1073.09  110.39
  -1   1   3 1282.37  112.79
  -1   1   3 1003.70  111.09
  -1   1   3 1063.99  111.49
   1   1  -3 1070.39  110.59
   0  -1  -3   10.10   12.10
   0  -1   3  -18.20   11.90
   0  -1   3   17.80   14.00
   0   1   3   18.10   14.40
   0   1   3   13.20   12.50
  -1  -1  -3    6.20   12.90
   1  -1   3    2.90   16.40
  -1  -1  -3   17.20   17.70
   1  -1   3   18.60   13.40
   1   1   3   16.90   16.80
  -1   1  -3   16.80   17.00
   1   1   3   -6.40   13.00
  -1   1  -3   -3.80   15.40
   2  -1   3  397.16   46.40
   2  -1   3  355.26   46.10
  -2  -1  -3  390.86   49.10
   2   1   3  392.96   45.50
   2   1   3  366.66   45.80
  -2   1  -3  325.97   45.90
  -3  -1  -3   20.50   26.60
   3  -1   3    9.00   20.50
   3  -1   3   11.20   19.30
   3   1   3   22.70   20.50
   3   1   3   27.20   19.10
  -3   1  -3   11.00   24.00
  -4  -1  -3  547.65   66.39
  -4  -1  -3  437.46   64.99
   4  -1   3  466.45   62.89
   4  -1   3  629.44   67.29
  -4   1  -3  437.56   64.19
   4   1   3  501.65   64.79
   4   1   3  501.15   62.39
  -6  -2   3   88.19   27.80
   6  -2  -3   84.99   27.50
   6   2  -3  122.79   26.10
  -6   2   3  126.39   31.60
  -5  -2   3  244.08   36.30
  -5   2   3  252.77   36.20
   5   2  -3  211.08   34.00
  -4  -2   3  162.18   25.50
   4   2  -3  111.79   23.50
  -4   2   3  115.99   23.30
  -3  -2   3  156.38   21.80
  -3   2   3  107.19   20.60
  -2  -2   3  484.15   59.19
   2  -2  -3  550.24   58.09
   2  -2  -3  523.15   57.49
  -2   2   3  532.45   58.19
   2   2  -3  525.75   57.99
  -2   2   3  597.34   61.89
   1  -2  -3   17.40   10.40
   1  -2  -3    4.30    8.40
   1  -2  -3   12.50   11.30
  -1  -2   3   15.30   15.10
  -1   2   3   12.20   14.60
   1   2  -3   18.10    9.20
  -1   2   3   22.30   12.70
   0  -2  -3  190.58   27.20
   0  -2   3  249.48   28.80
   0   2  -3  178.08   28.60
   0   2   3  246.68   28.10
   0   2   3  228.18   28.90
   1  -2   3  687.83   76.89
   1  -2   3  698.73   75.69
  -1  -2  -3  691.83   75.59
  -1   2  -3  609.84   76.39
  -1   2  -3  690.33   78.99
   1   2   3  785.22   76.99
   1   2   3  730.13   76.29
   2  -2   3   22.90   16.40
   2  -2   3   13.00   18.50
  -2  -2  -3   66.39   21.40
  -2  -2  -3   24.50   16.10
  -2   2  -3   67.29   22.00
   2   2   3   59.59   18.90
   2   2   3   36.80   15.20
  -3  -2  -3  647.44   81.09
   3  -2   3  644.74   78.59
   3  -2   3  717.13   80.39
  -3   2  -3  732.83   81.09
   3   2   3  706.63   79.09
   3   2   3  717.93   79.39
  -4  -2  -3  344.47   52.79
  -4  -2  -3  371.96   52.89
   4  -2   3  407.56   51.09
   4  -2   3  315.97   50.69
  -4   2  -3  407.36   56.49
   4   2   3  315.27   48.20
   4   2   3  397.66   49.80
  -6  -3   3   94.09   26.20
   6  -3  -3   75.39   28.30
  -6   3   3   69.99   29.00
   6   3  -3   83.29   22.90
  -5  -3   3   52.39   22.20
   5   3  -3   63.19   18.80
  -5   3   3   57.59   22.00
  -4  -3   3 2371.86  239.38
   4   3  -3 2265.07  238.58
  -4   3   3 2295.97  239.58
   3  -3  -3  358.86   39.50
  -3  -3   3  379.56   42.40
   3  -3  -3  362.06   40.20
  -3   3   3  276.17   41.20
   2  -3  -3  396.06   42.80
   2  -3  -3  405.76   44.10
  -2  -3   3  361.26   45.30
  -2   3   3  356.56   47.60
   2   3  -3  382.26   43.10
   1  -3  -3 1501.15  148.49
  -1  -3   3 1525.55  148.39
   1  -3  -3 1288.47  146.69
  -1   3   3 1392.16  148.09
   1   3  -3 1342.77  146.79
  -1   3   3 1553.14  148.89
   0  -3  -3  134.79   22.40
   0  -3   3  153.88   22.80
   0   3   3  182.18   23.70
   0   3   3  138.59   23.20
   0   3  -3  138.79   29.80
   1  -3   3  622.34   69.69
  -1  -3  -3  573.64   68.19
  -1   3  -3  584.54   69.89
   1   3   3  656.73   69.29
  -1   3  -3  696.03   74.39
  -2  -3  -3   12.00   14.90
   2  -3   3  -18.80   15.00
  -2  -3  -3   -7.90   19.40
   2  -3   3  -13.90   17.10
   2   3   3   20.50   17.80
   2   3   3  -14.80   13.90
  -2   3  -3   -5.70   18.10
  -2   3  -3    5.00   21.10
  -3  -3  -3  658.73   70.59
  -3  -3  -3  677.93   74.09
   3  -3   3  619.54   73.39
   3  -3   3  614.84   72.19
   3   3   3  575.24   72.79
  -3   3  -3  594.44   74.69
   3   3   3  593.24   72.09
  -4  -3  -3  151.18   35.20
   4  -3   3  150.18   34.80
  -4  -3  -3  133.69   34.80
   4  -3   3  150.88   31.90
   4   3   3  117.29   29.70
   4   3   3  209.38   33.30
  -4   3  -3  102.49   40.10
  -6  -4   3    5.10   21.40
   6  -4  -3   -0.40   24.90
   6   4  -3  -35.80   16.20
  -6   4   3  -15.80   26.00
  -5  -4   3    6.20   19.70
   5   4  -3   34.40   15.80
  -5   4   3   24.60   21.40
  -4  -4   3    3.80   15.00
   4   4  -3  -18.10   12.40
  -4   4   3   10.60   16.00
  -3  -4   3    6.40   14.90
   3  -4  -3   15.90   10.80
   3  -4  -3    4.10   10.70
  -3   4   3    1.00   12.60
  -3   4   3   11.20   19.30
   3   4  -3   18.10   10.40
   2  -4  -3  324.97   36.80
  -2  -4   3  338.97   39.30
   2  -4  -3  311.67   38.60
  -2   4   3  288.87   36.40
  -2   4   3  294.37   41.60
   2   4  -3  315.37   36.20
  -1  -4   3 2343.27  228.08
   1  -4  -3 1888.61  228.38
   1  -4  -3 2234.28  227.08
  -1   4   3 2359.96  228.78
   1   4  -3 2238.18  227.08
  -1   4   3 2252.97  228.68
   0  -4  -3    5.20   12.20
   0  -4   3   14.00   14.10
   0   4  -3   13.70   19.30
   0   4   3   -4.90   16.40
   0   4   3   12.20   14.10
   1  -4   3  330.57   37.30
  -1  -4  -3  276.87   37.40
   1   4   3  273.57   35.90
  -1   4  -3  287.17   38.40
  -1   4  -3  276.87   42.70
  -2  -4  -3  450.95   51.29
   2  -4   3  403.86   52.79
   2  -4   3  395.26   51.59
  -2  -4  -3  497.55   54.39
  -2   4  -3  428.96   59.69
   2   4   3  400.66   51.69
  -2   4  -3  420.16   55.29
   3  -4   3  285.77   40.00
  -3  -4  -3  321.87   42.60
   3  -4   3  279.07   40.00
  -3  -4  -3  308.17   38.80
   3   4   3  200.18   36.10
   3   4   3  297.97   38.20
  -3   4  -3  242.68   44.70
  -3   4  -3  219.68   43.70
   4  -4   3   -9.90   25.00
   4  -4   3   26.60   24.10
  -4  -4  -3  -43.80   24.50
   4   4   3  -12.80   19.80
   4   4   3   32.40   25.60
  -4   4  -3  -13.80   34.30
  -6  -5   3   66.99   24.70
   6  -5  -3   93.09   32.20
   6   5  -3  122.09   25.20
  -6   5   3   89.69   32.50
  -5  -5   3  -12.30   17.90
  -5   5   3   37.40   23.80
   5   5  -3   10.50   15.00
  -4  -5   3  554.74   64.19
  -4   5   3  556.94   64.69
  -3  -5   3 1459.85  156.28
   3  -5  -3 1556.94  155.88
   3  -5  -3 1433.06  157.38
  -3   5   3 1403.76  157.08
  -3   5   3 1717.73  161.08
   2  -5  -3  176.28   28.40
  -2  -5   3  219.58   27.70
   2  -5  -3  236.38   25.60
  -2   5   3  229.08   31.10
  -2   5   3  138.19   25.40
   2   5  -3  217.68   24.70
   1  -5  -3   10.50   10.60
   1  -5  -3   11.00   14.00
  -1  -5   3   17.80   15.20
   1   5  -3   32.40   19.90
   1   5  -3   -8.30    9.30
  -1   5   3    4.40   15.10
  -1   5   3   20.60   15.70
   0  -5   3  732.63   83.99
   0  -5  -3  796.72   84.99
   0   5   3  774.62   85.59
   0   5  -3  753.42   91.29
   0   5   3  889.31   87.59
   1  -5   3  240.48   31.50
  -1  -5  -3  201.58   29.30
  -1   5  -3  258.97   33.80
  -1   5  -3  215.48   29.80
  -1   5  -3  218.58   38.00
   1   5   3  215.38   30.50
  -2  -5  -3   34.10   21.90
  -2  -5  -3   -2.80   14.20
   2  -5   3   38.10   19.20
   2  -5   3   11.00   16.10
   2   5   3    5.30   14.70
  -2   5  -3    4.20   23.40
  -2   5  -3  -31.30   23.60
  -3  -5  -3  497.35   59.29
   3  -5   3  484.35   58.39
  -3  -5  -3  467.25   55.29
   3  -5   3  431.56   57.99
   3   5   3  434.06   56.89
  -3   5  -3  393.26   59.79
  -3   5  -3  468.25   65.89
  -4  -5  -3   55.89   29.40
   4  -5   3   62.99   28.20
   4  -5   3   57.79   26.60
  -4   5  -3   49.30   37.80
   4   5   3   66.59   23.80
   4   5   3   76.99   28.60
  -6  -6   3   38.70   22.40
   6   6  -3   35.50   19.40
  -6   6   3    6.00   28.60
  -5  -6   3    2.30   18.20
  -5   6   3   29.60   24.00
  -4  -6   3   94.69   22.10
   4  -6  -3   33.60   18.60
  -4   6   3   95.59   22.80
   3  -6  -3   59.09   19.70
   3  -6  -3   71.49   16.60
  -3  -6   3   87.09   19.20
  -3  -6   3  100.79   16.80
  -3   6   3   60.19   17.30
  -3   6   3  112.79   25.20
  -2  -6   3  328.17   40.80
   2  -6  -3  347.87   39.90
  -2  -6   3  391.36   43.40
   2  -6  -3  291.47   43.20
  -2   6   3  371.56   45.20
   2   6  -3  339.37   40.50
   1  -6  -3  514.55   67.29
  -1  -6   3  613.34   66.69
   1  -6  -3  636.34   65.69
  -1   6   3  610.14   69.59
  -1   6   3  628.84   68.29
   1   6  -3  631.24   73.89
   0  -6   3   19.70   14.70
   0  -6  -3   12.10   14.50
   0   6  -3   19.10   19.60
   0   6  -3   21.10   12.70
   0   6   3   -3.30   18.80
   0   6   3   -9.50   14.70
  -1  -6  -3  220.38   28.70
   1  -6   3  206.28   28.80
  -1   6  -3  193.48   36.80
  -1   6  -3  144.79   25.50
   1   6   3  213.28   28.00
  -2  -6  -3   61.09   17.70
  -2  -6  -3   61.69   24.40
   2  -6   3    6.20   20.30
  -2   6  -3   47.30   26.70
  -2   6  -3   43.80   28.00
   2   6   3   22.90   15.90
   3  -6   3  836.22   94.29
   3  -6   3  845.72   93.99
  -3  -6  -3  925.61   92.79
  -3  -6  -3  965.90   95.99
  -3   6  -3  842.82   97.49
  -3   6  -3  693.23  102.39
   3   6   3  764.52   92.99
   4  -6   3   23.00   26.30
  -4  -6  -3   39.50   28.60
   4  -6   3   26.70   25.60
   4   6   3   46.80   27.60
   4   6   3   29.20   22.00
  -4   6  -3  -18.80   35.70
  -5  -7   3  604.14   65.19
  -5   7   3  459.65   69.69
   4  -7  -3  171.58   31.50
  -4  -7   3  254.97   31.80
  -4   7   3  192.78   37.90
  -4   7   3  154.88   31.80
   3  -7  -3  957.40  101.29
   3  -7  -3  911.61  104.49
  -3  -7   3 1017.80  101.09
  -3  -7   3  851.71  100.99
  -3   7   3  951.80  102.09
  -3   7   3 1023.00  106.99
   2  -7  -3  517.55   57.29
  -2  -7   3  487.05   58.29
   2  -7  -3  432.76   60.79
  -2   7   3  509.15   62.89
   2   7  -3  592.24   66.99
   1  -7  -3   13.00   16.10
  -1   7   3   15.70   19.40
  -1   7   3   42.40   18.20
   1   7  -3   33.40   21.30
   0  -7  -3 2630.04  253.87
   0  -7   3 2208.98  251.67
   0   7   3 2716.73  255.27
   0   7  -3 2426.66  252.57
   0   7  -3 2222.68  258.07
   0   7   3 2528.15  253.57
   1  -7   3  267.57   34.30
  -1  -7  -3  294.37   35.80
  -1   7  -3  276.27   44.90
  -1   7  -3  198.38   33.90
   1   7   3  289.97   35.80
   2  -7   3  427.16   51.49
  -2  -7  -3  412.06   51.59
   2   7   3  361.66   51.09
  -2   7  -3  400.06   63.39
  -2   7  -3  493.75   55.39
  -3  -7  -3  130.79   24.10
  -3  -7  -3  149.59   33.00
   3  -7   3   70.49   26.10
  -3   7  -3  120.79   38.40
   3   7   3   90.79   22.60
  -3   7  -3  176.28   38.40
   4  -7   3   82.99   29.10
   4  -7   3   33.00   27.50
  -4  -7  -3  102.49   30.70
  -4   7  -3   76.49   39.10
   4   7   3   64.89   22.90
  -5  -8   3   30.50   19.30
  -5   8   3   30.80   26.90
   4  -8  -3  -16.60   17.80
  -4  -8   3  -11.10   16.20
   4  -8  -3   11.90   16.10
  -4   8   3   10.80   27.80
   4   8  -3    1.80   27.80
  -4   8   3   26.30   21.90
  -3  -8   3   75.09   18.30
   3  -8  -3   71.59   17.80
   3  -8  -3   72.69   22.10
  -3   8   3   83.59   26.60
   3   8  -3   80.59   30.60
  -2  -8   3  700.73   76.09
   2  -8  -3  650.73   74.29
   2  -8  -3  584.14   78.29
   2   8  -3  724.03   82.79
  -2   8   3  719.83   80.49
  -1  -8   3  403.76   49.10
   1  -8  -3  308.47   45.90
   1   8  -3  405.76   53.59
   1   8  -3  374.66   48.10
  -1   8   3  321.27   46.80
  -1   8   3  359.66   47.30
   0  -8  -3  637.14   70.69
   0   8  -3  563.84   76.29
   0   8   3  632.84   75.29
   0   8   3  653.03   70.79
   0   8  -3  588.54   69.89
  -1  -8  -3  204.98   30.60
  -1   8  -3  157.98   29.80
   1   8   3  251.07   32.20
  -1   8  -3  156.68   37.60
   1   8   3  303.57   40.10
   2  -8   3  736.53   82.69
  -2  -8  -3  914.81   83.89
  -2   8  -3  588.84   82.79
  -2   8  -3  717.23   97.69
   2   8   3  760.82   83.19
   3  -8   3  153.28   29.70
  -3  -8  -3  145.89   26.80
  -3  -8  -3  214.08   35.90
   3   8   3  144.99   26.40
  -3   8  -3  111.29   36.80
  -3   8  -3  144.69   42.30
  -4  -8  -3   33.00   29.40
   4  -8   3    5.80   26.90
   4  -8   3   29.70   26.60
  -4   8  -3   56.89   39.00
   4   8   3    9.10   18.50
  -5  -9   3   89.39   23.10
  -5   9   3   54.79   28.10
   4  -9  -3  148.59   25.30
   4  -9  -3   92.19   29.70
  -4  -9   3  155.38   26.50
   4   9  -3  211.38   42.50
  -4   9   3  163.88   39.60
  -4   9   3  132.19   32.00
   3  -9  -3   26.80   21.40
   3  -9  -3   45.90   17.40
  -3  -9   3   34.20   18.00
   3   9  -3   62.39   29.90
  -3   9   3   84.09   28.20
   2  -9  -3   96.09   19.60
  -2  -9   3   88.19   21.60
   2  -9  -3   24.30   23.10
  -2   9   3   61.59   26.20
   2   9  -3   77.99   28.00
  -1  -9   3  924.71   93.09
   1  -9  -3  730.03   92.29
   1  -9  -3  921.01   89.59
  -1   9   3  783.82   90.89
   1   9  -3  801.32   91.49
  -1   9   3  840.42   94.79
   1   9  -3  757.62   95.79
   0  -9   3  142.39   31.90
   0  -9  -3  175.98   28.60
   0   9   3  173.08   27.40
   0   9   3  171.28   33.70
   0   9  -3  121.19   31.70
   0   9  -3  161.48   27.50
  -1  -9  -3  159.88   26.80
  -1   9  -3   97.89   25.10
   1   9   3  213.78   37.20
   1   9   3  133.79   25.90
  -1   9  -3   97.59   33.90
  -2  -9  -3   45.20   20.40
  -2   9  -3   56.19   20.60
   2   9   3   40.20   19.10
  -2   9  -3  113.09   37.40
  -3  -9  -3  160.18   27.80
   3  -9   3   79.49   27.90
  -3  -9  -3  205.08   35.90
   3   9   3  125.19   25.40
  -3   9  -3  116.09   42.20
  -5  10   3   27.70   49.70
   4 -10  -3  131.39   31.60
   4 -10  -3  132.79   25.20
  -4 -10   3  119.09   25.40
   4  10  -3  148.79   38.50
  -4  10   3  149.88   38.20
  -3 -10   3   45.90   19.40
   3 -10  -3   18.60   17.30
   3 -10  -3   14.30   22.60
  -3  10   3   40.90   28.30
   3  10  -3   51.19   28.60
  -2 -10   3  893.21   96.19
   2 -10  -3  667.13   98.59
   2 -10  -3  861.81   93.69
  -2  10   3  855.91  100.69
   2  10  -3 1004.20  102.09
   1 -10  -3   30.90   18.30
  -1 -10   3   26.50   21.40
   1 -10  -3   36.60   22.30
  -1  10   3   40.90   25.00
   1  10  -3   29.70   20.00
   1  10  -3   25.90   21.50
   0 -10   3   -5.30   21.00
   0 -10  -3   20.40   20.10
   0  10   3  -36.60   25.50
   0  10  -3    8.50   21.30
   0  10   3   17.80   17.70
   0  10  -3  -12.00   17.20
   1 -10   3    3.80   23.20
  -1 -10  -3    7.30   20.50
  -1  10  -3    9.70   25.70
   1  10   3   14.40   18.50
   1  10   3  -19.70   29.10
  -1  10  -3   -3.10   18.90
   2 -10   3   40.10   25.70
  -2 -10  -3   19.70   19.80
   2  10   3   47.50   19.40
  -2  10  -3   65.09   34.60
  -2  10  -3   35.40   21.60
  -3 -10  -3   53.09   22.70
   3 -10   3   39.10   26.70
   3 -10   3   71.59   24.30
  -3 -10  -3   14.40   28.60
  -3  10  -3   31.90   34.30
   3  10   3   13.10   18.60
   4 -11  -3  482.25   60.89
   4 -11  -3  406.46   65.49
   4  11  -3  566.84   71.99
  -4  11   3  563.04   72.09
   3 -11  -3  -23.40   16.60
   3 -11  -3    8.60   24.50
  -3 -11   3  -13.00   18.90
   3  11  -3  -14.60   26.30
  -3  11   3  -10.90   28.60
   2 -11  -3  196.88   29.80
  -2 -11   3  206.38   33.40
   2 -11  -3  168.08   36.80
   2  11  -3  197.18   39.70
  -2  11   3  185.68   39.10
  -1 -11   3  559.74   68.79
   1 -11  -3  485.05   69.69
   1  11  -3  626.74   68.29
   1  11  -3  470.75   69.29
  -1  11   3  612.94   73.69
   0 -11  -3  155.98   30.90
   0 -11   3  145.39   31.60
   0  11   3  155.48   26.10
   0  11   3  138.89   34.10
   0  11  -3  164.78   28.60
   0  11  -3   55.69   27.10
   1 -11   3  917.51  118.09
  -1 -11  -3 1192.58  113.79
   1  11   3 1347.47  120.89
  -1  11  -3  966.80  114.49
   1  11   3 1034.40  112.89
  -1  11  -3  747.73  120.59
  -2 -11  -3  130.79   26.00
   2 -11   3  125.49   34.10
  -2  11  -3   66.99   27.40
   2  11   3  128.29   35.20
  -2  11  -3   62.09   39.70
   2  11   3  122.19   25.60
  -3 -11  -3  177.18   31.80
  -3 -11  -3  168.78   37.00
   3 -11   3  157.38   39.10
  -3  11  -3  113.79   47.70
   3  11   3  140.49   27.70
   4 -12  -3   57.79   22.10
   4 -12  -3   68.89   32.20
   4  12  -3   40.00   36.20
  -4  12   3   63.69   33.40
   3 -12  -3   47.50   31.10
   3 -12  -3   34.60   18.80
  -3 -12   3   36.20   22.40
   3  12  -3   64.39   31.30
  -3  12   3   35.70   31.70
   2 -12  -3  206.48   42.70
  -2 -12   3  201.58   35.50
   2 -12  -3  227.28   34.10
   2  12  -3  203.68   39.60
   2  12  -3  253.37   41.60
  -2  12   3  282.77   45.40
  -1 -12   3  669.23   78.79
   1 -12  -3  674.63   81.89
   1  12  -3  570.84   77.39
  -1  12   3  654.43   83.19
   0 -12   3   25.00   24.40
   0 -12  -3  -16.80   23.90
   0  12   3    0.90   28.10
   0  12   3  -40.00   17.00
   0  12  -3  -18.50   19.50
   0  12  -3   -6.40   19.60
  -1 -12  -3   51.29   23.30
   1 -12   3   50.29   26.60
  -1  12  -3   21.00   32.40
   1  12   3   16.70   20.80
   1  12   3   57.69   33.50
  -1  12  -3   -6.10   22.00
  -2 -12  -3  112.79   25.80
   2 -12   3  127.59   34.80
  -2  12  -3  111.49   42.90
   2  12   3   98.69   35.20
   2  12   3   26.80   23.10
   3 -13  -3  135.09   27.40
   3 -13  -3  107.19   40.10
  -3 -13   3  144.19   32.00
   3  13  -3  192.68   39.60
  -3  13   3  187.18   42.50
   2 -13  -3  159.68   40.00
  -2 -13   3   91.99   29.60
   2 -13  -3  141.69   27.30
   2  13  -3  171.18   35.10
  -2  13   3  137.89   38.70
   2  13  -3  119.19   34.30
   1 -13  -3    8.10   20.80
  -1 -13   3   17.50   26.40
   1 -13  -3   42.00   31.50
   1  13  -3    6.40   23.80
  -1  13   3   29.90   31.00
   1  13  -3   -3.00   21.30
   0 -13   3  336.27   53.79
   0 -13  -3  386.76   50.19
   0  13   3  480.15   56.39
   0  13   3  278.17   44.30
   0  13  -3  273.37   46.20
   1 -13   3  182.28   40.40
  -1 -13  -3  174.08   32.50
  -1  13  -3  135.49   41.60
  -1  13  -3  106.59   33.10
   1  13   3  233.88   43.20
   1  13   3  118.79   29.90
  -2 -13  -3  363.36   46.10
   2 -13   3  299.97   55.59
   2  13   3  299.47   44.80
   2  13   3  442.56   56.69
  -2  13  -3  182.78   58.29
   3 -14  -3   16.70   37.40
   3  14  -3   21.40   29.70
   2 -14  -3   37.60   22.50
  -2 -14   3   24.90   25.40
   2 -14  -3   23.70   36.10
  -2  14   3   28.20   34.20
   2  14  -3   24.60   28.40
   2  14  -3   41.30   30.10
   1 -14  -3   -5.40   32.60
  -1 -14   3    9.20   24.50
   1 -14  -3    0.10   22.70
  -1  14   3   -7.70   31.70
   1  14  -3    5.50   24.70
   1  14  -3   12.30   23.90
   0 -14  -3   42.40   29.10
   0 -14   3   51.29   27.90
   0  14  -3   39.40   25.30
   0  14  -3    2.50   23.90
   0  14   3   93.79   34.40
  -1 -14  -3  -20.90   22.30
   1 -14   3  -22.70   25.60
  -1  14  -3   41.80   37.50
  -1  14  -3   12.70   28.50
   1  14   3  -34.20   30.40
   2  15  -3   46.00   31.50
   2  15  -3   37.40   29.70
   1 -15  -3  159.28   30.60
   1 -15  -3  127.79   39.80
  -1 -15   3   57.79   31.60
  -1  15   3  123.39   40.50
   1  15  -3   26.30   31.20
   1  15  -3  101.99   30.90
   0 -15   3  302.57   54.49
   0  15   3  535.45   62.59
   0  15  -3  317.87   50.79
   0  15  -3  337.57   61.59
  -6   0   4  340.37   45.00
   6   0  -4  242.78   42.90
  -5   0   4   23.50   20.30
  -4   0   4  271.57   36.60
   4   0  -4  226.08   31.10
   3   0  -4  459.45   54.89
  -3   0   4  518.05   56.49
   2   0  -4   83.29   14.60
   2   0  -4   76.09   15.10
  -2   0   4   90.79   18.10
   1   0  -4 9999.00  977.60
  -1   0   4 9699.63  977.60
  -1   0   4 9094.29  977.00
   0   0   4 1136.09  115.59
   0   0   4 1101.19  115.49
   0   0  -4 1041.00  115.19
   1   0   4  114.19   22.10
   1   0   4  162.78   27.10
  -1   0  -4  101.09   24.20
   2   0   4  -34.80   16.20
   2   0   4    9.20   20.90
  -2   0  -4   48.40   24.80
   3   0   4  163.08   29.20
  -3   0  -4  156.98   35.10
   3   0   4  145.39   30.10
   4   0   4  924.21  111.99
   4   0   4  944.71  111.29
  -4   0  -4 1131.59  113.89
   6  -1  -4   45.10   27.50
  -6  -1   4   64.79   26.10
  -6   1   4   25.70   24.60
   6   1  -4    9.60   21.70
  -5  -1   4   47.10   22.00
  -5   1   4   41.40   20.80
   4  -1  -4  505.85   59.69
  -4  -1   4  545.05   61.79
  -4   1   4  527.75   61.99
   3  -1  -4  331.07   42.10
  -3  -1   4  392.76   44.80
  -3   1   4  363.16   43.80
   3   1  -4  324.07   42.60
   2  -1  -4   25.10   10.30
   2  -1  -4   -4.90   10.70
  -2  -1   4   -9.90   14.50
   2   1  -4   -4.60   10.00
  -2   1   4   17.00   14.10
   1  -1  -4  235.98   35.10
  -1   1   4  355.06   37.70
   0  -1  -4   16.00   13.90
   0  -1   4    9.90   16.90
   0   1   4   33.10   16.40
   0   1   4   17.90   17.20
   1  -1   4  116.99   24.20
  -1  -1  -4   77.89   19.80
   1  -1   4   71.29   19.00
  -1   1  -4   93.59   22.30
   1   1   4  115.99   24.40
   1   1   4   69.39   18.90
   2  -1   4  406.86   55.29
   2  -1   4  512.15   56.59
  -2  -1  -4  461.75   57.49
  -2   1  -4  469.35   58.49
   2   1   4  419.76   55.39
   2   1   4  471.95   58.19
   3  -1   4  260.37   40.10
   3  -1   4  298.47   41.80
  -3  -1  -4  285.37   45.60
   3   1   4  274.07   41.40
  -3   1  -4  305.97   46.40
   3   1   4  264.87   40.10
   4  -1   4   33.80   25.70
   4  -1   4   36.80   28.10
  -4  -1  -4   40.30   32.50
  -4   1  -4   27.00   35.50
   4   1   4   65.19   28.30
   4   1   4   32.00   25.50
  -6  -2   4   75.29   26.30
   6  -2  -4   65.79   32.30
   6   2  -4   50.19   22.00
  -6   2   4   -2.90   24.80
  -5  -2   4   62.89   22.80
   5   2  -4   68.49   23.20
  -5   2   4   -3.00   20.70
  -4  -2   4    9.00   16.10
  -4   2   4   -1.80   16.60
   3  -2  -4  592.94   60.49
  -3  -2   4  535.85   63.69
   3  -2  -4  522.85   61.49
   3   2  -4  561.54   61.99
  -3   2   4  541.75   62.39
   2  -2  -4 2261.47  222.08
   2  -2  -4 2108.39  221.28
  -2  -2   4 2103.49  221.98
   2   2  -4 2164.98  221.48
  -2   2   4 2135.29  221.68
  -1  -2   4  163.38   22.70
   1  -2  -4   99.89   19.70
  -1   2   4  129.39   21.50
  -1   2   4  122.39   22.00
   1   2  -4  126.49   18.20
   0  -2  -4  936.31  100.39
   0  -2   4  916.31  100.69
   0   2   4  974.60  101.69
   1  -2   4  886.01   98.99
   1  -2   4  907.71   97.89
  -1  -2  -4  923.21   98.09
   1   2   4  937.81   98.69
   1   2   4 1046.30   99.99
  -1   2  -4  809.42  101.49
  -1   2  -4  868.61   98.69
  -2  -2  -4    7.40   25.70
   2  -2   4   -3.10   17.40
   2  -2   4   52.89   21.90
  -2  -2  -4   20.50   18.60
  -2   2  -4   42.20   23.90
   2   2   4   25.90   18.30
   2   2   4   20.20   21.20
   3  -2   4   11.60   22.20
   3  -2   4    5.00   20.40
  -3  -2  -4   43.70   30.50
  -3   2  -4  -15.10   28.70
   3   2   4    6.70   23.10
   3   2   4   27.20   20.90
   4  -2   4   69.19   29.40
   4  -2   4   56.39   26.90
  -4  -2  -4  109.69   36.50
   4   2   4   42.80   25.50
   4   2   4   84.89   28.50
  -4   2  -4   21.40   37.60
   6  -3  -4   28.00   30.70
  -6  -3   4  -16.00   22.80
   6   3  -4   12.30   19.20
  -6   3   4   13.50   24.60
  -5  -3   4   43.60   24.10
  -5   3   4   94.39   25.50
   5   3  -4   87.89   22.80
  -4  -3   4  321.17   42.00
   4  -3  -4  290.67   36.20
  -4   3   4  234.28   38.80
   4   3  -4  325.27   36.30
  -3  -3   4  -12.80   17.60
   3  -3  -4   -4.00   11.70
   3  -3  -4   -2.20   11.30
  -3   3   4   16.30   15.30
  -3   3   4    7.40   13.10
   3   3  -4   -3.50   12.20
   2  -3  -4  286.07   34.70
  -2  -3   4  317.57   35.90
   2  -3  -4  249.48   35.90
  -2   3   4  279.27   36.10
   2   3  -4  284.47   35.10
  -1  -3   4   -5.60   15.70
   1  -3  -4   -3.90   12.10
  -1   3   4  -16.10   12.50
   1   3  -4   13.80   10.70
  -1   3   4   -3.60   15.60
   0  -3  -4  253.97   31.60
   0  -3   4  213.28   30.20
   0   3  -4  187.58   30.50
   0   3  -4  187.88   37.50
   0   3   4  206.18   30.80
   1  -3   4    7.80   18.80
  -1  -3  -4  -30.60   13.40
   1   3   4   -0.70   19.30
  -1   3  -4   28.00   19.30
  -1   3  -4   -3.00   21.90
   1   3   4    5.00   15.20
   2  -3   4  564.94   66.69
  -2  -3  -4  669.73   67.69
   2  -3   4  605.84   69.29
  -2   3  -4  520.15   71.09
   2   3   4  619.04   69.39
   2   3   4  526.55   66.79
  -2   3  -4  543.05   70.89
   3  -3   4   63.79   23.40
  -3  -3  -4  104.79   33.30
   3  -3   4   91.89   26.70
   3   3   4  100.69   26.20
  -3   3  -4   73.19   33.20
   3   3   4   44.50   22.60
   4  -3   4    0.90   25.00
  -4  -3  -4   25.20   33.10
   4  -3   4   21.50   25.80
  -4   3  -4   -8.40   38.40
   4   3   4  -12.50   22.30
   4   3   4  -17.90   26.50
  -6  -4   4   16.80   24.60
  -6   4   4    0.50   24.70
   6   4  -4    4.40   18.90
  -5  -4   4  393.86   52.59
  -5   4   4  337.97   49.80
   5   4  -4  454.25   48.50
   5   4  -4  368.16   47.90
  -4  -4   4  417.96   51.99
   4   4  -4  444.76   47.50
  -4   4   4  335.37   48.90
   3  -4  -4  167.88   23.80
  -3  -4   4  249.08   30.50
   3  -4  -4  148.89   25.40
  -3   4   4  188.88   30.30
  -3   4   4  176.38   26.50
   2  -4  -4 2107.89  210.98
  -2  -4   4 2220.08  212.18
   2  -4  -4 1723.73  212.08
  -2   4   4 2040.70  212.48
   2   4  -4 2188.78  211.08
  -1  -4   4   -2.10   16.20
   1  -4  -4   18.10   13.90
  -1   4   4    5.20   16.90
   1   4  -4    0.20   10.90
  -1   4   4  -10.80   14.00
   0  -4  -4 2090.89  220.78
   0  -4   4 2015.30  219.98
   0   4   4 2304.47  220.58
   0   4   4 2217.38  221.68
   0   4  -4 2012.30  226.18
  -1  -4  -4  465.15   54.39
   1  -4   4  530.55   55.99
   1   4   4  438.16   56.19
  -1   4  -4  384.76   61.59
  -1   4  -4  467.85   56.99
   2  -4   4  314.57   39.70
  -2  -4  -4  307.07   39.10
  -2  -4  -4  328.57   43.40
   2  -4   4  232.38   35.30
   2   4   4  198.28   35.20
  -2   4  -4  301.07   43.10
  -2   4  -4  265.07   44.50
  -3  -4  -4  500.75   54.69
  -3  -4  -4  344.47   46.90
   3  -4   4  335.27   46.60
   3  -4   4  304.07   46.50
   3   4   4  339.47   46.30
  -3   4  -4  251.87   51.29
   3   4   4  353.56   46.60
   4  -4   4   50.49   27.50
   4  -4   4   49.90   25.90
  -4  -4  -4   61.59   33.70
   4   4   4    4.90   29.10
  -4   4  -4   57.29   39.70
   4   4   4    0.50   23.90
  -6  -5   4   37.20   24.40
   6   5  -4   -2.40   17.60
  -6   5   4    5.30   25.60
  -5  -5   4  312.17   43.10
  -5   5   4  261.37   39.60
   5   5  -4  249.97   33.90
   4  -5  -4  579.54   62.69
   4  -5  -4  573.74   62.99
  -4   5   4  468.05   64.39
   4   5  -4  583.84   62.39
  -3  -5   4  785.02   74.49
   3  -5  -4  673.63   71.29
   3  -5  -4  598.64   72.39
  -3   5   4  538.95   71.49
   3   5  -4  674.13   70.89
  -3   5   4  693.43   77.09
   2  -5  -4  201.08   24.70
  -2  -5   4  212.78   29.00
   2  -5  -4  149.09   27.50
   2   5  -4  199.08   24.30
  -2   5   4  164.38   28.90
   1  -5  -4    0.50   14.60
  -1  -5   4   -6.70   18.00
  -1   5   4   11.80   17.90
  -1   5   4    2.90   16.60
   1   5  -4   12.70   12.30
   0  -5  -4  106.79   22.50
   0  -5   4  150.68   23.30
   0   5   4  117.59   24.00
   0   5   4  148.49   25.50
   0   5  -4   78.09   30.10
  -1  -5  -4 1183.28  118.89
   1  -5   4 1098.19  118.49
  -1   5  -4 1086.39  124.39
   1   5   4 1047.50  119.19
  -1   5  -4 1123.99  119.29
  -2  -5  -4  799.32   83.79
   2  -5   4  820.02   85.19
  -2   5  -4  714.63   87.09
   2   5   4  764.72   84.19
  -2   5  -4  611.74   91.09
   3  -5   4   22.10   21.80
  -3  -5  -4   63.79   21.30
  -3  -5  -4   90.49   30.70
   3  -5   4   54.99   25.00
  -3   5  -4   65.49   35.20
   3   5   4   -1.30   19.40
   4  -5   4    8.30   24.90
   4  -5   4   -0.60   27.10
  -4  -5  -4   20.60   34.40
  -4   5  -4  -13.90   39.80
   4   5   4   11.50   28.20
   4   5   4   -7.80   23.60
  -5  -6   4   14.30   21.90
  -5   6   4   20.50   20.50
   4  -6  -4  191.88   29.50
   4  -6  -4  203.68   28.50
  -4   6   4  201.08   31.40
   3  -6  -4  262.57   32.30
  -3  -6   4  298.17   36.40
   3  -6  -4  222.58   35.40
  -3  -6   4  285.67   35.90
  -3   6   4  201.88   33.00
   3   6  -4  250.37   31.60
  -3   6   4  295.87   40.20
   2  -6  -4   88.19   16.90
   2  -6  -4   52.39   20.10
  -2  -6   4   78.49   21.40
  -2   6   4   64.79   21.80
   2   6  -4   68.79   15.70
  -1  -6   4 2361.96  232.18
   1  -6  -4 2380.86  233.38
   1   6  -4 2188.68  231.18
   1   6  -4 2325.97  239.78
  -1   6   4 1878.61  232.38
  -1   6   4 2361.46  233.38
   0  -6   4   -4.30   16.40
   0  -6  -4   14.00   16.80
   0   6   4   28.50   18.10
   0   6   4    8.10   20.40
   0   6  -4   -1.00   20.30
  -1  -6  -4  252.57   36.80
   1  -6   4  304.17   37.40
   1   6   4  306.47   40.00
  -1   6  -4  202.58   41.90
   1   6   4  262.07   37.30
  -2  -6  -4  513.65   57.79
   2  -6   4  454.85   57.79
   2   6   4  442.96   58.49
  -2   6  -4  429.86   66.79
  -2   6  -4  477.45   60.79
  -3  -6  -4   -5.80   17.70
   3  -6   4  -38.20   23.60
  -3  -6  -4   15.40   30.20
   3  -6   4    5.30   19.80
   3   6   4  -16.80   17.60
  -3   6  -4   26.70   35.10
   5  -7  -4   38.90   18.40
  -5  -7   4    9.20   22.30
  -5   7   4   39.10   24.50
   4  -7  -4   -6.20   15.70
   4  -7  -4    8.60   15.60
   4   7  -4   -1.90   14.90
  -4   7   4  -16.20   16.40
  -4   7   4  -29.20   23.60
  -3  -7   4  296.47   40.10
   3  -7  -4  298.27   36.90
  -3  -7   4  314.27   39.50
   3  -7  -4  291.57   41.40
  -3   7   4  281.17   42.70
   2  -7  -4   94.79   18.70
   2  -7  -4   66.69   20.70
  -2  -7   4   57.59   21.70
   2   7  -4   67.19   28.50
  -2   7   4   83.99   24.90
  -1  -7   4  242.58   34.80
   1  -7  -4  258.77   36.70
   1   7  -4  276.87   33.60
  -1   7   4  233.08   36.20
   1   7  -4  249.78   44.50
  -1   7   4  248.78   38.00
   0  -7  -4  -25.60   15.10
   0  -7   4  -12.70   18.40
   0   7  -4  -18.20   21.00
   0   7   4    6.60   22.90
   0   7   4  -16.90   17.70
  -1  -7  -4   19.60   17.90
   1  -7   4   18.00   20.80
   1   7   4   86.79   29.30
   1   7   4    7.50   19.60
  -1   7  -4   16.60   23.90
  -2  -7  -4   68.19   21.50
  -2  -7  -4   76.29   31.00
   2  -7   4   75.89   25.10
  -2   7  -4   31.80   30.00
  -2   7  -4   62.09   33.30
   2   7   4   75.09   21.70
  -3  -7  -4   -2.50   29.30
   3  -7   4   -5.90   24.40
  -3  -7  -4    9.20   19.20
   3   7   4   -2.50   18.70
  -3   7  -4  -12.20   32.80
  -5  -8   4    5.00   21.80
   5  -8  -4   34.20   18.00
  -5   8   4   55.69   25.70
   4  -8  -4  171.28   26.90
   4  -8  -4  138.79   29.20
  -4   8   4  166.48   30.50
  -4   8   4  215.38   38.70
   3  -8  -4  340.17   41.90
   3  -8  -4  307.97   46.00
  -3  -8   4  319.67   42.90
  -3  -8   4  338.97   45.70
   3   8  -4  386.56   59.19
  -3   8   4  383.16   49.00
  -2  -8   4    0.70   19.40
   2  -8  -4   -7.70   15.10
   2  -8  -4   -5.70   18.30
  -2   8   4   12.50   22.30
   2   8  -4    2.70   23.30
  -1  -8   4 2644.64  268.07
   1  -8  -4 2435.76  270.07
  -1   8   4 2581.14  269.67
   1   8  -4 2612.84  268.07
   1   8  -4 2407.06  275.47
  -1   8   4 2912.41  271.57
   0  -8   4  311.27   36.80
   0  -8  -4  359.86   41.00
   0   8  -4  238.88   46.00
   0   8  -4  202.68   33.40
   0   8   4  261.27   37.60
   1  -8   4   13.80   19.80
  -1  -8  -4   36.70   20.90
   1   8   4   67.29   30.10
  -1   8  -4   17.40   23.50
  -1   8  -4   11.00   25.00
   1   8   4    3.10   19.80
   2  -8   4  159.28   28.00
  -2  -8  -4  128.29   27.90
  -2   8  -4  115.49   38.80
   2   8   4  118.59   25.60
  -3  -8  -4  134.19   37.50
  -3  -8  -4  162.38   28.10
   3  -8   4  151.98   31.80
  -3   8  -4  103.09   38.40
  -3   8  -4  181.48   44.60
   3   8   4   85.39   25.60
  -5  -9   4   22.40   22.20
   5  -9  -4   38.70   19.80
  -5   9   4   31.40   28.20
   5   9  -4   54.39   39.00
   4  -9  -4  429.56   60.09
   4  -9  -4  473.75   55.39
  -4   9   4  353.56   55.99
  -4   9   4  431.16   63.09
   4   9  -4  564.14   71.79
   3  -9  -4  230.68   33.70
   3  -9  -4  182.38   37.90
  -3  -9   4  275.87   36.60
  -3  -9   4  220.38   34.60
   3   9  -4  346.97   52.39
  -3   9   4  285.17   43.10
   2  -9  -4  117.79   33.60
   2  -9  -4  218.08   30.40
  -2  -9   4  292.37   36.50
  -2   9   4  194.78   36.60
   2   9  -4  217.48   41.70
   1  -9  -4   -6.30   18.80
   1   9  -4    4.70   16.00
  -1   9   4   38.70   21.40
   1   9  -4  -19.00   20.40
  -1   9   4    3.50   23.30
   0  -9  -4  235.38   35.80
   0   9   4  346.97   42.00
   0   9   4  202.78   34.00
   0   9  -4  169.48   30.10
  -1  -9  -4  179.48   30.80
   1   9   4  246.88   39.60
   1   9   4  162.98   31.10
  -1   9  -4  110.39   35.30
  -2  -9  -4  401.46   49.80
   2  -9   4  337.07   47.50
  -2   9  -4  360.16   63.09
   2   9   4  351.06   47.00
  -3  -9  -4   74.29   23.40
   3  -9   4   29.10   26.30
  -3  -9  -4   71.79   34.60
   3   9   4   15.30   20.40
  -3   9  -4   35.20   33.80
   4 -10  -4   19.70   22.50
   4 -10  -4   19.90   19.20
   4  10  -4   10.00   33.30
  -4  10   4   32.20   30.40
  -3 -10   4  216.58   34.30
   3 -10  -4  197.08   31.00
   3 -10  -4  197.38   38.10
   3  10  -4  222.98   46.80
  -3  10   4  208.38   40.80
   2 -10  -4  649.83   79.99
  -2 -10   4  705.53   83.09
  -2  10   4  710.23   88.69
   2  10  -4  778.42   90.19
  -1 -10   4  276.07   42.20
   1 -10  -4  210.58   36.70
   1  10  -4  131.79   38.80
  -1  10   4  332.47   43.70
  -1  10   4  260.17   37.10
   1  10  -4  235.68   34.00
   0 -10  -4  909.61   93.39
   0  10   4  925.01   98.29
   0  10  -4  694.33   88.99
   0  10   4  766.32   92.19
  -1 -10  -4   70.49   24.00
  -1  10  -4   40.60   26.60
   1  10   4   83.79   25.50
   1  10   4   67.79   33.10
  -2 -10  -4   78.89   25.20
   2 -10   4   63.29   24.20
  -2  10  -4  107.49   41.00
   2  10   4   62.99   22.90
   2  10   4   79.39   32.20
   4 -11  -4  -19.50   24.70
  -4 -11   4    9.70   21.60
   4 -11  -4    0.50   19.10
   4  11  -4   -7.50   33.80
  -4  11   4  -33.30   29.60
   3 -11  -4    4.80   25.80
  -3 -11   4    6.50   21.30
   3 -11  -4   41.00   19.70
   3  11  -4  -10.90   29.20
  -3  11   4    8.50   30.80
  -2 -11   4   67.69   25.30
   2 -11  -4   61.39   20.50
   2 -11  -4   54.69   25.50
   2  11  -4   26.00   26.80
   2  11  -4   24.70   23.70
  -2  11   4   16.10   27.70
  -1 -11   4   -8.60   23.00
   1 -11  -4   32.60   23.40
  -1  11   4    7.50   28.90
   1  11  -4   38.60   19.60
  -1  11   4    1.10   22.10
   1  11  -4   20.90   21.90
   0 -11  -4   26.90   24.30
   0 -11   4   -6.60   25.80
   0  11   4   29.60   22.50
   0  11  -4   20.80   20.70
   0  11  -4   11.50   22.00
   0  11   4   36.40   29.60
  -1 -11  -4   35.50   23.70
   1 -11   4   44.30   27.60
   1  11   4   -7.90   29.80
  -1  11  -4   15.70   25.00
   1  11   4   63.49   23.90
   2 -11   4    8.80   28.10
  -2 -11  -4  -12.80   21.80
   2  11   4  -26.40   30.90
   2  11   4   -7.80   20.70
  -2  11  -4   11.90   32.10
   4 -12  -4  224.58   50.59
   4 -12  -4  288.47   47.70
  -4  12   4  294.47   62.59
   4  12  -4  442.86   62.39
  -3 -12   4   55.39   25.70
   3 -12  -4   64.79   21.40
   3 -12  -4   23.60   29.80
   3  12  -4   85.59   34.90
  -3  12   4   53.49   35.30
  -2 -12   4  130.89   31.10
   2 -12  -4   64.79   31.10
   2 -12  -4  180.28   26.30
  -2  12   4  133.89   37.20
   2  12  -4  130.89   35.30
   2  12  -4   92.99   29.60
   1 -12  -4   15.30   26.20
  -1 -12   4    0.40   25.20
  -1  12   4   77.19   33.10
   1  12  -4   -3.70   19.30
   1  12  -4   22.80   19.90
   0 -12   4  218.78   44.00
   0 -12  -4  260.47   40.20
   0  12   4  169.58   35.30
   0  12   4  301.97   46.00
  -1 -12  -4  175.88   32.40
   1 -12   4  162.98   38.80
   1  12   4  220.18   40.50
   1  12   4   94.39   30.10
   2 -12   4  163.88   42.60
   2  12   4  149.49   32.40
  -2  12  -4  180.48   51.89
   2  12   4  161.58   42.30
   3 -13  -4  121.19   39.00
   3 -13  -4   95.19   25.00
  -3  13   4   44.80   37.20
   3  13  -4  161.28   43.90
  -2 -13   4   19.70   25.40
   2 -13  -4   -6.80   20.00
   2 -13  -4    4.70   30.40
  -2  13   4  -47.40   31.40
   2  13  -4    4.60   22.90
   2  13  -4   65.09   29.20
  -1 -13   4  -12.40   24.70
   1 -13  -4   25.00   27.90
  -1  13   4   20.40   33.50
   1  13  -4   38.30   23.40
   1  13  -4    1.70   20.40
   0 -13  -4   10.80   27.00
   0 -13   4   39.10   26.70
   0  13   4   -8.70   32.10
   0  13   4    4.90   23.10
   0  13  -4  -47.80   17.30
  -1 -13  -4  331.67   45.00
   1 -13   4  228.98   48.10
  -1  13  -4  168.08   51.59
   1  13   4  297.57   43.30
   1  13   4  394.96   53.89
  -2 -14   4    1.60   25.70
   2 -14  -4    9.30   35.30
   2 -14  -4   17.70   21.60
   2  14  -4  -16.20   24.20
   2  14  -4  -27.20   25.00
  -2  14   4   20.70   35.70
  -1 -14   4  317.27   55.99
   1 -14  -4  414.16   57.39
  -1  14   4  371.26   60.29
   0 -14   4   94.09   33.20
   0 -14  -4  100.89   32.30
   0  14   4  131.99   38.70
   0  14   4  111.09   29.90
   0  14  -4   13.10   26.50
  -6   0   5   30.70   27.30
   6   0  -5  -47.00   27.00
   5   0  -5  -21.10   17.40
  -5   0   5   12.20   22.60
   4   0  -5   28.30   15.60
  -4   0   5   22.20   21.90
  -3   0   5   18.50   20.80
   3   0  -5  -15.80   12.80
   2   0  -5    4.70   12.60
  -2   0   5   48.70   18.20
  -1   0   5   -2.80   17.30
  -1   0   5    0.60   16.90
   0   0   5    7.30   18.90
   0   0   5   17.70   21.20
   1   0   5  -12.90   18.30
   1   0   5   -6.50   23.30
  -2   0  -5   28.20   29.40
   2   0   5   -0.60   24.00
   2   0   5  -11.40   18.30
   3   0   5  -12.50   21.90
  -3   0  -5   30.30   34.40
   3   0   5   30.70   24.40
  -6  -1   5   88.49   34.30
  -6   1   5  135.79   32.20
   6   1  -5  138.29   35.20
  -5  -1   5  124.79   31.90
   5  -1  -5  151.48   26.40
  -5   1   5  147.29   31.20
   5   1  -5  157.28   25.90
  -4  -1   5   34.40   23.20
   4  -1  -5   19.60   14.50
  -4   1   5   36.30   21.90
  -4   1   5    4.90   18.00
   4   1  -5   -4.60   14.60
   3  -1  -5   63.39   15.20
   3  -1  -5   77.59   16.60
  -3  -1   5   79.29   24.40
   3   1  -5   80.79   16.70
  -3   1   5  100.99   23.00
   2  -1  -5 1736.13  175.78
   2  -1  -5 1648.83  174.68
  -2  -1   5 1692.33  176.18
   2   1  -5 1642.74  174.88
  -2   1   5 1728.93  175.88
  -1  -1   5    9.90   16.70
  -1  -1   5   52.89   18.80
   1  -1  -5   25.20   16.00
  -1   1   5   31.90   17.70
  -1   1   5   17.80   18.30
   0  -1   5  863.51   95.59
   0  -1   5  734.13   94.69
   0  -1  -5  917.71   94.69
   0   1   5  834.92   95.79
   0   1   5  990.20   96.39
   1  -1   5  768.92   84.29
   1  -1   5  687.33   82.29
   1   1   5  690.43   82.79
   1   1   5  840.12   84.79
  -1   1  -5  722.33   84.19
  -1   1  -5  691.33   86.19
  -2  -1  -5   35.30   29.40
   2  -1   5   -4.90   18.90
   2  -1   5  -19.30   23.90
  -2   1  -5  -37.40   27.30
   2   1   5    2.70   18.40
   2   1   5   32.60   24.80
  -3  -1  -5  452.25   61.79
   3  -1   5  430.16   56.29
   3  -1   5  434.26   56.59
   3   1   5  443.86   56.09
  -3   1  -5  389.66   61.09
   3   1   5  408.06   56.69
  -6  -2   5    4.60   26.80
  -6   2   5   23.40   26.30
   6   2  -5   29.00   21.60
   6   2  -5   67.19   26.60
  -5  -2   5  441.16   57.39
   5   2  -5  425.66   50.59
  -5   2   5  355.96   52.99
   4  -2  -5  549.05   66.39
  -4  -2   5  651.63   71.19
  -4   2   5  527.35   68.19
   4   2  -5  650.73   67.39
   3  -2  -5   53.79   15.10
   3  -2  -5   39.70   14.10
  -3  -2   5   73.39   23.40
   3   2  -5   53.09   16.00
  -3   2   5   26.30   20.50
   2  -2  -5  103.79   17.30
   2  -2  -5  108.09   18.80
  -2  -2   5   82.39   22.20
   2   2  -5   49.90   17.40
  -2   2   5  111.39   20.90
   1  -2  -5  284.27   38.10
  -1  -2   5  310.07   38.10
  -1   2   5  338.37   38.00
  -1   2   5  232.88   37.70
   0  -2   5 1120.39  121.29
   0  -2  -5 1112.69  120.79
   0  -2   5 1029.50  120.39
   0   2   5 1353.46  122.19
   0   2   5 1069.59  121.99
   1  -2   5  230.28   34.60
   1  -2   5  277.17   37.90
  -1  -2  -5  204.38   33.90
  -1   2  -5  208.58   39.60
   1   2   5  275.17   37.90
   1   2   5  218.48   34.80
   2  -2   5   27.80   24.10
   2  -2   5   -5.40   18.70
  -2  -2  -5   11.40   30.30
  -2   2  -5   38.10   32.40
   2   2   5   20.10   24.80
   2   2   5  -19.20   17.80
  -3  -2  -5  171.38   41.10
   3  -2   5   83.19   28.30
   3  -2   5  105.59   32.50
   3   2   5  149.09   31.80
  -3   2  -5  126.39   41.80
   3   2   5  158.98   31.00
  -6  -3   5  130.79   34.40
   6   3  -5  130.99   29.40
   6   3  -5   80.59   25.30
  -6   3   5  105.09   31.30
  -5  -3   5  198.48   38.00
  -5   3   5  187.48   35.40
   5   3  -5  235.18   32.10
   4  -3  -5    6.40   14.70
  -4  -3   5   -3.40   23.50
  -4   3   5    5.70   18.00
   4   3  -5   11.70   15.90
   3  -3  -5  579.54   66.49
   3  -3  -5  581.54   66.39
  -3  -3   5  626.64   70.39
   3   3  -5  603.14   66.49
  -3   3   5  592.44   67.69
   2  -3  -5  329.17   34.80
   2  -3  -5  229.18   32.50
   2   3  -5  296.97   31.30
  -2   3   5  186.38   31.50
   1  -3  -5  936.11  104.99
  -1  -3   5  987.60  104.79
  -1   3   5  837.52  105.69
  -1   3   5 1144.29  104.89
   0  -3  -5  549.35   60.69
   0  -3   5  494.45   61.79
   0   3   5  585.04   61.99
   0   3   5  441.66   62.79
   0   3  -5  480.55   70.09
   1  -3   5  124.79   30.10
   1  -3   5  216.08   34.60
  -1  -3  -5  183.68   31.10
  -1   3  -5  222.48   39.50
  -1   3  -5  222.98   36.60
   1   3   5  243.08   34.40
   1   3   5  224.48   33.80
  -2  -3  -5 1165.08  106.69
   2  -3   5  996.20  107.59
   2  -3   5  812.02  105.09
   2   3   5  889.11  105.79
  -2   3  -5 1023.60  110.19
   2   3   5  902.51  107.69
   3  -3   5   23.00   27.00
   3  -3   5   40.80   23.80
  -3  -3  -5   40.50   35.10
  -3   3  -5   31.20   38.70
   3   3   5  -12.10   20.30
   3   3   5   16.70   26.50
  -6  -4   5   38.80   29.50
   6   4  -5   42.60   23.00
  -6   4   5  -15.40   24.20
   6   4  -5    9.60   19.90
  -5  -4   5  317.07   44.60
   5   4  -5  264.67   38.10
  -5   4   5  185.58   36.40
   5   4  -5  234.38   32.90
  -4  -4   5   39.10   25.10
   4  -4  -5   34.30   16.50
  -4   4   5   15.20   17.40
   4   4  -5    7.20   15.20
   3  -4  -5   76.69   18.40
  -3  -4   5   89.19   26.20
   3  -4  -5   78.69   19.40
   3   4  -5   91.89   17.60
   2  -4  -5   34.80   14.80
  -2  -4   5   39.20   20.60
   2  -4  -5   29.10   16.50
   2   4  -5   40.30   14.20
  -2   4   5   13.30   16.40
   1  -4  -5  134.29   25.50
  -1  -4   5  209.58   28.90
  -1   4   5  165.58   27.50
  -1   4   5  119.39   23.10
   1   4  -5  199.78   23.90
   0  -4  -5    8.30   16.30
   0  -4   5    2.50   20.90
   0   4   5  -13.80   19.70
   0   4  -5   13.40   24.80
  -1  -4  -5   -7.80   17.50
   1  -4   5   24.30   23.50
  -1   4  -5  -11.20   25.50
   1   4   5    8.20   19.20
  -1   4  -5  -15.20   21.20
  -2  -4  -5   99.29   25.90
   2  -4   5  105.09   24.70
   2  -4   5  137.99   29.00
   2   4   5  106.89   26.10
  -2   4  -5  165.78   36.60
  -2   4  -5   86.59   36.50
  -3  -4  -5  -21.20   34.50
   3  -4   5    9.40   25.10
   3  -4   5    8.30   22.90
   3   4   5   16.70   26.70
   3   4   5    5.70   20.90
  -3   4  -5    4.20   37.30
  -5  -5   5   75.49   27.30
   5   5  -5   14.90   18.10
  -5   5   5   32.60   20.20
   4  -5  -5  157.88   30.00
  -4  -5   5  201.08   34.60
   4  -5  -5  190.78   27.50
   4   5  -5  196.88   27.00
  -4   5   5  154.08   28.80
   3  -5  -5  242.48   38.90
  -3  -5   5  384.86   43.60
   3  -5  -5  327.47   36.20
  -3   5   5  291.37   40.40
   3   5  -5  305.17   35.70
  -3   5   5  229.18   36.70
   2  -5  -5    0.60   16.80
  -2  -5   5   14.60   21.40
  -2   5   5   35.50   16.90
   2   5  -5   12.40   14.10
  -1  -5   5  389.76   46.60
   1  -5  -5  280.27   43.70
   1   5  -5  422.86   45.80
  -1   5   5  312.37   44.90
  -1   5   5  356.76   44.80
   0  -5   5  426.36   52.19
   0  -5  -5  366.26   50.89
   0   5   5  479.95   51.89
   0   5   5  364.66   51.49
   0   5  -5  368.26   61.09
   1  -5   5  352.36   48.90
  -1  -5  -5  442.16   50.39
   1   5   5  424.56   52.99
  -1   5  -5  257.67   51.59
  -1   5  -5  400.26   50.59
   1   5   5  383.26   49.50
  -2  -5  -5  267.07   37.30
   2  -5   5  286.97   39.60
  -2   5  -5  215.28   45.30
   2   5   5  223.18   37.70
  -2   5  -5  267.37   44.00
   3  -5   5   17.10   25.50
  -3  -5  -5   50.49   21.70
  -3  -5  -5   22.20   36.60
   3  -5   5    2.30   22.50
  -3   5  -5   29.90   37.80
   3   5   5   -3.00   21.00
  -5  -6   5  544.55   67.09
   5   6  -5  492.45   59.39
  -5   6   5  462.25   62.09
   4  -6  -5   94.69   24.40
   4  -6  -5  108.29   21.80
  -4  -6   5  172.98   30.60
  -4   6   5   89.39   23.60
   4   6  -5  125.29   21.50
  -3  -6   5   52.99   26.70
   3  -6  -5   -2.60   17.20
   3  -6  -5   12.10   15.30
   3   6  -5   -4.80   14.80
  -3   6   5   49.10   22.20
  -3   6   5    2.80   14.80
   2  -6  -5    5.40   17.60
   2  -6  -5    9.90   14.90
  -2  -6   5   32.90   22.40
  -2   6   5    6.50   18.70
   2   6  -5   18.10   15.50
   1  -6  -5  412.26   51.59
  -1  -6   5  439.56   49.10
  -1   6   5  282.27   49.20
   1   6  -5  340.87   58.99
  -1   6   5  424.56   50.89
   0  -6   5  336.57   43.10
   0  -6  -5  345.47   44.40
   0   6  -5  294.07   53.89
   0   6   5  224.08   43.70
   0   6   5  371.96   43.90
   1  -6   5   41.50   23.40
  -1  -6  -5   18.60   20.00
  -1   6  -5   41.60   24.60
   1   6   5    1.10   21.20
   1   6   5   52.09   24.90
   2  -6   5   47.30   25.40
  -2  -6  -5   29.00   20.80
   2   6   5   21.00   21.70
  -2   6  -5   23.70   31.30
  -2   6  -5   48.20   30.10
   3  -6   5    6.60   25.90
  -3  -6  -5    4.90   21.50
  -3   6  -5   -4.60   35.20
   3   6   5    5.90   21.80
  -5  -7   5  -19.10   24.40
   5  -7  -5   -7.50   18.60
  -5   7   5   18.00   22.00
   5   7  -5   24.70   18.90
   4  -7  -5  328.17   52.59
  -4  -7   5  542.95   58.49
   4  -7  -5  444.76   52.69
   4   7  -5  422.16   49.60
  -3  -7   5   26.40   26.00
   3  -7  -5   56.39   17.70
   3  -7  -5   32.50   19.40
  -3   7   5   36.10   23.00
   3   7  -5   28.30   17.40
  -3   7   5   38.80   16.70
   2  -7  -5 1001.10   94.19
  -2  -7   5  927.01   95.99
   2  -7  -5  676.93   95.69
   2   7  -5  806.52  105.19
  -2   7   5  920.91   97.59
  -1  -7   5    9.00   22.40
   1  -7  -5   34.90   19.70
  -1   7   5   -0.10   21.10
  -1   7   5   42.40   21.30
   1   7  -5   12.40   25.50
   0  -7   5  358.66   46.20
   0  -7  -5  375.86   48.60
   0   7  -5  300.07   57.29
   0   7   5  280.27   47.10
   0   7   5  445.16   49.70
   1  -7   5  360.36   45.10
  -1  -7  -5  383.86   46.40
   1   7   5  297.67   46.50
   1   7   5  413.16   49.80
  -1   7  -5  213.48   48.00
  -2  -7  -5   28.00   21.30
   2  -7   5   53.29   24.90
  -2   7  -5    9.00   30.50
   2   7   5   38.10   22.10
   3   7   5  428.26   69.69
  -5  -8   5  168.48   35.20
   5  -8  -5   61.49   24.00
  -5   8   5  113.99   30.10
   5   8  -5  115.29   24.80
   4  -8  -5   46.20   23.50
   4  -8  -5   28.40   19.60
  -4  -8   5   92.69   28.70
   4   8  -5   63.59   19.30
  -4   8   5   94.89   30.20
  -4   8   5   44.10   21.30
  -3  -8   5    8.00   26.70
   3  -8  -5   14.00   19.70
   3  -8  -5   -4.40   17.50
  -3  -8   5    4.90   21.50
  -3   8   5   13.70   22.90
  -2  -8   5  283.87   35.70
   2  -8  -5  181.08   33.50
  -2   8   5  196.38   36.10
   2   8  -5  184.08   42.90
   1  -8  -5   -4.70   19.80
  -1  -8   5   -5.30   21.00
  -1   8   5   21.70   22.50
   1   8  -5   26.30   24.90
  -1   8   5  -26.20   21.60
   0  -8  -5  168.08   29.70
   0  -8   5  120.89   26.40
   0   8  -5   83.99   32.40
   0   8   5  152.38   31.40
   0   8   5   84.49   28.80
   1  -8   5  198.68   34.90
  -1  -8  -5  211.78   35.90
   1   8   5  265.27   41.10
   1   8   5  179.38   37.40
   2  -8   5   -7.80   24.80
  -2  -8  -5   30.70   22.30
   2   8   5   -8.70   20.70
  -2   8  -5  -37.30   27.00
   5   9  -5  228.88   58.59
  -4  -9   5   51.69   27.40
   4  -9  -5   16.80   23.00
   4  -9  -5    9.10   19.60
   4   9  -5   64.59   39.20
  -4   9   5   10.30   28.80
   3  -9  -5   28.70   19.70
  -3  -9   5   -3.10   26.40
  -3  -9   5   51.09   23.70
   3  -9  -5   -2.80   22.50
   3   9  -5   15.00   30.40
  -3   9   5   34.80   26.70
  -2  -9   5  229.88   39.10
   2  -9  -5  296.97   36.40
   2  -9  -5  263.87   41.50
   2   9  -5  278.77   52.29
  -2   9   5  252.07   42.20
  -1  -9   5  547.25   68.69
   1  -9  -5  641.44   71.89
  -1   9   5  661.13   75.99
  -1   9   5  520.05   71.09
   1   9  -5  508.65   77.69
   0  -9   5    0.60   21.40
   0  -9  -5   14.90   22.30
   0   9  -5   15.50   22.80
   0   9   5  -18.80   22.20
   0   9   5   -0.60   26.70
  -1  -9  -5  -15.80   23.30
   1  -9   5    3.90   21.90
   1   9   5   19.10   24.90
  -1   9  -5    5.30   24.60
   1   9   5  -19.90   28.30
  -2  -9  -5  345.67   44.00
   2  -9   5  278.37   43.60
  -2   9  -5  233.78   56.59
   2   9   5  297.77   43.30
   4 -10  -5   30.90   20.80
  -4 -10   5   45.30   27.50
   4 -10  -5   43.20   27.80
   4  10  -5   37.00   40.80
  -4  10   5   12.70   31.90
   3 -10  -5   12.00   23.40
  -3 -10   5  -12.20   22.80
   3 -10  -5    1.30   19.00
  -3 -10   5   -8.90   25.40
  -3  10   5  -10.60   27.30
   3  10  -5    4.10   30.80
  -2 -10   5   16.30   27.10
   2 -10  -5    2.70   23.70
   2 -10  -5   49.10   20.20
  -2  10   5   32.50   28.80
   2  10  -5    5.90   25.00
   1 -10  -5   17.80   21.60
  -1  10   5   -8.10   26.70
  -1  10   5    1.10   23.10
   1  10  -5  -14.30   21.10
   0 -10  -5  177.78   32.00
   0  10   5  158.58   37.20
   0  10   5  111.09   32.10
   1 -10   5   37.10   21.70
  -1 -10  -5   42.70   24.20
   1  10   5   25.00   29.40
  -1  10  -5   -5.70   21.20
   1  10   5   25.10   24.90
   2 -10   5   25.20   25.40
   2  10   5   36.20   24.70
  -2  10  -5   49.30   36.70
   4 -11  -5    2.60   39.20
   4 -11  -5   16.80   25.30
   4  11  -5   18.90   40.40
  -4  11   5   33.20   33.50
  -3 -11   5  616.24   75.99
   3 -11  -5  614.64   71.59
   3 -11  -5  549.05   79.09
  -3  11   5  553.44   77.79
   3  11  -5  646.04   86.99
   2 -11  -5    2.50   20.00
   2 -11  -5   49.99   27.70
  -2 -11   5  -31.90   24.70
  -2  11   5   19.20   30.40
   2  11  -5  -14.80   22.40
   1 -11  -5  217.98   37.30
  -1 -11   5  288.67   45.30
   1  11  -5  115.79   38.00
  -1  11   5  147.89   35.20
  -1  11   5  229.88   42.40
   0 -11  -5   70.69   28.00
   0  11  -5   48.60   26.70
   0  11   5   63.39   31.40
   0  11   5   13.60   25.70
  -1 -11  -5   69.69   27.30
  -1  11  -5   19.40   26.00
   1  11   5   93.89   33.30
   1  11   5   64.59   26.70
   3 -12  -5   13.00   28.60
   3 -12  -5   -2.20   20.80
   3  12  -5  -10.30   29.10
  -3  12   5    2.90   34.40
   2 -12  -5    4.40   21.80
  -2 -12   5   -8.10   27.60
   2 -12  -5  -14.40   27.00
   2  12  -5  -20.40   21.90
  -2  12   5  -42.90   31.30
   1 -12  -5  182.38   38.20
  -1 -12   5  181.68   41.60
  -1  12   5  139.49   35.10
  -1  12   5  210.08   42.40
   0 -12   5   56.89   34.20
   0 -12  -5   63.69   27.70
   0  12   5   59.19   28.30
   0  12   5  117.69   36.20
   0  12  -5   33.60   24.90
  -1  12  -5   28.80   30.50
   1  12   5  141.09   31.60
   1  12   5  179.38   38.90
   2 -13  -5  303.67   44.70
   2 -13  -5  302.67   54.29
  -2 -13   5  405.26   54.99
  -2  13   5  357.96   58.79
   1 -13  -5   -1.90   28.90
  -1 -13   5  -17.00   28.00
   1  13  -5   12.40   21.60
  -1  13   5   50.79   35.60
   0 -13   5   76.19   39.80
   0  13   5   13.40   27.10
   0  13   5   76.69   36.90
   0  13  -5   12.20   25.10
  -5   0   6  591.54   68.99
   5   0  -6  480.05   63.99
  -4   0   6   32.10   25.10
   4   0  -6   42.10   17.90
   3   0  -6 1268.67  141.69
  -3   0   6 1447.36  144.49
   2   0  -6   23.30   15.40
  -2   0   6   27.50   21.70
  -1   0   6   33.40   22.00
  -1   0   6  100.09   25.50
   0   0   6 1432.86  137.99
   0   0   6 1124.09  137.69
   1   0   6   59.59   25.60
   1   0   6   77.09   30.10
  -2   0  -6 1202.38  123.29
   2   0   6 1031.80  118.39
   2   0   6 1008.00  117.69
  -5  -1   6   50.79   27.60
   5  -1  -6    3.00   19.80
  -5   1   6   52.59   25.80
   5   1  -6   39.30   20.90
  -4  -1   6  119.39   29.70
   4  -1  -6   88.49   20.50
   4   1  -6   88.89   21.10
  -4   1   6   98.59   28.50
  -3  -1   6   22.60   24.30
   3  -1  -6   36.30   16.40
   3   1  -6  -25.80   15.20
  -3   1   6   92.19   24.50
  -2  -1   6  975.00  106.69
   2  -1  -6 1028.40  105.99
  -2   1   6  947.51  106.49
   2   1  -6  961.00  104.99
  -1  -1   6  870.41   91.39
   1  -1  -6  893.91   91.09
  -1  -1   6  716.83   90.09
  -1   1   6  944.31   92.09
  -1   1   6  651.83   90.79
   0  -1   6   92.49   27.10
   0  -1   6   21.40   23.70
   0   1   6   71.59   26.30
   0   1   6   48.30   26.60
   1  -1   6   27.60   27.60
   1  -1   6    8.90   21.40
   1   1   6   33.80   28.40
   1   1   6   47.60   23.90
   2  -1   6   10.10   25.80
   2  -1   6  -14.70   21.30
   2   1   6   14.60   25.50
  -2   1  -6   30.90   39.90
   2   1   6   -4.40   22.60
  -5  -2   6  158.58   36.80
   5  -2  -6  137.99   26.10
   5   2  -6  109.89   25.80
  -5   2   6  109.59   30.60
  -4  -2   6  454.55   53.49
   4  -2  -6  349.17   45.90
   4   2  -6  338.27   46.40
  -4   2   6  426.96   51.09
   3  -2  -6   62.39   19.80
  -3  -2   6  129.89   28.80
   3  -2  -6  107.59   20.40
  -3   2   6  138.49   26.90
   3   2  -6  115.79   21.40
   2  -2  -6   19.40   16.60
   2  -2  -6   70.19   16.30
  -2  -2   6    6.30   20.80
  -2   2   6    5.70   20.50
   1  -2  -6  114.79   24.60
  -1  -2   6  108.59   27.60
  -1   2   6  185.98   28.60
  -1   2   6   98.99   26.80
   0  -2   6  341.77   44.20
   0  -2   6  190.48   40.40
   0  -2  -6  299.27   41.20
   0   2   6  380.66   44.50
   0   2   6  317.47   45.10
  -1  -2  -6  176.78   31.80
   1  -2   6  105.19   30.00
   1  -2   6  123.49   33.20
   1   2   6  194.28   36.00
   1   2   6  155.88   31.50
  -1   2  -6  179.78   36.70
   2  -2   6  153.98   31.60
   2  -2   6   98.69   27.10
   2   2   6   77.19   27.20
  -2   2  -6   84.59   42.20
   2   2   6   62.69   29.20
  -5  -3   6   23.40   28.00
   5  -3  -6   22.50   19.20
   5   3  -6    3.60   18.80
  -5   3   6   -0.40   20.70
  -4  -3   6    3.50   27.10
   4  -3  -6  -11.20   15.70
   4   3  -6   -4.00   16.00
  -4   3   6    5.70   23.30
  -4   3   6   11.70   19.60
   3  -3  -6   54.49   17.50
  -3  -3   6   93.09   28.70
   3  -3  -6   60.79   18.90
  -3   3   6   88.89   24.70
   3   3  -6   94.69   19.70
  -2  -3   6  321.47   37.90
   2  -3  -6  174.98   33.00
   2   3  -6  293.47   32.80
  -2   3   6  269.77   35.70
  -1  -3   6  657.43   74.99
   1  -3  -6  664.53   73.59
  -1   3   6  583.04   75.99
   0  -3   6   77.89   24.90
   0  -3  -6   -1.00   18.20
   0   3  -6  -11.70   25.20
   0   3   6  -14.60   22.30
   1  -3   6   63.49   28.70
  -1  -3  -6   90.09   24.30
  -1   3  -6   30.30   24.80
   1   3   6   33.70   25.00
   1   3   6  138.19   30.40
   2  -3   6   47.30   24.50
   2  -3   6   71.79   29.30
   2   3   6   94.49   27.90
  -2   3  -6   93.39   40.20
   2   3   6  114.49   30.20
   5  -4  -6   31.30   21.10
  -5  -4   6   53.89   32.40
   5   4  -6   -9.40   18.60
  -5   4   6   44.30   23.40
  -4  -4   6 1230.88  118.19
   4  -4  -6 1080.49  113.49
  -4   4   6  860.21  114.79
   4   4  -6 1086.79  112.89
  -3  -4   6   68.39   27.80
   3  -4  -6   51.89   18.30
   3  -4  -6   41.70   18.00
   3   4  -6   29.40   16.90
   2  -4  -6  137.69   27.60
  -2  -4   6  223.68   32.60
   2   4  -6  193.88   26.80
   1  -4  -6   11.00   17.60
  -1  -4   6   71.89   23.50
  -1   4   6   45.30   22.80
   0  -4   6  -24.90   23.90
   0  -4  -6    8.90   19.10
   0   4   6   16.00   24.30
   0   4  -6   -0.70   25.50
   1  -4   6 2172.78  210.18
  -1  -4  -6 2216.18  210.18
  -1   4  -6 1748.33  208.98
   1   4   6 1993.00  210.68
  -1   4  -6 1830.32  214.68
  -2  -4  -6   15.30   22.40
   2  -4   6    0.90   21.20
   2  -4   6   10.10   26.40
   2   4   6    6.90   22.20
  -2   4  -6    2.40   36.00
   5  -5  -6  -28.70   20.20
  -5  -5   6  -27.90   29.60
  -5   5   6   23.70   20.40
   5   5  -6  -28.90   18.30
  -4  -5   6    1.70   27.70
   4  -5  -6   24.50   17.90
   4   5  -6  -11.20   16.70
  -4   5   6   11.90   18.80
   3  -5  -6   86.99   23.30
  -3  -5   6  133.69   31.70
   3  -5  -6  154.68   24.30
   3   5  -6  113.19   22.30
  -2  -5   6  295.37   36.40
   2  -5  -6  187.08   32.60
   2   5  -6  267.27   31.40
  -2   5   6  179.58   31.00
   1  -5  -6  227.08   36.60
  -1  -5   6  286.47   39.20
   1   5  -6  299.67   35.40
   1   5  -6  276.77   53.69
  -1   5   6  212.88   39.10
   0  -5   6  161.58   32.50
   0  -5  -6  168.78   30.90
   0   5   6  152.48   35.40
   0   5  -6  208.58   45.90
  -1  -5  -6   26.10   21.60
   1  -5   6   65.99   27.30
   1   5   6   32.70   25.20
  -1   5  -6   20.90   24.10
   2  -5   6  -37.80   26.30
  -2  -5  -6   -4.10   21.90
   2   5   6   -0.30   21.90
  -2   5  -6   32.70   35.90
  -5  -6   6  771.12   98.39
   5  -6  -6  900.61   92.59
  -5   6   6  678.13   93.39
   5   6  -6  887.01   91.49
  -4  -6   6   13.30   28.70
   4  -6  -6   26.00   19.40
  -4   6   6   -9.10   17.90
   4   6  -6   19.40   17.50
   3  -6  -6   36.60   20.10
   3  -6  -6   20.70   19.20
  -3  -6   6   10.50   26.90
  -3   6   6   12.70   17.30
  -3   6   6   19.70   21.20
   3   6  -6    8.00   16.70
   2  -6  -6  174.58   31.10
  -2  -6   6  171.28   31.40
  -2   6   6  119.39   26.50
   2   6  -6  187.48   27.80
   1  -6  -6  386.96   49.10
  -1  -6   6  364.16   45.50
  -1   6   6  260.07   46.10
   1   6  -6  338.57   60.59
  -1   6   6  302.17   46.60
   0  -6  -6   44.00   22.50
   0  -6   6   67.69   26.50
   0   6  -6   68.89   30.80
   0   6   6   84.79   29.10
  -1  -6  -6   10.50   21.70
   1  -6   6    3.50   25.30
   1   6   6    9.90   24.00
  -1   6  -6   -4.70   23.30
   2  -6   6  632.84   80.69
  -2  -6  -6  695.03   77.09
   2   6   6  602.34   77.49
  -2   6  -6  602.64   81.19
   5  -7  -6   42.10   22.10
  -5   7   6   24.90   25.30
   5   7  -6   35.90   22.30
  -4  -7   6   86.89   32.20
   4  -7  -6   75.69   23.20
  -4   7   6   64.09   23.00
   4   7  -6   91.09   21.60
   3  -7  -6   25.50   19.10
   3  -7  -6    5.00   21.50
  -3  -7   6   25.60   29.40
   3   7  -6   21.50   19.40
  -3   7   6   33.20   23.90
  -2  -7   6   22.10   25.40
   2  -7  -6   11.50   17.60
   2  -7  -6  -20.60   21.80
  -2   7   6    8.10   20.90
   2   7  -6    3.50   19.10
   2   7  -6   11.10   25.40
  -1  -7   6    5.80   24.00
   1  -7  -6   -9.10   22.00
  -1   7   6   23.60   25.10
   1   7  -6    8.00   24.30
  -1   7   6   25.20   22.60
   0  -7   6   -7.60   23.50
   0  -7  -6    6.50   23.00
   0   7  -6   -7.40   23.90
   0   7   6   -0.30   25.60
   1  -7   6   94.19   28.50
  -1  -7  -6   50.99   23.60
  -1   7  -6   15.70   25.50
   1   7   6   42.60   27.70
  -2  -7  -6   30.70   23.90
   2  -7   6  -27.80   28.00
   2   7   6    5.60   23.90
   4  -8  -6    9.90   20.00
  -4  -8   6   -1.90   30.50
  -4   8   6  -34.40   25.20
   4   8  -6   12.50   21.70
  -3  -8   6  367.36   49.00
   3  -8  -6  276.07   40.00
   3  -8  -6  241.68   45.10
   3   8  -6  440.56   69.19
  -3   8   6  276.87   45.00
   3   8  -6  345.67   40.80
  -2  -8   6  371.06   47.30
   2  -8  -6  294.77   48.70
  -2   8   6  326.67   47.60
   2   8  -6  391.96   64.39
   1  -8  -6  178.98   32.40
  -1  -8   6  130.59   28.20
  -1   8   6  124.89   32.10
  -1   8   6   95.99   30.10
   1   8  -6   89.89   34.30
   0  -8   6  212.48   35.30
   0  -8  -6  236.28   38.30
   0   8  -6  173.18   43.30
   0   8   6  216.18   41.80
  -1  -8  -6   12.60   23.80
   1  -8   6   11.10   25.00
   1   8   6   20.10   27.00
  -1   8  -6   21.80   26.30
   4  -9  -6   55.39   22.70
  -4  -9   6  127.29   35.00
  -4   9   6   60.29   32.00
   4   9  -6   28.40   39.50
   3  -9  -6   -0.30   23.60
   3  -9  -6   33.70   20.40
  -3  -9   6   18.10   29.60
  -3  -9   6    5.90   31.20
  -3   9   6   31.30   26.80
   3   9  -6   13.70   29.70
   2  -9  -6  267.67   42.90
  -2  -9   6  326.47   42.90
  -2   9   6  269.97   44.00
   2   9  -6  229.98   51.59
  -1  -9   6  194.58   34.70
   1  -9  -6  251.47   38.80
  -1   9   6  139.29   36.60
   1   9  -6  124.69   39.90
  -1   9   6  270.17   38.80
   0  -9   6   13.20   23.60
   0  -9  -6    3.40   23.50
   0   9  -6   11.30   23.60
   0   9   6  -35.50   25.40
   1  -9   6   53.79   26.70
  -1  -9  -6  104.89   28.60
   1   9   6   48.30   30.10
  -1   9  -6   46.60   29.60
   4  10  -6  708.13   91.09
  -4  10   6  426.06   70.79
   3 -10  -6    2.40   20.60
  -3 -10   6    9.10   34.40
   3 -10  -6  -27.30   24.50
  -3 -10   6   18.40   32.00
   3  10  -6    9.80   29.50
  -3  10   6   -0.80   27.70
   2 -10  -6  111.99   32.30
  -2 -10   6  125.59   32.00
   2  10  -6   77.99   34.60
  -2  10   6  131.39   35.50
  -1 -10   6   88.29   30.10
   1 -10  -6  126.19   31.50
   1  10  -6   68.99   31.30
  -1  10   6   81.29   31.50
  -1  10   6  189.78   35.90
   0 -10  -6   31.90   27.70
   0 -10   6   69.19   26.00
   0  10  -6   17.10   23.20
   0  10   6  -28.70   27.70
  -1  10  -6  118.09   35.60
   3 -11  -6  112.79   26.00
   3 -11  -6   72.69   31.00
   3  11  -6   71.29   36.80
  -3  11   6  125.49   38.20
  -2 -11   6   96.79   38.20
   2 -11  -6   65.99   32.40
  -2  11   6   25.40   33.90
   2  11  -6   50.29   30.80
   1 -11  -6   69.39   31.60
  -1  11   6   15.70   28.00
   1  11  -6    2.50   24.00
  -1  11   6   11.00   32.20
   0 -11   6   64.19   26.10
   0 -11  -6   37.30   30.90
   0  11   6   85.59   30.90
   0  11  -6    7.60   24.00
  -2  12   6   35.80   36.30
  -1  12   6  132.19   42.70
  -5   0   7   -7.00   29.10
  -5   0   7  -26.40   26.50
   5   0  -7  -25.60   21.00
  -4   0   7   23.40   26.80
   4   0  -7   28.20   20.30
   3   0  -7  -16.50   17.50
  -3   0   7   35.60   25.50
   2   0  -7   -4.10   17.20
  -2   0   7   14.30   22.90
  -1   0   7   21.30   23.60
  -1   0   7   27.20   27.00
   0   0   7  -18.50   28.30
   0   0   7   36.30   27.40
   1   0   7   40.70   31.70
   1   0   7   39.00   26.10
  -5  -1   7   37.30   29.80
  -5  -1   7   19.40   30.60
   5  -1  -7   -0.40   21.80
  -5   1   7  -19.80   24.20
   5   1  -7  -11.60   20.50
   4  -1  -7  404.56   55.99
  -4  -1   7  564.34   66.29
   4   1  -7  433.96   56.69
  -4   1   7  535.55   62.29
   3  -1  -7  275.17   41.40
  -3  -1   7  398.26   48.60
  -3   1   7  384.06   48.50
   3   1  -7  342.27   42.40
  -2  -1   7   49.50   25.30
  -2   1   7   43.40   24.90
   2   1  -7   49.90   18.90
  -1  -1   7  271.47   42.70
  -1   1   7  334.87   46.30
   0  -1   7  146.69   35.20
   0  -1   7   78.59   29.60
   0   1   7   33.90   29.50
   0   1   7  215.88   36.70
   1  -1   7  138.79   36.00
   1  -1   7   52.09   27.90
   1   1   7   96.89   35.00
   1   1   7  137.39   32.90
   5  -2  -7   -8.40   21.60
  -5  -2   7    7.70   31.90
   5   2  -7  -22.40   19.70
  -5   2   7    1.60   24.30
  -4  -2   7   61.29   30.60
   4  -2  -7   44.10   19.80
   4   2  -7   56.89   23.50
  -4   2   7   55.09   29.00
  -3  -2   7  571.44   72.09
   3  -2  -7  547.35   67.99
   3  -2  -7  613.94   67.69
  -3   2   7  577.74   72.09
   3   2  -7  546.05   67.99
  -2  -2   7  414.76   49.10
   2  -2  -7  422.26   49.90
  -2   2   7  213.98   48.30
  -2   2   7  418.66   49.00
   2   2  -7  351.16   44.10
  -1  -2   7  170.28   33.40
   1  -2  -7  100.69   25.10
  -1   2   7  113.99   31.20
  -1   2   7  129.79   32.20
   0  -2   7    8.00   30.00
   0   2   7   20.30   29.60
   0   2  -7    8.60   27.30
   0   2   7   -4.60   25.10
   1  -2   7  179.58   40.40
   1  -2   7  321.57   46.80
   1   2   7  351.66   47.00
   1   2   7  239.08   43.50
  -5  -3   7  955.90   92.59
   5  -3  -7  709.03   83.89
  -5   3   7  517.65   86.29
   5   3  -7  814.22   87.19
   4  -3  -7  109.89   23.80
  -4  -3   7   89.99   33.60
   4   3  -7  113.69   25.80
  -4   3   7  108.99   31.30
   3  -3  -7   96.29   23.80
   3  -3  -7  122.09   25.10
  -3  -3   7  145.99   32.60
   3   3  -7  112.49   23.40
  -3   3   7  143.39   31.80
  -2  -3   7  323.57   45.40
   2  -3  -7  401.66   48.60
   2   3  -7  326.77   40.80
  -2   3   7  351.96   45.80
  -2   3   7  223.78   45.90
   1  -3  -7   29.00   21.30
  -1  -3   7   44.70   26.90
  -1   3   7   16.20   25.80
   0  -3  -7  459.45   60.69
   0  -3   7  513.85   61.09
   0   3  -7  462.55   70.59
   0   3   7  349.96   60.69
   1  -3   7   -0.60   30.80
   1  -3   7   15.10   24.40
   1   3   7   38.20   28.40
   1   3   7   50.99   31.50
   5  -4  -7   29.90   22.70
  -5  -4   7   84.19   41.80
   5   4  -7   19.10   21.50
  -5   4   7  -17.60   22.50
  -4  -4   7  -19.60   29.00
   4  -4  -7   -2.70   20.70
   4   4  -7   13.90   16.70
  -4   4   7   16.10   20.30
   3  -4  -7   26.40   19.80
   3  -4  -7  -30.90   19.60
  -3  -4   7   -1.40   26.70
  -3   4   7  -11.50   25.30
   3   4  -7  -13.30   17.20
   2  -4  -7   47.80   22.10
  -2  -4   7   71.69   25.90
   2   4  -7   48.20   20.00
  -2   4   7   27.20   26.60
   1  -4  -7   48.90   23.30
  -1  -4   7  -15.80   24.60
  -1   4   7   -0.60   24.80
   0  -4  -7  -39.10   23.00
   0  -4   7    7.10   28.40
   0   4   7   -0.50   27.90
   0   4   7    7.90   27.40
   0   4  -7   16.60   29.50
   1  -4   7   10.60   29.30
  -1  -4  -7   16.10   23.80
   1   4   7   33.20   29.20
  -5   5   7  112.29   31.40
  -4  -5   7  157.28   38.60
   4  -5  -7  156.88   29.80
  -4   5   7  140.09   32.00
   4   5  -7  157.48   27.50
  -3  -5   7  310.67   43.00
   3  -5  -7  290.07   37.00
   3   5  -7  197.68   35.60
  -2  -5   7   77.69   26.50
   2  -5  -7   58.89   23.80
   2   5  -7   72.39   22.20
  -2   5   7   69.59   28.30
   1  -5  -7   20.30   21.80
  -1  -5   7   16.20   26.20
  -1   5   7  -52.89   23.50
   1   5  -7  -16.30   23.10
   0  -5  -7  236.48   39.50
   0  -5   7  335.37   44.70
   0   5   7  237.38   46.50
   0   5  -7  261.37   54.19
  -1  -5  -7   19.60   24.50
   1  -5   7   31.70   29.40
   1   5   7   42.60   30.10
  -4  -6   7   18.40   33.10
   4  -6  -7    2.80   21.40
   4   6  -7   22.30   22.20
  -4   6   7    3.80   20.20
   3  -6  -7  109.99   24.30
   3  -6  -7   45.60   23.60
  -3  -6   7   62.89   30.50
   3   6  -7   66.69   24.00
  -2  -6   7  290.37   41.60
   2   6  -7  250.07   38.00
  -1  -6   7  -12.20   25.70
   1  -6  -7   46.00   23.20
   1   6  -7    8.70   24.40
  -1   6   7  -24.40   25.10
   0  -6  -7  -22.60   20.30
   0  -6   7   -2.90   26.60
   0   6   7  -28.30   26.30
   0   6  -7  -27.40   24.00
  -1  -6  -7    7.80   23.20
   1  -6   7    8.50   29.40
   1   6   7   34.60   29.10
  -4  -7   7  153.38   38.90
   4  -7  -7  149.19   30.10
   4   7  -7  138.09   31.70
   3  -7  -7  135.49   34.10
   3  -7  -7  216.78   32.80
  -3  -7   7  217.38   39.90
   3   7  -7  218.68   32.40
   2  -7  -7   53.09   25.70
  -2  -7   7    7.50   27.40
   2   7  -7   34.30   29.80
  -1  -7   7  328.77   44.20
   1  -7  -7  322.27   45.90
  -1   7   7  142.79   43.00
   1   7  -7  351.16   58.89
   0  -7   7   27.20   28.10
   0  -7  -7   41.70   25.20
   0   7  -7   21.90   27.60
   0   7   7   29.70   29.50
  -3  -8   7  150.78   37.40
   3  -8  -7   79.69   30.00
   3   8  -7  107.39   39.40
  -2  -8   7   18.70   28.70
   2  -8  -7   -8.50   23.00
   2   8  -7   23.50   27.70
   1  -8  -7   50.69   27.20
  -1  -8   7   84.99   28.80
   1   8  -7   52.89   32.90
  -1   8   7   65.89   30.80
   0  -8  -7  -15.40   22.10
   0  -8   7    3.60   26.60
   0   8   7  -22.40   28.70
   0   8  -7   23.20   28.60
   3  -9  -7  -13.10   26.90
  -3  -9   7    8.90   33.30
   3  -9  -7   17.00   24.10
   3   9  -7   32.00   29.90
   2  -9  -7  232.48   41.80
  -2  -9   7  227.78   40.70
   2   9  -7  216.58   51.19
   1  -9  -7   28.90   28.70
  -1  -9   7   50.49   27.40
   1   9  -7   51.79   32.00
  -1   9   7   44.60   30.30
   2  10  -7   25.80   37.00
   4   0  -8  306.57   46.00
  -4   0   8  329.87   50.19
  -3   0   8   33.50   28.70
   3   0  -8    2.30   20.90
  -2   0   8 1119.19  124.19
  -1   0   8    5.30   27.00
  -1   0   8  167.48   35.80
   0   0   8   63.99   33.50
   0   0   8  126.49   37.30
  -4  -1   8   74.99   32.90
   4  -1  -8   56.79   25.40
  -4   1   8   49.00   31.40
   4   1  -8   30.30   22.30
  -3  -1   8   38.60   27.70
  -3   1   8   31.00   28.40
  -2  -1   8    6.50   26.00
  -2   1   8   26.00   27.70
  -1  -1   8  -39.20   29.70
  -1  -1   8  -38.90   24.70
  -1   1   8   32.30   29.20
  -1   1   8   58.49   32.00
   0  -1   8  -19.50   32.30
   0  -1   8    9.40   29.70
   0   1   8   38.00   31.70
   0   1   8   40.90   34.50
  -4  -2   8  120.09   38.00
   4  -2  -8  154.58   29.20
   4   2  -8  127.49   28.40
  -4   2   8  189.88   37.80
   3  -2  -8  307.67   43.50
  -3  -2   8  394.96   50.39
   3   2  -8  272.57   43.80
  -3   2   8  413.76   51.49
  -2  -2   8   63.49   30.40
  -2   2   8  127.99   32.90
  -2   2   8   63.79   29.80
  -1  -2   8  277.87   46.30
  -1   2   8  349.77   47.60
  -1   2   8  184.98   44.00
   0  -2   8   39.20   30.90
   0  -2   8   21.50   32.40
   0   2   8   30.20   32.50
   0   2   8  105.69   35.30
   4  -3  -8  -12.10   23.00
  -4  -3   8  -15.80   33.20
   4   3  -8   35.70   23.90
  -4   3   8  -17.20   29.70
  -3  -3   8   43.50   27.90
   3  -3  -8  -11.60   20.60
   3   3  -8   10.40   21.10
  -3   3   8   22.90   29.60
   2  -3  -8   15.10   21.10
  -2  -3   8  -17.00   27.90
  -2   3   8  -15.00   28.10
  -2   3   8   14.00   27.60
  -1  -3   8   27.90   31.70
   1  -3  -8   43.10   25.90
  -1   3   8  -21.90   29.00
  -1   3   8   59.89   31.00
   0  -3   8  -19.10   32.00
   0   3   8   19.80   31.00
   0   3   8    5.30   31.90
   4  -4  -8   49.60   25.80
   4   4  -8   22.40   24.20
  -4   4   8   30.90   32.10
  -3  -4   8  330.07   47.30
   3  -4  -8  307.77   42.10
   3   4  -8  282.37   41.70
   2  -4  -8   26.60   23.50
  -2  -4   8   -2.60   26.80
   2   4  -8   10.70   21.90
  -2   4   8  -19.40   26.80
  -1  -4   8  691.53   79.09
   1  -4  -8  727.03   76.59
   1   4  -8  552.34   85.79
  -1   4   8  389.26   72.99
   0  -4  -8   92.39   30.10
   0  -4   8  152.48   49.30
   0   4   8   37.60   33.60
   0   4   8   32.80   33.50
   3  -5  -8    9.60   23.00
   3  -5  -8  -26.90   21.80
  -3  -5   8  -13.50   29.60
   3   5  -8    7.70   22.40
   2  -5  -8   -1.60   24.40
  -2  -5   8   20.20   27.10
   2   5  -8   65.39   24.20
  -2   5   8    6.40   31.00
  -1  -5   8  -15.30   29.30
   1  -5  -8   67.89   29.20
   1   5  -8    1.80   27.10
  -1   5   8    6.20   29.60
  -3  -6   8  -38.10   31.20
   3  -6  -8    6.70   23.60
   3   6  -8   91.39   24.30
  -2  -6   8  632.74   80.49
   2   6  -8  752.42   79.59
   2   6  -8  562.24   92.09
   1  -6  -8   21.20   27.50
  -1  -6   8   27.70   32.00
  -1   6   8  -10.70   30.30
   1   6  -8   17.30   27.40
   2   7  -8   -5.20   25.70

_computing_structure_solution     'SHELXT 2014/4 (Sheldrick, 2014)'
;
_shelx_hkl_checksum              70615
loop_
_space_group_symop_operation_xyz
'x, y, z'
'-x, y+1/2, -z+1/2'
'-x, -y, -z'
'x, -y-1/2, z-1/2'
loop_
_atom_site_label
_atom_site_type_symbol
_atom_site_fract_x
_atom_site_fract_y
_atom_site_fract_z
_atom_site_U_iso_or_equiv
_atom_site_adp_type
_atom_site_occupancy
_atom_site_site_symmetry_order
_atom_site_calc_flag
_atom_site_refinement_flags_posn
_atom_site_refinement_flags_adp
_atom_site_refinement_flags_occupancy
_atom_site_disorder_assembly
_atom_site_disorder_group
V1 V 0.0000 0.5000 0.5000 0.0149(3) Uani 1 2 d S . P . .
S1 S 0.4105(2) 0.85740(9) 0.35348(18) 0.0164(4) Uani 1 1 d . . . . .
F2 F 0.1258(6) 0.5286(2) 0.2848(4) 0.0212(7) Uani 1 1 d . . . . .
F1 F 0.8002(6) 0.6268(2) 0.4448(5) 0.0238(7) Uani 1 1 d . . . . .
O4 O 0.3037(7) 0.9012(3) 0.5017(6) 0.0241(9) Uani 1 1 d . . . . .
O3 O 0.3432(7) 0.9254(3) 0.1760(6) 0.0241(9) Uani 1 1 d . . . . .
O1 O 0.2663(8) 0.7579(3) 0.2891(6) 0.0281(10) Uani 1 1 d . . . . .
O2 O 0.7093(7) 0.8450(3) 0.4364(6) 0.0244(9) Uani 1 1 d . . . . .
Li2 Li 0.4234(18) 0.6143(7) 0.2997(16) 0.030(2) Uani 1 1 d . . . . .
Li3 Li 1.009(2) 0.7517(8) 0.4886(18) 0.035(2) Uani 1 1 d . . . . .
Li1 Li 0.033(4) 0.4881(13) 0.003(3) 0.010(3) Uiso 0.5 1 d . . P . .
loop_
_atom_site_aniso_label
_atom_site_aniso_U_11
_atom_site_aniso_U_22
_atom_site_aniso_U_33
_atom_site_aniso_U_23
_atom_site_aniso_U_13
_atom_site_aniso_U_12
V1 0.0130(6) 0.0134(6) 0.0167(7) 0.0010(5) 0.0032(4) 0.0010(4)
S1 0.0142(6) 0.0147(6) 0.0181(7) 0.0002(4) 0.0029(5) 0.0017(4)
F2 0.0203(15) 0.0256(16) 0.0173(16) -0.0001(12) 0.0061(12) -0.0036(12)
F1 0.0178(14) 0.0194(15) 0.0289(18) 0.0004(12) 0.0013(12) 0.0018(12)
O4 0.0207(19) 0.031(2) 0.020(2) -0.0022(16) 0.0061(15) 0.0056(15)
O3 0.0165(17) 0.028(2) 0.025(2) 0.0071(16) 0.0035(15) 0.0033(15)
O1 0.0243(19) 0.0146(18) 0.037(2) -0.0042(16) -0.0009(17) -0.0030(15)
O2 0.0178(18) 0.025(2) 0.028(2) 0.0035(16) 0.0048(15) 0.0037(15)
Li2 0.016(4) 0.023(5) 0.042(6) 0.000(4) 0.001(4) -0.004(4)
Li3 0.025(5) 0.029(5) 0.045(7) 0.005(5) 0.005(4) 0.003(4)
loop_
_atom_type_symbol
_atom_type_description
_atom_type_scat_dispersion_real
_atom_type_scat_dispersion_imag
_atom_type_scat_source
Li Li -0.0003 0.0001 'International Tables Vol C Tables 4.2.6.8 and 6.1.1.4'
O O 0.0106 0.0060 'International Tables Vol C Tables 4.2.6.8 and 6.1.1.4'
F F 0.0171 0.0103 'International Tables Vol C Tables 4.2.6.8 and 6.1.1.4'
S S 0.1246 0.1234 'International Tables Vol C Tables 4.2.6.8 and 6.1.1.4'
V V 0.3005 0.5294 'International Tables Vol C Tables 4.2.6.8 and 6.1.1.4'
loop_
_geom_angle_atom_site_label_1
_geom_angle_atom_site_label_2
_geom_angle_atom_site_label_3
_geom_angle
_geom_angle_site_symmetry_1
_geom_angle_site_symmetry_3
_geom_angle_publ_flag
F2 V1 F2 180.00(14) 3_566 . ?
F2 V1 F1 88.52(13) 3_566 3_666 ?
F2 V1 F1 91.48(13) . 3_666 ?
F2 V1 F1 91.48(13) 3_566 1_455 ?
F2 V1 F1 88.52(13) . 1_455 ?
F1 V1 F1 180.0 3_666 1_455 ?
F2 V1 O3 93.71(14) 3_566 4_576 ?
F2 V1 O3 86.29(14) . 4_576 ?
F1 V1 O3 89.82(13) 3_666 4_576 ?
F1 V1 O3 90.18(13) 1_455 4_576 ?
F2 V1 O3 86.29(14) 3_566 2_545 ?
F2 V1 O3 93.71(14) . 2_545 ?
F1 V1 O3 90.18(13) 3_666 2_545 ?
F1 V1 O3 89.82(13) 1_455 2_545 ?
O3 V1 O3 180.00(18) 4_576 2_545 ?
F2 V1 Li2 94.2(2) 3_566 3_666 ?
F2 V1 Li2 85.8(2) . 3_666 ?
F1 V1 Li2 32.07(19) 3_666 3_666 ?
F1 V1 Li2 147.93(19) 1_455 3_666 ?
O3 V1 Li2 58.0(2) 4_576 3_666 ?
O3 V1 Li2 122.0(2) 2_545 3_666 ?
F2 V1 Li2 85.8(2) 3_566 1_455 ?
F2 V1 Li2 94.2(2) . 1_455 ?
F1 V1 Li2 147.93(19) 3_666 1_455 ?
F1 V1 Li2 32.07(19) 1_455 1_455 ?
O3 V1 Li2 122.0(2) 4_576 1_455 ?
O3 V1 Li2 58.0(2) 2_545 1_455 ?
Li2 V1 Li2 180.0 3_666 1_455 ?
F2 V1 Li3 76.8(2) 3_566 3_666 ?
F2 V1 Li3 103.2(2) . 3_666 ?
F1 V1 Li3 31.02(18) 3_666 3_666 ?
F1 V1 Li3 148.98(19) 1_455 3_666 ?
O3 V1 Li3 118.8(2) 4_576 3_666 ?
O3 V1 Li3 61.2(2) 2_545 3_666 ?
Li2 V1 Li3 62.6(2) 3_666 3_666 ?
Li2 V1 Li3 117.4(2) 1_455 3_666 ?
F2 V1 Li3 103.2(2) 3_566 1_455 ?
F2 V1 Li3 76.8(2) . 1_455 ?
F1 V1 Li3 148.98(19) 3_666 1_455 ?
F1 V1 Li3 31.02(18) 1_455 1_455 ?
O3 V1 Li3 61.2(2) 4_576 1_455 ?
O3 V1 Li3 118.8(2) 2_545 1_455 ?
Li2 V1 Li3 117.4(2) 3_666 1_455 ?
Li2 V1 Li3 62.6(2) 1_455 1_455 ?
Li3 V1 Li3 180.0 3_666 1_455 ?
O2 S1 O4 111.1(2) . . ?
O2 S1 O3 108.3(2) . . ?
O4 S1 O3 110.2(2) . . ?
O2 S1 O1 111.9(2) . . ?
O4 S1 O1 106.9(2) . . ?
O3 S1 O1 108.4(2) . . ?
O2 S1 Li3 125.9(3) . 1_455 ?
O4 S1 Li3 57.3(3) . 1_455 ?
O3 S1 Li3 125.6(2) . 1_455 ?
O1 S1 Li3 49.7(3) . 1_455 ?
Li2 F2 V1 125.1(4) . . ?
Li2 F2 Li1 99.4(7) . 3_565 ?
V1 F2 Li1 134.0(6) . 3_565 ?
Li2 F2 Li1 97.0(7) . . ?
V1 F2 Li1 137.9(6) . . ?
Li1 F2 Li1 13.3(9) 3_565 . ?
Li2 F1 V1 114.8(3) . 1_655 ?
Li2 F1 Li3 125.7(4) . . ?
V1 F1 Li3 118.0(3) 1_655 . ?
S1 O4 Li2 132.0(3) . 4_576 ?
S1 O4 Li1 135.9(6) . 4_576 ?
Li2 O4 Li1 91.5(6) 4_576 4_576 ?
S1 O4 Li1 136.6(6) . 2 ?
Li2 O4 Li1 91.1(6) 4_576 2 ?
Li1 O4 Li1 12.7(8) 4_576 2 ?
S1 O4 Li3 92.5(3) . 1_455 ?
Li2 O4 Li3 85.4(4) 4_576 1_455 ?
Li1 O4 Li3 98.7(5) 4_576 1_455 ?
Li1 O4 Li3 86.0(5) 2 1_455 ?
S1 O3 V1 135.2(2) . 2 ?
S1 O1 Li2 130.1(3) . . ?
S1 O1 Li3 116.0(4) . 4_475 ?
Li2 O1 Li3 94.9(4) . 4_475 ?
S1 O1 Li3 100.2(3) . 1_455 ?
Li2 O1 Li3 104.9(4) . 1_455 ?
Li3 O1 Li3 109.9(4) 4_475 1_455 ?
S1 O2 Li3 145.6(4) . . ?
S1 O2 Li1 117.2(5) . 2_655 ?
Li3 O2 Li1 96.3(6) . 2_655 ?
F1 Li2 F2 139.4(6) . . ?
F1 Li2 O4 118.3(6) . 4_575 ?
F2 Li2 O4 86.3(4) . 4_575 ?
F1 Li2 O1 105.3(4) . . ?
F2 Li2 O1 104.0(5) . . ?
O4 Li2 O1 94.7(4) 4_575 . ?
F1 Li2 Li1 141.8(6) . . ?
F2 Li2 Li1 42.8(5) . . ?
O4 Li2 Li1 44.3(5) 4_575 . ?
O1 Li2 Li1 109.5(5) . . ?
F1 Li2 Li1 150.6(6) . 3_565 ?
F2 Li2 Li1 41.1(5) . 3_565 ?
O4 Li2 Li1 45.3(4) 4_575 3_565 ?
O1 Li2 Li1 100.8(5) . 3_565 ?
Li1 Li2 Li1 9.0(6) . 3_565 ?
F1 Li2 Li3 133.3(5) . 4_475 ?
F2 Li2 Li3 87.1(4) . 4_475 ?
O4 Li2 Li3 53.6(3) 4_575 4_475 ?
O1 Li2 Li3 43.3(3) . 4_475 ?
Li1 Li2 Li3 70.1(4) . 4_475 ?
Li1 Li2 Li3 62.7(4) 3_565 4_475 ?
F1 Li2 V1 33.1(2) . 1_655 ?
F2 Li2 V1 111.3(4) . 1_655 ?
O4 Li2 V1 108.9(4) 4_575 1_655 ?
O1 Li2 V1 138.2(4) . 1_655 ?
Li1 Li2 V1 111.5(4) . 1_655 ?
Li1 Li2 V1 120.4(4) 3_565 1_655 ?
Li3 Li2 V1 154.9(5) 4_475 1_655 ?
F1 Li2 Li3 27.6(2) . . ?
F2 Li2 Li3 160.9(6) . . ?
O4 Li2 Li3 112.4(5) 4_575 . ?
O1 Li2 Li3 79.2(3) . . ?
Li1 Li2 Li3 154.2(6) . . ?
Li1 Li2 Li3 157.6(6) 3_565 . ?
Li3 Li2 Li3 106.9(3) 4_475 . ?
V1 Li2 Li3 60.2(2) 1_655 . ?
F1 Li2 Li3 114.2(5) . 1_455 ?
F2 Li2 Li3 73.9(4) . 1_455 ?
O4 Li2 Li3 117.9(4) 4_575 1_455 ?
O1 Li2 Li3 39.8(3) . 1_455 ?
Li1 Li2 Li3 102.6(4) . 1_455 ?
Li1 Li2 Li3 94.5(4) 3_565 1_455 ?
Li3 Li2 Li3 66.9(2) 4_475 1_455 ?
V1 Li2 Li3 133.3(4) 1_655 1_455 ?
Li3 Li2 Li3 99.2(4) . 1_455 ?
O2 Li3 F1 98.1(5) . . ?
O2 Li3 O1 114.9(6) . 4_676 ?
F1 Li3 O1 103.6(5) . 4_676 ?
O2 Li3 O1 118.0(5) . 1_655 ?
F1 Li3 O1 110.3(5) . 1_655 ?
O1 Li3 O1 110.2(4) 4_676 1_655 ?
O2 Li3 O4 87.0(4) . 1_655 ?
F1 Li3 O4 170.6(7) . 1_655 ?
O1 Li3 O4 81.1(4) 4_676 1_655 ?
O1 Li3 O4 60.3(3) 1_655 1_655 ?
O2 Li3 S1 104.7(4) . 1_655 ?
F1 Li3 S1 140.5(6) . 1_655 ?
O1 Li3 S1 95.5(4) 4_676 1_655 ?
O1 Li3 S1 30.17(17) 1_655 1_655 ?
O4 Li3 S1 30.18(16) 1_655 1_655 ?
O2 Li3 Li2 95.2(5) . 4_676 ?
F1 Li3 Li2 145.1(6) . 4_676 ?
O1 Li3 Li2 41.8(3) 4_676 4_676 ?
O1 Li3 Li2 91.2(4) 1_655 4_676 ?
O4 Li3 Li2 41.1(3) 1_655 4_676 ?
S1 Li3 Li2 64.5(3) 1_655 4_676 ?
O2 Li3 Li1 46.1(4) . 2_655 ?
F1 Li3 Li1 144.2(6) . 2_655 ?
O1 Li3 Li1 93.6(5) 4_676 2_655 ?
O1 Li3 Li1 92.2(5) 1_655 2_655 ?
O4 Li3 Li1 41.7(4) 1_655 2_655 ?
S1 Li3 Li1 66.3(4) 1_655 2_655 ?
Li2 Li3 Li1 56.5(4) 4_676 2_655 ?
O2 Li3 V1 128.9(5) . 1_655 ?
F1 Li3 V1 31.0(2) . 1_655 ?
O1 Li3 V1 85.6(3) 4_676 1_655 ?
O1 Li3 V1 93.9(4) 1_655 1_655 ?
O4 Li3 V1 143.9(4) 1_655 1_655 ?
S1 Li3 V1 120.0(4) 1_655 1_655 ?
Li2 Li3 V1 124.7(4) 4_676 1_655 ?
Li1 Li3 V1 173.8(5) 2_655 1_655 ?
O2 Li3 Li2 73.0(3) . . ?
F1 Li3 Li2 26.7(2) . . ?
O1 Li3 Li2 122.6(5) 4_676 . ?
O1 Li3 Li2 114.1(5) 1_655 . ?
O4 Li3 Li2 153.7(4) 1_655 . ?
S1 Li3 Li2 139.6(5) 1_655 . ?
Li2 Li3 Li2 154.6(6) 4_676 . ?
Li1 Li3 Li2 118.7(5) 2_655 . ?
V1 Li3 Li2 57.2(2) 1_655 . ?
O2 Li3 Li1 52.0(4) . 4_676 ?
F1 Li3 Li1 150.0(5) . 4_676 ?
O1 Li3 Li1 91.5(5) 4_676 4_676 ?
O1 Li3 Li1 87.7(5) 1_655 4_676 ?
O4 Li3 Li1 35.8(3) 1_655 4_676 ?
S1 Li3 Li1 60.9(4) 1_655 4_676 ?
Li2 Li3 Li1 52.7(4) 4_676 4_676 ?
Li1 Li3 Li1 5.9(6) 2_655 4_676 ?
V1 Li3 Li1 177.1(5) 1_655 4_676 ?
Li2 Li3 Li1 124.3(4) . 4_676 ?
O2 Li3 Li2 147.1(6) . 1_655 ?
F1 Li3 Li2 83.2(4) . 1_655 ?
O1 Li3 Li2 96.4(4) 4_676 1_655 ?
O1 Li3 Li2 35.3(3) 1_655 1_655 ?
O4 Li3 Li2 88.3(4) 1_655 1_655 ?
S1 Li3 Li2 60.3(3) 1_655 1_655 ?
Li2 Li3 Li2 102.3(4) 4_676 1_655 ?
Li1 Li3 Li2 126.3(5) 2_655 1_655 ?
V1 Li3 Li2 60.0(2) 1_655 1_655 ?
Li2 Li3 Li2 99.2(4) . 1_655 ?
Li1 Li3 Li2 121.2(5) 4_676 1_655 ?
Li1 Li1 F2 87(5) 3_565 3_565 ?
Li1 Li1 F2 79(5) 3_565 . ?
F2 Li1 F2 166.7(9) 3_565 . ?
Li1 Li1 O4 90(5) 3_565 4_575 ?
F2 Li1 O4 96.6(9) 3_565 4_575 ?
F2 Li1 O4 83.6(8) . 4_575 ?
Li1 Li1 O4 77(5) 3_565 2_545 ?
F2 Li1 O4 83.0(7) 3_565 2_545 ?
F2 Li1 O4 93.9(8) . 2_545 ?
O4 Li1 O4 167.3(8) 4_575 2_545 ?
Li1 Li1 O2 165(6) 3_565 2_645 ?
F2 Li1 O2 96.6(7) 3_565 2_645 ?
F2 Li1 O2 96.3(7) . 2_645 ?
O4 Li1 O2 103.6(7) 4_575 2_645 ?
O4 Li1 O2 89.1(7) 2_545 2_645 ?
Li1 Li1 Li2 89(5) 3_565 . ?
F2 Li1 Li2 140.6(9) 3_565 . ?
F2 Li1 Li2 40.2(4) . . ?
O4 Li1 Li2 44.1(5) 4_575 . ?
O4 Li1 Li2 134.1(9) 2_545 . ?
O2 Li1 Li2 96.9(6) 2_645 . ?
Li1 Li1 Li2 82(5) 3_565 3_565 ?
F2 Li1 Li2 39.5(4) 3_565 3_565 ?
F2 Li1 Li2 136.7(9) . 3_565 ?
O4 Li1 Li2 135.4(9) 4_575 3_565 ?
O4 Li1 Li2 43.6(4) 2_545 3_565 ?
O2 Li1 Li2 91.9(6) 2_645 3_565 ?
Li2 Li1 Li2 171.0(6) . 3_565 ?
Li1 Li1 Li3 129(5) 3_565 2_645 ?
F2 Li1 Li3 84.4(6) 3_565 2_645 ?
F2 Li1 Li3 104.0(8) . 2_645 ?
O4 Li1 Li3 140.4(7) 4_575 2_645 ?
O4 Li1 Li3 52.3(4) 2_545 2_645 ?
O2 Li1 Li3 37.6(3) 2_645 2_645 ?
Li2 Li1 Li3 126.3(7) . 2_645 ?
Li2 Li1 Li3 60.8(5) 3_565 2_645 ?
Li1 Li1 Li3 45(5) 3_565 4_475 ?
F2 Li1 Li3 94.8(7) 3_565 4_475 ?
F2 Li1 Li3 75.8(6) . 4_475 ?
O4 Li1 Li3 45.5(4) 4_575 4_475 ?
O4 Li1 Li3 121.8(6) 2_545 4_475 ?
O2 Li1 Li3 148.2(8) 2_645 4_475 ?
Li2 Li1 Li3 57.2(4) . 4_475 ?
Li2 Li1 Li3 115.2(6) 3_565 4_475 ?
Li3 Li1 Li3 174.1(6) 2_645 4_475 ?
loop_
_geom_bond_atom_site_label_1
_geom_bond_atom_site_label_2
_geom_bond_distance
_geom_bond_site_symmetry_2
_geom_bond_publ_flag
V1 F2 1.896(3) 3_566 ?
V1 F2 1.896(3) . ?
V1 F1 1.916(3) 3_666 ?
V1 F1 1.916(3) 1_455 ?
V1 O3 2.025(3) 4_576 ?
V1 O3 2.025(3) 2_545 ?
V1 Li2 3.183(9) 3_666 ?
V1 Li2 3.183(9) 1_455 ?
V1 Li3 3.285(11) 3_666 ?
V1 Li3 3.285(11) 1_455 ?
S1 O2 1.453(4) . ?
S1 O4 1.465(4) . ?
S1 O3 1.483(4) . ?
S1 O1 1.486(4) . ?
S1 Li3 2.912(11) 1_455 ?
F2 Li2 1.870(10) . ?
F2 Li1 1.94(2) 3_565 ?
F2 Li1 1.97(2) . ?
F1 Li2 1.862(9) . ?
F1 V1 1.916(3) 1_655 ?
F1 Li3 1.917(11) . ?
O4 Li2 2.002(12) 4_576 ?
O4 Li1 2.01(2) 4_576 ?
O4 Li1 2.06(2) 2 ?
O4 Li3 2.452(11) 1_455 ?
O3 V1 2.025(3) 2 ?
O1 Li2 2.031(10) . ?
O1 Li3 2.092(12) 4_475 ?
O1 Li3 2.255(13) 1_455 ?
O2 Li3 1.899(10) . ?
O2 Li1 2.243(15) 2_655 ?
Li2 O4 2.002(12) 4_575 ?
Li2 Li1 2.87(2) . ?
Li2 Li1 2.90(2) 3_565 ?
Li2 Li3 3.037(14) 4_475 ?
Li2 V1 3.183(9) 1_655 ?
Li2 Li3 3.362(14) . ?
Li2 Li3 3.401(16) 1_455 ?
Li3 O1 2.092(12) 4_676 ?
Li3 O1 2.255(13) 1_655 ?
Li3 O4 2.452(11) 1_655 ?
Li3 S1 2.912(11) 1_655 ?
Li3 Li2 3.037(14) 4_676 ?
Li3 Li1 3.09(2) 2_655 ?
Li3 V1 3.285(11) 1_655 ?
Li3 Li1 3.40(2) 4_676 ?
Li3 Li2 3.401(16) 1_655 ?
Li1 Li1 0.45(3) 3_565 ?
Li1 F2 1.94(2) 3_565 ?
Li1 O4 2.01(2) 4_575 ?
Li1 O4 2.06(2) 2_545 ?
Li1 O2 2.243(15) 2_645 ?
Li1 Li2 2.90(2) 3_565 ?
Li1 Li3 3.09(2) 2_645 ?
Li1 Li3 3.40(2) 4_475 ?
