#------------------------------------------------------------------------------
#$Date: 2021-01-28 01:01:37 +0200 (Thu, 28 Jan 2021) $
#$Revision: 261273 $
#$URL: file:///home/coder/svn-repositories/cod/cif/4/51/84/4518427.cif $
#------------------------------------------------------------------------------
#
# This file is available in the Crystallography Open Database (COD),
# http://www.crystallography.net/
#
# All data on this site have been placed in the public domain by the
# contributors.
#
data_4518427
loop_
_publ_author_name
'Nag, Abhijit'
'Islam, Md Rabiul'
'Pradeep, Thalappil'
_publ_section_title
;
 Selective Extraction of Gold by Niacin
;
_journal_name_full               'ACS Sustainable Chemistry &amp; Engineering'
_journal_paper_doi               10.1021/acssuschemeng.0c07409
_journal_year                    2021
_chemical_formula_moiety         'C12 H11 N2 O4, Au Cl4 '
_chemical_formula_sum            'C12 H11 Au Cl4 N2 O4'
_chemical_formula_weight         585.99
_space_group_crystal_system      monoclinic
_space_group_IT_number           14
_space_group_name_Hall           '-P 2yn'
_space_group_name_H-M_alt        'P 1 21/n 1'
_atom_sites_solution_hydrogens   mixed
_audit_creation_method           SHELXL-2018/3
_cell_angle_alpha                90
_cell_angle_beta                 105.095(14)
_cell_angle_gamma                90
_cell_formula_units_Z            2
_cell_length_a                   7.2567(18)
_cell_length_b                   10.516(4)
_cell_length_c                   11.444(4)
_cell_measurement_reflns_used    9918
_cell_measurement_temperature    293(2)
_cell_measurement_theta_max      36.38
_cell_measurement_theta_min      3.01
_cell_volume                     843.2(5)
_computing_cell_refinement       'APEX3/SAINT (Bruker, 2016)'
_computing_data_collection       'APEX3 (Bruker, 2016)'
_computing_data_reduction        'SAINT/XPREP (Bruker, 2016)'
_computing_molecular_graphics
'ORTEP3 (Farrugia, 1997) and Mercury (Bruno et al., 2002)'
_computing_publication_material  'SHELXL-2018/3 (Sheldrick, 2018)'
_computing_structure_refinement  'SHELXL-2018/3 (Sheldrick, 2018)'
_computing_structure_solution    'SHELXT-2018/2 Sheldrick, 2018)'
_diffrn_ambient_temperature      293(2)
_diffrn_measured_fraction_theta_full 0.989
_diffrn_measured_fraction_theta_max 0.988
_diffrn_measurement_device_type  'Bruker axs kappa apex3 CMOS Diffractometer'
_diffrn_measurement_method       '\w and \f scan'
_diffrn_radiation_monochromator  graphite
_diffrn_radiation_source         'fine-focus sealed tube'
_diffrn_radiation_type           MoK\a
_diffrn_radiation_wavelength     0.71073
_diffrn_reflns_av_R_equivalents  0.0557
_diffrn_reflns_av_unetI/netI     0.0308
_diffrn_reflns_Laue_measured_fraction_full 0.989
_diffrn_reflns_Laue_measured_fraction_max 0.988
_diffrn_reflns_limit_h_max       10
_diffrn_reflns_limit_h_min       -9
_diffrn_reflns_limit_k_max       14
_diffrn_reflns_limit_k_min       -14
_diffrn_reflns_limit_l_max       16
_diffrn_reflns_limit_l_min       -15
_diffrn_reflns_number            14924
_diffrn_reflns_point_group_measured_fraction_full 0.989
_diffrn_reflns_point_group_measured_fraction_max 0.988
_diffrn_reflns_theta_full        25.242
_diffrn_reflns_theta_max         29.980
_diffrn_reflns_theta_min         3.580
_exptl_absorpt_coefficient_mu    9.376
_exptl_absorpt_correction_T_max  0.7451
_exptl_absorpt_correction_T_min  0.4461
_exptl_absorpt_correction_type   multi-scan
_exptl_absorpt_process_details   'SADABS (Bruker, 2016)'
_exptl_crystal_colour            yellow
_exptl_crystal_density_diffrn    2.308
_exptl_crystal_description       BLOCK
_exptl_crystal_F_000             552
_exptl_crystal_size_max          0.200
_exptl_crystal_size_mid          0.150
_exptl_crystal_size_min          0.100
_refine_diff_density_max         0.681
_refine_diff_density_min         -0.928
_refine_diff_density_rms         0.156
_refine_ls_extinction_coef       0.0376(16)
_refine_ls_extinction_expression Fc^*^=kFc[1+0.001xFc^2^\l^3^/sin(2\q)]^-1/4^
_refine_ls_extinction_method     'SHELXL-2018/3 (Sheldrick 2018)'
_refine_ls_goodness_of_fit_ref   1.278
_refine_ls_hydrogen_treatment    mixed
_refine_ls_matrix_type           full
_refine_ls_number_parameters     112
_refine_ls_number_reflns         2426
_refine_ls_number_restraints     1
_refine_ls_restrained_S_all      1.278
_refine_ls_R_factor_all          0.0354
_refine_ls_R_factor_gt           0.0271
_refine_ls_shift/su_max          0.000
_refine_ls_shift/su_mean         0.000
_refine_ls_structure_factor_coef Fsqd
_refine_ls_weighting_details
'w=1/[\s^2^(Fo^2^)+(0.0120P)^2^+1.5569P] where P=(Fo^2^+2Fc^2^)/3'
_refine_ls_weighting_scheme      calc
_refine_ls_wR_factor_gt          0.0644
_refine_ls_wR_factor_ref         0.0710
_reflns_Friedel_coverage         0.000
_reflns_number_gt                1944
_reflns_number_total             2426
_reflns_threshold_expression     'I > 2\s(I)'
_cod_data_source_file            sc0c07409_si_002.cif
_cod_data_source_block           shelx
_cod_original_sg_symbol_H-M      'P 21/n'
_cod_database_code               4518427
_shelx_shelxl_version_number     2018/3
_shelx_space_group_comment
;
The symmetry employed for this shelxl refinement is uniquely defined
by the following loop, which should always be used as a source of
symmetry information in preference to the above space-group names.
They are only intended as comments.
;
_shelx_estimated_absorpt_t_min   0.256
_shelx_estimated_absorpt_t_max   0.454
_shelx_res_file
;
TITL shelxt_a.res in P2(1)/n
    shelx.res
    created by SHELXL-2018/3 at 12:12:33 on 09-Mar-2020
CELL  0.71073   7.2567  10.5163  11.4436   90.000  105.095   90.000
ZERR     2.00   0.0018   0.0037   0.0036    0.000    0.014    0.000
LATT   1
SYMM  1/2 - X, 1/2 + Y, 1/2 - Z
SFAC  C    H    N    O    AU   CL
UNIT  24 22 4 8 2 8
MERG   2
OMIT    -3.00  60.00
OMIT    -1   0   1
OMIT     1   1   0
EQIV $2 x+1/2, -y+1/2, z+1/2
HTAB C3 Cl1_$2
EQIV $3 -x+1, -y, -z+1
HTAB C4 Cl1_$3
EQIV $4 -x+1, -y, -z
HTAB O2 O1_$4
HTAB O2 O2_$4
HTAB N1 O1_$2
DFIX 0.86 0.02 N1 H1
FMAP   2
PLAN   20
SIZE     0.100   0.150   0.200
ACTA
BOND   $H
CONF
L.S.  10
TEMP    20.00
WGHT    0.012000    1.556900
EXTI    0.037612
FVAR       0.60061
AU1   5    0.500000    0.500000    0.500000    10.50000    0.03605    0.02700 =
         0.02641    0.00135    0.00798    0.00149
CL1   6    0.394598    0.340934    0.363508    11.00000    0.07832    0.03701 =
         0.03702   -0.00763    0.00580   -0.00456
CL2   6    0.389905    0.645599    0.349188    11.00000    0.06170    0.03869 =
         0.03754    0.01223    0.00610    0.00565
C1    1    0.685474    0.065638    0.303139    11.00000    0.03264    0.03194 =
         0.02741   -0.00249    0.00415    0.00203
C2    1    0.783010    0.165992    0.371217    11.00000    0.04243    0.03099 =
         0.03883   -0.00274    0.00125   -0.00035
AFIX  43
H2    2    0.805504    0.240623    0.333565    11.00000   -1.20000
AFIX   0
C3    1    0.811042    0.050634    0.550985    11.00000    0.05276    0.06467 =
         0.02464   -0.00659    0.00519    0.01156
AFIX  43
H3    2    0.853016    0.047350    0.634956    11.00000   -1.20000
AFIX   0
C4    1    0.714666   -0.050656    0.487300    11.00000    0.05935    0.04690 =
         0.03635    0.00804    0.01720    0.00403
AFIX  43
H4    2    0.691808   -0.123248    0.527781    11.00000   -1.20000
AFIX   0
C5    1    0.651991   -0.043726    0.362571    11.00000    0.04369    0.03209 =
         0.03651   -0.00193    0.01063   -0.00251
AFIX  43
H5    2    0.587641   -0.112034    0.318600    11.00000   -1.20000
AFIX   0
C6    1    0.613714    0.082730    0.169149    11.00000    0.03618    0.03807 =
         0.02733    0.00019    0.00220    0.00466
N1    3    0.844008    0.153898    0.491357    11.00000    0.04410    0.04497 =
         0.03582   -0.01490   -0.00307    0.00358
O1    4    0.600732    0.191772    0.127609    11.00000    0.05642    0.03972 =
         0.03992    0.00841   -0.00042    0.00407
O2    4    0.570847   -0.019507    0.108246    11.00000    0.06640    0.04483 =
         0.02837   -0.00408   -0.00536    0.00192

H     2    0.500000    0.000000    0.000000    10.50000    0.09946
H1    2    0.917194    0.212766    0.532970    11.00000    0.06750
HKLF    4




REM  shelxt_a.res in P2(1)/n
REM wR2 = 0.0710, GooF = S = 1.278, Restrained GooF = 1.278 for all data
REM R1 = 0.0271 for 1944 Fo > 4sig(Fo) and 0.0354 for all 2426 data
REM 112 parameters refined using 1 restraints

END

WGHT      0.0120      1.5568

REM Highest difference peak  0.681,  deepest hole -0.928,  1-sigma level  0.156
Q1    1   0.4501  0.4379  0.5031  11.00000  0.05    0.68
Q2    1   0.4541  0.5638  0.5102  11.00000  0.05    0.67
Q3    1   0.4190  0.5846  0.4194  11.00000  0.05    0.66
Q4    1   0.3533  0.5872  0.3379  11.00000  0.05    0.61
Q5    1   0.4295  0.5010  0.4508  11.00000  0.05    0.61
Q6    1   0.3754  0.2799  0.3613  11.00000  0.05    0.59
Q7    1   0.3478  0.6463  0.3778  11.00000  0.05    0.58
Q8    1   0.3879  0.6774  0.3401  11.00000  0.05    0.57
Q9    1   0.4813 -0.1965  0.4790  11.00000  0.05    0.55
Q10   1   0.3572  0.3636  0.3637  11.00000  0.05    0.55
Q11   1   0.3988  0.4208  0.4514  11.00000  0.05    0.55
Q12   1   0.4766  0.2678  0.4791  11.00000  0.05    0.54
Q13   1   0.4388  0.6037  0.3405  11.00000  0.05    0.53
Q14   1   0.4258  0.4211  0.4058  11.00000  0.05    0.52
Q15   1   0.4586  0.3623  0.3570  11.00000  0.05    0.51
Q16   1   0.4745  0.6252  0.3556  11.00000  0.05    0.49
Q17   1   0.4301  0.3260  0.4213  11.00000  0.05    0.48
Q18   1   0.8921  0.1844  0.6535  11.00000  0.05    0.47
Q19   1   1.0031  0.1717  0.3451  11.00000  0.05    0.43
Q20   1   0.8273 -0.1563  0.4887  11.00000  0.05    0.42
;
_shelx_res_checksum              60232
_shelx_hkl_file
;
   1   0   0    0.50    0.40
   1   0   0   -0.30    0.50
   2   0   0 3353.66  223.48
  -2   0   0 3490.45  223.48
  -3   0   0    1.20    1.80
   3   0   0    0.10    2.00
   3   0   0   -0.60    0.80
  -3   0   0    1.20    0.90
   3   0   0   -1.70    1.50
   4   0   0  241.88   16.00
   4   0   0  215.88   16.00
   4   0   0  220.18   15.40
   4   0   0  238.28   16.80
   5   0   0   -2.30    1.70
   5   0   0   -3.10    2.80
   5   0   0   -3.70    2.60
  -6   0   0  733.13   56.19
   6   0   0  778.62   53.59
   6   0   0  852.61   52.19
   7   0   0    0.80    4.10
   8   0   0  462.35   34.20
   8   0   0  460.75   33.40
   9   0   0    3.50    4.50
  10   0   0  165.28   15.80
  10   0   0  177.18   14.80
  11   0   0    2.70    3.60
  11   0   0    4.40    4.50
   1  -1   0 1432.86   89.39
   1   1   0 1284.27   89.39
  -2  -1   0   18.70    2.30
  -2  -1   0   20.50    3.50
   2  -1   0   17.50    2.40
   2  -1   0   13.20    2.80
   2  -1   0   16.70    2.40
   2  -1   0   20.00    2.10
   2   1   0   20.70    2.70
  -2   1   0   18.60    2.30
  -2   1   0   21.60    3.10
  -2   1   0   20.00    2.50
   2   1   0   16.30    2.30
   3  -1   0 2672.93  196.88
  -3  -1   0 3232.78  196.88
   3  -1   0 2872.81  196.88
   3  -1   0 3133.99  196.68
   3   1   0 3372.16  197.48
  -3   1   0 2820.62  196.68
   3   1   0 3251.67  196.78
   3   1   0 2824.42  196.78
  -3   1   0 2892.11  197.38
   4  -1   0  116.19    8.80
   4  -1   0  100.39    8.50
  -4  -1   0   91.59    9.10
   4  -1   0   98.99    8.00
   4  -1   0  114.19    8.50
  -4  -1   0  111.49    8.60
   4   1   0  103.99    8.20
   4   1   0   96.89    9.40
  -4   1   0  114.29    8.50
  -4   1   0   98.29    8.20
   5  -1   0 1409.76   95.39
   5  -1   0 1436.26   94.59
  -5  -1   0 1403.86   97.69
  -5   1   0 1360.06   94.99
   5   1   0 1372.76   95.49
  -5   1   0 1322.07   96.89
   5   1   0 1340.47   95.09
   5   1   0 1497.35   95.39
   5   1   0 1594.24   96.19
  -5   1   0 1624.14   94.89
   6  -1   0   25.10    6.50
   6  -1   0   30.30    5.40
  -6   1   0   25.70    5.10
   6   1   0   37.70    5.20
   6   1   0   28.70    5.50
   6   1   0   30.10    5.40
   7  -1   0  772.02   54.59
   7   1   0  770.72   55.09
   7   1   0  898.41   53.49
   7   1   0  745.23   54.39
   8  -1   0    5.00    5.10
   8   1   0   -0.70    4.60
   8   1   0    4.50    5.10
   9  -1   0  239.88   20.20
   9   1   0  250.77   19.40
   9   1   0  213.68   26.30
  10   1   0    0.80    3.10
  10   1   0    2.90    3.60
  11  -1   0   54.69    7.10
  11  -1   0   52.49    6.90
  11   1   0   61.79    6.80
  11   1   0   63.69    7.10
   0  -2   0 2814.92  185.48
   0   2   0 3122.59  185.58
   0   2   0 2553.84  185.48
  -1  -2   0  709.13   52.69
  -1  -2   0  880.81   51.69
   1  -2   0  845.52   51.39
   1  -2   0  733.33   51.99
   1   2   0  798.12   51.89
   1   2   0  790.72   51.59
  -1   2   0  788.72   51.69
  -1   2   0  734.03   51.39
   2  -2   0 3253.37  209.58
  -2  -2   0 3418.76  209.68
  -2  -2   0 3615.04  209.98
  -2  -2   0 2860.51  210.68
  -2   2   0 2891.81  210.48
   3  -2   0   13.50    2.50
   3  -2   0   11.00    2.30
  -3  -2   0   14.60    2.80
   3  -2   0    6.80    2.50
  -3  -2   0   22.20    6.30
   3   2   0    9.10    2.30
  -3   2   0   11.00    2.50
  -3   2   0   17.80    5.30
   3   2   0   12.40    2.90
  -4  -2   0 3557.64  216.48
   4  -2   0 3617.04  216.28
   4  -2   0 2863.71  216.48
   4  -2   0 3058.79  216.88
   4  -2   0 3453.75  216.28
  -4  -2   0 3340.57  218.78
   4   2   0 2780.12  216.48
  -4   2   0 3561.04  217.28
   4   2   0 3771.02  217.58
  -4   2   0 2956.70  216.18
   4   2   0 3378.66  216.28
   5  -2   0    7.00    2.90
   5  -2   0    6.50    2.70
   5  -2   0    9.70    3.50
   5   2   0    7.20    3.30
   5   2   0    3.70    2.70
  -5   2   0    5.90    1.90
  -5   2   0    4.80    2.70
   6  -2   0 1547.15  100.39
  -6  -2   0 1405.26  104.09
   6  -2   0 1749.62  100.89
   6  -2   0 1408.36  100.89
   6   2   0 1447.56  101.19
   6   2   0 1706.03  101.59
  -6   2   0 1415.26  102.79
  -6   2   0 1671.63  100.69
  -6   2   0 1378.96  100.59
   6   2   0 1421.96  100.69
   7  -2   0    9.10    5.20
   7   2   0   -3.10    4.00
   7   2   0   -3.50    4.00
   7   2   0   -2.00    3.40
   8  -2   0  251.87   20.70
   8   2   0  256.47   21.40
   8   2   0  272.77   20.60
   9   2   0    1.40    4.10
  10  -2   0   97.19   10.20
  10   2   0  110.79   11.50
  10   2   0  113.39   10.30
  11  -2   0   -1.90    3.60
  11  -2   0   -0.60    4.50
  11   2   0    1.60    3.60
  11   2   0    4.70    4.60
   0  -3   0   15.70    3.90
   0  -3   0   20.20    2.70
   0  -3   0   16.90    4.00
   0  -3   0   20.20    3.00
   0   3   0   16.80    3.40
   0   3   0   21.50    3.80
   0   3   0   16.40    3.60
  -1  -3   0  368.56   29.20
  -1  -3   0  451.35   28.00
   1  -3   0  413.36   28.70
   1  -3   0  462.65   28.40
  -1  -3   0  352.86   28.60
   1   3   0  433.26   28.00
  -1   3   0  381.06   29.20
   1   3   0  431.56   28.40
   1   3   0  379.36   29.00
  -1   3   0  461.55   27.80
  -1   3   0  441.76   28.10
  -1   3   0  431.76   28.40
  -2  -3   0   14.20    4.70
  -2  -3   0   20.20    3.20
  -2  -3   0   17.50    2.50
  -2  -3   0   18.10    3.10
   2  -3   0   19.90    2.50
   2  -3   0   16.20    2.00
   2   3   0   16.90    2.70
  -2   3   0   20.40    2.10
   2   3   0   14.50    3.10
  -2   3   0   21.70    2.90
   2   3   0   14.60    3.10
   3  -3   0 6152.78  383.36
  -3  -3   0 5356.76  384.96
  -3  -3   0 6538.95  383.86
  -3  -3   0 6242.38  383.36
   3   3   0 5463.05  383.66
  -3   3   0 5466.25  384.76
   4  -3   0    7.00    3.20
   4  -3   0    4.80    1.80
   4  -3   0    1.40    3.10
  -4  -3   0    7.20    2.80
   4  -3   0    2.20    1.40
  -4   3   0    4.60    3.30
   4   3   0    4.20    2.80
   4   3   0    3.20    2.40
   4   3   0    0.50    3.30
  -4   3   0    3.60    1.40
   4   3   0    1.40    3.30
   5  -3   0 2843.72  167.68
  -5  -3   0 2673.23  171.58
   5  -3   0 2363.26  168.38
   5  -3   0 2687.13  169.08
   5   3   0 2513.25  167.98
   5   3   0 2210.38  168.28
  -5   3   0 2515.95  169.58
  -5   3   0 2926.71  169.48
  -5   3   0 2263.87  167.78
   6  -3   0   15.10    4.90
   6  -3   0   23.10    6.70
   6  -3   0   10.40    2.90
  -6   3   0   12.50    3.50
   6   3   0   18.00    4.70
   6   3   0    9.90    4.60
  -6   3   0   20.60    5.10
   6   3   0    7.80    3.60
   7  -3   0  602.84   44.90
   7  -3   0  637.14   44.20
  -7   3   0  638.74   44.50
   7   3   0  703.63   45.60
   7   3   0  623.64   45.20
   7   3   0  622.14   44.40
  -7   3   0  668.53   44.70
   8  -3   0    0.60    5.20
   8   3   0   -2.40    4.50
   8   3   0    2.80    4.60
   9  -3   0  136.99   12.90
   9   3   0  131.69   13.40
   9   3   0  138.99   12.60
  10  -3   0    6.30    3.70
  10   3   0   -0.80    3.30
  10   3   0    3.40    3.70
  11  -3   0   36.40    6.40
  11  -3   0   31.10    6.50
   0  -4   0 1332.07   82.19
   0  -4   0 1334.07   81.59
   0  -4   0 1188.68   82.79
   0   4   0 1161.28   82.49
   0   4   0 1154.48   81.99
  -1  -4   0  405.16   25.10
  -1  -4   0  331.07   26.00
  -1  -4   0  342.07   26.80
   1  -4   0  347.57   26.00
   1  -4   0  393.96   25.60
  -1  -4   0  414.66   25.70
  -1   4   0  357.16   25.70
   1   4   0  369.76   25.10
  -1   4   0  380.76   26.70
   1   4   0  373.26   26.00
   1   4   0  351.16   25.60
  -1   4   0  344.87   25.00
   2  -4   0 3777.22  237.38
   2  -4   0 3886.71  237.88
  -2  -4   0 3323.27  239.38
  -2  -4   0 3902.51  237.38
  -2  -4   0 3969.60  237.98
  -2   4   0 3632.24  239.28
   2   4   0 3465.75  237.38
   2   4   0 3245.08  237.88
   2   4   0 3477.65  237.88
  -2   4   0 3614.84  237.48
   3  -4   0   73.69   10.20
  -3  -4   0   73.89    6.80
   3  -4   0   80.49    6.10
  -3  -4   0   89.69    7.60
  -3  -4   0   81.69    6.90
   3  -4   0   81.19    6.90
  -3   4   0   79.19    7.40
  -3   4   0   87.49    9.90
   3   4   0   78.69    7.00
   3   4   0   73.89    7.70
  -3   4   0   88.89    6.50
  -3   4   0   82.29    7.10
  -4  -4   0 4032.20  248.78
   4  -4   0 3843.32  248.58
   4  -4   0 3963.60  248.08
  -4  -4   0 4127.39  251.67
   4   4   0 3505.75  249.18
  -4   4   0 3567.04  248.38
   4   4   0 3603.44  248.58
  -4   4   0 3987.10  250.87
  -4   4   0 3546.55  248.58
   5  -4   0    2.50    1.90
   5  -4   0    2.90    3.60
   5  -4   0    6.60    4.00
   5   4   0    3.00    3.00
   5   4   0    1.90    3.40
  -5   4   0    3.40    3.60
   5   4   0    4.90    4.80
  -5   4   0    6.10    1.90
   6  -4   0 1225.68   76.29
   6  -4   0 1065.99   77.49
   6  -4   0 1210.88   78.19
  -6   4   0 1180.48   78.59
   6   4   0 1137.09   76.99
  -6   4   0 1097.19   76.99
   6   4   0 1137.09   77.79
   7  -4   0    7.20    4.90
   7  -4   0    6.20    5.60
   7   4   0    5.80    4.20
   7   4   0    2.40    4.30
  -7   4   0    5.80    2.70
   8  -4   0  259.77   16.90
   8  -4   0  205.48   18.90
   8   4   0  198.08   19.10
   8   4   0  221.28   18.00
   9  -4   0   13.90    4.20
   9   4   0    7.20    4.40
  10  -4   0   85.69    9.00
  10   4   0   89.09    8.50
  10   4   0   78.29    9.40
  11  -4   0   -1.40    5.10
  11   4   0   10.50    5.10
  11   4   0    6.60    4.30
   0  -5   0   -0.20    3.90
   0  -5   0    0.40    2.40
   0  -5   0    1.40    2.10
   0  -5   0    2.70    4.60
   0   5   0    0.40    2.70
   0   5   0    0.80    3.20
   1  -5   0 2909.91  190.38
  -1  -5   0 2580.84  190.18
  -1  -5   0 2808.12  191.28
  -1  -5   0 3156.48  189.88
   1  -5   0 3178.28  189.88
  -1  -5   0 3154.38  189.08
   1   5   0 2617.84  189.58
  -1   5   0 3007.00  190.98
   1   5   0 2795.72  188.98
   1   5   0 2986.00  190.28
  -1   5   0 2755.22  189.78
  -1   5   0 2642.84  188.98
  -2  -5   0   11.30    2.90
  -2  -5   0   12.30    4.20
  -2  -5   0   18.80    3.40
   2  -5   0   18.40    3.50
   2  -5   0    4.70    6.80
  -2   5   0    7.60    4.60
   2   5   0   11.60    3.10
   2   5   0   10.90    3.40
  -2   5   0   20.30    3.90
   2   5   0    6.30    4.30
   2   5   0    8.90    3.10
  -3  -5   0 2144.29  141.99
   3  -5   0 2249.87  142.09
   3  -5   0 1847.72  143.19
  -3  -5   0 2131.19  144.29
  -3  -5   0 2063.19  141.59
   3  -5   0 2261.07  141.39
  -3  -5   0 2323.87  141.49
   3   5   0 2102.89  141.39
  -3   5   0 2124.19  141.49
  -3   5   0 2211.68  143.89
  -3   5   0 2058.89  140.69
  -3   5   0 2289.77  141.99
   3   5   0 2226.18  141.89
   3   5   0 2068.09  142.09
  -4  -5   0   19.10    3.10
  -4  -5   0   13.30    3.60
   4  -5   0    9.50    3.70
   4  -5   0   13.20    3.00
   4   5   0   12.20    5.20
   4   5   0   14.40    3.70
  -4   5   0   12.50    2.80
  -4   5   0   13.80    3.50
   4   5   0   15.40    3.70
  -4   5   0   11.20    4.50
   4   5   0    6.50    3.10
  -4   5   0   17.30    3.90
   5  -5   0 1601.94   97.99
   5  -5   0 1440.96  100.89
   5   5   0 1375.46   99.59
  -5   5   0 1516.85   99.09
   5   5   0 1517.55   98.99
   6  -5   0   -4.30    4.00
   6  -5   0    0.50    1.70
   6   5   0   -2.90    3.50
   6   5   0    1.10    3.30
  -6   5   0    0.10    1.90
   7  -5   0  539.75   35.00
   7  -5   0  437.46   34.90
  -7   5   0  491.45   34.40
   7   5   0  441.86   34.90
   7   5   0  488.55   34.10
   8  -5   0   -0.70    5.10
   8   5   0   -0.40    4.30
   8   5   0   -0.20    4.30
  -8   5   0    1.40    2.60
   9  -5   0  181.08   15.70
   9   5   0  166.78   15.70
   9   5   0  177.98   19.40
  10   5   0    9.40    3.50
  10   5   0    5.50    3.90
  11  -5   0   25.10    6.80
  11   5   0   26.60    6.60
   0  -6   0 8086.79  485.65
   0  -6   0 8456.35  486.55
   0  -6   0 6740.43  488.75
   0   6   0 7175.88  486.85
   0   6   0 6677.23  486.15
  -1  -6   0   17.60    5.50
  -1  -6   0   17.10    3.70
  -1  -6   0    7.40    4.20
   1  -6   0   16.90    5.40
   1  -6   0    9.40    3.90
   1  -6   0   24.30    5.00
  -1  -6   0   18.50    4.80
  -1   6   0   23.00    5.50
  -1   6   0    8.70    3.30
  -1   6   0    9.20    3.90
   1   6   0   18.80    6.10
  -1   6   0   11.00    2.60
   1   6   0   18.00    5.70
   2  -6   0 3543.05  225.38
  -2  -6   0 2876.81  225.38
   2  -6   0 2936.71  226.28
  -2  -6   0 3669.13  225.48
  -2  -6   0 3722.13  227.78
  -2  -6   0 3856.11  224.68
  -2   6   0 3387.86  224.68
  -2   6   0 3529.95  227.08
   2   6   0 3609.24  225.88
   2   6   0 3189.08  225.28
   2   6   0 3235.18  224.48
  -2   6   0 3542.55  223.98
  -3  -6   0   47.10    5.40
   3  -6   0   45.80    7.90
  -3  -6   0   31.30    8.10
   3  -6   0   53.39    7.00
  -3   6   0   54.69    5.60
   3   6   0   40.40    7.00
   3   6   0   48.20    5.70
  -3   6   0   59.69    7.20
  -3   6   0   52.19    4.50
   3   6   0   36.20    6.20
  -4  -6   0  761.32   50.39
   4  -6   0  691.43   52.89
   4   6   0  850.81   50.89
  -4   6   0  800.82   50.39
   4   6   0  703.73   51.39
   4   6   0  708.83   50.49
  -4   6   0  726.43   49.70
  -4   6   0  741.53   50.69
   5   6   0   -5.10    3.10
   5   6   0   -1.60    2.90
  -5   6   0   -0.70    1.80
   6  -6   0  396.86   25.50
   6  -6   0  372.26   29.00
   6  -6   0  350.86   28.20
   6   6   0  380.56   26.90
   6   6   0  368.56   28.10
  -6   6   0  381.06   27.10
   7  -6   0    2.50    5.40
   7  -6   0   -1.20    2.30
  -7   6   0    3.20    2.60
   7   6   0    0.70    4.30
   7   6   0   -0.50    4.20
   8  -6   0  369.16   25.60
   8   6   0  339.67   25.40
  -8   6   0  348.67   25.70
   8   6   0  288.57   29.80
   9  -6   0   13.40    4.50
   9  -6   0    5.30    5.20
   9   6   0   16.90    4.30
  10  -6   0   78.69    8.40
  10   6   0   89.29    7.80
  10   6   0   78.49    8.70
   0  -7   0    2.80    3.70
   0  -7   0    4.80    3.30
   0   7   0    7.40    4.40
   0   7   0   -0.80    3.60
   1  -7   0 4063.99  303.17
  -1  -7   0 4527.35  303.07
  -1  -7   0 5009.00  304.37
  -1   7   0 4544.95  302.47
  -1   7   0 4269.57  301.27
   1   7   0 5258.17  303.37
   1   7   0 4521.85  302.47
   2  -7   0  247.78   21.10
  -2  -7   0  250.17   20.60
  -2  -7   0  263.07   22.10
  -2  -7   0  288.67   19.00
   2   7   0  270.17   20.60
  -2   7   0  240.68   20.30
  -2   7   0  272.27   18.30
  -2   7   0  260.87   19.00
   2   7   0  253.77   19.00
   2   7   0  232.08   19.70
  -3  -7   0  523.35   39.40
   3  -7   0  520.05   40.50
  -3  -7   0  536.35   37.80
   3   7   0  604.74   39.30
   3   7   0  568.74   38.00
  -3   7   0  541.15   38.00
  -3   7   0  568.54   36.90
   3   7   0  513.85   38.90
  -3   7   0  591.54   39.80
   4  -7   0   -1.50    3.80
  -4  -7   0   -1.00    2.90
   4   7   0   -2.70    3.10
   4   7   0   -3.20    2.90
  -4   7   0    3.80    1.90
   4   7   0   -0.40    2.80
  -4   7   0    4.00    1.80
  -4   7   0    4.30    3.40
   5  -7   0  493.05   34.80
   5   7   0  417.46   32.60
   5   7   0  439.36   31.40
  -5   7   0  444.86   31.70
   6  -7   0   -5.60    5.40
   6   7   0    5.00    4.60
  -6   7   0   -0.50    2.30
   7  -7   0  418.46   31.40
   7  -7   0  391.06   30.70
  -7   7   0  418.86   29.70
   7   7   0  390.16   29.10
   7   7   0  387.56   30.60
   8  -7   0    5.20    3.80
   8  -7   0    1.70    3.30
   8   7   0    8.00    5.00
   8   7   0   -2.80    3.00
   9  -7   0  218.68   17.10
   9  -7   0  180.58   16.40
  -9   7   0  194.38   16.10
   9   7   0  194.58   15.20
   9   7   0  170.28   16.40
  10   7   0   21.20    5.40
  10   7   0   23.70    6.50
   0  -8   0 1442.86   91.29
   0  -8   0 1375.66   93.19
   0   8   0 1273.57   92.09
   1  -8   0    2.60    3.90
  -1  -8   0   -3.60    3.20
  -1  -8   0    1.00    3.80
  -1   8   0    1.10    1.60
  -1   8   0   -2.40    2.30
  -2  -8   0 2588.54  146.69
   2  -8   0 2088.79  147.29
  -2  -8   0 2254.27  146.39
   2   8   0 2050.49  145.69
  -2   8   0 1941.71  146.29
  -2   8   0 2147.09  144.69
  -2   8   0 2247.38  143.99
   3  -8   0   18.60    6.30
  -3   8   0   21.80    4.50
   3   8   0   23.90    4.50
  -3   8   0   18.70    3.60
   3   8   0   24.00    7.40
   3   8   0   15.30    4.50
   4  -8   0 1063.69   73.99
  -4  -8   0  953.50   72.49
  -4   8   0 1038.60   68.99
   4   8   0 1084.59   70.69
   4   8   0 1087.69   71.49
  -4   8   0 1033.60   70.89
   4   8   0 1000.40   71.79
  -4   8   0 1127.69   71.39
  -5  -8   0   -0.40    2.60
   5   8   0   -2.00    3.40
   5   8   0   -1.70    4.10
  -5   8   0    0.10    2.10
   6  -8   0  482.55   36.30
  -6   8   0  468.65   32.90
   6   8   0  456.45   32.40
   6   8   0  411.66   33.80
   7  -8   0    8.20    5.10
  -7   8   0   10.30    3.10
   7   8   0    4.20    4.30
   7   8   0    9.60    4.40
   8  -8   0  224.28   19.10
   8  -8   0  225.98   19.00
  -8   8   0  230.28   18.20
   8   8   0  233.68   17.70
   8   8   0  207.68   19.00
   9  -8   0   -3.30    4.50
   9  -8   0   -5.90    4.70
  -9   8   0   -1.20    2.30
   9   8   0    6.40    3.50
   9   8   0    6.40    3.80
  10  -8   0   36.80    7.50
  10   8   0   36.90    6.60
   0  -9   0    6.60    5.50
   1  -9   0  789.22   55.29
  -1  -9   0  813.52   54.89
  -1   9   0  781.72   52.09
   1   9   0  710.73   53.19
  -1   9   0  711.63   53.19
   2  -9   0   43.80   10.10
  -2  -9   0   60.39    8.70
  -2   9   0   50.29    6.60
  -2   9   0   46.00    6.20
   2   9   0   45.90    7.80
  -3  -9   0 1411.66   89.79
   3  -9   0 1321.27   91.39
  -3   9   0 1307.67   86.79
  -3   9   0 1289.97   88.29
   3   9   0 1307.87   88.09
   3   9   0 1250.47   89.39
   4  -9   0   -3.10    4.40
  -4   9   0    1.80    2.00
   4   9   0   -1.90    4.60
   4   9   0  -15.30   12.10
  -4   9   0   -1.90    6.00
   4   9   0    4.20    3.60
   5  -9   0 1047.20   70.59
  -5  -9   0  978.00   66.49
  -5   9   0  926.21   66.69
   5   9   0  952.70   67.99
   5   9   0  983.90   66.39
   6  -9   0   -2.00    4.50
   6   9   0    4.50    4.80
   6   9   0    5.90    4.50
  -6   9   0    2.90    2.40
   7  -9   0  319.87   25.00
   7  -9   0  257.87   22.30
  -7   9   0  282.77   21.90
   7   9   0  245.38   22.30
   7   9   0  271.57   20.90
   8  -9   0    0.50    4.10
   8   9   0   -1.00    3.40
  -8   9   0   -3.60    2.10
   8   9   0    3.40    6.40
   9  -9   0   25.90    5.60
   9  -9   0   44.80    7.00
  -9   9   0   40.30    6.40
  10   9   0   35.60    7.60
   0 -10   0  160.58   16.80
   0  10   0  148.79   14.40
   1 -10   0  163.18   17.70
  -1 -10   0  173.88   17.70
  -1  10   0  158.38   13.90
   1  10   0  157.08   15.50
  -1  10   0  155.28   15.50
  -1  10   0  198.38   13.40
  -2 -10   0 1360.16   91.09
   2 -10   0 1375.26   92.29
  -2  10   0 1330.17   88.09
   2  10   0 1229.28   90.19
  -2  10   0 1309.17   88.89
   3 -10   0   68.69   12.30
  -3 -10   0   41.80    7.40
   3  10   0   42.70    9.40
  -3  10   0   49.70    6.20
  -3  10   0   48.00    6.90
   4 -10   0 1182.68   79.49
  -4 -10   0 1150.38   76.09
   4  10   0 1016.10   76.79
   4  10   0 1127.59   75.19
  -4  10   0 1074.09   75.59
   5 -10   0    1.70    5.20
   5  10   0    2.70    4.50
  -5  10   0    2.10    2.40
   5  10   0    5.20    4.20
   6 -10   0  326.67   28.00
   6  10   0  302.87   23.20
  -6  10   0  301.97   24.10
   7  10   0   11.40    3.70
   8 -10   0  106.79   10.70
   8 -10   0   83.29   11.50
   8  10   0  120.69   11.10
   9  10   0   33.30    6.80
   9  10   0   38.00    7.10
   0  11   0    0.60    1.80
   0  11   0   -6.60    3.90
   1 -11   0  542.85   42.50
  -1 -11   0  568.74   41.90
  -1  11   0  523.35   40.90
  -1  11   0  597.84   38.50
   1  11   0  528.75   40.60
  -1  11   0  548.95   39.10
   2 -11   0    2.30    5.90
  -2 -11   0   -3.30    3.40
  -2  11   0   -0.50    2.50
  -2  11   0    2.90    1.90
   2  11   0   -1.60    4.30
  -3 -11   0  826.42   53.09
   3 -11   0  833.92   55.59
   3  11   0  644.34   52.49
  -3  11   0  699.53   49.40
  -3  11   0  675.83   51.09
   4 -11   0    2.10    6.10
  -4  11   0   -1.80    2.30
   4  11   0    1.40    4.60
  -5 -11   0  480.45   36.40
  -5  11   0  522.75   37.40
   5  11   0  497.25   39.40
   5  11   0  554.84   37.00
   6  11   0   -0.70    3.20
   6  11   0    7.90    3.50
  -6  11   0   -1.90    2.80
   7 -11   0  114.59   11.90
   7 -11   0  136.79   14.50
   7  11   0  121.39   12.50
  -7  11   0  112.19   11.20
   7  11   0  135.79   13.30
   8  11   0   11.40    4.10
   0 -12   0 1033.80   74.79
   0  12   0 1079.39   71.79
   0  12   0 1039.10   73.59
   1 -12   0   -4.00    5.40
  -1 -12   0   -1.20    5.70
   1  12   0   -5.00    4.20
  -1  12   0   -2.30    4.40
  -1  12   0   -3.40    2.70
  -2 -12   0  687.13   49.90
   2 -12   0  662.73   50.79
   2  12   0  638.24   48.90
  -2  12   0  663.33   47.30
  -2  12   0  702.13   45.80
   3 -12   0   11.00    7.60
  -3  12   0   -2.10    2.30
   3  12   0   -5.80    4.20
  -4 -12   0  253.07   21.10
   4 -12   0  284.57   27.50
  -4  12   0  242.28   20.80
   5 -12   0   -5.30    4.10
   5  12   0    1.10    3.30
   6 -12   0  126.09   13.50
   6  12   0  105.09   11.40
  -6  12   0   77.59    9.90
   7  12   0   24.60    6.50
   7  12   0   29.90    5.90
   8 -12   0   30.60    6.60
   8 -12   0   35.40    7.20
   0 -13   0    2.00    7.50
   0  13   0    1.10    4.10
   0  13   0    1.50    2.80
   1 -13   0  942.91   66.69
  -1 -13   0  950.30   66.39
  -1  13   0  878.61   64.69
  -1  13   0  936.51   61.89
   1  13   0  831.52   64.19
  -1  13   0  916.51   62.89
  -2 -13   0   22.50    7.00
   2 -13   0   50.09   12.60
  -2  13   0   30.20    7.90
   2  13   0   19.10    7.40
  -2  13   0   37.30    4.50
  -3 -13   0  162.88   17.40
  -3  13   0  197.58   16.30
   3  13   0  179.08   17.30
   4 -13   0   10.80    5.40
   4  13   0    5.50    3.60
   5 -13   0  103.89   12.30
   5  13   0   72.49   10.10
   6  13   0   -0.40    4.10
   7 -13   0   55.19    8.50
   7 -13   0   55.19   10.70
   0 -14   0  540.75   42.30
   0  14   0  555.24   38.10
   0  14   0  529.35   40.60
   0  14   0  517.95   38.60
   1 -14   0   11.30    5.90
  -1 -14   0    8.00    8.20
  -1  14   0    6.20    4.50
  -1  14   0   14.00    2.90
   1  14   0   23.50    6.30
   2 -14   0  329.17   27.60
  -2 -14   0  300.47   25.20
   2  14   0  285.57   24.70
  -2  14   0  273.67   27.90
   3 -14   0   -5.90    4.50
   3  14   0   -2.60    3.30
   4 -14   0  130.49   15.50
   4  14   0  142.89   13.40
   5  14   0    5.90    4.20
   6 -14   0   89.19   12.20
   6  14   0  114.39   10.50
   7 -14   0   -2.00    6.70
   7 -14   0   -6.00    7.30
   0  15   0    1.60    3.60
   0  15   0   -2.20    2.00
   0  15   0   -1.80    3.40
  -1 -15   0  159.78   16.80
   1 -15   0  176.98   18.10
   1  15   0  175.18   16.00
   1  15   0  170.88   14.40
  -1  15   0  168.38   14.40
   2 -15   0    3.60    5.00
   2  15   0    1.80    3.50
  -2  15   0   -2.70    2.00
   3 -15   0  224.38   20.70
  -3 -15   0  183.88   17.80
  -3  15   0  190.28   16.70
   3  15   0  233.38   18.50
   4 -15   0    2.90    4.60
   4  15   0   -0.80    4.30
   5 -15   0   73.09   10.80
   0 -16   0   52.19    9.50
   0  16   0   48.20    8.30
   1  16   0   -2.40    4.20
   1  16   0    3.40    2.50
   2 -16   0  104.89   12.50
   2  16   0  134.79   10.50
  -2  16   0  105.49   10.50
   3 -16   0   -4.50    4.90
   3  16   0    2.50    4.40
   4 -16   0  127.49   15.10
   4  16   0  155.58   13.00
   1 -17   0   40.80    9.40
   1  17   0   35.50    6.50
  -1  17   0   23.40    3.50
   2  17   0    6.70    3.10
  11   0  -1   68.59    8.00
  11   0  -1   85.29    7.70
  10   0  -1   17.50    4.80
   9   0  -1  287.47   22.50
   9   0  -1  283.27   23.70
   8   0  -1   -0.70    4.30
   8   0  -1    4.40    4.90
   7   0  -1  471.45   33.40
   6   0  -1   -1.80    1.60
   6   0  -1   -1.40    3.10
   5   0  -1 1473.55   91.59
   5   0  -1 1538.45   92.89
   5   0  -1 1175.98   92.19
  -5   0   1 1383.96   91.39
  -4   0   1    3.40    3.00
   3   0  -1 5796.52  361.36
  -3   0   1 5564.74  361.06
   3   0  -1 5228.38  360.76
  -2   0   1   14.80    2.70
   2   0  -1   15.00    2.50
   2   0  -1    9.10    1.90
   2   0  -1   11.60    1.80
  -2   0   1   14.40    2.30
   2   0  -1   11.20    1.90
  -2   0   1   12.80    1.90
  -1   0   1    0.00    0.40
   1   0  -1    0.30    0.60
  -1   0   1    0.30    0.50
   2   0   1    0.40    0.70
   2   0   1    0.20    0.90
   2   0   1    1.90    1.50
  -2   0  -1    0.40    0.70
   3   0   1 2195.88  124.99
   3   0   1 1600.74  124.39
   3   0   1 1961.20  124.69
   3   0   1 1837.52  124.59
  -3   0  -1 1777.82  124.39
   3   0   1 2013.70  124.49
   4   0   1   -2.30    2.20
   4   0   1   -0.10    1.40
   4   0   1    0.50    2.40
   4   0   1   -1.10    1.10
  -4   0  -1    1.10    1.60
  -5   0  -1 1346.57   98.59
   5   0   1 1433.06   95.59
   5   0   1 1651.23   97.29
   5   0   1 1401.96   96.59
   6   0   1   -1.30    2.00
  -6   0  -1   -3.30    2.50
   6   0   1    0.40    3.30
   7   0   1 1008.90   68.39
   8   0   1    1.30    4.90
   8   0   1   -1.80    4.50
   9   0   1  201.18   18.60
   9   0   1  216.78   18.80
  11   0   1   40.90    6.10
  11   0   1   35.30    6.60
  11  -1  -1    7.80    4.30
  11  -1  -1   -0.60    3.50
  11   1  -1   11.40    4.30
  11   1  -1    4.40    3.50
  10  -1  -1  116.39   12.90
  10  -1  -1  139.69   12.30
  10   1  -1  115.09   12.80
  10   1  -1  145.39   12.40
   9  -1  -1    3.30    4.40
   9  -1  -1   -3.30    4.20
   9   1  -1    2.90    4.50
   9   1  -1   -3.20    4.50
   8  -1  -1  469.55   34.20
   8   1  -1  474.75   34.80
   8   1  -1  472.55   34.10
   7  -1  -1    5.40    4.10
   7   1  -1    0.10    2.40
   7   1  -1    0.60    3.70
   7   1  -1    1.40    4.20
   6  -1  -1  426.66   28.70
   6  -1  -1  372.16   28.20
   6   1  -1  370.86   28.00
  -6   1   1  433.86   27.40
   6   1  -1  384.36   28.60
   5  -1  -1   42.10    5.20
   5  -1  -1   48.10    6.00
   5   1  -1   42.70    5.30
   5   1  -1   39.60    6.90
   5   1  -1   39.40    5.40
  -5   1   1   48.60    5.60
   5   1  -1   37.60    5.40
  -4  -1   1 1803.02  136.29
   4  -1  -1 2416.96  136.09
   4  -1  -1 1877.21  135.69
   4  -1  -1 2033.10  135.39
   4  -1  -1 2198.28  135.49
  -4  -1   1 2224.28  135.79
   4   1  -1 2184.28  135.49
  -4   1   1 1869.31  135.99
  -4   1   1 1806.32  135.39
  -4   1   1 1976.30  136.09
   4   1  -1 2323.27  136.49
   3  -1  -1  120.09    8.50
   3  -1  -1  131.59    9.00
  -3  -1   1  112.99    8.00
  -3  -1   1  123.49    8.90
   3  -1  -1  104.49    8.80
   3  -1  -1  116.59    8.70
  -3   1   1  108.69    8.60
   3   1  -1  107.29    8.80
  -3   1   1  122.79    9.20
   3   1  -1  124.89    9.40
   3   1  -1  123.59    9.30
  -1  -1   1  288.97   19.20
  -1  -1   1  294.17   19.30
   1   1  -1  284.17   19.60
   1  -1   1   20.30    2.10
   1  -1   1   20.20    2.20
   1  -1   1   20.60    2.50
  -1  -1  -1   24.60    2.20
  -1  -1  -1   23.60    1.90
  -1   1  -1   26.10    2.70
  -1   1  -1   20.50    2.10
   1   1   1   18.80    2.20
  -1   1  -1   24.20    2.00
   1   1   1   20.40    1.90
   2  -1   1 2627.94  167.38
   2  -1   1 2281.47  167.88
  -2  -1  -1 2645.64  167.48
   2  -1   1 2597.24  167.48
   2   1   1 2371.86  167.58
   2   1   1 2693.33  168.98
   2   1   1 2612.44  167.48
  -2   1  -1 2346.47  167.48
  -2   1  -1 2882.31  167.88
   3  -1   1   71.19    5.80
   3  -1   1   67.09    5.50
   3  -1   1   75.49    4.90
   3  -1   1   65.69    6.00
  -3  -1  -1   73.59    5.80
  -3   1  -1   67.29    6.00
   3   1   1   71.39    5.10
   3   1   1   55.19    6.30
   3   1   1   69.29    5.80
   3   1   1   64.49    5.60
  -3   1  -1   60.39    5.60
  -4  -1  -1 1202.28   81.79
   4  -1   1 1115.19   80.09
   4  -1   1 1287.87   79.99
   4  -1   1 1133.09   78.99
   4   1   1 1258.67   79.89
   4   1   1 1396.16   80.99
  -4   1  -1 1145.59   84.19
  -4   1  -1 1136.09   79.99
   5  -1   1   -0.10    1.90
   5  -1   1    1.00    3.00
  -5   1  -1   -2.00    2.00
   5   1   1   -1.00    2.50
  -5   1  -1    2.50    1.70
   5   1   1   -2.40    2.90
   5   1   1   -1.20    3.50
  -6  -1  -1  855.51   63.89
   6  -1   1  835.82   60.79
   6  -1   1 1030.30   61.19
   6  -1   1  967.50   59.89
   6   1   1  908.51   61.39
   6   1   1  859.61   60.59
   6   1   1  913.11   60.79
  -6   1  -1  829.92   63.09
   7  -1   1    9.00    4.60
   7   1   1    2.40    2.60
   7   1   1    5.80    4.40
   7   1   1    3.80    4.20
   8  -1   1  539.25   38.10
   8   1   1  529.95   38.00
   8   1   1  529.25   38.90
   9  -1   1   -3.00    9.00
   9  -1   1   -3.80    3.90
   9   1   1   -1.60    3.60
   9   1   1    8.60    4.10
  10  -1   1  109.99   10.70
  10  -1   1  104.09   11.60
  10   1   1  123.49   11.70
  10   1   1  117.69   10.70
  11  -1   1   -2.70    3.70
  11  -1   1    0.90    5.10
  11   1   1   -4.50    3.70
  11   1   1   -0.10    4.60
  11  -2  -1   56.39    6.50
  11  -2  -1   48.10    7.00
  11   2  -1   50.59    6.90
  11   2  -1   69.29    6.70
  10  -2  -1    3.90    3.70
  10   2  -1    2.90    3.70
  10   2  -1    0.90    3.20
   9  -2  -1  213.18   19.00
   9   2  -1  174.68   22.20
   9   2  -1  221.78   17.40
   8  -2  -1    7.90    5.50
   8   2  -1   -3.50    4.20
   8   2  -1    4.10    4.30
   7  -2  -1  743.23   55.89
   7   2  -1  816.02   55.89
  -7   2   1  855.61   55.19
   7   2  -1  770.82   56.29
   7   2  -1  899.81   55.69
   6  -2  -1   -4.50    2.80
   6  -2  -1   -0.30    3.80
   6  -2  -1    1.20    2.40
  -6   2   1   -0.80    2.90
   6   2  -1   -1.80    3.50
   6   2  -1   -2.00    3.20
   5  -2  -1 2684.73  165.88
   5  -2  -1 2317.37  166.08
  -5   2   1 2687.53  166.78
   5   2  -1 2400.16  166.18
  -5   2   1 2519.75  165.78
   5   2  -1 2525.85  165.98
   4  -2  -1   24.50    3.90
   4  -2  -1   21.70    3.10
   4  -2  -1   17.50    4.10
  -4  -2   1   22.80    3.70
   4  -2  -1   22.40    4.50
   4   2  -1   16.90    3.90
  -4   2   1   21.80    4.70
   4   2  -1   19.10    3.90
   4   2  -1   16.90    4.00
  -3  -2   1 1743.13  107.39
   3  -2  -1 1818.72  107.19
   3  -2  -1 1798.62  107.29
   3  -2  -1 1557.44  107.39
   3  -2  -1 1682.13  107.89
  -3   2   1 1549.84  107.09
   3   2  -1 1451.35  107.19
  -3   2   1 1710.23  107.39
   3   2  -1 1442.56  108.09
   3   2  -1 1667.53  107.59
  -3   2   1 1534.95  106.59
  -2  -2   1 1199.58   72.89
   2  -2  -1 1194.88   72.59
   2  -2  -1 1151.08   73.29
  -2  -2   1 1219.98   72.79
  -2  -2   1 1040.30   72.59
   2  -2  -1 1099.99   72.49
   2   2  -1 1229.08   73.29
  -2   2   1 1004.20   72.49
   2   2  -1  987.70   72.59
  -2   2   1 1047.90   72.59
  -2   2   1  969.20   73.29
   2   2  -1 1113.99   72.89
  -1  -2   1 2389.46  157.88
   1  -2  -1 2363.06  158.08
   1  -2  -1 2396.06  158.08
  -1  -2   1 2504.95  157.58
   1   2  -1 2016.90  158.18
  -1   2   1 2341.67  157.98
   1   2  -1 2492.55  157.58
   1   2  -1 2769.72  157.78
   0  -2   1  525.85   36.00
   0  -2  -1  527.35   36.00
   0  -2  -1  554.74   36.10
   0  -2   1  516.15   36.20
   0   2   1  488.25   36.00
   0   2  -1  537.15   35.60
   0   2  -1  562.34   36.30
   0   2  -1  500.75   36.00
   0   2  -1  598.34   36.30
   0   2   1  589.74   36.10
  -1   2  -1 5163.98  337.57
   2  -2   1  417.46   25.70
   2  -2   1  391.46   26.10
  -2  -2  -1  429.66   26.40
   2  -2   1  326.17   26.80
  -2  -2  -1  402.96   26.00
   2   2   1  362.46   26.30
   2   2   1  407.26   27.20
  -2   2  -1  374.76   26.10
   2   2   1  386.76   25.90
   2   2   1  375.86   26.00
  -2   2  -1  389.96   25.80
  -2   2  -1  402.66   26.90
   3  -2   1 4040.70  261.37
   3  -2   1 3881.81  260.67
  -3  -2  -1 4201.58  260.77
  -3   2  -1 3613.04  260.67
   3   2   1 3948.71  260.67
   3   2   1 4161.68  260.77
   3   2   1 3683.13  260.97
  -3   2  -1 4383.76  261.57
   4  -2   1  205.18   15.50
   4  -2   1  216.68   15.20
  -4  -2  -1  230.08   15.30
  -4  -2  -1  197.88   16.50
   4   2   1  186.98   17.10
   4   2   1  215.18   15.20
  -4   2  -1  238.68   16.00
  -4   2  -1  195.48   15.10
   4   2   1  208.08   15.60
   5  -2   1 1768.12  119.49
  -5  -2  -1 1819.42  121.89
   5  -2   1 1788.32  119.29
   5   2   1 1776.62  119.39
   5   2   1 1861.61  118.99
  -5   2  -1 1766.02  118.89
  -5   2  -1 1826.02  120.79
  -6  -2  -1    3.90    3.60
   6  -2   1   11.50    4.50
   6  -2   1    4.20    3.10
   6  -2   1   10.10    3.30
   6   2   1    7.80    3.50
   6   2   1   10.90    3.90
  -6   2  -1   17.20    4.40
  -6   2  -1    7.70    3.00
   6   2   1   13.80    4.30
   7  -2   1  618.54   43.80
   7  -2   1  677.13   42.60
  -7  -2  -1  593.14   47.50
   7   2   1  706.83   43.70
   7   2   1  642.34   44.30
  -7   2  -1  519.75   47.30
   7   2   1  599.34   43.20
   8  -2   1    3.90    5.00
   8   2   1   -1.90    4.40
   8   2   1   -3.80    4.10
   9  -2   1  172.68   15.10
   9   2   1  164.88   15.60
   9   2   1  172.58   14.60
  10  -2   1   -3.20    3.20
  10  -2   1   10.60    3.80
  10   2   1    3.00    3.10
  11  -2   1   45.40    6.90
  11  -2   1   43.80    6.80
  11   2   1   55.89    7.30
  11   2   1   50.49    6.70
  11  -3  -1   -0.90    4.90
  11   3  -1    8.10    3.70
  11   3  -1    0.20    4.40
  10  -3  -1   80.69    8.30
  10   3  -1   65.89    7.90
  10   3  -1   65.79    8.70
   9  -3  -1   -0.90    5.20
   9   3  -1    5.60    4.50
   9   3  -1    0.00    4.70
   8  -3  -1  413.96   30.40
   8   3  -1  389.46   29.90
   8   3  -1  431.96   31.40
   7  -3  -1    2.30    5.00
   7   3  -1   -1.50    4.20
   7   3  -1   -3.10    3.90
   7   3  -1   -2.00    4.60
   6  -3  -1 2494.35  154.38
   6  -3  -1 2137.89  154.38
   6  -3  -1 2601.74  153.98
  -6   3   1 2270.57  153.98
  -6   3   1 2525.75  155.28
   6   3  -1 2190.68  154.58
   6   3  -1 2127.89  153.98
   5  -3  -1   14.70    4.00
  -5  -3   1    5.70    5.20
   5  -3  -1   11.40    3.90
   5  -3  -1   11.10    3.60
   5   3  -1    6.10    3.00
   5   3  -1    8.20    4.40
  -5   3   1    5.00    3.80
  -5   3   1    9.60    3.50
  -5   3   1   19.10    4.00
   5   3  -1   14.20    3.90
   4  -3  -1 2268.97  161.48
   4  -3  -1 2524.85  162.18
  -4  -3   1 2676.53  161.38
  -4  -3   1 2361.26  163.18
   4  -3  -1 2688.83  161.08
   4  -3  -1 2784.02  161.08
  -4   3   1 2133.69  160.98
   4   3  -1 2311.07  161.48
   4   3  -1 2321.17  161.18
   4   3  -1 2127.69  162.48
  -4   3   1 2435.36  162.78
   4   3  -1 2845.92  162.78
  -4   3   1 2447.76  161.28
   3  -3  -1   21.10    6.70
   3   3  -1   25.30    6.40
  -2  -3   1 1580.14   95.79
   2  -3  -1 1509.25   95.49
   2  -3  -1 1478.55   96.09
  -2  -3   1 1262.67   95.89
   2  -3  -1 1412.86   96.79
   2   3  -1 1583.34   96.49
  -2   3   1 1461.95   95.89
   2   3  -1 1446.56   95.69
   2   3  -1 1452.35   95.99
  -2   3   1 1374.16   95.49
  -2   3   1 1427.26   95.49
   2   3  -1 1483.05   95.89
  -1  -3   1   12.60    3.10
  -1  -3   1   13.70    2.50
   1  -3  -1   13.90    3.80
  -1  -3   1   13.40    2.80
   1  -3  -1   17.90    2.80
  -1   3   1   17.30    3.20
  -1   3   1   16.10    2.30
   1   3  -1   11.20    2.60
   1   3  -1   13.10    3.50
  -1   3   1   13.40    2.90
  -1   3   1   13.40    2.40
   1   3  -1   14.10    3.00
   1   3  -1   11.30    2.80
   0  -3   1 2030.00  123.59
   0  -3  -1 1935.61  123.99
   0  -3   1 1997.50  123.89
   0  -3   1 1687.63  123.89
   0  -3  -1 1809.92  123.19
   0  -3  -1 1926.01  123.79
   0   3  -1 2067.39  124.29
   0   3  -1 1726.63  123.69
   0   3   1 1769.42  123.69
   0   3   1 1859.11  123.79
   1  -3   1   58.79    4.90
   1  -3   1   65.09    5.30
  -1  -3  -1   63.99    5.40
  -1  -3  -1   65.19    5.30
  -1  -3  -1   56.69    4.50
  -1   3  -1   58.39    5.10
   1   3   1   50.59    5.10
   1   3   1   56.69    4.60
   1   3   1   52.69    5.20
   1   3   1   60.09    6.10
  -1   3  -1   57.59    6.30
  -1   3  -1   54.39    5.90
  -2  -3  -1 7291.47  430.06
  -2   3  -1 6455.95  430.96
   2   3   1 6004.80  430.86
   3  -3   1   72.89    5.20
  -3  -3  -1   72.79    5.90
   3  -3   1   74.29    6.10
   3  -3   1   67.09    5.60
  -3   3  -1   71.19    7.90
   3   3   1   65.19    6.60
  -3   3  -1   60.29    6.10
   3   3   1   62.19    5.90
   4  -3   1 5498.75  329.87
  -4  -3  -1 5377.26  330.47
   4  -3   1 5149.28  330.67
  -4  -3  -1 5043.00  332.67
  -4   3  -1 5509.45  331.67
   4   3   1 4829.52  330.27
   4   3   1 4417.86  330.57
  -4   3  -1 4594.54  330.37
   5  -3   1   35.00    4.50
   5  -3   1   29.90    8.00
   5  -3   1   32.70    5.60
  -5  -3  -1   28.60    5.30
   5   3   1   33.60    5.00
   5   3   1   29.30    5.50
  -5   3  -1   27.30    4.50
  -5   3  -1   26.30    6.20
  -5   3  -1   37.10    4.80
   6  -3   1  635.34   45.20
   6  -3   1  744.03   44.30
  -6   3  -1  599.14   44.60
   6   3   1  618.84   45.20
   6   3   1  625.64   44.50
  -6   3  -1  719.53   45.30
  -6   3  -1  622.84   46.20
   7  -3   1    4.20    5.00
   7  -3   1    2.40    1.70
   7   3   1   -4.60    3.80
  -7   3  -1   -1.20    2.50
   8  -3   1  168.58   15.30
   8   3   1  165.98   14.40
   8   3   1  172.28   15.90
   9  -3   1   10.70    4.00
   9   3   1    1.30    3.40
   9   3   1    3.50    3.80
  10  -3   1   92.69    8.70
  10   3   1   81.59    9.10
  10   3   1   90.79    8.50
  11  -3   1    5.00    5.20
  11   3   1   -3.10    5.00
  11   3   1    3.50    4.40
  11  -4  -1   45.80    7.20
  11   4  -1   52.49    6.90
  11   4  -1   65.99    7.00
  10  -4  -1    9.30    4.30
  10   4  -1   19.10    5.00
   9  -4  -1  154.48   13.90
   9   4  -1  150.88   14.50
   9   4  -1  154.98   14.10
   8  -4  -1   -3.90    4.60
   8   4  -1   -4.80    4.40
   8   4  -1   -1.40    4.30
   7  -4  -1  885.81   58.79
   7  -4  -1  802.52   59.89
   7   4  -1  883.11   60.19
   7   4  -1  886.11   59.49
  -7   4   1  900.51   59.49
   6  -4  -1   -1.10    2.30
   6  -4  -1    0.70    4.40
  -6   4   1    8.10    4.90
   6   4  -1   -0.60    3.60
  -6   4   1    4.10    2.00
   6   4  -1    1.80    3.80
  -5  -4   1 2380.36  168.88
   5  -4  -1 2868.71  166.08
   5  -4  -1 2622.84  167.68
   5  -4  -1 2432.86  166.88
   5   4  -1 2553.44  166.58
   5   4  -1 2391.76  168.48
  -5   4   1 2577.04  166.58
  -5   4   1 2509.15  168.48
  -5   4   1 2509.35  166.38
   5   4  -1 2445.06  166.98
  -4  -4   1   20.70    4.20
   4  -4  -1   22.30    3.80
   4  -4  -1    9.30    6.40
   4  -4  -1   23.50    3.40
  -4  -4   1   24.00    3.10
  -4   4   1   22.70    6.30
  -4   4   1   20.70    4.30
   4   4  -1   16.40    3.90
  -4   4   1   17.90    2.90
   4   4  -1   16.50    4.70
  -4   4   1   22.80    3.80
  -3  -4   1 1271.47   78.09
  -3  -4   1 1323.67   78.59
   3  -4  -1 1254.87   77.79
   3  -4  -1 1049.49   79.29
  -3  -4   1 1096.29   80.39
   3  -4  -1 1257.47   77.59
  -3  -4   1 1066.09   78.29
  -3   4   1 1134.49   77.59
   3   4  -1 1278.67   79.29
  -3   4   1 1098.89   79.79
  -3   4   1 1181.98   77.89
   3   4  -1 1183.88   77.99
   3   4  -1 1116.89   78.39
   2  -4  -1    4.00    3.20
  -2  -4   1    2.10    2.10
   2  -4  -1    2.50    1.00
   2  -4  -1    3.40    1.80
  -2  -4   1    1.60    1.80
   2   4  -1    4.40    3.80
  -2   4   1    2.60    1.20
   2   4  -1    0.80    2.10
   2   4  -1    4.10    2.00
  -2   4   1    2.50    1.40
   2   4  -1    1.70    2.50
  -1  -4   1  992.50   60.79
  -1  -4   1  979.50   60.29
   1  -4  -1  866.01   61.49
   1  -4  -1  989.90   60.69
  -1   4   1  925.11   60.19
   1   4  -1  859.01   60.19
   1   4  -1  864.21   60.59
  -1   4   1  862.11   59.99
   1   4  -1  986.10   61.19
  -1   4   1  967.90   61.09
  -1   4   1  854.71   60.59
  -1   4   1  736.33   60.89
   0  -4  -1   78.19    6.20
   0  -4   1   86.19    6.70
   0  -4  -1   74.89    7.80
   0  -4  -1   78.59    6.90
   0  -4   1   78.49    6.80
   0   4  -1   72.99    7.40
   0   4   1   79.29    7.60
   0   4   1   67.39    7.20
   0   4  -1   78.59    7.50
   0   4   1   60.89    6.90
  -1  -4  -1 3958.80  239.08
  -1  -4  -1 3659.73  239.98
   1  -4   1 3921.81  239.88
   1   4   1 3594.04  239.78
  -1   4  -1 3530.15  239.38
   1   4   1 3415.46  240.48
  -1   4  -1 3570.24  240.28
  -1   4  -1 3798.32  239.88
  -1   4  -1 3473.75  240.68
  -2   4  -1   38.00    7.80
   2   4   1   55.69    6.60
  -2   4  -1   56.29    6.20
  -3  -4  -1 4940.21  310.37
   3  -4   1 5191.58  310.57
  -3  -4  -1 4917.11  312.37
   3  -4   1 4738.83  310.57
   3   4   1 4514.15  310.97
  -3   4  -1 5323.97  312.67
  -3   4  -1 4390.06  310.47
   3   4   1 4708.83  310.27
   3   4   1 4018.40  310.57
  -4  -4  -1   30.00    4.30
   4  -4   1   26.40    2.90
  -4  -4  -1   20.00    3.60
   4   4   1   20.20    4.20
  -4   4  -1   31.80    4.50
  -4   4  -1   24.20    6.10
   4   4   1   22.90    3.30
   4   4   1   19.30    5.10
   5  -4   1 1984.10  119.09
   5  -4   1 1708.63  120.49
   5  -4   1 1619.24  121.29
  -5  -4  -1 1950.80  123.59
  -5   4  -1 2062.59  121.89
   5   4   1 1640.74  119.69
  -5   4  -1 1716.03  119.89
   5   4   1 1798.02  120.59
  -5   4  -1 1852.41  121.19
   6  -4   1   -2.40    2.00
   6  -4   1   -1.20    4.20
   6  -4   1    0.10    1.80
   6   4   1   -2.70    3.10
   6   4   1   -2.60    3.20
  -6   4  -1   -0.90    2.50
  -6   4  -1    0.80    1.80
   7  -4   1  464.85   30.20
   7  -4   1  398.26   30.60
   7   4   1  409.76   29.60
   7   4   1  378.06   30.60
  -7   4  -1  420.56   30.00
   8  -4   1    1.50    5.30
   8  -4   1    2.70    2.00
   8   4   1   -3.80    4.20
   8   4   1   -2.10    4.20
  -8   4  -1    1.60    2.90
   9  -4   1  130.69   12.30
   9   4   1  123.99   12.90
   9   4   1  129.99   14.20
  10  -4   1    2.90    4.50
  10   4   1    8.10    4.00
  10   4   1    3.00    3.20
  11  -4   1   37.70    7.00
  11   4   1   23.30    5.60
  11  -5  -1   -2.70    5.30
  11   5  -1    6.50    4.10
  11   5  -1    7.20    5.00
  10  -5  -1   76.79    9.00
  10   5  -1   89.39    9.50
  10   5  -1   95.49    8.80
   9  -5  -1    5.30    3.90
   9   5  -1    1.80    3.50
   9   5  -1   -2.30    6.30
   8  -5  -1  262.97   21.80
   8   5  -1  270.67   20.80
  -8   5   1  268.77   20.80
   8   5  -1  255.37   21.80
   7  -5  -1   -3.40    5.30
   7   5  -1   -3.00    5.00
  -7   5   1    1.40    2.30
   7   5  -1   -2.60    4.20
   6  -5  -1  754.32   48.20
   6  -5  -1  676.23   49.70
   6  -5  -1  767.32   50.49
   6   5  -1  661.93   49.80
   6   5  -1  677.83   49.00
  -6   5   1  773.92   49.20
  -5  -5   1   17.70    6.10
   5  -5  -1   28.40    4.00
   5  -5  -1   22.50    5.20
   5  -5  -1   23.90    5.90
   5   5  -1   18.20    4.70
  -5   5   1   27.90    5.90
  -5   5   1   28.90    4.30
   4  -5  -1 2401.86  144.89
   4  -5  -1 2154.38  147.29
  -4  -5   1 2422.36  146.09
  -4  -5   1 2151.48  148.29
  -4  -5   1 2064.89  145.19
  -4   5   1 2018.30  145.19
  -4   5   1 2312.77  147.99
   4   5  -1 2132.69  146.09
  -4   5   1 2263.77  145.09
   4   5  -1 2166.68  145.49
  -3  -5   1    2.20    2.70
  -3  -5   1   -5.00    3.40
  -3  -5   1    0.30    2.30
   3  -5  -1    2.20    2.50
   3  -5  -1    0.90    1.20
   3  -5  -1   -1.60    2.90
  -3  -5   1   -0.70    2.50
  -3   5   1    0.40    1.60
   3   5  -1    0.70    2.20
   3   5  -1   -0.40    2.90
   3   5  -1    1.10    3.60
  -3   5   1   -0.80    2.40
   3   5  -1    1.70    2.90
  -3   5   1    3.60    2.80
   3   5  -1   -0.10    2.20
   2  -5  -1 4407.46  269.97
  -2  -5   1 4500.05  269.47
  -2   5   1 3539.65  270.77
   2   5  -1 3758.02  269.27
   2   5  -1 4394.86  270.27
  -2   5   1 4068.19  269.17
  -2   5   1 4138.99  269.07
  -1  -5   1   79.79    7.00
  -1  -5   1   83.69    7.60
   1  -5  -1   99.19   12.50
   1  -5  -1   79.89    7.40
  -1   5   1   69.49    7.60
  -1   5   1   69.39    6.80
   1   5  -1   64.49    7.90
   1   5  -1   77.39    7.20
  -1   5   1   75.29   10.00
   1   5  -1   90.99    9.20
  -1   5   1   76.29    9.50
  -1   5   1   77.49    7.00
   1   5  -1   78.59   11.10
   0  -5  -1 3904.91  278.37
   0  -5  -1 4771.22  278.17
   0   5  -1 4345.97  278.07
   0   5   1 4297.37  278.07
   0   5  -1 4262.97  278.67
   0   5   1 3830.12  278.37
  -1  -5  -1   84.99    7.80
   1  -5   1   88.99    7.70
  -1  -5  -1   84.09    6.60
   1   5   1   63.19    7.60
   1   5   1   83.29   10.80
  -1   5  -1   70.39    7.70
  -1   5  -1   73.09    7.30
  -1   5  -1   86.89    9.50
  -1   5  -1   71.89    9.20
   2  -5   1 3060.59  215.68
   2  -5   1 3476.15  214.88
  -2  -5  -1 3265.47  215.38
  -2  -5  -1 3435.06  214.58
   2  -5   1 3760.82  215.58
  -2  -5  -1 3732.53  215.68
   2   5   1 3000.30  215.38
  -2   5  -1 3038.80  215.68
   2   5   1 2730.53  215.28
   2   5   1 3249.97  214.58
  -2   5  -1 3319.27  217.08
  -3  -5  -1  102.89    8.30
   3  -5   1   96.89    9.30
   3  -5   1  112.09    9.50
  -3  -5  -1  112.29    8.70
  -3  -5  -1  104.49    9.30
   3  -5   1   97.49    8.60
  -3   5  -1  108.29    8.70
  -3   5  -1  112.29   11.30
   3   5   1   95.29    8.60
   3   5   1   92.79    9.30
   3   5   1  103.39    9.20
  -3   5  -1  104.19    8.70
  -4  -5  -1 1153.08   77.39
  -4  -5  -1 1154.28   74.69
  -4   5  -1 1134.09   77.29
   4   5   1 1139.79   74.59
   4   5   1 1160.28   74.59
  -4   5  -1 1107.09   74.89
   4   5   1 1040.20   75.29
  -4   5  -1 1093.99   73.79
   5  -5   1   -3.20    2.70
   5  -5   1   -0.30    1.90
   5   5   1   -0.70    2.90
  -5   5  -1   -2.50    2.20
   5   5   1   -1.40    3.00
  -5   5  -1    1.60    1.80
   6  -5   1  635.24   44.70
   6  -5   1  639.14   45.40
   6  -5   1  672.53   42.20
  -6  -5  -1  615.74   47.80
   6   5   1  624.64   44.60
   6   5   1  639.44   43.50
  -6   5  -1  688.53   44.10
  -6   5  -1  561.74   44.10
   7  -5   1    1.20    2.20
   7  -5   1   -4.90    5.10
  -7   5  -1    4.60    2.60
   7   5   1    2.20    4.00
   7   5   1   -2.80    3.80
   8  -5   1  266.97   19.10
   8  -5   1  248.88   20.50
   8   5   1  224.78   20.20
   8   5   1  237.58   19.30
  -8   5  -1  263.87   20.00
   9   5   1   17.60    6.70
  10  -5   1   87.09    8.90
  10   5   1  107.99    9.70
  10   5   1   83.39    8.00
  11  -5   1   18.50    8.30
  11   5   1   13.60    5.70
  11   5   1   17.20    6.10
  11  -6  -1   44.30    7.70
  11   6  -1   44.10    6.80
  10  -6  -1   13.70    4.90
  10   6  -1    5.50    3.70
  10   6  -1   21.60    5.10
   9  -6  -1  199.38   15.00
   9  -6  -1  181.18   16.00
   9   6  -1  189.28   15.20
   9   6  -1  168.28   16.40
   8  -6  -1    1.80    2.40
   8  -6  -1   -6.80    4.30
  -8   6   1    0.50    2.40
   8   6  -1    5.20    4.70
   8   6  -1   -0.10    4.00
   7  -6  -1  336.57   27.10
   7  -6  -1  405.46   27.60
  -7   6   1  373.26   26.50
   7   6  -1  342.27   26.20
   7   6  -1  324.17   27.30
   6  -6  -1   -1.50    2.50
   6  -6  -1   -6.10    4.60
   6  -6  -1   -1.40    1.90
   6   6  -1   -3.80    4.00
  -6   6   1    1.00    1.70
   6   6  -1    1.30    3.60
   5  -6  -1  422.26   31.50
  -5  -6   1  440.76   28.30
   5  -6  -1  439.76   28.40
  -5   6   1  410.36   29.30
   5   6  -1  388.66   30.20
   5   6  -1  404.46   29.40
  -5   6   1  408.26   29.10
  -5   6   1  421.76   27.90
  -4  -6   1   63.39    9.20
  -4  -6   1   77.69   11.70
   4  -6  -1   70.59    9.50
   4   6  -1   75.89    7.50
  -4   6   1   91.19    7.50
  -4   6   1   81.99    7.30
   4   6  -1   66.19    8.30
  -3  -6   1 3694.43  217.68
  -3  -6   1 3302.57  218.48
   3  -6  -1 3133.19  219.58
   3  -6  -1 3606.44  217.38
  -3  -6   1 3016.50  220.08
  -3   6   1 3208.18  216.88
   3   6  -1 3414.36  217.58
  -3   6   1 3274.57  217.38
   3   6  -1 3172.68  218.28
   2  -6  -1    0.90    2.60
  -2  -6   1    3.00    2.90
   2  -6  -1   -0.30    2.80
  -2  -6   1    0.50    2.60
  -2  -6   1   -0.50    3.80
  -2  -6   1   -4.80    3.20
   2   6  -1   -0.40    3.00
   2   6  -1   -3.00    3.30
  -2   6   1    2.50    3.50
  -2   6   1    2.70    3.00
  -2   6   1    2.50    2.10
   2   6  -1    4.30    4.40
   2   6  -1    0.00    2.40
  -2   6   1    1.00    2.30
   1  -6  -1 4252.67  279.57
  -1  -6   1 4128.09  279.67
  -1  -6   1 3694.03  278.67
  -1   6   1 4160.38  279.17
   1   6  -1 4953.40  279.47
  -1   6   1 4201.28  277.47
   1   6  -1 4228.18  278.47
  -1   6   1 4278.37  278.47
   0  -6   1   82.39    7.90
   0  -6   1   57.49   14.00
   0  -6  -1   77.79    6.80
   0  -6   1   86.09    7.50
   0  -6  -1   81.39    7.70
   0   6   1   56.69    8.80
   0   6  -1   70.59    9.30
   0   6  -1   79.99    9.20
   0   6   1   55.59    7.30
   0   6  -1   56.29    7.60
   0   6   1   64.79    8.10
  -1  -6  -1 1935.01  135.39
   1  -6   1 2069.49  135.59
  -1  -6  -1 2316.57  133.99
  -1   6  -1 1881.01  134.09
  -1   6  -1 2208.48  136.49
  -1   6  -1 2051.39  134.99
   1   6   1 1923.41  134.89
  -1   6  -1 2024.60  135.99
   1   6   1 1897.21  135.09
   2  -6   1    0.00    2.50
  -2  -6  -1   -2.30    2.10
  -2  -6  -1   -3.70    2.90
   2  -6   1   -0.10    3.60
   2   6   1   -0.70    2.70
  -2   6  -1   -1.70    4.00
  -2   6  -1    2.00    3.30
   2   6   1   -4.60    3.50
   2   6   1   -1.10    2.90
  -2   6  -1    1.00    1.40
  -2   6  -1    1.50    1.10
  -3  -6  -1 1038.80   68.39
  -3  -6  -1 1021.80   67.09
  -3  -6  -1 1054.09   66.49
  -3   6  -1  990.90   66.89
  -3   6  -1 1096.49   67.39
   3   6   1  908.81   67.39
   3   6   1 1047.30   67.59
   3   6   1  828.12   67.49
  -4  -6  -1   -0.40    2.80
   4   6   1   -3.00    2.80
  -4   6  -1    2.20    1.60
  -4   6  -1    0.60    2.10
   4   6   1    0.20    2.50
   4   6   1   -0.90    2.80
   5  -6   1  809.22   56.49
  -5  -6  -1  789.02   57.09
   5   6   1  753.92   54.59
   5   6   1  789.32   53.49
  -5   6  -1  821.42   54.09
   6  -6   1   -4.20    5.80
   6   6   1    2.40    3.30
   6   6   1    2.00    4.20
  -6   6  -1    2.00    2.40
   7  -6   1  555.74   43.70
   7  -6   1  644.94   44.40
  -7   6  -1  644.14   43.20
   7   6   1  602.14   43.80
   7   6   1  600.94   42.30
   8  -6   1   -2.00    4.60
   8  -6   1    3.60    2.90
   8   6   1    8.80    4.20
   8   6   1    1.40    5.00
   9  -6   1  173.68   15.70
  -9   6  -1  197.78   15.60
   9   6   1  162.98   15.80
   9   6   1  184.58   14.30
  10  -6   1   -3.00    5.10
  10   6   1    4.60    4.40
  10   6   1    7.10    3.80
  10  -7  -1   86.19    8.80
  10   7  -1   98.49    8.70
  10   7  -1   99.49    9.20
   9  -7  -1    6.20    3.50
   9   7  -1    4.50    3.60
  -9   7   1    3.00    2.10
   9   7  -1    3.70    3.10
   8  -7  -1  194.08   17.60
   8  -7  -1  238.88   18.20
  -8   7   1  196.78   16.60
   8   7  -1  177.48   17.50
   8   7  -1  197.98   16.80
   7  -7  -1   -4.20    2.70
   7  -7  -1   -6.60    5.00
  -7   7   1   -0.90    2.10
   7   7  -1   -3.00    4.30
   7   7  -1   -4.10    3.90
   6  -7  -1  318.57   24.80
   6  -7  -1  303.57   25.60
  -6   7   1  340.47   23.70
   6   7  -1  329.87   23.70
   6   7  -1  301.87   25.00
   5  -7  -1   -1.30    3.50
   5   7  -1    9.00    3.90
  -5   7   1    6.00    3.00
  -5   7   1   12.10    3.50
  -5   7   1    6.10    2.10
   5   7  -1    4.40    3.90
  -4  -7   1 1723.03  111.79
   4  -7  -1 1580.84  110.19
  -4  -7   1 1568.24  108.19
  -4   7   1 1582.14  107.49
   4   7  -1 1842.12  108.29
   4   7  -1 1681.13  107.69
  -4   7   1 1523.05  106.69
  -4   7   1 1603.54  108.29
   4   7  -1 1479.65  108.29
  -3  -7   1   32.90    9.60
   3  -7  -1   27.50    7.00
  -3  -7   1   28.10    9.10
   3   7  -1   17.80    4.30
   3   7  -1   14.10    4.50
  -3   7   1   21.50    4.40
  -3   7   1   35.80    7.40
   3   7  -1   24.40    4.80
  -3   7   1   30.30    4.60
  -2  -7   1 3734.63  224.38
  -2  -7   1 3248.27  226.88
  -2  -7   1 3289.77  225.48
   2  -7  -1 3157.58  226.28
  -2   7   1 3421.66  224.08
   2   7  -1 3804.62  225.88
   2   7  -1 3262.67  224.08
   2   7  -1 3204.08  224.98
  -2   7   1 3581.74  223.88
  -1  -7   1   -1.30    3.40
  -1  -7   1   -1.60    2.90
   1  -7  -1    0.30    3.40
  -1  -7   1    3.00    3.90
  -1   7   1    3.50    3.70
   1   7  -1    2.80    4.10
  -1   7   1   -0.30    1.60
   0  -7   1 3985.50  250.37
   0  -7  -1 3702.83  250.07
   0   7  -1 3934.81  249.38
   0   7   1 3744.03  249.78
   0   7  -1 3273.37  250.17
   0   7   1 3701.73  249.18
   0   7  -1 4130.99  250.57
   1  -7   1   26.70    6.60
  -1  -7  -1   25.00    4.40
   1   7   1   18.40    5.10
  -1   7  -1   24.90    4.50
   1   7   1   25.70    7.00
  -2  -7  -1 1335.17  101.09
  -2  -7  -1 1640.74   99.99
   2  -7   1 1571.14  103.99
   2   7   1 1593.24  101.59
   2   7   1 1443.56  100.99
  -2   7  -1 1561.94   99.19
  -2   7  -1 1490.95  100.39
   2   7   1 1334.97  100.29
  -2   7  -1 1613.84  102.09
  -3  -7  -1   15.20    4.10
  -3  -7  -1   10.00    4.00
   3  -7   1    9.20    4.20
  -3   7  -1   17.60    4.10
   3   7   1   24.70    5.90
   3   7   1   17.00    4.00
  -3   7  -1   14.80    4.50
  -4  -7  -1  502.95   33.20
   4  -7   1  432.76   35.70
   4   7   1  477.35   33.00
  -4   7  -1  461.15   33.50
   4   7   1  445.46   34.20
   4   7   1  513.25   33.90
  -4   7  -1  500.25   33.10
   5  -7   1   -1.90    3.80
   5   7   1    3.60    3.90
   5   7   1    4.10    2.40
   5   7   1    5.70    3.10
  -5   7  -1    4.40    2.20
   6  -7   1  731.43   50.49
   6   7   1  665.93   48.80
  -6   7  -1  681.43   48.00
   6   7   1  681.83   47.30
   7  -7   1   -1.80    6.10
   7   7   1    2.10    4.40
   7   7   1   -2.60    4.20
  -7   7  -1    2.80    2.60
   8  -7   1  245.98   20.10
   8  -7   1  229.28   19.50
   8   7   1  241.18   18.30
   8   7   1  198.08   19.10
  -8   7  -1  238.08   18.60
   9   7   1   20.40    4.30
  10  -7   1   48.70    7.80
  10   7   1   60.29    6.80
  10   7   1   72.29    7.80
  10   8  -1   27.20    6.60
  10   8  -1   22.80    6.20
   9  -8  -1  142.19   13.30
   9  -8  -1  125.19   11.80
   9   8  -1  116.69   12.10
  -9   8   1  120.39   11.40
   9   8  -1  139.59   11.20
   8  -8  -1    8.70    4.00
   8  -8  -1    6.50    3.50
   8   8  -1   10.70    3.80
  -8   8   1    1.40    2.40
   8   8  -1    3.70    3.50
   7  -8  -1  318.07   26.70
   7  -8  -1  311.37   25.50
   7   8  -1  312.77   25.80
  -7   8   1  334.37   24.50
   7   8  -1  322.57   24.30
   6   8  -1   -1.00    4.00
  -6   8   1   -1.50    2.30
   6   8  -1    0.80    4.90
  -5  -8   1  462.55   33.50
   5  -8  -1  488.65   36.80
  -5   8   1  495.55   33.80
   5   8  -1  496.15   33.90
  -5   8   1  456.65   32.50
  -5   8   1  486.25   33.40
   5   8  -1  455.25   35.00
  -4  -8   1  115.29   17.70
   4  -8  -1  164.58   17.00
  -4  -8   1  131.09   13.80
   4   8  -1  143.29   13.80
  -4   8   1  149.29   11.70
  -4   8   1  162.98   12.40
   4   8  -1  160.18   13.90
   4   8  -1  151.68   12.50
   3  -8  -1 1559.24  108.29
  -3  -8   1 1595.94  109.19
  -3  -8   1 1632.54  106.99
   3   8  -1 1465.25  106.39
  -3   8   1 1570.84  105.29
   3   8  -1 1654.43  106.89
  -3   8   1 1637.54  104.69
   3   8  -1 1555.14  105.49
   2  -8  -1    6.70    4.60
  -2   8   1    8.90    3.20
  -1  -8   1 2742.63  195.68
  -1  -8   1 3106.69  196.88
   1  -8  -1 2933.21  196.38
   1  -8  -1 3315.97  194.28
   1   8  -1 2800.72  194.98
  -1   8   1 2973.70  195.18
  -1   8   1 2765.92  194.08
  -1   8   1 2928.61  193.88
   0  -8   1   57.79    8.10
   0  -8  -1   57.69    8.80
   0   8  -1   50.09    7.10
   0   8   1   53.49    7.30
  -1  -8  -1 1399.26   85.09
   1  -8   1 1113.69   87.09
  -1  -8  -1 1284.37   87.29
   1  -8   1 1455.85   87.69
   1   8   1 1263.27   86.29
  -1   8  -1 1171.38   85.19
  -1   8  -1 1232.98   86.29
   2  -8   1    5.00    3.50
  -2  -8  -1    6.80    3.30
  -2  -8  -1   -3.10    2.80
   2  -8   1   -2.90    2.90
   2   8   1    0.60    5.30
  -2   8  -1    1.40    1.70
   2   8   1   -0.50    2.80
  -2   8  -1    5.20    1.90
   3  -8   1  944.81   70.89
  -3  -8  -1  994.60   68.99
  -3   8  -1 1007.90   68.59
  -3   8  -1 1109.89   69.79
   3   8   1 1076.19   69.59
   3   8   1  931.11   69.19
   3   8   1 1024.30   67.99
   4  -8   1   12.90    5.40
  -4  -8  -1    8.20    4.30
  -4   8  -1   11.40    2.80
  -4   8  -1   17.90    4.30
   4   8   1   15.40    4.00
   4   8   1    9.20    4.30
   5  -8   1  796.82   54.59
   5   8   1  766.62   50.79
  -5   8  -1  715.43   49.90
   5   8   1  702.33   52.29
  -5   8  -1  737.53   51.49
   6   8   1   -3.40    2.90
  -6   8  -1   -2.80    2.40
   6   8   1   -4.40    4.10
   7   8   1  287.17   26.00
  -7   8  -1  332.97   23.90
   7   8   1  303.27   22.90
   8  -8   1    3.90    3.90
   8   8   1    8.80    3.60
   8   8   1    3.30    3.10
  -8   8  -1    3.50    2.10
   9  -8   1  111.29   10.50
   9   8   1  107.19   10.30
  -9   8  -1   92.09   10.30
   9   8   1  124.39    9.50
  10   8   1   12.60    4.90
  10   9  -1   58.99    8.00
  10   9  -1   80.89    9.00
   9  -9  -1    9.40    5.20
   9   9  -1    6.30    3.70
   8  -9  -1  121.79   12.10
   8  -9  -1  129.49   12.70
   8   9  -1  114.99   12.50
   8   9  -1  132.99   11.60
  -8   9   1  126.99   11.70
   7  -9  -1    0.80    4.60
   7  -9  -1   -0.20   11.10
  -7   9   1    3.20    2.60
   7   9  -1   12.60    5.10
   7   9  -1    7.20    4.50
   6  -9  -1  773.32   54.59
   6  -9  -1  728.03   52.39
   6   9  -1  714.53   52.69
   6   9  -1  753.62   51.19
  -6   9   1  709.53   51.09
   5  -9  -1    3.40    6.00
  -5   9   1   10.90    2.80
   5   9  -1   16.40    4.70
  -5   9   1    8.40    2.80
   5   9  -1    4.20    4.30
  -4  -9   1 1142.09   73.59
   4  -9  -1 1109.29   76.19
   4   9  -1  997.90   73.99
  -4   9   1 1048.80   71.39
   4   9  -1 1017.80   72.59
  -4   9   1 1040.90   72.59
  -4   9   1 1160.48   74.29
  -3  -9   1  138.09   13.60
   3  -9  -1  125.99   15.20
  -3  -9   1  142.79   16.00
   3   9  -1  135.49   11.70
  -3   9   1  138.99   11.30
   3   9  -1  129.59   12.90
  -3   9   1  132.69   11.50
   2  -9  -1  338.77   28.70
  -2  -9   1  391.56   27.90
  -2  -9   1  396.36   29.80
   2   9  -1  310.17   26.60
  -2   9   1  350.26   25.50
  -2   9   1  340.67   25.40
  -1  -9   1   24.50    7.50
   1  -9  -1   19.20    6.80
  -1   9   1   15.50    4.40
  -1   9   1   28.20    4.20
   1   9  -1   19.20    4.80
   0  -9   1 1607.34  115.99
   0  -9  -1 1687.23  116.29
   0  -9   1 1840.92  116.59
   0   9  -1 1719.03  114.99
   0   9   1 1688.03  114.99
  -1  -9  -1  230.18   20.10
   1  -9   1  231.98   21.00
  -1   9  -1  227.68   17.60
  -1   9  -1  224.08   18.90
   1   9   1  214.48   18.70
   2  -9   1 1396.86  100.69
  -2  -9  -1 1595.84  100.09
  -2   9  -1 1570.94   96.79
   2   9   1 1351.66   98.99
  -2   9  -1 1402.26   98.09
   3  -9   1   -4.60    4.60
   3   9   1    1.50    3.60
  -3   9  -1   -1.40    2.10
  -4  -9  -1 1194.88   77.09
   4  -9   1 1183.78   80.59
   4   9   1 1042.60   78.09
  -4   9  -1 1148.69   77.29
   4   9   1 1178.08   76.59
  -4   9  -1 1079.39   77.39
   5  -9   1   53.09   11.60
  -5   9  -1   29.60    7.10
   5   9   1   31.90    8.60
   5   9   1   35.90    5.50
   6  -9   1  449.06   34.50
  -6   9  -1  414.46   31.00
   6   9   1  392.86   32.00
   6   9   1  414.96   30.10
   7  -9   1   -3.80    3.60
   7  -9   1   -1.90    4.50
   7   9   1    3.00    3.50
  -7   9  -1    5.10    2.30
   7   9   1    4.20    3.30
   8  -9   1   87.69   14.10
   8  -9   1  103.59   10.00
  -8   9  -1   82.79    9.50
   8   9   1   98.89   10.50
   8   9   1   94.29   10.90
   9  -9   1    2.60   11.60
   9   9   1   26.40    5.80
   9 -10  -1   24.20    5.80
   9 -10  -1   23.90    6.00
   8 -10  -1    2.30    4.70
   8  10  -1    5.50    3.60
   8  10  -1    5.20    4.00
   7 -10  -1  388.46   30.80
   7 -10  -1  333.47   27.00
   7  10  -1  340.57   27.50
   7  10  -1  373.76   26.00
  -7  10   1  286.17   29.70
   6 -10  -1   -4.90    4.40
   6 -10  -1   -4.80    5.40
  -6  10   1    1.40    2.60
   6  10  -1   -0.10    4.20
   6  10  -1    1.20    3.90
   5 -10  -1  910.61   61.79
  -5 -10   1  842.42   57.39
  -5  10   1  794.32   57.59
   5  10  -1  843.42   57.79
   5  10  -1  789.92   59.39
  -4 -10   1   -1.20    2.30
   4 -10  -1    0.70    5.50
   4  10  -1   -4.60    3.20
   4  10  -1   -5.90    3.80
  -4  10   1   -1.60    2.00
  -4  10   1   -0.70    2.90
  -3 -10   1  485.65   33.40
   3 -10  -1  447.66   35.40
  -3  10   1  413.36   31.30
   3  10  -1  411.86   33.30
  -3  10   1  434.86   30.80
  -2 -10   1    2.40    5.10
  -2 -10   1   -3.90    6.10
   2  10  -1   -4.20    3.50
  -2  10   1    1.80    1.70
  -2  10   1    2.80    2.20
   1 -10  -1  348.67   28.50
  -1 -10   1  383.76   29.10
  -1 -10   1  341.57   27.70
   1  10  -1  300.07   26.00
  -1  10   1  307.77   26.30
  -1  10   1  332.27   24.70
  -1  10   1  367.36   24.80
   0 -10   1   -2.00    4.80
   0 -10  -1   -1.80    4.90
   0 -10   1   -1.30    4.90
   0  10   1   -0.90    3.20
   0  10  -1    1.70    2.00
   0  10  -1    1.20    3.30
  -1 -10  -1  997.60   67.29
   1 -10   1  979.70   67.69
   1  10   1  876.61   65.59
  -1  10  -1  946.71   64.59
  -1  10  -1  933.41   65.89
   2 -10   1    6.20    6.10
   2  10   1    0.70    4.30
  -2  10  -1    4.70    3.10
  -2  10  -1    1.70    2.20
  -3 -10  -1 1892.21  122.49
   3 -10   1 1886.11  124.69
  -3  10  -1 1714.83  121.19
   3  10   1 1761.82  122.49
   4 -10   1   12.90    6.40
  -4  10  -1    4.10    3.00
   4  10   1   -2.50    4.10
   4  10   1    6.10    3.20
   5 -10   1  749.33   51.49
   5  10   1  657.43   46.40
   5  10   1  630.84   48.50
  -5  10  -1  655.03   47.40
   6 -10   1    3.80    5.40
   6  10   1    6.80    4.80
   6  10   1    7.60    3.80
  -6  10  -1    8.00    2.40
   7 -10   1   70.39   13.80
   7 -10   1   62.89    8.60
  -7  10  -1   75.79    8.50
   7  10   1   73.69    8.80
   9  10   1   60.69    8.40
   9  10   1   65.19    8.60
   9  11  -1   49.20    8.20
   9  11  -1   43.70    8.00
   8 -11  -1   79.79    9.20
   8  11  -1  103.89    8.50
   8  11  -1   83.19    9.00
   7 -11  -1   -0.70    4.40
   7 -11  -1   -1.10    4.50
  -7  11   1   -2.80    2.10
   7  11  -1    2.40    3.50
   6 -11  -1  317.47   29.70
   6  11  -1  282.67   22.10
   6  11  -1  279.17   23.90
  -6  11   1  272.37   22.10
   5 -11  -1   12.60    7.20
   5  11  -1    3.40    3.90
   5  11  -1   -1.30    3.90
   4 -11  -1  641.64   46.10
  -4 -11   1  640.54   42.80
   4  11  -1  579.44   43.60
  -4  11   1  576.24   41.90
  -4  11   1  515.75   39.90
   3 -11  -1   11.00    6.50
  -3 -11   1    2.90    4.10
   3  11  -1    3.10    4.20
  -3  11   1    4.70    3.00
  -2 -11   1  520.45   38.70
   2 -11  -1  520.55   40.30
   2  11  -1  472.65   38.00
  -2  11   1  543.55   35.70
  -2  11   1  492.85   36.20
   1 -11  -1   24.40    7.70
   1  11  -1   26.70    7.60
  -1  11   1   28.00    5.00
  -1  11   1   34.70    3.80
   0 -11  -1 1087.59   76.09
   0 -11   1 1073.89   75.99
   0  11   1 1111.89   72.69
   0  11   1 1040.60   74.29
   0  11  -1 1049.89   74.49
   0  11  -1 1070.69   72.99
   1 -11   1    1.00    5.50
  -1  11  -1    7.50    6.60
  -1  11  -1   -0.40    4.80
  -1  11  -1   13.00    2.90
  -2 -11  -1  965.10   65.39
   2 -11   1  905.81   66.59
  -2  11  -1  984.00   61.79
  -2  11  -1  885.91   63.29
   2  11   1  851.91   64.49
   3 -11   1    3.70    6.00
   3  11   1   -2.70    3.80
  -4 -11  -1  351.66   28.00
   4 -11   1  439.76   33.00
   4  11   1  365.16   30.00
  -4  11  -1  354.26   28.20
   5 -11   1    0.20    4.40
   6 -11   1  259.27   21.40
   6  11   1  203.88   18.80
  -6  11  -1  182.18   17.40
   6  11   1  224.88   16.80
   7 -11   1   -5.90    4.70
   7 -11   1   -3.30    4.50
   7  11   1    3.10    3.60
   7  11   1   12.40    4.10
   8 -11   1   44.90   10.40
   8 -11   1   44.20    7.80
   8  12  -1   40.00    8.00
   8  12  -1   44.10    7.40
   7 -12  -1   88.39    9.40
   7 -12  -1   86.69   11.30
   7  12  -1   95.69    9.80
   6 -12  -1   -3.70    4.40
   6  12  -1    6.90    3.60
  -5 -12   1  151.18   14.00
   5  12  -1  197.48   16.70
  -5  12   1  153.38   14.20
   4 -12  -1   -4.10    5.50
   4  12  -1   -1.20    4.00
   3 -12  -1  831.32   58.59
  -3 -12   1  832.72   56.49
  -3  12   1  732.23   53.79
  -3  12   1  758.72   52.29
   3  12  -1  722.73   55.69
  -2 -12   1    3.30    5.80
   2 -12  -1    3.50    6.30
  -2  12   1    2.40    2.80
   2  12  -1    5.20    5.20
  -2  12   1    6.10    2.10
   1 -12  -1  785.22   56.79
  -1 -12   1  774.32   56.09
  -1  12   1  782.62   52.59
  -1  12   1  771.22   55.09
   1  12  -1  726.83   54.69
  -1  12   1  741.83   52.99
   0 -12   1   14.10    6.30
   0 -12  -1    8.70    6.30
   0  12   1   12.10    3.00
   0  12  -1    7.30    3.10
   0  12   1    4.40    4.80
   0  12  -1    4.10    5.00
   1 -12   1  705.03   52.09
  -1 -12  -1  701.13   51.59
  -1  12  -1  659.13   50.09
  -1  12  -1  744.63   47.40
  -1  12  -1  698.23   48.70
   1  12   1  639.74   49.90
   2 -12   1    6.90    6.00
   2  12   1    4.30    4.50
  -2  12  -1    8.00    3.70
  -2  12  -1    1.50    2.70
  -3 -12  -1  331.97   28.10
   3 -12   1  363.06   30.60
   3  12   1  331.07   27.90
  -3  12  -1  346.07   26.50
   4  12   1   -2.90    5.90
   5 -12   1  203.08   19.20
   5  12   1  164.98   16.20
  -5  12  -1  158.48   15.00
   6 -12   1   -4.60    4.30
   6  12   1    9.30    4.10
   7 -12   1  104.39   10.60
   7 -12   1   96.89   13.40
   7  12   1  128.89   11.40
   7  12   1  142.39   10.20
   6 -13  -1   80.89   11.50
   6  13  -1   89.09    9.40
  -5 -13   1   -6.00    4.60
   5 -13  -1   -2.70    4.80
   5  13  -1    6.70    4.00
  -4 -13   1  213.88   18.90
   4 -13  -1  250.17   22.60
   4  13  -1  219.88   19.80
  -4  13   1  204.08   17.90
  -3 -13   1    6.00    4.50
   3 -13  -1   11.90    6.60
   3  13  -1    6.60    3.70
  -3  13   1    0.80    2.80
   2 -13  -1  762.72   57.19
  -2 -13   1  781.62   55.29
  -2  13   1  756.92   52.29
   2  13  -1  690.03   55.49
  -2  13   1  744.83   51.19
   1 -13  -1   -1.30    6.70
  -1 -13   1   13.70    7.20
  -1  13   1    0.70    2.30
  -1  13   1    3.40    2.40
   1  13  -1   -0.60    4.10
  -1  13   1   -1.50    4.10
   0 -13  -1  722.23   54.29
   0 -13   1  774.22   54.79
   0  13   1  770.62   50.49
   0  13   1  745.33   50.39
   0  13   1  648.94   51.69
   0  13  -1  707.03   50.49
   0  13  -1  664.03   51.89
  -1 -13  -1   -7.70    6.10
  -1  13  -1    3.20    4.90
   1  13   1    4.00    3.90
  -1  13  -1    2.10    3.10
  -2 -13  -1  239.48   21.70
  -2  13  -1  261.47   20.00
   2  13   1  195.58   25.10
   3 -13   1   31.40   10.10
   4 -13   1  151.28   16.70
   4  13   1  124.09   13.00
  -4  13  -1  112.79   11.70
   5 -13   1    9.80    4.60
   5  13   1   10.80    4.20
   6 -13   1  132.29   15.00
   6  13   1  138.39   13.00
   7 -14  -1   16.60    7.70
   6 -14  -1   -2.60    6.50
   6  14  -1   12.60    4.70
   5 -14  -1   95.29   12.10
  -5  14   1   69.59    8.50
   4 -14  -1   11.70    5.10
   4  14  -1    8.20    3.80
   3 -14  -1  292.07   27.30
  -3 -14   1  307.97   25.20
   3  14  -1  319.67   25.40
  -3  14   1  293.37   24.40
   2 -14  -1    1.50    4.90
  -2 -14   1   -0.80    4.00
   2  14  -1    3.70    3.80
   1 -14  -1  479.15   38.60
  -1  14   1  505.65   35.10
  -1  14   1  466.85   37.10
  -1  14   1  499.75   34.40
   1  14  -1  461.25   35.70
   1  14  -1  487.05   37.00
   0 -14   1   12.00    5.50
   0 -14  -1    1.40    5.50
   0  14  -1    3.50    3.50
   0  14   1    0.20    2.00
   0  14   1    2.30    3.90
   0  14  -1    1.90    4.20
  -1 -14  -1  259.77   32.00
   1 -14   1  319.97   27.70
  -1  14  -1  311.87   25.60
   1  14   1  305.37   25.40
   1  14   1  343.07   23.80
   2 -14   1   33.10   10.60
   2  14   1   23.40    6.60
   3 -14   1  143.99   16.00
  -3 -14  -1  113.29   13.20
   3  14   1  141.79   13.30
  -3  14  -1  101.99   11.70
   4 -14   1    2.00    4.70
   4  14   1    8.90    4.00
   5 -14   1  156.68   16.10
   5  14   1  142.09   13.30
   6 -15  -1   69.39   10.00
   6 -15  -1   68.99   12.00
   6  15  -1   91.19   10.30
   5  15  -1   39.00    7.90
  -4 -15   1   58.99    8.80
  -4  15   1   48.90    7.30
   3  15  -1    3.50    3.60
  -2 -15   1  181.88   17.70
   2 -15  -1  168.18   18.80
  -2  15   1  178.68   15.20
   2  15  -1  205.68   15.70
   2  15  -1  204.88   17.50
  -1 -15   1   -5.40    3.80
  -1  15   1   -1.80    2.00
   1  15  -1   -5.40    3.40
   1  15  -1    3.30    2.20
   0 -15   1  263.07   22.80
   0 -15  -1  215.88   22.00
   0  15   1  263.67   18.60
   0  15   1  222.28   20.70
   0  15  -1  233.28   19.20
   0  15   1  244.88   18.80
   0  15  -1  232.18   20.80
   1 -15   1   -1.50    4.40
   1  15   1    2.40    2.00
   1  15   1    0.40    3.50
   2 -15   1  187.08   17.90
  -2 -15  -1  119.89   14.60
  -2  15  -1  149.88   13.30
   2  15   1  153.18   14.70
   3 -15   1   -4.80    4.40
   3  15   1    5.30    3.60
   4 -15   1  195.98   17.90
   4  15   1  191.78   15.50
  -4  15  -1  145.19   15.00
   4  16  -1   31.10    7.70
  -3  16   1   50.39    7.10
   2  16  -1   27.80    5.70
  -1 -16   1   64.09    9.70
   1 -16  -1   59.79   10.20
  -1  16   1   63.89    7.60
   1  16  -1   75.29    8.50
   0 -16   1    0.60    4.60
   0  16   1    0.90    3.70
   0  16   1    4.00    2.30
   0  16  -1    4.20    3.90
   0  16  -1    1.00    2.30
   1 -16   1  167.88   17.10
   1  16   1  188.98   13.90
  -1  16  -1  153.88   14.10
   1  16   1  176.88   15.40
   1  16   1  145.49   13.90
   2 -16   1    5.50    4.70
   2  16   1    8.80    4.00
  -3  16  -1  115.89   11.00
   4 -16   1    7.10    5.90
   4  16   1   14.60    5.10
   2 -17  -1   23.10    6.20
   1  17  -1   -3.60    2.80
   1  17  -1   -1.70    4.60
   0 -17  -1   21.70    5.20
   0 -17   1   14.20    5.10
   0  17  -1   27.20    6.30
   0  17   1   29.40    7.80
   0  17   1   20.80    3.30
   1 -17   1   -3.70    5.40
   1  17   1    4.60    4.70
   2 -17   1  123.39   14.10
   2  17   1  125.39   14.20
   2  17   1  115.29   12.00
   2  17   1  103.09   10.50
  11   0  -2   -2.40    4.30
  11   0  -2    3.10    3.40
  10   0  -2  133.99   14.30
  10   0  -2  163.48   13.80
   9   0  -2   -5.90    3.70
   9   0  -2    0.70    4.70
   8   0  -2  138.99   13.40
   8   0  -2  137.29   13.10
   7   0  -2   -1.30    3.80
   6   0  -2  866.11   52.19
   6   0  -2  708.13   53.09
  -6   0   2  780.92   52.09
   5   0  -2   -2.70    2.80
   5   0  -2   -0.20    1.90
  -4   0   2 6719.53  489.55
   4   0  -2 7359.16  488.85
  -4   0   2 7835.92  489.35
   4   0  -2 8055.59  489.65
   3   0  -2    2.20    0.90
  -3   0   2    3.20    2.10
   3   0  -2    3.10    2.00
   3   0  -2    4.50    2.30
  -3   0   2    3.70    2.30
   3   0  -2    2.90    1.60
  -3   0   2    2.50    1.80
   1   0  -2    2.30    1.10
   1   0  -2    1.10    0.80
  -1   0   2    1.20    0.80
   1   0  -2    1.10    0.90
  -1   0   2    0.80    0.90
  -1   0   2    1.00    1.00
  -1   0  -2    5.90    1.40
  -2   0  -2  116.69    8.50
   2   0   2  119.29    8.40
   3   0   2   -1.10    0.90
   3   0   2    1.20    1.70
  -3   0  -2    0.30    1.20
   3   0   2    0.00    2.30
   4   0   2  978.70   68.79
  -4   0  -2  987.00   68.69
  -4   0  -2  996.10   70.29
   4   0   2 1025.80   68.59
   4   0   2 1187.38   69.19
   4   0   2 1031.90   68.79
   5   0   2   -1.50    2.80
   5   0   2   -0.70    3.30
  -6   0  -2 1898.81  137.69
   6   0   2 2030.00  134.79
   6   0   2 2173.48  133.39
   7   0   2    3.50    4.40
   7   0   2    1.80    4.20
  -7   0  -2   -3.50    2.90
   8   0   2  592.34   41.90
   8   0   2  592.04   41.00
  -8   0  -2  540.05   46.60
   9   0   2    7.60    7.20
  10   0   2   29.20    6.00
  10   0   2   37.70    5.70
  11   0   2    8.40    4.30
  11  -1  -2   63.89    8.40
  11  -1  -2   82.79    8.40
  11   1  -2   95.89    8.30
  11   1  -2   69.79    8.80
  10  -1  -2   18.10    5.00
  10   1  -2   17.90    5.00
   9  -1  -2  196.48   17.00
   9   1  -2  197.28   17.80
   9   1  -2  203.58   17.10
   8  -1  -2    7.30    5.20
   8   1  -2    6.20    4.90
   8   1  -2    2.60    4.20
   7  -1  -2  739.03   52.89
  -7   1   2  837.62   51.59
   7   1  -2  761.02   53.29
   7   1  -2  745.63   52.79
   6  -1  -2    5.90    3.80
   6   1  -2    3.80    3.50
   6   1  -2    0.70    2.80
  -6   1   2    4.90    2.50
   6   1  -2    1.90    2.90
   5  -1  -2 1576.64   99.59
  -5  -1   2 1344.47   98.29
   5  -1  -2 1628.14   99.09
  -5  -1   2 1381.56  100.19
  -5   1   2 1470.55   98.69
  -5   1   2 1340.27   99.59
   5   1  -2 1517.25   99.49
   5   1  -2 1593.34   99.79
  -5   1   2 1665.73  100.19
   4  -1  -2  311.37   20.40
  -4  -1   2  322.67   20.20
   4  -1  -2  280.37   21.00
  -4  -1   2  323.07   20.90
  -4  -1   2  276.07   21.60
   4   1  -2  259.07   21.00
   4   1  -2  307.27   20.60
  -4   1   2  307.47   21.60
  -4   1   2  284.47   21.40
   4   1  -2  332.17   21.70
  -4   1   2  256.87   20.60
  -4   1   2  313.47   20.90
   3  -1  -2 3287.37  195.28
   3  -1  -2 2842.72  195.08
   3  -1  -2 2996.60  194.68
  -3  -1   2 2858.11  195.48
  -3  -1   2 2989.60  195.08
  -3   1   2 2909.61  195.18
   3   1  -2 3209.88  195.38
  -3   1   2 2789.12  194.78
   3   1  -2 2740.43  194.98
  -3   1   2 3179.88  195.08
   3   1  -2 3186.18  195.58
   3   1  -2 2751.92  195.08
  -3   1   2 3001.90  195.18
   2  -1  -2  873.41   59.49
  -2  -1   2  981.10   59.59
  -2  -1   2  904.11   59.99
   2  -1  -2  968.30   59.69
   2  -1  -2  856.01   59.29
  -2  -1   2  916.51   59.89
   2  -1  -2  902.71   59.69
  -2   1   2  987.70   59.69
  -2   1   2  862.61   59.39
  -2   1   2  837.62   59.19
   2   1  -2  816.82   59.49
   2   1  -2  839.02   59.49
   2   1  -2  974.80   59.99
  -2   1   2  931.71   59.49
  -2   1   2  903.51   59.69
   0  -1   2   66.59    4.60
   0  -1  -2   55.59    4.40
   0  -1   2   62.19    4.50
   0  -1   2   65.09    5.00
   0  -1   2   65.69    5.00
   0   1   2   62.49    5.00
   0   1  -2   71.09    4.60
   0   1  -2   68.19    5.00
   0   1  -2   57.49    4.60
   0   1  -2   59.39    4.50
   0   1   2   60.19    4.60
   0   1   2   57.79    4.20
   2  -1   2   98.39    7.60
   2  -1   2   97.39    6.90
   2  -1   2   96.29    7.00
  -2   1  -2   81.99    6.90
   2   1   2   84.09    7.10
   2   1   2   98.29    6.90
   2   1   2   96.29    6.90
   3  -1   2 2124.69  140.39
   3  -1   2 2221.68  141.39
   3  -1   2 2338.07  140.79
   3   1   2 2179.68  140.79
  -3   1  -2 1919.11  140.69
   3   1   2 2000.10  140.89
   3   1   2 2242.18  140.69
   4  -1   2   28.50    4.60
   4  -1   2   29.40    4.10
   4  -1   2   34.30    3.20
   4  -1   2   33.10    4.40
  -4  -1  -2   26.80    3.20
   4   1   2   22.90    4.20
   4   1   2   27.10    3.80
   4   1   2   27.40    4.60
  -4   1  -2   27.30    3.90
   4   1   2   23.40    5.40
   4   1   2   34.40    5.40
  -4   1  -2   32.50    3.70
  -5  -1  -2 2312.57  155.98
   5  -1   2 2400.86  152.28
   5  -1   2 2238.98  153.58
   5   1   2 2607.34  154.58
   5   1   2 2368.36  153.88
  -5   1  -2 2213.18  155.48
  -5   1  -2 2403.66  153.58
   5   1   2 2351.36  153.48
   5   1   2 2082.39  152.18
   6  -1   2    2.90    4.10
   6  -1   2   -1.60    2.30
   6   1   2    2.90    3.60
   6   1   2    3.30    3.00
   6   1   2    0.90    3.30
  -7  -1  -2  707.93   53.69
   7  -1   2  774.92   47.60
   7  -1   2  720.23   49.50
   7   1   2  720.33   49.20
  -7   1  -2  614.44   51.79
   7   1   2  724.63   50.39
   7   1   2  723.63   49.99
  -8  -1  -2   10.00    9.30
   8  -1   2    8.20    5.10
   8   1   2    3.80    4.50
  -8   1  -2    5.70    7.20
   8   1   2    3.50    4.50
   9  -1   2  121.19   13.10
   9  -1   2  134.79   12.40
   9   1   2  132.79   13.10
   9   1   2  129.79   15.70
  10  -1   2   -5.00    3.80
  10  -1   2    2.60    3.20
  10   1   2    5.10    3.50
  10   1   2   -1.20    3.00
  11  -1   2   43.00    7.00
  11  -1   2   36.10    6.80
  11   1   2   25.20    6.60
  11   2  -2   18.90    5.60
  10  -2  -2  116.79   11.70
  10   2  -2  122.69   12.70
  10   2  -2  130.09   11.70
   9  -2  -2    0.30    4.10
   9   2  -2    1.00    4.90
   9   2  -2    1.30    4.10
   8  -2  -2  438.56   32.90
   8   2  -2  463.55   32.90
   8   2  -2  453.75   33.40
   7  -2  -2    2.20    4.20
   7   2  -2   -4.00    3.70
  -7   2   2    2.10    2.60
   7   2  -2    2.60    4.40
   6  -2  -2 1142.29   84.59
   6  -2  -2 1355.06   84.69
  -6  -2   2 1223.08   85.79
  -6   2   2 1198.38   85.09
   6   2  -2 1229.78   84.59
   6   2  -2 1441.66   84.99
   6   2  -2 1278.57   84.99
   5  -2  -2   -1.30    3.00
   5  -2  -2    0.70    2.30
   5  -2  -2   -0.10    1.50
   5  -2  -2    0.50    2.30
  -5   2   2    2.20    2.70
   5   2  -2    3.50    3.20
   5   2  -2   -3.60    2.40
  -5   2   2    3.30    3.60
  -5   2   2    0.40    1.30
   5   2  -2   -2.90    3.10
   4  -2  -2 4013.60  254.67
   4  -2  -2 4498.35  255.27
  -4  -2   2 4221.58  255.17
   4  -2  -2 3506.15  255.07
   4  -2  -2 4001.90  255.17
  -4   2   2 3957.20  255.37
  -4   2   2 3592.14  254.67
   4   2  -2 3557.74  255.17
   4   2  -2 4480.05  255.87
   4   2  -2 3665.13  255.07
  -4   2   2 3366.86  255.57
   3  -2  -2  150.58   10.80
  -3  -2   2  141.19   10.30
  -3  -2   2  126.99   11.00
  -3  -2   2  147.09   10.00
   3  -2  -2  156.28   10.40
   3  -2  -2  127.19   10.40
   3  -2  -2  144.39    9.90
  -3   2   2  131.99   10.00
   3   2  -2  158.38   11.40
  -3   2   2  131.09   10.50
   3   2  -2  149.29   11.20
   3   2  -2  140.79   10.70
   3   2  -2  129.29   10.40
  -3   2   2  133.39    9.80
  -3   2   2  138.29   11.00
   2  -2  -2 1496.95  101.69
  -2  -2   2 1616.94  102.09
  -2  -2   2 1627.04  102.09
   2  -2  -2 1455.65  102.39
   2  -2  -2 1599.94  102.09
   2  -2  -2 1453.45  101.89
  -2  -2   2 1635.94  102.09
  -2  -2   2 1451.95  102.29
  -2   2   2 1443.96  101.69
   2   2  -2 1432.66  101.99
   2   2  -2 1539.75  102.09
  -2   2   2 1600.24  102.49
   2   2  -2 1714.83  102.59
  -2   2   2 1511.75  102.09
   2   2  -2 1740.93  102.89
   1  -2  -2  108.99    9.00
  -1  -2   2  119.39    8.60
  -1  -2   2  107.99    9.00
   1  -2  -2  118.29    8.30
  -1  -2   2  105.59    8.30
   1  -2  -2  106.49    7.70
   1  -2  -2  119.99    8.60
  -1  -2   2  117.09    8.30
   1   2  -2  107.59    8.30
   1   2  -2  119.79    8.40
  -1   2   2  119.49    8.50
   1   2  -2  121.19    8.90
   1   2  -2  102.49    8.20
  -1   2   2  110.19    7.70
   1  -2   2  238.88   16.20
  -1  -2  -2  230.18   15.80
  -1  -2  -2  251.27   16.30
   1  -2   2  237.58   16.40
   1  -2   2  229.78   15.60
   1  -2   2  246.68   16.30
   1  -2   2  212.78   16.80
  -1   2  -2  248.28   16.50
   1   2   2  235.48   16.30
   1   2   2  230.08   15.80
  -1   2  -2  263.37   17.00
  -1   2  -2  226.98   16.20
   3  -2   2    2.80    1.50
   3  -2   2    1.70    1.20
   3  -2   2    0.70    2.70
  -3  -2  -2    1.30    1.90
   3   2   2    1.70    2.10
  -3   2  -2    1.30    1.90
   3   2   2    1.00    1.10
  -3   2  -2    0.80    2.00
   3   2   2    1.30    2.10
   3   2   2    2.30    2.50
  -4  -2  -2 1866.31  123.79
   4  -2   2 2045.00  120.99
  -4   2  -2 1805.42  121.79
   4   2   2 1706.93  122.29
   4   2   2 1994.90  121.09
   4   2   2 1919.31  123.19
   4   2   2 1784.62  122.09
  -4   2  -2 1719.63  123.09
   4   2   2 1769.42  121.69
   4   2   2 1873.21  120.89
   5  -2   2   33.80    5.20
   5  -2   2   33.00    5.20
  -5  -2  -2   30.90    4.70
  -5   2  -2   38.20    4.50
   5   2   2   25.90    5.60
  -5   2  -2   32.70    5.00
   5   2   2   26.80    4.80
   6  -2   2  667.13   46.30
   6  -2   2  771.32   45.70
   6  -2   2  658.83   46.10
  -6   2  -2  628.04   47.70
   6   2   2  640.54   46.20
  -6   2  -2  656.13   45.80
   6   2   2  655.63   45.60
  -7  -2  -2   -7.30    5.70
   7  -2   2   -0.40    2.80
   7  -2   2   -2.10    4.70
   7   2   2   -1.50    3.60
   7   2   2   -3.70    4.10
  -8  -2  -2  275.37   29.40
   8  -2   2  263.97   21.00
   8   2   2  264.57   20.40
   8   2   2  265.87   21.70
  -8   2  -2  236.88   25.10
   9  -2   2   10.90    4.00
   9   2   2    8.80    4.90
  10  -2   2   84.79    9.60
  10  -2   2  107.19    9.40
  10   2   2  101.59    9.10
  10   2   2   94.99    9.70
  11  -2   2    2.40    4.10
  11  -2   2   -2.50    5.10
  11   2   2   11.70    4.40
  11  -3  -2   49.90    6.80
  11   3  -2   57.59    6.80
  11   3  -2   65.09    7.00
  10  -3  -2    9.60    3.90
  10   3  -2    8.80    4.10
   9   3  -2  276.87   21.70
   8  -3  -2    0.50    4.90
   8   3  -2    7.40    5.40
   8   3  -2    4.50    4.60
   7  -3  -2  948.81   71.69
   7  -3  -2 1219.28   71.19
   7   3  -2 1136.99   72.29
  -7   3   2 1082.99   72.39
   7   3  -2  996.70   71.49
   7   3  -2  970.60   71.99
   6  -3  -2   11.20    3.30
   6  -3  -2    6.70    4.40
   6  -3  -2   10.40    5.80
  -6   3   2    9.20    3.70
   6   3  -2    6.40    3.50
  -6   3   2    9.40    3.00
  -6   3   2    5.80    1.90
   6   3  -2   11.90    4.20
   6   3  -2   -0.70    4.30
   5  -3  -2 1476.15   89.79
  -5  -3   2 1196.98   91.29
   5  -3  -2 1570.64   89.29
   5  -3  -2 1298.07   89.49
  -5   3   2 1326.07   89.59
  -5   3   2 1300.07   88.89
   5   3  -2 1377.06   89.69
   5   3  -2 1297.17   89.29
  -5   3   2 1250.67   90.49
   4  -3  -2  244.38   16.00
   4  -3  -2  197.88   16.40
  -4  -3   2  223.98   16.50
  -4  -3   2  208.78   15.80
   4  -3  -2  231.58   17.10
  -4   3   2  233.38   15.40
   4   3  -2  220.58   16.40
  -4   3   2  225.78   16.60
   4   3  -2  217.38   16.60
   4   3  -2  265.37   18.30
   4   3  -2  241.18   17.70
  -4   3   2  227.58   16.20
   3  -3  -2 1249.77   84.89
   3  -3  -2 1211.48   84.09
  -3  -3   2 1367.06   84.19
   3  -3  -2 1374.66   83.99
  -3  -3   2 1240.98   83.99
  -3  -3   2 1400.56   84.39
   3  -3  -2 1364.16   83.79
  -3   3   2 1211.78   83.69
  -3   3   2 1198.68   84.99
   3   3  -2 1093.89   83.99
   3   3  -2 1385.76   85.09
   3   3  -2 1205.68   84.29
  -3   3   2 1255.47   84.09
   2  -3  -2  188.78   14.10
  -2  -3   2  176.18   13.40
   2  -3  -2  178.18   12.70
  -2  -3   2  182.48   13.20
  -2  -3   2  193.08   13.30
   2  -3  -2  193.08   13.30
   2  -3  -2  190.98   13.10
  -2   3   2  180.18   12.70
   2   3  -2  179.08   13.40
   2   3  -2  167.98   13.30
   2   3  -2  205.78   14.80
  -2   3   2  187.68   14.00
  -2   3   2  178.98   13.10
   2   3  -2  194.98   13.90
   1  -3  -2 1514.45  100.39
  -1  -3   2 1703.83  100.49
  -1  -3   2 1448.26  100.59
   1  -3  -2 1460.35  100.79
  -1  -3   2 1561.14  100.39
   1   3  -2 1386.46  100.29
   1   3  -2 1699.33  100.49
  -1   3   2 1368.76   99.79
   1   3  -2 1772.62  100.89
  -1   3   2 1376.96  100.39
   1   3  -2 1458.65  100.49
  -1   3   2 1537.95  100.69
  -1   3   2 1538.25  100.39
   0  -3  -2  116.99    8.80
   0  -3   2  127.19    9.80
   0  -3   2  120.39   10.00
   0  -3  -2  124.89    9.60
   0  -3  -2  131.69    9.70
   0  -3   2  124.29    9.70
   0   3   2  103.09    9.60
   0   3  -2  142.09   10.20
   0   3  -2  141.39   10.20
   0   3  -2  115.79    9.70
   0   3  -2  137.19    9.00
   0   3   2  133.39    9.60
   1  -3   2 6628.84  467.25
  -1   3  -2 7666.93  467.45
   2  -3   2  391.26   29.80
   2  -3   2  431.36   28.60
  -2  -3  -2  425.06   28.20
  -2  -3  -2  455.75   28.90
   2  -3   2  376.16   28.70
   2   3   2  393.76   28.80
  -2   3  -2  460.45   29.90
  -2   3  -2  428.36   28.60
   2   3   2  416.46   28.20
   2   3   2  480.25   30.00
  -2   3  -2  367.96   28.50
   2   3   2  445.66   28.50
  -3  -3  -2 5455.45  339.37
   3  -3   2 5424.36  339.57
  -3  -3  -2 5076.59  341.07
  -3   3  -2 5776.92  340.77
  -3   3  -2 4660.03  339.47
   3   3   2 5477.95  341.07
   3   3   2 4551.64  341.17
   3   3   2 5142.29  339.47
  -4  -3  -2    1.50    2.40
  -4  -3  -2   -0.80    1.80
   4  -3   2   -1.70    1.50
   4   3   2   -0.10    4.70
  -4   3  -2    1.00    1.40
   4   3   2   -3.60    3.40
   4   3   2    0.30    2.30
  -5  -3  -2 1280.17   86.49
   5  -3   2 1288.27   83.99
  -5   3  -2 1255.37   84.99
   5   3   2 1216.08   83.89
  -5   3  -2 1187.98   83.39
   5   3   2 1293.87   83.29
   6  -3   2   -4.90    3.60
  -6   3  -2    4.00    2.30
   6   3   2   10.10    4.50
   6   3   2   -3.30    3.00
  -6   3  -2   -0.70    2.00
   7  -3   2  292.37   19.30
  -7  -3  -2  208.38   22.70
   7  -3   2  249.88   20.20
  -7   3  -2  256.67   19.50
   7   3   2  243.78   19.00
   7   3   2  244.68   20.30
   8  -3   2    6.80    2.80
   8  -3   2    6.80    5.70
  -8  -3  -2    8.30   10.00
   8   3   2    8.10    4.50
  -8   3  -2    3.90    5.40
   8   3   2    0.60    4.40
   9  -3   2  161.28   13.90
   9   3   2  171.88   16.20
   9   3   2  137.99   14.30
  10  -3   2    4.20    4.40
  10   3   2    4.00    3.90
  10   3   2    7.10    3.30
  11  -3   2   48.20    7.60
  11  -3   2   51.59    7.90
  11   3   2   59.69    7.80
  11   3   2   40.80    6.50
  11  -4  -2    6.00    5.00
  11   4  -2    4.60    3.60
  10  -4  -2  106.59   10.40
  10   4  -2  106.29   10.10
  10   4  -2  104.49   10.90
   9  -4  -2    0.10    4.30
   9   4  -2    3.40    5.00
   9   4  -2    2.50    4.20
   8  -4  -2  480.65   34.20
   8   4  -2  434.66   34.10
   8   4  -2  473.15   33.70
   7  -4  -2   16.30    5.70
   7   4  -2   18.10    6.00
  -7   4   2   27.20    5.50
   7   4  -2    8.90    4.70
   6  -4  -2 1289.57   89.09
  -6  -4   2 1303.47   90.99
   6  -4  -2 1422.46   88.29
   6  -4  -2 1472.25   89.39
   6   4  -2 1247.58   89.09
   6   4  -2 1310.47   88.79
  -6   4   2 1346.77   88.39
  -6   4   2 1256.87   90.49
  -6   4   2 1302.97   88.89
   5  -4  -2    7.20    2.40
   5  -4  -2    8.70    3.80
  -5  -4   2   11.60    6.10
   5  -4  -2    7.90    3.00
   5   4  -2    6.70    5.30
  -5   4   2   10.20    3.80
  -5   4   2    4.50    1.80
   5   4  -2    2.90    3.00
   5   4  -2    9.20    3.60
  -5   4   2   10.60    4.60
  -4  -4   2 1723.93  128.69
   4  -4  -2 1714.73  128.49
   4  -4  -2 1894.01  126.79
  -4  -4   2 2146.09  126.89
   4  -4  -2 2240.78  126.49
   4   4  -2 2016.00  126.79
   4   4  -2 1879.61  127.09
  -4   4   2 1829.72  126.39
  -4   4   2 1977.10  126.39
  -4   4   2 2042.50  126.69
  -4   4   2 1667.13  127.89
  -3  -4   2   30.50    4.10
  -3  -4   2   17.30    6.50
   3  -4  -2   28.90    3.70
   3  -4  -2   30.90    4.50
   3  -4  -2   30.40    3.60
   3  -4  -2   26.60    6.60
  -3  -4   2   31.50    4.20
  -3  -4   2   34.20    5.30
  -3   4   2   28.20    3.70
  -3   4   2   27.30    4.10
  -3   4   2   34.90    7.20
   3   4  -2   23.60    5.50
   3   4  -2   27.50    7.50
   3   4  -2   21.80    5.10
   2  -4  -2 1412.56   96.39
  -2  -4   2 1565.04   95.59
   2  -4  -2 1459.25   94.79
   2  -4  -2 1539.35   95.09
  -2  -4   2 1564.34   95.39
  -2  -4   2 1296.47   95.59
   2  -4  -2 1537.75   95.49
   2   4  -2 1613.34   95.79
   2   4  -2 1318.57   95.19
   2   4  -2 1412.76   96.99
   2   4  -2 1545.05   95.99
  -2   4   2 1405.66   95.09
  -2   4   2 1307.37   96.09
   2   4  -2 1359.96   95.49
  -2   4   2 1309.87   94.69
  -1  -4   2    8.00    2.30
   1  -4  -2    6.90    2.70
   1  -4  -2    7.70    2.20
  -1  -4   2   10.10    2.70
  -1  -4   2    1.50    3.00
  -1  -4   2    4.50    2.60
   1   4  -2    7.10    2.90
  -1   4   2    7.60    2.30
   1   4  -2    6.80    2.20
  -1   4   2    5.60    2.20
   1   4  -2    7.40    2.40
   1   4  -2    5.20    2.40
  -1   4   2    7.50    2.50
   1   4  -2    4.60    3.40
  -1   4   2    4.00    1.10
   0  -4   2 4266.37  319.67
   0  -4  -2 4739.73  319.57
   0  -4   2 5450.85  319.47
   0  -4   2 5453.15  319.67
   0  -4  -2 5046.70  319.47
   0   4  -2 4937.91  319.97
   0   4  -2 4783.62  319.47
   0   4   2 4887.81  319.47
   0   4   2 4354.86  319.37
   1  -4   2  909.51   56.99
  -1  -4  -2  809.12   56.29
  -1  -4  -2  828.92   56.89
  -1  -4  -2  955.70   56.99
  -1   4  -2  950.60   57.39
  -1   4  -2  814.02   55.69
   1   4   2  842.82   56.89
  -1   4  -2  777.22   56.59
  -1   4  -2  819.72   56.99
   1   4   2  767.42   56.89
   1   4   2  755.62   55.99
  -1   4  -2  899.51   57.99
   1   4   2  934.91   57.89
  -2  -4  -2 7421.16  442.26
   2  -4   2 6950.90  441.86
   2  -4   2 7226.68  442.26
   2   4   2 6645.44  443.16
   2   4   2 6088.89  441.86
  -2   4  -2 6130.69  441.86
  -2   4  -2 6898.91  443.36
   3  -4   2   23.40    3.70
  -3  -4  -2   20.60    3.40
  -3  -4  -2   29.90    4.60
  -3  -4  -2   25.80    2.80
   3   4   2   20.00    3.70
   3   4   2   18.00    5.70
  -3   4  -2   20.80    5.60
   3   4   2   19.00    4.50
   3   4   2   20.50    3.90
  -3   4  -2   26.80    3.70
  -3   4  -2   23.30    3.30
  -4  -4  -2 1641.64  109.69
   4  -4   2 1664.23  106.39
  -4  -4  -2 1764.42  107.49
   4  -4   2 1668.93  106.99
   4   4   2 1563.04  107.99
   4   4   2 1537.05  107.89
  -4   4  -2 1552.84  107.59
   5  -4   2    1.90    1.50
  -5  -4  -2    0.90    2.30
  -5   4  -2   -4.20    3.50
  -5   4  -2    1.00    1.80
  -5   4  -2   -1.80    2.10
   5   4   2    0.40    2.80
   5   4   2    0.80    3.00
   5   4   2   -1.50    7.20
   6  -4   2  300.27   22.90
   6  -4   2  313.07   20.70
   6  -4   2  283.57   23.10
   6   4   2  312.17   21.80
  -6   4  -2  300.77   22.40
   6   4   2  299.87   22.90
  -6   4  -2  293.17   22.90
   7  -4   2   21.00    6.10
  -7  -4  -2    6.90    7.10
   7  -4   2   12.60    3.90
  -7   4  -2   12.30    3.20
   7   4   2   17.50    5.00
  -7   4  -2    6.80    3.00
   7   4   2   19.30    5.00
   8  -4   2  251.17   17.30
   8  -4   2  208.88   18.60
  -8   4  -2  231.38   18.40
   8   4   2  210.18   17.70
   8   4   2  217.58   19.00
   9  -4   2   23.30    5.20
  10  -4   2  119.49   11.30
  10   4   2  137.09   11.50
  10   4   2  121.79   10.50
  11  -5  -2   51.79    7.60
  11   5  -2   63.59    7.60
  11   5  -2   65.59    7.10
  10  -5  -2    7.50    4.20
  10   5  -2    2.50    3.30
  10   5  -2   10.90    3.90
   9  -5  -2  197.38   16.70
   9   5  -2  210.78   18.30
   9   5  -2  185.68   17.10
   8  -5  -2    0.50    5.70
   8   5  -2   -0.10    4.60
   8   5  -2    2.40    4.90
   7  -5  -2  641.34   39.50
   7  -5  -2  526.35   39.30
   7  -5  -2  533.55   40.20
   7   5  -2  541.15   38.90
   7   5  -2  517.15   39.50
  -7   5   2  549.45   38.50
   6  -5  -2   63.09    7.90
   6  -5  -2   62.09    6.50
   6  -5  -2   74.59    7.80
   6   5  -2   54.69    7.10
  -6   5   2   63.39    7.20
  -6   5   2   61.49    6.90
   6   5  -2   49.70    7.60
  -5  -5   2 1184.98   82.59
   5  -5  -2 1266.77   83.99
   5  -5  -2 1362.76   83.09
   5  -5  -2 1341.07   85.09
  -5  -5   2 1234.28   86.49
   5   5  -2 1164.48   83.99
  -5   5   2 1214.68   82.39
  -5   5   2 1229.58   83.49
   5   5  -2 1185.48   83.49
  -5   5   2 1260.27   83.19
  -5   5   2 1334.67   82.09
   4  -5  -2    2.20    2.90
   4  -5  -2    5.10    2.00
  -4  -5   2    0.40    2.50
   4  -5  -2    0.50    1.50
  -4   5   2    2.00    2.60
  -4   5   2    3.60    3.50
   4   5  -2    0.40    3.20
   4   5  -2   -1.60    6.20
  -4   5   2    2.50    2.40
  -4   5   2    3.40    1.40
   4   5  -2    1.40    2.80
   3  -5  -2 2214.68  140.59
   3  -5  -2 2245.08  139.79
   3  -5  -2 2339.17  139.99
  -3  -5   2 2243.88  140.39
  -3  -5   2 2313.17  140.79
   3  -5  -2 2021.70  141.69
  -3   5   2 2141.19  140.59
   3   5  -2 1911.91  140.19
  -3   5   2 2008.20  139.79
   3   5  -2 1933.41  142.39
   3   5  -2 2014.30  140.59
   3   5  -2 2298.47  141.49
  -3   5   2 1997.00  139.89
   2  -5  -2   86.29    7.80
  -2  -5   2   81.19    9.30
   2  -5  -2   74.29   11.10
  -2  -5   2   87.79    7.70
  -2  -5   2   90.69    7.40
   2   5  -2   79.29   10.70
   2   5  -2   77.29    9.90
   2   5  -2   88.49    8.40
   2   5  -2   77.79    7.90
  -2   5   2   83.79    7.50
   2   5  -2   85.89    8.90
  -2   5   2   76.49    8.70
  -2   5   2   89.79    7.10
  -1  -5   2 2982.00  185.98
   1  -5  -2 2715.43  186.58
  -1  -5   2 2470.35  186.08
   1  -5  -2 2942.41  185.88
  -1  -5   2 3119.29  185.68
  -1   5   2 2555.24  185.68
   1   5  -2 3167.08  185.68
  -1   5   2 2577.24  184.88
  -1   5   2 2453.55  185.98
   1   5  -2 3089.79  186.48
  -1   5   2 2741.63  185.48
   1   5  -2 2873.51  187.28
  -1   5   2 3047.50  186.28
   1   5  -2 2789.32  185.88
   0  -5  -2   59.39    5.70
   0  -5   2   68.49    7.10
   0  -5   2   55.99    9.20
   0  -5  -2   62.39    6.90
   0  -5   2   61.89    6.60
   0   5  -2   72.59    6.40
   0   5   2   69.99    8.10
   0   5  -2   65.19    7.90
   0   5   2   75.19    8.40
   1  -5   2 3578.54  212.78
  -1  -5  -2 3594.94  212.78
  -1  -5  -2 3096.59  212.68
  -1  -5  -2 3340.97  211.48
  -1   5  -2 3414.26  213.88
   1   5   2 2809.42  212.38
   1   5   2 2737.43  212.38
  -1   5  -2 3245.58  212.68
  -1   5  -2 3171.08  211.28
   1   5   2 3364.76  213.58
  -2  -5  -2   87.89    7.60
   2  -5   2   73.29    6.90
  -2  -5  -2   82.89    7.70
  -2  -5  -2   77.49    6.40
   2  -5   2   91.19    7.70
  -2   5  -2   78.79    7.10
  -2   5  -2   87.19    7.80
   2   5   2   75.49    6.60
   2   5   2   64.79    7.40
  -2   5  -2   85.99    9.30
   2   5   2   72.29    7.80
   2   5   2   78.09    8.80
  -3  -5  -2 2821.82  177.98
  -3  -5  -2 2817.52  179.88
   3   5   2 2719.83  177.98
  -3   5  -2 2941.11  178.18
   3   5   2 2471.45  178.68
   3   5   2 2288.07  179.98
  -3   5  -2 3017.20  180.88
  -3   5  -2 2642.54  178.58
   4  -5   2    4.30    3.10
  -4  -5  -2   12.80    3.60
  -4  -5  -2    9.70    2.90
   4  -5   2    6.50    2.90
  -4   5  -2    6.00    2.00
   4   5   2    4.40    2.90
   4   5   2    9.20    3.00
  -5  -5  -2 1176.08   78.79
   5  -5   2  993.00   77.09
  -5   5  -2 1152.78   75.99
   5   5   2 1102.09   75.89
   5   5   2 1145.39   74.89
  -5   5  -2 1172.58   75.49
   6  -5   2    7.40    5.80
  -6  -5  -2    2.50    5.20
   6  -5   2   11.50    2.40
   6   5   2   14.50    3.90
   6   5   2    5.70    4.30
  -6   5  -2    7.80    2.80
   7  -5   2  428.46   33.00
  -7  -5  -2  432.46   37.80
   7  -5   2  469.15   33.20
   7   5   2  472.75   31.80
  -7   5  -2  471.35   32.50
   7   5   2  437.66   33.10
  -7   5  -2  410.56   32.80
   8   5   2   -2.00    4.80
   8   5   2    3.00    3.70
   9  -5   2  131.59   11.70
   9   5   2  100.39   11.30
   9   5   2  112.99   10.70
  10  -5   2   -6.50    4.90
  10   5   2    6.30    3.60
  10   5   2    9.90    4.40
  11  -6  -2    3.30    6.10
  11   6  -2    7.60    4.40
  10  -6  -2   79.29    8.40
  10   6  -2   99.09    8.60
  10   6  -2   84.79    9.50
   9  -6  -2   -0.40    3.80
   9   6  -2   -1.90    3.30
   9   6  -2    1.90    3.30
   8  -6  -2  167.48   14.90
   8   6  -2  144.99   15.10
  -8   6   2  164.88   14.30
   8   6  -2  165.98   14.40
   7  -6  -2   -0.70    4.90
   7  -6  -2    3.10    2.40
   7   6  -2   -1.60    4.80
   7   6  -2   -2.50    3.90
  -7   6   2   -0.20    2.40
   6  -6  -2  838.22   54.89
  -6  -6   2  841.32   56.89
   6  -6  -2  801.32   52.19
   6  -6  -2  723.73   53.49
   6   6  -2  732.83   53.89
  -6   6   2  706.73   54.89
  -6   6   2  785.32   52.79
   6   6  -2  778.92   53.09
  -5  -6   2   43.60    9.20
   5  -6  -2   58.09    5.70
   5  -6  -2   64.69    7.80
  -5  -6   2   39.20    6.40
   5  -6  -2   47.70    6.80
   5   6  -2   44.10    6.20
   5   6  -2   42.00    7.60
  -5   6   2   50.29    7.00
  -5   6   2   59.49    6.00
  -4  -6   2 1943.21  132.79
  -4  -6   2 2043.80  135.59
   4  -6  -2 1973.40  134.29
   4   6  -2 1931.21  132.89
   4   6  -2 2026.80  132.39
  -4   6   2 2017.00  131.99
  -4   6   2 2072.89  131.89
  -3  -6   2   24.10    6.00
   3  -6  -2   22.60    6.80
  -3  -6   2   15.90    5.80
   3   6  -2   23.40    5.70
   3   6  -2   26.50    4.80
   3   6  -2   24.30    5.40
  -3   6   2   23.30    6.10
  -3   6   2   33.30    4.40
  -3   6   2   21.10    4.90
  -2  -6   2 6054.79  361.36
   2  -6  -2 5028.30  362.06
   2  -6  -2 5984.90  361.26
   2   6  -2 5089.19  360.56
  -2   6   2 5540.15  361.46
  -2   6   2 5391.66  360.16
   2   6  -2 4609.34  362.56
   2   6  -2 6173.58  361.56
   2   6  -2 5709.83  361.36
  -2   6   2 5513.85  360.46
   1  -6  -2  211.98   15.60
  -1  -6   2  202.98   15.50
  -1  -6   2  206.28   15.10
   1  -6  -2  194.78   16.50
  -1   6   2  203.68   16.00
  -1   6   2  187.48   15.20
  -1   6   2  171.88   15.40
   1   6  -2  209.88   15.20
   1   6  -2  180.18   15.50
   1   6  -2  193.08   17.50
  -1   6   2  177.38   14.50
   1   6  -2  218.88   16.60
   0  -6  -2 3133.19  234.68
   0  -6   2 3824.92  234.58
   0  -6  -2 3637.94  233.28
   0  -6  -2 3829.42  234.58
   0  -6   2 3816.52  234.18
   0   6  -2 3583.84  235.68
   0   6  -2 3469.05  233.28
   0   6   2 3517.25  234.88
   0   6  -2 3246.38  234.18
   0   6  -2 3550.84  235.28
  -1  -6  -2   -0.80    2.30
  -1  -6  -2    4.00    2.20
  -1  -6  -2   -0.80    2.90
   1  -6   2    1.80    2.60
   1  -6   2   -4.90    3.60
  -1   6  -2   -0.80    3.00
   1   6   2   -2.00    2.10
   1   6   2   -0.70    3.70
  -1   6  -2    0.00    1.70
  -1   6  -2   -1.60    2.00
  -1   6  -2   -3.60    3.50
  -1   6  -2   -1.70    1.20
  -2  -6  -2  346.87   25.00
  -2  -6  -2  345.87   23.40
   2  -6   2  366.56   26.10
  -2  -6  -2  362.56   25.00
   2   6   2  323.57   23.60
  -2   6  -2  337.97   24.20
   2   6   2  307.47   24.60
  -3  -6  -2   40.50    5.30
  -3  -6  -2   32.90    4.60
   3  -6   2   33.20    6.70
  -3  -6  -2   30.10    4.20
  -3   6  -2   32.50    5.30
   3   6   2   32.90    5.30
  -3   6  -2   37.50    5.00
   3   6   2   32.80    5.10
   3   6   2   26.00    5.50
  -4  -6  -2  916.61   65.39
  -4  -6  -2  956.40   62.99
  -4   6  -2  917.11   63.59
  -4   6  -2  958.40   62.69
   4   6   2  969.70   63.59
   4   6   2  952.70   62.99
   4   6   2  925.61   64.19
  -5  -6  -2    9.70    4.80
   5  -6   2    3.20    3.50
   5   6   2   10.60    3.70
  -5   6  -2    8.70    2.40
  -5   6  -2    8.70    2.50
  -6  -6  -2  823.92   60.49
   6  -6   2  832.32   58.49
   6  -6   2  813.12   57.09
  -6   6  -2  841.82   56.39
   6   6   2  807.42   56.99
   6   6   2  857.31   55.59
  -6   6  -2  762.82   56.29
   7  -6   2   12.40    6.50
  -7   6  -2   10.90    3.40
   7   6   2    7.20    4.80
   7   6   2   13.00    4.70
   8  -6   2  295.47   22.70
   8  -6   2  293.87   23.20
  -8   6  -2  299.07   22.70
   8   6   2  292.37   21.90
   8   6   2  277.47   23.30
   9  -6   2    9.80    4.50
  -9   6  -2    3.40    2.10
   9   6   2    7.30    3.30
   9   6   2    2.00    3.20
  10  -6   2   42.50    7.10
  10   6   2   51.89    6.10
  10  -7  -2   14.60    5.40
  10   7  -2   25.50    6.00
   9  -7  -2  127.79   12.20
   9  -7  -2  156.08   12.10
   9   7  -2  131.29   11.90
   9   7  -2  122.19   13.00
   8  -7  -2   -2.40    2.90
   8   7  -2    3.90    4.80
  -8   7   2   -1.00    2.20
   8   7  -2   -1.80    5.10
   7  -7  -2  194.08   16.20
   7  -7  -2  156.88   15.50
   7   7  -2  167.68   14.90
  -7   7   2  193.28   15.00
   7   7  -2  154.58   16.00
   6  -7  -2   30.10    6.90
   6  -7  -2   20.80    6.60
   6   7  -2   28.20    6.20
   6   7  -2   20.20    5.50
  -6   7   2   29.70    6.70
   5  -7  -2  921.31   66.39
  -5  -7   2 1022.00   68.39
  -5  -7   2  901.21   63.99
   5  -7  -2  917.91   64.59
  -5   7   2  988.60   63.89
  -5   7   2  932.21   63.59
   5   7  -2  900.51   64.99
  -5   7   2  993.10   63.89
   5   7  -2  948.91   64.19
   4  -7  -2    1.90    4.30
  -4  -7   2   -3.10    7.50
  -4  -7   2    5.70    5.40
   4   7  -2    0.10    3.30
  -4   7   2    5.70    3.00
  -4   7   2    4.30    1.70
   4   7  -2    4.40    3.80
  -3  -7   2 3374.36  223.38
  -3  -7   2 2874.11  221.08
   3  -7  -2 3086.99  222.38
   3   7  -2 3458.85  220.48
  -3   7   2 3748.72  220.18
  -3   7   2 3398.46  219.98
   3   7  -2 3514.75  221.28
  -2  -7   2   -3.80    2.50
  -2  -7   2   -4.70    3.40
  -2   7   2    0.30    2.90
   2   7  -2   -3.80    2.90
  -2   7   2    2.60    3.20
  -2   7   2   -0.40    1.60
   2   7  -2   -4.00    2.70
   2   7  -2   -0.40    3.80
  -1  -7   2 2609.54  204.68
  -1  -7   2 3388.66  203.58
   1  -7  -2 2776.62  204.78
  -1   7   2 2746.73  204.18
  -1   7   2 3081.19  203.98
   1   7  -2 3164.58  204.18
   1   7  -2 3490.45  205.18
   1   7  -2 3488.25  203.68
  -1   7   2 3045.80  203.28
   0  -7   2   57.09    7.60
   0  -7   2   78.29    9.90
   0  -7  -2   46.90    8.30
   0  -7   2   69.79    8.20
   0   7  -2   49.30    7.30
   0   7   2   48.90    7.00
   0   7  -2   67.29    6.80
   0   7  -2   70.69   10.50
   0   7   2   49.30    7.70
  -1  -7  -2  587.84   38.60
   1  -7   2  495.25   38.20
  -1   7  -2  562.74   38.00
  -1   7  -2  514.65   37.00
   1   7   2  515.05   37.70
  -2  -7  -2   26.50    3.90
  -2  -7  -2   25.70    4.10
  -2  -7  -2   26.70    5.70
   2  -7   2   18.70    4.90
   2   7   2   23.90    5.10
  -2   7  -2   20.20    6.30
   2   7   2   18.90    5.10
  -2   7  -2   33.50    4.60
   2   7   2   23.20    5.30
  -3  -7  -2  702.93   46.50
  -3  -7  -2  738.43   48.80
  -3  -7  -2  666.23   47.90
   3  -7   2  746.13   48.50
   3   7   2  673.93   47.80
  -3   7  -2  748.33   47.80
  -3   7  -2  638.24   47.20
   3   7   2  645.74   46.90
   3   7   2  660.23   47.90
  -4  -7  -2   -0.50    2.90
  -4  -7  -2    4.00    4.20
  -4   7  -2    7.10    2.30
   4   7   2    6.70    3.10
   4   7   2    8.00    3.20
  -4   7  -2    1.30    2.60
   4   7   2    0.00    3.50
   5  -7   2 1135.19   80.29
  -5  -7  -2 1052.59   84.09
   5   7   2 1200.48   76.89
  -5   7  -2 1118.69   77.59
   5   7   2 1283.57   76.89
   5   7   2 1087.49   78.19
   6  -7   2   -3.20    3.40
   6   7   2    0.40    4.00
  -6   7  -2    2.10    2.70
   6   7   2    4.30    3.10
   7  -7   2  686.53   46.20
   7  -7   2  582.84   44.10
   7   7   2  558.54   43.90
   7   7   2  609.84   42.40
  -7   7  -2  620.04   43.50
   8  -7   2    0.60    3.90
   8   7   2    1.90    3.40
  -8   7  -2    2.00    2.00
   8   7   2    6.10    3.40
   9  -7   2   87.79    9.00
   9   7   2   89.59    7.70
   9   7   2   78.29    8.90
  -9   7  -2   62.89    8.20
  10   7   2   11.20    5.40
  10   8  -2   71.79    7.90
  10   8  -2   73.49    7.80
   9  -8  -2   13.70    4.80
   9  -8  -2    6.00    4.10
   9   8  -2   12.10    3.90
   9   8  -2    7.30    3.40
   8  -8  -2  259.37   20.40
   8  -8  -2  235.38   19.60
  -8   8   2  250.37   18.90
   8   8  -2  216.68   19.60
   8   8  -2  221.68   19.30
   7  -8  -2   -4.40    4.00
   7   8  -2    2.80    4.50
   7   8  -2   -4.00    4.20
  -7   8   2   -1.30    2.30
   6  -8  -2  567.94   41.10
  -6  -8   2  552.44   38.60
   6  -8  -2  578.84   43.20
  -6   8   2  542.65   39.30
  -6   8   2  621.44   40.10
   6   8  -2  537.25   41.30
   6   8  -2  589.64   40.40
  -5  -8   2   39.00   10.40
   5   8  -2   42.30    6.50
   5   8  -2   38.80    8.90
  -5   8   2   40.20    5.80
  -5   8   2   39.50    6.70
  -4  -8   2  948.11   64.09
  -4  -8   2  990.50   67.39
   4  -8  -2  875.61   65.69
   4   8  -2  884.61   62.99
   4   8  -2  945.31   64.19
  -4   8   2  905.41   62.29
  -4   8   2  950.70   62.69
  -3  -8   2   20.30    7.90
   3  -8  -2   19.40    6.70
   3   8  -2   21.80    5.90
  -3   8   2   33.30    5.80
  -3   8   2   35.90    4.70
   3   8  -2   27.60    6.60
   3   8  -2   30.60    5.40
  -2  -8   2 1791.72  130.59
  -2  -8   2 1947.71  132.19
   2  -8  -2 1956.20  131.89
  -2   8   2 2030.80  128.99
   2   8  -2 2015.80  130.39
   1  -8  -2   48.10    9.90
  -1   8   2   27.40    5.90
  -1   8   2   30.50    4.60
   1   8  -2   21.20    5.80
  -1   8   2   30.30    5.10
   1   8  -2   36.30    7.60
   0  -8  -2 1614.44  120.69
   0  -8  -2 2008.50  118.59
   0  -8   2 1671.43  120.79
   0   8  -2 1800.32  119.99
   0   8   2 1689.03  119.69
   0   8  -2 1954.20  118.89
   1  -8   2    2.50    3.80
  -1   8  -2    4.00    3.00
   1   8   2    5.30    2.80
  -1   8  -2    4.90    2.00
  -2  -8  -2 1292.67   90.59
  -2  -8  -2 1478.05   90.29
   2  -8   2 1360.26   90.89
  -2  -8  -2 1401.26   88.79
  -2   8  -2 1293.37   87.59
  -2   8  -2 1347.57   87.69
   2   8   2 1119.49   89.89
  -2   8  -2 1426.26   91.49
  -2   8  -2 1317.37   89.69
  -3  -8  -2    1.80    3.20
  -3   8  -2   -2.70    4.50
   3   8   2    4.90    3.70
  -4  -8  -2 1167.68   78.49
   4  -8   2 1038.30   78.99
   4   8   2 1021.10   77.09
   4   8   2 1194.28   76.99
  -4   8  -2 1184.28   76.19
  -4   8  -2 1131.49   76.69
   4   8   2 1185.58   75.79
   5  -8   2   -4.70    4.10
  -5   8  -2    3.20    2.70
   5   8   2   -0.30    4.40
   5   8   2   -1.80    2.60
   6  -8   2  476.15   36.10
   6   8   2  420.86   33.60
   6   8   2  453.35   31.60
  -6   8  -2  449.86   33.00
   7  -8   2   -2.30    4.10
   7   8   2    5.80    3.50
   7   8   2   -2.80    6.00
  -7   8  -2    3.70    3.30
   8  -8   2   97.09   11.60
   8  -8   2   84.29    9.40
  -8   8  -2   69.59    9.30
   8   8   2   85.59    9.60
   8   8   2  101.09    8.80
   9   8   2   26.10    5.60
   9   8   2   23.50    6.40
  10  -9  -2    0.40    6.40
  10   9  -2   12.30    5.60
   9  -9  -2  135.29   11.90
  -9   9   2  110.79   11.10
   9   9  -2  124.39   11.50
   9   9  -2  136.79   11.00
   8  -9  -2   -3.60    4.30
  -8   9   2   -0.10    1.90
   8   9  -2    7.40    3.80
   8   9  -2    4.20    3.70
   7  -9  -2  311.47   24.90
   7  -9  -2  309.07   26.50
   7   9  -2  336.67   24.50
  -7   9   2  320.47   23.90
   7   9  -2  287.07   26.60
   6  -9  -2   -3.60    4.00
  -6  -9   2   -2.70    3.30
   6  -9  -2    2.30    5.10
   6   9  -2    4.70    4.70
  -6   9   2    6.80    2.70
   6   9  -2    5.30    4.60
  -6   9   2    3.50    3.70
   5  -9  -2  607.44   45.50
  -5  -9   2  628.94   42.20
  -5  -9   2  692.23   47.90
   5   9  -2  593.14   42.30
  -5   9   2  582.04   41.70
  -5   9   2  568.14   41.00
   5   9  -2  536.55   43.20
   4   9  -2    3.10    3.70
  -3  -9   2  867.31   54.69
   3  -9  -2  759.92   55.89
  -3  -9   2  804.32   56.79
  -3   9   2  782.52   52.39
  -3   9   2  770.22   52.59
   3   9  -2  715.33   52.79
   3   9  -2  681.53   53.59
   2  -9  -2   -5.00    3.80
  -2  -9   2    1.90    4.80
  -2  -9   2    3.10    3.10
  -2   9   2    2.30    1.40
   1  -9  -2  597.14   43.70
  -1  -9   2  516.95   42.40
  -1  -9   2  570.74   43.50
   1   9  -2  587.54   42.00
  -1   9   2  633.44   41.00
  -1   9   2  600.24   40.40
  -1   9   2  594.54   42.10
   0  -9   2    5.80    5.60
   0  -9   2    1.60    4.70
   0  -9  -2    4.20    3.60
   0   9  -2    1.90    3.00
   0   9  -2    1.60    2.00
   0   9   2   -4.10    2.70
   0   9  -2   -4.50    3.00
  -1  -9  -2 2313.77  155.68
   1  -9   2 2023.10  155.68
   1  -9   2 2479.25  155.98
  -1  -9  -2 2540.95  153.18
   1   9   2 2189.88  154.68
  -1   9  -2 2369.66  153.98
  -1   9  -2 2321.37  154.98
   2  -9   2   38.90   10.60
  -2  -9  -2   32.00    5.60
   2  -9   2   42.10    8.20
  -2   9  -2   40.70    6.50
  -2   9  -2   36.50    4.20
   3  -9   2 1575.74  114.19
  -3  -9  -2 1797.22  112.19
   3   9   2 1660.43  112.49
  -3   9  -2 1628.44  111.59
   4  -9   2   -1.30    4.50
   4   9   2   -4.80    4.50
   4   9   2   -0.50    2.30
  -4   9  -2    1.00    2.80
   5  -9   2  410.96   32.10
  -5   9  -2  388.16   28.90
   5   9   2  384.06   27.40
   5   9   2  360.86   29.70
   6  -9   2   -4.30    4.40
   6   9   2   -4.40    3.30
  -6   9  -2    2.80    2.40
   6   9   2    2.60    2.70
   7  -9   2  138.39   15.20
  -7   9  -2  133.89   12.30
   7   9   2  120.99   12.70
   7   9   2  129.39   10.70
   8  -9   2   -2.80    4.60
   8   9   2    4.00    3.50
   8   9   2    7.00    3.90
   9  -9   2   51.29    7.90
   9  10  -2   35.40    6.50
   9  10  -2   40.70    6.80
   8 -10  -2  169.78   16.80
   8 -10  -2  177.08   15.90
   8  10  -2  198.78   15.00
   8  10  -2  196.18   16.30
  -8  10   2  174.48   14.90
   7 -10  -2   -2.00    4.20
   7 -10  -2    2.10    4.20
   7  10  -2   10.90    4.10
  -7  10   2   -1.30    1.90
   7  10  -2    6.50    3.80
   6 -10  -2  447.16   33.70
  -6 -10   2  346.57   28.20
   6 -10  -2  393.76   30.40
   6  10  -2  392.16   30.90
   6  10  -2  407.26   29.60
  -6  10   2  395.96   29.10
   5 -10  -2   20.00    7.00
  -5 -10   2    8.30    2.80
  -5  10   2   14.50    4.10
   5  10  -2   16.50    5.50
  -5  10   2   12.10    2.90
  -4 -10   2  445.66   31.00
   4 -10  -2  396.56   33.50
  -4 -10   2  445.46   35.10
  -4  10   2  392.56   29.40
   4  10  -2  392.26   31.50
   4  10  -2  391.26   30.10
  -3 -10   2    2.90    3.10
  -3 -10   2   -0.90    6.30
   3 -10  -2   -6.60    5.10
  -3  10   2   -1.00    1.50
   3  10  -2   -4.20    4.10
  -3  10   2   -1.10    1.40
  -2 -10   2  782.52   55.49
   2 -10  -2  770.82   55.09
  -2 -10   2  783.82   54.09
  -2  10   2  758.02   51.29
  -2  10   2  704.93   51.19
   2  10  -2  699.73   52.89
  -1 -10   2  184.98   17.90
   1 -10  -2  155.28   17.70
  -1 -10   2  155.08   16.90
  -1  10   2  151.58   15.00
  -1  10   2  166.08   13.40
  -1  10   2  182.38   13.50
   1  10  -2  154.48   15.00
   0 -10   2  984.80   79.69
   0 -10   2 1181.38   80.59
   0 -10  -2 1150.98   80.49
   0  10  -2 1175.48   77.89
   0  10   2 1090.69   78.79
   0  10  -2 1130.19   78.99
   0  10  -2 1332.07   77.99
   1 -10   2   46.60   11.30
   1 -10   2   51.79    9.50
  -1  10  -2   36.80    6.90
  -1  10  -2   44.60    6.70
  -1  10  -2   35.60    7.60
   2 -10   2 1524.15  111.39
  -2 -10  -2 1693.93  110.49
   2  10   2 1522.85  109.69
  -2  10  -2 1597.54  108.79
  -2  10  -2 1689.23  107.29
  -2  10  -2 1690.33  106.59
   3 -10   2   14.50    6.40
   3  10   2   10.10    5.00
  -3  10  -2    7.10    3.40
  -4 -10  -2  689.13   46.10
   4 -10   2  673.93   49.90
   4  10   2  645.54   47.70
  -4  10  -2  622.04   46.50
   5 -10   2   22.80    7.70
   5  10   2   10.60    5.40
   5  10   2   22.00    3.90
   6 -10   2  190.68   18.10
   6  10   2  166.08   13.20
  -6  10  -2  140.69   14.30
   6  10   2  143.19   14.80
   7  10   2   12.20    3.70
   7  10   2   10.00    3.80
   8 -10   2   64.69    8.30
   8  10   2   88.09    8.90
   8  10   2   90.89    7.80
   9 -11  -2   33.60    7.00
   8  11  -2   26.70    6.30
   7 -11  -2  208.88   19.40
   7 -11  -2  202.48   17.50
   7  11  -2  200.08   18.00
  -7  11   2  193.78   16.30
   7  11  -2  225.68   16.70
   6  11  -2    1.30    4.60
   6  11  -2   -3.80    3.10
  -5 -11   2  440.86   32.00
   5 -11  -2  473.75   36.30
   5  11  -2  402.76   33.20
  -5  11   2  409.96   31.40
   5  11  -2  438.26   32.10
   4 -11  -2   -1.60    5.90
  -4 -11   2   -1.60    2.80
  -4  11   2   -1.90    2.00
  -4  11   2    0.90    2.30
   4  11  -2    1.30    4.50
  -3 -11   2  350.36   26.90
   3 -11  -2  321.77   28.80
  -3 -11   2  380.56   30.60
   3  11  -2  303.07   26.20
  -3  11   2  334.67   23.70
  -3  11   2  297.97   24.30
  -2 -11   2   29.60    9.70
   2 -11  -2   20.90    7.20
  -2 -11   2   21.30    6.20
   2  11  -2   17.10    5.70
  -2  11   2   24.20    3.90
  -2  11   2   22.20    4.90
  -1 -11   2  700.23   48.50
   1 -11  -2  637.84   47.90
  -1 -11   2  632.64   47.20
  -1  11   2  656.63   44.20
   1  11  -2  599.64   45.80
  -1  11   2  636.14   43.90
  -1  11   2  563.94   45.60
   0 -11   2   22.40    7.10
   0 -11  -2    9.80    6.40
   0  11  -2    9.80    3.50
   0  11   2   16.00    5.90
   0  11  -2   17.00    5.40
   1 -11   2 1230.98   90.69
  -1 -11  -2 1344.57   90.59
  -1  11  -2 1309.77   89.59
  -1  11  -2 1343.07   88.29
   1  11   2 1270.17   89.29
   2 -11   2    6.30    6.00
   2  11   2   -2.10    4.20
  -2  11  -2   -1.40    2.80
  -2  11  -2   -2.20    2.20
  -3 -11  -2  893.51   61.59
   3 -11   2  960.30   64.59
   3  11   2  823.92   61.79
  -3  11  -2  827.32   60.59
   4 -11   2   15.40    6.90
   4  11   2    4.30    4.90
  -4  11  -2    6.30    3.10
   5 -11   2  175.28   19.70
   5  11   2  141.99   16.70
   6 -11   2   -5.60    4.10
   6  11   2    2.40    3.30
   7 -11   2   78.09    8.60
   7 -11   2   74.79   11.00
   7  11   2   90.19    9.10
   8 -12  -2   31.60    9.60
   7  12  -2    3.60    3.70
   6 -12  -2  195.58   18.10
   6 -12  -2  176.58   14.60
   6  12  -2  176.18   15.00
   6  12  -2  178.58   16.40
  -6  12   2  139.39   15.50
   5  12  -2    0.90    3.50
  -4 -12   2  407.26   29.20
   4 -12  -2  369.56   31.40
  -4  12   2  323.07   26.50
  -4  12   2  360.16   25.60
   4  12  -2  325.17   29.30
  -3 -12   2   11.20    6.50
   3 -12  -2    6.50    7.10
   3  12  -2   -3.30    4.70
   2 -12  -2 1085.49   78.39
  -2 -12   2 1117.49   77.39
  -2  12   2 1132.29   74.09
   2  12  -2 1038.30   76.29
  -2  12   2 1096.39   74.39
  -1 -12   2    9.00    6.10
   1 -12  -2   -2.00    5.10
   1  12  -2   -4.20    4.10
  -1  12   2   -4.20    4.30
  -1  12   2    0.60    2.60
   0 -12   2  557.84   44.40
   0 -12  -2  576.84   44.70
   0  12   2  610.44   41.20
   0  12  -2  582.64   43.00
   0  12   2  613.04   41.60
   0  12   2  578.24   43.00
   0  12  -2  557.04   41.40
   1 -12   2    7.60    6.00
  -1  12  -2    1.60    3.00
  -1  12  -2   -5.70    4.50
   1  12   2   -5.50    3.70
  -1  12  -2    4.00    2.00
  -2 -12  -2  227.88   22.70
   2 -12   2  281.07   24.80
   2  12   2  248.98   22.00
  -2  12  -2  281.27   21.30
   3 -12   2   15.70    6.50
   3  12   2    8.90    4.50
  -4 -12  -2  228.68   19.40
   4  12   2  261.97   21.20
  -4  12  -2  205.78   23.50
   5 -12   2    8.50    5.00
   5  12   2   -2.30    3.40
   6 -12   2  201.18   18.90
   6  12   2  175.68   15.40
  -6  12  -2  152.38   14.90
   8 -12   2   48.70    9.60
   8  13  -2   44.80   12.50
   7 -13  -2   51.49   10.40
   7 -13  -2   45.90    7.90
   6 -13  -2    5.70    5.30
  -5 -13   2  216.68   19.40
   5 -13  -2  251.17   22.70
   5  13  -2  229.88   20.30
  -4 -13   2    5.80    4.40
   4 -13  -2    6.80    5.30
  -4  13   2   10.00    2.70
   4  13  -2   12.00    4.40
   3 -13  -2  546.35   42.00
  -3 -13   2  561.04   40.50
  -3  13   2  501.65   36.30
   3  13  -2  490.75   39.30
  -3  13   2  514.55   37.50
   2 -13  -2   -4.50    5.80
  -2 -13   2   10.20    6.50
   2  13  -2    2.00    4.50
  -2  13   2    3.80    2.50
  -2  13   2   -0.70    2.20
  -1 -13   2  767.82   56.69
   1 -13  -2  760.72   56.79
   1  13  -2  770.52   53.09
  -1  13   2  726.03   54.59
   1  13  -2  725.63   54.39
  -1  13   2  753.02   52.49
  -1  13   2  791.72   52.69
   0 -13   2   98.09   15.70
   0  13   2   71.99    8.10
   0  13  -2   60.19    9.50
   0  13   2   62.59    9.40
   0  13  -2   69.39    9.50
   1 -13   2  264.97   23.30
  -1 -13  -2  177.58   20.70
  -1  13  -2  220.28   18.40
  -1  13  -2  193.08   19.60
   1  13   2  208.28   19.20
  -1  13  -2  238.98   16.00
   2 -13   2    1.20    6.30
  -3 -13  -2   85.09   11.50
  -3  13  -2   93.99   10.70
   4 -13   2    0.60    5.10
   4  13   2   -0.60    3.30
   5 -13   2  229.98   20.80
   5  13   2  190.88   17.70
   7 -13   2  101.59    9.90
   7 -13   2   64.89   12.00
   7  14  -2   57.99    9.20
   6 -14  -2   53.69    8.50
   6 -14  -2   47.00    9.60
   5  14  -2   22.70    6.50
  -4 -14   2  236.98   20.00
   4 -14  -2  257.87   23.00
   4  14  -2  238.18   20.30
  -4  14   2  216.08   18.40
   3  14  -2    0.50    3.50
   2 -14  -2  452.15   36.50
  -2  14   2  432.86   31.60
   2  14  -2  431.76   34.30
  -2  14   2  460.55   32.40
  -1 -14   2    5.90    6.10
  -1  14   2   -3.30    2.00
  -1  14   2   -4.00    3.00
   1  14  -2    4.40    2.00
   0 -14  -2  229.68   22.40
   0 -14   2  236.28   22.60
   0  14   2  262.57   19.10
   0  14  -2  228.08   20.60
   0  14  -2  251.37   19.50
   0  14   2  241.98   19.00
   0  14   2  222.38   20.60
   1 -14   2    8.60    5.30
   1  14   2    5.00    3.60
  -1  14  -2    0.20    2.20
   2 -14   2  195.78   19.90
   2  14   2  172.48   16.30
  -2  14  -2  162.68   15.40
   3 -14   2   10.80    5.40
   3  14   2    1.50    4.00
  -4 -14  -2  103.39   13.00
  -4  14  -2  131.99   12.10
   5 -14   2    5.40    5.00
   5  14   2   26.10    7.00
   6 -14   2  124.29   15.10
   6  14   2  173.28   13.20
   5 -15  -2  116.79   12.80
   5  15  -2  137.19   11.50
   4  15  -2    4.80    4.40
   3 -15  -2  131.79   14.60
  -3 -15   2  110.49   12.30
   3  15  -2  127.79   12.60
  -3  15   2   99.79   10.70
  -2 -15   2   -0.70    4.20
   2  15  -2   19.10    4.80
   2  15  -2    3.00    3.40
  -1 -15   2  199.68   17.60
   1 -15  -2  127.59   17.20
   1  15  -2  169.88   14.30
  -1  15   2  166.48   13.30
  -1  15   2  171.48   13.90
   1  15  -2  143.69   15.30
   0 -15   2    2.80    4.80
   0  15  -2   -0.30    3.50
   0  15  -2   -3.20    2.10
   0  15   2    0.60    2.10
   0  15   2   -2.70    3.70
   0  15   2    5.50    3.60
  -1 -15  -2  231.48   23.10
   1 -15   2  309.57   26.10
   1  15   2  277.07   21.40
   1  15   2  282.37   23.10
  -1  15  -2  269.67   21.70
   1  15   2  291.07   20.90
   2 -15   2    8.60    4.90
   2  15   2    4.70    3.60
   3 -15   2  204.48   19.00
  -3  15  -2  166.48   15.70
   3  15   2  189.18   16.20
   4 -15   2   -1.10    5.20
   4  15   2    8.60    4.40
   5 -15   2  100.89   13.50
   5  15   2  118.19   11.30
   4 -16  -2   46.30   10.10
   3  16  -2   -1.60    4.40
  -2 -16   2   50.29    9.00
   2 -16  -2   48.30    9.60
  -2  16   2   47.30    7.00
   1  16  -2    0.60    2.40
   1  16  -2    0.30    3.70
   0 -16  -2  108.19   14.00
   0 -16   2  146.79   14.80
   0  16  -2  143.99   12.50
   0  16   2  147.59   13.30
   0  16  -2  125.29   13.10
   0  16   2  139.69   11.50
   0  16   2  143.09   12.80
   1 -16   2   12.00    5.10
   1  16   2    0.40    4.30
   1  16   2    6.90    4.10
  -1  16  -2    3.40    2.50
   1  16   2    2.70    2.40
   2 -16   2  281.77   22.90
   2  16   2  261.97   19.30
   2  16   2  232.08   19.50
  -2  16  -2  242.78   20.00
   2  16   2  251.17   20.30
   3 -16   2    6.20    5.50
   3  16   2   13.70    4.50
   4 -16   2   79.39   12.20
   4  16   2   82.49   10.00
   2  17  -2   -0.20    3.00
   2  17  -2    3.20    4.50
   1 -17  -2   63.99   11.00
   1  17  -2   70.99    8.30
   0 -17   2   -5.30    5.00
   0  17  -2   -4.00    2.80
   0  17   2    2.30    4.60
   1 -17   2  115.99   13.70
  -1  17  -2   95.89   10.40
   1  17   2  118.89   11.40
   2 -17   2    6.30    7.60
   2  17   2   -1.60    3.10
   2  17   2    3.30    5.70
   2  17   2    1.10    5.50
  12   0  -3    9.30    5.80
  12   0  -3    7.70    6.00
  11   0  -3   55.69    7.70
  11   0  -3   74.59    7.60
  10   0  -3    9.10    4.10
   9   0  -3  259.57   20.70
   9   0  -3  255.67   21.60
   8   0  -3   -2.30    4.30
  -7   0   3  446.06   32.70
   7   0  -3  489.75   33.30
  -6   0   3   -2.70    3.70
  -6   0   3   -0.40    2.00
   6   0  -3    1.10    3.70
   6   0  -3    1.40    2.20
  -6   0   3   -0.80    2.80
   5   0  -3 2449.95  159.68
   5   0  -3 2079.49  159.98
   5   0  -3 2734.83  159.78
  -5   0   3 2243.88  160.58
   5   0  -3 2746.13  160.88
  -5   0   3 2348.27  159.78
   4   0  -3    1.60    2.80
  -4   0   3    5.20    3.10
  -4   0   3   -2.20    2.30
   4   0  -3   -0.50    2.10
   4   0  -3    0.30    1.10
   4   0  -3    4.60    2.70
  -4   0   3    4.50    3.40
   3   0  -3 7356.26  467.15
  -3   0   3 6948.40  466.75
   2   0  -3    0.00    1.50
  -2   0   3    0.60    1.50
   2   0  -3    1.00    1.40
  -2   0   3    0.80    1.40
   2   0  -3   -0.70    1.50
  -2   0   3    0.50    1.40
   1   0  -3 1948.51  131.49
  -1   0   3 1969.10  131.79
  -1   0   3 1927.91  131.89
  -1   0   3 2026.60  131.49
   1   0  -3 2188.38  131.89
   0   0   3   17.60    2.00
   0   0   3   16.30    1.70
   0   0   3   15.90    2.30
   0   0  -3   17.50    1.70
   0   0  -3   20.90    2.50
  -1   0  -3 1376.56   91.99
   1   0   3 1434.86   92.09
   2   0   3    0.00    0.80
  -2   0  -3    0.40    0.90
  -3   0  -3 4922.41  310.17
   3   0   3 4448.55  307.77
   3   0   3 5038.40  307.77
  -3   0  -3 4249.27  307.77
   3   0   3 4890.71  308.07
  -4   0  -3    1.10    1.50
  -4   0  -3    9.70    2.90
   4   0   3    0.40    2.90
   5   0   3 2109.89  159.78
   5   0   3 2733.83  160.58
  -5   0  -3 2400.86  162.48
   5   0   3 2305.57  159.78
   5   0   3 2590.54  160.38
   6   0   3   -2.80    2.50
   6   0   3   -1.20    3.80
  -6   0  -3    0.30    3.10
   6   0   3   -1.80    1.90
   7   0   3  334.57   24.80
   7   0   3  333.17   25.50
   7   0   3  339.67   22.50
  -7   0  -3  313.17   28.60
   8   0   3   -3.80    4.40
  -8   0  -3   -1.30    7.50
   9   0   3  196.28   17.00
  -9   0  -3  173.98   24.70
   9   0   3  194.88   15.80
  10   0   3   -0.50    3.50
  10   0   3    3.80    4.00
  11   0   3   10.10    5.30
  11   0   3   33.90    7.60
  12  -1  -3   65.29    9.40
  12  -1  -3   41.10   10.70
  12   1  -3   54.99    8.10
  12   1  -3   56.59   10.20
  11  -1  -3    0.50    4.10
  11  -1  -3    4.80    3.30
  11   1  -3    3.60    3.80
  11   1  -3    4.10    3.50
  10  -1  -3   95.59   11.50
  10  -1  -3  102.89   10.50
  10   1  -3   82.59   11.00
  10   1  -3  120.59   10.70
   9  -1  -3    2.10    4.50
   9   1  -3   -1.20    4.30
   9   1  -3   -4.20    4.00
   8  -1  -3  274.37   22.30
   8   1  -3  288.67   22.30
   8   1  -3  304.37   23.10
   7  -1  -3    2.40    4.30
  -7  -1   3   -4.20    4.90
   7   1  -3   -3.80    3.90
   7   1  -3   -1.50    3.20
  -6  -1   3 1265.67   91.89
  -6  -1   3 1298.67   93.89
   6  -1  -3 1555.74   93.39
   6   1  -3 1512.15   93.49
  -6   1   3 1295.57   92.39
   6   1  -3 1535.25   93.29
  -6   1   3 1324.67   93.19
   5  -1  -3  101.79    9.40
  -5  -1   3  116.49   10.00
   5  -1  -3  123.99   10.20
  -5  -1   3  105.99   10.30
   5  -1  -3  111.89    8.90
  -5   1   3  113.89   10.10
   5   1  -3  133.09   14.90
   5   1  -3  128.89    9.70
   5   1  -3  106.09    9.50
   5   1  -3  102.29    9.00
  -5   1   3  107.79    9.80
  -5   1   3   93.09    9.30
   5   1  -3  114.09    9.60
   4  -1  -3 4423.16  343.27
  -4  -1   3 5546.74  343.37
   4  -1  -3 5198.08  342.87
   4  -1  -3 5842.42  343.67
  -4   1   3 5026.80  343.07
   4   1  -3 4746.02  343.27
   4   1  -3 5045.60  343.37
  -4   1   3 4836.12  343.57
   4   1  -3 5939.61  344.17
  -4   1   3 5524.15  343.47
  -4   1   3 5641.44  343.37
   3  -1  -3  267.47   19.40
  -3  -1   3  287.77   20.10
   3  -1  -3  293.77   19.80
  -3  -1   3  251.57   20.00
   3  -1  -3  280.87   19.00
  -3  -1   3  275.77   19.40
  -3   1   3  301.07   19.60
   3   1  -3  253.77   19.40
   3   1  -3  319.37   20.00
   3   1  -3  268.67   19.40
   3   1  -3  300.87   20.10
  -3   1   3  301.37   19.40
  -3   1   3  257.77   19.30
   2   1  -3 7158.38  467.35
  -1  -1   3  236.98   14.90
   1  -1  -3  206.18   14.80
   1  -1  -3  226.78   15.40
  -1  -1   3  226.28   15.40
   1  -1  -3  219.68   14.90
  -1  -1   3  227.18   15.20
   1  -1  -3  201.98   14.60
   1   1  -3  248.98   15.80
   1   1  -3  233.38   15.40
  -1   1   3  219.18   15.50
  -1   1   3  226.38   14.90
   1   1  -3  210.88   14.90
   1   1  -3  211.78   15.30
   0  -1   3  741.83   48.40
   0  -1   3  680.03   48.70
   0  -1   3  740.93   48.30
   0  -1  -3  724.63   48.00
   0  -1  -3  789.12   48.20
   0  -1   3  705.33   48.80
   0   1   3  703.93   48.30
   0   1   3  737.33   48.00
   0   1  -3  715.13   48.40
   0   1   3  723.33   48.10
   0   1  -3  810.32   48.60
   0   1   3  745.63   48.90
   1  -1   3   22.20    2.50
   1  -1   3   22.00    2.90
   1  -1   3   23.40    2.60
  -1  -1  -3   23.00    2.40
   1   1   3   23.20    2.50
  -1   1  -3   23.00    2.60
   1   1   3   24.30    2.30
   2  -1   3 1225.58   82.09
   2  -1   3 1328.97   81.99
  -2  -1  -3 1188.28   81.89
   2  -1   3 1354.26   82.69
   2   1   3 1161.28   81.99
   2   1   3 1245.58   81.79
   2   1   3 1324.07   81.89
  -2   1  -3 1143.59   81.99
   3  -1   3  148.79   10.70
  -3  -1  -3  143.69   11.10
   3  -1   3  146.69   11.60
   3  -1   3  145.69   10.50
   3   1   3  141.69   10.70
  -3   1  -3  136.69   11.30
   3   1   3  138.19   11.00
   3   1   3  148.29   10.60
  -4  -1  -3 2788.72  179.78
   4  -1   3 2620.44  177.08
   4  -1   3 2394.86  177.58
   4  -1   3 2873.01  178.48
  -4   1  -3 2836.92  179.68
   4   1   3 2622.64  177.48
   4   1   3 2706.73  177.88
   4   1   3 2820.42  177.48
  -4   1  -3 2692.03  177.68
   5  -1   3    1.60    2.10
   5  -1   3    2.30    2.60
   5  -1   3   -2.40    2.60
   5  -1   3   -1.10    3.40
   5   1   3    2.90    2.90
   5   1   3   -0.20    2.00
  -5   1  -3    3.30    1.90
   5   1   3   -1.80    3.30
   5   1   3    0.40    3.10
   6  -1   3 1540.35   96.49
   6  -1   3 1445.46   96.49
   6  -1   3 1521.75   94.69
   6   1   3 1398.56   96.09
  -6   1  -3 1304.77   98.79
   6   1   3 1447.76   96.79
  -7  -1  -3   -3.90    5.30
   7  -1   3    2.20    2.40
   7  -1   3    0.10    4.50
   7   1   3   -1.90    4.00
   7   1   3    0.20    4.10
  -7   1  -3   -1.70    4.30
  -8  -1  -3  187.58   25.00
   8  -1   3  209.68   17.30
   8  -1   3  204.98   18.30
   8   1   3  210.98   18.20
   8   1   3  211.58   16.90
  -8   1  -3  176.88   22.50
   9  -1   3    3.10    3.50
  -9  -1  -3   -6.10    8.60
   9   1   3   -4.40    3.60
  10  -1   3   48.50    7.20
  10  -1   3   67.09    7.10
  10   1   3   60.39    6.60
  10   1   3   64.59    7.60
  11  -1   3   -4.00    4.50
  11  -1   3   -2.90    5.50
  11   1   3    9.60    4.80
  11   1   3   -8.80    5.40
  11  -2  -3   65.59    8.40
  11  -2  -3   57.79    7.30
  11   2  -3   79.49    8.00
  11   2  -3   82.99    7.90
  10  -2  -3   20.40    5.20
  10   2  -3   19.00    4.90
   9  -2  -3  272.27   21.80
   9   2  -3  267.87   21.60
   9   2  -3  281.17   22.50
   8  -2  -3    2.40    4.70
   8   2  -3    4.80    4.90
   7  -2  -3  774.02   56.39
   7   2  -3  791.62   56.29
   7   2  -3  944.11   56.29
   7   2  -3  816.62   56.69
  -7   2   3  798.12   56.59
  -6  -2   3   57.09   11.30
   6  -2  -3   64.39    7.50
   6   2  -3   80.69    8.20
  -6   2   3   82.29    8.50
   6   2  -3   65.09    7.20
  -6   2   3   71.09    9.00
   6   2  -3   52.59    7.80
   5  -2  -3 1134.59   76.39
   5  -2  -3 1099.49   76.99
   5  -2  -3 1285.57   77.29
  -5  -2   3 1224.58   76.09
  -5  -2   3 1151.68   75.89
   5   2  -3 1328.77   77.69
  -5   2   3 1007.80   77.39
  -5   2   3 1158.58   77.49
   5   2  -3 1140.59   77.19
  -5   2   3 1136.59   76.29
   5   2  -3 1044.00   76.89
   4  -2  -3  143.19   10.10
  -4  -2   3  143.19   10.70
  -4  -2   3  114.69   11.20
   4  -2  -3  155.38   11.00
   4  -2  -3  155.28   11.20
   4  -2  -3  126.69   10.70
  -4   2   3  133.39   11.20
  -4   2   3  144.29   10.40
  -4   2   3  137.59   10.20
  -4   2   3  137.99   11.20
   4   2  -3  119.79   11.10
   4   2  -3  153.58   11.60
   4   2  -3  126.59   10.80
   4   2  -3  146.49   11.70
   3  -2  -3 2394.16  166.78
   3  -2  -3 2800.52  167.08
  -3  -2   3 2716.13  166.98
  -3  -2   3 2388.36  167.38
   3  -2  -3 2662.93  166.38
   3  -2  -3 2484.85  167.18
  -3   2   3 2432.96  166.98
   3   2  -3 2432.16  166.88
   3   2  -3 2888.71  167.68
  -3   2   3 2760.62  167.38
  -3   2   3 2447.66  166.68
  -3   2   3 2371.66  166.38
   3   2  -3 2317.87  166.88
   2  -2  -3   46.80    3.50
  -2  -2   3   45.70    5.30
   2  -2  -3   48.40    4.50
  -2  -2   3   47.00    4.40
   2  -2  -3   42.60    4.00
  -2  -2   3   45.60    5.10
  -2  -2   3   49.10    4.30
   2  -2  -3   49.50    4.70
  -2   2   3   41.10    3.50
  -2   2   3   40.80    4.50
   2   2  -3   47.50    4.70
   2   2  -3   40.90    4.50
   2   2  -3   43.50    4.30
   2   2  -3   52.09    5.00
   0  -2   3   68.09    5.70
   0  -2   3   71.49    5.30
   0  -2  -3   75.19    5.50
   0  -2   3   61.39    5.90
   0  -2   3   77.29    6.50
   0  -2   3   73.59    6.20
   0   2  -3   76.09    6.20
   0   2  -3   65.29    5.50
   0   2  -3   72.09    5.30
   0   2  -3   64.59    5.50
   0   2   3   59.19    5.60
   0   2   3   77.19    5.90
   0   2   3   68.79    6.30
   2  -2   3   34.90    3.90
   2  -2   3   31.00    3.10
   2  -2   3   29.50    3.60
   2  -2   3   29.20    4.90
  -2   2  -3   34.70    4.00
   2   2   3   31.30    4.00
   2   2   3   32.00    3.10
   2   2   3   32.50    3.40
   3  -2   3 4072.69  255.47
   3  -2   3 4176.58  255.67
  -3  -2  -3 4186.48  257.47
   3  -2   3 3778.72  256.57
   3   2   3 3393.46  255.67
  -3   2  -3 3619.84  255.57
   3   2   3 3877.51  255.37
   3   2   3 4153.78  255.57
   4  -2   3   26.60    7.00
   4  -2   3   36.70    4.40
  -4  -2  -3   40.60    4.70
   4  -2   3   33.80    4.70
   4   2   3   42.50    6.40
   4   2   3   45.40    4.10
  -4   2  -3   47.30    4.40
  -4   2  -3   38.00    5.00
   5  -2   3  910.21   64.69
   5  -2   3 1080.19   63.79
   5  -2   3 1079.19   63.39
  -5  -2  -3  901.31   66.99
   5   2   3  888.31   64.79
   5   2   3  877.91   65.79
   5   2   3 1053.59   63.19
   5   2   3  951.90   64.29
  -5   2  -3  943.21   64.59
  -5   2  -3  873.81   66.29
   5   2   3 1004.00   63.59
   6  -2   3    8.30    4.40
   6  -2   3    2.30    3.40
   6  -2   3    6.10    2.90
  -6   2  -3    7.60    2.50
   6   2   3    2.30    3.10
   6   2   3   13.20    4.00
  -6   2  -3    7.70    2.70
   6   2   3    4.50    4.00
  -7  -2  -3  382.46   33.90
   7  -2   3  430.76   29.20
   7  -2   3  404.16   29.50
   7   2   3  423.76   29.00
  -7   2  -3  384.56   31.30
   7   2   3  381.96   29.90
   8  -2   3   12.60    5.60
  -8  -2  -3    9.90    9.70
   8   2   3   11.70    4.60
   8   2   3    6.30    5.00
  -8   2  -3   -1.40    5.00
   9  -2   3  197.38   15.60
   9  -2   3  169.88   16.10
   9   2   3  163.68   16.90
   9   2   3  182.48   16.10
  10  -2   3   10.10    4.40
  10   2   3    8.50    3.50
  10   2   3    4.40    3.90
  11  -3  -3    1.80    4.30
  11   3  -3    4.90    4.20
  11   3  -3    0.90    3.50
  10  -3  -3  126.89   12.50
  10   3  -3  143.09   13.40
  10   3  -3  136.19   12.40
   9  -3  -3    3.40    5.00
   9   3  -3    2.10    4.10
   9   3  -3   13.10    5.40
   8  -3  -3  568.64   42.90
   8   3  -3  643.34   43.60
   8   3  -3  609.24   42.90
   7  -3  -3    3.60    4.60
   7   3  -3   -5.30    3.30
  -7   3   3    5.80    4.40
  -7   3   3   -0.40    2.00
   7   3  -3   -0.80    4.50
   6  -3  -3 1355.26   94.59
  -6  -3   3 1297.37   96.19
   6  -3  -3 1589.24   94.69
   6  -3  -3 1558.84   96.09
  -6   3   3 1258.07   95.39
  -6   3   3 1438.26   94.99
   6   3  -3 1421.06   94.89
   6   3  -3 1432.26   94.69
   5  -3  -3    3.30    3.20
   5  -3  -3    0.10    1.40
   5  -3  -3    2.40    2.20
   5  -3  -3    5.00    3.40
  -5  -3   3   -0.20    1.60
  -5   3   3    0.40    2.40
   5   3  -3    3.10    3.40
   5   3  -3    2.20    3.00
  -5   3   3    2.30    2.40
  -5   3   3    1.80    1.40
   5   3  -3    0.60    2.60
  -5   3   3    3.10    1.70
   4  -3  -3  206.58   14.30
   4  -3  -3  190.98   13.60
  -4  -3   3  191.88   14.30
  -4  -3   3  212.28   13.90
   4  -3  -3  200.38   14.90
   4  -3  -3  188.18   14.20
  -4   3   3  177.88   14.50
  -4   3   3  198.18   13.60
   4   3  -3  213.58   15.80
   4   3  -3  176.58   14.10
   4   3  -3  192.38   15.30
  -4   3   3  183.58   13.70
   4   3  -3  181.68   14.40
  -4   3   3  176.98   15.00
   3  -3  -3   17.10    2.40
  -3  -3   3   16.00    3.50
   3  -3  -3   15.60    3.20
  -3  -3   3   12.70    3.20
   3  -3  -3   15.50    4.20
  -3  -3   3   17.20    3.40
  -3  -3   3    9.00    3.40
   3  -3  -3   14.30    3.40
   3   3  -3   14.90    4.70
  -3   3   3   10.80    2.80
  -3   3   3   16.90    2.60
  -3   3   3   14.60    3.70
   3   3  -3   12.40    3.40
   3   3  -3    9.90    2.70
   3   3  -3   14.30    3.90
   2  -3  -3 4107.69  267.57
  -2  -3   3 4145.69  267.67
   2  -3  -3 4025.50  267.57
  -2  -3   3 4173.48  267.57
  -2  -3   3 3785.62  267.77
   2  -3  -3 4134.29  268.17
  -2  -3   3 3997.00  267.87
   2   3  -3 4080.09  267.67
  -2   3   3 3657.43  267.67
   2   3  -3 4402.46  268.07
  -2   3   3 4341.07  268.17
   2   3  -3 4410.06  268.67
   2   3  -3 3941.51  267.67
  -1  -3   3  225.38   15.00
  -1  -3   3  215.68   15.10
  -1  -3   3  201.28   15.90
   1  -3  -3  221.88   15.50
   1  -3  -3  206.58   15.10
  -1  -3   3  216.78   14.90
  -1  -3   3  219.18   15.60
  -1   3   3  189.98   14.90
   1   3  -3  219.98   15.00
   1   3  -3  234.18   15.90
  -1   3   3  209.18   15.30
   1   3  -3  196.58   15.10
  -1   3   3  206.18   14.20
   1   3  -3  189.68   15.10
  -1   3   3  211.38   15.30
   1  -3   3   10.10    2.80
  -1  -3  -3    6.60    1.30
  -1  -3  -3    5.60    1.70
   1  -3   3    6.30    1.50
   1  -3   3    3.50    2.60
   1  -3   3    3.80    2.40
  -1   3  -3    4.80    1.50
   1   3   3    9.30    2.70
   1   3   3    4.70    2.00
  -1   3  -3    7.10    2.30
  -1   3  -3    7.40    1.60
   1   3   3    5.40    1.40
   2  -3   3 4702.43  341.27
  -2  -3  -3 5893.31  340.57
   2  -3   3 5482.75  340.37
   2   3   3 5245.58  340.07
   2   3   3 4952.90  340.47
  -2   3  -3 4975.50  340.37
   3  -3   3    2.00    3.50
   3  -3   3    2.10    1.20
   3  -3   3    2.30    1.40
   3  -3   3    3.20    2.30
  -3   3  -3    2.60    1.30
   3   3   3    6.70    3.20
   3   3   3    6.40    2.40
   3   3   3    1.40    2.30
   3   3   3    0.20    1.20
   4  -3   3  550.84   36.80
   4  -3   3  630.94   36.60
  -4  -3  -3  516.95   39.00
   4   3   3  534.65   37.60
  -4   3  -3  515.75   38.20
   4   3   3  580.54   39.10
  -4   3  -3  512.25   37.30
   4   3   3  590.74   36.70
   4   3   3  494.15   37.30
   5  -3   3   12.50    4.70
   5  -3   3   18.50    3.70
   5  -3   3   10.00    3.60
   5   3   3    9.60    3.30
   5   3   3    0.60    4.90
   6  -3   3  368.06   27.80
   6  -3   3  432.16   26.50
  -6   3  -3  360.86   28.70
   6   3   3  389.36   26.90
  -6   3  -3  372.76   27.40
   6   3   3  358.06   27.70
  -7  -3  -3   -4.20    5.30
   7  -3   3    0.40    4.50
   7   3   3   -3.10    3.50
   7   3   3    0.30    3.30
  -7   3  -3    1.00    2.60
  -8  -3  -3  292.97   32.90
   8  -3   3  336.57   23.80
   8  -3   3  306.87   24.40
  -8   3  -3  286.37   28.10
   8   3   3  324.67   24.90
   8   3   3  332.27   23.80
   9  -3   3   16.40    4.40
   9   3   3    6.20    3.30
   9   3   3    8.00    5.90
  10  -3   3   76.99    8.00
  10  -3   3   65.09    8.50
  10   3   3   77.49    8.30
  10   3   3   82.09    7.30
  11   4  -3   80.49    8.00
  11   4  -3   88.59    8.10
  10  -4  -3   16.80    4.60
  10   4  -3    2.00    3.10
  10   4  -3    3.00    3.60
   9  -4  -3  208.28   19.10
   9   4  -3  242.28   21.50
   9   4  -3  233.38   21.10
   8  -4  -3   23.30    6.50
   8   4  -3   27.20    7.40
   8   4  -3   16.10    5.30
   7  -4  -3  774.22   54.19
  -7  -4   3  782.92   55.49
   7   4  -3  772.12   54.39
   7   4  -3  792.32   54.09
  -7   4   3  799.52   53.89
   6  -4  -3   67.49    7.80
   6  -4  -3   86.79    8.00
   6  -4  -3   70.59    7.70
  -6  -4   3   74.79   10.20
   6   4  -3   69.89    8.10
  -6   4   3   71.49    7.20
  -6   4   3   70.99    7.60
   5  -4  -3  859.51   56.99
   5  -4  -3  938.41   57.49
  -5  -4   3  805.82   56.99
   5  -4  -3  919.31   58.39
   5  -4  -3  803.42   57.59
  -5   4   3  849.91   57.09
  -5   4   3  835.82   57.89
   5   4  -3  933.91   59.49
   5   4  -3  788.92   57.49
   5   4  -3  807.02   57.89
  -5   4   3  862.81   56.49
   4  -4  -3   46.00    6.30
   4  -4  -3   43.10    4.50
  -4  -4   3   37.00    5.20
   4  -4  -3   45.40    5.10
   4  -4  -3   42.30    5.00
  -4   4   3   27.90    6.00
   4   4  -3   38.80    5.10
  -4   4   3   37.60    5.50
   4   4  -3   31.30    7.30
  -4   4   3   42.20    4.70
   4   4  -3   33.20    4.90
   3  -4  -3  800.52   62.69
   3  -4  -3  871.51   60.49
  -3  -4   3  967.00   60.99
   3  -4  -3  973.20   60.99
   3  -4  -3  948.01   60.09
  -3  -4   3  945.21   60.89
  -3  -4   3  872.61   60.89
   3  -4  -3  939.71   60.59
  -3   4   3  863.11   60.69
   3   4  -3  961.20   61.69
   3   4  -3 1012.10   62.59
  -3   4   3  858.01   60.09
   3   4  -3  884.31   60.79
  -3   4   3  847.82   61.59
  -2  -4   3   86.29    8.10
   2  -4  -3   92.19    7.20
  -2  -4   3   81.39    7.20
   2  -4  -3   81.29    7.20
  -2  -4   3   82.79    7.20
   2   4  -3   93.29    9.30
   2   4  -3   71.89    7.40
   2   4  -3   96.19    8.30
   2   4  -3   72.19    7.40
  -2   4   3   79.79    8.60
  -2   4   3   79.09    6.20
  -2   4   3   72.59    7.30
  -1  -4   3 5835.12  357.36
   1  -4  -3 5369.76  357.66
  -1  -4   3 5256.17  357.66
   1  -4  -3 5205.68  357.26
  -1  -4   3 5962.90  357.36
   1   4  -3 5722.93  358.16
  -1   4   3 4949.60  357.16
   1   4  -3 5322.57  357.26
   1   4  -3 6002.80  357.16
  -1   4   3 5602.54  357.56
  -1   4   3 4842.42  357.16
   1   4  -3 5472.55  357.46
   0  -4   3  636.84   41.80
   0  -4   3  615.84   41.70
   0  -4   3  555.64   42.10
   0  -4  -3  652.93   41.70
   0  -4  -3  603.84   40.40
   0  -4  -3  624.34   41.80
   0   4   3  658.03   41.70
   0   4  -3  548.35   41.50
   0   4  -3  673.23   42.30
   0   4  -3  525.85   41.30
   0   4   3  541.05   41.50
   0   4  -3  676.93   42.40
   0   4  -3  651.83   40.90
  -1  -4  -3 8150.48  497.85
   1  -4   3 8426.86  498.05
   1  -4   3 6185.28  498.35
  -1   4  -3 7720.33  498.75
  -2  -4  -3   43.90    5.10
  -2  -4  -3   43.60    3.80
   2  -4   3   40.50    4.70
   2  -4   3   46.80    5.10
   2   4   3   33.00    5.50
   2   4   3   45.60    5.10
  -2   4  -3   41.20    5.00
  -2   4  -3   40.80    6.30
   2   4   3   40.50    4.00
  -2   4  -3   45.00    5.00
  -3  -4  -3 2621.14  177.38
   3  -4   3 2300.57  177.28
  -3  -4  -3 2952.80  176.38
  -3  -4  -3 2710.13  175.48
  -3   4  -3 2929.91  175.78
   3   4   3 2503.45  175.38
   3   4   3 2604.64  175.68
  -3   4  -3 2433.06  175.98
   3   4   3 2908.51  177.78
   3   4   3 2419.06  176.18
   3   4   3 2732.53  175.78
  -3   4  -3 3041.20  177.68
   4  -4   3    3.00    2.30
  -4  -4  -3    5.50    2.10
   4   4   3    9.10    2.00
   4   4   3    6.10    2.70
   4   4   3   10.70    4.40
   4   4   3    2.60    4.90
  -4   4  -3   14.50    3.60
  -5  -4  -3  502.75   38.60
  -5   4  -3  538.55   36.80
  -5   4  -3  515.05   35.80
   5   4   3  513.05   35.00
   5   4   3  495.25   36.00
   6  -4   3   11.10    2.10
  -6  -4  -3   13.70    5.50
   6  -4   3   10.30    5.60
   6   4   3   15.00    3.70
  -6   4  -3    6.60    2.70
  -6   4  -3    8.20    2.60
   6   4   3    7.70    3.90
  -7  -4  -3  336.47   31.90
   7  -4   3  340.07   26.00
   7  -4   3  355.86   26.60
  -7   4  -3  364.66   26.00
   7   4   3  339.27   26.50
  -7   4  -3  311.07   31.30
   7   4   3  371.96   25.30
   8  -4   3    3.50    5.90
  -8  -4  -3    2.10    9.40
   8   4   3    6.70    4.00
   8   4   3    4.30    3.50
  -8   4  -3    9.40    3.10
   9  -4   3  151.08   13.00
   9   4   3  142.69   13.10
   9   4   3  144.09   13.50
  10  -4   3    1.00    4.90
  10   4   3   19.10    5.10
  10   4   3    9.90    3.80
  11   5  -3    7.20    3.90
  11   5  -3    8.50    4.60
  10  -5  -3   95.19    9.40
  10   5  -3   74.99    9.70
  10   5  -3  100.89    9.20
   9  -5  -3   16.90    4.70
   9   5  -3    9.30    5.10
   8  -5  -3  349.57   26.80
   8   5  -3  345.67   27.00
   8   5  -3  353.06   26.40
   7  -5  -3   20.00    5.90
  -7   5   3   21.50    3.60
   7   5  -3   16.00    5.40
  -7   5   3   20.70    4.90
   6  -5  -3 1032.30   65.79
  -6  -5   3  974.10   68.99
   6  -5  -3 1084.19   67.29
   6  -5  -3  921.71   66.39
  -6   5   3  990.40   65.69
   6   5  -3  918.01   66.59
   6   5  -3  937.91   66.19
  -6   5   3  972.90   66.19
   5  -5  -3    5.70    2.90
   5  -5  -3    3.70    2.30
   5  -5  -3    1.50    3.10
  -5  -5   3    2.70    2.60
  -5  -5   3   -1.50    4.00
  -5   5   3    1.10    2.30
  -5   5   3    2.30    1.60
  -5   5   3    4.00    2.10
  -5   5   3    2.80    2.60
   5   5  -3    0.20    3.40
   5   5  -3   -0.50    3.00
   4  -5  -3 2681.63  161.08
   4  -5  -3 2646.74  160.78
   4  -5  -3 2361.26  161.28
   4  -5  -3 2521.35  162.68
  -4  -5   3 2209.88  161.28
   4   5  -3 2300.67  161.28
   4   5  -3 2526.15  161.78
  -4   5   3 2184.08  160.58
  -4   5   3 2733.83  161.38
  -4   5   3 2322.37  161.08
   3  -5  -3    5.40    2.30
  -3  -5   3    1.50    3.10
   3  -5  -3    5.40    2.80
   3  -5  -3    3.90    1.20
   3  -5  -3    5.60    2.50
  -3  -5   3    2.50    2.80
  -3  -5   3    4.20    2.70
  -3   5   3    4.10    2.60
   3   5  -3   -4.50    4.50
  -3   5   3    3.70    1.40
   3   5  -3    3.70    3.10
  -3   5   3    3.20    3.10
   3   5  -3    4.60    2.40
   3   5  -3   -2.60    3.30
   2  -5  -3 3506.95  246.08
   2  -5  -3 3854.31  245.28
  -2  -5   3 4164.38  245.28
  -2  -5   3 3404.66  245.48
  -2  -5   3 4142.69  245.38
   2   5  -3 4178.38  247.18
   2   5  -3 3480.75  244.98
   2   5  -3 3228.78  245.58
  -2   5   3 3563.94  245.78
  -2   5   3 3467.55  244.18
   2   5  -3 4079.69  245.68
  -2   5   3 3773.02  245.08
  -1  -5   3  117.69   12.10
  -1  -5   3  140.99   11.50
  -1  -5   3  148.09   11.20
   1  -5  -3  140.79   11.40
  -1   5   3  143.29   11.90
   1   5  -3  166.78   12.50
  -1   5   3  119.09   10.30
   1   5  -3  151.68   11.50
   1   5  -3  111.99   11.50
  -1   5   3  141.89   11.60
  -1   5   3  131.69   11.70
   1   5  -3  166.88   13.20
   0  -5  -3 2584.04  183.48
   0  -5   3 2907.41  184.78
   0  -5  -3 2766.32  184.68
   0  -5  -3 2561.64  184.78
   0  -5   3 3041.00  184.98
   0   5   3 2761.62  184.78
   0   5  -3 2510.85  184.58
   0   5  -3 2873.51  183.78
   0   5  -3 3056.19  185.68
   0   5  -3 2998.90  185.58
   1  -5   3   29.30    4.70
  -1  -5  -3   22.80    4.40
  -1  -5  -3   23.30    2.60
   1  -5   3   24.40    6.20
  -1   5  -3   22.30    4.90
   1   5   3   23.00    5.40
   1   5   3   25.00    4.70
  -1   5  -3   26.30    5.30
   1   5   3   15.10    3.90
  -1   5  -3   23.10    4.30
  -1   5  -3   24.50    2.40
  -2  -5  -3 1494.95   90.09
  -2  -5  -3 1295.87   90.29
   2  -5   3 1288.67   89.59
  -2  -5  -3 1340.27   88.79
   2  -5   3 1443.46   90.09
   2  -5   3 1151.58   90.99
   2   5   3 1386.06   91.29
  -2   5  -3 1500.35   90.09
   2   5   3 1282.57   89.99
  -2   5  -3 1282.57   89.79
   2   5   3 1370.26   89.89
  -2   5  -3 1460.15   91.69
   2   5   3 1289.67   88.89
  -3  -5  -3    2.00    1.50
  -3  -5  -3    1.30    2.10
   3  -5   3   -3.90    2.80
  -3   5  -3   -1.30    2.10
   3   5   3    1.40    2.70
  -3   5  -3    3.40    1.60
   3   5   3    0.00    1.90
   3   5   3   -0.50    2.40
  -4  -5  -3 1099.69   74.59
  -4   5  -3 1101.69   73.09
   4   5   3 1096.39   72.99
  -4   5  -3 1073.59   72.59
   4   5   3 1045.20   72.39
  -5  -5  -3   16.00    4.70
  -5   5  -3   27.70    5.60
   5   5   3   30.90    6.20
  -5   5  -3   18.80    4.50
  -6  -5  -3  686.03   53.19
   6  -5   3  706.63   49.90
   6  -5   3  654.43   50.69
  -6   5  -3  744.43   50.19
  -6   5  -3  756.72   49.50
   6   5   3  745.03   48.50
   6   5   3  692.23   49.80
   7  -5   3   17.00    6.40
  -7  -5  -3    2.40    9.40
   7   5   3    8.50    3.70
   7   5   3    9.00    4.60
  -7   5  -3    8.10    2.90
  -8  -5  -3  265.77   31.10
   8  -5   3  291.17   21.90
   8  -5   3  285.67   22.40
  -8   5  -3  295.87   22.20
   8   5   3  258.37   22.90
   8   5   3  287.87   21.20
   9  -5   3    2.30    4.00
   9   5   3    2.60    3.10
   9   5   3    3.00    3.60
  10   5   3   71.19    7.30
  10   5   3   69.79    8.00
  11   6  -3   66.89    7.90
  11   6  -3   73.49    8.10
  10  -6  -3   -5.50    4.30
  10   6  -3    1.70    3.40
  10   6  -3    8.20    4.10
   9  -6  -3  120.39   11.70
   9   6  -3  123.59   11.30
   9   6  -3  121.19   12.20
   8  -6  -3   18.70    6.30
   8   6  -3    4.00    4.20
  -8   6   3    9.10    2.70
   8   6  -3   17.80    6.40
   7  -6  -3  327.77   23.10
  -7  -6   3  277.97   24.80
   7  -6  -3  279.27   22.60
  -7   6   3  287.07   21.20
   7   6  -3  275.07   22.30
   7   6  -3  280.47   23.00
  -7   6   3  294.47   21.60
   6  -6  -3    6.30    3.10
   6  -6  -3    6.60    4.60
  -6  -6   3   -4.00    5.20
   6  -6  -3   10.40    3.60
   6   6  -3    3.90    4.10
   6   6  -3    5.40    4.90
  -5  -6   3 1792.32  134.59
   5  -6  -3 2226.58  134.29
  -5  -6   3 1980.20  137.79
   5  -6  -3 2070.19  136.49
   5  -6  -3 2007.70  134.99
  -5   6   3 2083.89  134.59
   5   6  -3 2038.80  135.49
   5   6  -3 2033.50  134.89
  -5   6   3 2078.89  134.19
   4  -6  -3    2.30    1.60
   4  -6  -3   -2.90    2.90
   4  -6  -3   -1.80    3.30
  -4  -6   3    3.10    4.00
   4  -6  -3    4.70    2.40
  -4   6   3    2.50    1.50
   4   6  -3   -0.80    2.60
   4   6  -3    0.90    3.40
  -4   6   3    3.20    3.00
  -4   6   3   -2.70    3.60
  -3  -6   3 3096.79  221.58
   3  -6  -3 3329.97  222.68
   3   6  -3 3368.66  221.08
  -3   6   3 3323.57  220.88
   3   6  -3 3392.76  221.58
  -3   6   3 3720.43  221.68
  -3   6   3 3314.87  220.38
   2  -6  -3   -1.70    2.60
  -2  -6   3    1.20    2.70
  -2  -6   3    0.70    3.20
   2  -6  -3    5.40    2.90
   2   6  -3   -1.50    2.20
   2   6  -3   -2.70    2.60
  -2   6   3   -0.10    2.80
   2   6  -3    3.30    9.40
   2   6  -3   -3.80    2.70
  -2   6   3    1.50    1.50
  -2   6   3    0.90    2.90
   2   6  -3   -3.50    3.10
  -1  -6   3 1009.80   76.09
   1  -6  -3 1076.09   76.39
   1  -6  -3 1200.58   75.89
  -1  -6   3 1157.48   75.89
  -1  -6   3 1134.69   75.49
   1   6  -3 1285.57   76.79
  -1   6   3 1247.78   76.29
  -1   6   3  987.40   75.49
   1   6  -3 1273.67   75.59
   1   6  -3 1072.39   75.79
  -1   6   3 1027.00   74.49
  -1   6   3 1008.90   75.79
  -1   6   3 1051.99   75.69
   1   6  -3 1230.08   77.59
   0  -6   3  127.79   10.50
   0  -6  -3  128.19   10.40
   0  -6   3  131.49   10.80
   0  -6  -3  117.29   10.80
   0  -6  -3  127.89    8.90
   0  -6   3   94.79   10.60
   0   6   3   97.89   10.20
   0   6  -3   98.39   10.00
   0   6  -3  118.89   11.70
   0   6   3  104.69   10.30
   0   6  -3  101.09    9.60
   0   6  -3  124.59    9.40
   0   6   3  116.49   11.00
   0   6  -3  124.29   11.70
   1  -6   3 1378.96   89.59
  -1  -6  -3 1265.37   89.59
  -1  -6  -3 1448.66   89.49
  -1  -6  -3 1379.26   87.89
  -1   6  -3 1343.77   87.59
  -1   6  -3 1441.36   95.39
   1   6   3 1224.78   89.19
  -1   6  -3 1204.18   88.79
  -1   6  -3 1221.28   89.19
  -1   6  -3 1458.75   90.19
  -2  -6  -3   33.80    5.90
   2  -6   3   17.40    5.50
  -2  -6  -3   29.40    3.40
  -2  -6  -3   29.60    3.50
  -2   6  -3   27.70    5.40
   2   6   3   19.30    5.30
   2   6   3   19.10    4.90
  -2   6  -3   26.70    4.10
   2   6   3   22.60    4.20
  -3  -6  -3 1938.91  127.89
  -3  -6  -3 2057.79  125.89
  -3   6  -3 1905.81  126.89
   3   6   3 1872.21  125.89
   3   6   3 1796.92  127.09
  -4  -6  -3   -0.30    3.00
  -4  -6  -3   -0.60    3.20
   4  -6   3    0.60    3.50
  -4   6  -3    2.70    2.10
   4   6   3    0.50    3.10
   4   6   3    1.90    2.80
  -4   6  -3    1.90    2.30
   4   6   3    4.40    2.40
  -5  -6  -3 1604.44  115.19
   5   6   3 1701.33  110.89
  -5   6  -3 1547.95  110.29
  -5   6  -3 1599.64  110.29
   5   6   3 1745.23  109.39
   5   6   3 1714.13  109.29
  -6   6  -3    3.40    2.50
  -6   6  -3   -4.30    2.70
   6   6   3    3.80    4.30
   6   6   3    0.20    2.60
   7  -6   3  303.07   24.10
  -7  -6  -3  295.97   30.60
   7  -6   3  325.77   24.50
   7   6   3  316.37   22.30
  -7   6  -3  301.87   23.40
  -7   6  -3  272.67   25.10
   7   6   3  296.57   24.20
   8  -6   3   -1.20    3.80
  -8   6  -3    1.50    2.10
   8   6   3   -2.50    3.10
   8   6   3    0.90    3.10
   9  -6   3   51.39    7.00
  -9   6  -3   50.19    6.80
   9   6   3   64.79    6.00
   9   6   3   61.29    7.10
  10  -6   3    1.70    5.70
  10   6   3    3.90    5.20
  10   6   3    9.60    4.50
  11  -7  -3    3.00    7.20
  11   7  -3   17.70    5.70
  11   7  -3   35.10    8.90
  10  -7  -3   72.39    8.20
  10   7  -3   80.99    8.30
  10   7  -3   81.59    7.90
   9  -7  -3    3.00    3.90
   9   7  -3    2.90    3.30
   9   7  -3   -1.50    3.70
   8  -7  -3  243.88   18.70
   8  -7  -3  179.48   18.20
  -8   7   3  221.38   17.50
   8   7  -3  206.78   17.60
   7  -7  -3   -0.20    4.50
  -7  -7   3   -8.10    6.00
   7  -7  -3    0.10    2.80
   7   7  -3   -0.70    4.80
  -7   7   3    2.10    2.00
   7   7  -3   -0.70    4.10
  -7   7   3    0.70    2.10
   6  -7  -3  640.94   43.20
  -6  -7   3  597.84   44.60
   6  -7  -3  558.54   41.60
  -6  -7   3  535.95   39.80
  -6   7   3  605.44   40.60
  -6   7   3  592.24   40.40
  -6   7   3  624.34   39.20
   6   7  -3  568.24   42.10
   6   7  -3  556.44   41.20
   5  -7  -3   60.39    9.40
  -5  -7   3   52.39   11.80
  -5  -7   3   64.49   10.20
   5  -7  -3   55.49    8.00
  -5   7   3   71.39    7.00
   5   7  -3   50.29    8.40
   5   7  -3   61.79    8.20
  -5   7   3   77.19    7.20
  -5   7   3   70.19    6.90
  -4  -7   3 2442.56  173.38
   4  -7  -3 2620.94  172.68
   4   7  -3 2721.23  170.68
  -4   7   3 2203.98  170.48
   4   7  -3 2752.52  171.38
  -4   7   3 2795.72  169.88
  -4   7   3 2531.65  171.38
  -3  -7   3   28.60    9.30
   3  -7  -3   38.10    7.90
  -3  -7   3   42.90    8.20
  -3   7   3   52.69    8.30
   3   7  -3   43.20    6.70
   3   7  -3   43.00    6.20
  -2  -7   3 2085.99  159.38
   2  -7  -3 2149.88  160.28
  -2   7   3 2521.25  158.08
  -2   7   3 2528.95  159.78
  -2   7   3 2524.85  158.78
   2   7  -3 2774.92  159.68
   2   7  -3 2374.36  158.88
   2   7  -3 2262.47  159.28
  -1  -7   3   21.30    5.80
   1  -7  -3   19.90    5.80
  -1  -7   3   16.30    5.00
  -1   7   3   22.40    4.60
  -1   7   3   19.50    4.90
  -1   7   3   29.70    9.70
   1   7  -3   16.90    4.00
  -1   7   3   15.70    4.60
   0  -7   3  570.44   47.70
   0  -7  -3  758.42   45.80
   0  -7  -3  655.83   47.90
   0   7   3  611.64   47.00
   0   7  -3  698.43   47.30
   0   7  -3  645.24   46.60
   0   7  -3  737.53   55.89
   0   7  -3  776.52   46.40
  -1  -7  -3    5.20    2.20
  -1  -7  -3    2.50    2.40
  -1   7  -3    0.30    1.50
   1   7   3   -2.20    2.20
  -1   7  -3   -1.90    2.30
   1   7   3    0.30    3.10
  -1   7  -3    0.40    2.60
  -1   7  -3   -0.10    4.30
  -2  -7  -3 1114.09   72.89
  -2  -7  -3 1113.99   71.29
  -2  -7  -3 1101.99   72.69
   2   7   3 1013.40   72.79
  -2   7  -3 1035.70   72.39
  -3  -7  -3   34.10    4.80
   3  -7   3   27.80    9.00
  -3  -7  -3   33.50    4.50
   3   7   3   31.60    6.20
  -3   7  -3   33.40    5.80
  -3   7  -3   35.70    5.90
   3   7   3   28.40    5.50
   3   7   3   27.10    5.40
  -4  -7  -3 1592.44  104.09
  -4  -7  -3 1529.25  106.79
   4  -7   3 1729.63  105.39
   4   7   3 1454.65  104.69
  -4   7  -3 1667.83  104.29
   4   7   3 1476.85  105.39
   4   7   3 1644.54  103.99
  -4   7  -3 1475.15  104.89
  -5  -7  -3    2.10    4.20
   5   7   3    6.70    2.50
   5   7   3    8.90    4.00
   5   7   3    3.70    3.80
  -5   7  -3    5.10    2.80
  -6  -7  -3  476.05   39.70
   6  -7   3  514.55   38.90
   6   7   3  516.05   36.90
  -6   7  -3  507.15   36.30
   6   7   3  524.95   34.90
  -6   7  -3  471.15   35.40
   7  -7   3   -9.10   10.30
   7   7   3   -0.10    3.50
   7   7   3   -2.50    3.40
   8  -7   3  138.99   13.80
   8  -7   3  158.38   14.10
   8   7   3  160.58   12.40
  -8   7  -3  151.48   13.40
   8   7   3  137.09   13.40
   9  -7   3   10.00    4.60
   9   7   3    5.40    4.20
   9   7   3    3.80    3.70
  10   7   3   66.79    8.90
  10   8  -3   28.80    6.50
  10   8  -3   24.70    5.90
   9  -8  -3  108.39    9.90
   9  -8  -3   93.99   10.30
   9   8  -3   79.29    9.40
   9   8  -3   91.29    9.20
   8  -8  -3   -1.80    3.60
   8  -8  -3    1.60    3.30
   8   8  -3   -5.70    8.10
   8   8  -3    3.20    3.40
   7  -8  -3  334.07   25.80
   7  -8  -3  288.57   24.10
   7   8  -3  316.47   23.70
   7   8  -3  282.37   24.50
  -7   8   3  322.77   23.00
  -7   8   3  279.67   21.60
   6  -8  -3    3.20    5.60
   6  -8  -3   -2.30    5.10
  -6  -8   3  -10.40    7.60
  -6   8   3    4.00    1.70
   6   8  -3    8.50    5.80
  -6   8   3    5.60    1.90
   6   8  -3   -0.80    4.40
  -5  -8   3 1060.19   69.89
   5  -8  -3 1014.00   72.09
   5  -8  -3 1020.80   69.89
  -5  -8   3 1049.00   73.39
   5   8  -3  986.30   69.59
  -5   8   3 1010.10   68.79
  -5   8   3 1054.29   68.99
   5   8  -3 1005.60   70.69
  -4  -8   3    9.30    3.40
  -4  -8   3    6.70    7.50
  -4   8   3    5.00    1.50
   4   8  -3   -1.40    3.90
   4   8  -3   -2.50    3.50
  -3  -8   3 1314.07   98.69
   3  -8  -3 1490.65   98.79
  -3  -8   3 1217.78   96.69
  -3   8   3 1577.74   95.49
  -3   8   3 1499.65   95.89
   3   8  -3 1499.45   96.29
   3   8  -3 1442.46   96.89
   2  -8  -3   50.69    9.20
  -2  -8   3   53.29    7.90
  -2  -8   3   52.09    9.10
  -2   8   3   67.09    6.50
  -2   8   3   62.99    6.10
  -2   8   3   58.59    7.40
   2   8  -3   47.30    7.50
   1  -8  -3 1254.27   94.59
  -1   8   3 1403.06   93.59
  -1   8   3 1337.27   92.89
  -1   8   3 1413.96   92.09
   1   8  -3 1406.36   93.69
   1   8  -3 1498.55   93.09
   0  -8   3   32.40    7.50
   0  -8   3   24.50    6.60
   0   8  -3   41.80    6.30
   0   8   3   32.20    6.00
   0   8  -3   41.10    5.30
   0   8  -3   42.50    6.30
  -1  -8  -3 1254.37   86.89
  -1  -8  -3 1324.27   84.49
  -1   8  -3 1397.66   84.39
   1   8   3 1230.78   86.29
  -1   8  -3 1231.18   85.69
  -1   8  -3 1210.58   86.29
  -2  -8  -3   -1.60    2.40
  -2  -8  -3   -2.30    2.30
  -2  -8  -3   -3.10    2.00
  -2   8  -3   -1.40    1.90
   2   8   3   -3.20    2.70
   3  -8   3 1349.16   85.39
  -3  -8  -3 1327.97   85.59
  -3  -8  -3 1273.77   83.19
   3   8   3 1203.18   84.99
  -3   8  -3 1185.68   84.39
   3   8   3 1268.97   83.29
   3   8   3 1083.79   86.29
  -3   8  -3 1331.77   84.99
   4   8   3    4.20    2.50
  -4   8  -3    4.20    3.90
  -4   8  -3    4.00    3.00
   4   8   3    4.10    4.20
   5  -8   3  775.52   56.89
  -5  -8  -3  760.22   56.49
   5   8   3  752.32   54.39
   5   8   3  836.62   52.39
  -5   8  -3  738.13   53.59
   6  -8   3   -0.80    4.30
  -6  -8  -3   14.70    8.10
   6   8   3    2.60    2.40
   6   8   3    0.10    4.10
  -6   8  -3    0.00    2.70
   7  -8   3  235.28   21.10
   7  -8   3  293.97   23.20
   7   8   3  263.17   19.50
  -7   8  -3  264.87   20.70
   7   8   3  247.58   21.20
   8   8   3    5.50    3.40
   8   8   3    1.90    3.60
  -8   8  -3   -1.70    2.10
   9  -8   3   17.90    5.60
  10  -9  -3   46.10    8.50
  10   9  -3   57.29    7.40
   9  -9  -3   10.30    5.20
   9   9  -3    6.60    3.80
   9   9  -3    5.50    4.30
   8  -9  -3  229.88   18.90
   8  -9  -3  228.18   18.30
   8   9  -3  186.48   18.10
  -8   9   3  199.28   19.20
   8   9  -3  231.78   17.60
   7  -9  -3    9.40    4.50
   7  -9  -3    6.60    4.80
   7   9  -3    8.30    8.90
  -7   9   3    6.30    2.40
   7   9  -3   14.10    5.50
   6  -9  -3  392.36   31.90
   6  -9  -3  376.36   29.70
   6   9  -3  403.06   30.70
  -6   9   3  386.26   27.70
  -6   9   3  412.66   28.80
   6   9  -3  401.56   29.50
   5  -9  -3   -8.00    4.40
  -5  -9   3    5.00    2.80
  -5  -9   3    3.80    8.50
   5  -9  -3   -6.40    4.60
  -5   9   3   -0.20    1.30
  -5   9   3    1.50    1.60
   5   9  -3    1.30    4.40
   5   9  -3   -2.20    4.80
  -4  -9   3  477.55   37.60
   4  -9  -3  431.66   36.20
  -4  -9   3  465.55   33.90
   4   9  -3  453.25   34.70
   4   9  -3  432.36   33.30
  -4   9   3  482.25   32.50
  -4   9   3  502.05   32.70
  -3  -9   3   72.59    8.80
  -3  -9   3   81.29   12.50
  -3   9   3   62.79    6.60
   3   9  -3   55.09    8.70
   3   9  -3   62.59    7.80
  -3   9   3   72.39    6.70
  -2  -9   3  987.70   72.49
  -2  -9   3  917.01   70.99
   2  -9  -3 1037.10   72.69
   2   9  -3 1041.60   70.79
  -2   9   3 1078.39   69.09
  -2   9   3 1094.39   69.79
  -2   9   3 1034.00   70.89
   1  -9  -3   49.50   10.00
   1  -9  -3   74.39    7.50
  -1  -9   3   60.89    9.60
   1   9  -3   65.99    8.40
  -1   9   3   70.19    6.70
   1   9  -3   64.49    9.20
  -1   9   3   72.19    7.30
  -1   9   3   55.39    8.70
   0  -9  -3 2045.00  142.59
   0  -9   3 1918.31  142.39
   0   9  -3 2370.66  140.39
   0   9  -3 2159.98  141.69
   0   9   3 2114.39  141.49
   0   9  -3 2085.49  140.69
  -1  -9  -3    0.60    2.60
   1  -9   3   -1.10    3.60
   1   9   3   -1.60    3.20
  -2  -9  -3 1806.82  118.99
  -2  -9  -3 1879.21  118.19
  -2  -9  -3 1765.72  116.49
   2  -9   3 1918.31  119.59
   2   9   3 1545.35  118.39
  -2   9  -3 1670.23  117.79
  -3  -9  -3   71.59    8.00
  -3  -9  -3   70.39    7.50
   3  -9   3   49.80   11.40
  -3  -9  -3   72.59    7.80
   3   9   3   70.19    9.60
  -3   9  -3   61.99    8.80
   4  -9   3  446.06   37.60
  -4  -9  -3  561.64   37.30
   4   9   3  455.05   35.50
   4   9   3  486.85   33.30
  -4   9  -3  465.05   35.00
   5  -9   3    2.90    4.10
  -5   9  -3    9.80    3.20
   5   9   3   13.00    4.70
   5   9   3   17.60    3.20
   6  -9   3  145.29   16.20
   6   9   3  135.99   13.90
   6   9   3  153.88   11.50
   7  -9   3    1.80    3.90
   7  -9   3   -2.30    4.30
   7   9   3   12.10    3.40
  -7   9  -3    0.80    2.30
   8  -9   3  120.19   11.40
   8   9   3  142.69   10.70
  -8   9  -3   99.89   11.30
   8   9   3  125.39   11.50
   9   9   3   35.80    8.00
   9 -10  -3   85.99   10.30
   9  10  -3  107.79   10.00
   9  10  -3  124.89    9.70
   8 -10  -3   10.90    4.70
   8  10  -3    6.00    3.70
   7 -10  -3  318.37   29.00
   7 -10  -3  331.17   25.60
   7  10  -3  332.47   26.30
  -7  10   3  323.57   24.60
   6 -10  -3   -3.70    4.20
  -6  10   3    0.50    2.60
  -6  10   3   -1.00    1.80
   6  10  -3   -5.40    3.70
   6  10  -3   -1.50    4.50
  -5 -10   3  221.28   17.40
  -5 -10   3  242.78   22.30
   5 -10  -3  219.58   21.00
   5  10  -3  195.88   19.20
  -5  10   3  231.08   17.00
  -5  10   3  195.08   15.80
   5  10  -3  207.38   17.90
  -4 -10   3    2.70    7.20
   4 -10  -3   -6.10    5.00
   4  10  -3   -4.80    3.60
   4  10  -3   -7.20    4.50
  -3 -10   3  195.08   17.20
   3 -10  -3  199.58   20.00
  -3 -10   3  204.58   20.10
  -3  10   3  198.38   15.30
   3  10  -3  182.48   17.70
  -3  10   3  193.08   15.10
  -2 -10   3   16.60    5.10
   2 -10  -3    8.20    6.30
  -2 -10   3   15.80    8.00
  -2  10   3    8.50    2.10
   2  10  -3   12.20    4.80
  -2  10   3   14.00    3.30
   1 -10  -3 1911.01  127.99
  -1 -10   3 1610.24  126.59
  -1 -10   3 1820.52  127.69
   1  10  -3 1927.61  126.19
  -1  10   3 2019.80  124.39
  -1  10   3 1874.11  126.09
  -1  10   3 1939.41  125.29
   0 -10   3   10.00    5.90
   0 -10   3    2.90    5.20
   0 -10  -3   11.50    5.80
   0  10  -3    0.60    3.70
   0  10  -3    5.70    4.00
  -1 -10  -3 2386.26  161.08
   1 -10   3 2069.79  164.38
   1 -10   3 2702.53  164.98
  -1 -10  -3 2417.86  164.38
  -1  10  -3 2601.44  160.98
   1  10   3 2327.87  163.28
  -1  10  -3 2506.25  162.58
  -1  10  -3 2546.05  163.88
  -2 -10  -3   27.20    6.00
  -2 -10  -3   19.10    4.90
   2 -10   3   19.50    6.80
  -2  10  -3   13.20    3.60
   2  10   3   18.80    5.80
  -3 -10  -3  529.45   35.80
   3 -10   3  444.46   37.90
   3  10   3  481.55   36.50
  -3  10  -3  482.25   35.50
  -4  10  -3   -3.90    2.30
   5 -10   3  135.29   16.40
   5  10   3  119.39   13.10
   5  10   3  128.89    9.90
  -5  10  -3   98.89   11.50
   6 -10   3   -6.70    5.10
   6  10   3   -4.60    2.90
   6  10   3    1.50    3.10
   7 -10   3  141.29   14.00
   7 -10   3  154.68   16.00
   7  10   3  182.98   13.00
   7  10   3  159.78   14.40
   9  11  -3   31.90    7.90
   9  11  -3   40.60    7.50
   8 -11  -3  102.49   10.20
   8  11  -3  101.09   10.60
   8  11  -3  121.29    9.90
   7 -11  -3   -6.00    4.10
   7 -11  -3   -2.80    4.60
   7  11  -3    5.20    4.00
   7  11  -3    6.30    3.60
   6 -11  -3  222.48   24.00
   6 -11  -3  247.48   18.70
   6  11  -3  235.88   18.70
   6  11  -3  209.08   19.20
  -6  11   3  213.18   17.90
  -5 -11   3    2.90    2.90
  -5 -11   3   -4.30    7.40
   5  11  -3   -0.20    3.70
  -5  11   3    3.10    2.20
   5  11  -3   12.10    5.80
  -4 -11   3  674.23   48.60
   4 -11  -3  622.24   47.20
  -4 -11   3  670.33   44.90
  -4  11   3  610.04   42.40
  -4  11   3  578.64   42.80
   4  11  -3  543.05   44.80
   3 -11  -3   14.00    6.50
  -3 -11   3   21.90    8.30
   3  11  -3   29.60    7.90
  -3  11   3   12.60    2.60
  -3  11   3   14.50    3.80
   2 -11  -3  593.74   46.70
  -2 -11   3  595.64   46.00
  -2 -11   3  658.53   47.80
  -2  11   3  618.04   42.80
   2  11  -3  602.84   45.00
  -2  11   3  630.84   43.20
  -1 -11   3   -2.40    5.30
   1 -11  -3   -7.20    5.00
  -1 -11   3    4.40    6.60
  -1  11   3    3.20    2.30
  -1  11   3   -2.20    1.40
   1  11  -3   -3.30    3.90
  -1  11   3   -3.90    4.60
   0 -11   3  959.80   76.49
   0 -11  -3 1077.59   77.19
   0 -11   3 1169.28   77.59
   0  11  -3 1054.59   74.29
   0  11   3 1135.09   74.79
   0  11  -3 1155.38   75.89
   0  11   3 1068.39   75.39
   1 -11   3    1.30    4.70
  -1  11  -3   -5.00    4.30
   1  11   3   -6.60    4.00
  -1  11  -3   -2.30    2.90
  -2 -11  -3  600.94   44.50
   2 -11   3  604.74   46.30
  -2  11  -3  618.04   43.30
   2  11   3  593.34   44.20
   3 -11   3    2.30    5.20
   3  11   3    3.00    4.00
  -3  11  -3    2.60    3.00
   4 -11   3  319.07   26.90
   4  11   3  273.67   23.80
  -4  11  -3  270.37   22.70
   5 -11   3    1.30    6.00
   5  11   3    1.70    3.00
   6 -11   3  177.68   17.10
   6  11   3  172.18   14.70
  -6  11  -3  126.59   13.60
   7 -11   3   -0.10    4.90
   7  11   3    0.30    4.20
   8 -11   3   54.39    8.50
   8  12  -3   25.40    7.30
   8  12  -3   25.90    6.90
   7 -12  -3  102.59   10.20
   7 -12  -3  110.69   12.80
  -7  12   3   90.99    9.70
   6 -12  -3   16.80    4.70
   6 -12  -3    0.90    4.50
   6  12  -3   10.40    4.20
   6  12  -3    6.50    3.40
  -5 -12   3  316.47   23.50
   5 -12  -3  309.47   26.70
  -5  12   3  280.07   22.40
   5  12  -3  279.97   24.20
   4 -12  -3   -6.20    5.10
  -4 -12   3   -4.50   12.20
  -4 -12   3    7.10    4.50
   4  12  -3    3.60    4.10
  -4  12   3   -3.40    1.90
  -4  12   3   -1.70    2.40
  -3 -12   3  705.23   49.00
   3 -12  -3  624.14   50.19
  -3 -12   3  728.13   51.49
  -3  12   3  619.44   44.90
  -3  12   3  610.84   45.20
   3  12  -3  614.14   47.50
   2 -12  -3   -7.10    5.30
  -2 -12   3    4.20    6.60
  -2 -12   3   -1.60    4.50
   2  12  -3   -3.00    4.30
  -2  12   3   -1.00    1.50
  -1 -12   3  623.14   45.50
  -1 -12   3  585.94   44.90
   1 -12  -3  576.64   45.30
   1  12  -3  581.54   42.00
  -1  12   3  561.34   43.30
   1  12  -3  577.34   43.30
  -1  12   3  600.94   41.80
  -1  12   3  600.24   41.10
   0 -12   3    5.10    5.00
   0 -12   3    6.10    5.70
   0  12  -3   -4.60    4.00
   0  12   3   -5.10    3.90
   0  12   3    1.20    1.50
   0  12  -3   -4.70    2.50
   0  12   3    5.50    3.50
  -1 -12  -3  387.46   32.90
   1 -12   3  410.26   34.10
   1 -12   3  476.55   34.10
  -1  12  -3  415.66   32.30
  -1  12  -3  428.66   29.00
   1  12   3  391.96   31.80
  -1  12  -3  370.76   30.60
  -3 -12  -3  201.28   18.50
   3  12   3  202.78   18.20
  -3  12  -3  209.68   17.80
   4 -12   3    3.90    4.30
   4  12   3    6.20    3.50
   5 -12   3  298.47   24.90
   5  12   3  272.97   22.00
  -5  12  -3  223.78   20.80
   6 -12   3    1.10    4.90
   6  12   3   10.10    4.00
   7 -12   3   78.99   11.40
  -7  12  -3   45.80    7.80
   7  13  -3   42.90    7.80
   6 -13  -3  119.39   14.40
   6 -13  -3  134.69   11.60
   6  13  -3  127.69   12.10
  -5 -13   3   -4.00    3.40
   5 -13  -3   -3.80    4.70
   5  13  -3    6.20    3.60
  -4 -13   3  655.33   46.00
   4 -13  -3  629.54   48.30
  -4  13   3  590.94   43.60
   4  13  -3  613.04   46.10
  -2 -13   3  392.56   36.20
  -2 -13   3  386.66   30.60
  -2  13   3  372.56   26.70
  -2  13   3  363.36   26.60
   2  13  -3  300.67   31.60
  -1  13   3    7.50    2.30
  -1  13   3    7.00    3.10
  -1  13   3   14.70    4.90
   1  13  -3   11.10    4.50
   0 -13   3  204.48   20.40
   0  13   3  187.08   14.80
   0  13   3  176.88   16.80
   0  13   3  180.78   15.10
   0  13  -3  173.28   17.10
   0  13  -3  168.88   15.60
  -1  13  -3   -3.40    2.40
   1  13   3   -0.80    3.70
   2 -13   3  267.77   23.80
  -2  13  -3  237.88   20.60
   2  13   3  215.58   21.10
   3 -13   3   15.30    5.90
   3  13   3    1.00    3.50
   4 -13   3  357.06   30.10
   4  13   3  342.27   27.50
  -4  13  -3  332.87   26.70
   5 -13   3    8.70    5.00
   5  13   3   23.40    6.60
   6 -13   3  140.29   15.90
   6  13   3  170.48   13.60
   7  13   3   51.69    9.30
   7 -14  -3   30.20    6.30
   7 -14  -3   13.60    7.50
   5 -14  -3  139.29   16.50
   5 -14  -3  164.78   13.30
   5  14  -3  165.58   14.20
   4 -14  -3   -0.50    4.80
   4  14  -3    5.60    3.70
   3 -14  -3  355.66   30.50
  -3 -14   3  372.96   34.40
  -3  14   3  344.87   26.20
   3  14  -3  349.07   28.40
   2  14  -3   12.40    4.50
  -2  14   3   16.70    3.60
  -2  14   3    8.50    2.50
  -1 -14   3  292.07   24.40
   1 -14  -3  250.07   24.40
   1  14  -3  254.17   22.50
  -1  14   3  251.57   22.60
   1  14  -3  278.77   21.20
  -1  14   3  282.27   20.50
  -1  14   3  251.17   20.50
   0 -14   3    9.60    5.00
   0  14   3    8.10    3.10
   0  14   3    0.80    2.00
   1 -14   3  159.78   17.40
   1  14   3  105.69   13.30
  -1  14  -3  138.79   12.90
   1  14   3  137.99   11.80
   1  14   3  140.99   11.90
   2 -14   3    1.20    4.70
   2  14   3    4.30    3.40
  -2  14  -3   -1.30    2.20
  -3 -14  -3  185.18   19.30
  -3  14  -3  216.98   18.20
   3  14   3  245.98   19.00
   4 -14   3    5.20    4.90
   4  14   3    6.00    3.90
   5 -14   3  139.49   15.20
   5  14   3  152.38   12.70
   6 -15  -3   44.20   10.40
   6 -15  -3   41.30    9.90
   5  15  -3    9.40    4.90
  -4 -15   3   76.69    9.90
  -4  15   3   60.59    8.00
   3  15  -3   -3.20    3.80
  -2 -15   3  169.08   16.60
   2 -15  -3  145.79   17.90
   2  15  -3  193.68   16.40
   2  15  -3  181.58   14.70
  -2  15   3  164.98   13.90
   1  15  -3    4.20    2.40
   0 -15   3  240.98   21.00
   0 -15  -3  164.18   18.70
   0  15  -3  192.88   18.50
   0  15   3  222.58   16.50
   0  15  -3  222.18   17.30
   0  15   3  186.08   18.00
  -2 -15  -3  198.98   19.80
   2 -15   3  256.67   22.80
  -2  15  -3  220.88   18.90
   2  15   3  254.57   18.70
   2  15   3  235.28   20.10
   3 -15   3    6.00    4.90
   3  15   3   -0.20    3.90
   4 -15   3  139.09   13.60
   4  15   3  110.99   11.50
   5  15   3   34.50    8.90
   4  16  -3    3.10    4.90
   3 -16  -3   30.90    8.80
  -3 -16   3   27.20    5.30
  -3  16   3   20.30    3.10
   2  16  -3    2.70    3.90
   2  16  -3    4.50    2.50
   1 -16  -3  182.28   18.10
  -1 -16   3  193.78   18.00
   1  16  -3  220.18   17.30
  -1  16   3  182.28   15.10
   1  16  -3  203.68   16.20
   0 -16   3   -0.70    4.60
   0  16  -3    2.30    2.60
   0  16   3   -3.90    3.90
  -1 -16  -3  159.28   17.20
   1 -16   3  218.08   19.00
   1  16   3  167.38   15.30
   1  16   3  203.58   16.40
  -1  16  -3  202.38   16.20
   1  16   3  208.38   15.20
   2 -16   3    5.00    5.00
   2  16   3    5.50    2.70
   2  16   3   14.30    4.50
   3 -16   3  116.99   13.20
  -3  16  -3   90.49   10.40
   3  16   3  118.29   11.20
   2 -17  -3   29.40    6.20
  -2  17   3   27.50    8.50
   1  17  -3    9.20    4.80
   1  17  -3   -1.20    3.10
   0 -17   3  194.78   17.10
   0  17   3  152.48   13.80
   0  17  -3  158.48   14.60
   0  17   3  179.18   15.60
   1 -17   3    5.00    6.10
   1  17   3   -2.90    5.00
   1  17   3    3.60    6.50
  12   0  -4   31.00    7.50
  12   0  -4   46.10    7.00
  11   0  -4   21.30    5.00
  10   0  -4   86.89    9.00
  10   0  -4   55.39    9.20
   9   0  -4   -4.50    4.60
   9   0  -4    3.20    4.90
   8   0  -4  448.06   31.20
   8   0  -4  383.56   30.30
   7   0  -4    4.50    4.20
  -7   0   4   -3.00    4.90
  -6   0   4 2871.21  179.98
  -6   0   4 2804.92  181.08
   6   0  -4 2529.85  180.18
  -5   0   4    1.90    3.50
  -5   0   4    1.80    3.00
  -5   0   4   -0.40    1.90
   5   0  -4    2.70    2.50
   5   0  -4    0.00    1.30
   5   0  -4   -0.20    3.20
  -4   0   4 5055.39  368.16
  -4   0   4 5930.01  368.16
   4   0  -4 5943.50  368.56
   4   0  -4 5963.00  368.16
  -4   0   4 4898.61  368.36
   4   0  -4 5551.54  367.56
  -4   0   4 6074.39  368.06
   3   0  -4    4.50    2.20
  -3   0   4    1.70    2.30
  -3   0   4    0.10    1.90
   3   0  -4   -1.30    2.00
  -3   0   4    2.00    2.40
   3   0  -4    0.20    2.20
  -2   0   4  798.72   53.39
   2   0  -4  735.33   52.79
  -2   0   4  751.72   53.19
   2   0  -4  844.62   53.29
  -2   0   4  865.91   52.89
  -1   0   4    3.70    1.50
  -1   0   4    4.10    1.40
  -1   0   4    4.80    2.00
   1   0  -4    6.90    0.90
   1   0  -4    6.20    1.60
   1   0  -4   10.10    2.40
   0   0   4   98.59    8.10
   0   0   4  101.99    7.80
   0   0   4  110.89    7.60
   0   0  -4  120.89    8.40
   0   0   4  106.79    7.20
   0   0  -4  108.19    7.50
   1   0   4    0.30    1.60
  -1   0  -4    0.40    0.80
   1   0   4    0.30    0.70
  -2   0  -4 2872.51  202.88
   2   0   4 3333.67  202.98
   3   0   4    1.20    2.70
   3   0   4    4.20    2.50
  -4   0  -4 4109.29  284.77
   4   0   4 4202.48  284.77
  -4   0  -4 4563.44  287.27
   4   0   4 4531.05  285.37
   5   0   4    0.00    3.10
   5   0   4   -0.90    3.10
   6   0   4 1085.69   72.19
   6   0   4 1027.90   71.49
   6   0   4 1076.69   70.69
   7   0   4   -4.50    4.10
   7   0   4    0.10    2.10
  -7   0  -4   -1.50    4.40
   7   0   4   -5.70    3.90
   8   0   4   82.49    9.60
   8   0   4   80.49   10.70
  -8   0  -4  109.39   21.10
   9   0   4    1.00    3.10
   9   0   4   -1.70    3.30
  -9   0  -4    0.30   10.30
  10   0   4   61.19    6.50
  10   0   4   49.99    7.30
  12  -1  -4    4.00    4.40
  12  -1  -4   28.70    7.00
  12   1  -4   13.10    5.90
  12   1  -4    2.60    4.70
  11  -1  -4   73.39    7.90
  11  -1  -4   68.29    8.40
  11   1  -4   80.79    8.50
  11   1  -4   75.89    7.90
  10  -1  -4    5.60    3.90
  10   1  -4    9.80    4.00
   9  -1  -4  214.38   18.70
   9  -1  -4  201.98   17.60
   9   1  -4  198.48   17.40
   9   1  -4  217.28   18.60
   8  -1  -4    3.00    5.10
   8   1  -4    3.00    4.80
   8   1  -4    0.40    4.10
  -7  -1   4  658.53   51.69
   7  -1  -4  769.92   51.09
   7   1  -4  775.02   50.99
  -7   1   4  686.73   50.59
   7   1  -4  823.12   51.29
  -7   1   4  680.63   49.99
  -7   1   4  789.62   51.79
  -6  -1   4    1.40    2.20
   6  -1  -4    6.80    3.80
  -6  -1   4    5.90    3.40
  -6  -1   4   -0.40    4.80
   6   1  -4    2.40    3.30
   6   1  -4    7.20    3.20
  -6   1   4    5.40    3.30
  -6   1   4    4.70    3.50
   6   1  -4    2.10    3.90
  -6   1   4   -1.30    2.90
   5  -1  -4 2301.37  144.49
  -5  -1   4 2071.89  145.69
   5  -1  -4 2337.17  145.59
  -5  -1   4 2395.66  144.59
   5  -1  -4 2012.70  144.99
   5   1  -4 2207.58  145.19
  -5   1   4 2121.29  145.59
   5   1  -4 2043.80  145.09
   5   1  -4 2218.58  144.59
  -5   1   4 2192.18  144.99
  -5   1   4 2309.37  145.19
  -4  -1   4   75.09    7.10
  -4  -1   4   77.99    8.00
  -4  -1   4   76.89    8.40
   4  -1  -4   82.29    6.30
   4  -1  -4   88.89    7.70
   4  -1  -4   73.49    7.00
   4   1  -4   78.99    7.40
  -4   1   4   76.79    7.20
   4   1  -4   87.69    7.70
  -4   1   4   87.19    7.20
  -4   1   4   82.49    7.10
  -4   1   4   65.99    8.50
   4   1  -4   84.69    8.00
   4   1  -4   66.69    7.20
  -3  -1   4 2888.21  210.88
   3  -1  -4 3499.45  210.98
  -3  -1   4 3104.79  211.08
   3  -1  -4 3190.88  209.98
   3  -1  -4 3081.39  210.38
  -3  -1   4 3265.67  210.58
  -3   1   4 2851.21  210.78
   3   1  -4 3651.03  211.28
  -3   1   4 3426.26  210.48
   3   1  -4 2810.02  210.48
   3   1  -4 2997.00  210.38
  -3   1   4 3572.54  210.88
  -3   1   4 3152.88  210.68
   3   1  -4 3537.05  211.18
   2  -1  -4   22.80    2.70
  -2  -1   4   23.70    3.00
   2  -1  -4   23.80    3.50
   2  -1  -4   21.80    2.00
  -2  -1   4   22.40    4.20
  -2  -1   4   20.20    3.40
  -2   1   4   22.00    3.80
   2   1  -4   23.60    2.70
   2   1  -4   23.60    3.80
   2   1  -4   19.90    2.90
   2   1  -4   24.50    3.40
  -2   1   4   23.40    3.60
  -2   1   4   20.40    2.70
  -1  -1   4 2259.17  155.78
   1  -1  -4 2537.85  156.08
  -1  -1   4 2280.17  156.18
  -1  -1   4 2465.65  155.68
  -1   1   4 2072.89  155.88
   1   1  -4 2541.45  155.98
   1   1  -4 2242.78  155.78
  -1   1   4 2380.26  155.28
   1   1  -4 2415.06  155.38
   1   1  -4 2594.14  156.38
   0  -1   4   48.60    5.00
   0  -1  -4   56.79    3.80
   0  -1  -4   50.69    3.70
   0  -1   4   49.99    4.70
   0  -1   4   50.89    4.40
   0  -1   4   50.69    4.00
   0   1  -4   51.99    4.20
   0   1   4   47.60    3.90
   0   1   4   52.09    3.80
   0   1   4   51.99    5.10
   0   1  -4   55.49    4.60
   0   1   4   49.70    3.80
   2  -1   4  218.08   14.90
   2  -1   4  180.98   14.00
   2  -1   4  198.38   13.70
   2  -1   4  189.38   13.80
  -2  -1  -4  185.48   13.60
   2   1   4  198.68   13.60
   2   1   4  195.68   13.50
   2   1   4  193.78   13.80
  -2   1  -4  187.98   13.80
   3  -1   4 3508.65  214.58
   3  -1   4 3029.90  214.38
  -3  -1  -4 3321.77  216.28
   3  -1   4 3334.87  215.28
   3   1   4 3457.05  214.38
   3   1   4 3117.59  214.58
  -3   1  -4 3024.10  214.38
   3   1   4 3171.18  214.28
  -3   1  -4 3515.15  216.38
  -4  -1  -4   29.50    4.30
   4  -1   4   17.70    4.30
   4  -1   4   20.00    4.50
   4  -1   4   25.70    4.60
   4   1   4   27.00    5.40
   4   1   4   26.90    4.70
  -4   1  -4   29.20    4.60
   4   1   4   22.80    4.20
  -5  -1  -4 1177.68   81.89
   5  -1   4 1124.39   79.89
   5  -1   4 1116.59   78.29
   5  -1   4 1197.28   79.19
   5  -1   4 1241.08   79.19
   5   1   4 1225.58   78.99
   5   1   4 1173.08   79.39
   5   1   4 1329.87   80.39
  -5   1  -4 1136.09   81.39
   5   1   4 1165.88   78.89
  -5   1  -4 1141.19   78.99
   6  -1   4   26.70    6.00
   6  -1   4   30.90    4.70
   6   1   4   29.70    6.40
   6   1   4   36.40    5.50
  -6   1  -4   33.70    6.00
   7  -1   4  598.54   41.00
  -7  -1  -4  565.94   45.40
   7   1   4  585.14   41.50
   7   1   4  616.54   40.70
  -7   1  -4  529.35   44.40
   8  -1   4    8.80    5.00
  -8  -1  -4   16.80   10.60
   8   1   4    8.30    4.60
  -8   1  -4   10.20    9.00
   9  -1   4   55.29    7.80
  -9  -1  -4   84.59   23.30
   9  -1   4   58.69    7.00
  -9   1  -4   38.10   12.10
   9   1   4   59.79    8.00
   9   1   4   73.29    6.60
  10  -1   4    2.90    4.10
  10  -1   4   -2.10    3.80
  10   1   4    8.10    4.20
  10   1   4    9.90    3.60
  12  -2  -4   47.70   10.50
  12   2  -4   29.60    8.40
  12   2  -4   49.40   11.70
  11  -2  -4    0.30    3.50
  11  -2  -4    6.10    4.30
  11   2  -4    7.50    3.50
  11   2  -4    9.00    4.40
  10  -2  -4  162.48   14.80
  10   2  -4  164.38   15.50
  10   2  -4  182.28   15.00
   9  -2  -4    5.10    4.70
   9   2  -4    2.50    4.80
   9   2  -4    2.00    4.20
  -8  -2   4  450.45   33.10
   8  -2  -4  438.46   33.20
   8   2  -4  456.95   33.10
   8   2  -4  485.85   33.80
  -7  -2   4    8.80    4.80
   7  -2  -4    8.40    4.70
   7   2  -4    7.10    4.10
  -7   2   4    8.70    3.50
   7   2  -4    6.70    4.60
   7   2  -4    1.10    3.30
  -6  -2   4  933.01   54.99
   6  -2  -4  799.22   55.99
   6   2  -4  843.32   56.29
   6   2  -4  795.42   55.99
  -6   2   4  884.51   56.79
  -6   2   4  774.12   55.39
  -6   2   4  750.72   56.49
   5  -2  -4   51.49    6.60
   5  -2  -4   50.09    5.60
   5  -2  -4   44.50    4.80
  -5  -2   4   41.70    6.50
  -5   2   4   49.99    5.40
  -5   2   4   39.90    6.20
   5   2  -4   50.79    6.50
   5   2  -4   42.70    5.80
   5   2  -4   42.90    5.70
  -5   2   4   49.50    6.00
  -4  -2   4 2876.41  184.98
   4  -2  -4 2357.96  184.68
  -4  -2   4 2465.05  185.38
   4  -2  -4 2822.82  184.28
   4  -2  -4 3156.08  185.28
  -4   2   4 2652.13  184.68
   4   2  -4 3183.28  185.98
  -4   2   4 2934.51  185.28
   4   2  -4 2547.15  184.88
   4   2  -4 3189.08  185.78
  -3  -2   4   17.00    3.40
   3  -2  -4   23.40    2.30
   3  -2  -4   16.20    3.40
  -3  -2   4   24.40    5.60
  -3  -2   4   24.10    5.00
   3  -2  -4   18.90    3.60
  -3   2   4   17.70    3.00
   3   2  -4   22.60    4.50
   3   2  -4   15.80    4.30
  -3   2   4   22.40    4.60
   3   2  -4   15.50    3.50
  -3   2   4   16.40    3.60
   3   2  -4   14.00    3.40
  -3   2   4   17.20    3.80
  -2  -2   4 3653.13  262.67
   2  -2  -4 3920.11  262.17
  -2  -2   4 3909.21  261.97
  -2  -2   4 3726.13  262.17
  -2  -2   4 3999.90  261.77
   2   2  -4 4293.57  262.47
   2   2  -4 3949.10  262.07
   2   2  -4 4223.08  262.77
  -2   2   4 4382.46  262.47
  -2   2   4 3798.72  262.27
  -2   2   4 4223.58  261.67
   1  -2  -4   39.20    4.00
   1  -2  -4   39.90    3.30
  -1  -2   4   42.60    5.00
  -1  -2   4   39.60    4.30
  -1  -2   4   43.50    3.80
   1  -2  -4   43.10    4.50
  -1  -2   4   44.40    4.40
  -1   2   4   48.80    3.40
   1   2  -4   50.29    5.20
   1   2  -4   39.00    4.80
  -1   2   4   52.19    4.80
  -1   2   4   39.60    4.90
   1   2  -4   41.60    4.20
   1   2  -4   36.90    4.10
   0  -2   4 5514.85  370.76
   0  -2   4 5372.06  370.86
   0   2   4 5415.16  370.96
   0   2  -4 6393.16  371.06
   1  -2   4   12.10    2.30
  -1  -2  -4   15.20    2.40
   1  -2   4   13.70    4.20
   1  -2   4   13.60    2.70
   1  -2   4   14.10    2.50
   1   2   4    9.10    2.60
   1   2   4   11.20    1.50
   1   2   4   13.60    2.00
  -1   2  -4   12.30    3.30
  -1   2  -4   13.70    2.80
   2  -2   4 2106.09  136.29
   2  -2   4 2160.68  137.09
   2  -2   4 2282.67  136.19
  -2  -2  -4 2110.69  138.99
   2  -2   4 1952.10  135.59
   2   2   4 1950.90  135.99
   2   2   4 2155.18  135.79
  -2   2  -4 2029.70  135.99
   2   2   4 1908.21  135.49
   3  -2   4    0.10    3.10
   3  -2   4    0.70    1.40
  -3   2  -4    3.80    1.50
   3   2   4   -0.50    2.60
   3   2   4   -0.80    2.20
   4  -2   4 1399.36   88.59
   4  -2   4 1330.37   90.49
  -4  -2  -4 1343.17   91.19
   4   2   4 1305.57   89.79
  -4   2  -4 1294.17   88.89
  -4   2  -4 1352.46   90.79
   4   2   4 1353.76   89.09
   5  -2   4   18.70    4.10
   5  -2   4   20.50    4.60
   5  -2   4   14.20    4.70
   5   2   4   24.20    4.10
   5   2   4   21.70    4.50
  -5   2  -4   17.30    4.80
   5   2   4   17.40    5.10
  -5   2  -4   20.70    5.10
   5   2   4   15.20    3.70
   6  -2   4  588.84   37.00
   6  -2   4  507.15   37.40
  -6   2  -4  510.05   37.30
   6   2   4  533.55   37.70
   6   2   4  521.75   36.70
   7  -2   4    2.80    2.40
   7  -2   4    8.20    5.10
  -7  -2  -4    6.20    6.20
   7   2   4    1.80    4.00
   7   2   4   10.00    4.10
  -7   2  -4    1.50    3.80
   8  -2   4  241.58   20.80
  -8  -2  -4  321.17   30.70
  -8   2  -4  266.97   27.10
   8   2   4  259.97   20.40
   8   2   4  268.57   21.70
  -9  -2  -4   11.50   12.00
   9  -2   4    3.20    3.70
   9   2   4   -0.80    2.90
  -9   2  -4    7.30    7.90
  10  -2   4   74.99    7.80
  10  -2   4   83.19    8.50
  10   2   4   67.39    7.60
  11  -3  -4   76.59    7.70
  11  -3  -4   58.39    8.20
  11   3  -4   80.59    8.10
  11   3  -4   81.19    8.40
  10  -3  -4   22.10    5.20
  10   3  -4   22.70    5.30
   9  -3  -4  286.17   24.70
   9   3  -4  326.27   24.90
   9   3  -4  319.97   24.50
   8  -3  -4   23.70    6.30
   8   3  -4   19.80    5.50
   8   3  -4   29.40    7.40
   7  -3  -4  412.46   28.00
  -7  -3   4  350.36   28.60
  -7   3   4  393.96   27.90
   7   3  -4  397.36   28.10
  -7   3   4  344.27   29.00
   7   3  -4  375.86   27.80
   6  -3  -4   19.10    4.90
  -6  -3   4   17.60    3.80
   6   3  -4   13.10    3.90
  -6   3   4   22.70    4.90
  -6   3   4   19.50    4.30
   6   3  -4   19.60    5.00
  -6   3   4   24.50    6.60
   6   3  -4   25.50    7.00
   5  -3  -4  919.11   57.69
   5  -3  -4  856.11   58.39
  -5  -3   4  895.01   57.89
   5  -3  -4  929.11   58.59
  -5   3   4  835.12   57.69
   5   3  -4  814.32   58.39
  -5   3   4  850.51   59.09
   5   3  -4  861.21   58.59
  -5   3   4  847.22   58.59
  -4  -3   4   14.30    4.00
   4  -3  -4   18.10    3.70
  -4  -3   4   15.80    4.60
  -4  -3   4   24.90    4.30
   4  -3  -4   16.00    4.10
   4  -3  -4   18.10    2.90
  -4   3   4   17.10    3.20
  -4   3   4   18.00    4.40
   4   3  -4   16.20    3.60
  -4   3   4   11.10    4.00
   4   3  -4   15.40    4.20
   4   3  -4   18.50    5.10
  -4   3   4   14.10    3.80
   4   3  -4   12.30    4.20
   3  -3  -4 3350.36  213.18
   3  -3  -4 3471.95  214.08
  -3  -3   4 3407.36  214.18
   3  -3  -4 2922.71  213.48
   3  -3  -4 3215.38  214.38
  -3  -3   4 3378.16  213.88
  -3  -3   4 3330.97  213.98
  -3   3   4 3617.54  214.58
   3   3  -4 3609.74  215.08
  -3   3   4 2914.61  213.08
  -3   3   4 3082.39  214.08
   3   3  -4 3606.44  214.78
   3   3  -4 3001.30  213.78
   3   3  -4 2788.52  213.88
  -2  -3   4  144.09   12.30
   2  -3  -4  117.69    9.40
   2  -3  -4  143.59   10.00
  -2  -3   4  143.19   10.00
  -2  -3   4  131.99   10.80
  -2  -3   4  129.99   10.80
   2  -3  -4  127.99    9.10
   2  -3  -4  132.09   10.30
  -2  -3   4  126.29   10.10
  -2   3   4  120.59   10.90
   2   3  -4  125.79   10.40
  -2   3   4  130.49    9.00
  -2   3   4  131.79   10.60
   2   3  -4  157.78   11.40
   2   3  -4  124.59   10.10
  -1  -3   4 7974.60  501.45
   1  -3  -4 6696.43  501.15
   1   3  -4 8247.88  501.25
   1   3  -4 7794.82  501.95
   0  -3   4    7.90    2.80
   0  -3   4   10.60    3.20
   0  -3   4    7.80    3.20
   0  -3   4   10.90    2.50
   0  -3   4    7.10    2.00
   0  -3  -4   11.70    2.80
   0   3   4    5.20    2.90
   0   3  -4   13.10    3.50
   0   3  -4    8.90    2.00
   0   3  -4    5.40    1.70
   0   3   4    6.10    2.10
   1  -3   4 5794.02  428.06
  -1  -3  -4 6650.03  427.16
   1  -3   4 6643.24  427.36
   1  -3   4 6228.88  427.26
  -1   3  -4 7017.90  427.76
   1   3   4 6927.11  427.56
   2  -3   4   59.19    4.80
   2  -3   4   65.59    5.80
   2  -3   4   63.89    6.70
   2  -3   4   64.39    8.10
  -2  -3  -4   69.29    6.00
   2  -3   4   69.99    6.20
  -2  -3  -4   63.69    5.70
  -2   3  -4   64.59    5.90
   2   3   4   55.79    5.40
   2   3   4   59.29    6.20
   2   3   4   76.99    6.20
   2   3   4   65.49    5.00
   3  -3   4 1123.89   76.49
   3  -3   4 1224.18   75.29
  -3  -3  -4 1107.79   76.59
   3  -3   4 1120.99   74.19
  -3   3  -4 1135.69   76.29
  -3   3  -4 1055.29   75.09
   3   3   4 1089.19   74.49
   3   3   4 1140.69   75.29
   3   3   4 1179.18   74.89
  -4  -3  -4   60.39    6.50
   4  -3   4   61.99    5.40
   4  -3   4   57.99    6.50
   4  -3   4   48.40    7.20
   4   3   4   52.59    6.40
  -4   3  -4   66.49    5.70
   4   3   4   46.20    6.50
   4   3   4   69.09    5.70
   4   3   4   65.39    8.90
  -4   3  -4   60.89    6.20
   5  -3   4  581.84   38.90
   5  -3   4  643.74   38.90
   5   3   4  619.54   38.90
   5   3   4  568.04   39.20
   5   3   4  528.95   40.00
   5   3   4  603.74   38.60
  -5   3  -4  534.55   41.10
  -5   3  -4  530.45   39.70
   6  -3   4    0.70    4.80
   6  -3   4    6.20    2.50
   6   3   4    9.10    3.20
  -6   3  -4   14.80    4.60
   6   3   4   -0.20    3.30
  -6   3  -4    4.10    2.50
  -7  -3  -4  440.56   39.00
   7  -3   4  428.36   32.70
   7  -3   4  397.56   32.20
  -7   3  -4  499.85   33.00
   7   3   4  477.45   31.90
  -7   3  -4  461.85   36.10
   7   3   4  444.96   33.10
  -8  -3  -4    3.10    9.00
   8  -3   4    9.50    4.70
  -8   3  -4    3.20    5.70
   8   3   4    5.70    3.80
   9  -3   4  146.79   13.60
  -9  -3  -4  189.48   28.80
   9   3   4  160.78   14.20
  -9   3  -4  138.59   19.90
   9   3   4  164.58   12.80
  10  -3   4    1.00    5.00
  10   3   4   -3.70    4.50
  11  -4  -4   -0.90    4.80
  11   4  -4    6.10    4.20
  11   4  -4    6.80    3.80
  10  -4  -4  178.08   15.00
  10   4  -4  165.58   14.50
  10   4  -4  169.08   15.40
   9  -4  -4    3.40    6.20
  -8  -4   4  439.26   31.90
   8  -4  -4  406.96   31.30
  -8   4   4  431.06   30.80
   8   4  -4  424.46   31.30
   8   4  -4  418.06   31.70
   7  -4  -4    4.70    4.80
  -7   4   4    0.40    1.80
   7   4  -4   -0.60    4.10
   7   4  -4    1.50    4.70
  -6  -4   4  359.46   32.70
   6  -4  -4  448.46   30.90
  -6  -4   4  444.66   29.80
  -6   4   4  450.95   29.40
  -6   4   4  469.45   31.20
   6   4  -4  419.76   30.80
   6   4  -4  441.06   31.20
  -5  -4   4    0.80    4.80
   5  -4  -4    5.20    1.60
  -5  -4   4    8.90    2.70
   5  -4  -4    6.10    2.80
   5  -4  -4    7.00    3.10
   5  -4  -4   10.10    3.60
   5   4  -4    6.40    3.00
  -5   4   4    4.60    5.60
  -5   4   4    8.90    2.70
   5   4  -4   10.60    3.80
  -5   4   4    4.70    1.50
   4  -4  -4 1945.71  133.39
  -4  -4   4 2031.60  132.79
   4  -4  -4 1865.31  132.59
   4  -4  -4 2239.28  132.89
   4  -4  -4 2229.58  132.09
  -4   4   4 1872.91  132.79
  -4   4   4 1948.61  133.69
  -4   4   4 1887.51  131.99
   4   4  -4 2291.87  134.59
   4   4  -4 1810.12  132.79
   4   4  -4 2019.20  132.99
   3  -4  -4   72.59    6.80
   3  -4  -4   59.89    6.50
   3  -4  -4   77.09    6.80
   3  -4  -4   71.19    5.70
  -3  -4   4   72.99    7.40
  -3  -4   4   75.99    6.90
   3  -4  -4   68.79    7.40
  -3  -4   4   74.99    6.80
  -3   4   4   68.49    7.40
   3   4  -4   74.49    7.90
   3   4  -4   66.59    7.40
  -3   4   4   71.99    7.30
  -3   4   4   69.89    5.70
   3   4  -4   64.29    6.50
   3   4  -4   69.69    8.10
  -2  -4   4 5005.20  312.37
   2  -4  -4 5080.99  312.37
  -2  -4   4 4621.94  312.67
  -2  -4   4 5041.70  312.17
  -2  -4   4 4274.67  312.17
   2  -4  -4 4661.13  312.17
   2   4  -4 4166.58  313.77
  -2   4   4 5072.39  312.87
  -2   4   4 4508.45  312.37
   2   4  -4 4523.55  312.27
   2   4  -4 5004.20  313.47
   2   4  -4 5285.97  312.67
  -1  -4   4  265.57   22.20
   1  -4  -4  316.17   19.90
   1  -4  -4  309.97   21.70
  -1  -4   4  295.57   21.10
   1  -4  -4  290.87   21.10
  -1  -4   4  282.57   21.80
  -1  -4   4  333.27   21.10
  -1  -4   4  295.07   20.80
   1   4  -4  263.67   21.30
   1   4  -4  331.47   20.90
  -1   4   4  284.47   19.90
  -1   4   4  285.97   21.00
   1   4  -4  317.27   22.00
  -1   4   4  329.77   21.50
   1   4  -4  265.07   21.20
  -1   4   4  265.47   21.30
   0  -4   4 5359.56  336.07
   0  -4  -4 5306.27  335.77
   0  -4   4 4857.01  336.47
   0  -4   4 4727.43  336.47
   0  -4   4 5428.96  336.27
   0   4   4 5461.35  335.97
   0   4  -4 5089.29  335.77
   0   4   4 4566.94  336.17
   0   4  -4 4797.32  335.67
   0   4  -4 5723.63  336.57
   1  -4   4   45.40    5.20
   1  -4   4   37.40    5.90
   1  -4   4   44.60    6.40
   1  -4   4   45.60    3.80
  -1  -4  -4   44.60    4.80
  -1  -4  -4   41.30    3.20
  -1   4  -4   41.20    5.30
   1   4   4   37.20    5.30
  -1   4  -4   34.00    5.70
  -1   4  -4   46.10    3.70
   1   4   4   36.80    5.20
   2  -4   4 1511.85  104.49
   2  -4   4 1617.64  103.69
   2  -4   4 1539.35  103.09
   2  -4   4 1663.03  103.29
  -2  -4  -4 1524.95  103.99
  -2  -4  -4 1690.23  103.19
   2   4   4 1414.96  102.09
   2   4   4 1368.46  103.09
  -2   4  -4 1418.56  103.09
   2   4   4 1721.23  103.29
   2   4   4 1555.54  102.59
  -2   4  -4 1700.13  103.39
   3  -4   4  129.99   10.60
   3  -4   4  121.19   11.60
   3  -4   4  127.79   10.80
  -3  -4  -4  124.29   10.30
   3   4   4  113.69    9.70
   3   4   4  134.29   10.00
   3   4   4  123.59   10.30
  -3   4  -4  124.19   10.10
   3   4   4  121.59    9.30
  -3   4  -4  118.59    9.70
  -4  -4  -4  661.83   48.70
   4  -4   4  604.94   46.30
   4  -4   4  686.03   48.40
  -4   4  -4  700.93   46.70
   4   4   4  706.33   47.00
   4   4   4  697.73   45.90
   4   4   4  748.13   46.10
  -4   4  -4  677.13   47.50
   5  -4   4   30.60    3.10
   5  -4   4   29.10    2.90
  -5  -4  -4   23.40    6.90
  -5   4  -4   28.50    5.40
   5   4   4   29.10    4.20
   5   4   4   20.70    3.80
   5   4   4   20.80    5.50
  -6  -4  -4  548.25   44.20
   6  -4   4  570.04   38.20
   6  -4   4  522.85   38.60
   6  -4   4  580.04   40.70
   6   4   4  580.14   40.80
  -6   4  -4  590.54   40.40
  -6   4  -4  620.74   41.90
   6   4   4  577.64   39.30
  -7  -4  -4   -6.30    8.90
   7  -4   4    1.10    5.50
   7   4   4    0.30    3.00
  -7   4  -4   -1.60    3.80
  -7   4  -4    5.30    2.70
   7   4   4    1.50    3.90
  -8  -4  -4  310.17   33.40
   8  -4   4  315.57   23.60
   8   4   4  295.37   22.00
  -8   4  -4  311.37   23.30
  -8   4  -4  297.97   27.20
   8   4   4  261.97   25.00
   9  -4   4    9.20    4.10
  -9  -4  -4   13.00   12.00
   9   4   4    9.60    3.30
   9   4   4   20.70    4.70
  10   4   4   62.69    7.60
  10   4   4   77.39    8.00
  11   5  -4   58.89    7.50
  11   5  -4   66.69    7.20
  10  -5  -4    3.40    3.80
  10   5  -4   -2.50    3.00
   9  -5  -4  168.48   14.70
   9   5  -4  164.58   15.00
   9   5  -4  173.78   14.60
   8  -5  -4   20.30    6.20
  -8   5   4   25.70    4.40
   8   5  -4   17.40    6.00
   7  -5  -4  647.84   46.50
  -7  -5   4  672.73   48.70
   7   5  -4  666.53   46.40
   7   5  -4  654.33   47.00
  -7   5   4  684.93   46.20
  -6  -5   4   38.50    8.60
   6  -5  -4   43.60    6.80
  -6  -5   4   46.40    6.30
  -6   5   4   56.29    5.80
  -6   5   4   44.60    5.40
   6   5  -4   49.40    7.50
   6   5  -4   57.19    6.90
  -6   5   4   45.00    5.00
   5  -5  -4 1146.19   73.39
   5  -5  -4 1142.79   72.89
   5  -5  -4 1053.59   73.49
   5  -5  -4 1192.08   74.79
  -5  -5   4 1029.40   73.39
   5   5  -4 1153.28   74.19
  -5   5   4 1092.59   73.69
   5   5  -4  995.20   73.59
  -5   5   4 1064.49   72.79
  -4  -5   4    4.00    3.10
   4  -5  -4    0.90    1.30
   4  -5  -4    6.30    2.50
   4  -5  -4    5.50    2.90
   4  -5  -4    4.30    3.10
   4   5  -4    4.10    2.80
  -4   5   4    3.70    2.50
   4   5  -4    3.90    3.50
  -4   5   4    2.80    1.50
  -3  -5   4 2048.10  137.99
   3  -5  -4 2172.68  137.69
   3  -5  -4 2261.87  137.49
   3  -5  -4 2033.90  137.09
   3  -5  -4 1912.81  138.39
  -3  -5   4 2273.37  137.79
   3   5  -4 1950.01  137.69
  -3   5   4 2078.19  139.29
   3   5  -4 1966.70  137.59
   3   5  -4 2271.37  142.09
  -3   5   4 1863.31  136.49
   3   5  -4 2184.08  138.49
  -2  -5   4  251.77   17.60
  -2  -5   4  231.88   17.50
   2  -5  -4  243.18   17.50
  -2  -5   4  228.88   18.40
   2  -5  -4  250.67   18.40
   2   5  -4  207.68   17.80
   2   5  -4  218.88   17.30
   2   5  -4  256.47   17.90
  -2   5   4  230.18   18.10
  -2   5   4  227.38   18.00
   2   5  -4  228.68   19.00
  -2   5   4  249.28   16.30
  -1  -5   4 3882.31  240.38
   1  -5  -4 3555.94  240.78
  -1  -5   4 3424.36  240.78
   1  -5  -4 3775.82  240.48
  -1  -5   4 3666.33  240.28
  -1   5   4 3294.67  240.08
   1   5  -4 3365.66  240.28
  -1   5   4 3910.21  240.68
   1   5  -4 4131.89  240.08
  -1   5   4 3160.18  239.08
   1   5  -4 4089.89  241.58
   0  -5   4  140.99   11.20
   0  -5  -4  132.49    9.20
   0  -5   4  144.49   11.30
   0  -5  -4  128.09   11.50
   0  -5   4  125.59   11.90
   0  -5  -4  143.89   11.00
   0   5  -4  110.59   10.40
   0   5   4  114.19   11.20
   0   5   4  139.09   11.20
   0   5  -4  109.79   11.10
   0   5  -4  151.98   11.90
   0   5  -4  140.09    9.90
  -1  -5  -4 2931.61  216.88
  -1  -5  -4 3631.64  218.38
   1  -5   4 2923.41  219.28
   1  -5   4 3611.44  218.68
  -1   5  -4 3333.17  216.98
  -1   5  -4 3621.74  219.88
   1   5   4 2947.71  218.38
  -1   5  -4 3773.62  219.08
   1   5   4 3556.74  218.58
  -1   5  -4 2918.31  218.08
  -2  -5  -4    0.40    1.50
   2  -5   4    4.80    2.70
   2  -5   4   -2.70    3.50
   2  -5   4   -0.70    2.70
  -2  -5  -4    1.60    2.20
   2   5   4   -0.70    2.30
  -2   5  -4    2.20    1.50
  -2   5  -4    0.30    2.60
   2   5   4    0.20    2.20
   2   5   4   -0.50    1.80
   3  -5   4 1823.62  131.09
  -3  -5  -4 2029.00  128.49
  -3  -5  -4 1911.41  130.69
  -3   5  -4 2175.38  129.29
   3   5   4 1933.11  128.39
   3   5   4 2027.50  129.29
   3   5   4 2076.39  129.79
  -3   5  -4 1799.42  129.29
   3   5   4 1809.42  129.49
  -3   5  -4 1979.10  131.59
  -4  -5  -4    4.20    2.60
   4   5   4    5.10    3.20
   4   5   4    0.20    2.20
  -4   5  -4    0.80    2.00
   4   5   4    1.30    2.60
  -5  -5  -4  701.23   58.79
  -5   5  -4  762.32   52.89
   5   5   4  796.02   53.29
   5   5   4  814.42   51.89
  -6  -5  -4    2.20    5.30
   6  -5   4    5.00    5.40
   6   5   4    4.80    4.30
   6   5   4    4.30    2.80
  -6   5  -4    4.70    2.50
   7  -5   4  263.57   21.90
  -7  -5  -4  264.97   28.60
   7  -5   4  240.48   21.30
   7   5   4  280.47   19.80
  -7   5  -4  275.97   21.10
   7   5   4  263.17   21.70
  -7   5  -4  285.47   22.20
   8  -5   4    4.00    3.70
  -8  -5  -4    3.50   10.20
   8   5   4   -2.00    2.80
   8   5   4    2.20    2.80
  -8   5  -4    2.10    2.00
  -8   5  -4   -0.70    4.20
   9  -5   4   94.99    9.30
   9   5   4   83.29    8.90
   9   5   4   90.99    7.80
  10   5   4   19.70    7.20
  10   5   4   10.90    4.60
  11  -6  -4   -0.60    5.50
  11   6  -4    7.10    5.10
  10  -6  -4   69.09    7.70
  10   6  -4   67.99    8.20
  10   6  -4   81.39    7.80
   9  -6  -4   13.20    4.20
   9   6  -4   21.10    4.90
   8  -6  -4  289.87   22.90
  -8  -6   4  283.07   25.80
   8   6  -4  273.07   23.30
  -8   6   4  282.97   21.00
   8   6  -4  294.17   22.50
  -7  -6   4    8.10    5.10
   7  -6  -4   20.40    6.20
   7   6  -4   15.60    5.80
   7   6  -4   12.50    4.80
  -7   6   4   18.70    4.10
   6  -6  -4 1408.86   84.69
  -6  -6   4 1125.69   85.59
  -6  -6   4 1081.69   82.19
   6  -6  -4 1260.77   83.29
  -6   6   4 1287.47   81.59
   6   6  -4 1216.08   83.59
   6   6  -4 1138.79   82.99
  -6   6   4 1292.87   82.99
  -6   6   4 1288.77   82.29
   5  -6  -4   12.00    3.80
  -5  -6   4    1.30    5.20
   5  -6  -4    7.80    3.90
  -5  -6   4    9.30    3.90
   5  -6  -4    9.40    3.40
  -5   6   4    6.10    1.80
  -5   6   4    1.80    3.60
   5   6  -4    8.30    3.90
   5   6  -4   11.50    4.60
   4  -6  -4 2372.26  151.88
   4  -6  -4 2497.45  152.58
   4  -6  -4 2232.78  152.48
   4  -6  -4 2360.76  154.38
  -4  -6   4 1985.50  153.48
  -4   6   4 2639.44  153.18
   4   6  -4 2359.86  153.28
   4   6  -4 2183.88  152.78
  -4   6   4 2292.97  151.78
  -4   6   4 2192.08  152.58
  -3  -6   4   16.60    5.50
   3  -6  -4   18.40    4.10
   3   6  -4   21.80    4.90
   3   6  -4   17.60    4.90
  -3   6   4   29.00    4.30
   2  -6  -4 1710.03  112.69
   2  -6  -4 1701.53  111.59
  -2  -6   4 1521.15  111.79
  -2  -6   4 1745.63  111.59
  -2   6   4 1736.43  110.19
   2   6  -4 1523.65  111.19
  -2   6   4 1689.73  111.49
   2   6  -4 1549.74  111.49
   2   6  -4 1907.81  111.89
  -1  -6   4    4.80    2.90
   1  -6  -4    1.50    2.60
  -1  -6   4    0.00    2.50
   1  -6  -4    5.20    2.40
  -1   6   4    1.50    1.80
  -1   6   4   -0.80    2.00
   1   6  -4    3.80    4.80
  -1   6   4   -1.00    1.40
  -1   6   4    0.10    4.60
   1   6  -4    1.40    2.50
   1   6  -4   -1.60    2.60
   0  -6  -4  498.35   32.20
   0  -6   4  413.56   32.30
   0  -6   4  488.55   31.90
   0  -6  -4  439.86   29.90
   0  -6  -4  445.76   31.50
   0   6  -4  377.56   30.90
   0   6   4  408.46   31.50
   0   6  -4  408.76   31.40
   0   6  -4  502.35   32.90
   0   6   4  434.66   31.80
   0   6  -4  489.45   30.50
  -1  -6  -4  100.09    8.90
   1  -6   4   82.59    9.60
  -1  -6  -4   92.99    8.90
   1  -6   4  108.49    9.60
  -1  -6  -4   94.69    6.80
  -1   6  -4  101.79    9.70
   1   6   4   78.69    8.40
  -1   6  -4   81.09    8.20
  -1   6  -4   87.69    6.70
   1   6   4   86.79    9.20
  -2  -6  -4 1861.31  121.09
   2  -6   4 1672.73  122.09
  -2  -6  -4 1879.01  119.19
   2   6   4 1768.12  119.29
   2   6   4 1781.72  120.79
   2   6   4 1798.92  120.69
  -2   6  -4 2078.59  121.09
  -2   6  -4 1696.53  120.39
  -3  -6  -4    5.60    2.40
  -3   6  -4    4.30    3.00
   3   6   4    0.30    2.50
   3   6   4    3.00    2.90
   3   6   4    1.80    2.60
  -3   6  -4    4.40    2.00
   4  -6   4 1276.77  100.29
  -4  -6  -4 1584.94  100.59
  -4   6  -4 1560.54   98.69
   4   6   4 1303.57   97.89
   4   6   4 1534.45   98.99
  -4   6  -4 1584.34   98.89
   5  -6   4   18.50    5.20
  -5  -6  -4   13.30    4.70
  -5   6  -4   25.40    4.80
   5   6   4   25.30    4.50
   5   6   4   15.10    4.50
  -5   6  -4   30.80    6.70
   5   6   4   18.80    3.60
  -6  -6  -4  682.63   54.19
   6  -6   4  607.74   51.69
   6   6   4  771.22   49.10
  -6   6  -4  785.42   50.99
   6   6   4  734.43   50.89
  -6   6  -4  754.02   50.49
  -7  -6  -4    0.80    9.40
   7  -6   4    8.70    6.20
   7  -6   4   -3.60    3.80
   7   6   4    6.00    3.90
  -7   6  -4    7.60    3.60
   7   6   4    0.90    2.50
   8  -6   4   92.89   12.60
  -8  -6  -4  124.29   21.40
   8  -6   4  104.79   11.00
   8   6   4  119.99    9.70
  -8   6  -4  116.19   11.30
   8   6   4  124.39   11.60
   9  -6   4   -8.40    4.80
   9   6   4    4.70    3.70
  -9   6  -4   -2.70    2.20
   9   6   4   10.10    3.90
  10  -6   4   18.30    6.10
  11   7  -4   51.59    7.80
  11   7  -4   50.09    8.20
  10  -7  -4    9.60    5.00
  10   7  -4    6.00    4.30
  10   7  -4    7.80    3.80
   9  -7  -4   84.49    8.70
   9   7  -4   69.99    8.30
   9   7  -4   84.79    9.50
   8  -7  -4    3.00    4.30
   8  -7  -4    6.00    3.40
  -8   7   4    0.20    1.80
  -8   7   4   -1.80    2.70
   8   7  -4   -5.10    4.20
   8   7  -4   -2.30    4.80
  -7  -7   4  661.53   49.80
   7  -7  -4  652.73   46.70
   7  -7  -4  707.33   48.10
  -7   7   4  646.74   45.40
   7   7  -4  630.64   46.30
  -7   7   4  679.73   45.50
   7   7  -4  633.04   47.00
   6  -7  -4    3.30    3.10
  -6  -7   4   -3.10    5.30
  -6  -7   4    0.10    3.70
   6  -7  -4    4.90    4.60
  -6   7   4    6.00    1.80
   6   7  -4    4.60    5.30
  -6   7   4    2.30    1.60
  -6   7   4    1.10    3.20
   6   7  -4   -2.00    4.40
   5  -7  -4 1655.53  108.99
   5  -7  -4 1815.92  111.29
  -5  -7   4 1413.16  111.49
   5   7  -4 1701.13  109.19
  -5   7   4 1709.13  107.99
   5   7  -4 1677.33  109.69
  -5   7   4 1698.93  108.79
  -5   7   4 1384.96  108.59
  -4  -7   4    2.00    2.30
   4  -7  -4    1.10    3.10
   4  -7  -4   -1.20    3.50
  -4   7   4    3.40    1.40
  -4   7   4   -1.30    3.90
   4   7  -4    2.60    3.40
   4   7  -4    1.90    4.10
  -3  -7   4 1205.38   83.79
   3  -7  -4 1358.16   85.19
   3   7  -4 1203.78   83.39
   3   7  -4 1257.47   83.19
  -3   7   4 1300.97   83.69
  -3   7   4 1025.80   82.59
  -3   7   4 1303.87   83.09
   2  -7  -4   82.09    9.90
  -2  -7   4   75.99    9.30
   2   7  -4   68.69    8.50
  -2   7   4   93.99    7.70
  -2   7   4   85.29    8.10
   2   7  -4   92.29   10.00
  -1  -7   4  636.44   48.70
   1  -7  -4  701.33   49.10
   1   7  -4  707.93   48.30
   1   7  -4  773.12   47.80
  -1   7   4  681.93   48.00
  -1   7   4  675.43   48.00
  -1   7   4  682.83   46.70
   0  -7   4    5.20    3.30
   0  -7  -4   10.80    3.40
   0   7   4    5.70    2.80
   0   7  -4    6.30    2.70
   0   7  -4   10.90    2.70
   0   7  -4    5.90    1.80
  -1  -7  -4 1257.07   80.29
  -1  -7  -4 1214.78   82.09
   1  -7   4 1114.99   83.39
  -1  -7  -4 1354.36   82.79
  -1   7  -4 1272.97   80.19
  -1   7  -4 1157.48   81.79
   1   7   4 1156.18   82.19
  -2  -7  -4    4.80    2.00
  -2  -7  -4   10.60    2.90
   2   7   4    9.50    3.20
  -2   7  -4    7.60    2.10
  -2   7  -4    5.30    4.40
   2   7   4    7.60    3.60
  -3  -7  -4 2529.05  165.38
  -3  -7  -4 2787.02  162.98
   3  -7   4 2112.69  165.98
   3   7   4 2539.25  164.78
   3   7   4 2475.35  162.88
  -3   7  -4 2441.36  164.38
  -4  -7  -4    5.00    3.40
  -4  -7  -4    3.30    2.30
  -4   7  -4    4.50    2.40
   4   7   4   -1.10    3.00
   4   7   4   -1.80    2.30
  -4   7  -4    3.20    3.20
   4   7   4    3.60    3.10
  -5  -7  -4 1055.99   75.79
  -5   7  -4 1098.39   72.79
   5   7   4 1049.89   73.49
  -5   7  -4 1043.20   72.99
   5   7   4 1114.09   71.59
  -6  -7  -4   -2.50    6.00
   6   7   4   -3.80    3.50
  -6   7  -4    1.70    3.10
  -6   7  -4    4.60    2.70
   7  -7   4   88.59   11.60
  -7  -7  -4   71.79   18.20
   7  -7   4   91.09   10.00
   7   7   4  101.29    8.80
  -7   7  -4   92.89    9.80
   8  -7   4   -1.00    4.40
   8   7   4    4.20    3.50
   8   7   4   -4.60    3.10
   9  -7   4   33.00    6.50
  -9   7  -4   25.50    5.70
  10   8  -4   87.59    8.80
  10   8  -4  102.89    9.10
   9  -8  -4    5.00    4.50
   9   8  -4    6.50    3.60
   9   8  -4    9.40    4.30
   8  -8  -4  200.38   17.60
   8  -8  -4  217.68   18.30
   8   8  -4  216.38   17.40
  -8   8   4  204.08   16.50
   8   8  -4  201.38   17.70
  -8   8   4  190.08   17.60
  -7  -8   4   -6.10    6.50
   7  -8  -4   -2.10    4.90
   7  -8  -4    0.60    3.60
  -7   8   4   -0.20    2.00
   7   8  -4   -5.90    4.10
   7   8  -4   -6.00    4.70
  -6  -8   4  542.95   43.50
   6  -8  -4  547.25   39.80
   6  -8  -4  584.74   42.00
  -6   8   4  542.85   38.30
   6   8  -4  555.44   39.60
  -6   8   4  589.74   38.40
   6   8  -4  509.15   40.10
  -5  -8   4    0.60    5.90
  -5  -8   4   -2.70    1.90
   5  -8  -4   -0.40    3.80
   5  -8  -4   -5.40    3.40
   5   8  -4   -0.70    4.50
  -5   8   4    1.50    1.40
  -5   8   4    4.60    5.40
   5   8  -4    1.10    5.30
  -4  -8   4  843.92   68.69
   4  -8  -4 1020.20   70.99
   4  -8  -4 1044.60   68.29
  -4   8   4 1037.00   68.19
   4   8  -4  997.60   69.29
   4   8  -4 1019.60   68.79
  -4   8   4 1096.59   67.59
   3  -8  -4   30.10    8.20
  -3  -8   4   17.00    6.30
  -3  -8   4   25.70    5.70
   3   8  -4   30.60    6.50
   3   8  -4   26.90    6.30
   2  -8  -4 1299.57   90.49
  -2  -8   4 1222.58   89.39
  -2   8   4 1373.36   88.49
   2   8  -4 1291.37   88.89
  -2   8   4 1378.66   87.29
   1   8  -4    1.50    3.20
  -1   8   4    0.40    1.90
  -1   8   4    0.80    1.60
  -1   8   4   -3.50    2.30
   0  -8  -4 1794.72  109.69
   0  -8   4 1447.46  112.29
   0  -8  -4 1745.03  112.69
   0   8   4 1621.04  111.59
   0   8  -4 1547.95  110.89
   0   8   4 1610.64  111.39
   0   8  -4 1829.22  110.29
   0   8  -4 1693.83  111.59
   1  -8   4    7.90    4.80
  -1  -8  -4    4.00    3.40
   1  -8   4    2.50    3.50
   1   8   4    8.50    3.30
  -1   8  -4    4.50    3.10
  -1   8  -4    5.50    2.40
  -2  -8  -4 1559.94  102.39
  -2  -8  -4 1658.93  102.89
  -2  -8  -4 1564.44  100.49
  -2   8  -4 1457.65  102.09
   2   8   4 1381.66  102.49
  -3  -8  -4   21.30    4.10
   3  -8   4   15.40    4.30
  -3  -8  -4   19.30    4.40
  -3   8  -4   17.60    9.10
   3   8   4   12.90    4.30
  -3   8  -4    9.20    2.90
  -4  -8  -4  589.34   43.40
   4   8   4  585.54   42.10
   4   8   4  594.14   39.70
  -4   8  -4  571.84   41.60
  -5  -8  -4   18.50    6.40
   5   8   4   25.20    3.00
   5   8   4   14.50    4.80
  -5   8  -4   33.00    6.60
   6  -8   4  260.47   22.70
  -6  -8  -4  228.98   26.00
   6   8   4  260.97   18.40
   6   8   4  245.38   21.10
  -6   8  -4  264.07   20.50
   7  -8   4   -0.70    4.30
  -7  -8  -4   -1.90    8.10
   7   8   4    6.40    3.00
   7   8   4    1.00    3.00
   8  -8   4  115.19   11.70
  -8   8  -4  107.59   11.30
   8   8   4  144.99   14.70
   8   8   4  122.39   11.30
  10   9  -4   29.90    6.90
  10   9  -4   25.40    7.50
   9  -9  -4  131.79   12.60
   9   9  -4  145.39   12.00
   9   9  -4  140.39   12.60
   8  -9  -4   -1.50    3.80
   8  -9  -4   -1.00    4.20
   8   9  -4    0.90    3.20
   7  -9  -4  212.88   19.70
   7  -9  -4  187.48   17.50
  -7  -9   4  230.98   21.80
  -7   9   4  210.78   16.30
   7   9  -4  203.48   17.40
   6  -9  -4    0.60    3.80
  -6  -9   4    4.20    7.00
   6   9  -4   -2.50    4.30
  -6   9   4    1.10    1.60
  -6   9   4   -2.20    2.10
   6   9  -4   -6.50    4.70
   5  -9  -4  394.86   28.80
   5  -9  -4  378.16   31.90
  -5  -9   4  420.76   33.80
  -5  -9   4  410.66   29.00
   5   9  -4  370.36   29.90
   5   9  -4  367.16   29.20
  -5   9   4  383.16   27.60
  -5   9   4  398.66   27.80
  -4  -9   4   -0.90    2.00
   4  -9  -4   -6.50    4.40
  -4  -9   4   -2.10    6.10
   4   9  -4   -3.90    5.00
   3  -9  -4  850.51   61.29
  -3  -9   4  760.82   60.99
  -3  -9   4  722.63   59.09
  -3   9   4  941.71   58.49
   3   9  -4  866.31   59.49
  -3   9   4  952.60   57.49
  -2  -9   4    2.30    6.40
  -2  -9   4    5.10    4.50
  -2   9   4   -0.90    1.70
   2   9  -4   -2.40    3.20
   1  -9  -4 2266.07  155.68
  -1  -9   4 1902.11  154.58
   1  -9  -4 2577.44  152.38
  -1   9   4 2299.57  154.08
   1   9  -4 2297.27  154.08
  -1   9   4 2347.77  152.28
   1   9  -4 2469.95  153.58
  -1   9   4 2312.27  153.78
   0  -9   4   14.10    5.80
   0  -9  -4    3.40    4.90
   0  -9   4   12.40    5.60
   0   9   4   18.90    4.70
   0   9  -4   13.50    4.30
   0   9  -4   10.00    2.90
  -1  -9  -4 1533.25   97.69
  -1  -9  -4 1511.55  100.89
  -1  -9  -4 1488.85   98.69
   1   9   4 1423.06   99.99
  -1   9  -4 1548.45   97.39
  -1   9  -4 1497.75  100.29
  -1   9  -4 1340.27   99.19
  -2  -9  -4    1.10    2.20
  -2  -9  -4   -1.20    2.60
   2  -9   4   -3.90    2.60
  -3  -9  -4  599.14   42.90
   3  -9   4  637.94   43.10
  -3  -9  -4  634.94   42.10
  -3   9  -4  552.94   42.30
   3   9   4  564.94   43.00
   4  -9   4   -1.50    3.50
  -4  -9  -4    6.50    3.70
   4   9   4   -3.00    3.70
  -4   9  -4    3.60    2.50
  -5  -9  -4  332.97   28.20
   5  -9   4  304.67   26.90
  -5   9  -4  297.87   24.30
   5   9   4  301.07   24.80
   5   9   4  322.17   22.00
   6  -9   4    4.30    5.40
  -6  -9  -4   -4.30    6.90
  -6   9  -4    0.60    1.90
   7  -9   4   90.99   14.70
   7   9   4   92.29    9.70
   7   9   4  107.79    9.80
  -7   9  -4   86.99    9.80
   9  -9   4   54.39   10.30
  -9   9  -4   62.29    9.10
   9  10  -4   27.10    6.70
   9  10  -4   23.20    5.90
   8 -10  -4  146.99   13.90
   8 -10  -4  129.89   12.40
   8  10  -4  145.29   12.50
  -8  10   4  124.89   12.10
   8  10  -4  150.68   13.20
   7 -10  -4   12.70    6.60
   7  10  -4    9.80    4.70
   7  10  -4   -2.50    3.00
  -6 -10   4  228.48   18.10
   6 -10  -4  230.48   18.90
   6 -10  -4  231.08   22.20
   6  10  -4  238.88   19.50
  -6  10   4  197.38   16.80
   6  10  -4  230.88   20.00
  -6  10   4  243.78   17.80
  -5 -10   4   21.10    8.60
   5 -10  -4   14.80    5.10
  -5 -10   4   15.30    4.70
   5  10  -4    6.20    5.00
   5  10  -4   22.10    6.10
   4 -10  -4  440.76   35.10
  -4 -10   4  425.16   32.60
  -4 -10   4  464.75   36.50
   4  10  -4  400.06   32.90
   4  10  -4  421.86   32.30
  -4  10   4  431.26   30.80
  -4  10   4  459.65   30.70
   3 -10  -4   10.80    6.50
  -3 -10   4   37.30   11.30
  -3 -10   4   24.90    6.40
  -3  10   4   19.20    4.10
  -3  10   4   21.70    4.30
   3  10  -4   28.00    8.30
   2 -10  -4 1283.47   93.99
  -2 -10   4 1230.18   93.89
   2  10  -4 1357.66   92.19
  -2  10   4 1453.25   90.19
  -2  10   4 1414.96   91.29
  -1 -10   4   13.10    5.40
   1 -10  -4   12.80    5.90
  -1 -10   4   35.50    9.70
  -1  10   4   18.50    4.90
  -1  10   4   23.40    4.10
   1  10  -4   19.20    5.20
   0 -10   4 1437.96  108.69
   0 -10  -4 1528.05  108.99
   0 -10  -4 1678.03  105.49
   0  10   4 1572.94  107.59
   0  10  -4 1623.84  107.89
   0  10   4 1623.24  107.59
   0  10  -4 1613.24  105.99
   0  10  -4 1641.04  106.99
   1 -10   4   56.39   11.10
   1 -10   4   70.09   10.00
  -1 -10  -4   52.69    9.20
  -1 -10  -4   62.59    7.30
  -1 -10  -4   71.39    7.70
  -1  10  -4   75.89    9.80
   1  10   4   73.99    9.80
  -1  10  -4   76.99    6.60
   2 -10   4  695.63   46.80
  -2 -10  -4  641.94   46.10
  -2 -10  -4  662.33   44.80
  -2  10  -4  572.24   45.00
   2  10   4  612.84   45.90
   3 -10   4   31.40    8.50
  -3 -10  -4   35.90    5.80
   3  10   4   37.10    7.80
   4 -10   4  154.98   18.40
  -4 -10  -4  227.18   19.50
   4  10   4  183.28   17.10
  -4  10  -4  185.18   16.70
  -5  10  -4   -6.20    3.40
   5  10   4    0.80    3.40
   6 -10   4  168.68   17.90
   6  10   4  195.88   14.20
  -6  10  -4  154.68   15.40
   6  10   4  189.18   16.10
   7  10   4    8.90    3.80
   8 -10   4   47.40    7.40
  -8  10  -4   42.90    7.40
   9  11  -4   82.29    8.60
   8  11  -4    6.80    4.90
   8  11  -4    8.50    4.20
   7 -11  -4  127.89   11.50
   7 -11  -4  107.99   13.50
  -7  11   4  117.19   10.60
   7  11  -4  130.19   11.80
   7  11  -4  123.99   12.40
  -6 -11   4   -8.20    5.50
   6 -11  -4    6.30    4.00
   6  11  -4   -0.20    8.10
   5 -11  -4  155.08   18.80
   5 -11  -4  200.58   15.50
  -5 -11   4  221.68   21.60
  -5  11   4  175.68   14.60
   5  11  -4  166.28   16.80
   5  11  -4  190.18   16.70
  -5  11   4  173.78   14.30
  -4 -11   4    5.30    7.60
  -4 -11   4    6.20    3.30
   4  11  -4   -1.90    4.30
   3 -11  -4  764.72   54.99
  -3 -11   4  748.43   55.29
  -3 -11   4  686.23   52.79
   3  11  -4  737.63   52.39
  -3  11   4  722.33   50.49
  -3  11   4  716.03   49.80
  -2 -11   4   12.50    6.30
  -2 -11   4   11.00    7.80
   2 -11  -4   -4.30    5.00
  -2  11   4    5.40    2.30
   2  11  -4    0.30    4.70
  -1 -11   4 1306.57   89.09
   1 -11  -4 1248.68   88.89
   1  11  -4 1263.17   86.69
  -1  11   4 1276.07   85.99
  -1  11   4 1260.47   84.49
   1  11  -4 1212.58   85.49
  -1  11   4 1261.57   86.79
   0 -11   4    4.60    5.30
   0  11   4    7.70    3.20
   0  11  -4    2.10    4.60
   0  11   4    1.40    4.30
   0  11  -4    6.50    3.10
   1 -11   4  653.83   44.70
  -1 -11  -4  560.44   43.80
   1 -11   4  489.35   43.90
   1  11   4  603.84   42.80
  -1  11  -4  606.14   42.00
   2 -11   4    4.50    3.80
  -2  11  -4   -2.60    2.40
   2  11   4   -1.10    3.50
   3 -11   4  268.97   24.70
   3  11   4  264.67   22.40
  -3  11  -4  266.77   21.90
   5 -11   4  215.08   19.40
   5  11   4  211.08   17.30
  -5  11  -4  158.38   16.40
   7 -11   4   61.59   10.80
  -7  11  -4   56.59    7.70
   8 -12  -4   30.20    6.10
   8 -12  -4   32.40    6.90
   7  12  -4   10.10    4.40
   7  12  -4    6.20    4.20
   6 -12  -4  305.27   23.20
   6 -12  -4  312.77   26.60
   6  12  -4  316.97   24.80
  -6  12   4  274.97   22.60
   5 -12  -4    0.30    4.10
  -5 -12   4   11.00    5.90
   5  12  -4    9.90    3.60
  -4 -12   4  340.47   33.30
  -4 -12   4  367.86   27.20
   4 -12  -4  341.17   36.70
  -4  12   4  299.07   23.70
   4  12  -4  319.77   27.40
  -4  12   4  305.77   23.90
  -3 -12   4   19.70    8.50
   3  12  -4    9.70    5.30
  -2 -12   4  557.24   41.10
   2 -12  -4  460.05   39.90
  -2 -12   4  475.35   38.70
  -2  12   4  487.55   35.80
  -2  12   4  525.45   35.00
   2  12  -4  477.85   37.40
  -1 -12   4    6.70    6.00
  -1 -12   4    0.80    4.90
  -1  12   4    1.20    2.90
   1  12  -4    1.20    2.50
   1  12  -4   -2.90    3.80
   0 -12  -4  303.37   28.30
   0 -12   4  391.46   29.20
   0 -12   4  301.97   28.30
   0  12   4  332.57   26.60
   0  12   4  356.86   24.20
   0  12  -4  324.57   25.60
   0  12   4  327.87   25.80
   0  12  -4  318.77   26.80
   1 -12   4    8.80    6.20
  -1  12  -4    3.10    3.10
   1  12   4    7.50    4.50
   2 -12   4  426.16   34.40
  -2 -12  -4  352.36   31.90
  -2  12  -4  419.96   30.80
   2  12   4  435.46   32.10
   3 -12   4    2.70    5.00
  -3  12  -4   -4.20    3.00
   3  12   4   -2.50    3.30
   4 -12   4  305.17   25.70
  -4  12  -4  248.58   22.20
   4  12   4  272.27   22.50
   5  12   4   24.70    5.80
   6 -12   4  179.38   17.00
   6  12   4  161.58   14.80
   7  12   4   30.50    8.20
   8  13  -4   60.69   10.30
   7 -13  -4   54.59    8.60
   6 -13  -4   -1.90    5.50
   6  13  -4    6.80    4.00
   5 -13  -4  331.87   26.90
  -5 -13   4  291.37   23.50
   5 -13  -4  283.07   24.90
   5  13  -4  297.17   24.10
  -5  13   4  257.17   21.70
  -4 -13   4   34.50    8.80
   3 -13  -4  355.16   32.90
  -3 -13   4  453.85   34.70
  -3 -13   4  433.86   32.60
  -3  13   4  373.16   28.70
  -3  13   4  371.66   28.60
   3  13  -4  412.36   31.30
  -2 -13   4   22.10   13.40
  -1 -13   4  151.48   16.60
  -1 -13   4  164.08   16.60
   1  13  -4  134.79   14.60
  -1  13   4  132.59   14.20
  -1  13   4  141.29   12.10
  -1  13   4  143.39   12.60
   0 -13   4    0.60    6.20
   0 -13   4    3.20    6.20
   0  13   4   -2.50    2.80
   0  13   4   -5.20    3.30
   0  13   4    4.20    1.90
  -1 -13  -4  144.79   18.50
   1 -13   4  213.58   20.30
   1  13   4  198.78   16.30
   1  13   4  164.08   21.00
  -1  13  -4  180.78   16.60
   2 -13   4   18.90    6.20
   2  13   4   25.90    6.00
   3 -13   4  466.75   35.40
   3  13   4  398.76   31.70
  -3  13  -4  376.86   31.00
   4 -13   4    7.20    4.60
   4  13   4    8.50    3.70
   5 -13   4  238.48   21.50
   5  13   4  229.68   19.20
   6  13   4   57.49    8.90
   7  14  -4   56.99    9.50
   6 -14  -4  134.49   12.70
   6 -14  -4  134.39   14.10
   5 -14  -4    6.60    5.60
   5  14  -4    5.00    4.10
   4 -14  -4  164.48   17.40
   4  14  -4  178.98   15.10
  -4  14   4  135.09   12.90
  -3 -14   4    3.70    4.20
   3  14  -4    0.40    3.50
  -3  14   4   -5.60    3.40
  -2 -14   4  194.08   16.90
  -2  14   4  153.58   13.40
  -2  14   4  165.78   13.90
   2  14  -4  151.98   15.10
   2  14  -4  165.48   14.40
  -1 -14   4   10.40    5.70
   0 -14   4  275.17   24.30
   0 -14  -4  214.58   22.60
   0  14   4  278.77   19.30
   0  14  -4  241.48   21.50
   0  14   4  259.37   19.90
   0  14   4  235.68   21.20
   0  14  -4  257.37   20.50
   1 -14   4   16.10    5.70
   1  14   4   18.90    5.40
  -2 -14  -4  230.08   22.70
   2 -14   4  292.37   25.20
   2  14   4  285.47   21.30
   2  14   4  275.97   21.90
  -2  14  -4  234.08   21.10
   3 -14   4   35.70    9.10
   4 -14   4  232.98   20.90
   4  14   4  210.98   18.70
   5  14   4   31.20    8.10
   6  15  -4   46.60    9.30
   5 -15  -4   60.99   10.70
  -5  15   4   58.89   14.70
   4  15  -4    9.50    4.40
  -3 -15   4  156.88   15.30
   3 -15  -4  134.39   16.10
   3  15  -4  171.38   14.30
  -2 -15   4    5.30    4.30
   2  15  -4    2.90    2.30
   2  15  -4   -2.50    3.50
   1 -15  -4  158.68   18.20
  -1  15   4  150.18   14.70
   1  15  -4  181.48   14.80
   1  15  -4  187.78   16.20
   0  15   4    3.70    3.70
  -1 -15  -4  228.98   22.20
   1 -15   4  294.87   24.70
   1  15   4  272.47   19.50
  -1  15  -4  255.87   20.90
   1  15   4  246.78   21.50
   1  15   4  267.17   20.40
   2 -15   4   13.00    5.20
   2  15   4    3.90    4.00
   2  15   4    5.30    3.70
   3  15   4  129.29   12.20
   4  15   4    7.70    4.90
  -4 -16   4   35.70    7.60
   4 -16  -4   27.10    6.10
   3  16  -4    8.10    4.20
   3  16  -4    0.90    2.80
   2 -16  -4  134.09   14.60
  -2 -16   4  165.28   15.50
   2  16  -4  171.98   14.10
  -2  16   4  135.79   13.40
   2  16  -4  171.18   13.40
   1  16  -4    1.00    2.60
   1  16  -4    1.80    4.20
  -1  16   4   -4.40    7.10
   0 -16  -4  221.58   20.40
   0 -16   4  264.57   21.10
   0  16  -4  209.98   18.30
   0  16   4  244.88   19.40
   0  16   4  231.38   17.30
   0  16   4  198.58   17.80
   1 -16   4    8.80    5.00
   1  16   4    4.50    2.60
   1  16   4    4.30    4.30
   2 -16   4  112.49   13.30
   2  16   4  101.89    9.90
   2  16   4  117.79   10.80
   3 -16   4    5.30    6.10
   3  16   4   13.00    4.70
   3  16   4   -5.70    5.20
  -1 -17   4   95.09   12.60
   1  17  -4   95.89    9.50
   1  17  -4   86.99   10.50
   0 -17   4    2.00    5.90
   0  17   4    0.40    5.10
   0  17  -4   -4.00    3.10
  12   0  -5    2.80    4.60
  12   0  -5    4.10    5.40
  11   0  -5   81.49    8.70
  11   0  -5   76.19    7.80
  10   0  -5   -4.40    3.10
  10   0  -5    7.20    3.80
   9   0  -5  249.08   20.60
   9   0  -5  266.27   21.60
  -8   0   5   -5.20    5.40
   8   0  -5    0.70    5.10
   8   0  -5    1.20    4.50
  -7   0   5  742.43   52.29
   7   0  -5  851.71   53.09
  -7   0   5  772.42   53.69
   7   0  -5  706.53   52.49
  -6   0   5    1.70    4.70
  -6   0   5   -1.70    2.90
   6   0  -5    5.20    4.10
  -6   0   5    6.70    3.80
  -5   0   5 2573.94  172.38
   5   0  -5 2788.92  171.38
  -5   0   5 2868.71  171.98
  -5   0   5 2355.36  172.48
   5   0  -5 2481.05  171.88
   4   0  -5   -0.60    1.00
  -4   0   5    0.60    2.10
  -4   0   5    0.40    1.80
   4   0  -5   -1.10    2.40
  -4   0   5   -0.70    2.80
   4   0  -5   -0.90    2.60
  -4   0   5    0.80    2.80
  -3   0   5 1390.76  101.59
   3   0  -5 1697.93  101.69
  -3   0   5 1735.73  100.99
   3   0  -5 1432.46  100.89
  -3   0   5 1408.46  101.39
  -2   0   5    2.30    1.70
   2   0  -5    0.60    1.70
   2   0  -5    2.10    1.80
  -2   0   5    1.50    2.30
  -2   0   5    1.40    1.90
   2   0  -5    1.30    1.00
  -1   0   5 4024.10  272.17
  -1   0   5 4175.88  271.67
   1   0  -5 4533.65  272.37
  -1   0   5 3911.81  272.47
   0   0  -5    1.00    0.70
   0   0   5   -0.40    2.20
   0   0   5    1.00    0.70
   0   0   5   -0.10    1.50
   0   0   5    1.40    1.70
   0   0  -5    2.80    1.80
   1   0   5 3968.60  270.37
   1   0   5 4294.77  269.87
   2   0   5   -0.30    2.30
  -2   0  -5   -0.70    1.30
   2   0   5   -1.60    1.10
   3   0   5 4198.58  264.97
  -3   0  -5 4107.09  267.07
  -3   0  -5 3839.12  264.77
  -4   0  -5    0.70    1.70
   4   0   5   -1.10    3.10
   4   0   5   -2.20    2.90
  -5   0  -5 1158.58   83.69
   5   0   5 1214.18   80.79
   5   0   5 1220.88   80.59
   5   0   5 1236.48   81.49
   5   0   5 1218.08   81.19
  -6   0  -5    5.70    4.80
   6   0   5   -0.10    2.90
   6   0   5   -3.30    3.40
  -7   0  -5   79.69   15.50
   7   0   5   55.29    6.40
   7   0   5   79.09    9.60
   7   0   5   77.89    8.80
   8   0   5    3.00    4.40
  -8   0  -5    5.20    7.80
   9   0   5  109.69   11.10
   9   0   5  126.09   10.60
  -9   0  -5  137.49   24.10
  10   0   5   -6.00    4.50
  10   0   5    6.00    3.90
  12  -1  -5   37.90    7.60
  12   1  -5   43.10    7.20
  11  -1  -5    9.20    4.00
  11   1  -5    5.90    4.20
  10  -1  -5  105.69   10.70
  10  -1  -5   91.79   11.30
  10   1  -5  114.49   11.50
  10   1  -5  109.99   10.70
   9  -1  -5   -2.50    4.40
   9  -1  -5   -0.50    4.40
   9   1  -5    6.70    4.80
   9   1  -5   -5.30    3.90
   8  -1  -5  563.94   39.60
  -8  -1   5  493.75   39.30
   8   1  -5  627.34   40.20
  -8   1   5  600.24   40.70
   8   1  -5  531.45   39.40
  -8   1   5  522.15   38.20
  -7  -1   5   -4.20    3.20
  -7  -1   5    5.40    4.00
   7  -1  -5    1.30    3.90
   7   1  -5   -3.80    3.30
  -7   1   5    0.50    3.30
   7   1  -5    2.00    3.30
  -7   1   5    4.60    3.80
  -7   1   5    4.90    4.90
   7   1  -5   -4.20    3.90
  -6  -1   5 2295.67  138.99
  -6  -1   5 1971.30  140.19
   6  -1  -5 2043.00  139.49
  -6   1   5 2097.89  139.59
   6   1  -5 2039.70  139.49
  -6   1   5 2051.39  140.19
  -6   1   5 2236.98  139.69
   6   1  -5 2130.29  139.59
  -5  -1   5   -3.30    3.70
  -5  -1   5    0.40    1.90
   5  -1  -5    2.20    3.20
   5  -1  -5   -0.70    1.10
  -5  -1   5    0.60    2.80
  -5   1   5    0.40    2.50
  -5   1   5    3.00    2.40
   5   1  -5   -1.00    2.20
   5   1  -5   -2.80    3.00
  -5   1   5   -0.50    2.90
   5   1  -5   -2.20    3.10
  -4  -1   5 1545.95  113.39
  -4  -1   5 1674.13  113.59
   4  -1  -5 1822.02  113.49
   4  -1  -5 1591.34  112.69
   4  -1  -5 1911.31  112.29
  -4  -1   5 1760.82  112.89
   4   1  -5 1600.64  112.89
  -4   1   5 1647.14  112.99
   4   1  -5 1644.94  112.79
  -4   1   5 1825.72  112.89
  -4   1   5 1492.15  113.19
   4   1  -5 1736.63  113.59
  -4   1   5 1988.30  113.39
  -3  -1   5   93.59    7.20
   3  -1  -5   89.69    6.40
   3  -1  -5   76.19    7.10
   3  -1  -5   85.89    7.80
  -3  -1   5   85.89    8.40
  -3   1   5   97.09    7.90
  -3   1   5   85.19    7.90
   3   1  -5   77.29    7.40
  -3   1   5   94.79    7.20
   3   1  -5   94.89    8.10
   3   1  -5  100.89    8.20
  -3   1   5   73.19    8.30
   3   1  -5   82.19    7.10
   2  -1  -5  965.50   72.99
  -2  -1   5  972.60   73.59
   2  -1  -5 1192.08   73.89
  -2  -1   5 1228.18   73.39
  -2  -1   5 1103.49   74.09
   2   1  -5 1062.29   72.89
   2   1  -5 1187.08   73.89
  -2   1   5 1072.79   73.89
   2   1  -5 1279.47   74.29
  -2   1   5 1206.38   73.09
   2   1  -5 1047.90   73.39
  -2   1   5 1016.10   73.79
  -1  -1   5   38.70    3.70
   1  -1  -5   34.40    3.30
  -1  -1   5   28.00    4.60
  -1  -1   5   31.80    4.20
   1  -1  -5   36.60    4.40
   1  -1  -5   31.40    2.80
   1  -1  -5   36.80    2.40
   1   1  -5   31.50    4.10
  -1   1   5   35.10    3.30
   1   1  -5   27.80    2.90
   1   1  -5   41.00    4.50
   1   1  -5   37.30    4.00
  -1   1   5   31.70    4.20
   0  -1   5 1376.46   93.59
   0  -1   5 1379.96   94.09
   0  -1   5 1368.06   93.09
   0  -1   5 1539.35   93.79
   0  -1  -5 1318.47   92.89
   0   1   5 1445.66   94.09
   0   1  -5 1415.86   93.29
   0   1   5 1506.05   93.09
   0   1   5 1270.77   92.99
   0   1   5 1603.54   93.09
   1  -1   5  194.88   14.00
  -1  -1  -5  189.28   13.40
   1  -1   5  217.38   13.80
   1  -1   5  188.68   14.40
   1   1   5  204.28   13.50
  -1   1  -5  192.28   13.70
   1   1   5  176.58   14.50
   1   1   5  198.78   13.50
   2  -1   5 5747.12  378.86
  -2  -1  -5 6273.27  380.76
   2  -1   5 5953.40  378.76
   2  -1   5 5394.86  379.06
   2   1   5 5784.52  378.56
  -2   1  -5 5644.64  378.66
   3  -1   5   93.89    8.80
   3  -1   5  108.39   10.30
   3  -1   5   94.79    8.30
  -3  -1  -5  104.69    8.60
   3   1   5   93.79    8.20
  -3   1  -5  117.69    8.80
  -3   1  -5   92.69    8.10
   3   1   5   93.09    8.10
   3   1   5   90.49    8.60
  -4  -1  -5 2388.36  157.58
   4  -1   5 2403.96  154.88
   4  -1   5 2190.58  154.88
   4   1   5 2298.27  155.08
   4   1   5 2420.66  154.78
  -4   1  -5 2471.15  157.58
  -4   1  -5 2091.39  154.78
   4   1   5 2569.44  155.38
   5  -1   5   57.39    6.90
   5  -1   5   54.49    7.00
   5  -1   5   63.69    7.10
   5   1   5   69.89    6.50
  -5   1  -5   61.49    6.80
  -5   1  -5   60.19    8.10
   5   1   5   55.19    7.20
   5   1   5   60.09    7.70
   6  -1   5  224.08   19.90
   6  -1   5  290.87   19.40
   6  -1   5  277.67   22.10
   6  -1   5  273.77   20.20
  -6  -1  -5  272.57   24.90
  -6   1  -5  260.37   22.60
   6   1   5  255.17   20.10
  -6   1  -5  281.67   20.40
   6   1   5  250.67   26.10
   6   1   5  287.97   19.90
   6   1   5  264.37   20.70
   7  -1   5   -6.70    4.60
   7  -1   5   -2.30    4.00
  -7  -1  -5    0.70    7.10
  -7   1  -5   -3.40    5.60
   7   1   5   -3.40    3.90
   7   1   5    1.20    2.30
   8  -1   5  247.98   18.60
   8  -1   5  220.98   20.60
  -8  -1  -5  237.58   27.80
  -8   1  -5  223.68   25.60
   8   1   5  242.48   18.50
   8   1   5  223.18   20.50
   9  -1   5   -3.30    3.00
   9  -1   5    0.20    3.70
  -9  -1  -5    6.10   11.30
   9   1   5    0.60    3.00
  -9   1  -5    5.40    8.50
   9   1   5   -4.50    3.40
  10  -1   5   58.89    7.50
  10  -1   5   48.80    7.10
  10   1   5   66.39    7.50
  12  -2  -5   14.20    7.90
  12  -2  -5    5.50    4.70
  12   2  -5    2.00    7.80
  12   2  -5   27.80    7.80
  11  -2  -5   76.49    8.00
  11  -2  -5   67.29    8.30
  11   2  -5   72.09    8.00
  11   2  -5   91.89    8.20
  10  -2  -5   21.90    5.10
   9  -2  -5  225.58   18.60
   9   2  -5  232.28   19.30
   9   2  -5  212.18   18.50
   8  -2  -5    2.30    4.80
   8   2  -5   -5.20    3.90
  -8   2   5    3.10    3.40
   8   2  -5    3.50    5.00
  -7  -2   5  558.44   37.80
   7  -2  -5  564.04   39.10
  -7   2   5  474.95   39.50
  -7   2   5  592.24   40.00
   7   2  -5  550.64   39.30
   7   2  -5  608.24   39.50
  -6  -2   5   49.50    7.30
   6  -2  -5   39.50    6.10
  -6  -2   5   43.80    5.30
  -6   2   5   47.00    6.90
   6   2  -5   37.00    6.30
   6   2  -5   38.90    6.20
   6   2  -5   57.59    7.60
  -6   2   5   47.00    6.90
  -6   2   5   32.40    7.10
  -5  -2   5 1343.67   97.39
   5  -2  -5 1487.65   95.89
   5  -2  -5 1375.76   96.59
  -5   2   5 1371.66   97.09
   5   2  -5 1468.95   96.79
  -5   2   5 1526.75   96.59
   5   2  -5 1434.16   96.79
  -5   2   5 1641.34   97.29
   4  -2  -5   -0.60    2.60
  -4  -2   5   -1.30    3.10
  -4  -2   5   -1.00    3.80
   4  -2  -5    0.20    2.50
  -4  -2   5    1.90    2.50
   4  -2  -5   -0.10    0.90
  -4   2   5   -0.50    2.00
  -4   2   5    1.80    2.10
   4   2  -5    0.40    2.70
  -4   2   5    2.60    2.40
   4   2  -5    2.00    3.20
   4   2  -5    1.00    3.00
   4   2  -5   -2.40    2.30
  -4   2   5   -1.70    2.60
  -3  -2   5 4056.19  242.58
  -3  -2   5 3492.25  243.28
   3  -2  -5 3890.81  242.88
  -3  -2   5 3303.17  242.78
   3  -2  -5 3327.27  242.18
   3   2  -5 4096.49  243.48
  -3   2   5 4024.70  243.08
   3   2  -5 3975.70  243.18
   3   2  -5 3386.76  242.18
  -3   2   5 3420.06  242.68
  -3   2   5 3768.22  242.18
  -2  -2   5   49.99    5.70
   2  -2  -5   41.50    3.20
   2  -2  -5   43.90    4.10
  -2  -2   5   44.10    4.10
   2  -2  -5   50.19    5.00
   2  -2  -5   49.60    4.30
  -2  -2   5   45.20    4.80
  -2  -2   5   54.79    6.80
   2   2  -5   51.99    5.90
  -2   2   5   40.70    5.70
  -2   2   5   42.10    5.30
   2   2  -5   48.60    5.30
   2   2  -5   42.40    5.20
   2   2  -5   45.10    4.40
  -2   2   5   47.20    4.10
   1  -2  -5 6880.61  425.96
  -1  -2   5 6623.64  425.56
   1   2  -5 6840.72  426.26
   1   2  -5 6963.80  425.56
  -1   2   5 5804.52  425.76
   1   2  -5 5978.30  425.66
   0  -2   5  249.88   17.30
   0  -2   5  234.98   18.10
   0  -2  -5  267.87   16.80
   0  -2   5  248.28   17.20
   0  -2   5  243.18   17.80
   0   2  -5  227.88   17.20
   0   2  -5  267.77   17.40
   0   2   5  260.77   16.50
   0   2   5  218.48   17.00
   0   2   5  228.98   18.00
   0   2  -5  279.17   18.20
   1  -2   5 3430.06  200.88
   1  -2   5 3315.57  200.98
   1  -2   5 2707.63  201.28
   1  -2   5 3032.70  200.68
  -1   2  -5 3001.70  200.88
   1   2   5 2993.10  201.78
   1   2   5 3131.29  200.48
   1   2   5 2938.31  200.68
  -2  -2  -5  167.08   12.50
   2  -2   5  154.88   12.50
   2  -2   5  154.58   11.50
   2  -2   5  170.38   12.00
   2   2   5  160.08   11.50
   2   2   5  145.89   11.90
  -2   2  -5  157.78   11.80
   2   2   5  172.98   11.20
   3  -2   5 1218.58   82.39
  -3  -2  -5 1241.18   84.09
   3  -2   5 1265.37   81.89
   3  -2   5 1271.27   83.49
   3   2   5 1300.37   82.09
   3   2   5 1141.99   82.99
  -3   2  -5 1218.78   82.19
   3   2   5 1210.48   81.69
  -3   2  -5 1297.07   83.99
   4  -2   5   19.20    5.20
   4  -2   5   20.80    4.60
   4   2   5   18.50    4.60
  -4   2  -5   28.30    4.70
   4   2   5   24.10    4.10
   5  -2   5 1288.07   87.69
   5  -2   5 1307.47   85.89
   5  -2   5 1372.36   86.19
   5  -2   5 1221.28   86.59
  -5   2  -5 1245.78   86.49
   5   2   5 1474.25   85.79
   5   2   5 1200.38   86.59
   5   2   5 1328.57   86.29
  -5   2  -5 1209.88   88.89
   5   2   5 1301.27   85.99
   6  -2   5   -3.00    4.10
   6  -2   5    2.00    2.60
  -6  -2  -5    4.80    3.50
   6   2   5   -2.80    3.20
   6   2   5    1.90    1.90
  -6   2  -5    4.20    2.90
   6   2   5    3.70    3.10
   7  -2   5  300.97   23.20
  -7  -2  -5  292.27   29.20
   7   2   5  305.27   23.70
  -7   2  -5  287.87   27.30
   7   2   5  315.67   22.60
   8  -2   5    2.10    4.10
  -8  -2  -5    8.30   10.00
   8   2   5    0.70    3.30
  -8   2  -5    8.80    7.10
   9  -2   5   97.39    8.70
  -9  -2  -5  102.09   23.70
   9  -2   5   75.39    9.00
   9   2   5   84.29    9.00
  -9   2  -5  112.19   17.90
   9   2   5   89.89    8.00
  10   2   5   11.10    4.40
  11  -3  -5    6.20    4.20
  11   3  -5   11.70    4.50
  11   3  -5    8.50    3.50
  10  -3  -5  139.49   12.80
  10   3  -5  139.09   13.30
  10   3  -5  145.49   13.00
   9  -3  -5   10.50    4.80
   9   3  -5   18.00    7.50
   9   3  -5    8.30    4.30
   8  -3  -5  302.37   24.20
  -8  -3   5  296.47   24.10
   8   3  -5  332.27   24.50
   8   3  -5  335.07   24.70
  -8   3   5  314.57   24.10
  -7  -3   5    5.40    2.60
  -7  -3   5    7.20    2.00
   7  -3  -5   13.70    4.70
   7   3  -5    5.10    3.90
  -7   3   5   12.10    3.90
   7   3  -5   14.60    5.80
   6  -3  -5  604.64   43.90
  -6  -3   5  681.53   43.40
  -6  -3   5  712.73   43.20
  -6   3   5  649.43   44.50
  -6   3   5  604.14   43.40
   6   3  -5  644.44   44.30
   6   3  -5  580.74   44.10
   5  -3  -5   20.90    4.40
   5  -3  -5   24.80    3.60
  -5  -3   5   17.50    4.50
   5   3  -5   23.80    6.60
  -5   3   5   23.10    5.00
  -5   3   5   20.70    5.00
   5   3  -5   18.90    4.60
   5   3  -5   23.10    4.90
  -4  -3   5 1956.30  138.49
   4  -3  -5 1892.71  137.59
   4  -3  -5 2143.99  136.99
   4  -3  -5 2240.98  138.29
   4   3  -5 1926.41  137.89
   4   3  -5 2302.37  139.19
  -4   3   5 2066.79  137.89
  -4   3   5 2297.07  138.69
   4   3  -5 2106.79  137.89
  -4   3   5 1988.70  138.19
   3  -3  -5   88.19    7.90
  -3  -3   5   77.39    8.30
  -3  -3   5   89.39    7.40
   3  -3  -5   95.09    7.50
   3  -3  -5   81.49    7.10
  -3  -3   5   78.09    7.50
   3  -3  -5   93.39    6.30
  -3  -3   5   82.29    9.10
  -3   3   5   81.69    8.00
   3   3  -5   92.49    8.60
   3   3  -5   75.49    7.40
   3   3  -5   77.59    7.70
   3   3  -5   82.09    8.00
  -3   3   5   87.49    8.10
   2  -3  -5 7890.21  505.45
  -2  -3   5 7570.24  505.15
   2  -3  -5 7289.97  504.85
   2   3  -5 8081.19  506.15
   2   3  -5 7274.27  505.25
  -2   3   5 8187.38  505.65
   2   3  -5 8317.27  505.55
  -2   3   5 7270.67  505.45
   1  -3  -5   39.10    4.60
  -1  -3   5   45.70    4.90
  -1  -3   5   42.30    4.50
   1  -3  -5   38.40    3.20
   1   3  -5   33.30    5.80
   1   3  -5   32.20    4.80
  -1   3   5   42.90    5.30
   1   3  -5   46.60    5.50
  -1   3   5   40.80    5.50
  -1   3   5   44.90    4.50
   1   3  -5   45.10    4.70
   0  -3  -5 4100.99  246.08
   0  -3   5 3827.92  246.08
   0  -3   5 3483.05  247.78
   0  -3   5 3632.24  247.08
   0  -3   5 3951.90  246.98
   0  -3   5 3865.51  246.48
   0   3   5 3321.87  246.28
   0   3  -5 3611.44  246.28
   0   3  -5 4321.27  246.28
   0   3   5 3516.35  247.38
   1  -3   5   53.39    5.30
   1  -3   5   49.10    6.40
   1  -3   5   50.29    4.70
   1  -3   5   51.29    6.40
   1  -3   5   52.09    5.40
  -1  -3  -5   58.29    5.00
  -1   3  -5   62.79    6.10
  -1   3  -5   60.49    5.10
   1   3   5   59.49    5.80
  -1   3  -5   48.80    5.40
   1   3   5   50.39    4.50
   1   3   5   44.60    5.50
   2  -3   5  614.64   42.40
   2  -3   5  626.54   43.20
  -2  -3  -5  642.04   44.30
   2  -3   5  648.34   44.60
   2  -3   5  691.23   43.30
   2  -3   5  633.54   43.70
   2   3   5  618.44   43.20
   2   3   5  640.54   42.70
  -2   3  -5  605.74   43.20
   2   3   5  733.73   43.60
   2   3   5  607.44   42.30
   3  -3   5    0.70    1.40
   3  -3   5   -4.00    2.90
  -3  -3  -5    1.10    1.60
   3  -3   5   -2.00    2.30
   3   3   5   -1.10    2.20
   3   3   5    0.90    1.80
   3   3   5   -2.00    1.30
  -3   3  -5    1.80    1.70
  -3   3  -5    1.60    1.50
   4  -3   5  448.36   30.00
   4  -3   5  436.56   31.50
   4  -3   5  419.16   29.00
  -4  -3  -5  408.46   31.90
  -4   3  -5  399.66   29.90
   4   3   5  412.96   30.10
   4   3   5  418.16   29.40
   4   3   5  496.35   29.70
  -4   3  -5  423.86   31.10
   5  -3   5    6.70    3.50
   5  -3   5    3.50    2.10
   5  -3   5    6.40    2.60
  -5   3  -5    4.30    2.30
   5   3   5    6.70    3.30
   5   3   5    9.60    3.00
   5   3   5   11.70    3.00
  -6  -3  -5 1014.20   73.39
   6  -3   5 1040.70   69.89
   6  -3   5 1050.89   68.29
  -6   3  -5 1028.10   69.59
   6   3   5 1080.29   67.99
   6   3   5 1033.90   69.99
   6   3   5 1080.09   68.79
  -6   3  -5  867.01   72.09
   7  -3   5   -2.00    2.80
  -7  -3  -5    3.50    8.90
   7  -3   5    0.70    4.80
  -7   3  -5    7.50    3.00
   7   3   5    3.10    3.20
  -7   3  -5    1.10    4.30
   7   3   5    3.00    4.20
   8  -3   5  309.97   23.80
  -8  -3  -5  293.87   32.90
   8   3   5  312.47   22.80
  -8   3  -5  320.67   29.20
   8   3   5  299.97   24.50
   9  -3   5    1.60    4.10
   9  -3   5    0.00    3.40
  -9  -3  -5    6.00   11.60
   9   3   5    3.20    3.30
   9   3   5   -1.20    3.50
  -9   3  -5    4.70    6.10
  10  -3   5   30.20    7.40
  10  -3   5   32.20    5.90
  10   3   5   41.50    7.30
  10   3   5   38.50    6.90
  11  -4  -5   67.49    7.50
  11   4  -5   77.99    7.90
  11   4  -5   69.89    7.40
  10  -4  -5    7.50    4.00
  10   4  -5    2.00    3.10
   9  -4  -5  194.28   20.40
   9   4  -5  201.78   17.40
   9   4  -5  193.28   22.20
   8  -4  -5   15.70    5.70
   8   4  -5    7.20    4.50
  -8   4   5   13.00    3.20
   8   4  -5   23.50    6.50
  -7  -4   5  391.06   27.30
  -7  -4   5  336.07   30.00
   7  -4  -5  419.16   29.50
   7   4  -5  407.56   29.40
  -7   4   5  418.86   29.40
   7   4  -5  425.56   29.80
  -7   4   5  406.16   27.40
  -5  -4   5  952.70   62.39
   5  -4  -5 1002.50   61.49
   5  -4  -5  894.81   62.19
   5   4  -5  942.81   62.69
  -5   4   5  971.70   62.09
  -5   4   5  871.01   62.59
   5   4  -5  844.82   62.39
   4  -4  -5   29.10    5.50
  -4  -4   5   20.20    5.10
   4  -4  -5   26.20    4.50
   4  -4  -5   32.20    5.30
   4  -4  -5   32.90    3.70
  -4  -4   5   26.20    5.80
  -4   4   5   31.00    4.70
   4   4  -5   27.00    4.70
   4   4  -5   25.40    4.80
  -4   4   5   26.30    4.00
  -3  -4   5 4334.77  273.47
  -3  -4   5 3742.93  273.17
  -3  -4   5 4215.68  272.77
   3  -4  -5 4488.55  273.17
   3  -4  -5 4115.99  271.87
  -3  -4   5 4401.76  273.47
   3  -4  -5 4287.77  272.87
   3  -4  -5 4000.80  272.37
   3   4  -5 3814.92  272.97
   3   4  -5 3808.02  272.77
  -3   4   5 4283.77  273.67
   3   4  -5 4480.25  274.37
   3   4  -5 4560.04  273.77
  -3   4   5 3866.11  273.07
  -3   4   5 4074.19  271.77
  -2  -4   5    8.00    2.40
  -2  -4   5   11.20    3.40
   2  -4  -5   14.70    2.80
  -2  -4   5   14.40    3.60
  -2  -4   5   10.80    4.10
  -2  -4   5   10.30    4.40
   2   4  -5   20.00    5.40
  -2   4   5   11.00    1.80
  -2   4   5   16.10    4.50
  -2   4   5   14.80    4.20
   2   4  -5   18.20    4.50
   2   4  -5    9.60    3.70
   2   4  -5    5.50    2.80
  -1  -4   5 6377.06  408.66
   1  -4  -5 6021.40  408.36
  -1  -4   5 6472.55  408.36
  -1  -4   5 6108.89  409.46
  -1  -4   5 5877.01  409.06
  -1   4   5 5655.73  408.76
   1   4  -5 6722.53  408.36
   1   4  -5 6877.61  409.56
  -1   4   5 5823.92  408.26
  -1   4   5 6916.81  408.96
   1   4  -5 5858.91  408.46
   0  -4   5    1.50    1.80
   0  -4   5   -2.90    2.70
   0  -4  -5    1.10    1.70
   0  -4   5    1.30    2.70
   0  -4   5   -0.40    2.20
   0   4   5    1.20    2.20
   0   4   5   -1.70    2.30
   0   4  -5    0.10    1.40
   0   4  -5   -2.90    2.00
   0   4   5   -0.60    2.50
   0   4  -5    1.80    2.60
   1  -4   5 2033.40  138.89
   1  -4   5 1994.20  140.89
  -1  -4  -5 2064.59  140.39
   1  -4   5 2080.49  140.49
   1  -4   5 2231.58  139.99
  -1  -4  -5 2275.27  139.59
   1   4   5 2343.57  140.19
   1   4   5 2096.39  138.99
  -1   4  -5 2354.06  140.49
  -1   4  -5 1888.01  139.59
   1   4   5 1989.90  139.79
   2  -4   5   -0.40    2.50
  -2  -4  -5    1.80    2.00
   2  -4   5   -1.50    3.40
   2  -4   5    0.80    2.10
   2  -4   5    0.10    1.00
   2   4   5    1.50    2.10
   2   4   5   -0.50    1.10
  -2   4  -5    1.20    1.30
  -2   4  -5   -0.20    2.30
   2   4   5    1.30    1.40
   2   4   5   -2.40    2.70
   3  -4   5  648.74   39.90
   3  -4   5  582.74   41.00
   3  -4   5  564.54   39.40
  -3  -4  -5  558.24   40.50
   3   4   5  558.64   39.30
   3   4   5  634.44   39.30
   3   4   5  539.95   38.60
   3   4   5  549.05   38.10
  -3   4  -5  566.24   39.20
  -3   4  -5  530.75   39.90
   4  -4   5    8.20    3.60
  -4  -4  -5    3.90    3.90
   4  -4   5    4.40    3.00
   4   4   5    9.80    3.20
  -4   4  -5    4.50    2.10
   4   4   5    6.90    2.80
  -4   4  -5    9.00    2.20
   4   4   5    9.70    2.60
   5  -4   5  705.33   55.39
   5  -4   5  866.61   54.09
   5  -4   5  738.43   57.49
   5  -4   5  856.11   53.99
  -5  -4  -5  811.72   58.89
  -5   4  -5  864.51   57.79
   5   4   5  858.01   55.09
   5   4   5  853.31   54.99
   5   4   5  825.12   56.29
  -5   4  -5  837.02   56.09
   6  -4   5    0.70    1.30
  -6  -4  -5    1.20    5.10
   6  -4   5   -7.60    5.30
   6   4   5    0.40    2.40
  -6   4  -5    0.90    2.50
   6   4   5   -1.00    3.80
   7  -4   5  440.36   31.70
  -7  -4  -5  401.56   37.60
  -7   4  -5  433.56   31.10
   7   4   5  409.86   31.40
  -7   4  -5  428.56   33.60
   7   4   5  418.26   29.70
   8  -4   5    8.90    3.80
  -8  -4  -5    8.40   10.30
  -8   4  -5    2.90    5.70
   8   4   5    5.30    3.10
   8   4   5    1.50    2.80
   9  -4   5   77.69    8.30
  -9  -4  -5  113.29   26.80
   9   4   5   81.09    8.60
  -9   4  -5   56.89   12.90
   9   4   5   83.49    7.40
  10  -4   5    3.10    5.60
  10   4   5    8.90    4.70
  11   5  -5   20.30    5.80
  11   5  -5   29.20    6.30
  10  -5  -5  118.09   10.90
  10   5  -5  115.29   11.00
  10   5  -5  122.39   11.70
   9  -5  -5   21.90    5.00
   9   5  -5    9.20    3.80
   9   5  -5   13.20    4.40
   8  -5  -5  268.87   22.20
  -8  -5   5  271.87   23.40
  -8   5   5  295.17   21.60
   8   5  -5  282.87   22.80
   8   5  -5  293.27   22.50
  -7  -5   5    9.00    4.40
   7  -5  -5   15.20    5.60
  -7  -5   5   15.70    4.30
   7   5  -5   15.70    6.00
  -7   5   5   13.70    3.70
   7   5  -5    9.80    4.70
  -6  -5   5 1026.90   73.89
   6  -5  -5 1040.80   74.39
   6   5  -5 1115.79   74.89
   6   5  -5 1095.59   74.69
  -6   5   5 1136.09   74.79
  -6   5   5 1167.18   73.69
  -6   5   5 1145.29   73.59
   5  -5  -5    3.20    2.70
   5  -5  -5    1.70    1.60
   5  -5  -5    4.40    3.20
  -5  -5   5    1.00    3.30
  -5  -5   5   -3.90    4.40
  -5   5   5    2.20    1.50
  -5   5   5    6.00    2.40
   5   5  -5    1.90    3.00
   5   5  -5    1.70    3.90
  -5   5   5    4.20    3.40
   4  -5  -5 2134.69  134.59
   4  -5  -5 2009.40  133.09
   4  -5  -5 2141.49  132.39
   4  -5  -5 2107.39  133.69
  -4   5   5 1977.70  133.69
  -4   5   5 1911.21  132.29
   4   5  -5 1952.40  133.59
   4   5  -5 1903.91  133.49
   3  -5  -5  133.39   10.90
   3  -5  -5  127.29   10.30
  -3  -5   5  141.49   11.00
   3  -5  -5  133.19   11.20
  -3  -5   5  119.99   11.00
   3  -5  -5  130.19   11.90
  -3  -5   5  140.39   11.70
  -3   5   5  129.39    9.40
   3   5  -5  117.79   10.80
   3   5  -5  130.29   13.20
   3   5  -5  121.39   10.90
  -3   5   5  134.09   11.00
  -2  -5   5 1289.27  103.19
  -2  -5   5 1661.63  102.49
  -2  -5   5 1649.33  103.39
   2  -5  -5 1551.84  103.39
   2  -5  -5 1606.04  102.69
   2  -5  -5 1430.96  101.39
   2   5  -5 1481.85  102.79
   2   5  -5 1716.13  102.99
  -2   5   5 1637.24  102.99
   2   5  -5 1461.55  102.69
  -2   5   5 1503.75  101.09
   1  -5  -5   18.60    2.50
  -1  -5   5   18.30    4.50
  -1  -5   5   18.70    4.30
   1  -5  -5   18.90    4.30
  -1  -5   5   12.10    3.20
  -1  -5   5   21.50    4.80
  -1   5   5   15.20    2.80
  -1   5   5   18.10    4.20
  -1   5   5   18.80    4.70
   1   5  -5   23.70    5.50
   1   5  -5   13.00    3.70
   1   5  -5   21.20    4.10
   0  -5   5 1811.82  110.19
   0  -5  -5 1787.72  109.79
   0  -5   5 1547.05  110.69
   0  -5   5 1596.84  110.79
   0  -5   5 1625.64  110.19
   0  -5   5 1600.04  108.79
   0   5   5 1536.55  110.29
   0   5  -5 1694.53  108.89
   0   5  -5 1763.82  110.69
   0   5   5 1804.32  110.19
   0   5  -5 1555.24  109.69
   0   5  -5 1531.45  109.49
  -1  -5  -5  112.59    9.20
   1  -5   5   96.79   10.40
   1  -5   5  116.09    9.90
   1  -5   5   96.19   10.20
  -1  -5  -5  109.39    8.40
   1   5   5  119.59    9.90
  -1   5  -5  113.19    9.90
  -1   5  -5   93.69    9.00
   1   5   5   84.69    9.70
  -1   5  -5  113.19    8.00
   2  -5   5 1769.62  114.39
  -2  -5  -5 1857.71  114.19
   2  -5   5 1591.14  116.29
   2  -5   5 1656.03  115.79
  -2  -5  -5 1684.03  114.99
   2   5   5 1548.35  112.79
  -2   5  -5 1934.91  114.69
   2   5   5 1717.43  114.39
   2   5   5 1716.53  113.39
  -2   5  -5 1538.15  113.99
   2   5   5 1947.21  114.59
  -3  -5  -5   53.99    6.80
   3  -5   5   52.99    8.30
   3  -5   5   64.79    8.50
  -3   5  -5   68.59    6.80
  -3   5  -5   66.29    6.00
   3   5   5   63.99    5.60
   3   5   5   70.29    7.00
   3   5   5   60.69    7.10
   4  -5   5 1603.64  111.09
  -4  -5  -5 1559.34  110.99
  -4   5  -5 1709.33  110.19
  -4   5  -5 1585.44  108.89
   4   5   5 1742.93  108.59
   4   5   5 1659.83  107.79
   4   5   5 1597.04  109.09
  -5  -5  -5    4.80    4.90
  -5   5  -5    4.80    2.60
   5   5   5    5.90    2.40
   5   5   5    2.90    3.10
  -6  -5  -5  517.35   43.70
  -6   5  -5  578.64   39.70
   6   5   5  547.85   40.00
   6   5   5  581.64   38.20
  -7  -5  -5   -4.50    8.80
   7  -5   5   -7.00    4.10
   7   5   5    2.40    2.50
  -7   5  -5    3.00    3.70
   7   5   5   -1.10    3.80
  -8  -5  -5  158.08   25.50
   8  -5   5  121.59   11.90
  -8   5  -5  124.69   11.90
   8   5   5  141.49   10.50
   8   5   5  121.49   11.90
  -8   5  -5  113.59   16.20
  -9  -5  -5   15.00   15.10
   9   5   5   -1.50    4.20
   9   5   5    5.00    3.60
  11   6  -5   60.49    7.50
  11   6  -5   44.80    6.90
  10  -6  -5    1.60    4.40
  10   6  -5    3.50    3.20
  10   6  -5    4.40    4.20
   9  -6  -5  194.88   16.50
   9   6  -5  197.88   17.20
   9   6  -5  191.18   16.60
  -8  -6   5    3.90    6.40
   8   6  -5   15.40    6.00
   8   6  -5    8.90    4.70
  -7  -6   5  608.84   46.20
  -7  -6   5  583.04   41.90
   7  -6  -5  621.84   43.70
   7   6  -5  628.84   43.90
  -7   6   5  594.14   41.30
  -7   6   5  625.84   43.30
   7   6  -5  665.33   44.40
  -6  -6   5    2.40    3.60
   6  -6  -5    8.60    4.30
  -6   6   5    0.00    3.60
  -6   6   5    4.70    1.50
  -6   6   5    2.30    3.40
   6   6  -5    2.60    3.90
   6   6  -5   10.00    5.90
   5  -6  -5 1282.67   87.79
  -5  -6   5 1221.08   88.09
   5  -6  -5 1392.06   89.59
   5  -6  -5 1362.06   86.99
   5   6  -5 1279.27   88.49
   5   6  -5 1285.37   88.19
  -5   6   5 1376.16   86.99
  -5   6   5 1310.17   88.19
   4  -6  -5   56.99    6.30
   4  -6  -5   52.89    8.00
  -4  -6   5   58.89    7.10
  -4   6   5   65.59    6.80
  -4   6   5   60.79    5.90
   4   6  -5   53.99    7.10
   4   6  -5   52.99    6.90
   3  -6  -5  900.71   62.69
  -3  -6   5  968.00   63.89
   3  -6  -5  951.90   64.49
  -3   6   5  987.60   63.49
  -3   6   5  902.81   61.69
   3   6  -5  905.61   63.29
   3   6  -5  922.01   63.39
  -2  -6   5   57.49    7.70
  -2  -6   5   64.29    7.80
   2  -6  -5   64.79    6.00
   2  -6  -5   74.19    7.40
   2  -6  -5   71.89    8.30
   2   6  -5   55.79    6.90
   2   6  -5   51.19    6.90
  -2   6   5   71.49    7.10
   2   6  -5   55.79    7.70
  -2   6   5   69.29    5.70
   1  -6  -5 1250.07   79.99
  -1  -6   5 1188.08   79.19
   1  -6  -5 1286.27   79.39
  -1  -6   5 1149.78   79.89
  -1   6   5 1167.68   79.49
   1   6  -5 1105.49   79.09
  -1   6   5 1136.79   77.69
  -1   6   5 1025.70   78.89
   1   6  -5 1293.77   78.79
   0  -6  -5    3.20    1.20
   0  -6   5    1.50    2.90
   0  -6  -5    1.70    2.30
   0  -6   5   -1.80    2.80
   0  -6   5    7.00    3.00
   0   6   5   -1.50    2.40
   0   6  -5   -1.00    1.50
   0   6  -5   -1.50    2.30
   0   6   5   -1.10    2.40
   0   6  -5    2.50    1.90
  -1  -6  -5 2986.80  197.88
   1  -6   5 3118.19  200.28
   1  -6   5 2776.42  201.18
  -1  -6  -5 3100.49  199.98
  -1  -6  -5 3293.77  199.98
   1   6   5 2632.94  199.78
  -1   6  -5 2628.44  199.58
  -1   6  -5 3273.37  200.78
  -1   6  -5 3090.09  198.28
   1   6   5 3443.16  201.28
   2  -6   5    8.20    3.90
  -2   6  -5   18.30    4.20
  -2   6  -5   15.70    4.30
   2   6   5   10.90    3.20
   2   6   5   12.40    3.70
  -3  -6  -5 2996.10  200.88
   3  -6   5 2829.52  201.48
   3   6   5 2953.80  199.68
  -3   6  -5 3368.96  199.58
   3   6   5 3124.49  199.48
  -3   6  -5 2831.42  199.48
  -3   6  -5 3143.69  200.08
   3   6   5 2958.60  197.98
   4   6   5    3.40    3.40
  -4   6  -5    5.10    2.50
   4   6   5    0.00    2.90
   4   6   5    2.60    3.00
  -5  -6  -5  321.17   29.10
   5   6   5  356.96   26.80
  -5   6  -5  362.26   26.20
   5   6   5  369.66   24.50
  -6  -6  -5    3.50    8.10
   6   6   5   -1.70    3.40
  -6   6  -5    2.00    2.40
   6   6   5   -0.90    1.80
   7  -6   5   76.39   10.80
   7  -6   5   85.09   10.00
  -7  -6  -5   95.79   18.80
   7   6   5   95.59    7.90
  -7   6  -5  102.79    9.80
   7   6   5   93.09   10.00
  -8  -6  -5    3.40   10.90
   8  -6   5   -3.10    4.10
   8   6   5    2.50    3.10
  -8   6  -5    2.50    2.00
  -8   6  -5   -6.00    4.50
   8   6   5    4.40    3.30
   9  -6   5   89.99    9.30
   9   6   5  106.49    9.80
  11   7  -5   27.90    7.30
  10  -7  -5   75.09    9.10
  10   7  -5   97.79    9.30
  10   7  -5  108.69    9.60
   9  -7  -5    3.40    3.90
   9   7  -5    6.70    4.30
   9   7  -5    4.20    3.10
   8  -7  -5  238.38   18.90
  -8  -7   5  248.48   21.80
   8   7  -5  218.18   23.00
   8   7  -5  244.08   21.10
  -8   7   5  201.48   17.20
  -7  -7   5    2.00    6.30
   7  -7  -5    8.40    4.70
   7  -7  -5    5.60    3.90
   7   7  -5   -1.00    4.30
  -7   7   5    6.80    2.40
   7   7  -5    5.00    5.60
   6  -7  -5  952.50   62.79
   6  -7  -5  900.21   60.99
  -6  -7   5  748.83   63.49
   6   7  -5  864.11   61.09
  -6   7   5  910.41   60.09
   6   7  -5  877.21   61.59
  -6   7   5  881.01   60.59
  -6   7   5  958.20   59.79
  -5  -7   5    4.20    2.20
   5  -7  -5    1.60    3.10
  -5  -7   5   -1.40    4.70
   5  -7  -5   -1.20    3.40
   5   7  -5   -0.50    3.20
  -5   7   5    0.90    1.20
   5   7  -5    2.90    5.00
   4  -7  -5 1263.17   87.79
  -4  -7   5 1199.18   88.79
   4  -7  -5 1368.46   90.39
  -4   7   5 1339.97   88.49
   4   7  -5 1267.37   88.49
  -4   7   5 1358.76   87.09
  -4   7   5 1430.36   89.59
   4   7  -5 1310.07   88.89
   3  -7  -5   15.90    3.90
   3  -7  -5    6.80    4.50
  -3  -7   5   20.80    5.60
  -3  -7   5   13.40    5.50
  -3   7   5   15.30    4.00
  -3   7   5   21.30    4.20
   3   7  -5   12.10    4.70
  -2  -7   5  454.35   34.70
   2  -7  -5  483.25   35.30
  -2   7   5  492.05   34.10
   2   7  -5  429.06   33.90
   2   7  -5  505.75   34.50
  -2   7   5  504.75   32.50
  -1  -7   5   -2.50    2.60
   1   7  -5    3.90    3.10
  -1   7   5   -3.10    2.00
  -1   7   5    1.20    1.90
  -1   7   5    0.90    1.60
   0  -7  -5 1625.84  100.09
   0  -7  -5 1493.85   97.29
   0  -7   5 1428.26  100.39
   0   7  -5 1428.26   98.79
   0   7  -5 1472.65   99.19
   0   7   5 1340.77   99.39
   0   7  -5 1664.13   97.89
   0   7   5 1371.86   98.99
  -1  -7  -5   12.40    2.60
   1  -7   5    4.80    3.70
  -1  -7  -5   15.80    3.10
  -1   7  -5    9.10    2.50
  -1   7  -5   12.10    2.60
  -2  -7  -5 2175.68  140.89
   2  -7   5 1882.71  142.09
  -2  -7  -5 2390.16  138.59
   2   7   5 2084.69  140.69
  -2   7  -5 2031.80  140.29
   3  -7   5    1.90    4.10
  -3  -7  -5    7.90    2.80
  -3   7  -5   11.50    4.40
   3   7   5   16.50    3.50
  -3   7  -5    8.60    2.60
   3   7   5    6.40    3.60
   4  -7   5  942.81   75.09
  -4   7  -5 1222.88   73.19
  -4   7  -5 1125.79   73.29
   4   7   5 1165.48   73.59
   4   7   5  916.61   73.19
  -5  -7  -5   50.09   11.20
  -5   7  -5   66.39    8.50
  -5   7  -5   69.49    6.70
   5   7   5   57.99    9.30
   5   7   5   67.99    5.70
  -6  -7  -5  213.98   24.00
   6   7   5  243.88   16.60
  -6   7  -5  225.98   17.80
  -6   7  -5  228.88   18.60
   6   7   5  224.58   19.30
  -7  -7  -5   -3.20    8.30
   7  -7   5   -5.10    4.10
   7  -7   5    5.80    4.50
  -7   7  -5   -0.60    3.80
  -7   7  -5   -2.30    1.90
   7   7   5    0.00    2.80
   7   7   5   -1.50    2.80
   8  -7   5   44.50   10.40
   8  -7   5   58.29    7.30
  -8  -7  -5   82.29   21.90
  -8   7  -5   56.39    7.30
   9   7   5   41.00    7.50
  10   8  -5   39.00    6.10
  10   8  -5   28.30    6.80
   9  -8  -5  119.39   11.00
   9   8  -5  110.99   11.50
   9   8  -5  133.69   11.30
   8  -8  -5   -1.40    4.80
  -8  -8   5   -7.20    5.40
   8   8  -5    7.60    3.80
   8   8  -5    1.70    3.60
  -7  -8   5  451.15   35.60
   7  -8  -5  452.95   33.30
   7  -8  -5  411.06   31.50
  -7   8   5  409.96   30.20
   7   8  -5  410.06   31.60
  -7   8   5  432.56   30.10
   7   8  -5  409.06   32.40
   6  -8  -5    0.60    4.00
  -6  -8   5    1.80    6.90
   6  -8  -5   -3.80    3.90
   6   8  -5    2.50    4.00
   6   8  -5   -7.60    5.00
  -6   8   5    3.90    1.30
  -6   8   5    2.10    2.00
   5  -8  -5  648.34   45.00
  -5  -8   5  536.55   44.90
   5  -8  -5  696.53   48.10
  -5   8   5  678.93   44.00
  -5   8   5  690.73   45.10
   5   8  -5  639.34   45.80
   5   8  -5  652.73   46.40
  -4  -8   5   39.10    5.70
   4  -8  -5   27.90    4.40
   4  -8  -5   22.50    6.10
  -4   8   5   38.60    4.60
  -4   8   5   40.10    4.30
   4   8  -5   29.10    6.80
   4   8  -5   25.80    6.70
  -3  -8   5 1020.20   73.99
   3  -8  -5 1036.20   75.19
   3  -8  -5 1123.69   72.19
  -3   8   5 1186.58   71.79
  -3   8   5 1090.49   73.19
   3   8  -5 1041.80   73.19
   3   8  -5 1034.70   73.49
   2  -8  -5    6.10    3.80
  -2  -8   5    4.50    3.50
   2   8  -5    6.30    2.90
  -2   8   5    1.50    2.50
  -2   8   5    4.30    2.00
  -1  -8   5 1003.70   74.69
   1  -8  -5 1125.49   75.19
   1  -8  -5 1151.38   71.79
  -1   8   5 1006.10   73.39
   1   8  -5 1182.88   73.19
  -1   8   5 1022.60   73.69
   1   8  -5 1105.19   73.79
  -1   8   5 1044.30   71.89
   0  -8   5   -0.40    3.80
   0  -8  -5    5.20    3.70
   0  -8   5   -2.10    3.60
   0   8  -5    1.00    2.20
   0   8   5    5.90    3.10
   0   8   5    0.50    2.50
   0   8  -5   -0.90    2.30
  -1  -8  -5 1953.60  121.39
   1  -8   5 1690.13  123.59
  -1  -8  -5 1997.20  119.49
   1   8   5 1855.81  122.19
  -1   8  -5 1715.03  121.49
  -1   8  -5 1715.53  120.39
   2  -8   5   31.60    7.60
  -2  -8  -5   40.60    5.20
  -2  -8  -5   43.40    4.00
  -2   8  -5   40.10    6.30
   2   8   5   26.50    6.10
  -3  -8  -5 1282.87   85.39
   3  -8   5 1068.79   86.59
  -3  -8  -5 1398.86   82.79
   3   8   5 1214.48   84.89
  -3   8  -5 1298.27   84.89
  -3   8  -5 1234.68   83.69
  -4  -8  -5    7.50    3.20
   4  -8   5    6.80    2.60
  -4   8  -5   10.20    3.00
   4   8   5    8.30    4.50
   4   8   5   11.20    6.10
   5  -8   5  156.68   17.70
  -5  -8  -5  194.68   20.90
   5   8   5  219.98   14.40
   5   8   5  206.58   17.50
  -5   8  -5  206.88   17.30
   6   8   5    4.30    3.10
  -7  -8  -5  164.98   24.00
   7  -8   5  136.39   13.20
   7  -8   5  143.49   14.50
   7   8   5  157.48   13.60
  -7   8  -5  138.79   13.10
   8   8   5    7.30    3.90
   9  -8   5   28.90    7.80
  -9   8  -5   33.90    7.30
  10   9  -5   98.79    9.60
  10   9  -5  108.29    9.90
   9  -9  -5    7.90    5.20
   9   9  -5    9.30    3.60
  -8  -9   5  154.58   16.10
   8  -9  -5  156.28   13.40
  -8   9   5  146.09   12.80
   8   9  -5  151.08   13.60
   8   9  -5  168.68   14.60
  -7  -9   5   13.70    6.20
   7   9  -5   -4.90    4.50
   7   9  -5    1.90    5.90
  -7   9   5   -1.40    1.70
  -6  -9   5  286.77   20.10
  -6  -9   5  279.47   25.80
   6  -9  -5  237.48   22.80
   6  -9  -5  259.57   20.50
   6   9  -5  242.08   20.90
   6   9  -5  255.77   21.80
  -6   9   5  251.57   18.80
  -6   9   5  251.77   19.30
   5  -9  -5   59.59    6.40
  -5  -9   5   60.79    6.60
  -5  -9   5   51.79   12.10
   5   9  -5   42.20    9.00
  -5   9   5   64.09    5.80
   5   9  -5   47.70    7.80
  -5   9   5   43.90    5.70
  -4  -9   5  682.33   59.19
   4  -9  -5  863.51   59.59
   4  -9  -5  902.41   56.09
  -4  -9   5  706.43   56.89
   4   9  -5  824.42   56.99
  -4   9   5  862.21   56.39
  -4   9   5  879.61   55.19
   4   9  -5  820.52   57.59
   3  -9  -5    8.10    5.90
  -3  -9   5   18.00    5.70
  -3  -9   5    4.80    6.70
  -3   9   5   16.10    3.20
   3   9  -5    7.70    3.60
  -3   9   5   10.20    3.00
   2  -9  -5 1672.63  115.29
  -2  -9   5 1453.45  113.89
  -2   9   5 1849.02  111.49
   2   9  -5 1760.02  113.59
  -2   9   5 1678.63  113.09
  -1  -9   5   51.79    9.60
   1  -9  -5   44.30    9.50
  -1  -9   5   37.40    9.10
  -1   9   5   60.49    5.60
  -1   9   5   60.49    7.60
  -1   9   5   49.99    7.90
   1   9  -5   60.49    8.40
   1   9  -5   61.69    9.00
   0  -9  -5 1696.03  105.39
   0  -9   5 1364.46  108.89
   0  -9  -5 1558.64  108.99
   0   9  -5 1677.33  108.19
   0   9  -5 1564.54  107.29
   0   9  -5 1749.43  106.19
   0   9   5 1565.44  108.09
   0   9   5 1615.34  107.89
  -1  -9  -5   81.79    6.90
   1  -9   5   63.39   11.30
  -1  -9  -5   72.09    9.90
  -1  -9  -5   85.89    6.50
  -1   9  -5   70.19    8.70
   1   9   5   69.99    8.90
  -2  -9  -5  393.66   24.40
   2  -9   5  312.17   28.60
  -2   9  -5  358.56   26.90
   2   9   5  338.87   26.80
   3  -9   5   -2.00    4.40
   3  -9   5    3.40    2.70
  -3  -9  -5    5.30    2.40
  -3   9  -5    4.50    2.70
   3   9   5   -1.50    4.10
   4  -9   5  240.38   17.70
  -4  -9  -5  220.88   21.20
  -4   9  -5  227.68   18.80
   4   9   5  202.38   18.80
  -5  -9  -5   -4.20    6.60
   5   9   5    1.40    3.90
   5   9   5    6.00    2.20
  -5   9  -5   -1.20    2.20
  -6  -9  -5  338.27   31.80
   6  -9   5  338.47   29.10
   6   9   5  365.66   27.00
  -6   9  -5  342.87   26.80
   7  -9   5   -5.70    4.70
   7  -9   5   -0.40    4.60
  -7   9  -5    0.20    2.30
   7   9   5    5.60    3.40
   8  -9   5   44.70    7.20
  -8   9  -5   30.20    6.70
   9  10  -5   83.19    8.40
   9  10  -5   87.59    8.80
   8 -10  -5    0.80    4.90
   8  10  -5    1.90    3.70
   7 -10  -5  111.69   14.90
   7 -10  -5  124.89   13.50
   7  10  -5  105.79   12.10
   7  10  -5  130.69   11.60
  -7  10   5  124.69   10.40
  -6 -10   5   -0.80    2.80
  -6 -10   5   -2.20    5.70
   6 -10  -5    9.00    3.90
  -6  10   5    0.60    1.60
   6  10  -5   -0.80    4.40
   6  10  -5   -3.00    3.40
   5 -10  -5  294.87   22.60
   5 -10  -5  271.77   25.80
  -5 -10   5  338.97   28.30
  -5 -10   5  284.37   22.60
  -5  10   5  284.87   21.70
  -5  10   5  292.57   21.10
   5  10  -5  300.77   23.60
   5  10  -5  278.67   24.10
  -4 -10   5   21.50    8.00
   4 -10  -5   -1.90    5.00
   4 -10  -5   14.40    3.50
   4  10  -5    8.10    4.90
  -4  10   5    5.90    1.40
  -4  10   5    1.30    2.10
  -3 -10   5 1150.58   88.79
  -3 -10   5 1143.69   90.69
   3 -10  -5 1328.27   91.19
  -3  10   5 1427.76   86.49
   3  10  -5 1407.16   89.19
  -3  10   5 1307.57   87.79
  -2 -10   5    0.10    4.00
   2 -10  -5    0.80    5.20
  -2 -10   5   -1.00    6.30
  -2  10   5    5.70    1.40
   2  10  -5    4.10    4.30
  -2  10   5    5.10    2.80
   1 -10  -5 1567.64  110.89
   1 -10  -5 1726.23  106.69
  -1 -10   5 1330.37  109.79
   1  10  -5 1721.03  109.19
  -1  10   5 1631.14  108.89
   1  10  -5 1557.14  108.19
  -1  10   5 1601.14  108.89
  -1  10   5 1732.43  106.89
   0 -10   5    0.50    4.60
   0  10  -5    2.00    4.10
   0  10   5    6.30    3.50
   0  10  -5    0.90    2.90
   0  10  -5   -3.70    3.40
   0  10   5   -3.40    3.10
   1 -10   5  455.85   40.10
  -1 -10  -5  584.34   41.10
  -1 -10  -5  588.74   38.30
   1 -10   5  461.75   41.30
   1  10   5  562.14   40.00
  -1  10  -5  635.04   40.10
   2 -10   5   -0.20    3.30
   2 -10   5   -0.60    4.10
   2  10   5    0.10    3.60
  -3 -10  -5  126.99   13.00
   3 -10   5   97.29   13.20
  -3  10  -5  121.69   11.90
   3  10   5  114.89   12.30
  -4 -10  -5   -2.60    3.90
   4 -10   5   -3.30    3.20
   4  10   5   -2.90    3.50
  -5 -10  -5  209.38   22.80
  -5  10  -5  182.08   16.80
   5  10   5  196.48   21.90
   6  10   5   32.60    6.10
   7 -10   5  195.48   19.50
   7  10   5  258.37   18.60
  -7  10  -5  209.58   18.30
   9  11  -5   35.00    7.80
   9  11  -5   43.80    8.30
   8 -11  -5   63.29   10.20
   8 -11  -5   58.79    8.70
  -7 -11   5   -4.60    5.70
   7 -11  -5   -1.20    4.50
   7  11  -5   -3.90    4.20
   6 -11  -5  202.78   17.00
  -6 -11   5  205.08   16.90
   6 -11  -5  185.88   19.40
  -6 -11   5  239.98   21.40
  -6  11   5  211.18   16.10
   6  11  -5  207.78   18.20
  -6  11   5  184.68   15.90
   6  11  -5  216.08   17.40
   5 -11  -5   -4.60    3.60
  -5 -11   5    2.30    8.30
   5  11  -5   -0.80    4.00
   5  11  -5   -1.30    3.30
  -4 -11   5  504.05   39.80
   4 -11  -5  487.45   41.30
  -4 -11   5  561.24   43.40
   4 -11  -5  526.15   37.10
   4  11  -5  532.65   39.40
  -4  11   5  522.85   37.20
  -4  11   5  528.65   36.30
   3 -11  -5   -6.00    5.50
  -3 -11   5   13.40    8.00
  -3 -11   5    5.20    4.60
   3  11  -5    1.40    3.90
  -3  11   5   -3.00    2.20
  -3  11   5   -0.50    1.30
  -2 -11   5  674.13   54.49
   2 -11  -5  721.73   54.79
  -2  11   5  802.02   50.19
   2  11  -5  728.83   52.59
  -2  11   5  745.13   51.79
  -1 -11   5   -0.20    4.40
  -1 -11   5    1.10    4.90
   1  11  -5    1.40    2.60
   1  11  -5   -6.00    3.90
  -1  11   5   -2.70    3.90
  -1  11   5   -1.10    3.40
  -1  11   5   -1.70    1.10
   0 -11  -5  557.04   45.70
   0 -11   5  596.24   46.00
   0  11  -5  612.84   43.60
   0  11   5  631.84   44.30
   0  11  -5  659.13   44.80
   0  11   5  589.84   44.00
   1 -11   5   17.60    6.20
   1 -11   5   21.40    6.40
   1  11   5   24.40    6.60
  -1  11  -5   28.40    6.70
  -2 -11  -5  304.07   20.70
   2 -11   5  300.97   23.70
   2 -11   5  218.98   23.40
   2  11   5  265.57   22.00
  -2  11  -5  230.98   21.30
  -3 -11  -5    1.10    3.10
   3 -11   5    7.40    3.70
   3 -11   5   -3.30    4.10
  -3  11  -5   -2.80    2.30
   3  11   5    5.30    4.10
   4 -11   5  305.47   27.00
  -4  11  -5  315.07   24.30
   4  11   5  292.47   25.70
   5  11   5    5.50    3.30
   6 -11   5  179.48   17.60
   6  11   5  196.58   15.50
  -6  11  -5  154.48   15.20
   7  11   5   52.59    8.10
   8  12  -5   17.70    5.70
   7 -12  -5  100.59   13.80
   7  12  -5  142.09   11.50
   7  12  -5  127.69   11.80
  -6 -12   5    8.00    6.20
   6 -12  -5   -2.60    7.30
   6  12  -5    1.00    3.70
   5 -12  -5  372.06   28.00
  -5 -12   5  414.46   29.50
  -5 -12   5  441.96   33.60
   5 -12  -5  340.67   31.60
  -5  12   5  354.16   27.20
  -5  12   5  354.36   27.00
   5  12  -5  371.06   29.50
  -3 -12   5  313.07   27.80
  -3 -12   5  304.37   25.60
   3 -12  -5  287.57   26.50
  -3  12   5  292.77   21.40
   3  12  -5  295.97   24.70
  -3  12   5  291.67   23.10
  -2 -12   5   21.20    9.70
  -2 -12   5   35.80   10.90
   1 -12  -5  252.67   25.70
  -1 -12   5  248.68   25.00
  -1 -12   5  320.17   26.70
  -1  12   5  270.87   20.00
   1  12  -5  283.47   23.20
  -1  12   5  274.47   23.10
  -1  12   5  280.47   22.10
   1  12  -5  275.37   22.20
   0 -12   5    9.70    6.60
   0  12  -5   -3.30    3.90
   0  12   5   -2.10    3.80
   0  12   5    4.50    3.00
   0  12  -5    0.90    2.80
   1 -12   5  375.06   34.10
   1  12   5  413.16   32.40
  -1  12  -5  448.76   32.00
   1  12   5  452.55   32.60
   2 -12   5   -6.10    6.20
   2  12   5    1.00    4.00
  -2  12  -5   -1.40    4.10
   3 -12   5  445.36   35.40
   3  12   5  380.06   38.60
  -3  12  -5  437.56   32.20
   4 -12   5   -4.50    4.20
   4  12   5    5.70    3.40
   5 -12   5  207.88   19.70
   5  12   5  207.18   17.30
   6  12   5    7.30    4.70
   8 -13  -5   41.20    8.60
   7  13  -5   53.39    8.40
   6 -13  -5  128.09   14.30
   6 -13  -5  112.89   10.70
  -6  13   5   89.09    9.70
   5 -13  -5    4.00    4.90
  -5 -13   5    7.40    4.50
   5  13  -5    9.50    3.60
   4 -13  -5  246.98   17.20
  -4 -13   5  263.87   20.90
  -4 -13   5  259.77   23.20
   4 -13  -5  188.68   21.00
  -4  13   5  187.28   16.60
   4  13  -5  216.28   19.30
  -4  13   5  201.08   17.40
  -3 -13   5   31.30    7.50
  -3 -13   5   25.80    8.30
  -2 -13   5  228.88   19.50
  -2 -13   5  223.38   20.60
   2  13  -5  179.48   16.00
  -2  13   5  176.68   15.90
  -2  13   5  173.48   15.20
   2  13  -5  187.78   21.70
   1  13  -5    7.80    5.70
   1  13  -5   20.50    5.30
  -1  13   5    7.00    2.20
  -1  13   5   13.70    4.70
   0 -13   5  278.37   26.00
   0 -13   5  333.47   26.50
   0  13   5  292.67   21.40
   0  13   5  281.97   23.40
   0  13   5  288.77   25.10
   0  13  -5  269.47   22.70
   1 -13   5   10.30    5.00
   1 -13   5   10.30    6.00
   1  13   5    5.30    3.80
   1  13   5   -7.80    5.50
  -1  13  -5    2.90    2.20
   2 -13   5  484.05   39.40
   2  13   5  502.65   36.40
   2  13   5  468.65   36.20
  -2  13  -5  481.95   36.00
   3 -13   5   13.80    5.00
   4 -13   5  274.17   23.40
  -4  13  -5  208.48   20.00
   4  13   5  264.97   20.50
   5  13   5   40.60    8.00
   6  14  -5   44.00    8.30
  -5 -14   5  132.69   14.80
   5 -14  -5  156.08   16.20
   5 -14  -5  142.09   12.90
   5  14  -5  181.28   14.40
  -4 -14   5    7.30    4.30
  -4 -14   5    6.20    6.10
   3 -14  -5   96.69   14.60
  -3  14   5  118.99   11.30
  -3  14   5  112.59   10.40
   3  14  -5  136.59   12.60
  -2 -14   5   11.30    5.90
  -2 -14   5   11.70    4.30
   2  14  -5    1.40    3.20
   2  14  -5    5.90    2.30
   1 -14  -5  124.19   16.70
  -1 -14   5  176.08   17.30
  -1 -14   5  174.88   16.50
   1  14  -5  166.78   14.20
  -1  14   5  146.59   12.30
  -1  14   5  134.29   14.80
   1  14  -5  146.79   14.30
  -1  14   5  153.28   13.40
   0 -14   5    7.30    4.90
   0  14   5    3.50    1.80
   0  14  -5    2.50    2.30
   1 -14   5  389.56   31.40
  -1 -14  -5  330.47   29.70
   1  14   5  335.27   27.50
   1  14   5  354.56   28.30
  -1  14  -5  363.46   28.00
   1  14   5  407.96   26.40
   2  14   5   21.50    5.90
   3 -14   5  212.18   20.20
  -3  14  -5  187.68   17.00
   3  14   5  201.48   17.20
   4 -14   5    5.70    5.50
   4  14   5    8.70    4.60
   5 -14   5   83.39   12.20
   5  14   5  102.69   10.30
   5  15  -5   31.40    8.50
   4 -15  -5   60.49   10.00
  -4 -15   5   69.49   10.00
  -3 -15   5   -4.30    4.50
   3  15  -5    2.50    4.00
   3  15  -5    4.70    2.40
   2 -15  -5  188.68   20.90
   2  15  -5  254.87   18.30
   2  15  -5  239.88   19.20
  -2  15   5  208.88   16.90
  -2  15   5  195.38   18.80
   0 -15   5  209.68   18.50
   0  15  -5  182.18   15.50
   0  15   5  157.88   16.10
   0  15   5  181.68   15.00
   0  15   5  166.08   14.30
   1  15   5    2.60    4.10
  -1  15  -5    4.10    2.50
   1  15   5    5.10    2.30
   2 -15   5  176.48   16.70
   2  15   5  184.68   15.30
   2  15   5  170.68   14.20
  -2  15  -5  147.09   14.10
   3 -15   5    3.50    5.70
   3  15   5   -5.20    4.60
   3  15   5    9.70    4.80
   4 -15   5   67.69   11.80
   4  15   5   72.59    9.80
   4  16  -5   12.70    5.00
  -3 -16   5   63.19   10.60
   3 -16  -5   73.39   11.00
  -2 -16   5    3.90    5.30
   2  16  -5    1.80    2.70
   2  16  -5   -4.80    4.20
  -1 -16   5  228.88   18.30
   1  16  -5  202.08   16.70
  -1  16   5  168.18   16.10
   1  16  -5  201.38   16.40
   0 -16   5   17.10    5.70
   0  16   5    8.60    4.30
   0  16  -5    8.10    2.70
   1 -16   5  128.09   14.20
   1  16   5  124.89   11.60
   2 -16   5   14.00    6.00
   2  16   5    3.30    4.80
  12   0  -6   35.00    7.50
  12   0  -6   34.40    7.70
  11   0  -6   21.30    5.00
  10   0  -6  154.18   14.40
  10   0  -6  163.38   14.10
   9   0  -6    2.10    4.40
   9   0  -6    4.50    4.70
  -8   0   6  895.71   63.79
   8   0  -6  855.61   62.59
   8   0  -6  992.70   63.29
   7   0  -6    1.60    3.40
   7   0  -6    2.80    4.30
  -7   0   6    2.90    3.10
  -7   0   6    3.80    4.00
   6   0  -6  980.80   68.99
  -6   0   6  933.41   69.69
  -6   0   6 1144.79   68.99
  -6   0   6 1039.50   69.59
  -5   0   6    2.20    2.80
  -5   0   6   -3.60    2.50
   5   0  -6   -0.40    3.00
   5   0  -6   -1.50    1.20
  -5   0   6    1.10    2.00
  -4   0   6  520.85   38.70
  -4   0   6  622.44   38.40
   4   0  -6  546.85   38.20
  -3   0   6   -2.20    2.20
   3   0  -6   -0.70    2.60
   3   0  -6   -0.90    2.10
  -3   0   6    2.20    2.10
  -3   0   6   -1.30    3.20
  -2   0   6  226.68   14.90
  -2   0   6  204.48   16.00
  -2   0   6  194.58   16.10
   2   0  -6  222.48   14.30
   2   0  -6  214.48   15.60
   2   0  -6  202.38   15.00
  -1   0   6    0.20    1.70
  -1   0   6   -0.70    2.60
   1   0  -6   -0.10    1.80
   1   0  -6    0.50    0.70
  -1   0   6    0.60    2.10
   1   0  -6   -1.30    2.20
   0   0  -6 9999.00  652.83
   1   0   6    0.30    2.30
   1   0   6   -1.00    1.10
  -1   0  -6    0.40    1.10
   1   0   6    0.30    1.20
   1   0   6   -2.80    4.70
   2   0   6 5168.58  343.87
   2   0   6 5702.53  343.27
  -2   0  -6 4889.01  343.27
   3   0   6    0.10    2.10
   3   0   6    0.20    2.60
  -3   0  -6    0.60    1.50
   4   0   6  757.42   49.40
  -4   0  -6  706.73   48.50
  -4   0  -6  700.13   51.09
   4   0   6  721.23   48.80
   4   0   6  695.03   48.40
   4   0   6  725.03   48.70
   5   0   6   -2.00    1.70
   5   0   6   -2.60    2.60
   5   0   6   -1.90    1.80
   6   0   6  450.15   32.60
  -6   0  -6  442.36   36.40
   6   0   6  473.55   31.60
   6   0   6  469.95   32.20
   6   0   6  445.76   32.90
  -7   0  -6    3.00    7.00
   7   0   6    0.10    3.30
   8   0   6  114.79   12.30
  -8   0  -6  103.49   19.40
   8   0   6  121.19   10.40
  -9   0  -6   -2.60   10.40
   9   0   6    4.90    3.80
   9   0   6   -0.30    3.30
 -10   0  -6  115.59   32.90
  10   0   6   48.00    8.30
  12  -1  -6    8.00    5.80
  12  -1  -6   -1.60    4.50
  12   1  -6   19.30    6.60
  12   1  -6    5.70    4.70
  11  -1  -6   81.89    7.80
  11  -1  -6   64.19    8.00
  11   1  -6   90.69    8.00
  11   1  -6   64.19    7.80
  10  -1  -6   -3.10    2.90
  10  -1  -6   -2.20    3.30
  10   1  -6   -3.50    2.90
   9  -1  -6  211.58   18.20
   9  -1  -6  232.18   19.30
   9   1  -6  207.08   18.20
   9   1  -6  235.28   19.30
  -8  -1   6    2.70    3.20
   8  -1  -6    3.90    5.20
   8   1  -6    1.00    4.20
   8   1  -6   -1.50    5.10
  -8   1   6    5.20    4.80
  -8   1   6    6.50    5.40
  -7  -1   6  953.90   58.59
   7  -1  -6  859.31   59.09
  -7  -1   6  819.32   59.99
   7   1  -6  925.61   59.29
  -7   1   6  756.62   59.59
   7   1  -6  881.11   59.29
  -7   1   6  820.72   59.19
  -7   1   6  906.81   60.19
  -6  -1   6   -2.20    2.40
  -6  -1   6   -0.70    2.10
   6  -1  -6    6.00    3.70
  -6  -1   6    2.20    3.40
   6   1  -6    2.50    3.80
  -6   1   6    3.10    3.20
   6   1  -6   -3.10    3.80
  -6   1   6    3.10    6.30
  -6   1   6   -1.00    2.90
   6   1  -6   -1.30    2.50
   5  -1  -6 1514.15   91.89
  -5  -1   6 1332.07   93.49
  -5  -1   6 1431.06   93.59
   5  -1  -6 1356.46   92.69
  -5   1   6 1281.27   93.19
   5   1  -6 1395.56   92.59
  -5   1   6 1563.74   93.19
   5   1  -6 1317.87   92.79
  -5   1   6 1363.96   93.69
  -4  -1   6   -0.10    2.20
   4  -1  -6   -0.70    1.00
  -4  -1   6   -2.70    2.80
  -4  -1   6   -0.30    3.10
   4  -1  -6   -2.10    2.50
   4   1  -6    0.00    2.60
   4   1  -6   -1.20    3.00
   4   1  -6   -3.00    2.20
  -4   1   6   -0.20    2.30
  -4   1   6    1.30    2.00
  -4   1   6   -4.40    3.10
  -4   1   6   -2.70    2.60
   3  -1  -6 2290.77  168.48
  -3  -1   6 2443.96  169.78
   3  -1  -6 2739.43  169.48
  -3  -1   6 2292.37  169.18
   3  -1  -6 2794.62  167.98
  -3  -1   6 2864.91  168.88
   3   1  -6 2762.32  169.48
  -3   1   6 2781.42  168.58
  -3   1   6 2501.75  169.28
   3   1  -6 2519.15  168.38
  -3   1   6 2294.37  169.18
  -2  -1   6   41.10    4.30
  -2  -1   6   32.70    7.10
   2  -1  -6   41.80    3.40
   2  -1  -6   30.10    3.90
  -2  -1   6   34.90    5.30
   2  -1  -6   37.10    4.60
   2   1  -6   39.50    5.00
   2   1  -6   34.00    4.60
   2   1  -6   36.10    3.50
  -2   1   6   32.00    6.40
   2   1  -6   37.90    5.50
  -2   1   6   35.20    5.20
  -2   1   6   37.40    3.80
  -1  -1   6 3503.85  221.38
   1  -1  -6 3791.62  222.18
   1  -1  -6 3364.36  221.18
  -1  -1   6 2999.00  222.18
  -1  -1   6 3095.59  221.58
   1   1  -6 3267.87  221.68
  -1   1   6 3565.34  220.88
   1   1  -6 3401.66  221.08
  -1   1   6 3021.50  221.78
   1   1  -6 3813.22  221.88
   0  -1  -6    1.80    0.70
   0  -1   6    3.80    2.10
   0  -1   6    1.70    2.40
   0  -1   6   -0.80    3.10
   0  -1   6    1.00    1.00
   0   1  -6    2.60    1.00
   0   1   6    2.80    1.50
   0   1  -6    3.40    2.10
   0   1   6    2.90    1.00
   0   1   6    3.20    2.60
  -1  -1  -6 4323.47  289.87
   1  -1   6 5108.59  290.37
   1  -1   6 4345.57  290.47
   1  -1   6 3764.62  290.97
  -1   1  -6 4439.16  290.17
   1   1   6 4361.26  291.07
   1   1   6 4745.02  289.97
  -2  -1  -6   -0.20    1.40
   2  -1   6    2.20    2.20
   2  -1   6    0.30    5.00
   2  -1   6    0.80    1.40
  -2   1  -6    1.90    1.40
   2   1   6   -3.50    2.20
   2   1   6   -2.80    1.80
   2   1   6   -0.20    1.30
   3  -1   6 2215.58  136.39
   3  -1   6 2020.60  135.19
  -3  -1  -6 2190.08  137.69
   3  -1   6 1895.41  136.49
   3   1   6 1909.01  136.29
   3   1   6 2041.70  134.79
  -3   1  -6 2027.30  135.09
   3   1   6 2104.89  134.99
  -3   1  -6 2062.59  137.39
   4  -1   6   50.49    6.30
   4  -1   6   48.70    5.90
   4  -1   6   46.20    5.50
  -4   1  -6   34.40    6.30
  -4   1  -6   47.80    5.80
   4   1   6   38.70    5.80
   4   1   6   51.39    5.20
   5  -1   6  374.96   27.60
   5  -1   6  406.56   27.60
   5  -1   6  403.86   28.50
   5   1   6  385.56   27.90
  -5   1  -6  387.56   27.80
   5   1   6  365.26   30.70
   5   1   6  401.96   27.30
   6  -1   6    8.50    4.20
  -6  -1  -6   10.50    5.10
   6  -1   6   12.10    6.00
   6   1   6    2.00    3.70
   6   1   6   16.20    4.10
   6   1   6    8.10    3.70
  -6   1  -6    8.30    4.90
  -7  -1  -6  245.68   27.20
   7  -1   6  238.58   19.80
   7  -1   6  244.38   19.10
  -7   1  -6  238.88   25.50
   7   1   6  241.08   19.80
   7   1   6  246.38   17.70
   7   1   6  240.58   18.70
   8  -1   6    7.60    5.00
  -8  -1  -6   12.50    9.90
   8   1   6    6.60    3.60
   8   1   6    6.10    3.50
  -8   1  -6    2.80    7.30
   9  -1   6   97.89    9.30
   9  -1   6   98.09    9.60
  -9  -1  -6  108.09   25.40
  -9   1  -6  119.29   21.70
   9   1   6   99.59    9.10
   9   1   6  116.79    9.80
 -10  -1  -6   25.40   18.00
  10   1   6   -0.70    4.70
 -10   1  -6   29.10   15.70
  12  -2  -6   17.70    4.90
  11  -2  -6   13.60    4.50
  11   2  -6   22.80    5.30
  10  -2  -6  156.28   14.60
  10  -2  -6  170.58   14.30
  10   2  -6  146.69   14.30
  10   2  -6  167.68   14.20
   9  -2  -6    9.40    4.60
   9   2  -6   -4.00    4.00
   9   2  -6    4.90    5.20
  -8  -2   6  293.17   25.70
   8  -2  -6  354.46   26.40
  -8  -2   6  355.76   24.40
   8   2  -6  365.26   26.80
  -8   2   6  367.66   27.30
   8   2  -6  372.26   26.80
  -7  -2   6   -1.60    2.40
  -7  -2   6    1.00    4.40
   7  -2  -6    2.60    4.20
  -7   2   6   -0.10    4.10
   7   2  -6   -3.40    4.70
  -7   2   6    3.80    3.30
  -6  -2   6  743.83   53.89
   6  -2  -6  782.52   53.09
   6   2  -6  744.93   53.19
  -6   2   6  791.42   53.09
  -6   2   6  746.23   53.69
   6   2  -6  864.31   53.29
   5  -2  -6   -0.40    1.20
  -5  -2   6    1.20    3.90
  -5  -2   6    2.20    3.20
   5  -2  -6   -0.90    3.00
  -5   2   6    1.70    3.10
  -5   2   6   -1.00    3.40
  -5   2   6    2.20    3.00
   5   2  -6   -2.10    3.10
   5   2  -6    1.30    4.00
  -4  -2   6 2847.71  185.28
   4  -2  -6 2852.01  183.18
   4  -2  -6 2697.93  183.88
  -4  -2   6 2537.35  184.58
   4   2  -6 2659.83  183.88
  -4   2   6 2654.73  184.58
   4   2  -6 2698.63  184.18
  -4   2   6 3352.56  184.98
  -4   2   6 2918.81  184.48
   3  -2  -6   84.19    8.50
  -3  -2   6   96.29    7.90
  -3  -2   6   84.19    8.30
   3  -2  -6   84.39    7.60
  -3  -2   6   82.09    9.00
   3  -2  -6   95.39    6.50
   3   2  -6   91.09    8.20
  -3   2   6   94.59    8.40
   3   2  -6   94.89    8.90
   3   2  -6   87.09    7.70
  -3   2   6  108.59    8.50
   3   2  -6  102.29    9.30
  -3   2   6   96.09    7.50
  -3   2   6   84.59    9.00
   2  -2  -6 2859.71  209.38
  -2  -2   6 2903.61  210.18
   2  -2  -6 3371.36  209.58
  -2  -2   6 3145.39  210.88
   2  -2  -6 3490.25  210.58
  -2  -2   6 3379.06  210.08
  -2   2   6 3359.16  209.38
   2   2  -6 3143.99  209.58
  -2   2   6 2927.51  210.38
   2   2  -6 3155.18  210.18
   2   2  -6 3514.65  210.48
  -1  -2   6  109.09    7.70
   1  -2  -6  109.99    7.80
  -1  -2   6  115.79    8.80
  -1  -2   6   97.39   10.10
   1  -2  -6  106.89    7.80
   1  -2  -6  112.69    9.10
  -1  -2   6  100.69    8.80
  -1   2   6  116.99    7.50
   1   2  -6  111.19    8.80
   1   2  -6  103.39    7.80
  -1   2   6  100.19    9.50
   1   2  -6   95.79    8.40
   1   2  -6  120.59    9.60
   1   2  -6   94.39    9.20
   0  -2   6 2715.53  164.28
   0  -2   6 2396.36  163.48
   0  -2  -6 2688.83  163.08
   0  -2   6 2440.06  163.78
   0   2  -6 2806.82  164.08
   0   2   6 2214.78  163.38
   0   2   6 2549.34  162.98
   0   2  -6 2351.06  163.58
   0   2   6 2309.07  164.58
   1  -2   6   61.09    6.00
   1  -2   6   76.19    5.70
   1  -2   6   49.30    9.50
   1  -2   6   65.69    6.00
  -1   2  -6   66.79    6.00
   1   2   6   68.79    5.30
   1   2   6   61.79    7.10
   1   2   6   56.19    5.70
   1   2   6   67.69    4.80
   1   2   6   61.39    4.90
  -2  -2  -6 1404.76   89.59
   2  -2   6 1362.66   89.09
   2  -2   6 1375.96   87.79
   2  -2   6 1289.17   87.49
   2   2   6 1269.87   87.49
   2   2   6 1247.08   88.79
   2   2   6 1293.37   86.99
   2   2   6 1417.76   87.39
  -2   2  -6 1276.47   87.59
   3  -2   6   47.10    5.50
  -3  -2  -6   57.59    5.50
   3  -2   6   37.70    9.20
   3  -2   6   48.40    6.60
   3   2   6   38.70    5.50
  -3   2  -6   46.80    5.40
   3   2   6   42.50    5.50
  -3   2  -6   54.09    5.10
   3   2   6   45.60    5.10
   4  -2   6 1148.99   75.39
   4  -2   6 1042.00   77.29
   4  -2   6 1229.68   77.29
  -4   2  -6 1089.59   78.09
   4   2   6 1150.18   75.09
  -4   2  -6 1103.69   75.69
   4   2   6 1171.28   75.89
   5  -2   6    1.50    1.90
   5  -2   6   -0.70    3.80
   5  -2   6    2.90    3.30
   5   2   6    2.40    2.30
   5   2   6   -2.90    2.50
  -5   2  -6    3.30    2.40
   5   2   6    4.40    3.20
  -6  -2  -6  787.22   58.39
   6  -2   6  721.13   52.69
   6  -2   6  735.23   54.39
   6  -2   6  807.52   54.09
   6  -2   6  822.12   52.99
   6   2   6  782.82   54.19
  -6   2  -6  774.52   57.49
   6   2   6  830.52   53.19
  -6   2  -6  799.32   53.99
   7  -2   6   10.10    4.60
  -7  -2  -6   17.40    9.20
   7   2   6    5.40    3.90
  -7   2  -6   12.00    7.90
   7   2   6   10.90    4.00
  -8  -2  -6  181.38   26.90
   8  -2   6  195.38   15.90
   8  -2   6  187.98   16.40
  -8   2  -6  194.08   22.30
   8   2   6  211.28   16.60
   8   2   6  192.38   15.30
   9  -2   6    8.90    4.10
  -9  -2  -6   -0.90   13.50
   9  -2   6    3.40    3.50
  -9   2  -6    7.80    7.90
  10  -2   6    5.80    5.80
  10  -2   6   15.30    4.80
 -10  -2  -6   49.50   28.70
 -10   2  -6   27.70   14.10
  11  -3  -6   73.29    8.00
  11   3  -6   96.49    8.50
  11   3  -6   88.89    8.60
  10  -3  -6    3.60    3.80
  10   3  -6    2.50    2.90
  10   3  -6    9.20    4.00
   9  -3  -6  162.08   15.30
   9   3  -6  149.19   14.30
  -9   3   6  158.68   13.40
   9   3  -6  127.19   17.10
  -8  -3   6   -3.60    3.80
   8  -3  -6   -0.70    4.40
  -8   3   6    2.20    3.70
   8   3  -6   -4.70    3.60
  -8   3   6    7.70    3.90
   8   3  -6   -5.60    4.60
   7  -3  -6  388.96   28.30
  -7  -3   6  395.86   27.00
  -7  -3   6  394.46   27.20
  -7   3   6  405.86   27.80
   7   3  -6  382.76   28.40
  -7   3   6  384.96   28.80
   7   3  -6  352.06   28.30
   6  -3  -6   -0.80    3.30
  -6  -3   6    6.40    4.30
   6   3  -6    1.10    4.10
   6   3  -6   -2.00    2.80
  -6   3   6    0.30    3.60
  -6   3   6    3.80    3.30
   5  -3  -6 1960.30  135.89
   5  -3  -6 2212.08  135.09
  -5  -3   6 2000.10  136.89
   5   3  -6 1994.40  136.19
  -5   3   6 1970.90  136.59
  -5   3   6 2108.39  136.09
   5   3  -6 2161.58  136.19
  -4  -3   6    0.60    3.50
   4  -3  -6    3.80    2.90
   4  -3  -6    0.70    1.00
  -4  -3   6    2.20    3.00
  -4   3   6    3.80    2.60
   4   3  -6    1.20    2.20
   4   3  -6    0.00    3.30
   3  -3  -6 4956.00  349.57
   3  -3  -6 5670.33  350.66
   3  -3  -6 5606.94  349.96
  -3  -3   6 5309.97  350.26
  -3  -3   6 5056.09  351.36
  -3  -3   6 5072.09  350.56
  -3   3   6 4982.40  350.66
   3   3  -6 5211.58  349.96
   3   3  -6 4799.72  350.16
   3   3  -6 5786.22  351.46
   3   3  -6 5822.22  350.96
  -3   3   6 5962.70  351.06
  -2  -3   6   27.70    5.70
   2  -3  -6   29.00    3.30
   2  -3  -6   36.60    4.10
  -2  -3   6   22.50    5.90
   2  -3  -6   28.90    4.70
  -2  -3   6   31.70    4.50
  -2  -3   6   30.30    3.80
   2   3  -6   32.60    5.40
   2   3  -6   22.60    4.70
  -2   3   6   36.30    5.30
  -2   3   6   33.10    5.00
   2   3  -6   28.50    4.80
   2   3  -6   22.00    4.40
  -1  -3   6 2987.10  185.78
   1  -3  -6 2907.11  185.88
  -1  -3   6 2741.03  187.08
  -1  -3   6 3096.09  186.58
  -1  -3   6 2678.83  186.08
   1  -3  -6 2533.75  185.08
   1   3  -6 2708.53  185.88
  -1   3   6 3257.57  186.98
   1   3  -6 2537.65  186.08
   1   3  -6 3095.99  186.38
  -1   3   6 2666.53  186.78
   0  -3   6    3.80    3.30
   0  -3   6    1.60    3.00
   0  -3  -6    3.20    1.40
   0  -3   6    2.80    1.90
   0  -3   6    3.30    2.50
   0  -3   6    3.50    2.00
   0   3  -6    6.10    3.00
   0   3  -6    1.90    1.50
   0   3   6    0.90    1.80
   0   3   6    3.10    2.10
   0   3   6    2.80    2.10
   0   3  -6    5.10    1.80
   0   3   6    2.90    0.70
   1  -3   6  577.54   41.80
   1  -3   6  634.14   40.60
   1  -3   6  553.34   41.10
   1  -3   6  551.84   40.00
  -1  -3  -6  669.93   40.20
  -1   3  -6  588.34   40.50
   1   3   6  541.45   41.50
   1   3   6  631.84   39.80
   1   3   6  679.53   41.20
   1   3   6  572.54   40.50
   2  -3   6   53.89    5.20
  -2  -3  -6   63.69    5.50
   2  -3   6   61.79    6.00
   2  -3   6   49.90    7.00
   2  -3   6   63.99    7.40
   2   3   6   55.69    5.40
   2   3   6   69.69    6.60
  -2   3  -6   60.79    5.80
   2   3   6   54.19    6.40
   2   3   6   52.89    4.50
   3  -3   6 1676.03  111.99
  -3  -3  -6 1697.53  114.89
   3  -3   6 1859.21  114.59
   3   3   6 1673.03  112.39
   3   3   6 1647.44  112.79
  -3   3  -6 1685.63  112.79
   3   3   6 1663.33  111.89
  -3   3  -6 1749.72  114.89
   4  -3   6    4.70    2.10
   4  -3   6    0.90    2.40
   4  -3   6   -1.60    3.60
   4   3   6    3.00    2.50
   4   3   6    5.70    3.20
  -4   3  -6    3.50    2.10
  -4   3  -6    6.00    2.20
   4   3   6    4.50    2.40
   5  -3   6  912.51   58.19
   5  -3   6  835.32   59.89
   5  -3   6  824.12   57.19
   5  -3   6  896.11   57.39
  -5   3  -6  807.32   58.39
   5   3   6  801.42   58.49
   5   3   6  865.71   57.49
   5   3   6  932.81   57.79
   6  -3   6   17.30    4.70
  -6  -3  -6   16.00    6.70
   6  -3   6   20.50    4.60
   6  -3   6   26.90    7.00
   6   3   6   11.00    3.20
   6   3   6   18.90    4.70
  -7  -3  -6  320.77   32.30
   7  -3   6  334.37   25.00
   7   3   6  326.07   24.90
  -7   3  -6  338.37   30.00
  -7   3  -6  270.47   27.70
   7   3   6  328.17   23.40
  -8  -3  -6    2.80   11.20
   8  -3   6    5.50    3.40
   8   3   6   -0.20    3.20
  -8   3  -6    3.00    5.20
   8   3   6    1.10    2.90
   9  -3   6   59.19    7.90
   9  -3   6   70.89    7.60
  -9  -3  -6   94.89   27.70
  -9   3  -6   93.39   16.50
   9   3   6   74.29    7.80
   9   3   6   74.89    7.30
  11  -4  -6    6.70    4.60
  11   4  -6   10.20    3.90
  10  -4  -6  118.19   10.70
  10   4  -6  107.29   11.10
  10   4  -6  128.89   11.30
   9  -4  -6    9.50    6.50
  -9   4   6   23.90    5.80
   9   4  -6    6.90    5.00
   9   4  -6   13.60    4.70
  -8  -4   6  226.78   20.00
   8  -4  -6  237.18   19.70
   8   4  -6  247.98   19.70
  -8   4   6  253.87   20.30
   8   4  -6  259.47   20.30
   7  -4  -6    1.00    5.00
  -7  -4   6    0.50    3.00
  -7   4   6    0.60    2.60
   7   4  -6   -0.20    3.50
   7   4  -6   -2.10    5.00
  -7   4   6   -1.90    3.60
  -6  -4   6  892.11   56.39
   6  -4  -6  832.32   56.49
   6   4  -6  842.62   56.79
   6   4  -6  784.32   56.59
  -6   4   6  790.72   55.99
  -6   4   6  831.12   57.09
  -5  -4   6   59.59    8.20
  -5  -4   6   59.19    8.30
   5  -4  -6   67.19    5.90
   5  -4  -6   57.69    6.60
  -5   4   6   73.19    7.40
   5   4  -6   63.69    7.30
   5   4  -6   53.69    7.50
  -4  -4   6 3150.78  193.28
   4  -4  -6 3256.87  192.88
  -4  -4   6 2820.42  193.38
   4  -4  -6 2879.51  191.58
   4  -4  -6 2819.52  192.28
   4   4  -6 2897.61  192.78
   4   4  -6 2761.32  192.88
  -4   4   6 2856.71  193.28
   3  -4  -6    3.80    2.10
  -3  -4   6    0.20    4.00
  -3  -4   6    1.00    2.20
  -3  -4   6    6.30    2.90
   3  -4  -6    4.90    2.60
  -3  -4   6    1.70    2.70
   3   4  -6    0.40    2.70
   3   4  -6   -2.10    3.90
   3   4  -6    1.50    3.40
  -3   4   6    4.40    2.40
  -2  -4   6 2953.70  208.28
  -2  -4   6 3218.78  208.48
   2  -4  -6 2940.81  207.28
  -2  -4   6 3021.10  208.98
   2  -4  -6 3241.08  208.78
  -2  -4   6 3407.96  207.98
  -2  -4   6 3138.99  209.58
   2  -4  -6 3269.17  208.38
  -2   4   6 2841.52  208.68
  -2   4   6 3575.24  213.08
   2   4  -6 2945.91  208.28
   2   4  -6 3370.86  213.48
   2   4  -6 2877.51  208.58
   2   4  -6 3631.54  208.88
  -1  -4   6  166.98   12.40
  -1  -4   6  162.08   13.70
  -1  -4   6  149.29   12.90
  -1  -4   6  166.28   13.50
   1  -4  -6  154.08   12.20
  -1  -4   6  166.38   12.20
   1  -4  -6  155.18   10.70
  -1   4   6  157.58   13.10
  -1   4   6  168.88   13.00
   1   4  -6  164.08   12.30
   1   4  -6  176.68   13.90
  -1   4   6  164.28   12.40
   1   4  -6  134.69   12.40
   0  -4   6  840.52   57.99
   0  -4   6  889.61   57.19
   0  -4   6  806.02   57.59
   0  -4   6  841.52   58.19
   0  -4  -6  924.11   56.79
   0  -4   6  849.52   56.59
   0   4   6  771.82   57.79
   0   4   6  954.00   57.79
   0   4   6  722.33   56.89
   0   4  -6  897.81   57.99
   0   4  -6  814.82   56.99
   0   4  -6  889.01   56.69
   1  -4   6   27.50    5.40
   1  -4   6   35.60    4.00
   1  -4   6   37.30    7.20
   1  -4   6   28.20    5.90
   1  -4   6   38.70    4.90
  -1   4  -6   35.00    4.20
  -1   4  -6   36.60    5.70
  -1   4  -6   31.20    4.40
   1   4   6   40.00    5.70
   1   4   6   25.20    5.40
   1   4   6   26.50    5.40
   1   4   6   33.60    3.50
  -2  -4  -6  928.61   66.39
   2  -4   6  967.10   66.79
   2  -4   6  968.70   64.09
   2  -4   6  989.20   65.99
   2  -4   6 1006.80   65.29
   2   4   6 1087.59   65.69
   2   4   6  987.20   64.49
   2   4   6  892.91   63.79
  -2   4  -6  943.91   65.19
   3  -4   6   72.59    5.60
  -3  -4  -6   78.69    7.90
   3  -4   6   75.39    8.00
   3  -4   6   61.99    8.50
  -3   4  -6   71.29    7.40
  -3   4  -6   77.79    7.00
   3   4   6   72.89    6.10
   3   4   6   87.69    7.80
   3   4   6   63.99    7.10
   4  -4   6 1752.02  115.99
  -4  -4  -6 1632.54  116.29
   4  -4   6 1857.81  112.39
   4  -4   6 1609.14  116.49
   4  -4   6 1634.24  112.09
   4   4   6 1682.23  112.79
  -4   4  -6 1674.43  113.89
  -4   4  -6 1686.43  115.79
   4   4   6 1951.70  113.79
   4   4   6 1665.03  113.99
  -5  -4  -6   16.60    6.90
   5  -4   6   16.10    4.60
   5  -4   6   21.80    2.70
  -5   4  -6   24.50    6.20
   5   4   6   16.00    4.10
   5   4   6   21.80    5.80
   5   4   6   21.40    3.30
  -6  -4  -6  595.94   49.60
   6  -4   6  625.14   44.80
   6   4   6  639.74   43.10
  -6   4  -6  640.94   47.60
   6   4   6  654.33   44.90
  -6   4  -6  647.84   44.60
   7  -4   6   13.80    4.70
   7  -4   6    5.20    3.60
  -7  -4  -6   11.20    8.00
  -7   4  -6    9.00    5.00
   7   4   6   11.00    4.10
   7   4   6   14.20    3.80
  -7   4  -6   25.20    5.60
   8  -4   6  121.29   11.50
  -8  -4  -6  139.69   25.30
   8   4   6  120.39   11.90
   8   4   6  128.59   10.50
  -8   4  -6  131.69   15.40
  -8   4  -6  134.99   11.90
  -9  -4  -6   18.70   15.50
   9  -4   6   -5.70    4.50
   9   4   6    3.70    3.90
  -9   4  -6    6.70    5.30
  11   5  -6   69.59    8.00
  11   5  -6   77.49    7.50
  10  -5  -6   18.20    5.10
  10   5  -6   18.70    5.00
  -9  -5   6  194.98   18.30
   9  -5  -6  202.78   16.70
   9   5  -6  195.78   16.90
  -9   5   6  195.58   16.30
   9   5  -6  213.08   17.60
   8  -5  -6    2.60    4.50
   8   5  -6    1.50    4.40
  -8   5   6    5.50    4.10
   8   5  -6    0.80    6.00
   7  -5  -6  448.86   32.50
  -7  -5   6  400.16   31.40
   7   5  -6  455.35   32.70
   7   5  -6  454.25   33.00
  -7   5   6  487.45   32.80
  -7   5   6  442.66   31.20
  -6  -5   6    6.90    4.60
   6  -5  -6   -0.20    3.50
   6   5  -6    8.20    5.30
  -6   5   6   15.40    4.10
   6   5  -6    1.70    3.20
  -6   5   6    2.20    4.10
  -5  -5   6 1157.28   74.59
   5  -5  -6 1127.69   73.19
   5  -5  -6 1047.30   73.89
   5   5  -6 1139.89   74.69
   5   5  -6 1029.60   74.59
  -5   5   6 1099.89   74.79
  -5   5   6 1134.79   74.29
   4  -5  -6    9.30    2.90
  -4  -5   6    3.40    3.30
  -4  -5   6    3.10    2.70
   4  -5  -6    3.30    1.30
  -4   5   6    6.30    2.70
   4   5  -6   -0.40    2.40
   4   5  -6    5.60    3.80
  -4   5   6    5.40    1.40
  -3  -5   6 2396.76  152.38
   3  -5  -6 2362.26  151.58
   3  -5  -6 2193.78  150.68
  -3  -5   6 2440.66  151.38
  -3  -5   6 2251.67  151.78
   3   5  -6 2267.87  151.58
  -3   5   6 2247.38  149.99
   3   5  -6 2164.88  151.78
  -3   5   6 2334.37  152.08
   2  -5  -6    5.60    2.00
  -2  -5   6    3.20    2.70
  -2  -5   6    1.30    2.50
  -2  -5   6   -0.50    2.30
  -2  -5   6   -0.20    3.50
   2   5  -6   -3.60    2.80
  -2   5   6    2.70    2.60
   2   5  -6   -1.70    2.50
   2   5  -6   -2.90    3.40
  -2   5   6    1.60    0.70
   1  -5  -6 2399.26  165.48
  -1  -5   6 2634.14  168.68
  -1  -5   6 2574.34  168.28
  -1  -5   6 2709.73  167.18
   1  -5  -6 2668.73  167.28
  -1  -5   6 2511.55  166.78
  -1   5   6 2193.18  165.58
   1   5  -6 2804.62  167.08
  -1   5   6 2522.55  167.98
   1   5  -6 2417.86  167.18
  -1   5   6 2472.05  167.08
   0  -5   6   14.20    4.30
   0  -5   6   13.00    3.90
   0  -5   6   14.20    4.20
   0  -5   6   22.60    4.70
   0  -5  -6   21.60    4.30
   0   5   6   13.60    3.70
   0   5  -6   13.30    3.30
   0   5  -6   20.80    3.50
   0   5  -6   14.90    3.80
   0   5   6   12.60    3.50
   1  -5   6 2426.56  159.58
  -1  -5  -6 2466.15  161.38
   1  -5   6 2339.87  162.18
  -1  -5  -6 2631.44  160.48
   1  -5   6 2593.24  161.08
   1  -5   6 2531.45  161.88
  -1   5  -6 2568.94  161.58
   1   5   6 2205.28  161.88
  -1   5  -6 2057.49  160.38
   1   5   6 2377.16  159.58
  -1   5  -6 2614.94  159.88
   2  -5   6    3.80    2.70
   2  -5   6   -0.90    3.10
  -2  -5  -6    2.50    1.60
  -2  -5  -6    1.10    2.50
   2  -5   6   -2.20    2.80
  -2   5  -6    5.30    3.70
  -2   5  -6    3.40    1.70
   2   5   6    0.20    1.20
   2   5   6    3.30    3.00
   2   5   6   -0.20    2.10
   3  -5   6 1039.90   65.19
  -3  -5  -6  905.81   65.89
   3  -5   6  952.10   66.49
  -3   5  -6  953.90   65.49
   3   5   6  939.91   62.79
   3   5   6  935.61   64.49
  -3   5  -6  881.21   64.19
   3   5   6 1020.70   64.59
   4   5   6   -1.90    2.90
  -4   5  -6    2.70    2.20
   4   5   6   -3.90    2.40
   4   5   6   -1.00    2.80
  -5  -5  -6  502.35   39.90
   5  -5   6  464.25   38.40
  -5   5  -6  565.34   38.10
   5   5   6  513.75   37.00
   5   5   6  537.65   35.30
  -5   5  -6  534.65   36.90
  -6  -5  -6    2.90    7.70
   6   5   6    1.10    1.80
  -6   5  -6    1.60    2.60
   6   5   6   -4.00    2.60
  -6   5  -6    0.70    3.60
  -7  -5  -6  212.38   26.50
   7  -5   6  195.08   18.30
   7   5   6  228.08   18.10
  -7   5  -6  222.98   17.90
  -7   5  -6  225.88   20.20
   7   5   6  224.58   16.10
  -8  -5  -6    2.70   11.50
   8  -5   6    6.70    4.20
   8   5   6    4.60    3.50
   8   5   6    9.90    3.10
  -8   5  -6    0.00    2.10
  -9  -5  -6  110.49   29.70
   9  -5   6   51.89    7.30
  -9   5  -6   58.39   11.70
  11   6  -6   27.50    7.00
  11   6  -6   13.30    5.80
  10  -6  -6   82.89    8.10
  10   6  -6   77.69    8.40
  10   6  -6   79.19    8.00
   9  -6  -6    1.40    3.60
   9   6  -6    7.60    3.90
   9   6  -6   -1.50    2.90
  -9   6   6    5.10    3.60
  -8  -6   6  505.55   36.80
   8  -6  -6  456.75   33.30
   8   6  -6  417.86   33.10
  -8   6   6  441.06   33.30
   8   6  -6  432.86   33.60
  -7  -6   6    4.30    3.60
  -7  -6   6   -1.20    5.70
   7  -6  -6    3.70    4.60
  -7   6   6   -0.40    3.60
   7   6  -6   -1.90    3.70
   7   6  -6    2.50    5.60
  -7   6   6    0.30    2.20
   6  -6  -6  889.01   61.19
  -6  -6   6  845.22   60.89
  -6   6   6  996.20   60.89
  -6   6   6  911.01   61.79
   6   6  -6  830.92   61.59
   6   6  -6  912.81   61.89
   5  -6  -6    2.90    1.50
   5  -6  -6   -1.50    2.30
   5   6  -6   -4.00    2.70
  -5   6   6    0.70    2.10
   5   6  -6   -2.90    3.70
  -5   6   6   -0.40    1.10
  -4  -6   6  502.85   35.20
   4  -6  -6  515.45   34.00
  -4   6   6  495.65   33.10
   4   6  -6  458.85   34.80
   4   6  -6  475.65   34.70
  -4   6   6  506.45   35.00
  -3  -6   6   -2.70    2.50
   3  -6  -6    1.10    3.10
  -3   6   6    1.80    2.00
   3   6  -6   -4.20    3.40
  -3   6   6    0.90    1.00
  -2  -6   6  764.52   52.89
   2  -6  -6  764.02   52.09
  -2  -6   6  788.62   51.89
   2  -6  -6  740.33   50.49
  -2   6   6  749.92   50.19
   2   6  -6  706.23   51.99
  -2   6   6  714.63   52.29
   2   6  -6  860.41   52.59
  -1  -6   6   20.90    5.30
  -1  -6   6   13.60    4.80
  -1  -6   6   17.80    5.30
   1  -6  -6   23.60    5.00
   1  -6  -6   19.80    2.40
   1  -6  -6   23.40    2.70
   1   6  -6   20.40    4.80
  -1   6   6   16.70    3.10
  -1   6   6   22.60    4.80
   0  -6  -6 2492.35  164.48
   0  -6  -6 2807.42  164.78
   0  -6   6 2416.26  165.98
   0  -6   6 2877.91  165.28
   0  -6   6 2213.28  165.68
   0   6   6 2189.08  164.58
   0   6  -6 2353.26  164.58
   0   6  -6 2696.13  163.78
   0   6  -6 2549.24  164.78
   0   6   6 2330.17  165.58
   1  -6   6    2.40    3.80
   1  -6   6    0.00    3.40
  -1  -6  -6    8.40    3.00
   1   6   6   -0.80    2.70
   1   6   6    0.50    2.20
  -1   6  -6    4.70    2.00
  -1   6  -6    5.20    2.10
   2  -6   6 2294.87  173.98
  -2  -6  -6 2864.81  174.48
   2  -6   6 2730.43  175.58
  -2   6  -6 2567.34  173.28
   2   6   6 2558.84  173.48
   2   6   6 2733.53  172.28
   3  -6   6  166.98   16.40
  -3  -6  -6  179.88   15.30
   3   6   6  171.98   14.20
   3   6   6  166.08   12.20
  -3   6  -6  177.18   13.50
  -3   6  -6  173.78   14.10
   4  -6   6  906.81   65.39
  -4  -6  -6  892.41   64.99
   4   6   6  926.61   63.19
  -4   6  -6 1015.20   63.99
   4   6   6  909.11   61.29
  -4   6  -6  920.31   62.99
   4   6   6  897.01   63.39
  -5  -6  -6    8.90    5.50
  -6  -6  -6  200.48   24.20
  -6   6  -6  244.18   18.40
   6   6   6  215.58   15.40
   6   6   6  199.08   17.70
  -6   6  -6  201.28   17.30
  -7  -6  -6    4.70    9.10
  -7   6  -6    7.90    3.80
   7   6   6    3.70    4.10
   7   6   6    5.40    2.70
  -8  -6  -6   79.09   22.70
   8  -6   6   67.29    7.70
  -8   6  -6   54.59    9.40
  -8   6  -6   65.49    7.50
   8   6   6   70.19    7.50
  -9  -6  -6   33.20   19.20
   9   6   6   34.80    8.00
  11   7  -6   53.49    7.90
  11   7  -6   64.19    8.50
  10  -7  -6    6.40    4.90
  10   7  -6   10.20    4.00
  -9  -7   6  189.78   17.90
   9  -7  -6  203.98   16.40
   9   7  -6  215.58   16.90
  -9   7   6  174.38   15.40
   9   7  -6  204.08   17.00
  -8   7   6   27.00    6.30
  -7  -7   6  485.95   39.90
   7  -7  -6  539.05   37.30
   7   7  -6  535.65   38.20
  -7   7   6  532.95   37.00
   7   7  -6  527.45   37.80
  -7   7   6  487.65   35.90
  -6  -7   6   24.90    4.10
   6  -7  -6   20.70    4.70
  -6  -7   6   14.20    7.90
  -6   7   6   19.90    3.50
   6   7  -6   16.90    6.40
  -6   7   6   14.40    2.90
  -6   7   6   15.30    4.20
   5  -7  -6  603.44   41.50
   5  -7  -6  545.55   38.80
  -5  -7   6  541.35   39.50
   5   7  -6  537.55   39.80
  -5   7   6  575.54   37.80
   5   7  -6  555.84   39.90
  -5   7   6  555.44   39.50
  -4  -7   6   -4.60    4.70
  -4  -7   6   -0.40    2.20
   4  -7  -6   -2.70    3.50
   4  -7  -6   -2.00    1.90
   4   7  -6   -3.80    3.60
   4   7  -6   -3.30    2.40
  -4   7   6   -2.20    2.00
  -4   7   6    1.10    1.50
   3  -7  -6  415.96   30.70
   3  -7  -6  390.96   29.20
  -3  -7   6  387.36   29.60
   3   7  -6  385.26   29.20
  -3   7   6  421.06   29.30
   3   7  -6  386.06   29.00
  -3   7   6  409.96   27.10
   2  -7  -6   11.60    3.20
  -2  -7   6    1.90    3.30
   2  -7  -6    5.20    4.00
  -2   7   6    6.90    2.70
   2   7  -6    5.10    2.70
  -2   7   6    5.30    1.50
   1  -7  -6 2098.39  130.79
  -1  -7   6 2010.50  133.79
   1  -7  -6 1914.31  130.39
  -1   7   6 1945.41  133.19
   1   7  -6 2228.98  132.09
   1   7  -6 1865.21  132.19
   1   7  -6 2028.10  132.69
  -1   7   6 1933.01  130.79
  -1   7   6 1904.41  132.39
   0  -7   6   12.00    4.70
   0   7  -6    4.90    2.40
   0   7   6    5.80    3.20
   0   7   6    5.20    2.90
   0   7  -6    7.80    2.80
   1  -7   6 3465.35  232.88
  -1  -7  -6 3805.52  231.18
   1   7   6 3346.37  231.08
   1   7   6 3190.18  232.08
  -1   7  -6 3712.53  231.18
   2  -7   6   20.40    5.80
  -2  -7  -6   25.00    4.40
   2   7   6   24.00    5.10
  -2   7  -6   28.40    5.80
  -3  -7  -6  685.73   48.60
   3  -7   6  665.73   49.99
   3   7   6  687.83   47.90
  -3   7  -6  683.43   47.80
  -3   7  -6  703.63   47.60
  -4   7  -6   24.30    6.10
  -5  -7  -6  167.78   20.20
  -5   7  -6  207.78   16.00
   5   7   6  182.78   16.60
   5   7   6  198.58   14.00
  -5   7  -6  207.28   16.70
  -6  -7  -6   -3.30    5.50
  -6   7  -6   -1.90    1.90
   6   7   6    2.90    2.20
   6   7   6   -0.20    3.20
   7  -7   6  102.39   11.00
  -7  -7  -6  114.09   21.70
  -7   7  -6  105.19   11.00
   7   7   6  114.09   10.60
   8  -7   6    4.70    4.70
  -8  -7  -6    9.20   13.50
  -8   7  -6    3.40    4.60
   9  -7   6   38.50    7.80
  10   8  -6   71.69    8.20
  10   8  -6   75.89    7.80
   9   8  -6   23.90    5.60
   9   8  -6   23.00    5.20
  -8  -8   6  194.18   17.80
   8  -8  -6  178.18   18.10
   8   8  -6  185.48   16.20
   8   8  -6  194.48   16.20
  -8   8   6  172.28   15.00
  -7  -8   6   46.50   11.70
   7  -8  -6   23.90    5.10
   6  -8  -6  617.54   42.70
   6  -8  -6  561.84   40.00
  -6  -8   6  464.55   42.60
   6   8  -6  535.75   40.60
  -6   8   6  605.54   38.60
   6   8  -6  587.74   41.20
  -6   8   6  570.14   40.00
   5  -8  -6    2.00    4.00
  -5  -8   6   -0.60    2.00
  -5  -8   6   -4.20    5.80
   5  -8  -6    4.90    2.60
   5   8  -6   -2.00    4.10
  -5   8   6    1.10    1.00
   5   8  -6   -0.50    5.70
  -5   8   6   -2.00    2.10
  -4  -8   6  570.14   44.30
   4  -8  -6  646.94   42.90
   4  -8  -6  674.73   46.50
  -4   8   6  613.74   43.90
   4   8  -6  604.64   44.40
  -4   8   6  648.24   42.10
   4   8  -6  618.24   44.40
  -3  -8   6   16.40    4.40
   3  -8  -6   10.30    4.60
   3  -8  -6   15.50    3.00
  -3   8   6    8.50    3.40
   3   8  -6   11.20    3.50
   3   8  -6   11.20    5.70
  -2  -8   6 1489.15  107.29
   2  -8  -6 1621.04  104.49
   2  -8  -6 1663.93  108.19
  -2   8   6 1524.05  106.49
   2   8  -6 1543.85  106.29
  -2   8   6 1644.34  104.29
  -1  -8   6   -0.40    4.10
   1  -8  -6    3.60    2.50
   1   8  -6   -3.00    2.00
  -1   8   6    1.60    1.70
  -1   8   6    1.30    2.70
   1   8  -6    1.90    3.60
   0  -8  -6 1314.47   85.09
   0  -8  -6 1264.77   83.39
   0  -8   6 1168.78   87.59
   0   8  -6 1263.17   85.99
   0   8  -6 1405.86   84.69
   0   8   6 1269.87   86.19
   0   8  -6 1277.67   86.19
   0   8   6 1216.08   86.79
   1  -8   6    1.10    4.30
  -1   8  -6    3.10    2.30
  -1   8  -6    5.90    1.70
   1   8   6    0.70    3.10
   1   8   6    0.20    2.60
  -2  -8  -6  824.62   54.19
   2  -8   6  751.62   56.29
   2   8   6  730.53   53.99
  -2   8  -6  804.22   54.09
   3  -8   6   -0.50    4.20
  -3  -8  -6    0.60    3.10
  -3   8  -6    3.10    2.50
  -4  -8  -6  482.85   37.50
  -4   8  -6  521.35   34.80
  -4   8  -6  480.65   35.70
   4   8   6  480.95   36.10
  -5  -8  -6   -0.30    6.00
   5   8   6    6.80    3.40
  -5   8  -6    2.30    2.10
   6  -8   6  123.49   14.70
  -6  -8  -6  159.78   20.60
  -6   8  -6  155.48   13.40
   6   8   6  177.78   16.90
  -6   8  -6  146.89   13.80
   7  -8   6    6.70    4.30
  -7  -8  -6   17.20   10.90
  -7   8  -6    2.00    2.20
   8  -8   6   72.29    8.50
  -8   8  -6   75.49    8.40
  10   9  -6   56.29    8.20
  10   9  -6   42.60    7.80
   9   9  -6  101.29    9.70
   9   9  -6  107.69    9.70
  -8  -9   6    2.90    5.30
   8  -9  -6    0.60    4.20
   8   9  -6    1.10    3.30
  -8   9   6   -4.20    4.70
   8   9  -6    1.50    4.20
   7  -9  -6  172.08   13.80
  -7   9   6  132.19   12.60
  -7   9   6  167.48   12.80
   7   9  -6  137.49   18.90
   7   9  -6  156.18   14.80
   6  -9  -6   -0.10    3.50
   6   9  -6   -4.30    6.00
  -5  -9   6  581.44   51.49
   5  -9  -6  718.53   48.10
  -5  -9   6  617.54   48.60
   5  -9  -6  746.13   51.89
  -5   9   6  771.92   47.00
   5   9  -6  664.93   49.30
  -5   9   6  739.83   48.80
   5   9  -6  708.13   49.80
  -4  -9   6   10.80    7.00
   4  -9  -6   -1.60    4.60
  -4  -9   6    0.80    2.60
   4  -9  -6    1.90    2.10
   4   9  -6    2.50    4.10
   4   9  -6   -2.60    5.70
  -4   9   6    2.20    1.00
  -3  -9   6 1209.38   89.99
   3  -9  -6 1403.76   87.69
   3  -9  -6 1332.87   91.69
   3   9  -6 1309.37   89.49
  -3   9   6 1411.16   87.09
  -3   9   6 1211.78   88.99
   2  -9  -6   -3.70    4.80
   2  -9  -6    0.00    4.00
  -1  -9   6 1144.89   89.99
   1  -9  -6 1352.56   90.79
   1  -9  -6 1412.26   86.39
   1   9  -6 1406.66   89.09
  -1   9   6 1258.67   89.09
  -1   9   6 1322.37   87.29
  -1   9   6 1278.57   88.69
   1   9  -6 1321.07   87.99
   1   9  -6 1267.17   88.39
   0  -9   6   -0.70    5.00
   0   9  -6    2.40    2.50
   0   9  -6   -0.50    2.80
   0   9  -6    0.20    2.50
   0   9   6    3.90    3.20
  -1  -9  -6  412.36   28.10
   1  -9   6  368.26   31.50
  -1  -9  -6  407.26   25.90
  -1   9  -6  389.36   29.30
   1   9   6  399.16   30.50
  -1   9  -6  379.26   26.10
   1   9   6  377.56   29.20
  -2  -9  -6   -1.90    2.20
  -2   9  -6   -1.70    2.30
   3  -9   6  270.97   25.60
  -3  -9  -6  306.97   24.50
  -3   9  -6  317.57   23.80
   3   9   6  301.77   23.90
   4  -9   6   -1.00    3.80
   4  -9   6    9.00    3.10
  -4  -9  -6    3.70    4.70
  -4   9  -6    0.40    2.50
   4   9   6    2.40    3.20
  -5  -9  -6  352.36   31.10
   5  -9   6  287.27   28.10
  -5   9  -6  358.06   26.50
   5   9   6  375.86   27.20
   6  -9   6   -1.50    4.30
  -6  -9  -6    6.10    8.20
   6   9   6    4.70    3.20
  -6   9  -6    2.90    2.20
   7  -9   6  127.59   11.50
  -7  -9  -6  138.49   23.00
   7  -9   6  113.99   13.40
  -7   9  -6  117.99   11.60
   9  10  -6   25.40    7.40
   9  10  -6   42.60    6.70
  -8 -10   6   71.69   10.90
   8  10  -6   89.99    8.90
   8  10  -6   94.89    9.20
   7 -10  -6    9.00    4.20
  -7 -10   6   11.10    6.20
   7  10  -6    9.30    4.10
  -6 -10   6  325.27   32.00
  -6 -10   6  336.67   23.70
   6 -10  -6  312.87   23.60
   6 -10  -6  301.07   26.60
  -6  10   6  320.77   22.20
  -6  10   6  277.47   23.10
   6  10  -6  303.87   24.90
   5 -10  -6    9.60    3.50
  -5  10   6   15.40    2.90
   5  10  -6   12.50    4.90
  -4 -10   6  642.64   54.49
   4 -10  -6  796.42   53.09
   4 -10  -6  841.72   57.99
  -4  10   6  817.92   52.19
   4  10  -6  763.62   54.99
  -4  10   6  788.22   53.99
  -3 -10   6   -0.50    4.60
   3 -10  -6    0.30    2.10
  -3 -10   6   -1.50    6.30
   3 -10  -6   -6.00    4.70
   3  10  -6    1.10    4.20
  -3  10   6    0.80    0.90
   2 -10  -6 1278.57   79.49
   2 -10  -6 1165.98   83.99
  -2 -10   6 1013.40   82.59
  -2  10   6 1248.78   81.79
   2  10  -6 1160.38   81.59
  -2  10   6 1267.17   79.29
   1 -10  -6   88.19   13.80
  -1 -10   6   94.89   13.20
  -1  10   6  104.29    8.10
  -1  10   6   86.69   10.80
   1  10  -6  113.89   11.10
  -1  10   6   93.39   10.60
   1  10  -6   98.59   11.00
   0  10  -6  255.97   21.60
   0  10  -6  278.47   22.40
   0  10   6  292.17   22.90
   0  10   6  270.17   21.80
   1 -10   6    0.10    4.30
  -1 -10  -6    3.40    2.40
   1 -10   6    2.40    3.90
   1  10   6    4.20    3.90
  -1  10  -6   -0.20    2.40
   1  10   6    7.50    3.60
   2 -10   6  223.58   23.60
   2 -10   6  220.08   21.60
  -2 -10  -6  318.77   21.20
   2  10   6  294.27   22.50
  -2  10  -6  284.17   21.90
   3 -10   6    6.60    3.20
  -3 -10  -6    5.40    4.00
   3 -10   6   -1.60    4.40
  -3  10  -6    1.50    2.90
   3  10   6    2.00    3.50
  -4 -10  -6  455.75   36.60
   4  10   6  481.25   35.30
  -4  10  -6  464.55   35.20
   5 -10   6   -5.30    4.00
  -5 -10  -6    0.10    5.80
  -5  10  -6    2.60    2.40
  -6 -10  -6  125.79   20.30
   6 -10   6  132.59   14.10
  -6  10  -6  132.99   12.30
   7  10   6   44.50    8.10
   9  11  -6   90.79    9.80
   9  11  -6   97.69   10.20
   8  11  -6   33.30    7.50
   7 -11  -6   93.49   13.10
   7 -11  -6  101.29   10.40
   7  11  -6  131.09   11.40
   7  11  -6  127.69   11.40
  -7  11   6  105.69   10.00
  -5 -11   6  420.56   33.90
   5 -11  -6  358.36   27.40
   5 -11  -6  345.17   33.70
  -5 -11   6  355.56   28.80
  -5  11   6  364.36   27.70
  -5  11   6  384.86   26.10
   5  11  -6  366.26   29.00
  -4 -11   6   29.90    9.50
   3 -11  -6  728.53   46.50
  -3 -11   6  604.34   49.20
   3 -11  -6  668.13   51.69
  -3 -11   6  609.94   51.09
   3  11  -6  704.03   49.00
  -3  11   6  716.73   45.90
  -3  11   6  688.93   48.30
  -2 -11   6    4.40    6.10
   2  11  -6   -4.80    3.30
  -2  11   6   -2.20    2.90
   1 -11  -6  482.45   40.50
  -1 -11   6  441.46   39.80
  -1  11   6  531.55   38.70
   1  11  -6  553.44   38.80
  -1  11   6  556.64   35.80
  -1  11   6  520.85   38.50
   1  11  -6  552.34   38.10
   0 -11   6    1.10    4.20
   0 -11   6    0.90    4.70
   0  11   6    7.40    4.20
   0  11  -6    4.90    3.00
   0  11  -6   -2.10    3.50
   0  11   6   14.70    3.90
   1 -11   6  202.78   22.30
  -1 -11  -6  257.37   19.10
   1 -11   6  216.58   21.30
  -1  11  -6  249.28   20.30
   1  11   6  281.07   21.30
   1  11   6  253.57   20.40
   2 -11   6    0.20    3.80
   2 -11   6    2.90    4.40
   2  11   6   -0.60    3.20
   2  11   6    9.40    3.50
   3 -11   6  228.28   25.60
  -3 -11  -6  302.97   23.10
  -3  11  -6  240.98   21.80
   3  11   6  291.97   22.80
   4 -11   6    3.20    4.20
  -4 -11  -6   -5.00    5.20
   4  11   6    1.90    4.10
  -5 -11  -6  346.87   29.20
   5 -11   6  302.37   26.40
  -5  11  -6  277.17   24.20
   5  11   6  324.07   24.60
   8  12  -6  117.89   10.60
   8  12  -6  125.59   11.70
   7  12  -6   14.00    5.20
   6 -12  -6  125.69   16.20
   6 -12  -6  154.58   14.00
  -6  12   6  147.39   12.50
   6  12  -6  172.78   14.30
  -5 -12   6   39.30    9.40
  -4 -12   6  254.27   20.80
   4 -12  -6  228.88   17.70
  -4 -12   6  261.87   23.60
   4 -12  -6  200.88   22.00
  -4  12   6  208.98   16.80
  -4  12   6  233.68   18.70
   4  12  -6  214.18   24.30
  -3 -12   6    6.50    4.20
  -3 -12   6   11.90   10.70
   3 -12  -6    1.50    3.10
   3  12  -6    6.60    4.10
  -2 -12   6  271.37   24.50
   2 -12  -6  214.38   23.50
  -2 -12   6  227.48   23.10
   2  12  -6  267.77   21.90
  -2  12   6  275.97   18.50
  -2  12   6  260.67   20.50
   2  12  -6  259.27   21.10
  -1 -12   6   10.30    6.70
  -1 -12   6    7.60    5.30
   1  12  -6   -1.50    2.30
  -1  12   6   -2.20    2.90
   0 -12   6  472.05   38.50
   0  12   6  526.35   33.60
   0  12  -6  464.55   35.60
   0  12   6  464.75   36.10
   0  12   6  480.45   36.40
   0  12  -6  479.05   36.60
   1 -12   6    2.20    6.40
   1 -12   6    6.60    5.60
   1  12   6   -0.50    3.70
  -1  12  -6   -2.30    3.80
   1  12   6    5.00    3.20
   2 -12   6  437.56   38.50
  -2  12  -6  494.15   36.40
   2  12   6  513.95   36.80
   2  12   6  512.25   37.40
   3 -12   6    6.00    4.60
   3 -12   6    6.40    4.40
   3  12   6    4.70    3.60
   4 -12   6  152.98   17.10
   4  12   6  181.68   15.40
   6 -12   6   33.70    6.70
   7  13  -6  169.18   14.10
   6  13  -6   30.10    7.50
   5 -13  -6  105.29   11.30
  -5 -13   6  137.29   12.40
  -5 -13   6  137.39   15.40
   5  13  -6  131.79   11.90
   4 -13  -6    3.60    4.40
  -4 -13   6   11.10    6.00
   3 -13  -6   90.89    8.00
  -3  13   6   76.69    8.90
  -3  13   6   69.89    7.90
   3  13  -6   86.99    9.80
  -2 -13   6   11.10    5.70
  -2 -13   6   29.40    9.00
  -1 -13   6  289.37   26.80
   1 -13  -6  272.87   27.70
  -1 -13   6  378.36   28.80
  -1  13   6  329.87   23.10
   1  13  -6  311.17   32.10
  -1  13   6  359.66   25.60
   1  13  -6  310.67   25.00
   0 -13   6   14.40    4.90
   0 -13   6   17.70   12.20
   0  13   6    8.90    4.40
   0  13  -6   11.10    3.20
   1 -13   6  623.74   42.60
   1 -13   6  451.75   41.40
   1  13   6  515.85   39.30
   1  13   6  541.15   39.60
  -1  13  -6  542.05   39.40
   2 -13   6    2.50    4.30
   2  13   6    9.90    3.40
   3 -13   6  262.57   23.90
  -3  13  -6  225.88   21.10
   3  13   6  274.27   21.70
   3  13   6  281.87   21.50
   4  13   6   26.30    6.70
   5 -13   6   68.59   11.40
   6  14  -6  105.29   10.50
  -5 -14   6   12.30    6.50
   5  14  -6    8.30    4.60
  -4 -14   6  130.49   13.70
  -4 -14   6  156.68   15.60
   4  14  -6  129.49   12.30
  -3 -14   6   16.70    6.20
   3  14  -6    8.50    3.70
  -2 -14   6  181.18   17.90
  -2 -14   6  189.18   16.40
   2  14  -6  163.18   14.90
   2  14  -6  175.88   15.00
  -2  14   6  140.39   14.90
   0 -14   6  358.36   31.30
   0 -14   6  430.06   32.00
   0  14   6  396.26   29.70
   0  14   6  359.66   28.50
   0  14  -6  366.36   28.80
   0  14   6  366.16   27.00
   1 -14   6   41.60    9.00
   1  14   6   38.50    5.70
   2 -14   6  299.77   24.10
   2  14   6  230.08   20.40
   2  14   6  245.98   20.60
  -2  14  -6  242.58   20.70
   3 -14   6    7.50    5.30
   3  14   6    8.40    4.30
   4  14   6   31.40    8.00
   5  15  -6   90.89   10.00
  -4 -15   6    5.40    7.00
   4  15  -6    8.80    4.40
  -3 -15   6  182.88   16.20
  -3 -15   6  189.18   17.30
   3  15  -6  162.98   14.90
   3  15  -6  163.88   14.30
  -2 -15   6   30.90    8.30
  -2 -15   6   21.00    7.50
   1 -15  -6  200.78   22.60
  -1 -15   6  287.37   22.50
  -1  15   6  222.48   19.30
   1  15  -6  261.87   20.00
   1  15  -6  262.17   20.30
   0 -15   6   14.70    6.30
   0 -15   6   10.50    5.20
  -1  15  -6   51.89    7.60
   1  15   6   66.79    8.10
   2 -15   6    5.30    5.40
   2  15   6    1.00    4.30
   3  15   6   48.00    8.50
  -3  15  -6   48.70    8.00
  -3 -16   6   -1.00    5.90
   3  16  -6    5.60    4.60
   3  16  -6    1.70    2.90
  -2 -16   6   96.39   12.60
   2  16  -6  124.29   11.20
   2  16  -6  130.19   11.00
  -1 -16   6    6.40    5.80
   1  16  -6    5.30    3.00
   0 -16   6  108.69   12.10
   0  16  -6   84.29    9.50
   0  16   6   76.99    9.50
   1 -16   6    9.10    6.10
   1  16   6   -6.90    4.60
  -2  16  -6    7.80    5.40
  12   0  -7   10.70    7.60
  12   0  -7    1.10    4.50
  11   0  -7   62.19    7.30
  11   0  -7   69.89    7.40
  10   0  -7    2.90    2.80
  10   0  -7    6.80    3.80
   9   0  -7  312.87   23.10
   9   0  -7  277.57   22.70
  -9   0   7  267.37   21.60
   8   0  -7    2.00    4.90
   8   0  -7    0.80    4.20
  -8   0   7    4.10    4.30
  -7   0   7  635.94   47.30
  -7   0   7  609.34   46.50
   7   0  -7  723.43   46.50
   7   0  -7  672.43   46.50
  -7   0   7  702.83   47.20
  -6   0   7    1.10    2.90
  -6   0   7   -1.30    3.70
   6   0  -7   -2.40    3.30
   5   0  -7  883.51   64.99
   5   0  -7 1005.50   64.29
  -5   0   7  893.31   65.69
  -5   0   7  974.90   65.79
  -5   0   7 1074.79   65.59
   5   0  -7  981.70   64.79
  -4   0   7    1.70    2.40
   4   0  -7   -2.30    2.00
  -4   0   7   -2.00    3.10
  -3   0   7 1939.11  142.09
   3   0  -7 2413.86  143.99
   3   0  -7 2142.59  140.99
   3   0  -7 2038.00  141.49
  -3   0   7 2321.77  141.49
  -3   0   7 2069.09  142.49
   2   0  -7    1.40    2.30
  -2   0   7    1.30    2.10
  -2   0   7   -1.90    2.70
   2   0  -7   -0.70    2.60
  -2   0   7    0.10    2.20
  -1   0   7 4746.23  329.07
  -1   0   7 4540.75  329.47
   1   0  -7 5694.33  329.47
  -1   0   7 5129.99  328.27
   0   0  -7    1.50    2.30
   0   0   7   -2.80    2.70
   0   0  -7    0.80    1.00
   0   0   7    2.20    2.90
   0   0   7   -2.20    2.00
   1   0   7 3164.78  224.08
  -1   0  -7 3339.77  222.88
   1   0   7 3685.03  223.48
   1   0   7 3161.48  223.88
   1   0   7 3232.58  222.58
   1   0   7 3876.01  223.18
   2   0   7   -1.50    1.20
  -2   0  -7   -0.30    1.30
   2   0   7   -1.60    1.90
   2   0   7   -1.50    2.70
   2   0   7   -1.10    2.10
   3   0   7  844.52   57.49
  -3   0  -7  856.11   56.89
   3   0   7  822.12   57.69
  -3   0  -7  880.61   59.69
   4   0   7   -2.10    2.40
   4   0   7    0.00    1.60
  -4   0  -7   -2.10    1.70
   4   0   7   -2.10    2.30
   4   0   7   -1.60    1.70
   5   0   7  209.58   16.60
  -5   0  -7  199.48   20.20
   5   0   7  205.98   16.40
   5   0   7  219.08   16.20
   5   0   7  219.18   16.20
   5   0   7  221.98   16.60
   6   0   7    0.00    3.00
  -6   0  -7   -2.80    6.10
  -7   0  -7  263.97   27.90
   7   0   7  279.67   21.90
   7   0   7  284.07   20.80
  -8   0  -7    9.40   10.30
   8   0   7   17.00    4.60
   9   0   7   96.79    8.70
   9   0   7   73.69    8.10
  -9   0  -7  125.79   26.00
  12  -1  -7   47.80   12.10
  12  -1  -7   48.80    7.80
  12   1  -7   39.70    7.80
  11  -1  -7    5.90    4.40
  11  -1  -7    2.40    3.50
  10  -1  -7  185.38   16.00
  10  -1  -7  180.38   15.70
  10   1  -7  194.18   16.10
  10   1  -7  190.18   16.00
  -9  -1   7    0.30    4.40
   9  -1  -7    8.00    4.30
   9  -1  -7   -5.20    3.70
  -9   1   7    6.60    4.20
   9   1  -7    0.60    5.60
   9   1  -7   -2.80    3.90
   8  -1  -7  369.96   27.40
  -8  -1   7  337.67   28.20
   8  -1  -7  401.16   27.80
  -8   1   7  361.06   28.50
   8   1  -7  369.06   27.70
   8   1  -7  354.16   27.60
  -7  -1   7   -2.30    3.80
  -7  -1   7    0.40    4.70
   7  -1  -7    6.00    4.40
   7   1  -7   -4.00    2.90
   7   1  -7   -0.60    5.00
  -7   1   7    0.70    3.50
  -7   1   7   -0.50    2.10
  -6  -1   7  795.72   57.19
   6  -1  -7  814.62   56.09
  -6  -1   7  867.71   57.39
  -6  -1   7  932.81   56.39
   6  -1  -7  783.62   55.09
  -6   1   7  782.02   56.99
   6   1  -7  773.42   56.19
   6   1  -7  862.71   56.19
  -6   1   7  827.72   56.49
   5  -1  -7   18.00    3.50
   5  -1  -7   23.20    4.40
  -5  -1   7   27.20    5.90
  -5  -1   7   22.40    5.50
  -5   1   7   22.10    5.50
   5   1  -7   17.90    4.60
   5   1  -7   25.60    4.60
  -5   1   7   18.30    5.20
   4  -1  -7  751.02   46.40
  -4  -1   7  664.73   48.20
  -4  -1   7  671.43   48.10
   4  -1  -7  688.33   47.20
  -4   1   7  746.23   48.10
   4   1  -7  609.84   47.20
   4   1  -7  808.82   49.40
  -4   1   7  761.52   47.30
  -4   1   7  654.93   47.90
  -4   1   7  673.63   48.00
   4   1  -7  683.23   47.00
   3  -1  -7    5.40    2.80
  -3  -1   7    5.40    3.40
  -3  -1   7    9.30    3.00
  -3  -1   7    6.70    2.70
  -3   1   7    7.20    2.70
  -3   1   7    4.50    3.00
   3   1  -7    4.90    1.80
   3   1  -7    7.20    3.10
  -3   1   7    5.80    2.50
   3   1  -7    5.60    3.90
   2  -1  -7 3341.87  238.68
  -2  -1   7 3370.86  239.38
   2  -1  -7 4013.30  239.88
  -2  -1   7 3338.07  239.88
   2  -1  -7 3705.83  238.28
  -2  -1   7 3887.61  238.98
  -2   1   7 3941.11  238.58
   2   1  -7 4107.29  239.88
  -2   1   7 3592.14  239.68
   2   1  -7 3502.35  239.18
  -2   1   7 3323.17  239.78
   2   1  -7 3682.03  238.28
  -1  -1   7   53.49    6.80
   1  -1  -7   60.49    4.50
  -1  -1   7   65.29    5.90
   1  -1  -7   65.99    6.90
   1   1  -7   56.99    6.30
  -1   1   7   51.99    6.70
   1   1  -7   65.99    5.40
  -1   1   7   65.89    6.40
  -1   1   7   71.19    5.10
   0  -1   7 3848.21  265.07
   0  -1   7 4259.97  265.07
   0  -1   7 3751.92  265.67
   0   1   7 3965.50  265.57
   0   1   7 4131.09  264.27
   0   1  -7 4164.68  264.57
   0   1   7 4216.58  264.37
   1  -1   7   24.90    4.90
   1  -1   7   22.50    4.70
   1  -1   7   25.50    4.10
  -1  -1  -7   23.10    3.60
   1  -1   7   23.80    5.20
   1   1   7   29.70    4.50
   1   1   7   23.60    3.40
   1   1   7   27.50    3.60
   1   1   7   23.30    3.30
   2  -1   7 2281.67  153.68
   2  -1   7 2486.15  152.98
  -2  -1  -7 2232.58  153.28
   2  -1   7 2210.68  153.08
  -2   1  -7 2382.86  152.88
   2   1   7 2309.77  153.78
   2   1   7 2496.25  152.78
   2   1   7 2217.88  152.58
   3  -1   7   33.20    5.70
   3  -1   7   31.50    4.60
   3  -1   7   31.80    5.10
  -3  -1  -7   25.50    5.00
  -3   1  -7   34.90    4.40
   3   1   7   32.40    4.80
  -3   1  -7   28.20    4.50
   3   1   7   31.80    4.90
   3   1   7   28.20    4.80
   4  -1   7  891.51   60.99
   4  -1   7  922.11   61.29
   4  -1   7  941.01   62.19
  -4   1  -7  922.71   60.99
   4   1   7  934.61   60.99
   4   1   7  952.30   60.59
  -4   1  -7  766.82   65.19
   5  -1   7   27.80    4.70
   5  -1   7   27.10    3.90
  -5  -1  -7   22.90    7.30
   5  -1   7   24.40    4.10
   5  -1   7   29.50    3.70
  -5   1  -7   16.70    5.30
   5   1   7   22.90    5.00
   5   1   7   27.70    4.20
   5   1   7   31.60    4.00
  -5   1  -7   24.70    6.40
   6  -1   7  280.07   22.10
  -6  -1  -7  252.67   27.50
   6  -1   7  280.87   21.20
   6  -1   7  291.87   20.50
   6  -1   7  296.57   21.60
   6  -1   7  293.57   20.30
  -6   1  -7  250.67   26.10
   6   1   7  289.87   20.60
   6   1   7  280.17   20.70
   6   1   7  268.67   21.80
   6   1   7  292.87   20.70
   7  -1   7    7.10    3.50
   7  -1   7    1.80    2.40
  -7  -1  -7    0.30    7.00
   7  -1   7   -2.80    3.10
   7  -1   7    2.30    3.60
   7   1   7    2.60    3.10
  -7   1  -7   -0.30    6.30
   7   1   7   -4.70    2.90
   7   1   7   -0.60    2.20
  -8  -1  -7  161.58   26.80
   8  -1   7  175.68   14.10
   8  -1   7  171.68   13.40
   8   1   7  170.28   14.00
   8   1   7  167.78   13.60
  -8   1  -7  160.58   24.30
  -9  -1  -7   12.40   13.80
   9  -1   7    9.60    3.90
  -9   1  -7    9.80   11.10
   9   1   7   22.60    6.10
  11  -2  -7   54.39    6.80
  11  -2  -7   52.29    6.20
  11   2  -7   47.40    6.20
  11   2  -7   47.40    6.60
  10  -2  -7    8.70    3.70
  10   2  -7    7.70    3.70
  -9  -2   7  195.78   16.90
   9  -2  -7  215.18   17.90
   9   2  -7  212.28   18.00
  -9   2   7  228.28   18.30
   9   2  -7  181.28   21.20
  -8  -2   7   15.50    4.90
   8  -2  -7    5.90    4.90
  -8   2   7    6.30    4.20
   8   2  -7   -2.00    4.10
   8   2  -7    2.70    5.60
   7  -2  -7  686.83   47.90
  -7  -2   7  707.93   47.50
  -7  -2   7  643.44   48.80
   7   2  -7  764.92   48.20
  -7   2   7  670.03   48.80
  -7   2   7  729.13   47.80
   7   2  -7  638.34   48.00
   6  -2  -7    1.20    3.50
  -6  -2   7    5.70    4.50
  -6  -2   7    8.80    4.40
   6  -2  -7   -1.30    1.50
  -6   2   7    5.00    3.70
  -6   2   7    0.60    2.60
   6   2  -7    0.50    4.10
   6   2  -7   -3.70    2.40
  -5  -2   7 1849.71  125.69
   5  -2  -7 2028.50  123.39
   5  -2  -7 1904.71  124.29
  -5  -2   7 1821.62  125.39
  -5   2   7 1748.13  125.09
  -5   2   7 1906.41  124.79
   5   2  -7 1822.02  124.49
   5   2  -7 1955.20  124.29
  -4  -2   7    9.50    3.30
   4  -2  -7    6.90    3.20
  -4  -2   7   11.50    4.20
   4  -2  -7   10.10    2.50
  -4   2   7   18.50    4.10
   4   2  -7   15.30    3.90
   4   2  -7   11.30    2.90
  -4   2   7   11.40    3.60
  -3  -2   7 2492.65  145.89
   3  -2  -7 2091.49  145.29
   3  -2  -7 2039.10  144.39
   3  -2  -7 2456.95  145.29
  -3  -2   7 2145.09  146.79
  -3  -2   7 2167.58  146.19
   3   2  -7 2162.78  145.29
  -3   2   7 2213.38  146.49
  -3   2   7 2033.00  146.29
   3   2  -7 2173.08  145.89
  -3   2   7 2374.76  145.29
   2  -2  -7   93.39    8.80
  -2  -2   7   92.49    9.40
   2  -2  -7   91.89    7.60
  -2  -2   7   88.79    8.60
  -2  -2   7  105.69    8.40
  -2   2   7  100.49    8.90
   2   2  -7  102.99    8.90
   2   2  -7   90.59    7.70
   2   2  -7   90.19    8.60
   2   2  -7  105.79    9.50
  -2   2   7  110.19    7.40
  -1  -2   7 2517.85  162.68
  -1  -2   7 2201.38  163.88
  -1  -2   7 2296.27  164.58
   1  -2  -7 2590.84  162.68
   1  -2  -7 2741.43  164.58
  -1  -2   7 2586.24  163.78
  -1   2   7 2362.86  164.38
   1   2  -7 2827.32  164.18
   1   2  -7 2463.35  163.38
  -1   2   7 2333.37  162.78
   0  -2   7  115.89    9.50
   0  -2   7  107.09    9.20
   0  -2   7  110.19    8.20
   0  -2   7  104.99    9.80
   0   2  -7  106.69    8.70
   0   2   7  100.69    8.10
   0   2  -7  125.29    9.50
   0   2   7  109.49    9.70
   0   2   7  114.59    7.60
   1  -2   7 2207.68  133.19
   1  -2   7 1896.91  133.29
   1  -2   7 1985.00  134.19
   1  -2   7 2026.60  134.09
   1  -2   7 2237.18  133.59
   1   2   7 2143.79  132.89
   1   2   7 1852.31  132.99
  -1   2  -7 2039.50  133.29
   1   2   7 1913.91  132.39
   1   2   7 1971.70  132.49
   1   2   7 2030.30  134.39
   2  -2   7  184.98   14.50
   2  -2   7  187.98   15.20
  -2  -2  -7  202.08   16.00
   2  -2   7  209.88   16.10
  -2   2  -7  213.68   14.60
   2   2   7  178.28   15.50
   2   2   7  191.28   14.50
   2   2   7  205.38   14.20
   2   2   7  203.18   13.70
   3  -2   7 1039.30   68.39
   3  -2   7 1092.69   70.19
  -3  -2  -7 1020.10   72.29
   3  -2   7  995.70   69.09
   3   2   7 1040.60   67.89
  -3   2  -7 1027.10   68.59
   3   2   7 1010.40   68.49
  -3   2  -7 1045.30   71.09
   3   2   7  972.10   69.79
   4  -2   7  140.19   11.80
   4  -2   7  130.99   12.80
   4  -2   7  151.18   12.90
  -4   2  -7  144.29   12.00
   4   2   7  153.08   11.00
   4   2   7  140.19   11.60
  -4   2  -7  140.69   13.20
   5  -2   7  786.42   55.59
   5  -2   7  815.62   54.89
  -5  -2  -7  776.92   59.09
   5  -2   7  840.02   56.99
   5  -2   7  860.41   55.39
   5   2   7  785.82   55.59
   5   2   7  827.52   54.79
  -5   2  -7  806.22   58.79
  -5   2  -7  812.22   55.79
   5   2   7  851.31   55.69
   6  -2   7    5.40    2.50
   6  -2   7    9.80    2.80
  -6  -2  -7    0.60    7.90
   6  -2   7    7.40    4.70
  -6   2  -7    7.50    2.90
  -6   2  -7    5.30    5.10
   6   2   7    1.10    3.50
   6   2   7    1.90    2.30
   6   2   7    6.10    2.60
   7  -2   7  199.58   17.10
  -7  -2  -7  197.58   25.10
   7  -2   7  209.48   16.80
   7   2   7  196.98   17.10
  -7   2  -7  194.28   22.40
   7   2   7  196.28   15.40
   7   2   7  211.78   15.80
   8  -2   7   -3.20    2.90
  -8  -2  -7   -1.40   10.70
   8  -2   7    5.90    3.40
  -8   2  -7   -0.80    7.40
   8   2   7   -0.60    3.50
  -9  -2  -7   97.29   28.40
   9  -2   7   58.79    7.60
   9  -2   7   52.59    6.80
  -9   2  -7   70.89   20.30
   9   2   7   51.49    9.20
   9   2   7   65.59    7.30
  11  -3  -7    0.50    4.70
  11  -3  -7   -2.50    3.80
  11   3  -7    4.00    3.50
  11   3  -7    6.10    4.40
  10  -3  -7  103.29    9.60
  10   3  -7   94.29    9.60
  10   3  -7   95.49    9.80
   9   3  -7    3.40    4.10
  -8  -3   7  234.98   18.30
   8  -3  -7  238.38   19.70
  -8   3   7  241.38   19.50
   8   3  -7  257.07   20.00
   8   3  -7  247.98   20.10
  -8   3   7  248.38   20.30
  -7  -3   7    5.30    4.80
  -7  -3   7    6.50    2.20
   7  -3  -7   10.60    5.10
  -7   3   7    2.30    2.60
   7   3  -7   11.00    5.50
   7   3  -7    1.70    3.20
  -7   3   7    7.80    3.70
   6  -3  -7 1385.16   89.29
   6  -3  -7 1343.07   90.39
  -6  -3   7 1243.48   91.39
   6   3  -7 1438.96   90.59
  -6   3   7 1416.96   90.49
   6   3  -7 1314.07   90.59
  -6   3   7 1316.57   91.19
  -5  -3   7    8.00    4.30
   5  -3  -7    5.80    3.30
  -5  -3   7    3.00    4.30
   5   3  -7    1.90    2.50
   5   3  -7    5.50    3.80
  -5   3   7    2.30    2.90
   4  -3  -7 2919.41  197.48
  -4  -3   7 3026.00  199.48
  -4  -3   7 2909.01  198.58
   4  -3  -7 3324.47  197.88
   4  -3  -7 3301.27  196.68
   4   3  -7 2860.91  199.18
  -4   3   7 2870.01  198.28
  -4   3   7 2868.21  198.48
  -3  -3   7    2.10    2.80
   3  -3  -7    3.80    2.60
  -3  -3   7    1.60    3.60
   3  -3  -7    5.20    1.90
  -3   3   7    3.60    2.70
   3   3  -7   -0.20    2.40
   3   3  -7    3.40    3.20
   2  -3  -7 1521.65  109.19
  -2  -3   7 1769.02  110.29
  -2  -3   7 1572.24  111.19
  -2  -3   7 1646.84  110.29
   2  -3  -7 1648.04  109.79
  -2  -3   7 1770.02  109.39
   2   3  -7 1664.63  110.59
   2   3  -7 1859.41  110.69
  -2   3   7 1662.63  110.89
   2   3  -7 1544.25  109.79
  -1  -3   7   -1.60    2.50
  -1  -3   7   -2.20    2.90
   1  -3  -7    0.10    1.20
  -1  -3   7   -3.40    2.90
  -1  -3   7   -1.10    1.30
   1   3  -7    0.80    1.40
   1   3  -7    1.70    2.10
   1   3  -7   -0.40    1.60
  -1   3   7    1.00    2.20
   0  -3   7  641.74   43.00
   0  -3   7  569.04   44.00
   0  -3  -7  690.43   42.50
   0  -3   7  640.74   43.10
   0  -3   7  647.64   43.90
   0   3  -7  681.83   44.60
   0   3   7  620.24   44.20
   0   3   7  717.13   45.70
   0   3  -7  682.93   43.40
   0   3   7  650.83   42.10
   0   3   7  547.45   42.80
   0   3  -7  594.74   43.00
   1  -3   7   92.69    9.20
   1  -3   7  102.59   10.00
   1  -3   7  111.09    8.40
   1  -3   7   97.89    9.70
   1  -3   7   92.89    8.30
   1   3   7   91.99    9.40
  -1   3  -7  102.79    8.20
   1   3   7  105.49    7.50
   1   3   7   88.59    8.40
   2  -3   7 1188.48   72.29
  -2  -3  -7 1121.59   74.19
   2  -3   7 1066.69   71.69
   2  -3   7 1108.59   73.89
   2  -3   7 1075.69   72.89
  -2   3  -7 1099.39   72.19
   2   3   7 1044.50   70.99
   2   3   7  996.60   72.09
   2   3   7 1166.48   71.69
   2   3   7  968.70   73.39
   3  -3   7   42.70    6.30
   3  -3   7   55.09    5.50
   3  -3   7   53.99    7.60
   3  -3   7   48.90    6.40
   3   3   7   48.00    4.90
   3   3   7   54.29    7.20
   3   3   7   43.30    5.60
  -3   3  -7   51.09    6.10
  -4  -3  -7 2068.29  148.69
   4  -3   7 2268.57  145.59
   4  -3   7 2138.19  142.59
   4  -3   7 2235.58  143.79
  -4   3  -7 2126.29  143.59
   4   3   7 2111.79  142.69
  -4   3  -7 2136.89  146.29
   4   3   7 2356.56  143.69
   4   3   7 2104.69  143.59
   5  -3   7   -2.70    2.50
   5  -3   7   -1.20    2.20
  -5  -3  -7   -2.30    4.60
   5   3   7    1.70    1.70
   5   3   7    2.00    2.60
  -5   3  -7    3.30    2.50
   6  -3   7  557.44   44.60
   6  -3   7  644.54   44.20
  -6  -3  -7  616.54   49.90
  -6   3  -7  650.23   44.10
   6   3   7  650.93   42.70
  -6   3  -7  624.94   48.00
   6   3   7  645.14   44.30
   7  -3   7    2.50    3.70
   7  -3   7    0.90    3.20
  -7  -3  -7   -1.70    8.60
   7   3   7    2.80    2.90
   7   3   7   -2.10    3.00
  -7   3  -7    0.60    5.70
   8  -3   7   42.80    7.00
   8  -3   7   54.99    6.60
  -8  -3  -7   64.59   20.60
   8   3   7   52.19    6.40
  -8   3  -7   58.99   13.10
   8   3   7   51.49    6.50
  -9  -3  -7   -0.20   14.30
   9  -3   7   -3.80    4.10
   9   3   7    7.90    4.10
  -9   3  -7   10.80    9.10
  11  -4  -7   52.09    7.10
  11   4  -7   62.89    7.50
  11   4  -7   58.09    6.70
  10  -4  -7    8.70    4.00
  10   4  -7    3.70    3.10
  -9  -4   7  156.58   14.80
   9  -4  -7  135.29   14.10
   9   4  -7  147.89   13.50
   9   4  -7  137.79   14.40
  -9   4   7  148.89   13.40
  -8  -4   7    2.60    3.90
   8  -4  -7   -0.10    4.70
  -8   4   7    5.90    3.70
  -8   4   7    6.70    5.40
   8   4  -7    3.60    5.60
   7  -4  -7  575.44   40.20
  -7  -4   7  599.84   39.20
  -7   4   7  553.94   40.50
   7   4  -7  518.75   40.10
   7   4  -7  578.94   40.20
  -7   4   7  568.44   39.20
   6  -4  -7    1.70    3.40
  -6  -4   7   -1.40    3.50
  -6  -4   7   -0.10    3.90
   6  -4  -7   -0.30    1.60
  -6  -4   7   -1.40    1.80
   6   4  -7   -1.90    4.60
   6   4  -7   -2.40    2.80
  -6   4   7    5.30    3.10
  -6   4   7    0.00    1.90
  -5  -4   7 2069.99  143.39
  -5  -4   7 2224.88  142.89
   5  -4  -7 2341.27  141.29
   5  -4  -7 2096.39  142.29
   5   4  -7 1989.60  142.69
   5   4  -7 2264.37  142.69
  -5   4   7 2245.98  142.89
  -5   4   7 2000.20  143.09
  -4  -4   7    2.60    3.00
   4  -4  -7    1.40    2.50
  -4  -4   7    4.60    2.60
  -4  -4   7   -3.70    3.90
   4  -4  -7    5.00    3.00
  -4   4   7    3.70    2.70
   4   4  -7   -0.80    3.50
  -3  -4   7 2410.56  157.18
  -3  -4   7 2486.15  154.98
   3  -4  -7 2203.68  154.58
   3  -4  -7 2491.75  155.28
  -3  -4   7 2410.66  156.28
  -3  -4   7 2362.76  155.88
  -3   4   7 2215.78  155.98
   3   4  -7 2170.18  155.58
   3   4  -7 2462.35  155.38
  -2  -4   7   -2.90    3.30
   2  -4  -7   -1.20    1.60
  -2  -4   7    1.60    2.80
  -2  -4   7   -0.10    1.80
  -2  -4   7   -1.60    2.10
  -2   4   7    1.00    2.40
   2   4  -7   -0.60    2.50
   2   4  -7   -3.70    2.60
   2   4  -7   -5.10    2.80
  -1  -4   7 1318.67   94.19
  -1  -4   7 1496.55   92.79
  -1  -4   7 1471.85   94.59
  -1  -4   7 1466.45   93.09
   1  -4  -7 1475.35   92.79
   1   4  -7 1489.85   93.29
   1   4  -7 1313.67   92.79
  -1   4   7 1457.35   92.79
  -1   4   7 1257.67   93.89
   1   4  -7 1281.27   92.99
   0  -4  -7    6.20    1.90
   0  -4   7    2.00    3.00
   0  -4   7    5.50    2.40
   0  -4   7    6.10    2.20
   0  -4   7    2.70    2.90
   0   4  -7    4.70    1.50
   0   4   7    3.10    1.10
   0   4  -7    6.20    2.20
   0   4   7    1.90    2.50
   0   4   7    4.70    2.40
   1  -4   7 1047.30   70.29
   1  -4   7 1009.00   67.89
  -1  -4  -7 1125.69   68.19
   1  -4   7 1017.70   69.49
   1  -4   7 1076.09   68.79
   1   4   7  915.71   68.49
  -1   4  -7  993.60   68.49
   1   4   7 1113.09   67.69
   1   4   7  930.71   69.69
   2  -4   7    0.20    2.90
   2  -4   7    3.70    2.30
  -2  -4  -7   -0.60    1.60
   2  -4   7    2.30    1.90
   2  -4   7    0.80    3.00
  -2   4  -7    1.30    1.60
   2   4   7    0.80    1.30
   2   4   7   -1.40    2.10
   3  -4   7 1124.39   72.39
   3  -4   7 1095.89   73.79
   3  -4   7 1059.99   70.39
  -3  -4  -7 1055.49   73.89
  -3   4  -7 1068.39   71.79
   3   4   7 1067.69   70.39
   3   4   7 1020.20   71.69
   4  -4   7    2.60    2.60
  -4  -4  -7    6.50    3.40
   4  -4   7    0.00    3.30
   4  -4   7    5.10    1.70
   4   4   7    2.50    2.40
   4   4   7    6.30    6.10
   4   4   7    3.30    2.90
  -4   4  -7    6.30    2.50
   5  -4   7 1090.39   65.09
  -5  -4  -7  905.81   68.79
   5  -4   7  868.21   62.89
   5  -4   7  970.90   67.19
   5   4   7  971.00   63.69
   5   4   7  957.20   65.19
  -5   4  -7  967.20   67.59
  -5   4  -7  933.91   65.09
   6  -4   7    1.10    4.70
  -6  -4  -7    0.10    7.40
   6   4   7    2.40    1.80
   6   4   7    2.70    3.00
  -6   4  -7    2.80    3.60
  -6   4  -7    6.30    2.70
   7  -4   7  189.38   16.70
  -7  -4  -7  178.98   24.50
  -7   4  -7  197.18   20.30
   7   4   7  182.48   14.00
   7   4   7  180.68   15.50
  -7   4  -7  184.88   15.50
  -8  -4  -7    1.90   11.00
   8  -4   7    1.50    4.20
   8   4   7    4.50    3.20
  -8   4  -7   -3.20    4.50
  -9  -4  -7  122.59   34.90
  -9   4  -7   60.19   15.90
   9   4   7   64.89    8.50
  11   5  -7   24.10    6.10
  10  -5  -7  108.69   10.30
  10   5  -7  113.49   10.40
  10   5  -7  114.59   10.30
  -9  -5   7    6.50    5.40
   9  -5  -7    8.30    3.50
   9   5  -7   10.70    4.30
  -9   5   7    4.10    3.60
   9   5  -7    2.80    3.40
   8  -5  -7  350.16   26.00
  -8  -5   7  331.77   28.10
   8   5  -7  327.07   26.10
   8   5  -7  354.86   26.40
  -8   5   7  331.97   26.20
  -7  -5   7    1.70    2.30
   7  -5  -7    2.60    4.10
  -7  -5   7    5.50    4.10
  -7   5   7   -0.50    2.40
  -7   5   7    0.40    2.90
   7   5  -7   -1.10    5.30
   7   5  -7    0.80    3.70
   6  -5  -7  731.73   50.19
   6  -5  -7  650.73   49.00
  -6  -5   7  805.52   50.39
   6   5  -7  688.23   50.79
   6   5  -7  745.53   50.69
  -6   5   7  711.93   50.99
  -6   5   7  785.02   50.19
  -5  -5   7    0.30    4.10
  -5  -5   7   -0.80    4.80
   5  -5  -7    3.90    2.40
  -5  -5   7   -2.60    2.10
   5  -5  -7   -0.90    1.10
  -5   5   7    3.70    2.90
   5   5  -7    5.40    4.40
   4  -5  -7 1082.09   68.39
  -4  -5   7 1074.19   69.69
  -4  -5   7  991.00   69.49
  -4   5   7  958.80   69.49
   4   5  -7 1044.20   69.09
   4   5  -7  990.60   69.29
   3  -5  -7   10.60    3.00
  -3  -5   7    2.40    4.20
  -3  -5   7    8.00    3.20
  -3  -5   7    7.80    3.10
   3  -5  -7   16.90    4.20
  -3  -5   7    7.40    2.60
  -3   5   7    9.90    3.10
   3   5  -7    4.20    2.90
   3   5  -7   -0.10    3.80
  -2  -5   7 1321.57   84.89
  -2  -5   7 1297.77   84.49
   2  -5  -7 1269.07   84.89
  -2  -5   7 1219.38   86.49
  -2  -5   7 1304.27   85.99
   2  -5  -7 1254.17   83.49
   2   5  -7 1350.76   85.29
   2   5  -7 1220.78   85.39
  -2   5   7 1237.08   85.69
   2   5  -7 1235.68   85.09
  -1  -5   7    0.30    3.60
   1  -5  -7   -0.90    2.20
  -1  -5   7   -0.60    4.00
  -1  -5   7    1.50    2.90
  -1  -5   7    0.20    2.20
   1   5  -7   -1.30    2.00
  -1   5   7    1.20    2.70
  -1   5   7   -0.80    2.30
   1   5  -7   -3.10    2.60
   0  -5  -7 2163.68  130.29
   0  -5   7 2173.98  130.89
   0  -5   7 2081.69  131.99
   0  -5   7 2023.90  132.19
   0  -5   7 1999.60  129.89
   0   5   7 1750.72  130.39
   0   5  -7 1744.93  130.39
   0   5   7 1874.31  128.99
   0   5   7 1785.92  131.59
   0   5  -7 2134.89  130.19
   1  -5   7  633.44   44.00
   1  -5   7  614.64   44.60
  -1  -5  -7  649.74   42.40
   1  -5   7  667.63   41.90
   1  -5   7  661.63   43.20
  -1  -5  -7  589.24   43.50
   1   5   7  576.34   44.20
   1   5   7  635.74   41.70
  -1   5  -7  597.14   42.80
   2  -5   7 2558.94  166.78
   2  -5   7 2688.53  170.58
  -2  -5  -7 2587.14  169.88
   2  -5   7 2723.43  169.38
   2  -5   7 2642.04  168.58
   2   5   7 2667.73  167.38
  -2   5  -7 2509.95  168.28
   2   5   7 2427.66  168.28
   2   5   7 2154.48  169.68
   3  -5   7   39.00    6.50
  -3  -5  -7   39.80    6.60
   3  -5   7   31.30    7.80
   3   5   7   39.00    5.50
   3   5   7   39.10    3.80
  -3   5  -7   47.90    6.20
  -4  -5  -7  772.02   58.39
   4  -5   7  802.22   57.89
   4  -5   7  867.51   55.99
   4   5   7  827.62   53.99
  -4   5  -7  840.02   57.39
  -4   5  -7  808.92   55.79
   4   5   7  779.22   55.69
  -5  -5  -7   41.70   11.00
  -5   5  -7   46.60    6.90
   5   5   7   36.60    6.80
   5   5   7   44.00    4.20
  -6  -5  -7  179.48   22.50
  -6   5  -7  183.38   17.50
   6   5   7  171.38   15.00
   6   5   7  179.28   13.00
  -6   5  -7  169.48   15.70
  -7  -5  -7    3.20    8.50
   7  -5   7   -2.30    3.80
   7  -5   7   -1.70    4.20
   7   5   7    9.90    3.90
  -7   5  -7    2.00    1.90
  -7   5  -7    4.20    5.10
  -8  -5  -7   95.69   24.70
   8  -5   7   86.99    8.70
   8   5   7   94.99    8.70
  -8   5  -7   95.59   12.20
  -8   5  -7   81.59    8.70
  -9  -5  -7   24.20   19.40
   9   5   7   36.60    8.30
  11   6  -7   81.09    8.30
  11   6  -7   76.09    9.20
  10  -6  -7    8.60    4.70
  10   6  -7    6.10    3.70
  10   6  -7    7.90    4.50
  -9  -6   7  167.38   17.60
   9  -6  -7  193.18   14.90
   9   6  -7  180.28   15.40
   9   6  -7  182.18   15.70
  -9   6   7  170.18   15.10
   8  -6  -7    7.80    4.00
  -8  -6   7    7.20    5.10
   8   6  -7    1.70    3.80
  -8   6   7    0.90    3.20
   7  -6  -7  387.06   27.90
  -7  -6   7  339.57   26.50
   7   6  -7  371.46   28.50
   7   6  -7  383.26   28.50
  -7   6   7  385.06   28.30
  -7   6   7  386.06   26.60
   6  -6  -7    3.10    2.80
   6   6  -7    0.00    5.30
  -6   6   7   -2.20    2.10
  -5  -6   7  514.25   34.70
   5  -6  -7  498.95   33.70
   5   6  -7  473.15   34.50
   5   6  -7  453.95   34.80
  -5   6   7  477.65   34.80
  -4  -6   7    8.40    3.10
   4  -6  -7   15.40    2.90
  -4  -6   7    2.30    4.70
   4   6  -7    4.90    2.70
  -4   6   7   11.40    3.40
   4   6  -7   11.80    5.00
   3  -6  -7 1331.47   90.39
   3  -6  -7 1323.27   85.09
  -3  -6   7 1296.27   86.29
  -3  -6   7 1315.87   87.19
   3   6  -7 1180.58   86.09
   3   6  -7 1240.58   86.59
  -3   6   7 1341.57   84.09
  -3   6   7 1250.77   86.89
  -2  -6   7    2.60    3.00
   2  -6  -7    0.30    1.90
  -2  -6   7   -1.20    2.30
  -2  -6   7   -1.00    2.70
   2  -6  -7    5.90    3.00
  -2   6   7   -0.60    0.60
   2   6  -7   -2.80    1.60
  -2   6   7   -1.20    2.40
  -1  -6   7 3028.50  207.08
  -1  -6   7 3312.17  209.18
  -1  -6   7 3494.55  207.78
  -1  -6   7 2999.60  209.18
   1  -6  -7 3297.77  207.68
   1   6  -7 3571.44  207.48
   1   6  -7 3053.49  207.58
  -1   6   7 3173.28  208.68
  -1   6   7 3089.09  207.48
  -1   6   7 2773.72  205.68
   1   6  -7 2874.81  207.48
   0  -6  -7   28.50    5.30
   0  -6   7   24.00    6.60
   0  -6   7   36.30    6.30
   0  -6  -7   32.00    3.50
   0  -6   7   27.20    5.10
   0  -6   7   26.40    6.30
   0   6   7   22.20    3.20
   0   6   7   20.30    5.70
   0   6   7   17.10    5.30
   0   6  -7   31.30    4.80
   1  -6   7 1982.20  127.79
   1  -6   7 1896.91  129.19
  -1  -6  -7 1980.80  128.09
   1  -6   7 1850.91  128.59
  -1  -6  -7 2032.80  127.09
  -1   6  -7 1816.82  127.19
  -1   6  -7 2027.30  126.19
   1   6   7 1789.82  127.39
   1   6   7 1992.20  125.99
   1   6   7 1805.42  128.69
   2   6   7   -1.60    1.60
  -2   6  -7   -0.50    2.00
  -3  -6  -7  574.94   42.30
   3  -6   7  556.44   41.30
   3  -6   7  596.44   43.30
  -3   6  -7  600.64   40.90
   3   6   7  590.04   40.80
  -4  -6  -7    4.20    4.20
  -4   6  -7    0.80    2.20
   5  -6   7  102.19   13.30
  -5  -6  -7  134.29   18.00
   5   6   7  121.39   11.90
  -5   6  -7  132.59   12.00
  -6  -6  -7    3.80    7.10
   6   6   7   -3.80    2.40
  -6   6  -7    0.50    1.90
  -6   6  -7    0.30    3.50
   6   6   7   -0.40    2.90
   7  -6   7  143.49   15.60
  -7  -6  -7  182.28   25.20
   7  -6   7  165.38   15.00
  -7   6  -7  179.38   14.90
   7   6   7  194.78   14.60
  -7   6  -7  191.28   18.40
  -8  -6  -7    5.60   13.20
   8  -6   7   -2.60    4.70
  -8   6  -7   -2.90    4.50
  -8   6  -7   -0.10    2.40
  10  -7  -7   76.99    9.40
  10   7  -7  108.39    9.30
  10   7  -7  104.89    9.40
  -9  -7   7   -8.70    8.20
   9  -7  -7    0.10    3.90
   9   7  -7   10.90    4.40
  -8  -7   7  309.67   26.10
   8  -7  -7  317.17   22.80
   8   7  -7  290.17   23.10
  -8   7   7  276.27   22.50
   8   7  -7  277.87   24.00
   7  -7  -7    8.80    3.40
   7   7  -7    2.20    5.50
  -7   7   7    3.00    3.70
   6  -7  -7  314.07   23.10
  -6  -7   7  286.67   23.10
  -6   7   7  313.07   23.90
   6   7  -7  324.57   24.60
   6   7  -7  290.17   24.00
  -6   7   7  350.76   23.30
  -5  -7   7   13.00    3.70
   5  -7  -7   12.40    2.90
   5   7  -7    5.20    3.40
   5   7  -7   17.00    6.10
  -5   7   7    9.30    3.30
   4  -7  -7  676.23   43.30
  -4  -7   7  673.13   45.30
   4   7  -7  567.14   44.60
   4   7  -7  597.54   44.30
  -4   7   7  671.53   42.40
  -4   7   7  618.74   44.70
  -3  -7   7    6.70    3.90
   3  -7  -7    8.40    3.60
  -3  -7   7    6.10    5.40
  -3   7   7    6.20    1.30
  -3   7   7    6.40    3.30
   3   7  -7    2.90    2.30
   3   7  -7    0.90    3.80
   2  -7  -7 1508.05   96.69
  -2  -7   7 1388.46   99.59
  -2   7   7 1478.65   99.39
  -2   7   7 1480.45   96.29
   2   7  -7 1489.55   98.69
  -1  -7   7   35.50    7.30
   1   7  -7   32.90    5.90
   1   7  -7   29.00    5.20
   1   7  -7   23.90    5.70
  -1   7   7   29.10    6.40
  -1   7   7   29.60    4.00
   0  -7   7 2098.39  139.69
   0  -7  -7 2159.38  137.69
   0   7   7 2066.89  137.89
   0   7  -7 2254.37  136.79
   0   7  -7 1905.41  137.59
   0   7   7 1949.51  138.99
   1  -7   7   32.20    7.80
  -1  -7  -7   26.10    4.10
   1   7   7   29.00    4.10
   1   7   7   16.60    4.80
  -1   7  -7   32.70    6.10
   1   7   7   25.30    4.80
   2  -7   7 1402.96   95.19
  -2  -7  -7 1468.45   93.69
  -2   7  -7 1399.76   92.79
   2   7   7 1271.57   94.29
   2   7   7 1349.56   92.79
  -3  -7  -7   24.50    6.90
   3  -7   7   10.20    5.00
  -3   7  -7   23.60    6.20
   3   7   7   15.90    3.70
  -3   7  -7   22.70    5.00
  -4  -7  -7  258.97   22.50
   4  -7   7  218.68   21.80
   4   7   7  239.38   19.90
  -4   7  -7  293.57   19.90
  -4   7  -7  244.98   19.90
   5  -7   7    4.00    3.00
  -5  -7  -7   -3.20    6.10
   5   7   7    1.60    2.90
  -6  -7  -7  144.79   19.30
  -6   7  -7  172.58   14.50
   6   7   7  146.99   13.30
  -6   7  -7  143.49   13.50
   7  -7   7   -2.40    4.40
  -7  -7  -7    3.90   10.20
  -7   7  -7    0.70    2.20
  -8  -7  -7  126.89   29.10
   8  -7   7  111.99   11.10
   8   7   7  147.69   11.40
  -8   7  -7  123.79   13.60
  10   8  -7   33.40    6.60
  10   8  -7   39.00    7.80
  -9  -8   7  117.09   13.30
   9  -8  -7  108.99   10.60
   9   8  -7  145.19   11.70
  -9   8   7  120.49   15.50
   9   8  -7  121.99   11.10
   8  -8  -7    1.20    6.70
   8   8  -7    9.50    4.40
   8   8  -7    2.80    3.00
  -7  -8   7  251.97   23.90
  -7  -8   7  214.98   18.90
   7  -8  -7  283.37   20.30
  -7   8   7  261.17   19.00
  -7   8   7  262.57   20.60
   7   8  -7  283.07   21.80
   6  -8  -7    4.00    3.40
  -6  -8   7   -2.30    5.40
  -6  -8   7    1.50    2.30
  -6   8   7   -1.30    1.00
   6   8  -7   -4.90    3.10
   6   8  -7   -0.50    5.70
   5  -8  -7  495.75   34.20
  -5  -8   7  486.05   35.50
   5   8  -7  470.85   35.80
   5   8  -7  466.75   35.60
  -5   8   7  516.95   33.10
  -5   8   7  482.65   35.30
   4  -8  -7   -1.50    1.90
   4   8  -7   -2.00    2.40
  -4   8   7   -3.10    2.40
   4   8  -7   -2.00    5.60
  -4   8   7   -0.30    1.50
  -3  -8   7  971.50   72.89
   3  -8  -7 1025.70   71.79
   3   8  -7 1012.60   71.99
  -3   8   7 1197.68   69.99
  -3   8   7 1059.59   72.59
   2  -8  -7    5.30    3.30
  -2  -8   7   -3.50    3.50
  -2   8   7   -0.40    1.30
   2   8  -7   -1.40    2.20
  -2   8   7   -1.60    3.20
  -1  -8   7 1579.94  109.69
   1  -8  -7 1671.73  106.89
  -1   8   7 1549.34  107.89
  -1   8   7 1544.55  105.89
   1   8  -7 1544.45  107.79
  -1   8   7 1534.95  108.79
   1   8  -7 1766.22  108.29
   1   8  -7 1682.13  107.39
   0  -8   7    2.80    4.70
   0   8  -7    6.70    2.50
  -1  -8  -7  937.81   59.69
   1  -8   7  809.32   62.09
   1   8   7  877.11   59.99
   1   8   7  824.72   61.29
  -1   8  -7  890.01   59.99
  -2  -8  -7    6.70    2.30
   2  -8   7    0.40    4.80
   2   8   7    1.40    2.30
   2   8   7    7.70    4.30
  -2   8  -7    4.10    2.70
  -3  -8  -7  383.86   29.80
   3  -8   7  372.36   31.30
  -3   8  -7  431.46   28.30
  -3   8  -7  381.96   28.90
   3   8   7  368.56   28.80
  -4  -8  -7   37.50   10.70
   4   8   7   43.20    7.50
  -4   8  -7   33.90    7.30
   5  -8   7  169.88   19.10
  -5  -8  -7  235.28   22.70
   5  -8   7  185.58   18.90
   5   8   7  231.08   18.10
  -5   8  -7  235.98   17.90
  -6  -8  -7    5.90    8.40
   6   8   7    4.20    3.10
  -7  -8  -7  115.39   22.70
  -7   8  -7  122.69   18.30
  -7   8  -7  106.99   10.40
  -8  -8  -7   29.80   16.40
  10   9  -7   49.70    7.70
   9   9  -7   23.80    6.20
   8  -9  -7  155.08   12.90
   8   9  -7  166.18   13.50
  -8   9   7  125.99   12.70
   8   9  -7  156.38   13.80
  -7  -9   7   18.60   10.80
  -7   9   7    6.40    3.60
   7   9  -7    3.30    6.00
   7   9  -7    7.30    4.70
  -6  -9   7  328.97   24.70
   6  -9  -7  330.17   25.00
  -6  -9   7  327.17   30.00
  -6   9   7  343.57   25.90
  -6   9   7  358.96   23.50
   6   9  -7  312.97   26.20
   6   9  -7  341.27   26.50
  -5  -9   7    0.20    2.40
   5  -9  -7    1.10    2.60
  -5  -9   7   -8.70    6.00
   5   9  -7   -2.30    3.20
  -5   9   7    1.90    2.70
   5   9  -7   -2.50    5.60
  -5   9   7   -0.90    0.90
   4  -9  -7 1121.29   73.39
  -4  -9   7 1034.30   75.69
   4   9  -7 1030.10   75.09
   4   9  -7 1101.19   75.39
  -4   9   7 1077.69   75.09
  -4   9   7 1187.78   72.99
   3  -9  -7   54.89    5.20
  -3  -9   7   45.60    8.90
  -3   9   7   48.80    5.90
   3   9  -7   52.39    7.10
  -3   9   7   49.60    7.60
   2  -9  -7  688.43   45.10
   2  -9  -7  702.13   45.10
  -2  -9   7  647.94   49.10
   2   9  -7  688.03   47.40
  -2   9   7  642.84   47.70
  -2   9   7  643.44   44.90
  -1  -9   7    4.50    5.20
   1   9  -7    4.50    2.70
  -1   9   7    3.20    3.80
   1   9  -7    2.30    5.00
  -1   9   7   -0.30    2.50
   1   9  -7    4.50    2.80
  -1   9   7    6.10    2.00
   0  -9  -7  515.75   34.50
   0  -9   7  495.35   38.50
   0   9  -7  443.06   35.60
   0   9  -7  494.45   35.80
   0   9   7  487.35   37.10
   0   9   7  530.25   36.00
   1  -9   7    5.60    4.50
   1   9   7    4.70    3.80
   1   9   7    2.50    2.80
  -1   9  -7    5.40    2.70
   2  -9   7  331.97   30.00
  -2  -9  -7  389.96   27.30
   2   9   7  361.86   28.90
   2   9   7  372.86   27.50
  -2   9  -7  357.76   27.60
   3  -9   7   -2.90    3.10
  -3  -9  -7   -1.60    4.00
  -3   9  -7    1.70    2.50
  -4  -9  -7  382.46   30.80
   4  -9   7  333.87   29.50
   4  -9   7  318.27   26.40
   4   9   7  416.96   28.20
  -5  -9  -7   10.90    6.30
  -6  -9  -7  278.77   28.30
   6  -9   7  225.48   20.80
   6   9   7  286.97   20.20
  -6   9  -7  213.38   19.80
  -7  -9  -7    9.30   11.40
  -8 -10   7    1.10    6.40
   8  10  -7   15.40    4.80
   8  10  -7   11.30    4.10
  -7 -10   7  203.38   18.70
   7 -10  -7  171.28   14.70
  -7  10   7  149.79   14.70
  -7  10   7  181.88   14.40
   7  10  -7  198.58   15.70
   7  10  -7  182.18   16.00
  -5 -10   7  575.14   49.40
   5 -10  -7  653.23   44.80
  -5 -10   7  592.34   46.60
  -5  10   7  660.43   46.10
   5  10  -7  646.34   46.60
   5  10  -7  653.13   46.80
  -5  10   7  721.33   43.70
   4 -10  -7   -2.10    5.00
  -4 -10   7    5.40    6.50
  -4 -10   7    0.00    3.60
   4 -10  -7   -1.20    2.50
  -4  10   7   -3.00    2.90
  -4  10   7    2.70    1.00
   4  10  -7    1.10    3.10
   3 -10  -7  900.01   59.09
  -3 -10   7  784.12   62.39
  -3  10   7  837.52   61.39
  -3  10   7  957.30   58.59
   3  10  -7  901.01   61.59
  -2 -10   7    1.50    4.50
   2 -10  -7    2.20    3.70
  -2 -10   7   -4.60    4.70
   2  10  -7    0.10    3.80
  -2  10   7    1.90    1.10
   1 -10  -7  253.77   17.60
  -1 -10   7  216.08   22.10
  -1  10   7  253.67   21.30
   1  10  -7  263.07   20.80
   1  10  -7  252.97   20.20
  -1  10   7  252.97   20.50
  -1  10   7  269.67   18.00
   0 -10  -7    5.40    2.50
   0 -10   7   -4.30    4.00
   0  10   7    0.30    2.70
   1 -10   7  180.98   19.70
  -1 -10  -7  215.18   15.50
   1  10   7  216.38   18.10
   1  10   7  194.58   17.10
  -1  10  -7  176.78   17.00
   2 -10   7   -5.80    4.20
  -2 -10  -7    0.20    3.50
   2  10   7    5.30    3.50
   2  10   7   -1.00    3.10
  -2  10  -7   -1.90    2.50
  -3 -10  -7  507.35   35.20
   3 -10   7  418.16   33.60
   3 -10   7  412.26   36.40
   3  10   7  505.45   34.10
  -3  10  -7  391.56   37.80
   4 -10   7    4.40    4.00
  -4 -10  -7    5.30    6.10
   4 -10   7   -3.10    4.00
   4  10   7    1.00    3.40
   5 -10   7  276.97   26.40
  -5 -10  -7  340.87   30.30
  -5  10  -7  307.17   25.00
   5  10   7  358.66   24.80
   6 -10   7    5.60    5.10
  -6 -10  -7   13.70    8.70
   9  11  -7   49.40    9.70
  -8 -11   7  107.89   12.70
   8  11  -7  104.89   10.20
   8  11  -7  116.39   10.40
  -7 -11   7    8.40    6.00
   7  11  -7    5.30    4.70
   6 -11  -7  235.68   18.10
  -6 -11   7  239.78   19.10
  -6 -11   7  269.67   23.10
   6  11  -7  226.38   18.90
  -6  11   7  206.58   20.00
  -6  11   7  197.58   17.80
   6  11  -7  242.38   19.70
  -5 -11   7   34.90    8.70
  -4 -11   7  317.57   28.50
   4 -11  -7  392.96   26.40
   4  11  -7  369.16   28.80
  -4  11   7  377.16   25.50
  -4  11   7  376.36   27.90
  -3 -11   7   15.30    6.50
   3 -11  -7    2.40    2.60
  -2 -11   7  291.47   27.30
   2 -11  -7  312.87   23.40
   2  11  -7  339.17   25.60
  -2  11   7  320.67   25.50
   2  11  -7  345.67   25.40
  -2  11   7  336.87   22.70
  -1 -11   7   -0.30    4.80
  -1 -11   7    1.30    4.50
   1  11  -7    0.90    2.90
  -1  11   7    1.00    1.10
  -1  11   7   -1.50    3.00
  -1  11   7   -0.70    3.20
   0 -11   7  349.37   32.70
   0  11  -7  425.06   31.00
   0  11   7  428.66   31.90
   0  11   7  426.36   31.10
   1 -11   7    0.00    3.90
   1 -11   7   -2.90    3.80
  -1  11  -7   -1.10    2.20
   1  11   7   -2.30    2.70
   1  11   7    4.70    3.70
  -2 -11  -7  440.06   31.00
   2 -11   7  388.66   32.20
   2 -11   7  335.67   34.40
   2  11   7  396.36   38.90
  -2  11  -7  431.26   32.50
   2  11   7  475.85   32.10
   3 -11   7    3.60    4.20
  -3 -11  -7    4.20    3.80
   3 -11   7   -2.40    3.90
   3  11   7    4.70    3.30
   3  11   7   10.80    3.70
   4 -11   7  189.38   20.40
   4 -11   7  262.97   21.50
  -4 -11  -7  222.48   22.10
  -4  11  -7  222.38   19.30
   4  11   7  238.88   18.80
  -5 -11  -7    0.70    5.10
   5 -11   7   -1.80    4.90
   6 -11   7   93.29   12.70
   6  11   7  126.99   11.10
   8  12  -7   49.30    9.00
   8  12  -7   49.80    7.80
  -7 -12   7  143.49   14.50
   7  12  -7  136.59   12.20
   7  12  -7  143.49   12.20
  -6 -12   7   49.10    9.70
  -6 -12   7   41.60   12.60
   5 -12  -7  121.69   11.50
  -5 -12   7  161.98   13.70
  -5  12   7  122.29   11.80
  -4 -12   7    7.90    4.00
  -3 -12   7  298.97   24.50
   3 -12  -7  200.48   23.40
  -3 -12   7  263.17   22.40
   3 -12  -7  235.98   18.30
   3  12  -7  283.07   21.10
  -3  12   7  216.08   17.90
  -3  12   7  278.47   20.80
  -2 -12   7   17.90    9.50
  -2 -12   7    6.20    3.70
  -2  12   7   -0.70    3.20
   2  12  -7    0.60    2.50
  -1 -12   7  315.17   28.30
  -1  12   7  350.96   26.80
  -1  12   7  308.47   26.40
   1  12  -7  340.97   26.70
  -1  12   7  350.76   23.60
   1  12  -7  334.77   26.60
   0 -12   7    3.70    4.30
   0 -12   7   13.50    5.30
   0  12  -7    2.70    2.60
   0  12   7    4.90    3.40
   0  12   7    4.80    1.40
   1 -12   7  491.65   39.30
   1  12   7  504.15   37.30
  -1  12  -7  506.35   37.00
   1  12   7  495.75   37.80
   2 -12   7    1.70    4.40
  -3 -12  -7  388.66   29.90
   3 -12   7  313.87   29.80
   3 -12   7  433.76   29.60
  -3  12  -7  309.17   28.00
   3  12   7  385.26   28.30
   3  12   7  380.06   29.10
  -4 -12  -7    5.80    3.90
   4 -12   7    7.40    4.80
   6  12   7   53.99    9.80
  -7 -13   7   10.00    7.80
   7  13  -7   42.20    9.00
  -6 -13   7  107.09   13.10
   6  13  -7  133.99   11.30
  -5 -13   7   12.60    6.30
   5  13  -7   23.80    6.70
  -4 -13   7  114.29   11.20
   4  13  -7  109.29   10.70
  -2 -13   7  385.56   30.60
  -2 -13   7  313.27   28.00
   2  13  -7  349.57   26.80
  -2  13   7  334.07   26.70
   2  13  -7  356.36   26.80
   0 -13   7  423.36   38.00
   0  13  -7  488.85   36.00
   0  13   7  521.65   36.80
   0  13   7  493.85   36.40
   0  13   7  490.55   33.70
   1 -13   7    8.50    4.60
   2 -13   7  178.48   18.40
   2 -13   7  196.48   21.00
   2  13   7  205.48   16.90
   2  13   7  200.88   16.60
  -2  13  -7  190.68   17.20
   3 -13   7   25.50    7.30
   3  13   7   30.70    6.70
   3  13   7   27.70    6.50
   4  13   7   42.20    7.90
   5 -13   7    6.60    6.40
   5  13   7   15.60    5.90
   5  13   7   35.70    8.90
  -6 -14   7    0.40    8.00
   6  14  -7   13.20    5.40
  -5 -14   7   71.89   10.50
   5  14  -7   86.39    9.00
  -4 -14   7   11.70    7.00
   4  14  -7    4.60    4.00
  -3 -14   7  210.68   19.10
  -3 -14   7  255.17   22.20
   3  14  -7  213.08   18.00
   3  14  -7  224.38   18.10
  -1 -14   7  244.08   21.40
   1  14  -7  238.18   18.80
  -1  14   7  207.98   18.30
   1  14  -7  212.68   18.90
   1 -14   7  221.58   20.60
   1  14   7  218.08   18.40
   1  14   7  228.18   18.30
  -1  14  -7  209.88   18.40
   2 -14   7    7.00    5.20
   2 -14   7   12.00    6.30
   2  14   7    6.60    3.90
   2  14   7   -0.10    4.20
   3 -14   7  121.69   12.40
   3  14   7  110.39   10.70
   3  14   7   90.29   10.60
   4 -14   7    2.80    6.60
   4  14   7    1.50    5.50
   4  14   7   13.90    5.40
  -5 -15   7   12.60    8.40
   5  15  -7   13.10    5.40
   4  15  -7   95.29   10.60
   4  15  -7  120.89    9.80
  -3 -15   7    7.40    5.50
   3  15  -7    6.30    2.70
   3  15  -7    2.90    4.20
  -2 -15   7  200.48   16.80
  -2 -15   7  190.38   15.80
   2  15  -7  144.89   14.50
   2  15  -7  153.08   13.80
  -1 -15   7   34.70    9.00
  -1 -15   7   33.20    9.60
   0  15  -7  137.29   12.40
   0  15   7  145.29   12.90
   0  15   7  117.39   12.20
   1 -15   7    3.40    7.00
   1 -15   7    3.80    5.60
   1  15   7    0.00    4.40
   2  15   7   41.20    8.40
  -3 -16   7  185.78   19.70
  -3 -16   7  146.19   15.70
   3  16  -7  160.68   16.40
  -2 -16   7   16.30    8.10
   1  16  -7   33.30    6.80
   0 -16   7   36.80   10.60
  10   0  -8  143.89   12.40
  10   0  -8  128.99   12.40
  -9   0   8   23.60    5.90
   8   0  -8  357.36   26.10
   8   0  -8  372.06   25.90
  -8   0   8  354.46   27.10
  -8   0   8  287.17   24.70
   7   0  -8    1.90    4.60
  -7   0   8    2.30    4.30
   6   0  -8  281.07   20.70
  -6   0   8  285.77   21.20
  -6   0   8  250.27   21.50
   6   0  -8  282.77   20.20
   5   0  -8   -1.00    2.70
   5   0  -8   -2.10    2.30
  -5   0   8    4.70    3.50
   4   0  -8 1218.08   83.49
  -4   0   8 1185.68   84.29
   4   0  -8 1373.76   83.09
  -4   0   8 1243.48   84.59
  -3   0   8   -0.90    3.20
   3   0  -8   -0.90    2.60
  -3   0   8   -0.90    2.50
  -3   0   8    1.70    2.50
   2   0  -8 4347.06  281.07
  -2   0   8 4144.29  281.57
  -2   0   8 4059.39  281.97
  -2   0   8 4612.34  280.57
  -1   0   8    0.50    2.30
   1   0  -8   -0.10    2.90
   1   0  -8    0.40    0.90
  -1   0   8    2.00    2.20
   0   0   8 4504.15  330.27
   0   0   8 5393.86  329.07
   0   0   8 4866.71  329.87
   0   0  -8 5374.86  328.77
   1   0   8   -1.20    3.10
   1   0   8   -0.80    1.90
   1   0   8   -1.00    1.20
  -1   0  -8    0.00    1.30
   2   0   8  760.72   51.79
   2   0   8  772.92   51.19
  -2   0  -8  776.92   50.99
   2   0   8  746.43   50.69
   2   0   8  757.92   52.39
  -3   0  -8   -0.90    1.30
   3   0   8   -0.40    1.50
   3   0   8   -1.40    1.80
  -3   0  -8    0.30    1.90
   4   0   8  301.07   22.10
  -4   0  -8  310.67   22.50
  -4   0  -8  320.77   25.20
   4   0   8  316.87   23.40
   4   0   8  316.17   22.70
   4   0   8  301.67   22.90
   4   0   8  314.07   22.10
   5   0   8    2.80    1.80
  -5   0  -8   -1.80    3.80
   5   0   8   -2.10    1.90
   5   0   8   -3.50    2.30
   6   0   8  406.16   29.50
   6   0   8  423.86   29.10
   6   0   8  407.06   29.30
   6   0   8  403.16   30.00
   6   0   8  418.96   29.60
  -6   0  -8  407.16   36.50
   7   0   8   -3.10    2.90
  -7   0  -8    9.50    8.00
   7   0   8    0.80    2.80
   7   0   8    1.10    2.90
   8   0   8  160.38   13.40
   8   0   8  191.68   14.40
  -8   0  -8  171.18   25.80
  -9   0  -8   20.60   15.40
  11  -1  -8   63.09    7.60
  11  -1  -8   82.19    7.80
  11   1  -8   73.39    7.80
  11   1  -8   86.69    7.80
  10  -1  -8    7.70    3.70
  10  -1  -8    2.50    2.90
  10   1  -8    3.90    2.70
  10   1  -8    6.00    4.10
   9  -1  -8  246.78   21.20
  -9  -1   8  296.97   20.10
   9   1  -8  275.17   21.40
   9   1  -8  242.68   22.80
  -9   1   8  250.87   21.50
   8  -1  -8   -2.10    3.90
  -8  -1   8    6.20    3.20
  -8  -1   8    3.30    4.30
   8  -1  -8    2.40    4.60
  -8   1   8    4.70    2.90
   8   1  -8   -4.90    3.50
   8   1  -8   -1.40    4.50
  -8   1   8    2.60    3.80
   7  -1  -8  473.35   34.30
  -7  -1   8  438.16   34.60
  -7  -1   8  461.45   35.50
   7   1  -8  504.85   34.10
  -7   1   8  470.95   35.50
  -7   1   8  525.75   34.50
   7   1  -8  481.15   34.40
  -6  -1   8    1.30    3.70
   6  -1  -8   -4.80    3.50
  -6  -1   8   -1.30    2.70
   6  -1  -8   -2.40    1.60
  -6   1   8   -1.90    2.80
   6   1  -8    4.60    3.70
  -6   1   8   -3.00    2.30
   5  -1  -8  978.40   68.89
   5  -1  -8 1179.28   67.99
  -5  -1   8 1022.90   70.19
  -5  -1   8  952.90   69.79
  -5   1   8  949.51   69.89
   5   1  -8  989.20   68.99
   5   1  -8 1059.69   68.69
  -5   1   8 1089.19   69.99
   4  -1  -8   61.69    6.40
  -4  -1   8   63.09    8.10
   4  -1  -8   70.49    5.30
  -4  -1   8   62.19    7.40
  -4   1   8   67.49    7.70
   4   1  -8   62.29    6.40
  -4   1   8   67.89    6.90
  -4   1   8   66.49    8.00
   4   1  -8   58.69    6.60
   3  -1  -8 2832.82  170.88
  -3  -1   8 2392.26  172.68
  -3  -1   8 2810.22  172.08
   3  -1  -8 2479.35  171.88
  -3  -1   8 2649.63  173.38
  -3   1   8 2451.35  172.78
  -3   1   8 2884.31  171.78
   3   1  -8 2405.96  172.18
  -3   1   8 2619.64  173.18
   3   1  -8 2655.43  171.38
   2  -1  -8   91.19    7.90
   2  -1  -8   90.29    6.00
  -2  -1   8   85.09    8.10
  -2  -1   8   74.69    8.70
  -2  -1   8  100.29    7.80
   2   1  -8   74.49    7.20
   2   1  -8   83.69    9.80
  -2   1   8   96.49    7.10
  -2   1   8   93.89    8.40
  -2   1   8   80.09    9.00
  -1  -1   8 3202.28  221.08
  -1  -1   8 3580.24  220.68
  -1  -1   8 3192.38  221.78
  -1   1   8 2934.61  221.58
  -1   1   8 3247.58  221.48
   1   1  -8 3783.92  221.68
   1   1  -8 3314.17  220.18
  -1   1   8 3684.83  220.08
   0  -1   8   50.19    5.80
   0  -1   8   48.80    6.50
   0  -1  -8   51.59    4.50
   0  -1   8   48.40    5.70
   0   1   8   54.49    4.60
   0   1  -8   60.09    6.80
   0   1   8   43.50    6.90
   0   1   8   55.09    6.30
   0   1  -8   57.29    5.20
   1  -1   8 1526.45  101.09
   1  -1   8 1504.35   99.89
   1  -1   8 1609.54  100.79
   1  -1   8 1562.94  100.89
   1  -1   8 1455.95  101.69
   1  -1   8 1539.35  101.19
  -1  -1  -8 1468.05  100.19
   1   1   8 1665.63  100.39
   1   1   8 1498.75  100.29
   1   1   8 1414.36   99.99
  -1   1  -8 1447.46  100.69
   1   1   8 1605.64  101.69
   2  -1   8   40.20    4.90
   2  -1   8   33.50    5.80
  -2  -1  -8   46.00    4.70
   2   1   8   43.20    5.50
   2   1   8   35.90    4.70
   2   1   8   40.20    4.90
  -2   1  -8   41.40    4.80
   3  -1   8  510.05   35.40
   3  -1   8  488.35   36.00
   3  -1   8  544.95   37.00
  -3   1  -8  521.55   35.40
   3   1   8  524.55   35.20
   3   1   8  508.45   35.10
   3   1   8  517.25   36.30
  -3   1  -8  506.25   38.10
   4  -1   8    2.80    1.40
   4  -1   8    0.10    1.60
   4  -1   8   -0.90    2.10
   4   1   8    1.60    1.60
  -4   1  -8   -1.10    1.80
   4   1   8    3.60    2.30
   4   1   8   -1.20    1.90
   5  -1   8  466.15   33.20
   5  -1   8  472.65   32.10
   5  -1   8  466.25   32.10
   5  -1   8  469.45   32.30
   5  -1   8  459.35   31.80
  -5  -1  -8  395.16   36.00
   5   1   8  449.76   32.50
   5   1   8  445.36   32.10
  -5   1  -8  441.06   36.10
  -5   1  -8  444.06   32.40
   5   1   8  440.36   32.90
   5   1   8  478.05   32.50
   5   1   8  478.45   31.50
   6  -1   8    3.50    2.00
  -6  -1  -8   -2.40    7.40
   6  -1   8    8.40    4.00
   6  -1   8    3.30    2.20
   6  -1   8   -2.50    3.10
   6   1   8    0.20    3.10
   6   1   8    2.10    2.50
   6   1   8   -1.50    3.00
   6   1   8    2.20    2.40
  -6   1  -8    3.30    6.60
   6   1   8    3.60    2.40
   7  -1   8  257.67   20.60
   7  -1   8  278.07   20.20
  -7  -1  -8  254.37   28.60
   7  -1   8  253.97   19.80
   7   1   8  287.37   20.80
  -7   1  -8  246.78   27.40
   7   1   8  253.47   20.40
   7   1   8  273.07   19.70
  -8  -1  -8    5.20   10.70
   8  -1   8    8.00    3.80
   8  -1   8    2.40    3.40
   8   1   8    3.90    4.80
   8   1   8    4.10    3.40
   8   1   8   10.50    5.90
  -8   1  -8    4.80    8.40
   9  -1   8   36.30    6.80
   9  -1   8   24.70    7.10
  -9  -1  -8   41.10   18.70
   9   1   8   37.90    7.60
  -9   1  -8   52.09   16.40
  11  -2  -8    6.60    4.80
  11   2  -8   16.90    4.50
  11   2  -8    6.20    3.70
  10  -2  -8  102.99    9.40
  10  -2  -8   88.79    9.20
  10   2  -8   92.99    9.50
  10   2  -8   86.29    8.90
   9   2  -8   -2.70    3.60
  -9   2   8    9.40    3.90
   9   2  -8    5.30    4.20
   8  -2  -8  374.56   28.00
  -8  -2   8  350.56   29.10
  -8   2   8  381.76   27.10
   8   2  -8  353.36   28.10
   8   2  -8  422.66   28.40
  -8   2   8  371.86   29.00
  -7  -2   8    3.30    2.70
  -7  -2   8   12.30    5.00
   7  -2  -8    3.50    5.10
  -7   2   8    4.30    2.20
   7   2  -8    4.20    4.80
  -7   2   8    1.00    4.10
  -6  -2   8  909.41   64.19
   6  -2  -8  936.61   61.49
  -6  -2   8  879.91   63.89
   6  -2  -8  931.61   62.69
  -6   2   8  975.00   63.19
   6   2  -8  965.90   62.59
   6   2  -8  882.21   62.79
  -6   2   8  924.81   63.79
  -5  -2   8    4.50    3.70
   5  -2  -8    2.00    1.30
   5  -2  -8    2.20    2.90
  -5  -2   8    4.00    3.80
   5   2  -8    8.00    4.00
  -5   2   8    8.40    3.70
   5   2  -8    3.70    2.40
  -5   2   8    3.10    3.30
   4  -2  -8 2127.59  126.19
  -4  -2   8 1924.81  128.89
   4  -2  -8 1838.42  127.19
  -4  -2   8 1809.52  128.19
   4   2  -8 2003.90  127.09
  -4   2   8 2082.99  127.19
   4   2  -8 1833.52  127.69
  -4   2   8 1917.11  128.29
  -4   2   8 1821.62  128.29
  -3  -2   8   48.70    6.20
   3  -2  -8   49.50    5.60
   3  -2  -8   58.99    5.00
  -3  -2   8   49.99    7.00
  -3   2   8   53.19    5.20
   3   2  -8   44.30    5.70
  -3   2   8   42.90    6.90
   3   2  -8   49.50    5.50
  -3   2   8   56.59    6.60
  -2  -2   8 1494.45   91.89
   2  -2  -8 1409.56   91.29
  -2  -2   8 1335.07   92.19
  -2  -2   8 1296.47   92.89
   2  -2  -8 1388.26   90.89
   2   2  -8 1567.84   95.49
   2   2  -8 1285.27   91.49
   2   2  -8 1294.77   90.89
   2   2  -8 1299.47   92.19
  -2   2   8 1424.06   92.69
  -2   2   8 1477.15   90.99
  -2   2   8 1357.46   92.89
  -1  -2   8   13.20    3.70
  -1  -2   8   15.90    3.80
  -1  -2   8    9.70    4.00
  -1   2   8   16.70    2.40
   1   2  -8   11.20    3.10
   1   2  -8   15.80    3.70
  -1   2   8   20.90    4.40
   0  -2   8 1300.57   88.79
   0  -2   8 1264.27   89.69
   0  -2   8 1300.77   87.69
   0  -2   8 1403.46   89.09
   0   2   8 1380.26   87.89
   0   2  -8 1496.75   89.49
   0   2   8 1368.96   87.59
   0   2   8 1215.28   89.49
   0   2  -8 1277.27   88.59
   0   2   8 1377.86   87.69
   1  -2   8   19.40    5.20
   1  -2   8   24.30    3.50
   1  -2   8   17.80    4.60
   1   2   8   20.40    3.30
   1   2   8   22.30    4.70
   1   2   8   17.50    2.80
  -1   2  -8   23.80    3.50
   1   2   8   13.70    3.50
   2  -2   8 2412.06  158.98
   2  -2   8 2596.84  157.08
   2  -2   8 2328.47  158.18
   2   2   8 2603.54  156.98
   2   2   8 2307.57  158.48
   2   2   8 2256.07  156.88
   2   2   8 2346.17  156.38
  -2   2  -8 2274.57  157.18
   3  -2   8   19.50    6.00
   3  -2   8   24.10    5.10
   3  -2   8   23.30    3.90
   3   2   8   20.90    4.00
  -3   2  -8   17.40    4.60
   3   2   8   18.70    4.80
   3   2   8   18.70    4.00
  -3   2  -8   16.10    4.20
   4  -2   8 1135.49   74.09
   4  -2   8 1092.89   74.89
   4  -2   8 1147.89   76.29
  -4   2  -8 1089.79   77.69
   4   2   8 1110.59   73.69
   4   2   8 1104.49   74.39
   4   2   8 1085.19   75.89
  -4   2  -8 1126.29   74.69
   5  -2   8    9.10    2.80
  -5  -2  -8    5.50    4.90
   5  -2   8    5.70    2.70
   5  -2   8    2.00    3.50
   5   2   8    4.00    1.90
   5   2   8    0.50    2.90
  -5   2  -8   12.50    4.40
  -5   2  -8    6.90    2.60
   6  -2   8  326.97   22.80
   6  -2   8  298.77   24.20
   6  -2   8  330.07   23.70
  -6  -2  -8  290.87   30.70
   6  -2   8  321.87   22.30
   6  -2   8  311.57   24.10
  -6   2  -8  353.66   24.30
   6   2   8  332.77   23.10
   6   2   8  308.27   23.90
   6   2   8  306.97   22.50
  -6   2  -8  302.37   29.80
   6   2   8  306.37   25.00
   7  -2   8   -1.40    2.90
   7  -2   8    2.50    3.30
  -7  -2  -8   -4.30    7.90
   7  -2   8    1.30    6.40
  -7   2  -8   -2.70    6.00
   7   2   8   -1.30    2.90
   7   2   8   -0.50    2.90
   7   2   8   -0.40    3.80
  -8  -2  -8   76.39   23.10
   8  -2   8   92.89    8.60
   8  -2   8   89.29    8.20
  -8   2  -8  107.19   17.80
   8   2   8  101.29    8.70
   8   2   8   79.39   10.20
   8   2   8   71.29    9.90
  -9  -2  -8   24.70   18.20
  -9   2  -8    7.10   11.80
   9   2   8    4.00    4.60
  11  -3  -8   28.70    6.60
  11  -3  -8   40.10    6.30
  11   3  -8   54.29    6.10
  10  -3  -8    4.70    3.70
  10   3  -8    7.70    3.80
 -10   3   8    2.30    4.00
  10   3  -8   -3.70    2.80
   9  -3  -8  162.58   17.90
   9   3  -8  174.78   15.10
  -9   3   8  175.68   15.90
   9   3  -8  180.98   15.40
   8  -3  -8    0.30    4.50
   8   3  -8    2.10    5.30
  -8   3   8   20.50    5.90
   7  -3  -8  816.72   53.69
  -7  -3   8  703.33   54.49
  -7   3   8  752.72   54.59
  -7   3   8  823.02   53.29
   7   3  -8  736.73   53.59
   7   3  -8  816.62   53.49
   6  -3  -8    3.60    3.60
  -6  -3   8    5.40    4.80
   6   3  -8   -0.20    2.30
  -6   3   8    6.60    3.40
   6   3  -8    3.80    4.70
  -5  -3   8 1393.76  104.29
   5  -3  -8 1520.05  103.19
  -5  -3   8 1545.15  105.39
   5  -3  -8 1673.73  102.19
  -5   3   8 1617.64  104.19
   5   3  -8 1675.83  103.49
  -5   3   8 1567.04  104.49
   5   3  -8 1446.96  103.69
  -4  -3   8   38.60    7.40
   4  -3  -8   40.30    4.90
  -4  -3   8   38.70    6.60
   4  -3  -8   36.90    3.40
   4  -3  -8   47.50    5.40
   4   3  -8   35.00    6.20
  -4   3   8   41.40    6.50
   4   3  -8   39.30    5.50
  -4   3   8   42.70    6.50
   3  -3  -8 1733.43  116.69
  -3  -3   8 1579.14  117.59
  -3  -3   8 1736.23  118.89
   3  -3  -8 1878.91  116.99
   3   3  -8 1803.72  117.89
  -3   3   8 1714.13  118.19
  -3   3   8 1806.42  118.39
  -3   3   8 1922.01  116.59
   3   3  -8 1789.92  117.09
   2  -3  -8   43.70    4.40
  -2  -3   8   38.80    5.30
   2  -3  -8   40.80    4.20
  -2  -3   8   30.60    6.40
   2   3  -8   39.40    9.20
   2   3  -8   31.00    4.60
   2   3  -8   31.80    5.30
  -2   3   8   42.70    5.90
  -1  -3   8  465.45   31.50
  -1  -3   8  444.76   32.60
  -1  -3   8  448.26   31.80
  -1  -3   8  461.45   30.30
   1   3  -8  426.06   31.10
   1   3  -8  476.95   31.80
  -1   3   8  457.45   32.40
   0  -3   8  150.88   13.50
   0  -3   8  161.28   13.50
   0  -3   8  164.68   11.80
   0   3  -8  160.48   12.10
   0   3  -8  182.78   13.00
   0   3   8  155.88   11.80
   0   3   8  164.98   11.40
   0   3   8  149.99   13.20
   1  -3   8 1527.45   94.89
   1  -3   8 1391.56   94.69
   1  -3   8 1404.96   95.99
   1  -3   8 1407.46   96.59
  -1   3  -8 1409.66   94.79
   1   3   8 1560.54   94.19
   1   3   8 1339.07   94.59
   1   3   8 1412.86   96.29
   2  -3   8  111.49    9.50
   2  -3   8  115.09   11.60
   2  -3   8  113.49   10.60
   2  -3   8  127.09    9.70
  -2  -3  -8   97.99   11.00
   2   3   8  111.99   10.00
   2   3   8  126.79    9.10
   2   3   8  112.19    8.00
   2   3   8  109.19   10.80
  -2   3  -8  117.29    9.60
   2   3   8  110.89    8.10
   3  -3   8 2199.88  143.79
   3  -3   8 2187.48  145.09
  -3  -3  -8 2198.38  148.19
   3  -3   8 2257.57  144.39
   3  -3   8 2180.38  146.29
   3   3   8 2157.08  146.19
  -3   3  -8 2192.08  144.49
   3   3   8 2168.38  144.29
   3   3   8 2144.39  143.19
   4  -3   8   13.50    3.60
  -4  -3  -8    3.80    5.40
   4  -3   8   11.50    3.60
   4  -3   8   17.20    4.90
   4   3   8    8.00    3.80
  -4   3  -8   24.50    5.80
   4   3   8   16.00    3.50
   4   3   8   14.60    3.60
   5  -3   8  396.86   30.40
  -5  -3  -8  392.66   34.30
   5  -3   8  357.06   28.10
   5  -3   8  438.16   28.90
  -5   3  -8  377.36   32.60
   5   3   8  409.46   29.00
  -5   3  -8  424.66   29.40
   5   3   8  435.06   27.80
  -6  -3  -8   -6.90    7.40
   6  -3   8   -3.60    3.90
   6   3   8    1.20    3.40
  -6   3  -8    1.20    1.80
   6   3   8   -2.60    2.00
   6   3   8   -2.70    2.40
   7  -3   8  126.09   12.10
  -7  -3  -8  108.39   21.40
   7   3   8  114.29   10.00
  -7   3  -8  116.89   10.90
   7   3   8  122.29   10.70
  -7   3  -8  129.19   16.90
   8  -3   8    2.10    4.10
  -8  -3  -8    4.00   12.80
  -8   3  -8   -4.90    5.90
   8   3   8    9.40    3.40
   9  -3   8   21.30    4.90
   9  -3   8   12.90    5.50
  -9  -3  -8   49.99   25.30
  -9   3  -8   37.90   11.90
  11   4  -8    4.20    4.30
  11   4  -8    5.80    4.80
  10  -4  -8   87.29    8.40
  10   4  -8   97.09    9.10
  10   4  -8   77.49    8.30
   9  -4  -8    3.30    3.60
   9   4  -8    1.70    4.10
  -9   4   8    7.50    3.60
  -8  -4   8  314.27   28.10
  -8  -4   8  369.66   25.10
   8  -4  -8  347.67   26.80
  -8   4   8  381.86   25.50
  -8   4   8  372.76   27.80
   8   4  -8  348.67   26.80
   8   4  -8  346.47   27.10
   7  -4  -8    4.00    4.80
  -7  -4   8    3.60    4.60
  -7  -4   8    2.90    3.60
   7   4  -8    0.90    3.00
  -7   4   8    3.70    3.80
  -7   4   8   -0.70    2.00
   7   4  -8    1.90    5.30
   6  -4  -8 1068.79   70.99
  -6  -4   8  961.10   72.09
  -6  -4   8 1149.08   71.49
   6  -4  -8 1121.89   69.79
   6   4  -8 1116.69   71.39
  -6   4   8 1065.19   71.29
   6   4  -8  959.20   71.39
  -6   4   8  970.00   71.99
  -5  -4   8   24.60    7.20
   5  -4  -8   15.00    2.90
  -5  -4   8   14.40    5.80
  -5  -4   8   23.70    4.90
   5  -4  -8   23.00    3.80
  -5   4   8   26.20    6.20
   5   4  -8   14.70    5.00
   5   4  -8   19.00    4.30
  -5   4   8   19.50    4.90
   4  -4  -8 1294.67   86.29
  -4  -4   8 1253.47   88.79
  -4  -4   8 1234.98   87.49
   4  -4  -8 1355.36   86.79
   4   4  -8 1248.58   87.19
  -4   4   8 1316.97   87.99
  -4   4   8 1324.47   87.69
   4   4  -8 1380.86   86.89
  -3  -4   8    7.90    3.00
  -3  -4   8    5.20    4.10
   3  -4  -8    7.80    2.90
   3   4  -8    8.60    3.70
  -3   4   8    5.70    3.00
   3   4  -8    1.70    2.90
   2  -4  -8  700.43   46.30
  -2  -4   8  686.83   46.80
  -2  -4   8  754.72   45.90
  -2  -4   8  718.13   47.90
  -2  -4   8  682.73   48.30
   2  -4  -8  684.73   45.40
   2   4  -8  651.03   47.30
  -2   4   8  669.73   47.60
   2   4  -8  617.94   46.30
  -1  -4   8  606.24   39.10
  -1  -4   8  576.04   41.10
  -1  -4   8  516.55   40.80
   1  -4  -8  618.44   39.00
  -1  -4   8  591.74   39.70
   1   4  -8  618.84   40.10
  -1   4   8  560.24   40.80
   1   4  -8  549.05   39.60
   0  -4   8 1324.27   83.89
   0  -4   8 1239.28   85.59
   0  -4  -8 1369.16   83.29
   0  -4   8 1228.98   85.29
   0  -4   8 1257.67   83.79
   0   4   8 1148.69   85.19
   0   4  -8 1215.78   83.89
   0   4   8 1310.47   82.69
   0   4   8 1146.89   83.69
   0   4  -8 1377.46   84.29
   1  -4   8  220.38   15.30
   1  -4   8  198.98   14.70
   1  -4   8  192.88   16.20
   1  -4   8  207.48   17.20
   1   4   8  170.78   15.20
   1   4   8  189.78   16.50
  -1   4  -8  204.78   15.00
   1   4   8  206.78   14.00
   2  -4   8 2653.03  179.58
   2  -4   8 2698.33  177.78
   2  -4   8 2705.53  180.68
  -2  -4  -8 2807.12  180.98
   2  -4   8 2922.41  178.78
  -2   4  -8 2641.04  178.58
   2   4   8 2614.24  178.58
   2   4   8 2493.85  180.18
   2   4   8 2879.31  177.98
   3  -4   8   31.90    5.40
  -3  -4  -8   26.90    7.40
   3  -4   8   22.80    7.00
  -3   4  -8   35.10    5.40
   3   4   8   24.10    4.20
   3   4   8   25.50    3.20
   4  -4   8  971.80   64.59
   4  -4   8  984.90   68.39
   4  -4   8 1063.89   66.69
  -4  -4  -8  963.20   69.59
  -4   4  -8  873.61   68.29
   4   4   8  986.40   66.19
   4   4   8  991.80   64.69
  -4   4  -8  987.30   66.29
   5  -4   8   -4.40    3.30
   5  -4   8   -2.90    2.10
  -5  -4  -8   -3.50    6.40
   5   4   8    0.40    1.60
   5   4   8    0.80    2.10
  -5   4  -8    2.50    2.30
   6  -4   8  145.19   13.40
   6  -4   8  132.29   13.80
  -6  -4  -8  141.49   20.00
  -6   4  -8  137.59   16.90
   6   4   8  156.18   12.80
   6   4   8  150.58   11.00
   7  -4   8   -5.70    3.60
  -7  -4  -8   -0.30    9.30
   7  -4   8    3.20    4.50
  -7   4  -8   -6.70    4.70
   8  -4   8   54.79    7.10
  -8  -4  -8   34.50   14.20
   8  -4   8   48.40    6.80
  -8   4  -8   47.60   11.10
  11   5  -8   53.59    7.90
  11   5  -8   67.39    7.50
  10  -5  -8    2.70    4.30
  10   5  -8    4.60    4.10
  10   5  -8    5.00    3.40
   9  -5  -8  169.48   14.40
  -9  -5   8  201.18   16.60
   9   5  -8  155.08   15.20
   9   5  -8  178.48   15.10
  -9   5   8  168.88   14.90
   8  -5  -8    2.30    3.60
  -8  -5   8    9.40    2.80
  -8   5   8    5.30    3.20
   8   5  -8    2.10    5.80
  -8   5   8    5.10    3.70
   8   5  -8    1.60    3.40
  -7  -5   8  485.45   31.70
   7  -5  -8  451.55   32.30
  -7   5   8  445.76   31.50
   7   5  -8  420.86   32.90
   7   5  -8  436.36   32.60
  -7   5   8  428.56   33.10
  -6  -5   8    8.80    4.90
   6  -5  -8   10.60    3.40
  -6   5   8   10.90    3.10
  -6   5   8    6.70    3.60
   6   5  -8   10.50    6.00
   5  -5  -8  976.70   63.09
  -5  -5   8  896.71   64.29
  -5  -5   8 1015.80   64.29
  -5   5   8  993.20   64.09
   5   5  -8  899.01   63.39
   5   5  -8  852.41   63.79
  -5   5   8  913.81   64.39
  -4  -5   8   -1.20    4.20
  -4  -5   8    3.90    3.10
   4  -5  -8    2.80    3.60
  -4  -5   8    2.30    2.50
   4  -5  -8    1.70    2.20
  -4   5   8    0.70    2.80
   4   5  -8   -1.00    4.10
  -3  -5   8 1721.53  107.79
  -3  -5   8 1651.63  108.69
  -3  -5   8 1664.53  110.59
   3  -5  -8 1668.63  108.29
   3  -5  -8 1627.84  107.19
  -3  -5   8 1657.33  109.39
  -3   5   8 1644.14  109.39
   3   5  -8 1485.05  108.69
   3   5  -8 1535.75  108.19
  -2  -5   8   47.40    5.50
  -2  -5   8   37.20    7.00
   2  -5  -8   40.60    4.00
  -2  -5   8   44.90    5.80
  -2  -5   8   40.60    8.00
   2  -5  -8   50.99    6.00
   2   5  -8   31.60    6.50
  -2   5   8   40.80    6.70
  -1  -5   8 1679.43  112.49
  -1  -5   8 1689.73  110.59
   1  -5  -8 1772.92  110.39
  -1  -5   8 1779.82  110.49
  -1  -5   8 1535.55  111.99
   1   5  -8 1735.13  110.89
   1   5  -8 1662.83  110.49
   1   5  -8 1614.84  110.89
  -1   5   8 1544.35  111.89
   0  -5   8   25.10    5.10
   0  -5   8   25.00    5.40
   0  -5  -8   26.70    4.40
   0  -5   8   18.70    5.40
   0   5   8   22.80    6.00
   0   5  -8   24.60    4.80
   0   5  -8   20.10    4.40
  -1  -5  -8  962.50   68.49
   1  -5   8  935.71   69.09
   1  -5   8 1035.50   67.59
  -1  -5  -8 1104.99   66.79
   1  -5   8 1001.10   66.39
   1  -5   8 1022.30   68.69
   1   5   8  891.01   68.79
  -1   5  -8  962.80   67.29
   1   5   8 1080.19   66.09
   2  -5   8    4.80    4.00
   2  -5   8   -0.80    1.90
   2  -5   8   -2.40    3.70
  -2   5  -8    0.80    1.80
   2   5   8   -2.60    1.50
   3  -5   8  779.62   49.30
   3  -5   8  764.82   53.69
   3  -5   8  812.72   52.29
  -3  -5  -8  716.43   53.29
   3   5   8  769.22   51.19
   3   5   8  656.53   53.29
  -3   5  -8  735.03   51.29
   4  -5   8   -2.30    4.20
  -4  -5  -8    2.20    4.20
  -4   5  -8    3.30    2.10
   4   5   8    0.60    1.90
   5  -5   8  395.06   31.50
  -5  -5  -8  385.96   34.20
   5  -5   8  400.76   28.70
   5   5   8  402.96   29.30
  -5   5  -8  396.76   29.20
  -5   5  -8  405.76   31.70
   6  -5   8   -6.70    4.40
  -6  -5  -8   -3.50    8.00
   6   5   8    1.10    2.50
  -6   5  -8   -0.20    1.70
  -6   5  -8    1.30    4.50
   7  -5   8  135.29   12.20
  -7  -5  -8  140.09   23.80
   7   5   8  145.49   11.80
  -7   5  -8  143.89   12.40
  -7   5  -8  128.69   16.10
   8  -5   8    2.40    5.10
  -8  -5  -8    9.10   14.00
  -8   5  -8   10.80    4.80
  11   6  -8   24.60    6.60
  11   6  -8   11.00    5.10
 -10  -6   8   78.89   12.70
  10  -6  -8   88.79    8.70
  -9  -6   8   13.30    6.40
   9  -6  -8    4.30    4.00
   9   6  -8   22.30    5.00
  -8  -6   8  216.58   20.30
   8  -6  -8  228.58   18.50
   8   6  -8  219.38   18.80
   8   6  -8  238.78   19.20
  -8   6   8  236.78   19.00
   7  -6  -8    7.50    3.80
  -7  -6   8    6.40    2.10
  -7   6   8    7.60    3.60
  -7   6   8    2.10    2.30
   7   6  -8    4.80    5.80
   7   6  -8   -0.50    3.20
   6  -6  -8  382.46   26.70
  -6  -6   8  367.86   26.90
  -6   6   8  358.96   28.20
   6   6  -8  351.96   27.10
   6   6  -8  348.87   27.80
  -6   6   8  397.76   27.00
  -5  -6   8   21.10    4.80
   5  -6  -8   28.50    3.50
  -5   6   8   23.40    5.50
   5   6  -8   21.70    6.60
   4  -6  -8  629.04   39.40
  -4  -6   8  618.74   41.40
  -4  -6   8  553.34   40.70
   4   6  -8  531.35   40.80
  -4   6   8  583.34   41.30
   4   6  -8  548.85   40.20
   3  -6  -8   31.80    4.70
  -3  -6   8   31.50    6.90
  -3  -6   8   21.70    6.60
   3   6  -8   22.20    5.70
  -3   6   8   34.40    6.30
   3   6  -8   18.00    4.30
  -2  -6   8 2111.59  129.29
  -2  -6   8 1850.91  130.49
   2  -6  -8 1873.91  127.39
  -2  -6   8 2080.79  128.99
   2  -6  -8 2127.49  129.49
  -2  -6   8 1724.43  131.09
  -2   6   8 1877.51  130.39
   2   6  -8 1931.01  129.29
  -1  -6   8  227.68   20.00
  -1  -6   8  234.68   19.50
  -1  -6   8  252.87   17.40
   1  -6  -8  244.48   17.80
  -1  -6   8  245.88   17.90
  -1   6   8  233.98   17.70
   1   6  -8  217.58   17.50
   1   6  -8  199.18   17.70
  -1   6   8  232.18   19.10
   1   6  -8  233.78   17.80
   0  -6   8 3532.05  223.18
   0  -6   8 3370.86  225.78
   0  -6  -8 3558.94  223.58
   0  -6   8 3723.83  224.38
   0  -6   8 3346.27  225.78
   0   6  -8 3227.98  224.08
   0   6   8 3284.77  222.18
   0   6   8 3235.58  223.88
   0   6   8 3085.39  225.28
   0   6  -8 3660.73  223.58
  -1  -6  -8    0.20    2.60
   1  -6   8   -1.10    2.30
   1  -6   8    5.60    4.60
  -1   6  -8   -1.20    1.70
   1   6   8   -2.30    2.80
  -2  -6  -8  570.54   41.00
   2  -6   8  557.44   42.30
   2  -6   8  599.24   41.30
  -2   6  -8  570.54   39.90
   2   6   8  589.04   38.70
   2   6   8  537.85   39.70
  -3  -6  -8   -2.70    3.50
  -3   6  -8    0.50    2.10
   3   6   8   -5.40    3.20
   4  -6   8  188.78   18.90
  -4  -6  -8  201.98   20.40
  -4   6  -8  221.38   17.00
   4   6   8  209.88   16.20
  -5  -6  -8   -1.40    7.40
   5  -6   8   -2.90    2.90
  -5   6  -8    1.00    1.90
  -5   6  -8   -4.80    3.40
  -6  -6  -8  192.78   24.10
  -6   6  -8  209.58   17.60
   6   6   8  228.98   17.60
  -6   6  -8  229.28   20.30
  -7  -6  -8    1.60    9.90
   7  -6   8    7.80    6.40
   7  -6   8   -0.80    4.00
  -7   6  -8    1.50    4.30
  -8  -6  -8   52.29   18.20
   8  -6   8   44.70    6.90
  -8   6  -8   32.60    6.90
  10   7  -8   35.90    6.90
  10   7  -8   35.50    6.20
   9  -7  -8  133.79   11.80
  -9  -7   8  148.59   14.00
   9   7  -8  136.69   11.90
   9   7  -8  140.69   12.50
   8  -7  -8    7.00    3.50
  -8   7   8    3.80    3.60
   8   7  -8   -0.80    3.90
   7  -7  -8  214.98   16.50
  -7  -7   8  195.08   16.10
  -7  -7   8  193.98   20.00
   7   7  -8  204.68   17.80
  -7   7   8  210.58   15.90
  -7   7   8  222.78   17.50
   7   7  -8  196.98   17.40
  -6  -7   8    2.40    4.50
   6  -7  -8    0.70    2.50
  -6  -7   8   -1.90    2.00
   6   7  -8   -1.00    3.40
   6   7  -8    1.50    5.90
  -6   7   8   -5.00    3.00
  -6   7   8    3.60    2.20
   5  -7  -8  451.05   29.30
  -5  -7   8  426.06   30.80
   5   7  -8  366.46   30.70
  -5   7   8  419.86   31.00
   5   7  -8  403.66   30.30
  -4  -7   8   -1.80    2.50
   4  -7  -8   -0.90    1.70
   4   7  -8   -6.00    4.60
  -4   7   8    0.90    2.60
  -3  -7   8 1597.94  104.69
   3  -7  -8 1553.74  101.69
   3   7  -8 1549.94  103.29
  -3   7   8 1458.45  104.09
  -2  -7   8   -1.10    4.50
  -2  -7   8    8.00    4.30
  -2   7   8    5.10    3.50
   2   7  -8    3.20    2.10
  -1  -7   8 2141.89  162.78
  -1  -7   8 2528.45  163.08
  -1   7   8 2559.94  161.08
   1   7  -8 2289.67  161.08
   1   7  -8 2613.14  160.78
  -1   7   8 2483.35  158.68
   1   7  -8 2400.66  160.98
  -1   7   8 2422.86  162.38
   0  -7   8   -2.80    4.10
   0   7   8   -0.70    3.50
   0   7  -8    0.20    2.40
   0   7   8   -0.20    1.00
   1  -7   8  707.63   49.00
  -1  -7  -8  724.73   46.80
   1  -7   8  570.94   47.30
  -1   7  -8  681.63   46.40
   1   7   8  733.63   44.60
   1   7   8  639.34   46.10
   1   7   8  589.84   47.90
  -2  -7  -8   26.00    6.00
   2  -7   8   16.60    5.70
   2  -7   8    9.90    4.30
   2   7   8   16.30    3.30
   2   7   8   15.70    4.90
  -2   7  -8   27.30    6.10
  -3  -7  -8  107.19   11.80
   3  -7   8   96.19   12.10
   3   7   8   86.49    9.10
  -3   7  -8   97.59    9.90
   3   7   8   91.09   10.70
  -4  -7  -8    0.70    5.50
  -4   7  -8    1.00    2.10
   4   7   8    0.90    2.90
   5  -7   8  228.78   23.50
  -5  -7  -8  273.57   26.20
  -5   7  -8  268.27   21.70
  -5   7  -8  325.67   22.80
   5   7   8  289.67   21.70
  -6  -7  -8    2.30    8.30
  -6   7  -8    9.00    4.30
  -7  -7  -8  174.28   28.20
   7  -7   8  162.18   14.60
   7   7   8  195.88   14.40
  -7   7  -8  172.88   14.50
  -7   7  -8  178.18   16.00
  -8  -7  -8   12.20   17.30
   8  -7   8   -5.70    6.10
  -8   7  -8    6.00    5.30
 -10  -8   8   35.80    9.10
  -9  -8   8    1.80    6.90
   9   8  -8   10.90    4.60
   9   8  -8    4.00    3.90
  -8  -8   8  165.68   14.10
   8   8  -8  149.49   12.60
  -8   8   8  125.39   13.10
   8   8  -8  145.39   13.40
   6  -8  -8  446.66   31.50
  -6  -8   8  404.36   31.90
   6   8  -8  426.26   33.10
  -6   8   8  459.75   33.10
   6   8  -8  435.26   32.60
  -6   8   8  467.35   32.00
   5  -8  -8    5.80    2.50
  -5  -8   8    4.70    2.50
  -5  -8   8   -3.00    4.80
  -5   8   8    3.70    3.40
   5   8  -8   15.30    6.50
   5   8  -8    6.10    3.60
  -4  -8   8  720.13   50.59
   4  -8  -8  741.03   48.00
  -4   8   8  715.43   50.29
   4   8  -8  708.13   50.09
   4   8  -8  648.34   49.30
   3  -8  -8    3.10    3.60
  -3  -8   8   -5.00    3.50
  -3   8   8    0.50    0.90
  -3   8   8    1.20    3.20
  -2  -8   8  950.10   69.69
   2  -8  -8 1043.70   65.49
  -2   8   8  969.20   65.19
   2   8  -8  971.90   67.99
  -2   8   8  982.10   69.19
   2   8  -8 1050.09   68.19
  -1  -8   8   -0.40    4.70
  -1   8   8    3.00    1.20
   1   8  -8    2.70    2.40
  -1   8   8   -0.30    4.00
   1   8  -8    3.50    4.50
   0  -8  -8  797.02   50.69
   0  -8   8  730.33   53.49
   0   8  -8  662.53   50.99
   0   8   8  676.23   52.39
   0   8   8  772.42   49.00
   0   8  -8  751.22   49.90
   0   8   8  743.33   50.99
   1  -8   8    5.70    5.00
  -1   8  -8    5.50    2.70
   1   8   8    4.90    2.40
   1   8   8    6.30    4.10
   2  -8   8  453.05   34.80
  -2  -8  -8  423.66   33.80
   2   8   8  390.66   33.20
  -2   8  -8  460.95   32.00
   2   8   8  441.66   31.60
  -3  -8  -8    2.10    4.40
   3  -8   8   -1.00    4.20
   3   8   8    4.80    2.60
  -3   8  -8    5.90    2.40
  -3   8  -8    7.90    2.90
   3   8   8    4.10    4.00
   4  -8   8  338.67   30.20
  -4  -8  -8  350.66   31.10
  -4   8  -8  405.46   27.30
  -4   8  -8  337.37   28.80
   4   8   8  378.46   27.40
  -6  -8  -8  203.58   25.70
  -6   8  -8  209.78   18.00
   6   8   8  243.18   18.00
  -6   8  -8  244.78   19.80
   7  -8   8   -0.10    5.90
   7  -8   8    3.90    5.20
  -7  -8  -8    8.20   12.30
  -7   8  -8    6.70    4.90
  10   9  -8   42.80    8.80
   9   9  -8   77.89    8.80
   9   9  -8   95.29    8.90
   8   9  -8    9.30    3.70
   8   9  -8   14.80    4.50
   7  -9  -8  294.07   21.90
  -7  -9   8  305.87   24.90
  -7  -9   8  263.47   21.70
  -7   9   8  266.07   22.10
   7   9  -8  298.27   23.30
   6  -9  -8    7.00    3.40
  -6  -9   8    6.80    5.30
   6   9  -8    2.70    3.20
  -6   9   8    1.40    3.10
   6   9  -8    4.40    7.00
  -5  -9   8  606.84   44.30
   5  -9  -8  648.44   41.90
  -5   9   8  601.64   43.80
   5   9  -8  570.84   43.40
   5   9  -8  594.14   44.00
  -4   9   8   -0.80    3.30
   4   9  -8   -3.20    3.30
  -4   9   8   -0.50    1.30
   3  -9  -8  666.83   43.60
  -3  -9   8  598.94   46.10
  -3   9   8  603.54   45.30
   3   9  -8  631.44   44.40
   2  -9  -8   13.70    3.20
  -2  -9   8    3.90    5.40
  -2   9   8   13.70    3.10
   2   9  -8   11.30    3.00
  -2   9   8    7.40    4.00
   1  -9  -8  310.97   20.40
  -1  -9   8  278.77   24.30
  -1   9   8  281.27   19.80
   1   9  -8  292.77   22.40
  -1   9   8  285.67   21.90
   1   9  -8  272.87   21.80
  -1   9   8  256.57   23.10
   0  -9   8    3.10    4.50
   0   9   8    4.40    3.40
   0   9   8    4.20    2.50
  -1  -9  -8  516.15   34.50
   1  -9   8  475.55   37.50
   1   9   8  450.05   36.30
  -1   9  -8  454.55   34.80
   1   9   8  492.95   34.70
   2  -9   8    2.70    5.30
   2   9   8   12.10    4.40
   2   9   8    5.40    2.90
  -2   9  -8    2.20    2.50
  -3  -9  -8  611.04   43.70
   3  -9   8  526.95   44.50
   3   9   8  578.24   42.00
  -3   9  -8  603.24   42.30
   3   9   8  607.54   44.90
  -4  -9  -8    9.20    7.30
   4   9   8   22.30    5.60
   5  -9   8  173.88   17.10
  -5  -9  -8  192.68   22.10
   5   9   8  206.18   18.90
  -5   9  -8  185.68   16.20
  -6  -9  -8    2.70    8.60
   7  -9   8   25.50    6.90
  -7   9  -8   20.70    3.60
   9  10  -8   30.00    8.00
   9  10  -8   38.60    7.20
  -8 -10   8  120.29   13.20
   8  10  -8  132.39   11.30
   8  10  -8  126.39   11.10
   7 -10  -8    6.50    4.50
   7  10  -8    7.00    3.70
  -6 -10   8  306.87   25.10
   6 -10  -8  350.76   24.70
  -6 -10   8  337.57   28.60
   6  10  -8  353.66   26.50
  -6  10   8  304.77   25.20
   6  10  -8  343.77   25.90
   5 -10  -8    3.40    3.10
  -5 -10   8    7.80    3.40
  -5 -10   8    1.00    9.70
   5  10  -8    2.60    3.10
   5  10  -8   -1.00    6.30
  -5  10   8    1.00    3.10
   4 -10  -8  407.46   29.00
  -4 -10   8  417.36   32.50
  -4  10   8  400.96   31.20
   4  10  -8  435.76   31.40
  -3 -10   8   18.80    6.90
  -3 -10   8   12.90    4.90
   3  10  -8   19.80    4.70
  -3  10   8   14.40    4.30
  -3  10   8   13.40    3.60
  -2 -10   8  294.27   25.90
   2 -10  -8  312.27   21.70
   2  10  -8  316.97   23.90
  -2  10   8  291.97   24.30
   2  10  -8  304.57   24.10
  -1 -10   8   -2.10    4.30
  -1  10   8    0.90    3.10
   1  10  -8   -4.40    3.00
   1  10  -8    1.80    2.40
   0 -10   8  236.58   23.70
   0 -10  -8  264.57   19.40
   0  10   8  242.38   22.00
   0  10  -8  250.27   21.10
   0  10   8  290.77   18.60
   0  10   8  272.67   21.30
   1 -10   8    4.50    4.70
  -1  10  -8    1.80    2.80
   1  10   8    1.30    3.30
   1  10   8   10.20    4.50
   2 -10   8  564.94   49.30
  -2 -10  -8  662.73   45.20
  -2  10  -8  604.34   45.00
   2  10   8  609.34   48.70
   2  10   8  659.03   44.80
   3 -10   8    4.80    4.10
   3 -10   8   -1.20    3.70
  -3 -10  -8    6.10    4.30
   3  10   8    5.30    3.20
   3  10   8    7.10    3.30
  -4 -10  -8  376.66   31.00
   4 -10   8  330.77   28.20
   4  10   8  403.96   30.00
  -4  10  -8  357.26   28.30
   4  10   8  388.46   28.00
   5 -10   8   -2.40    4.80
  -5 -10  -8    3.90    6.30
   6 -10   8   54.19   10.30
  -6 -10  -8   71.09   18.00
   8  11  -8   37.20    7.00
   8  11  -8   43.30    7.90
  -7 -11   8  190.58   17.50
   7  11  -8  177.78   14.30
  -7  11   8  138.89   14.20
   7  11  -8  182.38   14.80
  -6 -11   8   15.00    6.20
  -6 -11   8    6.60    3.90
   6  11  -8    6.40    4.30
   5 -11  -8  322.27   23.10
  -5 -11   8  301.37   24.90
  -5 -11   8  324.47   27.60
   5  11  -8  335.07   25.80
  -5  11   8  299.67   24.70
  -4 -11   8    6.60    3.70
   4  11  -8    1.40    3.20
  -4  11   8   -0.80    3.20
  -3 -11   8  190.08   19.00
   3  11  -8  206.08   17.30
  -3  11   8  197.88   17.40
  -2 -11   8    8.30    4.40
  -2 -11   8   13.40    5.60
   2  11  -8    4.70    3.10
  -2  11   8    5.00    3.30
   2  11  -8    8.60    2.80
  -1 -11   8  271.37   25.80
   1  11  -8  307.27   23.90
  -1  11   8  287.77   21.10
  -1  11   8  323.97   24.20
   1  11  -8  317.47   24.00
  -1  11   8  302.97   24.90
   0 -11   8   -1.10    4.50
   0 -11   8   -4.20    4.90
   0  11   8   -0.30    1.20
   0  11   8   -4.80    3.10
   1 -11   8  437.66   39.30
  -1 -11  -8  540.75   36.20
   1  11   8  534.65   37.20
   1  11   8  495.05   42.60
  -1  11  -8  500.05   37.50
  -2 -11  -8   16.30    4.30
   2 -11   8    3.40    3.90
   2  11   8   10.00    3.70
   2  11   8    7.00    3.50
   3 -11   8  267.67   22.60
  -3 -11  -8  287.47   24.10
   3  11   8  285.67   23.40
   3  11   8  295.77   22.50
  -3  11  -8  266.47   22.60
   4  11   8   32.90    6.20
   4  11   8   34.90    6.90
  -5 -11  -8  104.19   16.70
   5  11   8  132.09   11.00
   5  11   8  123.19   11.90
  -6 -11  -8   15.00   10.40
   6  11   8    9.20    6.30
  -8 -12   8   66.89   13.20
   8  12  -8   95.89    9.60
   8  12  -8   96.59   10.50
  -7 -12   8   13.90    7.30
  -6 -12   8  133.89   12.40
   6  12  -8  118.99   11.00
  -5 -12   8   26.20    7.50
  -5 -12   8   36.50    8.50
  -4 -12   8  204.38   19.10
  -4 -12   8  195.58   19.60
   4  12  -8  189.78   16.40
  -4  12   8  156.58   15.40
  -3 -12   8   23.30    7.80
  -2 -12   8  354.06   32.10
  -2 -12   8  341.37   32.10
   2  12  -8  417.26   30.20
  -2  12   8  433.26   31.00
   2  12  -8  453.35   31.00
  -1 -12   8    1.50    4.70
  -1  12   8   -2.90    3.70
   1  12  -8    1.10    2.20
   0 -12   8  368.36   33.10
   0  12   8  452.55   31.60
   0  12  -8  386.26   30.80
   0  12   8  424.86   31.90
   1 -12   8   18.60    5.40
   1  12   8    9.50    3.40
   1  12   8    9.20    3.50
  -2 -12  -8  156.98   14.10
   2 -12   8  144.49   14.00
   2 -12   8  117.69   14.40
   2  12   8  151.68   14.40
  -2  12  -8  127.59   13.80
   2  12   8  163.38   14.30
   3 -12   8   -0.30    4.60
   3 -12   8   -4.30    5.50
   3  12   8    3.80    3.80
   4 -12   8  116.29   12.80
  -4 -12  -8  111.39   14.40
   4  12   8  146.19   11.70
   4  12   8  128.59   11.90
   5 -12   8    0.00    6.30
  -5 -12  -8    3.00    5.90
   5  12   8   11.20    5.20
  -7 -13   8   83.39   12.40
   7  13  -8   96.79   11.10
  -6 -13   8    5.20    7.10
   6  13  -8   13.50    4.90
  -5 -13   8  126.19   11.90
  -5 -13   8  151.08   14.90
   5  13  -8  111.79   11.10
  -3 -13   8  185.88   18.00
  -3 -13   8  158.58   15.30
   3  13  -8  177.58   15.00
   3  13  -8  195.28   15.20
  -3  13   8  164.78   14.70
  -2 -13   8   22.40    7.00
  -2 -13   8   13.50    5.70
  -1 -13   8  508.55   40.30
  -1  13   8  497.85   37.80
   1  13  -8  527.95   37.70
   1  13  -8  510.65   37.60
   0  13   8   12.80    3.70
   0  13   8    6.00    3.40
   0  13  -8    7.50    2.80
   1 -13   8  359.96   26.70
   1 -13   8  259.47   26.30
  -1  13  -8  330.07   25.30
   1  13   8  327.77   24.60
   1  13   8  311.27   25.50
   2 -13   8   -0.70    4.80
   2 -13   8   -3.30    5.80
   2  13   8    5.40    3.60
   2  13   8    2.50    4.10
   3 -13   8   48.50    9.50
   3 -13   8   33.50   12.50
   3  13   8   43.40    7.80
   3  13   8   54.59    7.10
   4 -13   8    3.40    6.10
   4  13   8    5.50    4.90
   4  13   8   -2.50    5.20
  -6 -14   8   75.79   12.40
   6  14  -8   71.39   10.40
  -5 -14   8   54.79   10.40
  -5 -14   8   42.40   11.30
  -4 -14   8  149.88   14.20
  -4 -14   8  148.09   15.20
   4  14  -8  144.09   12.40
   4  14  -8  158.08   13.00
  -3 -14   8   36.00    9.10
   3  14  -8   23.10    5.60
  -2 -14   8  276.27   24.40
  -2 -14   8  359.26   27.30
   2  14  -8  335.97   23.90
   2  14  -8  287.47   23.30
  -2  14   8  257.97   23.30
  -1 -14   8    8.70    5.00
   0 -14   8  117.59   13.70
   0  14  -8  115.49   11.50
   0  14   8  122.49   11.80
   0  14   8  118.49   11.40
   1  14   8   18.20    4.40
   1  14   8   12.70    4.20
   2 -14   8   55.29    9.60
   2 -14   8   51.79   10.80
   2  14   8   35.80    8.30
   2  14   8   66.39    8.30
   3 -14   8    9.00    6.30
   3  14   8   -1.60    4.80
   3  14   8   -5.70    5.30
  -4 -15   8    9.80    6.40
   4  15  -8    7.40    3.00
   4  15  -8    3.20    4.80
  -3 -15   8  105.19   13.70
  -3 -15   8   94.19   12.50
   3  15  -8  101.29   10.50
   3  15  -8  121.19   10.10
  -2 -15   8   19.70    7.20
   1  15  -8   49.80    6.90
   0 -15   8    4.90    7.10
   0 -15   8    9.10    5.90
   0  15   8   -2.50    4.40
   1 -15   8   86.19   12.00
  -1  15  -8   47.70    8.20
   1  15   8   69.89    9.20
   2 -15   8    1.40   22.40
   2  15   8   -7.60    5.40
   2  15   8   -0.60    5.10
  11   0  -9   90.89    8.50
  11   0  -9   88.09    8.60
  10   0  -9    3.10    3.90
   9   0  -9  160.88   14.60
   9   0  -9  178.08   15.00
  -9   0   9  164.98   16.10
  -8   0   9   14.10    5.20
  -7   0   9  350.76   26.20
  -7   0   9  327.67   26.90
   7   0  -9  369.96   25.30
   7   0  -9  331.57   25.80
   6   0  -9   -3.20    2.00
   6   0  -9   -4.40    3.20
  -6   0   9   -0.50    4.20
   5   0  -9 1532.65   94.89
   5   0  -9 1327.87   95.29
  -5   0   9 1437.86   96.59
   5   0  -9 1588.64   94.39
  -5   0   9 1269.17   96.19
   4   0  -9    1.50    2.80
  -4   0   9    2.60    3.20
  -4   0   9    1.70    3.50
  -3   0   9 2902.11  196.48
   3   0  -9 2861.01  195.68
   3   0  -9 2946.31  194.48
  -3   0   9 3245.78  195.48
  -3   0   9 2933.31  196.98
   2   0  -9   -0.10    0.90
  -2   0   9    2.40    2.70
  -2   0   9   -1.70    2.50
   2   0  -9    1.30    3.80
  -1   0   9 1848.32  126.69
   1   0  -9 1923.91  125.19
  -1   0   9 1999.60  125.59
  -1   0   9 1873.11  127.39
   0   0   9   -0.60    2.00
   0   0  -9   -0.10    1.30
   0   0   9   -4.40    3.10
   0   0   9   -0.40    2.30
   1   0   9  604.34   40.60
   1   0   9  602.94   39.70
   1   0   9  585.24   42.10
   1   0   9  594.94   41.40
   1   0   9  586.44   39.60
   1   0   9  633.14   40.60
   2   0   9   -2.00    1.90
   2   0   9    7.50    3.10
   2   0   9   -0.50    1.60
  -2   0  -9   -0.90    1.20
   3   0   9  397.76   27.30
   3   0   9  365.26   28.60
  -3   0  -9  414.96   27.50
   3   0   9  393.66   28.00
   4   0   9    2.30    1.70
  -4   0  -9   -0.90    1.40
   4   0   9   -1.80    1.20
  -4   0  -9    5.70    3.80
   4   0   9    0.30    2.20
   5   0   9  642.44   45.70
   5   0   9  680.33   45.70
  -5   0  -9  595.84   50.49
   5   0   9  655.03   45.20
   5   0   9  676.33   46.30
   5   0   9  687.13   45.00
   6   0   9    5.20    3.10
   6   0   9    1.00    2.50
   6   0   9   -0.20    2.40
   6   0   9   -1.00    2.50
  -6   0  -9   -6.30    5.80
   6   0   9    2.40    2.90
   7   0   9  191.68   15.00
  -7   0  -9  182.98   26.00
   7   0   9  182.38   16.00
   7   0   9  213.68   15.60
  -8   0  -9   -3.60   10.70
   8   0   9    4.30    3.80
   8   0   9    0.50    5.20
  11  -1  -9   -2.00    3.80
  11  -1  -9    6.00    4.80
  11   1  -9   11.30    4.50
  11   1  -9    1.40    3.70
  10  -1  -9  119.79   11.40
  10  -1  -9  137.89   11.90
 -10   1   9  128.09   11.70
  10   1  -9  132.59   11.90
  10   1  -9  139.09   11.40
   9  -1  -9    3.70    4.80
  -9  -1   9    6.90    3.30
   9   1  -9    5.60    3.30
  -9   1   9    3.10    6.70
   8  -1  -9  229.78   18.50
   8  -1  -9  241.58   19.10
  -8  -1   9  211.88   18.00
  -8  -1   9  213.28   19.80
  -8   1   9  238.78   20.40
  -8   1   9  247.08   18.00
   8   1  -9  245.68   18.70
   8   1  -9  218.78   18.90
  -7  -1   9    2.40    3.20
  -7  -1   9    2.80    4.30
   7  -1  -9    5.00    5.00
   7   1  -9   -1.70    2.30
  -7   1   9    8.00    4.60
   7   1  -9    2.90    4.60
   6  -1  -9  619.84   40.00
   6  -1  -9  595.64   39.20
  -6  -1   9  539.55   41.70
  -6  -1   9  578.64   41.70
   6  -1  -9  566.34   40.40
   6   1  -9  618.24   40.00
  -6   1   9  563.54   41.60
  -6   1   9  602.64   41.30
   6   1  -9  541.85   40.40
   5  -1  -9   15.90    4.00
  -5  -1   9   15.60    4.80
   5  -1  -9   13.70    2.90
  -5  -1   9   25.80    5.90
   5  -1  -9   13.20    2.90
  -5   1   9   22.60    6.20
   5   1  -9   13.10    3.00
   5   1  -9   17.60    4.70
  -5   1   9   12.50    4.10
   4  -1  -9 1861.61  123.09
   4  -1  -9 2155.78  122.59
  -4  -1   9 1755.02  124.69
   4  -1  -9 1833.12  123.69
  -4  -1   9 1898.41  125.39
  -4   1   9 1871.31  125.09
  -4   1   9 1790.72  124.89
   4   1  -9 1856.51  123.19
   4   1  -9 1827.22  123.99
  -3  -1   9    5.20    3.10
   3  -1  -9    3.20    0.70
   3  -1  -9    4.40    1.50
   3  -1  -9    4.30    1.40
  -3  -1   9    2.80    4.00
  -3  -1   9    2.20    4.00
  -3   1   9    7.30    3.20
  -3   1   9    1.10    3.40
  -3   1   9    7.50    2.70
   3   1  -9    2.60    3.00
   2  -1  -9 3147.08  209.08
  -2  -1   9 3519.95  209.08
  -2  -1   9 3031.60  210.48
  -2  -1   9 2977.20  209.68
  -2   1   9 3619.64  208.68
   2   1  -9 3187.48  209.68
  -2   1   9 3007.10  210.38
  -2   1   9 2980.70  209.88
   2   1  -9 3204.28  208.48
  -1  -1   9   -3.60    2.40
  -1  -1   9    0.30    2.40
  -1  -1   9   -2.70    3.10
  -1   1   9   -3.80    3.30
   1   1  -9   -0.10    1.30
  -1   1   9    0.70    2.00
  -1   1   9   -0.10    2.20
   0  -1   9 1488.75  100.39
   0  -1   9 1585.74   99.99
   0  -1   9 1472.35  101.29
   0  -1  -9 1526.75   99.09
   0   1   9 1495.55  100.79
   0   1   9 1566.84   99.19
   0   1  -9 1521.45   99.49
   0   1   9 1427.46  101.29
  -1  -1  -9   33.20    4.40
   1  -1   9   30.10    4.80
   1  -1   9   20.10    5.30
   1  -1   9   28.90    4.40
   1  -1   9   28.90    3.40
   1  -1   9   25.40    2.90
   1   1   9   25.50    6.00
   1   1   9   26.70    3.70
   1   1   9   23.60    3.30
  -1   1  -9   36.00    3.90
   1   1   9   23.00    4.60
   1   1   9   31.80    4.20
   2  -1   9  797.22   53.39
   2  -1   9  738.53   53.59
   2  -1   9  853.41   52.59
   2  -1   9  784.22   52.39
   2  -1   9  759.12   54.19
   2   1   9  808.52   52.89
   2   1   9  770.42   53.99
  -2   1  -9  795.02   52.89
   2   1   9  788.72   54.59
   2   1   9  761.72   52.49
   2   1   9  816.62   52.99
   3  -1   9   45.60    7.30
   3  -1   9   45.00    4.70
   3  -1   9   36.70    6.30
   3  -1   9   43.10    4.80
   3   1   9   44.20    5.10
   3   1   9   48.00    5.80
   3   1   9   34.70    6.90
   3   1   9   42.10    4.70
  -3   1  -9   46.90    5.50
  -4  -1  -9  589.34   46.20
   4  -1   9  614.04   42.10
   4  -1   9  627.94   42.10
   4  -1   9  599.54   42.90
   4  -1   9  609.94   41.90
   4  -1   9  635.44   43.90
   4   1   9  616.94   43.30
   4   1   9  591.24   41.80
   4   1   9  645.54   41.60
  -4   1  -9  629.54   42.40
  -4   1  -9  609.24   46.30
   4   1   9  606.74   43.20
   5  -1   9    1.70    2.30
   5  -1   9    6.00    2.30
   5  -1   9    4.70    2.40
  -5  -1  -9   -6.70    6.80
   5  -1   9    5.30    2.80
   5   1   9    6.80    2.30
   5   1   9    5.50    2.50
   5   1   9    3.40    2.20
   5   1   9    3.80    2.00
   5   1   9    5.40    2.70
  -5   1  -9   -5.90    5.50
   6  -1   9  396.96   26.80
   6  -1   9  368.16   26.50
   6  -1   9  365.76   26.10
   6  -1   9  360.76   27.20
  -6  -1  -9  361.66   34.00
   6  -1   9  362.66   26.90
   6   1   9  385.56   27.70
   6   1   9  387.56   26.10
   6   1   9  358.86   26.70
  -6   1  -9  343.97   32.70
   6   1   9  369.66   26.80
   6   1   9  355.06   26.80
   7  -1   9    9.90    3.30
   7  -1   9    3.10    2.80
  -7  -1  -9   -8.60    8.90
   7   1   9   -1.10    3.70
   7   1   9    2.30    3.40
  -7   1  -9   -2.40    8.80
   8  -1   9   57.09    7.20
  -8  -1  -9   32.90   14.60
   8  -1   9   48.00    6.70
   8   1   9   66.79    7.30
  -8   1  -9   71.09   20.80
  11  -2  -9   49.60    7.60
  11  -2  -9   56.09    7.20
  11   2  -9   69.69    7.60
  11   2  -9   72.59    7.00
  10  -2  -9   10.00    3.90
  10   2  -9   18.20    4.70
 -10   2   9    8.30    4.10
  10   2  -9    4.10    3.10
   9  -2  -9  204.88   17.10
  -9  -2   9  215.88   16.60
   9  -2  -9  181.68   16.50
   9   2  -9  196.38   16.50
   9   2  -9  193.08   16.50
  -8  -2   9   13.90    5.30
   8   2  -9    6.90    5.20
  -8   2   9   12.80    5.00
  -8   2   9   22.50    4.60
  -7  -2   9  513.95   40.90
   7  -2  -9  572.54   40.10
  -7  -2   9  530.65   41.20
   7   2  -9  577.94   40.30
   7   2  -9  600.44   39.70
  -7   2   9  573.54   41.30
  -7   2   9  593.74   40.20
   6  -2  -9   23.60    5.20
   6  -2  -9   25.00    4.40
  -6  -2   9   33.50    8.20
  -6  -2   9   29.90    6.90
  -6   2   9   31.90    7.80
   6   2  -9   24.20    4.30
   6   2  -9   25.10    6.20
  -6   2   9   24.80    5.10
   5  -2  -9 1281.87   84.09
  -5  -2   9 1286.97   86.09
   5  -2  -9 1390.36   82.79
  -5  -2   9 1144.69   85.09
  -5   2   9 1275.97   85.19
   5   2  -9 1221.08   84.49
  -5   2   9 1185.18   85.19
   5   2  -9 1285.17   83.79
   4  -2  -9   20.60    4.00
  -4  -2   9   25.20    6.10
  -4  -2   9   12.90    4.80
   4  -2  -9   18.90    2.00
   4  -2  -9   17.40    3.40
   4   2  -9   17.20    4.40
  -4   2   9   15.90    4.50
  -4   2   9   11.20    4.00
   4   2  -9   13.00    3.00
  -4   2   9   26.30    5.70
   3  -2  -9  887.11   59.79
  -3  -2   9  849.52   60.69
   3  -2  -9  923.31   59.39
  -3  -2   9  879.91   61.59
  -3   2   9  991.10   59.49
  -3   2   9  853.41   61.09
   3   2  -9  927.41   60.59
   3   2  -9  861.01   59.39
  -3   2   9  873.11   61.29
  -2  -2   9   68.69    8.70
   2  -2  -9   69.59    6.90
  -2  -2   9   74.39    7.50
  -2  -2   9   84.79    8.30
  -2   2   9   52.99    8.40
  -2   2   9   82.99    5.90
   2   2  -9   68.49    6.90
   2   2  -9   54.69    7.00
  -2   2   9   73.79    8.00
  -1  -2   9 1584.54  112.79
  -1  -2   9 1679.43  111.89
  -1  -2   9 1752.42  111.69
  -1   2   9 1806.12  110.49
   1   2  -9 1638.04  111.09
  -1   2   9 1661.33  112.59
   0  -2   9    5.70    3.60
   0  -2   9    4.70    2.40
   0  -2   9    2.40    3.50
   0   2   9    6.00    1.60
   0   2  -9    5.70    1.50
   0   2   9    3.50    2.70
   1  -2   9 1614.04  104.99
   1  -2   9 1762.32  107.99
   1  -2   9 1512.65  106.69
   1  -2   9 1531.15  105.49
   1   2   9 1800.12  104.99
   1   2   9 1467.75  106.49
   1   2   9 1482.05  104.79
  -1   2  -9 1590.64  105.19
   2  -2   9   39.50    7.70
   2  -2   9   37.00    6.70
   2  -2   9   47.80    5.20
   2  -2   9   37.70    5.10
   2   2   9   43.20    4.50
   2   2   9   45.70    4.40
   2   2   9   34.50    6.10
   2   2   9   43.10    5.50
   2   2   9   36.00    5.60
  -2   2  -9   49.10    5.30
   3  -2   9  799.22   54.99
   3  -2   9  820.72   53.79
   3  -2   9  803.42   53.79
   3  -2   9  788.42   55.89
   3   2   9  765.62   55.29
   3   2   9  764.52   53.59
   3   2   9  813.72   53.09
  -3   2  -9  829.52   53.99
   4  -2   9    6.70    3.10
   4  -2   9    6.50    3.00
  -4  -2  -9    7.10    4.90
   4   2   9   11.10    3.40
   4   2   9   11.10    2.20
  -4   2  -9   12.40    4.30
  -4   2  -9    7.60    2.70
   4   2   9    5.10    1.60
   5  -2   9  431.26   29.10
   5  -2   9  421.56   30.00
   5  -2   9  432.06   29.90
   5  -2   9  423.86   30.20
   5  -2   9  434.16   31.50
  -5  -2  -9  377.96   35.20
   5   2   9  432.76   31.70
   5   2   9  433.86   28.90
   5   2   9  406.96   29.70
  -5   2  -9  434.06   30.30
   5   2   9  422.06   30.20
  -5   2  -9  377.66   34.60
   6  -2   9   -2.90    2.30
   6  -2   9    1.10    3.00
   6  -2   9   -2.70    3.20
   6  -2   9    0.20    2.80
   6   2   9    1.30    3.10
   6   2   9   -2.40    2.90
   6   2   9   -3.50    2.30
   6   2   9    2.20    2.30
   6   2   9   -0.10    3.00
  -6   2  -9    1.90    5.90
   7  -2   9  114.99   10.50
   7  -2   9  105.69   10.60
  -7  -2  -9  105.79   21.80
  -7   2  -9  106.19   18.60
   7   2   9  120.09   10.60
   7   2   9  111.19   10.90
  -8  -2  -9   -8.00   12.30
   8  -2   9   -0.50    3.80
  -8   2  -9   -1.20    8.90
  11   3  -9    8.10    4.80
  11   3  -9   12.00    4.20
  10  -3  -9   86.09    9.30
  10  -3  -9  104.09    9.20
  10   3  -9  108.49   10.00
  10   3  -9  108.09    9.20
 -10   3   9   95.09   10.20
  -8  -3   9  382.76   31.00
  -8  -3   9  394.16   28.70
   8  -3  -9  391.36   29.80
   8   3  -9  409.06   29.80
   8   3  -9  417.66   30.40
  -8   3   9  417.66   29.30
  -8   3   9  418.96   31.40
  -7  -3   9    4.60    4.60
   7  -3  -9    2.10    4.30
  -7  -3   9   -1.80    3.40
  -7   3   9    4.10    2.10
  -7   3   9    4.40    3.90
   7   3  -9    0.10    2.20
   7   3  -9    6.70    5.30
  -6  -3   9 1005.80   73.49
   6  -3  -9 1060.19   69.99
  -6  -3   9  968.00   72.69
   6  -3  -9 1071.79   71.39
  -6   3   9 1034.40   72.99
   6   3  -9 1153.58   71.49
   6   3  -9 1047.90   72.09
  -6   3   9 1124.39   72.29
  -5  -3   9    1.00    3.60
   5  -3  -9    1.90    2.10
   5  -3  -9   -1.70    3.00
  -5  -3   9   -1.20    4.00
   5   3  -9    2.90    3.70
  -5   3   9    2.40    3.30
  -5   3   9   -3.20    2.80
   4  -3  -9  540.95   34.20
  -4  -3   9  484.95   35.40
   4  -3  -9  494.95   34.00
  -4  -3   9  507.85   36.60
   4   3  -9  489.35   34.30
   4   3  -9  473.35   34.90
  -4   3   9  471.65   35.60
  -4   3   9  503.55   33.90
  -4   3   9  507.75   35.70
  -3  -3   9   83.29    8.20
  -3  -3   9   73.29    9.30
   3  -3  -9   88.79    7.20
   3  -3  -9   83.59    7.40
   3   3  -9   69.19    7.80
   3   3  -9   67.19    7.60
  -3   3   9   80.79    8.80
  -3   3   9   66.29    8.80
  -3   3   9   92.39    6.70
  -2  -3   9  583.84   43.50
   2  -3  -9  596.24   41.10
  -2  -3   9  651.53   42.50
   2   3  -9  624.84   41.80
  -2   3   9  585.64   42.90
   2   3  -9  642.54   41.00
  -1  -3   9   34.70    5.00
  -1  -3   9   30.10    3.00
  -1  -3   9   22.90    6.30
  -1   3   9   31.50    5.50
   1   3  -9   28.40    3.90
   0  -3   9 2414.16  157.68
   0  -3   9 2341.77  158.28
   0  -3   9 2295.97  159.58
   0   3  -9 2407.86  158.08
   0   3  -9 2690.93  159.18
   0   3   9 2397.66  157.28
   0   3   9 2282.57  159.58
   1  -3   9    7.60    2.30
   1  -3   9    4.10    2.50
   1  -3   9    4.50    3.80
   1  -3   9    1.60    3.70
   1   3   9    3.00    3.20
   1   3   9    2.60    1.40
   1   3   9    2.10    2.30
  -1   3  -9    4.90    1.50
  -2  -3  -9 2141.89  143.99
   2  -3   9 2207.08  143.39
   2  -3   9 2148.39  140.79
   2  -3   9 2257.17  141.09
   2  -3   9 2060.49  142.29
   2   3   9 2056.99  140.89
   2   3   9 2024.70  142.79
  -2   3  -9 2098.89  141.09
   2   3   9 2253.87  140.69
   3  -3   9    5.50    3.20
   3  -3   9    6.10    3.60
  -3  -3  -9   -2.20    3.60
   3  -3   9    2.60    5.90
   3  -3   9    0.60    1.60
  -3   3  -9    7.00    2.00
   3   3   9    0.20    2.30
   3   3   9    3.10    1.40
   3   3   9    3.30    2.90
   4  -3   9  810.72   56.19
   4  -3   9  788.92   53.19
   4  -3   9  818.22   54.59
  -4  -3  -9  726.53   57.79
   4   3   9  772.32   55.89
   4   3   9  764.12   53.69
   4   3   9  814.12   52.69
  -4   3  -9  805.42   57.89
  -4   3  -9  826.32   54.19
  -5  -3  -9   -7.80    6.50
   5  -3   9    0.70    1.90
   5  -3   9   -3.10    2.20
  -5   3  -9   -2.50    4.10
   5   3   9   -4.80    2.80
  -5   3  -9    1.20    1.90
   6  -3   9  101.99   10.20
   6  -3   9  107.99   11.20
  -6  -3  -9   88.49   18.80
  -6   3  -9  118.39   10.20
  -6   3  -9  106.09   14.80
   6   3   9   93.29    8.70
   6   3   9  122.19   11.50
   6   3   9  104.79    9.50
  -7  -3  -9   -3.70    9.60
   7  -3   9   -5.00    3.60
   7   3   9   -2.70    5.50
  -7   3  -9   -4.70    5.60
   7   3   9   -4.20    4.90
   8  -3   9   27.60    4.90
  -8  -3  -9   24.80   14.70
   8  -3   9   24.60    6.80
  -8   3  -9   18.30    8.60
  11   4  -9   36.80    7.60
  10  -4  -9    3.10    4.10
  10   4  -9    7.10    3.50
   9  -4  -9  179.98   14.80
  -9   4   9  171.28   19.00
   9   4  -9  188.78   15.90
   9   4  -9  189.18   15.90
   8  -4  -9    9.20    4.20
  -8   4   9    5.50    2.90
   8   4  -9    7.90    5.40
  -7  -4   9  546.25   43.90
  -7  -4   9  646.54   42.60
   7  -4  -9  624.64   42.90
   7   4  -9  641.84   42.90
  -7   4   9  643.94   42.80
   7   4  -9  565.84   43.30
  -7   4   9  596.94   44.00
   6  -4  -9   10.50    3.10
  -6  -4   9    1.80    2.00
  -6  -4   9    8.60    5.00
  -6  -4   9   -3.90    4.40
   6   4  -9    5.30    5.70
  -6   4   9    5.70    4.20
  -6   4   9    5.10    2.40
   6   4  -9    4.60    2.10
  -5  -4   9 1048.70   72.59
  -5  -4   9 1008.00   73.69
   5  -4  -9 1060.59   70.99
  -5   4   9 1101.09   72.49
   5   4  -9 1043.50   71.99
  -5   4   9 1079.29   72.89
   5   4  -9 1081.19   71.29
   4  -4  -9    1.00    2.30
  -4  -4   9    1.10    4.70
  -4  -4   9    3.70    3.80
   4  -4  -9    3.00    2.40
  -4   4   9   -1.90    3.30
   4   4  -9   -4.40    3.30
  -4   4   9    0.60    3.50
  -3  -4   9  447.86   33.30
   3  -4  -9  440.06   30.40
  -3  -4   9  487.35   32.00
   3  -4  -9  469.15   31.00
   3   4  -9  435.46   32.00
   3   4  -9  408.76   31.10
  -3   4   9  436.06   32.50
   2  -4  -9  102.89    8.20
  -2  -4   9  124.79   10.10
  -2  -4   9  102.59   11.60
   2  -4  -9  118.09    9.00
  -2  -4   9  109.69    8.50
   2   4  -9   98.59    9.10
  -2   4   9  111.09   11.00
   2   4  -9  105.59    9.30
   1  -4  -9 1128.19   71.69
  -1  -4   9 1128.19   74.59
  -1  -4   9 1060.59   72.69
  -1  -4   9 1070.79   71.79
  -1  -4   9 1028.80   74.19
  -1   4   9 1015.80   73.99
   1   4  -9 1195.08   77.29
   1   4  -9 1071.69   72.59
   0  -4   9  101.89   11.40
   0  -4   9  121.69    9.40
   0  -4   9   97.49   11.90
   0  -4   9  119.09    9.60
   0   4  -9  117.79   10.60
   0   4  -9  113.49    9.40
   0   4   9  101.19   11.20
   0   4   9  118.79    9.40
   0   4   9  118.49    8.00
   1  -4   9 2002.10  132.49
   1  -4   9 1891.61  131.59
   1  -4   9 2079.69  130.39
   1   4   9 1839.12  131.89
  -1   4  -9 1986.10  130.29
   1   4   9 2130.29  129.29
   1   4   9 1864.51  130.09
  -2  -4  -9    5.50    4.30
   2  -4   9    4.40    2.90
   2  -4   9   -4.90    3.30
   2  -4   9   -1.10    2.50
   2  -4   9   -0.90    3.40
   2   4   9    0.60    1.70
   2   4   9   -1.60    1.60
  -2   4  -9    4.80    1.80
   3  -4   9  943.01   65.99
   3  -4   9  932.21   62.49
   3  -4   9  953.40   64.59
  -3  -4  -9  911.31   66.69
   3   4   9  933.61   65.89
   3   4   9  957.20   63.39
  -3   4  -9  953.90   63.69
   4  -4   9   -2.50    3.60
   4  -4   9   -0.80    2.20
   4  -4   9    0.10    1.70
  -4  -4  -9   -4.50    4.60
   4   4   9    0.90    1.70
   4   4   9    1.50    3.10
  -4   4  -9    2.30    2.00
   4   4   9    1.30    1.90
   5  -4   9  249.58   21.60
   5  -4   9  283.27   19.60
  -5  -4  -9  252.47   25.60
   5   4   9  261.77   21.80
   5   4   9  262.97   19.50
  -5   4  -9  270.97   20.20
   5   4   9  240.78   19.50
  -5   4  -9  226.88   23.40
  -6  -4  -9    3.30    8.40
   6  -4   9    0.40    3.50
   6  -4   9   -3.40    3.70
  -6   4  -9   -6.00    4.20
   6   4   9    2.60    5.40
  -6   4  -9    2.60    1.60
   7  -4   9   68.39   18.90
   7  -4   9   83.39    7.80
  -7  -4  -9   84.39   21.10
   7   4   9   59.69    9.80
   7   4   9   96.59    7.80
  -7   4  -9   79.69    8.20
  -7   4  -9   74.09   13.40
  -8  -4  -9   -1.40   14.40
  -8   4  -9    3.60    7.50
  11   5  -9   34.70    8.00
  10   5  -9  114.89    9.50
  10   5  -9  100.59    9.90
   9   5  -9   18.30    5.00
  -8  -5   9  237.28   18.20
  -8  -5   9  217.78   20.20
   8  -5  -9  256.77   19.40
  -8   5   9  266.47   21.00
   8   5  -9  245.08   20.10
   8   5  -9  260.27   19.70
  -8   5   9  238.38   18.30
  -7  -5   9   11.50    4.50
  -7  -5   9    6.90    2.10
   7   5  -9   13.40    6.20
   7   5  -9    7.00    3.50
  -6  -5   9  388.06   31.40
  -6  -5   9  437.66   30.60
   6  -5  -9  425.06   29.80
  -6   5   9  425.56   31.90
  -6   5   9  442.56   30.60
   6   5  -9  408.86   30.10
   6   5  -9  397.26   31.10
   5  -5  -9    1.70    1.70
  -5  -5   9   -3.20    2.30
  -5  -5   9    2.90    4.10
  -5   5   9   -0.80    3.50
  -5   5   9   -1.70    2.80
   5   5  -9   -1.00    5.00
  -4  -5   9  820.62   54.89
  -4  -5   9  761.42   56.59
   4  -5  -9  816.52   53.19
   4  -5  -9  740.83   53.99
  -4  -5   9  820.82   55.19
   4   5  -9  781.32   54.79
  -4   5   9  821.72   55.49
   4   5  -9  771.82   53.79
  -3  -5   9  194.18   18.00
   3  -5  -9  218.38   15.20
  -3  -5   9  197.08   16.80
  -3  -5   9  194.28   14.50
   3  -5  -9  190.78   14.20
  -3  -5   9  196.88   15.90
   3   5  -9  178.38   15.90
   3   5  -9  182.28   15.20
  -3   5   9  194.78   16.60
  -2  -5   9 1882.31  121.99
   2  -5  -9 1913.81  121.49
  -2  -5   9 1878.91  123.39
  -2  -5   9 1948.01  121.09
  -2  -5   9 1803.02  123.79
   2   5  -9 1762.12  121.49
  -2   5   9 1824.02  123.29
   2   5  -9 1672.53  121.79
  -1  -5   9    4.00    4.80
   1  -5  -9    5.80    2.10
  -1  -5   9    5.10    2.50
  -1  -5   9    3.70    2.50
  -1  -5   9    2.50    4.00
   1   5  -9    2.10    1.50
  -1   5   9    1.50    3.20
   1   5  -9    2.40    5.90
   0  -5   9 2007.10  133.69
   0  -5   9 1929.01  133.89
   0  -5  -9 2139.69  131.19
   0  -5   9 1898.21  131.39
   0  -5   9 2066.49  131.79
   0   5   9 1933.91  130.19
   0   5  -9 1923.31  131.89
   0   5   9 1986.10  131.69
   0   5  -9 2200.18  132.29
   0   5   9 1841.42  133.49
   1  -5   9   -0.10    2.60
   1  -5   9   -3.00    3.80
   1  -5   9   -0.50    3.90
   1   5   9    1.30    3.30
  -1   5  -9    3.70    1.70
   1   5   9   -3.10    4.00
   2  -5   9  854.81   58.59
   2  -5   9  830.22   55.79
   2  -5   9  813.82   57.09
  -2  -5  -9  773.82   56.59
   2  -5   9  821.12   53.19
   2   5   9  758.02   54.19
   2   5   9  740.63   56.49
   2   5   9  802.72   53.39
  -2   5  -9  794.12   54.39
   3  -5   9   27.40    8.50
  -3  -5  -9   22.90    7.20
   3  -5   9   23.90    5.40
   3  -5   9   21.00    3.40
   3   5   9   29.30    6.50
   3   5   9   27.40    3.80
   4  -5   9  231.48   20.80
  -4  -5  -9  225.08   23.30
   4  -5   9  264.27   19.00
   4   5   9  208.18   20.20
   4   5   9  240.58   18.10
  -4   5  -9  244.08   21.20
  -4   5  -9  252.17   18.80
   5  -5   9   -2.80    3.40
  -5  -5  -9    0.50    6.40
   5  -5   9    0.80    2.90
   5   5   9    1.90    3.60
  -5   5  -9    2.70    1.90
  -5   5  -9   -1.30    3.70
   5   5   9    4.10    2.60
   6  -5   9  136.79   13.90
  -6  -5  -9  129.59   22.20
   6  -5   9  154.38   12.90
  -6   5  -9  152.48   13.00
   6   5   9  178.88   13.40
  -6   5  -9  155.98   16.30
   6   5   9  132.69   14.00
   7  -5   9   22.70    9.50
  -7  -5  -9    5.30   11.30
   7  -5   9    9.00    4.20
  -7   5  -9    7.60    2.20
  -7   5  -9    3.50    4.60
  -8  -5  -9   49.30   18.80
   8  -5   9   33.30    6.40
   8  -5   9   52.59    8.40
  -8   5  -9   70.29   13.90
  10   6  -9   12.40    4.90
   9  -6  -9  127.29   10.60
   9   6  -9  118.09   11.70
   9   6  -9  125.69   10.80
   8   6  -9   10.50    4.40
  -7  -6   9  202.68   16.30
   7  -6  -9  213.48   16.90
  -7   6   9  231.18   18.40
  -7   6   9  212.68   16.30
   7   6  -9  204.08   17.20
   7   6  -9  196.88   17.50
   6  -6  -9   -0.80    2.40
   6   6  -9   -1.30    2.00
  -6   6   9    0.80    3.60
   6   6  -9    1.00    5.30
  -6   6   9   -0.20    2.20
   5  -6  -9  809.52   51.99
  -5  -6   9  750.72   53.59
  -5  -6   9  788.92   53.69
   5   6  -9  752.32   52.59
  -5   6   9  775.12   53.59
  -5   6   9  759.02   54.19
   5   6  -9  719.33   53.39
   4  -6  -9   -2.00    2.30
  -4  -6   9    0.40    2.70
  -4  -6   9    1.90    3.20
  -4   6   9    3.70    3.50
   4   6  -9   -6.90    5.20
   4   6  -9   -1.60    1.50
  -3  -6   9 2219.18  146.49
  -3  -6   9 1988.80  147.39
   3  -6  -9 2167.78  145.09
  -3  -6   9 2369.66  145.29
  -3  -6   9 2274.07  145.39
   3  -6  -9 2180.78  143.59
   3   6  -9 2132.59  145.89
  -3   6   9 2197.68  146.49
   3   6  -9 2155.58  145.09
  -2  -6   9   -2.60    3.10
  -2  -6   9    0.20    2.70
  -2  -6   9   -1.20    5.00
   2  -6  -9    3.60    2.90
  -2  -6   9    4.20    2.60
   2   6  -9   -2.10    1.60
  -2   6   9    0.60    3.40
  -1  -6   9  928.01   61.39
  -1  -6   9  860.01   63.79
  -1  -6   9  972.40   61.59
   1  -6  -9  974.80   61.39
  -1  -6   9  870.31   63.59
   1   6  -9  885.61   61.99
  -1   6   9  880.91   63.49
   0  -6   9   27.30    7.80
   0  -6   9   30.10    4.50
   0  -6   9   22.10    6.00
   0  -6   9   42.50    6.30
   0  -6  -9   29.70    5.10
   0   6  -9   40.60    6.10
   0   6  -9   30.10    5.30
   0   6   9   36.10    7.40
   0   6   9   34.90    3.40
  -1  -6  -9  391.06   28.80
   1  -6   9  388.66   30.60
   1  -6   9  413.26   29.80
  -1  -6  -9  376.26   27.40
   1  -6   9  400.26   26.70
   1   6   9  399.86   26.20
   1   6   9  367.06   29.80
  -1   6  -9  388.96   27.90
   1   6   9  351.76   27.40
  -2  -6  -9    2.80    2.90
   2  -6   9    3.60    3.70
   2  -6   9    3.80    4.50
   2   6   9    3.40    1.80
  -2   6  -9    5.90    2.50
   2   6   9    6.80    4.40
  -3  -6  -9  340.07   27.70
   3  -6   9  343.87   27.70
   3  -6   9  351.26   26.00
  -3   6  -9  342.37   25.10
   3   6   9  317.27   27.00
   3   6   9  335.07   24.60
  -4  -6  -9    0.70    5.60
   4   6   9   -0.40    2.10
   4   6   9    0.50    3.60
  -4   6  -9   -2.70    3.10
  -4   6  -9    2.40    2.10
   5  -6   9  292.27   25.60
  -5  -6  -9  310.27   29.20
   5   6   9  267.47   25.40
   5   6   9  332.97   23.10
  -5   6  -9  297.27   23.10
  -5   6  -9  325.37   26.00
  -6  -6  -9    7.90    9.30
  -6   6  -9   13.80    4.50
   6   6   9    5.50    4.90
  -6   6  -9   20.20    4.70
   7  -6   9  122.59   14.20
  -7  -6  -9  133.59   26.40
   7  -6   9  161.48   12.80
  -7   6  -9  163.48   15.80
  -7   6  -9  143.69   12.70
  -8   6  -9    6.20    5.40
  -8   6  -9    0.20    3.30
 -10  -7   9   27.20    8.80
  10  -7  -9   16.90    5.90
 -10   7   9   24.30    6.30
   9   7  -9   21.80    6.00
  -8  -7   9  152.38   16.90
   8  -7  -9  146.59   12.40
   8   7  -9  153.98   14.10
   8   7  -9  160.18   14.50
  -8   7   9  138.59   13.20
  -7  -7   9   -0.30    2.60
   7  -7  -9    3.80    3.10
  -7  -7   9   11.50    5.60
   7   7  -9    0.30    5.20
  -7   7   9    3.20    3.30
   7   7  -9    3.60    2.60
   6  -7  -9  292.87   20.70
  -6  -7   9  278.47   21.50
  -6   7   9  283.17   21.50
  -6   7   9  278.17   22.50
   6   7  -9  257.07   22.40
   6   7  -9  279.77   21.90
   5  -7  -9   12.00    2.40
  -5  -7   9    5.30    2.90
  -5   7   9   11.00    4.50
   5   7  -9    7.90    2.40
   5   7  -9    7.40    5.70
   4  -7  -9 1123.79   69.59
  -4  -7   9 1071.79   72.19
   4   7  -9  974.00   70.69
  -4   7   9 1041.20   72.19
   4   7  -9  992.20   71.59
  -3  -7   9   -4.50    4.80
  -3  -7   9    8.00    3.30
  -3  -7   9    4.60    4.30
   3   7  -9    2.00    1.70
  -3   7   9    9.80    5.10
  -2  -7   9 1687.43  108.69
  -2  -7   9 1621.44  106.19
   2   7  -9 1610.64  106.49
  -2   7   9 1550.54  108.09
   2   7  -9 1490.15  106.59
  -1  -7   9   -3.10    4.20
  -1  -7   9   -1.60    1.50
  -1   7   9    0.90    4.30
   1   7  -9   -1.90    1.70
   0  -7   9  549.35   46.10
   0  -7   9  620.34   47.00
   0  -7  -9  684.23   44.90
   0   7   9  651.73   44.20
   0   7  -9  654.13   44.10
   0   7   9  611.34   46.30
   0   7   9  732.03   42.50
   0   7  -9  592.84   44.50
  -1  -7  -9   13.90    4.10
   1  -7   9    2.30    4.20
   1  -7   9    7.80    5.00
  -1   7  -9    6.90    2.60
   1   7   9    9.10    2.30
   1   7   9   14.20    4.50
   2  -7   9  318.47   26.50
  -2  -7  -9  342.67   25.40
   2  -7   9  287.57   24.50
   2   7   9  316.57   23.20
  -2   7  -9  322.67   23.80
   2   7   9  291.57   25.20
  -3  -7  -9    2.10    4.60
   3  -7   9    4.90    4.70
   3   7   9    1.60    3.60
   3   7   9    4.90    2.30
  -3   7  -9    4.10    2.30
   4  -7   9  316.67   28.30
  -4  -7  -9  307.17   29.80
   4   7   9  328.87   25.30
  -4   7  -9  364.96   25.90
  -4   7  -9  373.36   27.20
  -5  -7  -9    6.00    7.40
   5   7   9   18.20    5.00
   6  -7   9  152.58   14.90
  -6  -7  -9  167.68   22.40
  -6   7  -9  194.58   15.90
  -6   7  -9  156.18   14.30
   6   7   9  189.68   13.80
   7  -7   9   -8.50    5.10
  -7  -7  -9    3.40   11.60
   7  -7   9    2.70    6.20
  -7   7  -9   -0.80    4.60
  10   8  -9   44.00    8.20
  -9  -8   9  111.89   13.40
   9   8  -9  136.69   10.60
   9   8  -9  106.39   10.90
   7  -8  -9  216.88   16.30
  -7  -8   9  195.38   16.00
  -7   8   9  217.48   16.20
   7   8  -9  195.98   17.00
  -7   8   9  200.48   17.50
   7   8  -9  195.88   17.50
  -6  -8   9    4.80    2.90
   6  -8  -9   -2.50    2.90
  -6   8   9    0.40    2.90
   6   8  -9    2.30    5.40
   5  -8  -9  530.85   34.60
  -5  -8   9  475.65   36.80
   5   8  -9  478.85   35.90
  -5   8   9  508.25   36.90
   5   8  -9  483.85   36.80
  -4  -8   9   12.00    4.90
  -4   8   9   15.90    4.60
   4   8  -9    8.90    2.80
   4   8  -9   21.70    6.40
   3  -8  -9  955.00   64.59
  -3  -8   9 1009.80   68.79
   3   8  -9  963.10   66.59
  -3   8   9  969.30   68.19
  -2  -8   9   -2.20    4.70
  -2   8   9   -3.30    3.50
   2   8  -9    1.90    2.30
  -1  -8   9  624.34   45.70
   1  -8  -9  646.84   42.80
   1   8  -9  577.84   43.40
  -1   8   9  613.14   45.00
  -1   8   9  637.14   43.00
   1   8  -9  590.64   42.90
   0  -8   9    0.20    4.20
   0   8   9    4.70    3.60
   0   8  -9    1.00    2.40
   0   8   9    0.90    1.90
  -1  -8  -9  289.97   24.20
   1  -8   9  304.07   25.10
   1   8   9  234.18   23.30
   1   8   9  304.57   21.70
  -1   8  -9  289.47   22.20
   2  -8   9    1.90    4.40
  -2  -8  -9    4.00    3.90
   2   8   9   -1.20    3.30
  -2   8  -9    5.50    2.60
   3  -8   9  395.96   32.50
  -3  -8  -9  419.66   32.60
   3   8   9  390.26   29.50
  -3   8  -9  415.36   29.90
   3   8   9  377.46   32.10
   4  -8   9    2.60    5.30
  -4  -8  -9    8.00    6.60
   4   8   9   12.60    3.80
  -5  -8  -9  208.58   23.60
   5  -8   9  171.68   17.40
   5   8   9  233.68   16.00
   5   8   9  195.48   17.30
  -5   8  -9  191.38   16.60
  -6  -8  -9    1.60    9.10
   6  -8   9   12.80    5.40
   6   8   9   -3.00    5.60
  -6   8  -9    6.00    4.60
   7  -8   9   50.69   12.70
  -7  -8  -9   92.99   27.50
   7  -8   9   51.69    7.80
  -7   8  -9   39.90    7.30
   9   9  -9   35.20    6.80
   9   9  -9   35.50    8.10
   8   9  -9  165.48   13.30
   8   9  -9  163.08   14.30
  -7  -9   9    3.40    3.80
   7  -9  -9    0.00    4.00
  -7   9   9    3.60    5.50
   7   9  -9    6.00    4.40
   7   9  -9    8.50    4.50
  -6  -9   9  331.17   27.40
   6  -9  -9  386.86   26.30
  -6   9   9  343.67   27.60
   6   9  -9  365.86   27.40
   6   9  -9  359.66   27.90
  -5  -9   9   15.50    6.40
  -5  -9   9    6.80    3.40
   5  -9  -9    9.70    2.90
  -5   9   9    0.50    3.60
   5   9  -9   10.00    5.40
   5   9  -9   15.60    4.40
  -4  -9   9  329.87   27.30
   4  -9  -9  341.77   23.80
   4   9  -9  343.97   26.10
  -4   9   9  339.47   26.60
   3  -9  -9   -3.70    3.60
  -3   9   9   -3.80    2.90
   2  -9  -9  297.87   20.10
  -2  -9   9  238.98   23.00
  -2   9   9  257.67   22.20
   2   9  -9  269.37   20.90
   2   9  -9  273.87   21.30
  -1  -9   9    7.60    4.70
  -1   9   9    2.30    3.50
   1   9  -9    6.40    2.60
   0  -9   9  549.35   44.10
   0  -9  -9  642.94   41.00
   0   9   9  622.84   41.30
   0   9  -9  540.25   41.50
   0   9   9  537.75   42.80
   1  -9   9    1.40    4.90
  -1  -9  -9    3.90    2.40
  -1   9  -9    1.00    2.20
   1   9   9   -1.10    2.10
   1   9   9   -1.50    3.90
  -2  -9  -9  613.74   43.10
   2  -9   9  597.94   45.00
  -2   9  -9  586.94   42.00
   2   9   9  587.84   41.70
   2   9   9  523.15   44.30
   3   9   9   22.00    5.80
   3   9   9   20.30    5.10
   4  -9   9  338.57   28.20
  -4  -9  -9  328.77   29.30
  -4   9  -9  325.07   25.90
   4   9   9  345.47   27.50
   4   9   9  351.16   25.80
  -5  -9  -9    3.30    6.80
  -5   9  -9   12.60    4.90
   5   9   9   26.30    7.50
   6  -9   9   67.39   10.60
  -6  -9  -9   64.69   19.90
  -9 -10   9   47.50   12.60
  -8 -10   9   53.29   11.00
   8  10  -9   47.20    8.30
  -7 -10   9  242.98   21.30
   7 -10  -9  211.18   18.20
   7  10  -9  254.07   18.70
   7  10  -9  252.77   19.80
   5 -10  -9  234.88   17.00
  -5 -10   9  236.48   19.60
  -5  10   9  204.28   19.10
   5  10  -9  236.08   18.90
  -4 -10   9    0.00    5.70
  -4 -10   9    0.20    3.60
   4 -10  -9   -0.60    2.70
   4  10  -9   -2.70    2.80
  -3 -10   9  136.59   15.80
   3  10  -9  173.08   14.10
  -3  10   9  145.39   14.70
   3  10  -9  151.98   13.90
  -2 -10   9   -1.00    5.20
  -2 -10   9   -1.40    4.80
   2  10  -9    3.70    2.70
   1 -10  -9  324.37   27.50
  -1 -10   9  338.47   29.10
   1  10  -9  378.36   26.80
  -1  10   9  331.47   27.70
   0 -10   9    4.90    4.40
   0 -10   9   -0.50    4.40
   0  10   9   -1.40    3.10
   0  10   9   -1.40    3.30
   0  10  -9   -0.10    2.50
  -1 -10  -9  630.34   42.80
   1 -10   9  513.45   51.59
   1  10   9  647.44   43.00
  -1  10  -9  574.34   43.50
  -2 -10  -9    5.60    3.10
   2 -10   9    1.20    3.90
   2 -10   9   -3.60    4.00
   2  10   9   -1.60    3.40
   2  10   9    3.30    3.00
   3 -10   9  320.57   29.90
  -3 -10  -9  373.36   30.50
  -3  10  -9  371.76   28.40
   3  10   9  386.26   27.90
   3  10   9  388.56   29.70
   4 -10   9    1.30    4.60
  -4 -10  -9    3.40    5.50
   4  10   9    8.20    4.40
  -4  10  -9   -0.70    2.20
  -5 -10  -9   85.09   15.90
   5  10   9  104.69    9.50
   5  10   9   85.19   10.60
   6 -10   9    2.80    6.20
  -6 -10  -9   12.50   11.50
   6  10   9    5.50    6.20
   8  11  -9  104.09   10.30
   8  11  -9  119.49   11.60
  -7 -11   9   37.30    9.30
   7  11  -9   46.80    7.80
   7  11  -9   25.60    6.40
  -6 -11   9  196.78   17.70
  -6 -11   9  188.58   15.40
   6  11  -9  161.18   14.60
  -5 -11   9   28.10    6.90
  -5 -11   9   34.70    7.90
  -4 -11   9  175.48   18.80
  -4 -11   9  217.68   18.00
  -4  11   9  206.48   17.10
  -3 -11   9   -2.70    4.00
  -3 -11   9    8.90    4.40
   3  11  -9    2.10    2.00
   3  11  -9   -0.30    2.80
   2  11  -9  244.88   20.90
  -2  11   9  233.08   20.50
   2  11  -9  251.27   19.80
  -1 -11   9    0.40    4.30
   1  11  -9   -1.10    2.60
   0 -11   9  438.86   38.00
   0  11   9  498.85   37.30
   0  11   9  516.65   35.80
   0  11  -9  492.55   36.00
   1 -11   9   -2.00    4.40
   1 -11   9   -4.30    4.00
  -1 -11  -9    0.20    3.10
   1  11   9    6.30    3.20
   2 -11   9  323.97   28.60
   2 -11   9  278.07   25.90
  -2 -11  -9  349.07   26.30
  -2  11  -9  326.97   26.20
   2  11   9  379.06   26.10
   2  11   9  340.47   27.20
   3 -11   9   11.40    5.20
  -3 -11  -9    1.50    3.80
   3 -11   9    1.90    4.50
   3  11   9    6.90    4.50
  -4 -11  -9   69.49   12.50
   4 -11   9   71.29   10.70
   4  11   9  102.89    9.20
   4  11   9   92.49    9.80
  -5 -11  -9    2.60    7.00
   5 -11   9   10.80    6.10
   5  11   9   -1.10    5.70
  -7 -12   9  100.29   12.30
   7  12  -9   92.19   10.40
  -6 -12   9   38.50    9.00
  -6 -12   9   40.40    9.50
   6  12  -9   30.80    7.10
  -5 -12   9  121.49   11.80
  -5 -12   9  156.08   14.50
   5  12  -9  124.59   11.20
  -4 -12   9   39.10    8.30
  -4 -12   9   40.00    7.20
  -3 -12   9  332.67   27.90
  -3 -12   9  290.57   28.40
  -3  12   9  336.17   26.80
   3  12  -9  413.06   27.30
   3  12  -9  374.66   28.30
  -1 -12   9  376.16   32.00
  -1 -12   9  335.27   30.80
  -1  12   9  399.96   30.40
   1  12  -9  437.66   29.90
   0 -12   9    0.00    4.70
   0  12  -9   -3.40    2.10
   0  12   9   -2.20    3.30
   1 -12   9  144.79   14.80
   1 -12   9  143.09   16.60
  -1  12  -9  160.68   15.10
   1  12   9  189.88   15.20
   2 -12   9    5.80    5.50
   2  12   9    5.80    4.10
   2  12   9    8.80    3.70
   3 -12   9   57.09    9.60
  -3 -12  -9   54.69    9.30
   3 -12   9   59.99   10.90
   3  12   9   74.59    8.20
   3  12   9   69.49    8.50
   4 -12   9    7.80    5.80
  -4 -12  -9    1.80    4.20
   4  12   9    8.70    4.90
  -7 -13   9   47.50   14.10
   7  13  -9   45.10    9.50
   6  13  -9   65.09    9.50
  -5 -13   9   41.70    9.60
  -5 -13   9   38.50    9.80
  -4 -13   9  261.57   22.10
   4  13  -9  284.87   21.90
   4  13  -9  301.87   22.00
  -2 -13   9  268.97   23.00
  -2 -13   9  233.98   21.90
  -2  13   9  240.58   21.00
   2  13  -9  273.77   20.70
   2  13  -9  271.07   20.60
   0 -13   9  118.89   11.80
   0 -13   9   93.59   11.30
   0  13   9   94.69   10.40
   0  13   9   91.59    9.80
   0  13  -9   93.39    9.90
   1 -13   9    4.90    5.80
   1 -13   9   -2.10    4.60
   1  13   9    2.00    3.80
   1  13   9   -0.70    4.10
   2 -13   9   97.89   10.80
   2 -13   9   74.49   11.30
   2  13   9   77.59   10.10
   2  13   9  105.69    9.70
   3 -13   9   -0.60    5.60
  -3 -13  -9   -3.50    4.40
   3  13   9    1.50    4.50
   4 -13   9   84.99   13.10
   4  13   9  103.79   17.00
   4  13   9   94.19   11.10
  -5 -14   9  121.59   12.70
  -5 -14   9  100.69   13.10
  -4 -14   9   40.00   10.50
  -4 -14   9   40.70    9.50
  -3 -14   9  157.88   15.80
  -3 -14   9  211.48   17.40
   3  14  -9  171.28   15.00
   3  14  -9  195.28   15.00
  -1 -14   9  228.98   18.40
  -1 -14   9  191.98   17.40
  -1  14   9  152.38   16.00
   0 -14   9   14.30    6.40
   0 -14   9   10.60    5.40
   1 -14   9   39.00   10.50
   1  14   9   47.90    8.00
   2 -14   9   10.60    6.20
   2 -14   9   -3.10    7.80
   2  14   9   29.00    8.40
  -3 -15   9   39.90   11.50
   2  15  -9   39.90    7.00
  -1 -15   9    8.90    7.90
  -1 -15   9   35.90   10.20
   0 -15   9   57.69   12.00
   0  15  -9   47.50    8.40
  11   0 -10    3.90    4.90
 -10   0  10   95.29    9.40
  10   0 -10   99.39    8.70
  10   0 -10   91.59    8.90
   9   0 -10   -0.40    3.30
   8   0 -10  209.88   18.00
   8   0 -10  211.48   17.30
  -8   0  10  245.48   18.20
  -8   0  10  198.58   18.60
   7   0 -10   -0.10    4.40
  -7   0  10   -3.20    2.50
  -7   0  10    0.40    3.90
   6   0 -10  834.52   58.39
  -6   0  10  851.71   59.69
   6   0 -10  929.01   57.89
  -6   0  10  809.72   59.69
   5   0 -10   -2.80    2.70
   5   0 -10   -0.20    2.90
  -5   0  10    1.80    4.10
   5   0 -10   -0.20    1.30
  -5   0  10    6.30    4.00
   4   0 -10 2403.56  152.38
  -4   0  10 2202.18  153.28
  -4   0  10 2327.37  153.78
   4   0 -10 2292.57  151.08
  -3   0  10   -2.10    3.10
   3   0 -10    0.40    1.00
  -3   0  10   -1.70    4.10
  -3   0  10    2.40    3.10
   3   0 -10   -1.70    2.10
  -2   0  10 1792.92  128.29
   2   0 -10 2018.00  125.69
  -2   0  10 2006.50  126.39
  -2   0  10 1861.31  127.69
  -1   0  10   -2.90    2.30
  -1   0  10   -4.90    3.60
  -1   0  10   -1.00    2.30
   1   0 -10   -0.60    1.10
   0   0  10  597.74   39.00
   0   0 -10  574.54   38.70
   0   0  10  586.34   40.20
   0   0  10  557.34   41.10
   1   0  10    2.60    2.10
   1   0  10    1.90    2.50
  -2   0 -10  458.45   30.50
   2   0  10  455.25   32.60
   2   0  10  443.26   31.00
   2   0  10  445.06   31.50
   2   0  10  424.76   30.00
   3   0  10    0.50    1.80
  -3   0 -10    5.40    3.50
  -3   0 -10   -0.20    1.40
   3   0  10   -4.60    3.00
  -4   0 -10  757.62   58.79
   4   0  10  774.32   53.19
   4   0  10  794.02   54.99
   4   0  10  833.42   53.39
   4   0  10  809.22   55.39
   4   0  10  774.32   54.19
   5   0  10   -1.80    3.30
   5   0  10    0.80    2.20
   5   0  10    2.20    1.80
   5   0  10   -1.30    2.60
   6   0  10  262.97   20.40
   6   0  10  264.37   18.80
   6   0  10  241.98   19.30
   6   0  10  258.57   18.80
   6   0  10  254.97   19.70
  -6   0 -10  219.88   27.10
   7   0  10    9.30    6.20
  -7   0 -10  -10.70    9.10
   7   0  10    0.60    6.30
  -8   0 -10   18.40   15.50
  11  -1 -10   36.40    6.50
  11  -1 -10   30.70    6.50
  11   1 -10   44.60    7.10
  10  -1 -10    3.50    4.20
  10  -1 -10    4.00    3.00
  10   1 -10    0.00    3.10
 -10   1  10    3.70    4.00
  -9  -1  10  148.79   14.90
   9  -1 -10  163.28   14.00
   9  -1 -10  176.68   14.00
   9   1 -10  156.98   13.80
   9   1 -10  171.98   14.10
  -9   1  10  161.48   14.90
  -8  -1  10   11.90    4.40
   8  -1 -10   -1.70    4.10
   8   1 -10    4.40    4.80
  -8   1  10    6.20    3.10
  -8   1  10    9.10    4.40
  -7  -1  10  575.64   40.30
   7  -1 -10  544.25   39.00
   7  -1 -10  554.64   38.20
  -7  -1  10  522.55   40.30
   7   1 -10  534.95   38.90
   7   1 -10  583.14   38.30
  -7   1  10  521.15   40.10
  -7   1  10  550.54   39.50
  -6  -1  10    3.10    4.50
   6  -1 -10    1.10    3.00
  -6  -1  10    1.80    3.30
  -6   1  10    5.40    4.30
   6   1 -10    3.00    4.00
  -6   1  10    2.80    3.40
   5  -1 -10  973.50   55.89
   5  -1 -10  838.72   57.29
  -5  -1  10  780.52   58.49
  -5  -1  10  884.71   59.29
   5  -1 -10  806.72   57.29
   5   1 -10  840.62   57.69
   5   1 -10  785.72   58.69
  -5   1  10  873.41   58.89
  -5   1  10  819.92   58.69
  -4  -1  10   33.70    7.00
  -4  -1  10   21.70    7.10
   4  -1 -10   28.50    4.20
   4  -1 -10   23.20    3.70
   4  -1 -10   20.40    4.00
  -4   1  10   29.90    6.40
   4   1 -10   21.80    4.60
  -4   1  10   22.80    6.90
   3  -1 -10 1739.13  116.89
  -3  -1  10 1731.03  117.79
  -3  -1  10 1770.12  118.69
  -3   1  10 1812.02  116.39
  -3   1  10 1782.62  118.09
   3   1 -10 1740.33  117.39
   3   1 -10 1809.92  116.19
  -3   1  10 1747.73  118.49
  -2  -1  10    6.60    3.60
  -2  -1  10   15.10    4.40
  -2  -1  10   11.70    4.70
  -2   1  10   15.00    3.90
   2   1 -10    6.50    1.70
  -2   1  10    6.50    4.30
   1  -1 -10 1132.89   74.99
  -1  -1  10 1063.19   77.79
  -1  -1  10 1137.59   75.99
  -1  -1  10 1169.38   76.99
  -1   1  10 1071.29   77.79
  -1   1  10 1260.47   75.49
  -1   1  10 1099.49   77.19
   1   1 -10 1218.48   75.59
   0  -1 -10   59.39    5.20
   0  -1  10   56.99    6.20
   0  -1  10   58.39    6.20
   0  -1  10   44.30    7.90
   0   1  10   46.90    8.10
   0   1  10   50.69    5.00
   0   1 -10   63.99    7.00
   0   1  10   56.79    7.00
   1  -1  10  413.16   28.70
   1  -1  10  390.56   30.00
  -1  -1 -10  402.86   29.00
   1  -1  10  405.96   28.80
   1   1  10  420.06   27.70
   1   1  10  391.36   30.20
   1   1  10  395.06   29.40
  -1   1 -10  429.16   28.10
   1   1  10  426.46   28.10
   2  -1  10    5.00    2.00
   2  -1  10    2.00    3.90
   2  -1  10    6.70    2.20
   2   1  10    6.40    4.10
  -2   1 -10    4.50    1.30
   2   1  10   11.60    3.00
   2   1  10    4.50    2.60
   3  -1  10  877.51   62.39
   3  -1  10  913.31   63.09
   3  -1  10  924.21   61.39
   3  -1  10  896.91   60.59
  -3   1 -10  961.60   61.19
   3   1  10  902.11   62.79
   3   1  10  954.30   60.49
   3   1  10  879.51   61.29
   3   1  10  882.91   62.09
  -3   1 -10  883.11   65.29
   4  -1  10   -1.20    2.10
   4  -1  10   -0.20    1.70
   4  -1  10   -1.10    1.30
   4  -1  10    0.70    3.00
   4   1  10   -4.90    3.80
   4   1  10   -1.60    1.40
   4   1  10   -2.00    2.10
  -4   1 -10    4.30    2.10
   4   1  10    1.10    2.30
   5  -1  10  437.36   29.40
   5  -1  10  406.66   29.90
   5  -1  10  414.56   31.00
   5  -1  10  411.66   29.00
   5  -1  10  426.36   29.00
  -5  -1 -10  373.56   34.90
   5   1  10  432.06   28.60
  -5   1 -10  376.36   35.20
   5   1  10  419.06   30.50
   5   1  10  420.56   30.20
   5   1  10  404.96   30.20
   5   1  10  403.56   28.90
   6  -1  10    7.80    3.70
   6  -1  10    7.80    3.80
   6  -1  10    0.80    3.90
  -6  -1 -10    0.90    8.10
   6  -1  10    2.60    3.00
  -6   1 -10   -3.50    7.00
   6   1  10    6.90    3.60
   6   1  10    9.00    4.90
   6   1  10    9.80    3.20
   6   1  10   18.40    5.20
   6   1  10   17.90    4.30
   7  -1  10  168.48   15.30
   7  -1  10  160.68   14.10
  -7  -1 -10  150.58   25.70
   7   1  10  183.48   16.50
   7   1  10  168.48   17.20
  -7   1 -10  139.89   24.10
  -8  -1 -10  -15.10   14.10
  -8   1 -10  -16.20   11.50
  11   2 -10   10.60    4.30
  10  -2 -10  112.19   10.00
  10  -2 -10  114.59    9.80
 -10   2  10  104.39   10.60
  10   2 -10  112.89    9.70
  10   2 -10  121.49   10.40
   9  -2 -10   22.80    4.60
  -9  -2  10   19.00    5.40
   9   2 -10   28.60    5.10
  -8  -2  10  301.17   26.50
   8  -2 -10  315.07   23.50
  -8  -2  10  262.27   24.30
   8  -2 -10  311.07   23.90
  -8   2  10  323.67   25.50
   8   2 -10  320.97   23.60
   8   2 -10  294.07   23.80
  -8   2  10  355.66   23.70
  -7  -2  10   -4.60    4.40
   7  -2 -10    0.80    4.10
  -7  -2  10    4.00    4.90
  -7   2  10    2.00    2.60
  -7   2  10    6.40    4.20
   7   2 -10    3.10    4.80
  -6  -2  10  594.44   42.10
  -6  -2  10  544.25   41.40
   6  -2 -10  562.14   39.70
   6   2 -10  556.94   40.40
  -6   2  10  600.84   41.00
   6   2 -10  587.34   39.30
  -6   2  10  550.94   41.40
   5  -2 -10    4.30    1.10
   5  -2 -10    7.30    2.30
  -5  -2  10    7.70    4.40
   5  -2 -10    6.40    2.90
  -5  -2  10    0.80    3.80
  -5   2  10    6.20    4.00
  -5   2  10    5.70    4.20
   5   2 -10    7.00    4.10
   5   2 -10    2.60    1.90
   4  -2 -10 1121.69   71.99
  -4  -2  10 1054.99   74.59
   4  -2 -10 1100.09   72.49
  -4  -2  10 1087.89   73.79
   4   2 -10 1038.60   71.99
  -4   2  10 1077.89   74.19
  -4   2  10 1067.39   74.09
   4   2 -10 1047.40   73.09
  -4   2  10 1164.38   72.69
  -3  -2  10   80.19    8.40
   3  -2 -10   69.19    7.40
  -3  -2  10   71.89    9.50
   3  -2 -10   69.79    5.30
   3  -2 -10   76.39    5.20
  -3   2  10   76.69    6.40
   3   2 -10   54.09    7.00
  -3   2  10   61.09    8.90
  -3   2  10   72.09    8.60
   3   2 -10   59.79    5.60
  -2  -2  10  975.90   69.29
  -2  -2  10 1025.60   68.19
  -2   2  10  940.81   68.99
  -2   2  10 1128.79   66.59
  -2   2  10  965.50   68.59
  -1  -2  10   26.40    4.50
  -1  -2  10   13.50    4.70
  -1   2  10   23.00    5.70
  -1   2  10   22.70    2.80
  -1   2  10   16.70    5.20
   0  -2  10 1781.92  122.69
   0  -2  10 1863.11  121.59
   0   2 -10 1916.31  120.79
   0   2  10 1844.72  122.99
   0   2  10 1757.52  122.39
   1  -2  10   95.69    7.00
   1  -2  10   94.49   10.50
   1  -2  10  105.59    8.50
   1   2  10   83.89    9.60
   1   2  10   87.99    7.30
  -1   2 -10  107.09    8.10
   1   2  10   95.59    7.10
   1   2  10   99.99    7.90
   2  -2  10 1531.55  100.99
   2  -2  10 1496.15   98.69
   2  -2  10 1489.05   97.79
   2  -2  10 1457.45  100.09
   2  -2  10 1518.35   98.19
  -2   2 -10 1493.75   98.49
   2   2  10 1612.24   99.59
   2   2  10 1417.36   97.49
   2   2  10 1427.26   99.99
   2   2  10 1525.65   97.49
   2   2  10 1380.96   98.09
   3  -2  10   -1.80    3.50
   3  -2  10    5.60    1.50
   3  -2  10    5.80    3.60
  -3  -2 -10   -1.20    4.00
   3  -2  10    2.70    1.60
   3   2  10    0.30    2.60
  -3   2 -10    7.10    3.90
   3   2  10    2.30    1.80
   3   2  10    3.60    2.70
  -3   2 -10    4.60    1.50
   4  -2  10  408.56   30.80
   4  -2  10  411.26   27.90
   4  -2  10  399.26   27.90
  -4  -2 -10  376.96   33.50
   4  -2  10  382.56   29.00
  -4   2 -10  383.56   33.00
  -4   2 -10  422.96   28.70
   4   2  10  378.76   27.80
   4   2  10  411.76   30.10
   4   2  10  381.56   30.10
   4   2  10  428.06   27.30
   5  -2  10    6.80    3.50
   5  -2  10    7.40    2.60
   5  -2  10    5.10    3.30
   5  -2  10    6.80    2.00
  -5  -2 -10   -0.40    6.20
   5   2  10    7.90    2.90
  -5   2 -10    8.10    2.30
   5   2  10    5.20    3.40
   5   2  10    4.50    1.90
   5   2  10    1.60    2.20
   5   2  10    6.10    2.50
   6  -2  10   94.39    9.60
  -6  -2 -10   89.69   19.50
   6  -2  10   88.09    8.90
   6  -2  10   98.99    8.70
   6   2  10   91.89    8.90
   6   2  10  109.09   10.00
   6   2  10   97.49    8.30
   7  -2  10   -7.10    4.00
  -7  -2 -10  -11.10   10.90
   7  -2  10    2.50    3.40
  -8  -2 -10   20.10   16.00
  -8   2 -10   13.80   12.00
  11  -3 -10   25.30    6.20
  11   3 -10   42.30    7.50
  10  -3 -10    5.00    4.40
   9  -3 -10  234.78   17.80
   9  -3 -10  220.18   17.90
  -9  -3  10  231.68   17.90
  -9   3  10  215.28   18.60
   9   3 -10  231.48   18.60
   9   3 -10  226.78   17.70
   8  -3 -10    6.40    3.70
  -8  -3  10   12.70    5.80
   8   3 -10    7.50    4.60
   8   3 -10    3.80    2.70
  -8   3  10    8.30    3.10
  -8   3  10    6.60    3.60
   7  -3 -10  520.25   36.60
  -7  -3  10  460.75   37.90
   7   3 -10  528.55   36.10
  -7   3  10  499.95   38.00
  -7   3  10  559.54   37.10
   7   3 -10  500.15   37.10
   6  -3 -10    1.60    2.40
  -6  -3  10    5.10    4.20
  -6  -3  10   -1.30    5.70
   6   3 -10   -3.40    4.90
   6   3 -10   -1.10    1.50
  -6   3  10    3.60    4.20
  -6   3  10   -2.30    2.40
   5  -3 -10  351.36   26.20
  -5  -3  10  335.37   27.60
  -5  -3  10  365.66   28.50
   5  -3 -10  379.36   25.70
  -5   3  10  373.56   27.90
   5   3 -10  361.76   25.50
   5   3 -10  362.36   26.70
  -5   3  10  377.26   27.50
   4  -3 -10   58.19    5.40
  -4  -3  10   52.69    8.70
  -4  -3  10   54.89    7.80
   4  -3 -10   60.69    5.90
   4   3 -10   50.89    6.90
  -4   3  10   57.89    8.20
   4   3 -10   55.49    7.20
  -4   3  10   47.80    8.20
  -4   3  10   67.39    6.10
  -3  -3  10  812.62   54.09
   3  -3 -10  755.42   52.29
   3  -3 -10  782.82   52.79
  -3  -3  10  775.22   55.29
  -3   3  10  798.02   54.79
   3   3 -10  763.52   53.99
  -3   3  10  885.31   52.39
   3   3 -10  704.23   52.39
  -3   3  10  804.62   54.99
  -2  -3  10    6.70    4.70
  -2  -3  10    8.50    2.90
   2   3 -10    6.00    1.40
  -2   3  10    8.30    3.60
  -2   3  10    2.80    4.50
  -1  -3  10 1446.36   98.59
  -1  -3  10 1469.75   97.19
   1   3 -10 1474.95   96.49
  -1   3  10 1441.26   98.29
   0  -3  10   13.00    2.20
   0  -3  10   14.90    5.00
   0  -3  10   21.20    4.20
   0   3  10   10.10    4.20
   1  -3  10 1880.91  125.09
   1  -3  10 1898.51  125.69
   1  -3  10 1875.71  127.29
   1  -3  10 1932.31  127.99
   1   3  10 1849.81  127.29
  -1   3 -10 1933.91  125.59
   1   3  10 1727.43  124.89
   1   3  10 2112.89  124.99
   2  -3  10    9.30    4.20
   2  -3  10   10.40    4.40
  -2  -3 -10    8.50    4.70
   2   3  10   10.50    3.10
   2   3  10   19.80    5.60
   2   3  10    8.90    3.40
   3  -3  10  635.74   42.30
   3  -3  10  621.64   44.20
   3  -3  10  656.03   45.70
  -3  -3 -10  600.54   46.80
   3   3  10  602.24   42.50
  -3   3 -10  646.14   43.10
   3   3  10  616.54   44.90
   4  -3  10   -0.90    1.40
   4   3  10    1.20    2.70
   4   3  10   -1.20    1.60
  -4   3 -10    2.80    1.70
  -5  -3 -10   99.09   17.10
   5  -3  10  131.29   10.60
   5  -3  10  124.49   10.90
   5  -3  10  113.79   11.90
   5  -3  10  110.89   10.30
   5   3  10  128.59   10.70
  -5   3 -10  134.89   11.00
   5   3  10  119.29   10.10
  -5   3 -10  104.59   15.00
   5   3  10  135.89   12.50
   6  -3  10    4.00    3.50
  -6  -3 -10   -3.00    8.50
   6  -3  10   10.60    3.90
  -6   3 -10    1.50    1.70
   6   3  10    0.70    3.40
   7  -3  10   91.69    8.60
  -7  -3 -10   93.39   24.60
   7  -3  10   80.09    8.80
   7   3  10  107.09    8.80
  -7   3 -10   85.69   16.20
   7   3  10   92.89   10.70
   8  -3  10   11.30    5.60
  -8  -3 -10    0.70   20.00
  -8   3 -10  -12.20    9.00
  11   4 -10   31.30    7.50
  10  -4 -10  105.19   10.10
  10   4 -10  126.99   10.70
  10   4 -10  123.29   10.20
   9  -4 -10   19.50    4.50
   8  -4 -10  300.17   22.80
  -8  -4  10  290.47   22.00
  -8  -4  10  277.37   23.90
  -8   4  10  311.57   24.20
   8   4 -10  292.47   23.60
  -8   4  10  300.67   22.30
   8   4 -10  320.37   22.80
   7  -4 -10    3.90    3.40
  -7  -4  10    5.20    4.90
  -7  -4  10    2.30    3.70
   7   4 -10    5.00    2.20
   7   4 -10   -0.60    5.60
  -7   4  10    7.10    4.50
  -7   4  10    4.10    2.70
   6  -4 -10  360.06   24.90
  -6  -4  10  365.66   26.00
  -6  -4  10  285.87   27.90
  -6  -4  10  321.27   26.70
  -6   4  10  373.36   26.20
  -6   4  10  349.67   27.00
   6   4 -10  360.26   24.90
   6   4 -10  326.67   25.90
  -5  -4  10   42.30    9.80
   5  -4 -10   45.60    4.50
  -5  -4  10   41.00    8.00
   5   4 -10   26.70    7.60
   5   4 -10   37.20    4.60
  -5   4  10   40.40    8.30
  -5   4  10   40.30    6.80
   4  -4 -10  647.44   43.40
  -4  -4  10  637.04   45.10
  -4  -4  10  643.74   46.70
   4  -4 -10  677.53   43.90
  -4   4  10  634.24   45.80
   4   4 -10  607.64   44.70
  -4   4  10  634.04   45.50
  -3  -4  10    4.40    3.10
  -3  -4  10    4.90    5.00
   3  -4 -10    4.20    3.40
  -3   4  10    5.30    3.40
   3   4 -10    1.90    3.80
  -3   4  10   -0.30    4.20
   3   4 -10    0.20    2.90
  -2  -4  10 1369.86   89.29
   2  -4 -10 1413.66   87.59
  -2  -4  10 1210.08   90.59
   2   4 -10 1335.07   88.79
  -2   4  10 1326.37   90.49
  -1  -4  10   31.40    3.70
  -1  -4  10   27.70    7.40
  -1  -4  10   28.70    7.70
  -1  -4  10   35.20    5.30
   1   4 -10   42.80    4.30
  -1   4  10   32.50    6.70
   0  -4  10 2010.40  131.29
   0  -4  10 1900.11  132.99
   0  -4  10 2073.29  130.49
   0  -4  10 1955.90  133.49
   0   4 -10 2007.20  131.29
   0   4  10 1964.40  133.09
   1  -4  10   58.59    8.60
   1  -4  10   65.99   10.60
   1  -4  10   66.09    6.20
   1   4  10   55.59    8.60
   1   4  10   61.19    5.80
   1   4  10   54.79    7.20
  -1   4 -10   76.89    6.90
   2  -4  10 1101.69   71.99
   2  -4  10 1099.89   75.39
  -2  -4 -10 1071.99   75.79
   2  -4  10 1061.29   74.09
  -2   4 -10 1099.09   72.69
   2   4  10 1058.79   74.79
  -3  -4 -10   -1.10    4.10
   3  -4  10    3.90    4.20
   3  -4  10    0.50    2.60
   3   4  10    4.50    3.50
  -3   4 -10    4.70    2.10
   3   4  10    1.70    1.60
  -4  -4 -10  157.98   20.00
   4  -4  10  166.68   16.20
   4  -4  10  190.18   14.70
   4   4  10  172.88   13.40
   4   4  10  189.48   16.60
  -4   4 -10  151.28   17.00
  -4   4 -10  177.48   14.30
  -5  -4 -10    2.10    7.10
   5  -4  10   11.80    3.00
   5  -4  10    8.40    3.50
  -5   4 -10    6.60    4.50
   6  -4  10   94.79    9.90
   6  -4  10   80.09    8.00
  -6  -4 -10   77.79   19.40
  -6   4 -10   95.69    8.40
   6   4  10   85.29    9.60
  -7  -4 -10    1.60   11.80
   7  -4  10   -1.80    4.50
   7  -4  10    3.30    3.80
   7   4  10   -8.20    5.50
  -7   4 -10   -2.10    2.20
  -7   4 -10   -1.80    5.20
  10   5 -10   21.70    6.50
  10   5 -10   13.90    4.90
   9  -5 -10  132.09   11.00
   9   5 -10  134.99   12.20
   9   5 -10  144.19   11.10
  -9   5  10  114.09   11.90
   8  -5 -10    2.10    3.40
  -8   5  10    3.30    3.40
   8   5 -10    2.90    2.70
   8   5 -10    2.70    3.90
   7  -5 -10  386.06   28.40
  -7  -5  10  404.56   28.60
  -7  -5  10  357.46   29.80
   7   5 -10  395.06   28.80
   7   5 -10  378.06   29.40
  -7   5  10  396.56   30.50
  -7   5  10  412.36   28.80
  -6  -5  10    2.30    2.20
   6  -5 -10    3.70    2.30
  -6  -5  10    4.80    4.40
  -6   5  10    2.00    2.40
   6   5 -10    3.10    5.20
   6   5 -10    0.70    1.90
  -6   5  10    4.80    3.90
   5  -5 -10  710.33   46.80
  -5  -5  10  593.84   50.09
  -5  -5  10  722.83   48.60
  -5  -5  10  688.43   48.60
   5   5 -10  675.33   47.10
  -5   5  10  689.73   49.20
  -5   5  10  746.03   48.80
   5   5 -10  661.93   48.30
  -4  -5  10   -3.70    5.20
  -4  -5  10    0.30    3.00
  -4  -5  10   -0.30    3.40
   4  -5 -10   -0.30    2.00
  -4   5  10    3.60    4.30
  -4   5  10    2.10    3.80
   4   5 -10   -0.80    1.60
   4   5 -10   -1.50    4.70
  -3  -5  10  801.82   56.29
  -3  -5  10  802.62   55.19
  -3  -5  10  782.12   53.99
   3  -5 -10  812.82   53.19
   3  -5 -10  758.02   52.19
  -3   5  10  776.32   54.99
   3   5 -10  748.93   53.49
  -2  -5  10  105.29    8.50
  -2  -5  10  102.39   12.70
   2  -5 -10  106.09    8.70
  -2  -5  10  112.09   10.00
  -2  -5  10  101.79   11.90
  -2   5  10  108.09   11.30
   2   5 -10  108.39    9.50
   2   5 -10   85.19    9.00
  -1  -5  10 1065.59   68.89
   1  -5 -10 1065.29   67.79
  -1  -5  10  990.50   70.99
  -1  -5  10 1024.80   67.99
  -1  -5  10 1017.30   70.99
   1   5 -10 1008.20   68.99
  -1   5  10  991.60   70.89
   0  -5  10   69.89   11.20
   0  -5  10   58.79    9.60
   0  -5  10   82.89    7.40
   0  -5  10   74.29    7.10
   0   5 -10   96.69   12.10
   0   5  10   76.69    9.90
   0   5  10   75.39    7.80
   0   5 -10   83.99    7.60
   1  -5  10  767.52   52.69
  -1  -5 -10  697.13   51.49
   1  -5  10  751.92   52.39
   1  -5  10  753.32   48.90
   1  -5  10  703.13   51.19
   1   5  10  665.13   49.30
   1   5  10  738.93   51.89
  -1   5 -10  730.93   49.60
   2  -5  10   -1.80    2.50
   2  -5  10    3.40    4.50
  -2  -5 -10    5.00    3.10
   2  -5  10   -1.70    3.10
   2   5  10    0.60    1.70
   2   5  10    1.70    3.40
  -2   5 -10    3.50    2.30
   3  -5  10  500.55   37.70
  -3  -5 -10  504.55   38.60
   3  -5  10  526.55   36.30
   3   5  10  467.35   37.20
  -3   5 -10  497.75   35.10
   3   5  10  482.25   34.40
   4  -5  10   32.70    5.90
   4  -5  10   41.80    8.00
  -4   5 -10   41.20    6.70
   4   5  10   51.59    5.00
   4   5  10   42.10    7.70
  -5  -5 -10  246.68   27.30
   5  -5  10  277.47   20.50
   5  -5  10  267.17   22.50
  -5   5 -10  267.87   20.50
   5   5  10  286.87   20.20
   5   5  10  269.17   22.10
  -5   5 -10  253.87   23.70
  -6  -5 -10   -2.40    9.00
   6  -5  10    3.20    4.70
  -6   5 -10   -2.90    4.20
  -6   5 -10    1.20    1.80
   6   5  10    3.70    4.90
  -7  -5 -10   46.00   14.20
 -10  -6  10   99.99   14.40
  10   6 -10   92.49    8.90
  10   6 -10   93.09    9.40
   8  -6 -10  139.59   11.90
   8   6 -10  131.99   12.80
   8   6 -10  136.99   12.20
  -7  -6  10    4.60    2.40
  -7  -6  10   -1.10    4.70
   7  -6 -10    3.60    3.20
   7   6 -10   -4.30    9.00
  -7   6  10   -2.50    2.90
  -7   6  10   -1.20    3.40
   7   6 -10    3.80    2.60
  -6  -6  10  458.15   32.40
   6  -6 -10  462.05   31.00
  -6  -6  10  400.86   32.70
  -6   6  10  458.55   33.50
   6   6 -10  409.26   32.70
   6   6 -10  418.26   31.20
  -6   6  10  453.65   32.40
  -5  -6  10    5.60    3.90
   5  -6 -10   10.20    2.60
  -5  -6  10    3.50    3.20
  -5  -6  10   -0.40    4.60
  -5   6  10    3.90    3.80
  -5   6  10    7.50    3.80
   5   6 -10    5.40    1.90
   5   6 -10    0.30    5.10
   4  -6 -10  924.71   65.69
  -4  -6  10 1022.50   66.89
  -4  -6  10  828.92   68.59
  -4  -6  10 1029.10   67.79
   4   6 -10  998.80   65.99
   4   6 -10  985.40   67.29
  -4   6  10 1014.40   68.09
  -3  -6  10    1.90    4.70
   3  -6 -10    2.60    2.50
  -3  -6  10   -1.70    2.80
  -3  -6  10   -0.10    5.70
  -3   6  10    4.80    4.00
   2  -6 -10 1669.63  108.69
  -2  -6  10 1634.24  111.79
  -2  -6  10 1610.94  111.09
  -2  -6  10 1714.33  109.19
  -2  -6  10 1665.23  108.29
   2   6 -10 1644.54  108.69
   2   6 -10 1549.74  109.29
  -2   6  10 1599.74  110.99
  -1  -6  10   18.00    6.70
  -1  -6  10   16.10    5.80
  -1  -6  10   26.40    4.10
   1  -6 -10   30.00    5.70
  -1  -6  10   25.40    5.30
   1   6 -10   17.30    4.60
  -1   6  10   27.20    6.70
   0  -6  10  473.65   34.50
   0  -6  10  491.95   31.20
   0  -6  10  458.45   33.60
   0  -6  10  446.36   34.70
   0   6 -10  447.46   31.90
   0   6  10  381.66   32.10
   0   6  10  450.95   34.10
   1  -6  10    9.70    3.20
   1  -6  10    2.90    4.70
  -1  -6 -10   13.50    4.30
   1  -6  10    8.60    4.80
   1   6  10    7.40    1.90
  -1   6 -10    8.70    2.60
  -2  -6 -10  194.88   18.00
   2  -6  10  216.88   17.80
   2  -6  10  194.48   18.50
   2   6  10  175.08   17.40
  -2   6 -10  189.28   15.70
   2   6  10  198.58   14.80
   3  -6  10    3.30    3.10
  -3  -6 -10    3.00    5.20
   3  -6  10    9.30    4.50
   3   6  10    6.50    2.20
   3   6  10    4.40    3.80
  -3   6 -10    7.50    2.40
   4  -6  10  349.96   28.00
   4  -6  10  327.17   25.60
  -4  -6 -10  323.77   29.80
  -4   6 -10  329.27   26.30
  -4   6 -10  373.26   28.60
   4   6  10  343.37   24.80
  -5  -6 -10   -1.80    7.50
  -5   6 -10    3.10    3.90
  -5   6 -10   18.50    4.20
   6  -6  10  168.18   15.70
  -6  -6 -10  203.58   26.70
  -6   6 -10  201.68   18.30
  -6   6 -10  175.28   14.90
   6   6  10  197.08   17.40
   6   6  10  172.38   16.20
  -7  -6 -10   -1.50   13.10
   7   6  10  -10.20    7.80
  -7   6 -10   -3.70    4.90
  10   7 -10   27.40    6.70
  -9  -7  10  102.99   12.10
   9   7 -10   74.49    8.50
   9   7 -10   88.39    8.80
   7  -7 -10  257.37   18.40
  -7  -7  10  242.98   18.90
  -7   7  10  247.28   18.80
   7   7 -10  200.08   19.20
  -7   7  10  233.58   19.80
   7   7 -10  246.08   18.90
  -6  -7  10   11.80    5.70
  -6  -7  10    0.80    2.90
  -6   7  10   -3.70    3.60
   6   7 -10    6.70    5.00
   6   7 -10    2.90    2.70
  -6   7  10    7.10    3.40
  -5  -7  10  986.20   65.79
   5  -7 -10  983.40   63.19
   5   7 -10  870.71   63.99
   5   7 -10  890.61   65.09
  -5   7  10  933.41   65.89
  -5   7  10  957.10   65.69
  -4  -7  10   -2.00    4.10
  -4  -7  10    1.40    3.80
   4   7 -10   -0.80    2.00
  -4   7  10    9.40    3.50
   3  -7 -10  722.93   51.29
  -3  -7  10  808.62   55.69
  -3  -7  10  782.92   53.59
  -3   7  10  780.22   55.39
   3   7 -10  762.32   53.89
   3   7 -10  811.52   53.39
  -2  -7  10    8.80    5.10
  -2  -7  10   -0.30    5.00
  -2   7  10    7.20    3.90
   2   7 -10    1.90    2.00
  -1  -7  10  368.46   31.90
  -1  -7  10  442.36   28.60
  -1  -7  10  400.66   31.80
   1   7 -10  399.46   29.70
  -1   7  10  410.46   31.30
   0  -7  10    1.20    1.30
   0  -7  10   -2.20    4.00
   0  -7  10   -3.90    4.30
   0   7  10    4.80    3.60
   0   7 -10    0.50    2.00
   1  -7  10  210.18   20.40
   1  -7  10  197.78   19.50
  -1  -7 -10  222.38   18.60
  -1   7 -10  234.38   17.90
   1   7  10  232.58   16.70
   1   7  10  223.58   19.60
   2  -7  10   -5.00    4.40
  -2   7 -10   -0.10    2.10
   2   7  10   -1.00    3.40
   2   7  10    1.90    2.30
   3  -7  10  263.57   24.50
   3  -7  10  364.46   27.40
  -3  -7 -10  304.07   27.80
   3   7  10  300.27   26.90
   3   7  10  338.47   23.40
  -3   7 -10  332.97   24.20
  -4  -7 -10   16.10    6.50
   4  -7  10    5.30    4.50
   4  -7  10   11.30    4.00
  -4   7 -10   18.30    4.10
   4   7  10   10.70    3.90
  -5  -7 -10  361.16   34.50
   5  -7  10  365.26   29.20
   5   7  10  388.96   27.20
  -5   7 -10  368.96   27.70
   5   7  10  349.67   29.30
  -5   7 -10  397.26   30.20
   6  -7  10   10.30    5.40
  -6  -7 -10   -7.30    9.40
  -6   7 -10    4.60    4.40
   7  -7  10   18.60    6.00
  -7  -7 -10   37.20   16.70
  -7   7 -10   11.00    2.90
 -10  -8  10   30.00   10.30
  -9  -8  10   45.50   11.20
   9   8 -10   30.80    6.60
   9   8 -10   42.00    7.70
   8  -8 -10  135.79   14.10
  -8  -8  10  171.48   14.20
   8   8 -10  155.08   14.00
   8   8 -10  160.88   12.80
  -7  -8  10    4.60    3.40
   7  -8 -10    0.80    3.80
  -7   8  10    7.20    3.90
   7   8 -10    4.30    4.00
   6  -8 -10  331.17   23.30
  -6  -8  10  312.77   25.10
   6   8 -10  312.47   25.40
  -6   8  10  331.87   26.00
  -6   8  10  329.67   25.40
   6   8 -10  322.57   24.40
  -5  -8  10    3.10    3.00
   5  -8 -10    2.10    2.60
  -5  -8  10   -0.30    4.60
   5   8 -10   -1.70    4.40
   5   8 -10    1.50    2.70
  -5   8  10    2.40    3.80
  -4  -8  10  444.36   34.40
  -4   8  10  460.85   34.40
   4   8 -10  446.86   32.50
  -3  -8  10   35.90    8.30
   3   8 -10   24.60    4.70
  -2  -8  10  504.85   37.70
   2   8 -10  483.35   35.40
  -2   8  10  474.55   36.80
   2   8 -10  496.95   34.80
  -1  -8  10   17.10    5.50
   1   8 -10    3.80    2.40
  -1   8  10    9.70    4.30
   0  -8  10  460.35   36.80
   0   8 -10  482.15   34.10
   0   8  10  443.16   35.70
   0   8  10  485.95   33.30
  -1  -8 -10   45.30    7.40
   1  -8  10   28.90    9.40
   1   8  10   32.60    4.70
  -1   8 -10   38.90    6.80
   1   8  10   32.30    7.50
  -2  -8 -10  511.95   39.20
   2  -8  10  522.15   40.40
  -2   8 -10  532.65   37.70
   2   8  10  511.95   36.80
  -3  -8 -10   -0.30    6.20
   3  -8  10   -5.40    3.60
   3   8  10    2.70    3.50
   3   8  10    5.30    3.00
  -3   8 -10   -3.20    2.10
  -3   8 -10    5.30    3.30
  -4  -8 -10  235.78   24.30
   4  -8  10  231.08   21.30
   4   8  10  270.07   18.40
  -4   8 -10  237.88   19.20
   4   8  10  216.58   19.90
  -5   8 -10   28.90    7.60
   6  -8  10   70.09   11.40
  -6  -8 -10   70.99   21.10
  -6   8 -10   78.29   10.70
  -9  -9  10   59.99   11.30
   9  -9 -10   40.90    8.80
  -9   9  10   45.30    9.80
  -8  -9  10   44.40    9.70
   8   9 -10   52.79    7.60
  -7  -9  10  169.88   14.90
   7  -9 -10  146.19   13.10
  -7  -9  10  165.08   14.20
  -7   9  10  164.48   15.20
   7   9 -10  184.48   14.60
   7   9 -10  148.29   14.50
  -6  -9  10    2.40    3.40
   6   9 -10   11.40    4.60
   6   9 -10    1.90    3.30
  -5  -9  10  308.37   24.30
   5  -9 -10  285.07   21.00
   5   9 -10  310.77   22.80
  -5   9  10  269.07   23.80
  -4  -9  10    3.60    3.90
  -4  -9  10    5.00    5.10
   4   9 -10   -4.60    2.80
  -3  -9  10  227.58   21.10
   3   9 -10  237.28   18.30
  -3   9  10  228.88   20.40
   3   9 -10  244.88   19.10
  -2  -9  10    5.90    4.90
  -2   9  10    6.80    4.60
   2   9 -10    1.20    2.20
  -1  -9  10  358.16   29.80
   1  -9 -10  386.86   25.90
   1   9 -10  336.97   27.00
  -1   9  10  338.27   28.60
   0  -9  10    4.40    3.90
   0   9 -10    4.00    2.70
   0   9  10    6.20    2.30
   0   9  10    3.70    3.20
  -1  -9 -10  838.92   59.69
  -1   9 -10  826.52   59.09
   1   9  10  878.71   58.49
   2  -9  10   17.20    5.20
  -2  -9 -10   15.40    5.30
   2   9  10   27.00    6.10
   3  -9  10  229.78   20.50
  -3  -9 -10  210.08   20.70
   3   9  10  206.48   19.00
  -3   9 -10  213.88   18.10
   3   9  10  228.78   17.30
  -4  -9 -10   -1.70    6.20
   4  -9  10    7.80    9.80
   4   9  10    1.80    4.50
  -4   9 -10    3.90    4.00
  -5  -9 -10   80.09   17.90
   5  -9  10   85.59   10.30
  -5   9 -10   97.19   10.10
  -5   9 -10   66.79    8.20
   5   9  10   67.19   10.20
   6  -9  10   11.60    6.60
  -6  -9 -10    9.40   11.50
   9  10 -10   43.30   11.30
   9  10 -10   63.29    9.70
  -8 -10  10  141.89   14.10
   8  10 -10  139.99   12.50
   8  10 -10  148.79   12.30
  -7 -10  10   65.49    9.80
   7  10 -10   54.89    8.10
  -6 -10  10  125.69   14.20
  -6 -10  10  157.98   13.20
   6  10 -10  156.48   13.20
   6  10 -10  122.29   15.70
  -5 -10  10    2.30    3.60
  -5 -10  10   22.70    7.30
   5  10 -10    2.80    3.30
  -4 -10  10  135.39   13.50
   4  10 -10  141.29   12.10
  -4  10  10  108.99   12.20
  -3 -10  10   -2.80    3.40
   3  10 -10    2.50    2.10
  -2 -10  10  353.86   30.80
   2  10 -10  406.96   28.00
   2  10 -10  375.66   27.70
  -2  10  10  330.17   28.70
  -1 -10  10   -1.20    5.30
   0 -10  10  561.74   46.10
   0 -10 -10  647.44   43.10
   0  10  10  570.74   45.30
   0  10  10  655.23   43.70
   1 -10  10   -4.20    3.70
  -1 -10 -10    3.50    3.00
   1  10  10    1.00    3.00
  -2 -10 -10  360.36   29.00
   2 -10  10  342.17   30.30
   2  10  10  366.86   29.00
   2  10  10  389.36   27.10
  -2  10 -10  342.47   27.60
  -3 -10 -10    3.60    4.40
   3 -10  10    7.10    4.60
   3 -10  10    8.80    5.10
   3  10  10    9.80    3.60
   3  10  10    4.80    4.30
  -4 -10 -10   60.49   12.80
   4 -10  10   62.59    9.70
   4  10  10   85.99    8.80
   4  10  10   78.49    9.00
   5 -10  10   32.70   10.20
  -8 -11  10   46.30   11.50
   8  11 -10   37.70    7.80
  -7 -11  10  154.28   13.50
   7  11 -10  113.29   11.80
  -6 -11  10   61.79    9.50
  -6 -11  10   49.90    8.70
  -5 -11  10  143.09   14.90
  -5 -11  10  165.18   14.00
   5  11 -10  170.68   17.20
  -4 -11  10    5.90    5.00
   4  11 -10    5.40    3.40
  -3 -11  10  250.47   22.10
   3  11 -10  286.67   20.80
  -3  11  10  229.68   20.70
   3  11 -10  268.27   20.50
  -2 -11  10   -5.20    4.40
   2  11 -10   -1.20    2.00
  -1 -11  10  362.76   30.00
  -1  11  10  345.57   28.40
   1  11 -10  354.86   27.20
   0 -11  10    6.40    4.20
   0 -11  10    0.40    4.50
   0  11  10   -0.30    3.60
  -1 -11 -10  282.57   21.70
   1 -11  10  255.27   23.90
   1  11  10  272.97   22.90
  -1  11 -10  247.68   22.00
   1  11  10  306.37   21.70
   2 -11  10   -2.80    4.40
   2 -11  10   11.30    5.10
  -2 -11 -10    4.50    3.80
   2  11  10    5.40    3.90
   2  11  10   11.80    3.50
   3 -11  10   71.99   10.10
  -3 -11 -10   88.49   11.10
   3 -11  10   87.69   12.00
  -3  11 -10   63.69    8.70
   3  11  10   99.89   10.60
   3  11  10   95.49    8.80
   4 -11  10   14.80    6.00
  -4 -11 -10    7.00    4.70
   4  11  10   -0.10    5.30
   4  11  10   13.70    4.90
  -5 -11 -10   27.20    9.70
   5  11  10   36.70    9.10
  -7 -12  10   21.30    8.80
  -6 -12  10  168.38   14.00
  -6 -12  10  163.18   15.10
   6  12 -10  132.79   12.90
  -5 -12  10   48.90    9.40
  -5 -12  10   45.30    8.90
  -4 -12  10  185.38   15.70
  -4 -12  10  156.78   16.70
   4  12 -10  191.28   14.50
   4  12 -10  165.98   14.00
  -3 -12  10   27.50    7.60
   3  12 -10   26.40    5.30
  -2 -12  10  273.87   25.50
  -2  12  10  290.07   24.60
   2  12 -10  334.47   24.10
   2  12 -10  318.57   23.90
  -1 -12  10    3.50    4.90
  -1 -12  10    0.20    4.30
   1  12 -10    2.10    2.30
   0 -12  10  159.88   16.20
   0 -12  10  159.88   17.40
   0  12  10  198.78   15.30
   0  12  10  198.48   16.90
   0  12 -10  174.18   15.60
   1 -12  10    7.50    4.30
   1 -12  10   15.90    5.60
  -1 -12 -10    0.60    6.20
   1  12  10    4.10    4.60
   1  12  10    6.60    4.20
   2 -12  10   59.99   10.40
   2 -12  10   59.39    9.10
  -2 -12 -10   65.79    8.30
   2  12  10   72.59    8.60
   2  12  10   56.79    8.00
   3  12  10   11.60    4.60
  -4 -12 -10   85.69   12.40
   4  12  10   58.09   10.70
  -6 -13  10   51.99   11.70
  -5 -13  10  149.49   13.30
   5  13 -10  121.09   12.00
   4  13 -10   24.10    5.70
  -3 -13  10  262.27   21.80
  -3 -13  10  234.58   20.70
   3  13 -10  273.97   20.30
   3  13 -10  276.27   20.10
  -3  13  10  210.88   19.90
  -2 -13  10    5.60    4.80
   2  13 -10   -0.20    2.50
  -1 -13  10  132.09   12.60
  -1 -13  10  134.09   13.30
   1  13 -10  110.09   11.30
  -1  13  10  106.59   11.50
   0 -13  10   12.90    6.00
   0  13 -10    4.10    2.70
   0  13  10   -4.40    4.50
   1 -13  10   39.40    8.80
   1  13  10   21.60    4.70
   2 -13  10   10.80    5.90
   2 -13  10    1.80    7.10
   2  13  10    9.50    4.60
  -3 -13 -10   43.10    9.60
   3  13  10   48.90   10.00
  -4 -14  10  154.28   15.10
  -4 -14  10  140.99   14.00
   4  14 -10  127.89   12.00
  -3 -14  10   32.80   10.70
   2  14 -10   37.30    6.60
  -1 -14  10   11.30    7.40
  -1 -14  10   38.30    9.50
   0 -14  10   81.19   11.80
   0 -14  10   98.19   11.50
   1 -14  10   12.10    6.40
   1  14  10   -7.30    5.40
  11   0 -11   42.50    7.20
  11   0 -11   57.99    7.90
  10   0 -11    4.80    3.30
 -10   0  11    1.20    4.10
  10   0 -11    6.90    4.30
  -9   0  11  185.38   16.80
   9   0 -11  176.18   15.40
   9   0 -11  189.28   15.80
  -9   0  11  229.68   16.10
  -8   0  11    3.50    4.20
   8   0 -11    4.80    3.60
  -8   0  11    6.30    4.90
  -7   0  11  288.97   23.30
  -7   0  11  266.77   23.60
   7   0 -11  296.07   20.70
   7   0 -11  286.27   21.90
   6   0 -11    0.60    1.50
   6   0 -11    8.50    3.80
  -6   0  11    3.80    5.10
  -6   0  11    3.50    4.30
   5   0 -11 1459.85  100.59
   5   0 -11 1469.35   99.39
  -5   0  11 1430.46  101.89
   5   0 -11 1643.44   99.19
  -5   0  11 1524.85  102.39
  -4   0  11    3.20    3.90
   4   0 -11   -0.30    1.40
   4   0 -11    2.50    2.00
   4   0 -11    0.00    1.30
  -4   0  11   -2.80    4.10
   4   0 -11   -0.10    1.30
   3   0 -11  988.80   66.19
   3   0 -11 1076.99   64.49
  -3   0  11  955.60   66.99
  -3   0  11  892.21   67.49
   2   0 -11   -1.80    0.90
  -2   0  11   -1.40    2.70
  -2   0  11   -4.10    2.80
  -1   0  11  153.88   15.30
  -1   0  11  175.78   12.80
  -1   0  11  172.98   14.40
   1   0 -11  184.78   12.40
   0   0  11    1.20    2.30
   0   0  11    3.30    2.50
   0   0 -11   -0.50    1.50
  -1   0 -11 1014.80   61.79
   1   0  11  911.11   61.89
   1   0  11  871.61   64.09
   1   0  11  911.21   63.09
   2   0  11   -5.60    4.80
  -2   0 -11    0.00    0.90
   2   0  11   -0.70    1.40
   2   0  11    0.80    2.10
   3   0  11  879.81   60.69
   3   0  11  857.91   61.79
   3   0  11  916.11   59.49
  -3   0 -11  903.01   65.39
   4   0  11   -0.60    3.70
   4   0  11   -0.50    3.10
   4   0  11    2.60    2.50
   4   0  11    2.90    2.00
   5   0  11  519.15   34.10
   5   0  11  482.55   35.70
   5   0  11  490.85   34.90
   5   0  11  475.25   33.90
  -5   0 -11  468.45   41.40
   5   0  11  503.65   35.60
   6   0  11   -2.70    6.20
  -7   0 -11   21.90   12.60
  11  -1 -11    7.20    4.30
  11  -1 -11   -0.70    5.60
  11   1 -11   11.50    4.30
 -10  -1  11   72.09    8.00
  10  -1 -11   78.79    7.40
  10  -1 -11   64.59    7.40
  10   1 -11   80.39    7.50
  10   1 -11   64.99    7.30
   9  -1 -11   10.60    3.60
  -9  -1  11   11.90    3.70
  -9   1  11   10.50    3.70
  -8  -1  11  246.88   21.20
   8  -1 -11  253.17   19.30
  -8  -1  11  235.48   20.20
   8  -1 -11  255.57   20.00
  -8   1  11  258.07   20.70
  -8   1  11  251.27   23.50
   8   1 -11  247.68   19.20
   8   1 -11  263.77   20.10
  -7  -1  11    4.70    4.50
  -7  -1  11    3.30    4.70
   7  -1 -11    4.80    3.50
  -7   1  11    6.70    4.50
   7   1 -11    2.20    4.10
  -7   1  11    6.00    4.20
   6  -1 -11  959.60   60.59
  -6  -1  11  832.02   62.79
   6  -1 -11  905.41   61.49
  -6  -1  11  899.21   63.49
   6   1 -11  910.61   61.99
  -6   1  11  856.91   62.89
  -6   1  11  952.80   63.29
   6   1 -11  897.61   60.59
  -5  -1  11   30.80    8.30
   5  -1 -11   37.60    4.50
   5  -1 -11   22.10    5.30
   5  -1 -11   28.10    3.60
  -5  -1  11   28.60    7.90
   5  -1 -11   31.10    8.80
  -5   1  11   28.60    7.50
  -5   1  11   28.60    7.90
   5   1 -11   25.70    5.30
   4  -1 -11 1050.29   67.79
  -4  -1  11  987.00   69.09
  -4  -1  11 1051.79   69.89
   4  -1 -11  897.91   67.39
   4  -1 -11 1095.39   66.19
  -4   1  11  965.20   69.19
  -4   1  11 1043.00   69.79
   4   1 -11  959.40   66.39
   4   1 -11 1014.30   68.19
  -3  -1  11   11.10    5.10
   3  -1 -11   12.10    2.50
  -3   1  11   14.30    3.30
  -3   1  11   10.40    3.80
   3   1 -11   17.80    4.00
  -3   1  11   11.20    5.20
  -2  -1  11  812.72   61.19
  -2  -1  11  879.51   60.29
  -2   1  11  853.51   61.29
  -2   1  11  857.71   60.59
   2   1 -11  953.40   58.49
  -2   1  11  930.41   58.59
  -1  -1  11   40.30    6.00
  -1  -1  11   35.30    7.70
  -1  -1  11   49.90    6.30
  -1   1  11   40.50    7.40
  -1   1  11   37.00    6.60
   1   1 -11   52.09    5.20
  -1   1  11   41.70    4.40
   0  -1  11  796.32   54.69
   0  -1  11  790.12   53.89
   0  -1  11  760.22   55.79
   0   1  11  816.92   53.09
   0   1 -11  863.61   53.49
   0   1  11  800.52   56.19
   0   1  11  774.32   55.09
   1  -1  11    4.20    2.00
   1  -1  11   -4.50    4.20
   1   1  11    1.80    2.60
   1   1  11    0.70    2.00
   1   1  11   -4.90    3.90
  -1   1 -11    2.40    1.00
   2  -1  11  772.52   54.79
   2  -1  11  723.03   51.59
   2  -1  11  798.72   53.39
   2   1  11  798.92   52.09
   2   1  11  773.52   53.99
   2   1  11  781.52   54.99
  -2   1 -11  870.01   52.79
   2   1  11  734.03   51.79
   3  -1  11   35.00    4.30
   3  -1  11   23.60    6.60
   3  -1  11   19.90    5.90
   3  -1  11   31.60    7.80
   3   1  11   30.90    6.20
   3   1  11   24.10    5.10
   3   1  11   21.10    6.10
   3   1  11   26.00    3.70
   4  -1  11  469.85   33.10
   4  -1  11  442.56   31.40
   4  -1  11  451.95   31.10
   4  -1  11  436.16   30.60
  -4  -1 -11  369.06   36.80
   4  -1  11  439.86   33.30
   4   1  11  463.85   33.30
   4   1  11  433.76   33.00
   4   1  11  479.35   30.60
  -4   1 -11  397.46   37.30
  -4   1 -11  497.25   31.80
   4   1  11  455.35   32.60
   4   1  11  437.56   30.70
   5  -1  11   -4.00    2.50
   5  -1  11    3.40    3.00
   5  -1  11    4.40    2.10
   5  -1  11   -2.50    3.00
   5  -1  11    1.00    3.00
  -5  -1 -11   -5.20    6.40
   5   1  11    1.10    2.90
  -5   1 -11   -8.70    5.70
   5   1  11    3.90    2.10
   5   1  11   -1.70    3.10
   5   1  11   -8.30    5.30
   5   1  11    1.60    2.70
   6  -1  11  112.89   12.30
   6  -1  11   96.39    8.70
  -6  -1 -11   67.39   18.60
   6   1  11   99.09    9.80
  -6   1 -11   63.89   16.70
   6   1  11   90.19    9.30
  -7  -1 -11  -14.60   10.40
  -7   1 -11  -10.60    9.80
  11  -2 -11   48.70    7.70
  11  -2 -11   39.30    7.60
  10  -2 -11    4.50    4.60
  10   2 -11    8.50    3.60
  -9  -2  11  160.98   15.90
   9  -2 -11  166.98   14.70
  -9  -2  11  189.18   15.00
   9  -2 -11  189.38   14.80
  -9   2  11  177.78   15.80
   9   2 -11  196.68   15.00
   9   2 -11  187.68   15.40
   8  -2 -11    9.70    3.80
  -8   2  11   15.10    5.10
   8   2 -11   11.70    6.40
  -8   2  11    7.60    3.80
  -7  -2  11  236.18   21.70
  -7  -2  11  249.97   22.00
   7  -2 -11  251.97   18.90
   7  -2 -11  265.07   20.20
   7   2 -11  250.07   20.70
  -7   2  11  253.67   22.00
   7   2 -11  274.77   19.10
  -7   2  11  285.17   21.60
   6  -2 -11   20.60    3.70
  -6  -2  11   20.80    6.70
  -6  -2  11   32.20    7.90
   6  -2 -11   15.90    3.50
   6   2 -11   18.70    3.50
  -6   2  11   24.70    6.20
   6   2 -11   27.30    6.50
  -6   2  11   29.20    7.50
   5  -2 -11  664.03   43.80
  -5  -2  11  621.84   46.10
   5  -2 -11  670.93   44.50
  -5  -2  11  669.73   47.30
  -5   2  11  617.64   46.30
   5   2 -11  642.34   45.20
   5   2 -11  631.64   44.10
  -5   2  11  670.53   46.50
  -4  -2  11    1.10    4.90
   4  -2 -11    0.80    1.50
   4  -2 -11    2.80    1.80
  -4  -2  11    2.40    3.40
   4   2 -11   -0.90    2.00
   4   2 -11   -1.70    2.80
  -4   2  11   -1.40    4.00
  -4   2  11    5.30    4.20
  -3  -2  11 1008.70   68.89
  -3  -2  11  984.10   67.69
  -3   2  11 1054.99   65.89
   3   2 -11  947.01   67.39
   3   2 -11 1015.60   66.09
  -3   2  11  960.60   68.19
  -3   2  11  974.10   68.59
  -2  -2  11   22.30    7.20
  -2  -2  11   25.70    5.40
   2   2 -11   26.80    3.50
  -2   2  11   23.00    3.40
  -2   2  11   27.30    6.00
  -2   2  11   21.50    7.20
  -1  -2  11 1143.79   75.49
  -1  -2  11 1055.59   76.59
  -1   2  11 1098.49   76.19
  -1   2  11 1059.09   76.79
   1   2 -11 1229.38   74.29
  -1   2  11 1126.59   73.49
   0  -2  11   25.40    7.50
   0  -2  11   39.00    5.40
   0   2  11   29.50    8.40
   0   2 -11   46.70    4.30
   0   2  11   34.40    6.60
   1  -2  11 1052.69   69.09
   1  -2  11  965.40   70.49
  -1   2 -11 1120.89   68.49
   1   2  11  964.80   70.89
   1   2  11 1059.79   67.19
   1   2  11  983.50   70.09
   2  -2  11    3.30    4.30
   2  -2  11    0.40    4.50
   2  -2  11    1.50    1.60
   2  -2  11    0.50    1.70
  -2   2 -11    3.80    1.30
   2   2  11   -3.50    4.60
   2   2  11   -1.60    3.50
   2   2  11    2.20    2.10
   2   2  11    1.50    1.80
   3  -2  11  402.36   29.70
  -3  -2 -11  347.97   32.00
   3  -2  11  365.06   28.70
   3  -2  11  387.46   26.70
   3  -2  11  376.66   26.40
  -3   2 -11  406.46   27.20
   3   2  11  368.86   29.10
  -3   2 -11  362.66   31.90
   3   2  11  381.06   28.60
   4  -2  11   14.20    4.30
   4  -2  11   20.60    3.50
   4  -2  11   23.10    3.30
   4  -2  11   11.30    3.90
   4   2  11   17.00    4.80
  -4   2 -11   10.20    6.70
   5  -2  11  301.07   23.10
   5  -2  11  287.07   21.30
   5  -2  11  282.97   22.10
  -5  -2 -11  266.47   28.60
   5  -2  11  274.47   20.80
   5   2  11  303.97   22.90
  -5   2 -11  264.27   27.20
   5   2  11  303.07   22.40
   5   2  11  277.77   20.70
   5   2  11  306.47   22.70
  -5   2 -11  299.87   22.80
  -6  -2 -11   -3.80    8.20
  -6   2 -11   -3.90    5.60
   6   2  11    4.10    3.80
  -7  -2 -11   49.10   14.90
  -7   2 -11   62.89   19.70
  11   3 -11   29.60    7.10
  11   3 -11   30.40    8.30
  10  -3 -11   95.29    9.40
  10   3 -11  102.59    9.10
  10   3 -11  108.19    9.30
   9  -3 -11    6.80    4.10
   9   3 -11   12.10    4.20
   9   3 -11   19.40    5.10
  -8  -3  11  207.38   19.20
  -8  -3  11  210.58   19.60
   8  -3 -11  228.38   18.20
   8  -3 -11  250.87   18.80
  -8   3  11  253.97   19.00
   8   3 -11  229.58   19.10
   8   3 -11  250.77   18.30
  -8   3  11  235.58   20.30
  -7  -3  11    5.40    4.00
   7  -3 -11    3.90    3.60
  -7  -3  11    7.70    4.50
  -7   3  11   10.10    4.80
   7   3 -11    4.00    5.10
  -7   3  11    1.30    3.80
   7   3 -11    3.50    2.00
   6  -3 -11  377.86   27.00
  -6  -3  11  389.26   30.30
  -6  -3  11  349.96   28.90
  -6   3  11  377.66   28.80
   6   3 -11  385.66   28.20
  -6   3  11  377.26   29.30
   6   3 -11  377.26   26.50
   5  -3 -11    0.40    1.90
  -5  -3  11    6.00    4.10
  -5   3  11    3.20    4.10
   5   3 -11   -2.40    1.60
   5   3 -11   -1.90    4.90
  -5   3  11   -5.20    3.60
  -4  -3  11  346.67   25.50
   4  -3 -11  355.56   23.60
   4  -3 -11  335.57   23.40
  -4  -3  11  334.97   26.80
   4   3 -11  308.37   23.60
  -4   3  11  324.47   25.90
   4   3 -11  321.47   24.80
  -4   3  11  335.87   26.10
  -3  -3  11    3.20    2.90
   3  -3 -11   -0.90    3.40
  -3  -3  11   -0.10    5.30
  -3   3  11   -1.50    4.20
   3   3 -11   -4.10    2.80
  -3   3  11   -0.50    3.90
  -2  -3  11 1873.31  123.69
  -2  -3  11 1773.42  124.99
  -2   3  11 1858.01  124.59
  -2   3  11 1884.41  125.09
   2   3 -11 1894.01  122.59
  -1  -3  11    6.10    2.80
  -1  -3  11   -2.80    4.40
  -1   3  11    1.40    5.30
  -1   3  11    0.80    3.50
   0  -3  11 2223.28  141.49
   0  -3  11 2050.89  142.99
   0   3 -11 2178.28  140.89
   0   3  11 2095.69  142.89
   1  -3  11    1.50    1.40
   1  -3  11    0.70    1.20
   1  -3  11    2.30    4.70
   1  -3  11   -3.30    4.20
   1   3  11    0.60    2.10
   1   3  11   -1.30    3.80
   2  -3  11  497.55   32.70
   2  -3  11  501.95   35.80
   2  -3  11  469.85   34.90
  -2  -3 -11  458.55   36.50
   2   3  11  398.86   32.30
  -2   3 -11  523.05   33.00
   2   3  11  457.95   34.80
   3  -3  11   -3.90    3.10
   3  -3  11   -5.40    3.60
  -3   3 -11    0.50    1.60
   3   3  11    4.40    2.80
   3   3  11   -0.40    1.70
  -4  -3 -11   47.30   12.60
   4  -3  11   57.69    5.90
   4  -3  11   68.29    8.40
   4  -3  11   69.39    6.40
   4  -3  11   67.29    9.60
  -4   3 -11   83.39    7.70
   4   3  11   65.39    9.50
  -4   3 -11   74.69   13.20
   4   3  11   84.29    9.10
   5  -3  11   -2.80    3.40
  -5  -3 -11   -6.70    6.40
   5  -3  11   -3.70    3.40
  -5   3 -11    3.10    1.60
   5   3  11   -1.70    3.10
   5   3  11    8.40    3.40
   5   3  11   -3.30    3.40
  -6  -3 -11   91.99   21.70
   6  -3  11   95.09    8.50
   6  -3  11  110.19   15.10
  -6   3 -11   80.49   14.80
   6   3  11   99.99   10.40
   6   3  11   94.69    9.90
  -6   3 -11  100.89    9.00
   7  -3  11   -7.50    5.00
  -7  -3 -11   -8.60   13.20
  -7   3 -11   -2.30    9.40
   7   3  11   -3.00    5.40
  10   4 -11   39.40    7.00
  10   4 -11   28.30    6.10
   9  -4 -11  180.38   13.60
   9   4 -11  170.08   14.40
  -9   4  11  165.88   14.80
   9   4 -11  164.18   14.50
  -8  -4  11   10.70    3.80
  -8  -4  11    3.60    2.90
   8   4 -11    6.50    2.70
  -8   4  11   -0.80    3.20
  -8   4  11    3.00    3.90
   8   4 -11    5.80    4.20
  -7  -4  11  261.87   23.20
  -7  -4  11  271.87   21.80
   7  -4 -11  284.47   21.00
   7   4 -11  276.97   20.20
   7   4 -11  263.07   21.60
  -7   4  11  272.97   22.80
  -7   4  11  285.87   22.20
  -6  -4  11    3.00    4.30
  -6  -4  11   -4.90    4.10
   6  -4 -11   -0.20    2.50
   6   4 -11    3.80    4.80
   6   4 -11    2.30    1.70
  -6   4  11    0.10    3.80
  -6   4  11   -5.30    3.90
  -5  -4  11  356.26   28.50
  -5  -4  11  339.27   26.50
   5  -4 -11  345.77   24.40
   5   4 -11  330.47   24.40
   5   4 -11  335.87   26.30
  -5   4  11  373.56   27.40
  -5   4  11  339.67   27.30
  -4  -4  11    5.90    4.40
  -4  -4  11    0.30    5.40
   4  -4 -11    4.80    2.80
  -4   4  11   10.40    4.70
   4   4 -11    2.70    3.20
  -4   4  11    1.80    5.30
   4   4 -11    9.90    4.80
  -3  -4  11  755.92   55.19
   3  -4 -11  730.03   51.69
  -3  -4  11  813.32   53.49
   3  -4 -11  795.52   51.39
  -3   4  11  771.32   54.49
  -3   4  11  787.72   54.79
   3   4 -11  756.42   51.59
   3   4 -11  769.22   52.49
  -2  -4  11    5.90    5.30
  -2  -4  11    6.20    3.00
  -2   4  11    8.10    4.10
  -1  -4  11 1717.63  107.69
  -1  -4  11 1552.94  109.49
  -1  -4  11 1544.85  109.29
  -1   4  11 1598.34  109.19
   1   4 -11 1653.63  107.09
   0  -4  11    3.30    1.80
   0  -4  11    6.30    4.50
   0  -4  11   -1.50    5.20
   0   4  11    5.40    4.10
   1  -4  11  905.91   58.59
   1  -4  11  871.11   61.59
   1  -4  11  830.52   60.79
   1   4  11  881.51   57.89
   1   4  11  843.32   60.89
  -1   4 -11  886.71   58.79
   2  -4  11    9.40    2.70
   2  -4  11   16.60    5.10
   2  -4  11   13.50    5.00
  -2  -4 -11    9.20    4.70
   2   4  11   19.40    5.10
   3  -4  11  213.48   16.30
   3  -4  11  234.18   19.20
  -3  -4 -11  223.18   22.60
   3  -4  11  228.08   20.40
   3   4  11  243.18   16.80
   3   4  11  221.88   19.50
  -3   4 -11  244.98   17.60
   4  -4  11   -0.30    3.50
   4  -4  11   -0.70    3.10
  -4  -4 -11   -5.40    5.00
  -4   4 -11    5.90    2.10
   4   4  11    6.00    3.20
  -5  -4 -11  139.19   21.60
   5  -4  11  150.08   15.40
   5  -4  11  155.78   14.00
   5  -4  11  144.29   13.20
  -5   4 -11  127.09   16.90
   5   4  11  178.88   14.30
   5   4  11  178.38   13.80
  -5   4 -11  162.28   12.90
   6  -4  11    6.20    4.90
  -6  -4 -11  -11.00   10.10
  -6   4 -11   -6.10    4.40
   6   4  11   -0.90    4.90
   6   4  11   -0.20    4.10
   7  -4  11   84.29    8.20
  -7  -4 -11   91.69   29.50
   7   4  11   57.09   11.60
  -7   4 -11   60.79   18.00
  10   5 -11   76.69    8.00
  10   5 -11   81.09    8.80
   9   5 -11   23.90    5.30
   9   5 -11   22.60    5.90
  -8  -5  11  147.49   13.50
   8  -5 -11  168.58   13.40
  -8   5  11  159.48   13.90
   8   5 -11  145.99   13.60
   8   5 -11  163.48   13.00
  -8   5  11  147.19   13.80
   7  -5 -11    3.80    3.40
  -7  -5  11   12.40    4.90
  -7  -5  11    0.40    2.80
  -7   5  11    0.30    3.20
  -7   5  11    2.10    3.40
   7   5 -11    2.60    2.60
  -6  -5  11  310.97   30.20
   6  -5 -11  389.46   26.90
  -6  -5  11  385.06   28.60
  -6  -5  11  369.06   28.90
   6   5 -11  386.66   26.90
  -6   5  11  398.46   29.00
   6   5 -11  372.06   28.60
  -6   5  11  379.96   29.50
   5  -5 -11   14.00    3.10
  -5  -5  11   11.20    4.80
  -5  -5  11   11.10    6.20
  -5  -5  11   24.30    6.70
  -5   5  11   16.20    5.30
   5   5 -11   18.20    3.50
   5   5 -11   21.30    5.90
  -5   5  11   26.60    6.70
  -4  -5  11 1056.79   72.99
  -4  -5  11 1090.09   75.09
  -4  -5  11 1074.89   73.79
  -4   5  11 1088.09   73.99
   4   5 -11 1027.00   72.99
  -4   5  11 1072.49   73.89
   4   5 -11 1043.00   71.49
  -3  -5  11   -2.00    4.10
   3  -5 -11    1.50    2.30
  -3  -5  11   -5.80    5.00
  -3  -5  11   -4.00    2.60
   3   5 -11   -3.70    2.80
  -3   5  11    0.40    3.80
  -2  -5  11  954.80   66.49
   2  -5 -11  994.50   63.19
  -2  -5  11  875.41   66.69
  -2  -5  11  959.70   64.69
  -2   5  11  943.71   66.49
   2   5 -11  974.50   64.39
  -1  -5  11   52.89   10.50
  -1  -5  11   57.49    6.00
  -1  -5  11   59.39    6.40
  -1  -5  11   55.79   10.20
  -1   5  11   60.09    9.00
   1   5 -11   67.49    6.30
   0  -5  11  578.84   43.80
   0  -5  11  607.44   40.80
   0  -5  11  570.94   43.50
   0   5  11  588.64   43.30
   0   5 -11  637.14   41.30
   1  -5  11    1.70    1.40
   1  -5  11   -1.30    4.70
  -1  -5 -11    3.80    3.60
   1  -5  11    1.90    4.40
   1   5  11    1.80    2.60
   1   5  11    9.70    3.80
  -1   5 -11    4.10    1.50
   2  -5  11  306.07   20.70
  -2  -5 -11  271.17   24.80
   2  -5  11  285.47   24.70
   2  -5  11  290.47   23.70
   2   5  11  296.47   21.10
  -2   5 -11  301.57   21.90
   2   5  11  300.57   24.10
   3  -5  11    5.90    4.20
   3  -5  11    4.60    4.10
  -3  -5 -11   -1.70    6.10
   3   5  11   11.00    3.80
  -3   5 -11    6.70    2.20
  -4  -5 -11  210.68   24.10
   4  -5  11  261.87   19.80
   4  -5  11  234.48   20.50
  -4   5 -11  190.78   20.50
  -4   5 -11  244.58   22.40
   4   5  11  224.08   20.90
   4   5  11  263.67   17.70
   5   5  11   28.80    7.20
  -5   5 -11   23.60    4.50
   5   5  11   47.60   10.90
  -6  -5 -11  136.49   25.70
   6  -5  11  165.38   14.00
   6  -5  11  160.28   12.40
  -6   5 -11  163.58   17.50
  -6   5 -11  141.79   12.30
   6   5  11  126.59   13.90
  -7  -5 -11   -3.20   17.40
  -7   5 -11   -9.00    6.10
  10   6 -11   39.80    8.10
   9   6 -11   97.19    9.90
   9   6 -11  124.19    9.90
   8  -6 -11    3.70    4.10
  -8   6  11   -2.50    6.10
   8   6 -11    3.50    4.00
   8   6 -11    7.10    3.30
   7  -6 -11  345.87   24.70
  -7  -6  11  339.57   25.60
   7   6 -11  312.87   25.60
  -7   6  11  333.07   25.70
   7   6 -11  336.27   24.90
  -6  -6  11    8.90    4.10
  -6  -6  11    3.90    3.10
   6  -6 -11    1.70    2.90
  -6  -6  11    6.40    5.10
  -6   6  11    5.90    3.80
   6   6 -11    0.40    2.30
  -6   6  11    0.70    4.40
   6   6 -11    4.70    4.40
   5  -6 -11  669.53   44.80
  -5  -6  11  687.23   47.50
  -5  -6  11  649.14   46.90
  -5   6  11  655.83   47.60
   5   6 -11  631.74   45.30
  -5   6  11  665.73   47.90
   5   6 -11  643.04   47.00
  -4  -6  11   44.80    7.90
   4  -6 -11   38.60    5.70
  -4  -6  11   21.40    7.50
  -4  -6  11   20.00    5.80
  -4   6  11   44.10    7.30
  -4   6  11   28.20    8.60
   4   6 -11   30.30    4.30
   4   6 -11   32.40    7.10
  -3  -6  11  572.34   39.10
  -3  -6  11  549.65   40.60
  -3  -6  11  578.14   42.20
   3   6 -11  530.55   37.80
  -3   6  11  546.25   40.50
   3   6 -11  519.65   38.50
  -2  -6  11    9.80    6.10
  -2  -6  11   10.20    2.90
  -2  -6  11   10.80    4.80
   2   6 -11    6.70    1.70
  -1  -6  11  228.18   20.80
  -1  -6  11  229.68   17.60
  -1  -6  11  248.58   20.80
   1   6 -11  243.98   18.10
  -1   6  11  223.28   20.00
   0  -6  11    4.30    4.20
   0  -6  11    7.40    5.20
   0  -6  11    2.30    1.40
   0   6 -11    4.20    2.20
   1  -6  11  399.96   27.40
   1  -6  11  398.06   30.90
   1  -6  11  399.06   31.50
  -1  -6 -11  362.26   30.60
  -1   6 -11  430.56   29.00
   1   6  11  396.66   27.90
   1   6  11  390.76   30.90
  -2  -6 -11   36.50    9.30
   2  -6  11   30.00    8.60
   2  -6  11   28.70    7.30
   2   6  11   32.40    4.70
   2   6  11   39.60    6.80
  -2   6 -11   42.00    5.50
   3  -6  11  646.34   48.40
   3  -6  11  702.73   47.30
  -3  -6 -11  616.24   49.20
  -3   6 -11  642.64   45.60
   3   6  11  655.03   45.00
   4  -6  11    2.30    3.60
  -4  -6 -11   -1.50    6.40
   4  -6  11    3.60    3.70
   4   6  11    5.20    4.00
  -4   6 -11   -1.40    3.60
   5  -6  11  199.68   17.10
  -5  -6 -11  178.68   24.50
   5   6  11  200.68   17.90
  -5   6 -11  218.78   19.50
  -5   6 -11  198.68   15.90
  -6  -6 -11    9.60   11.80
   6  -6  11   10.60    5.70
   6  -6  11    2.50    5.10
  -6   6 -11    4.90    4.60
   6   6  11   -1.50    6.40
  10   7 -11   86.59    9.60
  10   7 -11  103.29   10.80
   9   7 -11   49.10    7.80
   8  -7 -11   96.29   10.70
   8   7 -11  135.59   11.70
  -8   7  11  114.89   11.40
   7  -7 -11    0.50    3.70
   7   7 -11    3.20    3.10
  -7   7  11    0.50    3.70
   7   7 -11    7.10    4.10
  -6  -7  11  334.27   25.60
   6  -7 -11  335.67   23.60
  -6   7  11  321.77   26.00
  -6   7  11  334.17   25.70
   6   7 -11  324.57   25.90
   6   7 -11  318.87   24.60
  -5  -7  11    7.70    3.70
  -5  -7  11   10.70    4.50
  -5  -7  11    7.80    5.10
  -5   7  11   11.80    4.60
  -5   7  11   10.30    4.10
   5   7 -11    8.30    5.20
  -4  -7  11  893.21   61.19
  -4  -7  11  867.51   59.79
   4  -7 -11  782.82   57.49
  -4   7  11  876.41   61.39
   4   7 -11  891.31   58.89
  -3  -7  11   44.60    6.70
  -3  -7  11   27.80    9.40
  -3  -7  11   46.20    8.80
  -3   7  11   46.00    7.90
   3   7 -11   40.80    6.40
  -2  -7  11  251.77   24.60
  -2  -7  11  303.07   24.60
  -2  -7  11  304.87   21.60
  -2   7  11  302.27   24.20
   2   7 -11  285.77   22.20
  -1  -7  11   -1.40    1.60
  -1  -7  11   -1.20    4.20
  -1   7  11   -0.10    3.70
   1   7 -11   -2.20    1.80
   0  -7  11  230.08   21.70
   0  -7 -11  240.48   20.40
   0  -7  11  235.28   21.40
   0  -7  11  260.57   17.70
   0   7 -11  251.67   19.20
   0   7  11  237.68   21.20
   0   7  11  254.27   18.00
   1  -7  11   -0.20    4.00
  -1  -7 -11   -1.00    3.00
   1   7  11    2.70    3.50
   1   7  11   -1.40    2.10
  -1   7 -11    0.00    1.70
   2  -7  11  467.85   37.00
   2  -7  11  487.25   40.30
  -2  -7 -11  465.95   38.40
   2   7  11  527.85   34.80
  -2   7 -11  516.85   35.70
   3  -7  11    6.60    3.80
   3  -7  11    6.60    3.40
  -3  -7 -11    3.00    4.80
  -3   7 -11    3.90    3.80
   3   7  11    4.40    3.60
   4  -7  11  240.18   20.80
   4  -7  11  290.87   23.30
  -4  -7 -11  259.97   27.10
  -4   7 -11  280.67   21.00
   4   7  11  292.47   21.30
   4   7  11  242.98   22.10
  -4   7 -11  297.07   23.50
   5  -7  11    3.70    4.90
  -5  -7 -11  -11.10    7.70
   5   7  11   -5.70    5.30
  -5   7 -11    0.20    4.10
  -6  -7 -11   24.60   11.70
   6   7  11   22.40    6.90
  -9  -8  11   94.09   13.50
   9   8 -11  101.19    9.90
   9   8 -11   83.19    8.90
   8   8 -11   43.70    7.40
   7  -8 -11  259.37   19.30
  -7  -8  11  260.17   20.20
  -7   8  11  277.97   20.20
  -7   8  11  218.78   20.40
   7   8 -11  223.58   20.50
   7   8 -11  282.27   19.80
  -6  -8  11    5.30    3.50
   6  -8 -11    1.40    3.50
  -6   8  11    6.40    3.70
   6   8 -11    2.40    4.10
   6   8 -11    9.20    3.10
   5  -8 -11  256.37   19.80
  -5  -8  11  262.27   21.60
   5   8 -11  262.17   19.60
  -5   8  11  243.18   21.30
   5   8 -11  243.18   21.30
   4   8 -11   -0.40    2.40
  -4   8  11   -5.20    4.00
  -3  -8  11  338.17   27.80
  -3   8  11  328.07   27.20
   3   8 -11  356.16   25.70
   3   8 -11  332.27   24.70
  -2  -8  11    4.70    4.70
  -2  -8  11   -2.20    5.20
  -2   8  11    9.00    4.30
  -1  -8  11  427.36   31.70
   1  -8 -11  429.06   28.70
  -1  -8  11  314.47   30.50
   1   8 -11  365.66   28.40
  -1   8  11  377.76   30.50
   0  -8 -11    6.30    3.00
   0  -8  11    1.90    4.80
   0  -8  11    4.60    4.40
   0   8 -11    2.30    2.30
   0   8  11    2.20    3.50
   0   8  11   -0.40    2.20
  -1  -8 -11  305.47   25.10
   1  -8  11  291.87   30.00
   1   8  11  333.37   22.50
   1   8  11  281.07   26.90
  -1   8 -11  298.67   23.50
   2  -8  11    5.00    3.50
   2  -8  11   -3.90    3.90
  -2  -8 -11   -2.40    5.10
   2   8  11    5.10    3.30
   2   8  11    5.60    2.70
  -3  -8 -11  404.76   33.80
   3  -8  11  390.66   32.70
   3   8  11  418.96   29.70
   3   8  11  356.46   31.60
  -3   8 -11  467.75   32.90
  -3   8 -11  403.66   30.10
   4  -8  11   -3.40    4.50
  -4  -8 -11   -3.90    6.40
  -4   8 -11    4.70    3.90
  -4   8 -11   -0.10    2.10
   4   8  11    2.20    4.50
   5  -8  11   77.89   10.70
  -5  -8 -11   84.79   19.70
  -5   8 -11   98.69   10.50
  -6  -8 -11   -4.60   12.70
  -9  -9  11   84.99   14.30
   9   9 -11   76.49   10.70
   8   9 -11  134.79   11.50
   8   9 -11  123.79   11.00
  -7  -9  11   28.70    7.90
  -6  -9  11  133.79   12.40
  -6   9  11  134.69   13.20
   6   9 -11  141.49   12.80
   6   9 -11  140.29   11.90
  -5  -9  11    8.70    3.30
  -5  -9  11    8.10    4.80
   5   9 -11    7.60    3.20
  -4  -9  11  235.48   20.00
   4   9 -11  215.08   18.10
   4   9 -11  239.28   18.20
  -3  -9  11   -5.70    4.30
  -3  -9  11   -1.10    3.70
   3   9 -11   -0.80    2.10
  -2  -9  11  416.46   37.00
   2  -9 -11  502.95   32.40
   2   9 -11  474.85   33.50
  -2   9  11  388.06   38.10
   1  -9 -11    6.80    2.60
  -1  -9  11    6.10    7.50
   1   9 -11    1.40    2.50
   0  -9 -11  596.94   41.10
   0  -9  11  581.14   43.30
   0   9 -11  579.94   40.70
   0   9  11  497.55   41.90
   0   9  11  564.84   39.60
  -1  -9 -11   -2.20    3.30
   1  -9  11   -3.50    3.40
   1   9  11    1.80    3.20
  -2  -9 -11  290.87   24.40
   2  -9  11  281.97   24.70
   2   9  11  305.97   21.70
  -2   9 -11  269.57   21.90
   2   9  11  248.58   22.70
   3   9  11    0.30    4.30
  -3   9 -11    1.10    4.00
   3   9  11    8.70    4.00
  -4  -9 -11   55.89   14.10
   4  -9  11   47.80    9.50
   4   9  11   50.49    8.90
  -4   9 -11   51.49    6.80
   5  -9  11   10.90    6.10
  -5  -9 -11   -3.30    9.70
  -5   9 -11   -5.10    4.70
  -8 -10  11   38.70   12.60
   8  10 -11   44.20    7.60
   8  10 -11   59.79    9.60
  -7 -10  11  134.39   13.60
   7  10 -11  144.89   12.30
   7  10 -11  151.78   12.30
  -6 -10  11   24.30    7.50
  -5 -10  11   87.99   10.10
   5  10 -11  106.09    9.60
  -4 -10  11    7.40    4.70
  -4 -10  11    7.30    3.50
   4  10 -11    2.80    3.00
  -3 -10  11  233.08   20.40
   3  10 -11  249.48   18.80
   3  10 -11  239.28   18.60
  -3  10  11  204.88   19.30
  -2 -10  11    1.70    3.50
   2  10 -11    0.60    2.20
  -1 -10  11  659.83   49.10
   1 -10 -11  738.43   45.90
   1  10 -11  581.84   46.00
  -1  10  11  611.64   47.90
   0 -10  11    4.90    4.50
   0  10  11    4.10    3.50
   0  10  11   11.40    3.60
  -1 -10 -11  251.37   20.70
   1 -10  11  230.68   21.60
   1  10  11  257.37   19.20
   1  10  11  231.78   20.60
  -1  10 -11  213.58   19.20
  -2 -10 -11   -2.80    3.10
   2 -10  11    5.00    4.20
   2  10  11    0.10    4.10
   2  10  11   -3.20    3.50
  -3 -10 -11   82.69   12.10
   3 -10  11   86.09   10.50
   3 -10  11   82.69   10.40
   3  10  11   66.49    9.00
  -4 -10 -11   -2.10    5.70
   4  10  11   -6.20    5.80
   7  11 -11   40.80    8.80
  -6 -11  11  105.19   11.20
  -6 -11  11  123.79   12.00
   6  11 -11   96.09   10.30
  -5 -11  11   30.70    8.10
  -5 -11  11   38.60    8.70
  -4 -11  11  202.88   18.70
   4  11 -11  235.68   17.60
   4  11 -11  245.18   18.00
  -4  11  11  207.18   18.60
  -3 -11  11    0.60    5.30
  -3 -11  11    2.50    3.70
   3  11 -11   -5.30    3.30
   3  11 -11   -0.90    2.20
  -2 -11  11  264.07   24.50
  -2  11  11  275.67   23.60
   2  11 -11  322.37   22.80
  -1 -11  11   -0.10    4.70
  -1 -11  11   -3.20    4.00
  -1  11  11   -2.10    4.00
   0 -11 -11  262.57   19.20
   0 -11  11  218.98   21.30
   0  11  11  221.58   20.20
   0  11 -11  226.68   19.00
  -1 -11 -11    1.30    3.50
   1 -11  11    8.80    5.40
   1 -11  11    2.90    5.10
   1  11  11   -5.20    3.80
   2 -11  11   68.59   10.20
  -2 -11 -11   83.09    9.40
   2 -11  11   78.29   10.00
   2  11  11   56.89    8.80
   3 -11  11    9.30    5.50
  -4 -11 -11   76.89   14.80
  -7 -12  11  171.58   17.30
   7  12 -11  122.49   13.90
  -6 -12  11   51.69   11.20
   6  12 -11   49.40    9.10
  -5 -12  11  173.68   15.20
  -5 -12  11  174.28   16.00
   5  12 -11  197.28   14.70
   5  12 -11  180.38   14.80
  -4 -12  11   24.40    8.00
  -3 -12  11  168.98   17.10
  -3 -12  11  203.28   17.70
   3  12 -11  201.38   15.90
   3  12 -11  216.48   15.80
  -3  12  11  159.18   16.60
  -2 -12  11    6.20    4.30
   2  12 -11    1.60    2.50
  -1 -12  11   82.79   10.50
  -1 -12  11   92.89   11.00
   1  12 -11   77.59    9.10
  -1  12  11   76.99    9.90
   0 -12  11    5.30    5.60
   0  12  11   -4.40    4.20
   1 -12  11   64.19    9.70
  -1 -12 -11   55.99    9.50
   1 -12  11   61.69    9.00
   2 -12  11    8.90    5.30
  -3 -12 -11   53.79    9.50
   3  12  11   36.60    9.60
  -5 -13  11   59.79   11.80
  -4 -13  11  157.38   14.40
   4  13 -11  122.39   12.00
   4  13 -11  108.09   11.00
  -3 -13  11   32.90   10.20
  -3 -13  11   49.40    9.80
  -2  13  11   30.10    8.60
   2  13 -11   45.00    7.00
  -1 -13  11   39.30    9.00
  -1 -13  11   38.00   10.60
   1 -13  11   40.90    9.80
   2  13  11   83.79   12.40
   3  14 -11   62.49    8.10
  -2 -14  11   65.09   12.30
  -2 -14  11   55.39   11.00
   0 -14  11   15.40    7.90
  11   0 -12    8.40    6.50
 -10   0  12   48.00    8.00
  10   0 -12   63.39    7.30
  -9   0  12   25.50    6.10
   9   0 -12   24.30    5.20
  -8   0  12  369.96   29.50
  -8   0  12  404.26   29.60
   8   0 -12  354.66   28.90
   8   0 -12  385.86   27.10
  -7   0  12    8.20    4.30
   7   0 -12    9.40    3.40
   6   0 -12  522.75   38.10
   6   0 -12  543.55   36.50
  -6   0  12  530.75   39.60
  -6   0  12  546.05   39.80
  -5   0  12    4.80    3.90
   5   0 -12    0.00    2.20
   5   0 -12    1.80    1.80
  -5   0  12    4.10    5.20
   5   0 -12    3.80    2.60
   4   0 -12  714.43   43.20
   4   0 -12  630.94   44.30
   4   0 -12  606.44   42.40
  -4   0  12  617.64   46.50
  -4   0  12  639.84   45.80
  -3   0  12   -5.90    3.80
  -3   0  12   -4.90    5.00
   3   0 -12   -0.60    0.80
   2   0 -12  517.05   32.00
  -2   0  12  476.45   33.50
  -2   0  12  451.55   35.90
  -2   0  12  477.65   34.80
   1   0 -12    0.60    1.30
  -1   0  12    0.90    2.70
   0   0  12  508.45   37.70
   0   0  12  504.75   36.10
  -1   0 -12    0.40    0.90
   1   0  12    4.10    2.50
   1   0  12   -1.80    4.80
   2   0  12  934.61   67.79
  -2   0 -12 1074.09   65.39
   2   0  12  916.61   66.49
   3   0  12   -2.50    3.70
   3   0  12    0.00    2.00
   4   0  12  286.37   21.30
  -4   0 -12  274.67   27.40
   4   0  12  257.87   19.90
   4   0  12  298.97   22.50
   4   0  12  285.07   22.30
   5   0  12   -2.50    3.60
   5   0  12   -3.30    3.10
   5   0  12    3.90    3.50
  -6   0 -12   35.40   11.80
  -7   0 -12  -12.30   14.90
  11  -1 -12   40.60    8.50
  11   1 -12   56.59    8.00
 -10  -1  12    5.70    4.60
  10  -1 -12    1.60    3.70
  10  -1 -12    5.30    4.90
 -10   1  12   -0.40    4.70
  10   1 -12   12.20    3.90
   9  -1 -12   90.59    8.70
  -9  -1  12   85.29    9.90
   9  -1 -12   90.29    8.90
   9   1 -12  102.69    8.90
  -9   1  12  115.59   10.60
  -9   1  12  119.99   10.70
   9   1 -12   93.29    9.00
  -8  -1  12   21.50    5.50
  -8  -1  12    8.30    4.30
   8  -1 -12   10.30    3.50
   8   1 -12    5.10    5.70
  -8   1  12    1.70    3.40
  -8   1  12   20.60    5.90
  -7  -1  12  448.16   40.50
   7  -1 -12  477.45   34.10
  -7  -1  12  552.54   38.00
   7  -1 -12  525.35   35.60
   7   1 -12  481.75   35.70
   7   1 -12  492.15   34.20
  -7   1  12  511.05   36.90
  -7   1  12  460.25   38.00
   6  -1 -12    2.80    1.50
   6  -1 -12    6.00    3.00
  -6  -1  12    2.20    4.20
  -6  -1  12   -1.40    4.00
   6   1 -12    2.40    1.50
  -6   1  12    3.60    4.00
  -6   1  12    8.20    5.10
   6   1 -12    4.10    4.30
   5  -1 -12  578.84   39.10
  -5  -1  12  585.34   43.10
   5  -1 -12  613.74   40.70
  -5  -1  12  564.24   42.10
  -5   1  12  585.54   42.90
  -5   1  12  567.64   42.40
   5   1 -12  585.54   40.90
   5   1 -12  587.64   39.50
  -4  -1  12   -3.50    4.70
  -4  -1  12    3.30    4.20
   4  -1 -12    0.70    2.10
  -4   1  12   -3.60    5.00
   4   1 -12   -3.70    2.40
  -4   1  12    0.70    4.00
   4   1 -12   -0.40    1.60
  -3  -1  12  365.06   30.00
  -3  -1  12  400.56   29.10
   3  -1 -12  355.56   27.20
  -3   1  12  395.86   29.40
   3   1 -12  415.06   26.50
  -3   1  12  399.46   30.20
  -2  -1  12   19.50    5.50
  -2  -1  12   16.30    6.20
  -2   1  12   19.40    4.50
   2   1 -12   22.40    4.10
  -2   1  12   14.20    4.80
  -2   1  12   14.30    6.20
  -1  -1  12  677.23   49.20
  -1  -1  12  704.83   47.80
  -1   1  12  686.43   48.30
  -1   1  12  683.43   49.30
   0  -1  12    5.00    2.60
   0  -1  12    4.30    5.50
   0   1  12   11.30    3.90
   0   1  12    4.00    5.60
   1  -1  12  794.82   54.99
   1  -1  12  786.22   56.59
   1   1  12  781.52   56.69
   1   1  12  774.22   55.69
  -1   1 -12  876.61   53.89
   2  -1  12   14.80    3.40
   2  -1  12   11.00    5.30
   2   1  12   13.10    5.30
   2   1  12   14.00    3.40
   2   1  12   13.50    3.90
   3  -1  12  737.13   50.79
  -3  -1 -12  664.83   55.39
   3  -1  12  707.13   52.29
   3  -1  12  763.22   53.09
   3   1  12  770.82   49.70
  -3   1 -12  818.02   50.69
   3   1  12  737.73   51.69
   3   1  12  734.63   52.69
  -3   1 -12  712.63   56.39
   4  -1  12    3.90    2.60
   4  -1  12    5.10    3.60
   4  -1  12    0.60    3.10
  -4  -1 -12   -5.30    5.80
   4  -1  12    5.10    2.60
   4   1  12    5.00    3.80
   4   1  12    4.00    2.60
   4   1  12    4.10    2.90
   5  -1  12  163.08   13.90
   5  -1  12  166.48   13.80
  -5  -1 -12  148.39   21.90
   5  -1  12  169.58   15.40
   5   1  12  151.78   13.80
   5   1  12  175.78   13.70
   5   1  12  163.58   13.30
  -5   1 -12  122.79   20.60
  -6  -1 -12  -12.20    8.80
  -7  -1 -12    3.10   19.60
  -7   1 -12   11.80   14.90
 -10  -2  12   86.39    9.30
  10  -2 -12   87.59    9.00
  10   2 -12  109.49    9.20
  10   2 -12  102.39    9.40
   9  -2 -12   21.90    5.50
  -9  -2  12   23.70    5.90
  -9   2  12   34.90   10.50
  -9   2  12   22.10    6.40
   9   2 -12   24.00    5.20
   8  -2 -12  220.28   17.60
  -8  -2  12  214.68   19.80
   8  -2 -12  242.98   18.10
  -8  -2  12  211.18   19.50
   8   2 -12  247.88   18.70
  -8   2  12  240.28   20.00
   8   2 -12  233.98   17.70
  -8   2  12  257.37   19.30
   7  -2 -12    4.40    3.00
  -7  -2  12    0.20    4.30
   7   2 -12    1.50    4.20
  -7   2  12    2.60    5.10
  -7   2  12    4.00    3.20
  -6  -2  12  260.07   22.30
  -6  -2  12  252.17   21.70
   6  -2 -12  269.07   19.50
   6  -2 -12  261.17   18.20
   6   2 -12  250.47   18.30
   6   2 -12  240.48   20.00
  -6   2  12  275.27   21.70
  -6   2  12  246.18   21.90
  -5  -2  12    0.20    4.50
  -5  -2  12    5.90    4.10
   5  -2 -12    1.80    2.30
   5  -2 -12    0.40    2.60
  -5   2  12    2.30    4.10
   5   2 -12    3.10    4.40
   5   2 -12   -2.00    3.00
  -5   2  12   -2.80    4.80
  -4  -2  12  755.72   56.49
  -4  -2  12  761.62   55.29
   4  -2 -12  827.72   53.89
   4   2 -12  808.82   54.89
  -4   2  12  811.42   56.49
   4   2 -12  828.62   53.29
  -4   2  12  762.32   55.79
  -3  -2  12    4.00    4.00
  -3  -2  12    3.90    5.50
  -3   2  12    2.40    4.40
   3   2 -12    3.90    1.30
  -3   2  12    3.50    4.20
  -3   2  12   -3.10    4.90
  -2  -2  12 1294.87   86.09
  -2  -2  12 1270.07   87.59
  -2   2  12 1194.68   86.59
   2   2 -12 1386.36   84.39
  -2   2  12 1221.28   87.29
  -1  -2  12   48.40    6.70
  -1  -2  12   38.30    9.20
  -1   2  12   36.30    9.50
   1   2 -12   45.40    4.30
  -1   2  12   47.50    7.00
   0  -2  12  894.61   58.99
   0  -2  12  835.12   60.59
   0   2  12  813.32   60.69
   0   2  12  836.42   59.99
   0   2 -12  938.71   57.89
   1  -2  12   16.80    3.90
   1  -2  12   15.80    6.00
   1   2  12   12.90    5.50
   2  -2  12  340.47   23.60
  -2  -2 -12  290.87   28.10
   2  -2  12  327.37   26.20
   2  -2  12  310.87   25.60
   2   2  12  336.77   25.10
  -2   2 -12  355.76   23.20
   2   2  12  305.07   26.00
   3  -2  12   -2.20    3.50
   3  -2  12    2.10    1.80
   3  -2  12    2.50    3.60
   3   2  12   -5.20    4.00
  -3   2 -12    5.30    1.70
   4  -2  12  141.09   11.70
   4  -2  12  146.59   12.10
   4  -2  12  151.78   14.60
  -4  -2 -12  135.79   18.80
   4  -2  12  158.08   13.50
  -4   2 -12  132.19   18.10
   4   2  12  159.98   14.10
   4   2  12  154.18   13.40
  -4   2 -12  165.88   12.80
   5  -2  12    6.10    3.60
   5  -2  12   -1.20    3.80
  -5  -2 -12  -10.90    7.10
   5   2  12   -8.00    6.10
   5   2  12   -2.20    3.50
  -6  -2 -12   37.70   12.90
   6   2  12   60.69    8.20
  -6   2 -12   40.40   11.50
  -7   2 -12   -3.60   12.90
  10  -3 -12   -5.30    5.60
  10   3 -12    8.10    4.30
   9  -3 -12  111.99    9.30
  -9  -3  12  106.19   10.50
   9  -3 -12   84.09    9.20
  -9   3  12   85.69   10.10
   9   3 -12  112.09    9.40
   8  -3 -12    7.70    3.70
  -8  -3  12    7.60    3.50
  -8   3  12   11.90    3.60
   8   3 -12    8.80    3.70
  -8   3  12    3.10    3.80
  -7  -3  12  199.18   17.70
  -7  -3  12  178.28   17.50
   7  -3 -12  188.48   14.70
   7  -3 -12  178.18   13.90
  -7   3  12  198.48   16.10
  -7   3  12  161.48   21.80
   7   3 -12  174.48   15.40
   7   3 -12  183.98   14.00
  -6  -3  12   -0.20    5.20
   6  -3 -12    2.10    2.60
  -6  -3  12    9.30    4.90
   6  -3 -12   -1.20    1.50
   6   3 -12    3.40    1.80
  -6   3  12    0.80    3.50
  -6   3  12    0.60    4.00
   6   3 -12   -5.30    3.80
  -5  -3  12  480.55   37.00
  -5  -3  12  486.35   35.50
   5  -3 -12  500.55   33.60
   5  -3 -12  469.85   32.70
  -5   3  12  485.35   36.20
   5   3 -12  481.75   35.00
   5   3 -12  443.06   33.40
  -5   3  12  505.25   36.40
   4  -3 -12    3.60    2.10
  -4  -3  12    1.30    5.00
  -4  -3  12    4.20    4.30
  -4   3  12   -4.30    4.80
   4   3 -12   -0.50    1.70
   4   3 -12   -4.70    3.20
  -4   3  12    6.30    4.10
  -3  -3  12 1006.60   72.49
  -3  -3  12 1031.80   70.99
  -3   3  12  984.40   71.69
  -3   3  12 1026.50   72.29
   3   3 -12 1141.19   69.49
  -2  -3  12   29.80    5.80
  -2  -3  12   23.60    7.10
  -2   3  12   30.40    7.70
   2   3 -12   32.00    3.50
  -2   3  12   27.60    8.70
  -1  -3  12 1183.98   84.89
  -1  -3  12 1255.07   83.19
  -1   3  12 1160.98   84.89
  -1   3  12 1227.58   84.39
   1   3 -12 1344.17   82.19
   0  -3  12   14.30    6.00
   0  -3  12   20.90    4.10
   0   3  12   25.60    6.80
   0   3 -12   21.30    3.00
   0   3  12   10.50    5.60
   1  -3  12  368.16   29.80
   1  -3  12  367.06   29.20
   1  -3  12  392.16   27.00
   1   3  12  372.56   28.80
   1   3  12  357.26   29.70
  -1   3 -12  414.36   26.70
  -2  -3 -12    5.00    6.00
   2  -3  12    9.40    4.80
   2  -3  12   15.20    5.10
   2  -3  12   13.20    3.00
  -2   3 -12   24.20    4.40
   2   3  12    4.80    5.80
  -3  -3 -12  212.18   23.20
   3  -3  12  254.27   17.80
   3  -3  12  238.38   21.20
   3  -3  12  248.98   20.20
   3   3  12  263.37   20.50
   3   3  12  232.58   21.10
  -3   3 -12  228.78   23.70
  -3   3 -12  268.47   18.50
   4  -3  12    1.30    3.20
  -4  -3 -12   -2.70    5.70
   4  -3  12    1.90    3.20
  -4   3 -12   -0.20    1.50
   4   3  12   -0.20    3.50
   5  -3  12  184.08   16.00
   5  -3  12  186.78   14.90
  -5  -3 -12  159.18   22.90
   5  -3  12  176.48   13.60
   5   3  12  158.28   14.40
   5   3  12  188.78   14.60
  -5   3 -12  182.18   13.70
  -5   3 -12  152.68   19.90
   5   3  12  155.78   15.70
   6  -3  12   10.70    5.80
  -6  -3 -12    1.60   11.30
   6  -3  12   24.80    9.80
  -6   3 -12   -3.80    6.90
   6   3  12    9.00    4.70
  10  -4 -12   31.10    7.50
  -8  -4  12  130.49   12.70
   8  -4 -12  144.79   11.80
  -8  -4  12  130.09   13.30
  -8  -4  12  137.39   11.90
  -8   4  12  124.09   12.80
  -8   4  12  143.99   12.60
   8   4 -12  156.48   11.50
   8   4 -12  150.58   12.70
   7  -4 -12    5.50    3.30
  -7  -4  12    6.30    3.10
  -7  -4  12    6.90    4.20
  -7   4  12    3.90    3.30
  -7   4  12   -1.40    3.80
   7   4 -12    6.10    2.40
  -6  -4  12  262.07   22.20
  -6  -4  12  253.77   23.90
   6  -4 -12  279.27   19.80
  -6   4  12  290.37   22.10
   6   4 -12  246.58   21.30
   6   4 -12  260.37   19.40
  -6   4  12  283.87   22.60
   5  -4 -12   -1.90    2.40
  -5  -4  12    1.20    5.60
  -5  -4  12   -2.60    3.70
   5   4 -12    1.50    2.10
  -5   4  12   -2.70    3.90
   5   4 -12   -2.40    3.70
  -5   4  12    3.20    4.20
  -4  -4  12  864.91   59.09
  -4  -4  12  879.61   61.09
   4  -4 -12  858.91   57.09
   4   4 -12  857.31   57.69
  -4   4  12  872.61   60.09
   4   4 -12  840.72   59.09
  -4   4  12  885.81   60.19
   4   4 -12  737.63   56.79
  -3  -4  12   24.30    7.00
  -3  -4  12   29.00    9.10
   3   4 -12   18.60    3.30
  -3   4  12   17.70    6.20
  -2  -4  12 1217.48   81.49
  -2  -4  12 1199.18   83.49
  -2   4  12 1155.88   83.19
  -2   4  12 1211.18   82.89
   2   4 -12 1244.98   80.59
  -1  -4  12    9.90    5.20
  -1  -4  12   25.20    8.00
  -1  -4  12   17.10    4.40
   1   4 -12   18.10    3.00
  -1   4  12   26.30    6.20
   0  -4  12  547.85   36.80
   0  -4  12  506.55   39.40
   0  -4  12  514.45   39.00
   0   4 -12  545.25   36.40
   0   4  12  520.55   38.80
   1  -4  12   -2.10    4.00
   1  -4  12    1.60    1.60
   1   4  12    8.80    3.50
   2  -4  12  141.49   14.40
  -2  -4 -12  135.19   17.20
   2  -4  12  161.88   15.80
   2  -4  12  150.78   11.60
   2   4  12  159.98   14.80
  -2   4 -12  167.78   12.70
   3  -4  12   32.30    7.10
   3  -4  12   38.20    6.40
  -3  -4 -12   39.50   10.80
  -3   4 -12   28.40    7.30
  -4  -4 -12  184.18   22.90
   4  -4  12  225.68   17.50
   4  -4  12  227.08   19.10
  -4   4 -12  215.88   17.20
  -4   4 -12  190.58   20.90
   4   4  12  213.38   17.70
   5  -4  12    0.60    4.20
   5  -4  12    1.40    3.90
  -5  -4 -12   -6.60    8.00
  -5   4 -12   -2.90    1.90
   5   4  12    1.40    4.30
   5   4  12    5.10    3.80
   6  -4  12   99.69    8.90
   6  -4  12  105.09   12.00
  -6  -4 -12   75.79   24.20
   6   4  12   67.59   11.00
  -6   4 -12   82.59   16.80
   6   4  12   90.19    9.60
   9  -5 -12  102.89   10.60
   9   5 -12  113.99   10.50
   9   5 -12  140.69   10.50
   8   5 -12   31.70    5.70
  -7  -5  12  245.78   20.10
  -7  -5  12  243.38   20.70
   7  -5 -12  255.77   19.20
  -7   5  12  247.28   21.10
   7   5 -12  256.47   20.20
   7   5 -12  260.07   18.90
  -7   5  12  255.07   20.40
  -6  -5  12   -0.60    2.80
  -6  -5  12    1.50    4.10
   6  -5 -12    3.30    3.00
   6   5 -12    2.90    2.40
   6   5 -12    8.70    4.30
  -6   5  12    8.60    3.60
  -6   5  12    4.30    3.30
  -5  -5  12  367.66   27.60
  -5  -5  12  356.46   27.70
  -5  -5  12  344.97   29.70
   5  -5 -12  358.26   24.90
  -5   5  12  357.56   28.20
  -5   5  12  355.46   27.90
   5   5 -12  361.16   27.20
   5   5 -12  322.87   24.80
  -4  -5  12   -0.40    5.10
  -4  -5  12    0.40    3.90
  -4  -5  12   -0.20    3.40
   4  -5 -12    2.00    3.70
  -4   5  12   -3.60    4.40
  -4   5  12    4.20    4.20
   4   5 -12   -2.40    3.00
  -3  -5  12  566.84   43.80
  -3  -5  12  616.14   41.80
  -3  -5  12  592.94   42.90
  -3   5  12  571.04   42.70
   3   5 -12  583.94   40.50
  -3   5  12  570.64   43.10
  -2  -5  12    1.90    2.30
  -2  -5  12    4.40    4.10
  -2  -5  12    1.40    5.20
   2   5 -12    6.80    1.60
  -2   5  12    8.70    4.00
  -1  -5  12  540.25   40.50
  -1  -5  12  566.64   37.90
  -1  -5  12  504.45   40.30
  -1   5  12  532.15   40.00
   1   5 -12  562.44   37.60
   0  -5  12    3.40    5.00
   0  -5  12   11.20    4.80
   0   5 -12   16.90    3.50
   0   5  12    8.90    4.00
   1  -5  12  525.45   40.70
   1  -5  12  552.34   36.90
   1  -5  12  535.25   39.90
  -1  -5 -12  514.95   40.70
   1   5  12  556.54   40.10
  -1   5 -12  543.55   37.60
   2  -5  12    5.20    1.90
  -2  -5 -12   -3.00    5.40
   2  -5  12    1.10    4.10
   2  -5  12    2.80    3.50
   2   5  12    9.10    3.10
  -3  -5 -12  301.97   28.50
   3  -5  12  322.27   25.10
   3  -5  12  310.27   26.70
  -3   5 -12  295.57   27.40
  -3   5 -12  337.17   23.50
   3   5  12  335.77   26.00
   4  -5  12    2.10    4.00
   4  -5  12   -1.60    3.60
  -4   5 -12   -0.60    1.60
   4   5  12    8.50    3.90
   5  -5  12  118.89   11.00
  -5  -5 -12   94.89   20.70
  -5   5 -12   86.89   13.30
  -5   5 -12   93.69    9.30
   5   5  12  119.29   11.20
   6  -5  12   -7.70    5.30
  -6  -5 -12   -7.90   12.90
  -6   5 -12   -5.60    6.20
   6   5  12   -7.30    5.20
  10   6 -12   72.29    9.30
   9   6 -12   58.09    8.20
   8  -6 -12  129.29   11.70
  -8  -6  12  117.39   13.00
  -8  -6  12  155.18   12.60
  -8   6  12  133.09   16.00
  -8   6  12  118.19   12.40
   8   6 -12  162.88   12.20
   8   6 -12  143.59   12.10
   7  -6 -12    1.20    4.00
  -7  -6  12    1.70    3.20
   7   6 -12   -0.80    3.90
   7   6 -12    7.60    3.10
  -6  -6  12  542.25   37.80
   6  -6 -12  514.45   35.30
  -6  -6  12  430.96   42.50
   6   6 -12  466.85   38.00
  -6   6  12  553.24   38.20
   6   6 -12  504.75   35.60
  -6   6  12  521.55   39.40
  -5  -6  12    4.40    5.00
  -5  -6  12    8.40    4.50
  -5  -6  12    8.60    3.70
  -5   6  12    3.50    3.50
  -5   6  12    6.10    4.40
   5   6 -12   13.90    4.90
   5   6 -12    5.70    2.50
  -4  -6  12  415.06   29.60
  -4  -6  12  389.06   30.60
  -4  -6  12  356.36   31.90
   4   6 -12  389.36   28.50
   4   6 -12  374.16   27.40
  -4   6  12  426.66   31.00
  -4   6  12  384.36   30.80
  -3  -6  12   -0.70    3.10
  -3  -6  12   -5.10    5.20
  -3  -6  12   -1.60    4.10
   3   6 -12   -2.90    1.60
  -3   6  12    6.20    4.20
  -2  -6  12  283.97   21.40
  -2  -6  12  286.17   24.10
  -2  -6  12  291.57   24.80
  -2   6  12  289.47   23.90
   2   6 -12  277.17   21.50
  -1  -6  12   -6.30    4.70
  -1  -6  12   -2.80    4.10
  -1  -6  12    2.90    1.80
   1   6 -12    1.80    1.60
  -1   6  12    1.60    3.50
   0  -6  12  291.17   24.80
   0  -6  12  295.47   21.10
   0  -6  12  297.17   25.00
   0   6  12  287.97   24.40
   0   6 -12  300.67   22.00
   1  -6  12    6.20    4.10
  -1  -6 -12   -1.00    4.70
   1  -6  12   10.60    5.20
   1  -6  12    5.30    1.80
  -2  -6 -12  404.46   33.70
   2  -6  12  451.55   32.50
   2  -6  12  399.46   33.40
   2   6  12  402.96   32.30
  -2   6 -12  421.66   30.20
   3  -6  12   14.20    4.20
  -3  -6 -12    7.90    6.30
  -3   6 -12   14.10    4.40
   4  -6  12  252.17   21.90
   4  -6  12  260.47   20.90
  -4  -6 -12  236.18   26.90
  -4   6 -12  263.77   19.70
   4   6  12  266.37   21.80
  -4   6 -12  277.67   24.10
   5  -6  12    8.30    5.00
  -5  -6 -12   -9.90    9.20
  -5   6 -12   -5.20    4.20
   5   6  12    1.40    5.20
  -6  -6 -12   41.30   16.20
   6  -6  12   37.90    7.50
  -6   6 -12   33.10    8.30
   6   6  12   35.90    7.20
   9   7 -12  110.29   10.00
   8   7 -12   43.70   12.70
  -7  -7  12  247.18   19.80
   7  -7 -12  238.48   18.70
  -7   7  12  212.28   19.60
  -7   7  12  259.67   20.20
   7   7 -12  275.27   19.00
   7   7 -12  247.98   20.10
  -6  -7  12    6.90    3.30
   6  -7 -12    1.20    4.70
  -6  -7  12    1.70    4.50
  -6   7  12    2.60    3.40
  -6   7  12    2.20    3.80
   6   7 -12   -0.80    4.30
  -5  -7  12  297.17   23.90
  -5  -7  12  308.27   23.20
  -5   7  12  302.77   24.30
  -5   7  12  289.47   27.70
   5   7 -12  224.18   25.80
   5   7 -12  296.07   21.30
  -4  -7  12    6.00    3.20
  -4   7  12    4.80    3.70
  -3  -7  12  206.68   16.40
  -3  -7  12  169.48   18.60
  -3  -7  12  211.48   18.90
   3   7 -12  173.58   14.70
   3   7 -12  193.98   15.70
  -3   7  12  226.68   18.20
  -2  -7  12   -3.10    3.50
  -2  -7  12   -5.30    4.60
   2   7 -12   -0.80    1.70
  -1  -7  12  215.88   20.10
  -1  -7  12  207.18   20.30
  -1  -7  12  227.78   16.60
  -1   7  12  216.58   19.30
   1   7 -12  230.08   17.40
   0  -7  12   -2.30    4.80
   0  -7  12    6.00    7.40
   0  -7  12    7.10    1.90
   0   7 -12    6.40    1.90
   0   7  12    7.30    5.60
   1  -7  12  638.74   47.30
  -1  -7 -12  652.03   47.60
   1  -7  12  654.23   48.00
   1   7  12  609.54   47.00
  -1   7 -12  639.24   44.90
   2  -7  12    2.60    3.70
   2  -7  12    4.80    4.20
  -2  -7 -12   -2.00    4.10
   2   7  12    4.00    3.40
   3  -7  12  323.17   26.40
   3  -7  12  301.87   24.80
  -3  -7 -12  297.27   28.40
  -3   7 -12  342.37   26.90
  -3   7 -12  311.17   23.40
   3   7  12  301.77   25.50
  -4  -7 -12    3.30    6.60
   4  -7  12    4.00    4.30
   4  -7  12   18.00    8.40
  -4   7 -12   -2.10    4.00
  -5  -7 -12   39.30   12.10
   5   7  12   38.10   10.10
   9   8 -12   54.19    8.20
   8   8 -12   82.09    8.70
   7   8 -12   22.50    5.90
  -6  -8  12  276.37   22.20
   6   8 -12  266.47   20.10
  -6   8  12  245.88   21.40
   6   8 -12  248.98   21.20
  -6   8  12  280.47   21.50
  -5  -8  12   -2.80    4.30
   5   8 -12   -3.50    3.00
  -5   8  12   -4.40    3.80
  -4  -8  12  209.48   18.90
   4   8 -12  220.28   16.40
   4   8 -12  215.08   17.30
  -4   8  12  199.58   18.80
  -3  -8  12   -3.60    4.60
  -2  -8  12  279.27   32.20
   2   8 -12  264.27   21.80
  -2   8  12  314.57   26.20
   1  -8 -12    4.10    2.80
  -1  -8  12    7.00    4.10
  -1  -8  12   -2.80    4.60
  -1   8  12    1.70    3.80
   1   8 -12    6.00    2.20
   0  -8 -12  569.84   41.40
   0  -8  12  564.24   43.00
   0   8 -12  589.14   40.30
   0   8  12  521.65   41.80
   1  -8  12    1.10    4.00
  -1  -8 -12    2.80    4.90
   1  -8  12   -2.90    3.50
   1   8  12    2.10    3.50
  -1   8 -12    2.60    3.70
  -2  -8 -12  224.98   19.90
   2  -8  12  157.98   17.80
   2  -8  12  201.88   18.90
  -2   8 -12  206.18   15.90
   2   8  12  183.48   17.60
   3  -8  12    0.60    3.90
  -3  -8 -12   -2.40    5.30
  -3   8 -12   -4.80    3.70
   3   8  12    0.50    4.40
  -3   8 -12   -3.30    1.90
   4  -8  12   68.09    9.10
  -4  -8 -12   51.39   16.30
  -4   8 -12   44.90    7.10
   4   8  12   55.89    9.40
   5  -8  12    9.60    5.90
  -5  -8 -12  -12.90    9.50
   5   8  12  -10.60    6.30
  -5   8 -12   -0.90    4.60
   8   9 -12   30.00    7.20
  -7  -9  12   68.89    9.00
   7   9 -12   73.69    7.50
  -7   9  12   54.09    9.50
  -6  -9  12    7.30    4.00
   6   9 -12   10.30    4.20
  -5  -9  12  168.88   14.00
  -5   9  12  123.29   14.40
   5   9 -12  159.68   13.20
  -5   9  12  161.48   14.20
  -4  -9  12   -2.20    3.00
   4   9 -12    3.40    2.40
  -3  -9  12  371.16   29.70
  -3   9  12  371.66   29.30
   3   9 -12  364.56   26.80
   3   9 -12  372.46   31.30
  -2  -9  12   -0.10    4.20
  -2  -9  12    7.90    3.80
   2   9 -12    4.30    3.10
  -2   9  12    1.70    3.70
   1  -9 -12  410.96   28.40
  -1  -9  12  359.66   30.40
  -1   9  12  352.86   29.70
   0  -9  12   10.00    4.30
   0   9 -12    6.90    2.30
   0   9  12    9.60    3.90
  -1  -9 -12  252.67   21.80
   1  -9  12  262.97   23.00
  -1   9 -12  259.07   19.90
   1   9  12  230.88   21.20
  -2  -9 -12    2.50    4.20
   2  -9  12    7.70    4.90
   2  -9  12    1.30    4.10
   3  -9  12   57.39    8.90
  -3  -9 -12   50.99   11.90
   3   9  12   43.00    8.80
  -3   9 -12   35.00    6.60
  -3   9 -12   64.49    8.70
  -4  -9 -12   -0.20    8.00
   4  -9  12    9.70    5.80
  -4   9 -12    0.10    4.40
   8  10 -12   78.79   10.00
  -7 -10  12   73.49   11.40
  -6 -10  12  124.49   12.90
  -6 -10  12  112.49   11.80
   6  10 -12  144.49   16.00
  -5 -10  12    1.00    4.10
  -5 -10  12   12.70    5.60
   5  10 -12    3.10    2.40
  -4 -10  12  237.88   19.80
   4  10 -12  225.58   18.30
   4  10 -12  261.37   18.60
  -4  10  12  190.98   19.20
  -3 -10  12    0.00    5.00
  -3 -10  12    7.20    3.60
   3  10 -12   -1.00    2.20
  -2 -10  12  363.96   27.70
  -2  10  12  298.77   26.30
   2  10 -12  311.67   24.50
  -1 -10  12    0.50    4.70
   0 -10  12  209.48   20.90
   0 -10 -12  258.97   19.70
   0  10 -12  211.78   18.20
   0  10  12  218.58   19.50
  -1 -10 -12    9.00    3.20
   1 -10  12    6.60    5.30
  -2 -10 -12   62.09    9.40
   2 -10  12   53.29    8.90
   2 -10  12   43.60    8.30
   2  10  12   32.60    8.30
   3 -10  12    5.20    5.30
  -4 -10 -12   59.39   16.30
   4 -10  12   60.29   11.90
  -4  10 -12   64.39    9.90
  -7 -11  12  122.69   14.00
  -6 -11  12   61.79   10.80
  -6 -11  12   51.99   10.00
  -5 -11  12  120.59   12.50
  -5 -11  12  125.49   12.20
   5  11 -12  128.09   11.20
  -4 -11  12   28.10    8.40
  -4 -11  12    3.90    4.60
  -3 -11  12  272.27   22.50
  -3  11  12  233.58   21.10
   3  11 -12  280.27   20.50
  -2 -11  12   -0.60    4.20
  -2 -11  12    9.20    5.50
  -1 -11  12  102.89   11.80
  -1 -11  12  121.99   12.90
   1  11 -12  116.79   11.30
  -1  11  12  140.39   12.40
   0 -11  12    9.50    5.70
   0 -11  12    2.70    4.60
   0  11  12   -0.20    4.30
   1 -11  12   51.79    9.30
   1  11  12   58.99    8.50
   3 -11  12   92.79   11.40
  -3 -11 -12   75.19   11.90
   3  11  12   54.49   10.90
   6  12 -12   75.59    8.70
  -5 -12  12   40.00   10.40
  -4 -12  12   86.19   11.70
   4  12 -12  103.59    9.30
  -3 -12  12   13.70    7.00
  -3 -12  12   28.50    8.30
  -2 -12  12   82.29   10.50
  -2  12  12   83.39   10.00
   2  12 -12   77.19    9.10
  -1 -12  12    7.00    5.10
  -1 -12  12   15.40    6.60
   0  12 -12   26.90    3.80
   0  12  12   34.70    8.40
   1 -12  12    8.10    7.10
   1 -12  12   11.10    5.40
   2 -12  12  109.99   12.90
  -2 -12 -12  106.29   12.20
   2 -12  12  124.59   17.00
  -4 -13  12   77.69   12.40
  -4 -13  12   75.09   11.30
  -3 -13  12   80.19   10.80
  -3 -13  12   62.99   11.80
  -2 -13  12   30.40    9.60
  -2 -13  12   19.10    7.50
   0 -13  12   45.90   10.50
   0 -13  12   34.60   11.20
  10   0 -13    2.40    5.60
  -9   0  13  194.28   16.60
  -9   0  13  164.48   15.70
   9   0 -13  182.48   14.30
   8   0 -13   12.10    4.10
  -8   0  13    9.60    4.20
  -8   0  13    5.50    3.30
  -7   0  13  299.07   24.90
   7   0 -13  301.17   23.40
  -7   0  13  330.57   25.60
   6   0 -13    3.70    3.40
  -6   0  13    0.30    4.30
  -6   0  13    4.50    3.70
  -5   0  13  298.67   25.10
   5   0 -13  320.77   23.10
  -5   0  13  319.07   25.90
  -4   0  13   -0.10    3.80
   4   0 -13   -2.80    2.70
  -4   0  13   -3.80    4.50
  -3   0  13  310.07   25.90
  -3   0  13  325.27   24.70
  -2   0  13   -1.60    4.80
  -2   0  13    0.50    3.60
   2   0 -13   -0.20    1.00
  -1   0  13  697.73   48.50
  -1   0  13  676.73   49.70
   1   0 -13  690.83   45.80
   0   0 -13    2.50    1.10
   0   0  13    1.40    3.50
   0   0  13   -7.20    5.10
   1   0  13 1111.19   75.39
   1   0  13 1100.29   76.89
   2   0  13    0.50    5.10
   2   0  13    1.00    2.50
   3   0  13  447.06   31.90
   3   0  13  454.35   33.40
   3   0  13  455.35   33.60
  -3   0 -13  409.76   37.30
   4   0  13   -2.10    2.90
   5   0  13   49.10    8.00
   5   0  13   48.20    6.90
 -10  -1  13   62.59    8.80
  10  -1 -13   85.59    8.50
  10   1 -13   77.89    8.10
 -10   1  13   49.90    9.50
  -9  -1  13   21.50    5.80
   9  -1 -13   10.30    4.90
   9   1 -13   10.90    4.90
  -9   1  13   37.00   10.80
   8  -1 -13  154.18   15.20
  -8  -1  13  150.28   14.20
  -8  -1  13  145.09   16.50
   8   1 -13  148.79   12.50
  -8   1  13  152.68   14.60
  -8   1  13  169.78   14.10
  -7  -1  13    8.70    3.50
   7  -1 -13   17.80    4.60
  -7  -1  13    4.30    4.10
   7   1 -13    9.10    4.10
  -6  -1  13  395.06   31.40
   6  -1 -13  416.36   30.00
  -6  -1  13  410.26   32.50
  -6   1  13  423.26   32.10
  -6   1  13  409.76   32.50
   6   1 -13  425.26   30.20
  -5  -1  13    4.20    4.50
  -5  -1  13   -3.10    4.90
   5  -1 -13    7.60    2.90
  -5   1  13   -0.80    4.60
   5   1 -13    2.80    3.80
   5   1 -13   -0.70    2.20
  -5   1  13    1.90    4.30
  -4  -1  13  490.25   35.20
  -4  -1  13  464.65   36.20
   4  -1 -13  473.45   33.20
   4   1 -13  456.55   32.00
  -4   1  13  471.25   35.20
  -4   1  13  487.65   36.20
   4   1 -13  474.75   33.80
  -3  -1  13   48.20    7.50
  -3  -1  13   27.40    8.30
  -3   1  13   23.40    7.00
   3   1 -13   37.40    4.90
  -3   1  13   41.50    7.50
  -2  -1  13  421.36   31.00
  -2  -1  13  376.16   32.10
   2   1 -13  461.95   28.50
  -2   1  13  390.26   32.20
  -2   1  13  435.56   31.30
  -1  -1  13    6.40    3.50
  -1  -1  13    1.50    5.30
  -1   1  13    6.10    3.60
  -1   1  13    1.30    5.50
   1   1 -13    3.40    1.20
   0  -1  13  754.82   52.89
   0  -1  13  714.53   54.29
   0   1  13  746.73   54.59
   0   1  13  751.52   53.19
   0   1 -13  837.32   50.99
   1  -1  13   30.80    6.10
   1   1  13   40.70    5.80
  -1   1 -13   32.40    3.70
   1   1  13   20.50    6.70
   2  -1  13  435.66   35.50
   2  -1  13  473.25   33.80
   2   1  13  485.85   34.40
  -2   1 -13  510.05   32.80
   2   1  13  463.35   35.90
   3  -1  13    4.40    3.10
  -3  -1 -13   -4.20    5.50
   3  -1  13    7.80    3.90
   3  -1  13   -0.70    2.50
  -3   1 -13   -4.00    4.70
  -3   1 -13    3.90    1.50
   3   1  13    2.90    3.50
   4  -1  13  122.79   11.00
  -4  -1 -13   95.79   17.30
   4  -1  13  116.69   11.80
   4  -1  13  115.59    9.80
   4   1  13  118.59   11.30
   4   1  13  128.79   10.80
   4   1  13  104.59   11.50
  -4   1 -13   82.79   16.80
   5  -1  13    8.60    4.20
   5  -1  13    1.90    4.30
   5   1  13   -2.90    4.20
   5   1  13    4.20    4.10
  -5   1 -13  -11.80    7.60
   5   1  13    0.20    3.90
  -6  -1 -13   27.10   14.40
  -6   1 -13   29.70   14.10
  10  -2 -13    0.60    6.00
  10   2 -13    7.60    5.80
   9  -2 -13  126.39   11.30
  -9  -2  13  155.68   13.30
  -9  -2  13  135.79   12.60
   9   2 -13  143.39   11.50
  -9   2  13  135.49   16.70
  -8  -2  13    4.20    3.40
   8  -2 -13   11.40    6.40
  -8   2  13    6.90    3.50
  -8   2  13    2.30    4.40
   8   2 -13    4.80    4.00
   7  -2 -13  238.78   18.70
  -7  -2  13  261.37   21.20
  -7  -2  13  243.38   20.50
  -7   2  13  219.68   20.30
  -7   2  13  251.87   20.60
   7   2 -13  250.67   19.20
  -6  -2  13    9.70    3.90
   6  -2 -13    7.30    3.30
  -6  -2  13    2.70    5.50
  -6   2  13    5.60    4.60
   6   2 -13    9.60    3.60
  -6   2  13    7.90    5.50
  -5  -2  13  422.96   30.40
  -5  -2  13  400.86   31.40
   5  -2 -13  410.36   27.90
   5   2 -13  383.16   29.20
  -5   2  13  377.06   30.70
  -5   2  13  394.86   30.60
   5   2 -13  363.36   27.00
  -4  -2  13   24.70    7.80
   4  -2 -13   27.10    4.10
   4   2 -13   29.70    3.30
  -4   2  13   35.60    7.50
   4   2 -13   26.40    4.70
  -3  -2  13  751.92   55.09
  -3  -2  13  762.12   53.59
  -3   2  13  763.02   54.19
  -3   2  13  750.92   54.79
   3   2 -13  799.02   51.19
  -2  -2  13   19.40    5.00
  -2  -2  13   18.70    6.40
  -2   2  13   18.30    6.50
  -1  -2  13  594.64   44.60
  -1  -2  13  595.24   42.90
  -1   2  13  612.24   43.60
   1   2 -13  642.94   41.00
  -1   2  13  596.14   44.70
   0  -2  13   10.80    5.70
   0  -2  13   15.30    4.60
   0   2 -13   21.60    2.90
   1  -2  13  506.05   35.60
   1  -2  13  495.55   37.80
  -1   2 -13  541.25   34.70
   1   2  13  474.15   38.00
   1   2  13  508.95   36.90
   2  -2  13   36.80    5.10
   2  -2  13   32.80    7.70
   2  -2  13   30.20    7.30
  -2  -2 -13   29.80    9.60
  -2   2 -13   43.80    5.30
   2   2  13   30.50    7.70
   3  -2  13  237.18   25.40
   3  -2  13  262.17   21.40
  -3  -2 -13  223.38   25.10
   3  -2  13  266.67   19.40
  -3   2 -13  247.88   25.50
  -3   2 -13  279.27   19.40
   3   2  13  287.97   20.90
   4  -2  13   15.80    3.70
   4  -2  13    8.50    3.50
   4   2  13   12.30    4.00
   4   2  13   11.40    3.40
  -5  -2 -13  129.29   23.50
   5  -2  13  166.38   12.80
  -5   2 -13  110.99   20.20
   5   2  13  137.29   12.40
   5   2  13  132.59   12.60
  -6  -2 -13  -20.30   13.20
  -6   2 -13  -15.10    9.70
  10  -3 -13   27.30    6.70
   9  -3 -13   14.40    5.30
   9   3 -13   13.70    5.20
   8  -3 -13  111.39   10.30
  -8  -3  13  108.59   11.00
  -8  -3  13  101.59   10.50
  -8   3  13  103.59   11.10
   8   3 -13  120.09   10.20
  -8   3  13  120.39   10.80
   7  -3 -13    2.40    3.70
  -7  -3  13    7.20    3.30
  -7  -3  13   -4.20    5.90
  -7   3  13   -3.40    3.70
   7   3 -13    4.90    5.90
  -7   3  13    5.10    3.30
  -6  -3  13  308.87   31.10
  -6  -3  13  330.17   26.90
   6  -3 -13  315.67   23.30
  -6   3  13  330.47   26.10
   6   3 -13  334.17   24.90
  -6   3  13  302.47   28.30
  -5  -3  13   12.90    4.70
  -5  -3  13    7.40    6.10
  -5   3  13    9.90    3.60
   5   3 -13   11.30    3.80
  -5   3  13    7.70    5.50
  -4  -3  13  876.51   59.89
   4  -3 -13  786.72   57.69
  -4  -3  13  829.72   61.49
  -4   3  13  880.51   61.09
   4   3 -13  907.41   57.79
  -4   3  13  871.71   60.79
  -3  -3  13    6.80    3.80
  -3  -3  13    7.40    6.00
   3   3 -13    5.00    1.10
  -3   3  13    3.90    5.40
  -2  -3  13  875.91   62.79
  -2  -3  13  913.01   61.19
  -2   3  13  815.32   62.49
  -2   3  13  846.12   61.79
   2   3 -13  967.90   59.29
  -1  -3  13   -1.40    5.00
  -1  -3  13   -1.70    2.50
  -1   3  13   -6.30    4.90
  -1   3  13    7.90    3.80
   0  -3  13  260.37   23.80
   0  -3  13  304.87   21.60
   0  -3  13  280.97   24.50
   0   3 -13  308.57   20.60
   0   3  13  299.67   23.20
   0   3  13  275.37   24.10
   1  -3  13    2.20    4.70
   1  -3  13    5.00    4.20
  -1   3 -13    5.60    1.40
   1   3  13    9.60    3.90
   2  -3  13  111.39   12.70
   2  -3  13  114.89   12.80
  -2  -3 -13   95.49   14.70
   2  -3  13  111.49    9.40
  -2   3 -13  126.99   10.00
   2   3  13  138.49   12.00
   2   3  13  109.99   13.40
   3  -3  13    5.20    3.70
  -3  -3 -13   -7.50    5.40
   3  -3  13    2.00    3.20
   3   3  13    0.00    3.70
  -3   3 -13    2.90    1.70
   4  -3  13  144.29   11.50
  -4  -3 -13  100.39   19.10
   4  -3  13  125.09   11.70
   4   3  13  121.59   11.70
   4   3  13  124.99   11.30
  -4   3 -13  107.39   10.10
   5  -3  13    5.10    4.60
  -5  -3 -13  -10.30    8.60
   5   3  13    3.90    4.40
  -5   3 -13   -2.20    6.70
   5   3  13    1.90    4.50
  -6  -3 -13   71.59   21.00
  -6   3 -13   98.79   23.30
   9  -4 -13   68.49    8.90
  -9  -4  13   79.39    8.70
   9   4 -13   98.19    8.50
   8  -4 -13    4.20    4.90
   8   4 -13   18.90    5.20
  -8   4  13   12.30    4.10
  -7  -4  13  142.09   15.20
   7  -4 -13  198.88   13.70
  -7  -4  13  171.68   15.40
  -7  -4  13  163.18   15.40
  -7   4  13  171.08   15.70
   7   4 -13  171.58   14.50
  -7   4  13  188.58   15.70
   6  -4 -13   -2.00    3.40
  -6  -4  13    4.10    4.40
  -6   4  13    4.90    3.40
   6   4 -13    9.70    3.90
  -6   4  13   -0.10    4.00
   5  -4 -13  399.36   29.00
  -5  -4  13  423.76   31.80
  -5  -4  13  424.46   33.40
  -5   4  13  452.55   32.80
  -5   4  13  414.96   32.20
   5   4 -13  391.76   30.90
   5   4 -13  411.86   29.40
  -4  -4  13    3.00    5.80
  -4  -4  13    2.30    3.70
  -4   4  13    9.80    4.50
  -4   4  13   -2.20    4.70
  -3  -4  13  798.42   57.79
  -3  -4  13  805.72   55.39
   3   4 -13  792.52   53.79
  -3   4  13  789.12   56.99
  -3   4  13  784.92   56.49
  -2  -4  13    4.80    5.10
  -2  -4  13    2.90    5.40
  -2  -4  13    6.10    3.60
   2   4 -13    3.50    1.20
  -2   4  13   11.30    4.10
  -2   4  13   -1.70    5.20
  -1  -4  13  504.55   39.30
  -1  -4  13  504.35   39.20
  -1  -4  13  532.05   36.80
  -1   4  13  498.15   39.50
  -1   4  13  523.25   38.60
   1   4 -13  557.34   36.00
   0  -4  13   -0.80    3.90
   0  -4  13   -2.20    4.60
   0   4  13   -0.70    3.10
   0   4 -13    1.20    1.10
   1  -4  13  244.58   18.50
   1  -4  13  249.97   22.00
   1  -4  13  254.77   21.90
   1   4  13  239.48   21.90
   1   4  13  255.67   20.80
  -1   4 -13  269.77   18.80
   2  -4  13    0.30    4.40
  -2   4 -13    3.30    1.50
   2   4  13   -4.60    4.30
  -3  -4 -13  137.49   19.30
   3  -4  13  173.18   14.60
   3  -4  13  176.18   15.50
   3   4  13  157.98   15.30
  -3   4 -13  144.19   18.20
   3   4  13  172.78   14.30
  -3   4 -13  166.78   13.10
   4  -4  13    1.90    3.90
   4  -4  13    3.20    4.40
   4   4  13   -2.40    4.00
   4   4  13   -2.10    3.80
  -5  -4 -13  134.99   24.00
   5  -4  13  171.58   14.10
   5  -4  13  163.48   12.90
   5   4  13  160.68   14.00
  -5   4 -13  152.58   19.80
  -5   4 -13  134.29   12.60
   5   4  13  145.89   14.10
  10   5 -13   90.49   10.20
   9   5 -13   31.90    6.70
  -8  -5  13  147.29   13.00
  -8  -5  13  150.08   13.60
  -8  -5  13  148.89   12.90
   8  -5 -13  148.29   12.90
  -8   5  13  149.99   12.90
  -8   5  13  126.59   13.50
   8   5 -13  171.78   13.00
  -7  -5  13   11.80    4.70
   7  -5 -13    8.90    4.20
  -7  -5  13   11.00    3.60
  -7  -5  13    5.10    3.00
   7   5 -13   19.20    4.80
  -7   5  13    3.60    4.00
  -7   5  13    4.10    3.80
  -6  -5  13  349.67   26.60
  -6  -5  13  289.07   27.30
   6  -5 -13  343.97   24.40
  -6  -5  13  368.06   27.00
   6   5 -13  323.77   27.20
  -6   5  13  334.57   27.00
  -6   5  13  369.56   27.30
  -5  -5  13    0.60    3.90
  -5  -5  13   11.50    3.60
  -5  -5  13   -5.00    8.80
  -5   5  13    7.20    5.40
   5   5 -13    8.30    4.60
  -5   5  13    6.20    4.30
  -4  -5  13  425.16   34.30
  -4  -5  13  427.86   32.20
  -4  -5  13  452.35   33.50
  -4   5  13  424.86   33.60
   4   5 -13  427.36   30.60
  -4   5  13  423.56   33.10
  -3  -5  13    8.00    3.60
  -3  -5  13    6.50    5.50
   3   5 -13    4.80    1.50
  -3   5  13    3.60    6.10
  -2  -5  13  317.27   23.20
  -2  -5  13  307.27   26.00
  -2  -5  13  290.67   25.30
  -2   5  13  308.37   24.80
  -2   5  13  285.77   25.60
   2   5 -13  309.57   22.00
  -1  -5  13    4.50    3.90
  -1  -5  13    3.90    2.20
  -1  -5  13    7.50    6.00
  -1   5  13   10.30    3.60
   1   5 -13    5.60    1.40
   0  -5  13  263.57   19.40
   0  -5  13  239.58   22.40
   0  -5  13  264.17   23.50
   0   5 -13  261.17   19.50
   0   5  13  282.97   22.00
   1  -5  13   95.09   12.30
  -1  -5 -13   72.49   12.90
   1  -5  13   97.39   12.00
   1  -5  13   89.59    7.90
   1   5  13   81.69   14.40
  -1   5 -13  113.49    8.60
   2  -5  13  355.76   29.80
   2  -5  13  409.16   29.40
  -2  -5 -13  332.37   31.30
   2   5  13  383.26   29.30
  -2   5 -13  389.76   27.20
   3  -5  13   18.40    5.90
  -3  -5 -13   -2.50    6.30
   3   5  13   14.00    3.90
  -4  -5 -13  168.68   23.60
   4  -5  13  192.58   16.20
  -4   5 -13  173.38   19.40
   4   5  13  204.48   16.30
  -4   5 -13  176.18   14.60
   4   5  13  184.48   16.30
  -5  -5 -13   -3.00    9.80
   5  -5  13   10.60    5.30
   5   5  13    6.50    5.10
   5   5  13    1.80    5.40
  -5   5 -13   -2.10    5.60
  -9  -6  13  172.88   15.60
   9   6 -13  125.59   12.00
   8   6 -13   32.20    6.20
  -7  -6  13  156.28   14.00
  -7  -6  13  144.69   16.20
  -7   6  13  142.39   14.50
  -7   6  13  167.08   14.60
   7   6 -13  180.98   13.90
  -6  -6  13    3.90    3.20
  -6  -6  13   -1.80    4.60
  -6  -6  13    3.30    3.00
  -6   6  13   -3.70    3.70
  -6   6  13   -5.30    3.60
   6   6 -13    5.40    4.10
  -5  -6  13  237.08   20.80
  -5  -6  13  261.77   20.90
  -5   6  13  266.87   21.40
   5   6 -13  249.08   19.00
  -5   6  13  257.57   21.30
  -4  -6  13    0.10    5.00
  -4  -6  13   -3.90    3.00
  -4  -6  13    4.40    3.20
   4   6 -13    2.20    1.90
  -4   6  13   -0.60    3.80
  -4   6  13   -4.20    4.00
  -3  -6  13  174.18   14.60
  -3  -6  13  165.78   16.30
  -3   6  13  158.68   16.60
   3   6 -13  185.58   14.20
  -2  -6  13    1.20    4.80
  -2  -6  13   -1.90    3.80
   2   6 -13    1.80    1.60
  -1  -6  13  461.45   33.70
  -1  -6  13  475.55   37.10
   1   6 -13  509.25   34.20
   0  -6 -13    3.40    4.90
   0  -6  13    0.70    3.20
   0  -6  13    1.70    2.00
   0  -6  13    4.40    4.10
   1  -6  13  564.34   42.40
   1  -6  13  583.14   42.10
  -1  -6 -13  528.45   42.70
  -1   6 -13  568.14   39.30
   1   6  13  549.85   41.60
   2  -6  13   15.10    4.20
   2  -6  13   10.70    5.90
   2   6  13   24.90    5.90
   3  -6  13  225.08   20.60
  -3  -6 -13  221.18   23.90
   3  -6  13  251.47   21.00
   3   6  13  231.48   19.50
  -3   6 -13  250.07   22.60
  -3   6 -13  221.68   17.70
   4  -6  13    3.90    4.60
   4   6  13   -4.30    5.10
  -5  -6 -13   23.20   13.60
   5   6  13    8.60    5.90
  -5   6 -13   14.10    6.30
   5   6  13    8.20    6.10
  -8  -7  13  157.58   15.10
   8   7 -13  166.28   13.20
   7   7 -13    6.80    4.70
  -6  -7  13  173.38   15.10
  -6  -7  13  167.48   14.90
  -6   7  13  165.78   15.70
   6   7 -13  166.98   15.20
  -6   7  13  193.68   16.30
  -5  -7  13    2.10    4.00
  -5  -7  13    3.90    4.10
  -5  -7  13   -3.30    3.30
  -5   7  13   -4.40    3.40
  -4  -7  13  164.28   16.90
  -4  -7  13  178.08   14.80
  -4  -7  13  128.89   15.80
  -4   7  13  173.88   15.40
  -4   7  13  171.08   19.30
   4   7 -13  159.88   13.70
  -3  -7  13    4.20    2.50
  -3  -7  13   -1.20    3.60
  -3  -7  13    2.10    3.70
   3   7 -13   -0.60    1.80
  -3   7  13    1.20    3.00
  -2  -7  13  251.67   24.00
  -2  -7  13  279.07   23.70
  -2  -7  13  315.97   21.40
   2   7 -13  268.17   21.20
  -2   7  13  281.47   23.20
  -1  -7  13    2.90    2.10
  -1  -7  13    2.50    3.90
  -1  -7  13   14.50    5.60
   1   7 -13    6.30    2.00
   0  -7  13  361.46   29.70
   0  -7 -13  350.76   29.60
   0  -7  13  365.66   30.20
   0   7  13  354.76   28.90
   0   7 -13  378.46   26.90
   1  -7  13    1.10    4.20
   1  -7  13    7.20    3.50
  -1  -7 -13   -2.30    3.70
  -1   7 -13    0.40    2.60
   1   7  13   -2.50    3.40
  -2  -7 -13  277.77   27.20
   2  -7  13  311.17   25.80
   2  -7  13  299.17   23.80
   2   7  13  312.07   25.00
  -2   7 -13  309.57   22.60
  -3  -7 -13   -1.70    5.20
   3  -7  13   10.70    5.10
   3  -7  13    4.70    4.30
  -4  -7 -13   82.39   18.90
   4  -7  13   94.19   10.30
  -4   7 -13   72.89   10.80
   4   7  13   71.19   10.80
   5  -7  13   13.90    6.40
  -5  -7 -13   -5.20   13.40
  -7  -8  13  102.09   10.50
  -7  -8  13  127.79   12.40
   7   8 -13  126.69   10.40
  -7   8  13   93.09   11.20
  -5  -8  13  176.88   15.00
   5   8 -13  170.98   14.70
  -5   8  13  165.98   15.10
  -5   8  13  163.78   15.40
  -4  -8  13   -3.70    4.40
  -4  -8  13    7.50    3.20
   4   8 -13   -0.50    2.20
  -4   8  13    0.80    4.00
  -4   8  13    2.50    3.80
  -3  -8  13  253.17   21.00
  -3  -8  13  235.78   18.30
   3   8 -13  230.78   18.50
  -3   8  13  228.68   20.50
  -2  -8  13    7.60    3.90
  -2  -8  13    0.50    3.80
  -2  -8  13    7.80    2.50
   2   8 -13    5.20    2.10
  -1  -8  13  356.86   28.50
  -1  -8  13  287.97   27.30
   1  -8 -13  377.66   27.50
   1   8 -13  350.36   25.50
  -1   8  13  334.27   27.70
   0  -8 -13   -0.60    3.50
   0  -8  13    3.90    3.50
   0   8 -13   -1.50    2.10
   0   8  13   -2.10    3.60
   1  -8  13  197.28   18.70
   1  -8  13  230.48   20.70
  -1  -8 -13  238.58   21.00
   1   8  13  232.48   19.90
  -1   8 -13  231.88   17.80
   2  -8  13    2.60    5.00
   2  -8  13    1.10    4.10
  -2  -8 -13   -0.80    4.40
   2   8  13    2.30    4.30
   3  -8  13  100.09   11.10
   3  -8  13  122.49   11.80
  -3  -8 -13   83.99   15.60
  -3   8 -13  100.49   12.30
  -4  -8 -13  -10.30    8.60
   4  -8  13    8.60    5.60
  -8  -9  13  177.08   15.40
   8   9 -13  131.49   13.00
  -6  -9  13   99.39   11.20
  -6  -9  13   94.09    9.60
  -6   9  13   68.09   10.00
  -5  -9  13    3.70    3.80
  -5  -9  13   10.30    5.20
   5   9 -13    6.00    2.70
  -4  -9  13  246.38   19.90
  -4   9  13  214.78   19.90
   4   9 -13  244.98   18.60
  -3  -9  13   -1.90    4.50
  -3  -9  13    4.20    3.30
   2  -9 -13  449.66   30.40
  -2  -9  13  413.46   32.50
  -2   9  13  401.06   31.90
   2   9 -13  351.56   29.40
   1  -9 -13    1.80    3.20
  -1  -9  13   -1.00    3.70
  -1   9  13   -5.30    3.90
   0  -9  13  148.29   13.30
   0  -9  13   99.49   11.40
   0   9 -13  112.29   10.80
   0   9  13  122.19   12.50
  -1  -9 -13   -2.00    3.20
   1  -9  13    7.60    4.90
  -2  -9 -13   53.29   10.20
   2  -9  13   59.59    9.40
   2  -9  13   54.89    9.20
  -7 -10  13  159.88   16.30
  -5 -10  13  158.88   13.90
   5  10 -13  171.28   13.50
  -5  10  13  145.19   14.50
  -4 -10  13    9.50    4.10
  -3 -10  13  239.48   19.90
  -3  10  13  209.38   19.40
   3  10 -13  215.98   17.40
  -2 -10  13    3.90    4.90
  -2 -10  13    9.60    4.10
  -1 -10  13  101.39   11.70
   1  10 -13  112.79   11.10
  -1  10  13  139.79   12.60
   0 -10 -13    4.00    3.20
   0 -10  13    3.20    4.10
   0 -10  13   -0.30    5.30
   1 -10  13   69.99    8.80
  -1 -10 -13   63.19    8.90
   1 -10  13   54.29   10.10
  -3 -10 -13   41.60   13.20
  -6 -11  13  130.59   14.00
  -6 -11  13  124.79   13.50
  -5 -11  13   41.00    9.70
  -5 -11  13   47.70   10.40
  -4 -11  13  115.19   11.90
   4  11 -13  110.49   10.80
  -3 -11  13   16.70    6.50
  -3 -11  13   32.70    8.20
  -2 -11  13  103.69   11.90
  -2 -11  13  137.59   12.60
  -2  11  13  114.89   12.70
  -1 -11  13   -0.90    4.70
  -1 -11  13   10.30    5.90
   0 -11  13   72.09   10.30
   0 -11  13   73.29    9.20
   1 -11  13    5.40    5.20
   2 -11  13   98.79   13.00
   2 -11  13   70.99   11.70
  -2  11 -13   80.49   10.40
   5  12 -13   66.69    8.80
  -3 -12  13   63.09   11.00
  -3 -12  13   44.30    9.60
  -2 -12  13   41.80   10.20
  -1 -12  13   71.99   11.30
  -1 -12  13   84.59   10.60
 -10   0  14   38.90    9.00
  10   0 -14   33.30    8.60
   9   0 -14   25.70    7.00
  -9   0  14   14.10    4.60
  -8   0  14  225.58   17.80
   8   0 -14  203.98   16.30
  -8   0  14  208.08   18.20
  -7   0  14    0.90    3.10
  -6   0  14  217.68   18.20
  -6   0  14  176.98   21.40
   6   0 -14  228.08   16.80
  -5   0  14    0.20    3.70
  -5   0  14    1.00    3.60
   5   0 -14    4.80    3.70
  -4   0  14  180.48   17.70
  -4   0  14  190.18   16.80
  -3   0  14    2.30    3.40
  -3   0  14    1.40    5.40
  -2   0  14  587.24   44.10
  -2   0  14  596.24   42.50
  -1   0  14   26.00    5.90
   0   0  14  863.91   58.49
   0   0  14  819.62   59.99
   1   0  14   16.90    4.40
   2   0  14  173.38   16.70
   2   0  14  182.68   14.70
   3   0  14    1.70    3.00
   4   0  14  102.29   10.20
   4   0  14  110.29   10.30
  10  -1 -14   11.70    7.00
  10   1 -14   15.10    6.70
  -9  -1  14  115.99   11.90
   9  -1 -14  111.39   10.20
  -9  -1  14   83.29   10.00
  -9   1  14  124.29   12.20
   9   1 -14  105.99    9.80
  -8  -1  14   23.60    5.70
   8  -1 -14    4.10    5.00
  -8  -1  14   28.00    6.90
  -8   1  14    7.30    4.70
   8   1 -14   15.10    4.90
  -7  -1  14  204.88   16.90
  -7  -1  14  190.08   16.90
   7  -1 -14  206.48   15.50
  -7   1  14  164.48   18.00
  -7   1  14  178.18   17.00
   7   1 -14  197.28   15.50
  -6  -1  14    5.90    9.40
   6  -1 -14    4.50    3.90
  -6   1  14    5.90    3.20
  -6   1  14    5.00    3.90
  -5  -1  14  214.88   20.60
  -5  -1  14  233.68   21.00
   5  -1 -14  239.18   17.60
  -5   1  14  256.87   21.10
   5   1 -14  245.38   18.80
  -4  -1  14    6.60    4.80
  -4  -1  14    8.80    4.30
  -4   1  14    6.60    3.60
  -4   1  14    5.40    4.90
  -3  -1  14  433.66   34.50
  -3  -1  14  442.76   33.10
  -3   1  14  439.56   34.60
  -3   1  14  464.55   33.40
  -2  -1  14    4.80    3.20
  -2  -1  14    1.60    5.20
  -2   1  14    1.00    5.30
  -2   1  14    7.40    3.40
   2   1 -14    1.00    2.90
  -1  -1  14  764.92   52.59
  -1  -1  14  726.43   54.19
  -1   1  14  765.12   53.09
  -1   1  14  711.53   54.19
   1   1 -14  792.02   50.19
   0  -1  14   26.30    7.40
   0  -1  14   22.20    4.90
   0   1 -14   16.50    3.00
   0   1  14   24.80    7.60
   1  -1  14  515.45   40.80
   1  -1  14  540.15   38.40
  -1   1 -14  569.34   36.90
   1   1  14  535.95   39.00
  -2  -1 -14   -3.90    5.40
   2  -1  14    4.30    5.00
   2  -1  14    5.10    2.40
   2  -1  14    1.80    3.10
  -2   1 -14    2.80    1.70
   2   1  14    6.60    2.90
   2   1  14   -2.60    3.50
   3  -1  14  171.48   15.30
   3  -1  14  183.48   15.00
   3  -1  14  175.88   13.90
   3   1  14  165.08   15.80
   3   1  14  185.78   15.60
  -3   1 -14  136.79   20.00
   4  -1  14   -1.10    3.90
   4  -1  14   -0.50    4.20
   4   1  14   -0.30    4.10
  -5   1 -14    6.70   10.40
 -10  -2  14   76.79    9.80
  10   2 -14   55.59    8.80
   9   2 -14    8.60    5.80
   8  -2 -14  137.79   11.50
  -8  -2  14  154.48   12.60
  -8  -2  14  131.29   12.60
   8   2 -14  136.29   11.30
  -8   2  14  129.09   12.90
  -8   2  14  130.29   12.20
   7  -2 -14    9.70    4.40
  -7   2  14    5.40    3.20
   7   2 -14    2.70    4.30
  -7   2  14    7.80    4.90
  -6  -2  14  342.17   27.50
   6  -2 -14  335.37   24.00
  -6  -2  14  331.67   26.00
  -6   2  14  308.37   26.30
   6   2 -14  326.97   25.10
  -6   2  14  334.77   27.40
   5  -2 -14   27.20    4.90
  -5  -2  14   31.20    7.20
   5   2 -14   17.00    4.90
  -5   2  14   24.60    6.40
  -4  -2  14  462.85   33.70
  -4  -2  14  406.76   34.60
  -4   2  14  437.06   34.60
   4   2 -14  484.85   30.60
  -4   2  14  447.56   33.90
  -3  -2  14   -2.40    4.30
  -3  -2  14   -1.00    3.60
  -3   2  14    0.50    4.30
   3   2 -14   -0.90    1.00
  -3   2  14    3.30    3.80
  -2  -2  14  490.45   38.80
  -2  -2  14  515.05   37.00
  -2   2  14  497.85   38.70
   2   2 -14  535.85   34.60
  -2   2  14  518.75   37.90
  -1  -2  14    2.30    4.60
  -1  -2  14    2.90    2.90
   1   2 -14    3.90    1.10
  -1   2  14    5.80    5.20
   0  -2  14  252.87   21.90
   0  -2  14  262.47   20.10
   0   2  14  232.28   23.80
   0   2  14  292.67   21.50
   0   2 -14  255.57   18.40
   1  -2  14    1.60    4.60
   1  -2  14    2.80    2.50
   1  -2  14   -0.80    3.80
  -1   2 -14    0.60    1.20
   1   2  14    1.90    4.70
  -2  -2 -14  130.99   17.20
   2  -2  14  119.69   13.40
   2  -2  14  126.79   10.70
   2  -2  14  102.99   12.30
  -2   2 -14  142.99   10.30
   2   2  14  120.69   12.70
   2   2  14  125.39   12.40
   3  -2  14   -5.50    5.20
   3  -2  14    5.30    3.50
   3  -2  14   -0.60    3.40
   3   2  14    0.70    3.80
  -3   2 -14    2.10    1.80
   3   2  14    4.80    3.30
  -4  -2 -14  173.58   24.50
   4  -2  14  189.68   15.20
   4  -2  14  200.98   15.20
   4   2  14  174.68   15.20
   4   2  14  151.68   14.60
  -4   2 -14  184.58   23.30
   4   2  14  178.58   15.00
   5   2  14    8.70    5.30
   5   2  14    5.00    8.10
  10  -3 -14    8.50    7.80
  10   3 -14   15.80    7.20
   9  -3 -14   68.89    9.00
   9   3 -14   75.19    8.10
  -8  -3  14    1.30    3.50
   8  -3 -14    3.50    5.40
  -8   3  14    4.30    4.20
  -8   3  14    5.00    5.00
   8   3 -14    5.40    5.00
  -7  -3  14  180.68   16.50
   7  -3 -14  192.08   14.80
  -7  -3  14  193.18   16.70
   7   3 -14  195.78   15.30
  -7   3  14  180.48   16.60
  -7   3  14  196.98   16.80
  -6  -3  14   12.40    3.50
  -6  -3  14    5.30    3.90
  -6   3  14   18.40    5.20
  -6   3  14    9.00    6.30
   6   3 -14    7.10    2.30
  -5  -3  14  430.16   40.60
   5  -3 -14  476.55   34.30
  -5  -3  14  547.55   38.90
   5   3 -14  489.15   34.00
   5   3 -14  463.45   35.80
  -5   3  14  531.95   37.90
  -5   3  14  517.25   37.30
  -4  -3  14   11.40    8.60
  -4  -3  14   22.60    6.50
  -4   3  14   10.80    4.70
  -3  -3  14  538.15   37.70
  -3  -3  14  496.55   39.20
   3   3 -14  529.55   35.10
  -3   3  14  493.65   38.80
  -3   3  14  514.25   38.20
  -2  -3  14    2.70    4.70
  -2  -3  14    0.70    3.00
  -2   3  14   -1.80    4.10
   2   3 -14    0.70    1.10
  -1  -3  14  239.88   21.30
  -1  -3  14  242.88   19.20
   1   3 -14  253.27   17.50
  -1   3  14  229.78   23.30
  -1   3  14  251.27   20.00
   0  -3  14   15.50    5.40
   0  -3  14    9.10    3.20
   0  -3  14    1.90    5.60
   0   3  14   10.80    6.60
   0   3 -14   12.90    2.90
   1  -3  14  169.08   16.00
   1  -3  14  165.08   13.70
   1   3  14  134.19   18.30
   1   3  14  175.88   16.30
  -1   3 -14  184.08   13.00
   2  -3  14   -2.30    3.70
   2  -3  14    8.30    3.40
  -2  -3 -14   -1.40    5.70
   2  -3  14   -0.20    2.70
  -2   3 -14    2.00    1.50
   2   3  14   -2.60    3.50
   2   3  14    8.80    3.10
   3  -3  14  359.76   27.30
   3  -3  14  358.46   28.20
  -3  -3 -14  327.27   32.40
   3   3  14  382.56   28.50
  -3   3 -14  331.77   26.10
  -3   3 -14  368.36   32.90
   3   3  14  374.16   27.30
   4  -3  14   10.60    4.60
  -5  -3 -14   28.30   15.40
   5   3  14   47.50    9.50
   5   3  14   58.99    8.60
   9   4 -14   42.70    7.50
  -8  -4  14  115.49   12.00
  -8  -4  14  136.29   11.90
   8  -4 -14  130.59   12.60
  -8   4  14  108.79   11.40
  -8   4  14  113.79   11.90
   8   4 -14  140.59   10.90
   7  -4 -14   14.90    5.00
  -7  -4  14    7.80    3.50
   7   4 -14    9.60    4.50
  -7   4  14    2.70    3.60
  -7   4  14    5.50    4.20
  -6  -4  14  336.37   27.50
  -6  -4  14  317.17   26.90
   6  -4 -14  344.47   24.00
  -6  -4  14  320.07   25.60
   6   4 -14  314.67   24.90
  -6   4  14  321.87   26.20
   6   4 -14  333.17   23.90
  -6   4  14  325.27   27.70
  -5  -4  14    3.10    3.90
  -5  -4  14   -2.10    6.00
   5   4 -14   -0.40    1.80
  -5   4  14    1.70    3.30
  -4  -4  14  439.36   34.80
  -4  -4  14  470.65   32.90
  -4   4  14  381.96   36.60
  -4   4  14  440.86   33.60
   4   4 -14  448.66   30.60
  -3  -4  14    7.10    6.60
  -3  -4  14   17.00   12.10
  -3  -4  14    7.40    3.60
  -3   4  14    8.10    5.80
   3   4 -14    7.90    1.50
  -2  -4  14  279.17   20.40
  -2  -4  14  212.98   27.30
  -2   4  14  258.17   25.10
   2   4 -14  270.17   18.70
  -1  -4  14   69.49    7.40
  -1  -4  14   51.39   10.70
  -1   4  14   50.39   10.30
   1   4 -14   57.69    5.60
   0  -4  14  158.38   15.50
   0  -4  14  156.28   13.20
   0   4  14  140.39   15.50
   0   4 -14  179.68   12.60
   0   4  14  151.38   15.70
   1  -4  14   -0.60    3.10
   1  -4  14   -0.80    2.40
   1  -4  14   -1.20    4.30
   1   4  14   -4.50    4.20
   1   4  14    5.60    3.10
  -1   4 -14    3.50    1.50
  -2  -4 -14  193.98   23.20
   2  -4  14  233.48   20.40
   2  -4  14  239.28   19.60
  -2   4 -14  263.27   17.90
   2   4  14  234.88   19.10
   2   4  14  228.78   20.40
   3  -4  14   10.20    3.70
   3  -4  14   17.90    5.60
  -3   4 -14    0.20    4.70
   3   4  14    6.70    4.00
   3   4  14    2.00    4.00
  -4  -4 -14  149.09   24.10
   4  -4  14  199.38   15.30
   4  -4  14  196.08   15.80
  -4   4 -14  180.88   21.70
   4   4  14  163.88   15.50
   4   4  14  176.48   15.30
  -5  -4 -14  -13.30   13.50
   5   4  14    0.00    5.70
   5   4  14   -7.00    5.80
   9   5 -14   71.09    8.70
   8   5 -14   28.90    6.60
  -7  -5  14  163.88   13.50
  -7  -5  14  144.69   13.30
  -7  -5  14  149.29   12.60
  -7   5  14  126.89   12.80
   7   5 -14  157.28   12.60
  -7   5  14  139.69   13.80
  -6  -5  14    4.30    4.30
  -6   5  14    3.00    3.70
   6   5 -14    7.50    2.50
   6   5 -14   11.80    4.40
  -5  -5  14  247.88   20.20
  -5  -5  14  250.07   22.20
  -5  -5  14  251.87   20.80
   5   5 -14  241.08   18.40
  -5   5  14  245.68   21.00
  -5   5  14  241.58   20.70
  -4  -5  14    8.20    3.20
  -4  -5  14   -1.10    3.60
  -4  -5  14    3.90    4.00
  -4   5  14    0.30    4.50
  -4   5  14    7.00    3.20
   4   5 -14    0.70    1.80
  -3  -5  14  360.16   29.20
  -3  -5  14  354.76   28.70
  -3  -5  14  343.77   26.70
   3   5 -14  345.87   25.30
  -3   5  14  366.86   29.10
  -3   5  14  358.96   28.00
  -2  -5  14   -3.30    3.00
  -2  -5  14    0.70    4.00
  -2  -5  14    2.50    2.40
   2   5 -14    2.30    1.60
  -2   5  14   -2.40    3.90
  -2   5  14    5.30    3.00
  -1  -5  14  361.56   27.00
  -1  -5  14  377.86   30.00
  -1  -5  14  372.86   29.80
  -1   5  14  360.76   28.80
  -1   5  14  354.46   30.10
   1   5 -14  392.56   26.60
   0  -5  14   10.30    4.00
   0  -5  14    9.30    4.00
   0  -5  14    7.60    2.50
   0   5  14    2.90    4.60
   0   5  14   19.90    5.20
   1  -5  14  260.67   22.80
  -1  -5 -14  237.48   24.10
   1  -5  14  279.47   22.30
  -1   5 -14  276.17   19.90
   1   5  14  248.98   22.90
   1   5  14  286.17   22.10
   2  -5  14    1.20    3.80
   2  -5  14    4.00    3.40
   2   5  14    0.40    4.00
   2   5  14    4.20    3.60
   3  -5  14  159.38   13.10
  -3  -5 -14  115.39   19.50
   3  -5  14  154.18   14.10
   3   5  14  159.78   13.40
  -3   5 -14  124.99   11.70
  -3   5 -14  123.99   16.50
   3   5  14  144.99   13.90
   4  -5  14   10.40    5.00
   4   5  14   -3.90    5.20
  -8  -6  14  143.39   13.70
   8   6 -14  151.38   12.20
   7   6 -14   29.40    6.30
  -6  -6  14  118.99   13.60
  -6  -6  14  154.58   12.80
  -6  -6  14  125.19   12.60
  -6   6  14  137.89   12.90
   6   6 -14  158.68   12.20
  -6   6  14  137.39   12.80
   6   6 -14  140.99   11.60
  -5   6  14   -3.20    3.50
  -4  -6  14  149.49   14.40
  -4  -6  14  130.59   15.40
  -4  -6  14  159.98   13.30
   4   6 -14  147.09   12.30
  -4   6  14  144.09   14.50
  -4   6  14  147.89   14.40
  -3  -6  14   12.40    4.80
  -3  -6  14    4.70    3.40
  -3  -6  14   11.60    2.90
  -3   6  14    4.10    3.30
  -3   6  14    9.50    4.50
   3   6 -14    7.00    1.90
  -2  -6  14  230.68   20.70
  -2  -6  14  228.18   20.10
  -2  -6  14  219.48   17.60
   2   6 -14  235.98   17.10
  -2   6  14  212.58   20.20
  -2   6  14  222.58   19.60
  -1  -6  14   21.80    6.30
  -1   6  14   19.50    5.40
   0  -6 -14  457.65   37.50
   0  -6  14  533.95   37.60
   0  -6  14  470.95   33.70
   0  -6  14  452.95   37.20
   0   6  14  481.35   36.80
   0   6 -14  500.55   34.30
   1  -6  14    3.20    4.10
   1  -6  14    2.10    3.70
  -1   6 -14   -1.50    2.00
   2  -6  14  261.57   20.10
   2  -6  14  233.58   20.40
  -2  -6 -14  233.58   23.90
  -2   6 -14  231.88   18.20
   2   6  14  236.18   19.90
   3  -6  14    2.70    5.10
   3  -6  14    3.30    4.40
   3   6  14   -3.10    4.80
  -4  -6 -14    7.40   10.80
   4   6  14    6.30    5.90
   4   6  14    5.60    5.80
  -4   6 -14   -1.20    5.40
  -7  -7  14  102.49   10.30
  -7  -7  14  120.49   11.20
  -7   7  14   89.99   10.80
  -6  -7  14    5.20    3.50
  -6  -7  14    8.50    5.60
  -6  -7  14   10.30    3.30
  -6   7  14   -1.30    4.70
   6   7 -14    0.10    2.90
  -5  -7  14  105.09    9.70
  -5  -7  14  108.39   10.10
  -5  -7  14   84.29   10.60
  -5   7  14   74.49   10.40
   5   7 -14   83.79    8.90
  -5   7  14   97.89   10.30
   4   7 -14   -2.70    2.30
  -3  -7  14  200.08   18.90
  -3  -7  14  204.28   19.70
  -3  -7  14  227.88   17.10
  -3   7  14  211.18   19.30
  -3   7  14  208.98   18.40
   3   7 -14  208.18   16.70
  -2  -7  14   -0.70    3.20
  -2  -7  14   -3.50    3.80
  -2  -7  14    0.30    2.50
   2   7 -14   -0.30    1.90
  -2   7  14    2.50    3.40
  -1  -7  14  498.45   33.90
  -1  -7  14  452.65   37.00
  -1  -7  14  463.85   37.00
   1   7 -14  482.35   34.10
  -1   7  14  493.75   36.80
   0  -7  14    3.20    3.50
   0  -7 -14   -3.60    3.60
   0  -7  14    4.30    4.30
   0   7  14    5.90    4.40
   1  -7  14  292.67   23.70
  -1  -7 -14  288.07   25.90
   1  -7  14  299.57   25.00
   1   7  14  294.47   24.10
  -1   7 -14  278.97   21.50
   2  -7  14    8.10    5.00
   2  -7  14   -0.60    4.30
   2   7  14    2.10    4.90
  -3  -7 -14   25.30    8.80
   3   7  14   16.30    5.40
  -3   7 -14   28.30    8.70
  -4  -7 -14  -12.70    9.70
   4   7  14   -9.00    6.60
   8   8 -14   89.69    9.80
  -6  -8  14   94.39    9.70
  -6  -8  14   94.39   10.20
  -6   8  14   64.49   10.00
   6   8 -14   79.09    9.30
  -6   8  14   90.79    9.90
  -5  -8  14    4.40    3.70
  -5   8  14   -6.90    4.70
  -5   8  14    0.30    4.30
   5   8 -14   -4.70    2.80
  -4  -8  14  152.88   16.60
  -4   8  14  213.08   17.60
  -4   8  14  203.18   17.00
   4   8 -14  159.68   14.50
  -3  -8  14   -2.20    3.00
  -3  -8  14   -5.00    3.20
  -3  -8  14   -4.30    4.30
  -3   8  14   -3.30    3.60
  -3   8  14   -3.30    4.20
  -2  -8  14  261.47   18.80
  -2  -8  14  231.98   21.40
  -2   8  14  242.78   21.10
   2   8 -14  247.78   19.30
   1  -8 -14   -2.30    3.00
  -1  -8  14    3.60    4.40
  -1  -8  14   -1.20    3.40
  -1   8  14    2.50    3.80
   0  -8  14  167.28   15.10
   0  -8  14  173.88   16.20
   0  -8 -14  176.08   16.50
   0   8  14  157.28   15.50
  -1  -8 -14   -1.50    3.50
   1  -8  14   -4.70    4.20
   1   8  14    1.30    4.70
   2  -8  14   94.99   10.10
   2  -8  14   77.59   10.00
  -2  -8 -14   72.49   13.30
   3  -8  14   10.90    5.20
  -7  -9  14  140.89   14.50
  -5  -9  14  129.09   13.10
  -5  -9  14  171.08   13.90
   5   9 -14  151.98   12.60
  -5   9  14  156.38   14.30
  -5   9  14  133.89   13.70
  -4  -9  14    5.90    4.00
  -4   9  14   -1.90    4.80
  -4   9  14    7.40    5.10
  -3  -9  14  114.49   12.00
   3   9 -14  100.19   10.60
  -2  -9  14   -0.20    3.70
  -2  -9  14   -4.00    4.90
  -1  -9  14  114.89   11.90
  -1  -9  14   82.59   10.70
  -1   9  14  113.99   11.30
   0  -9  14    4.10    5.40
   0  -9  14   -2.50    3.90
   0  -9 -14    2.80    3.10
   1  -9  14   70.49   10.10
  -1  -9 -14   58.39    9.50
   1  -9  14   79.29    9.20
  -6  10  14   56.39   11.00
   6  10 -14   69.69    9.10
  -4 -10  14  126.19   12.60
  -4  10  14  130.49   14.00
   4  10 -14  134.69   12.90
  -4  10  14  167.68   14.80
  -3 -10  14    9.80    4.30
  -3 -10  14   10.10    6.10
  -2 -10  14   57.59    9.40
  -2 -10  14   76.79    9.20
  -2  10  14   53.09    9.40
  -1 -10  14    0.30    4.70
   1 -10 -14    7.50    3.40
   0 -10  14   33.70    8.20
   0 -10  14   43.30    9.20
   0 -10 -14   44.60    6.90
  -5 -11  14  121.89   14.30
  -5 -11  14  114.49   13.00
  -2 -11  14   38.90    9.90
   1 -11 -14   61.59   11.20
  -1 -11  14   65.99   10.90
  -1 -11  14   85.49   10.00
  -9   0  15   60.29    8.80
   9   0 -15   81.59    9.30
   8   0 -15   34.40    7.50
  -7   0  15  100.99   11.00
  -7   0  15  130.49   11.20
  -6   0  15    3.40    3.60
   6   0 -15    6.70    4.70
   5   0 -15  235.28   17.50
  -5   0  15  217.48   19.80
  -5   0  15  226.38   19.20
  -4   0  15    0.50    3.50
  -4   0  15    0.60    3.20
  -3   0  15  472.35   37.40
  -3   0  15  479.95   36.70
  -2   0  15   19.30    5.00
  -1   0  15  597.94   45.00
  -1   0  15  615.94   43.40
   0   0  15   18.30    4.50
   0   0  15   17.70    5.70
   1   0  15  343.07   25.20
   1   0  15  329.87   26.90
   2   0  15    2.80    3.90
   3   0  15   19.00    3.80
   3   0  15   16.30    3.60
  -3   0 -15   13.00    8.70
   4   0  15   -4.80    5.00
   4   0  15   -4.50    4.70
   9  -1 -15   10.40    7.30
   9   1 -15   15.70    6.90
  -9   1  15    3.90    7.40
   8  -1 -15  114.49   10.30
  -8  -1  15  126.19   11.30
  -8  -1  15   96.59   10.50
   8   1 -15  123.29   10.30
  -8   1  15  100.79   11.10
  -8   1  15   91.79   10.70
  -7  -1  15   19.80    5.40
   7  -1 -15   13.60    5.30
  -7  -1  15    8.70    4.60
   6  -1 -15  152.88   12.00
  -6  -1  15  142.39   14.00
  -6  -1  15  160.68   15.00
   6   1 -15  161.38   12.90
  -6   1  15  145.59   14.20
  -6   1  15  129.79   13.90
   5  -1 -15   13.80    4.50
  -5  -1  15   20.40    6.00
  -5   1  15   18.80    5.50
  -4  -1  15  352.56   28.30
  -4  -1  15  345.77   28.60
  -4   1  15  365.76   27.60
  -4   1  15  357.26   28.60
  -3  -1  15    6.80    3.20
  -3   1  15    8.70    5.20
  -3   1  15    5.60    4.00
  -2  -1  15  507.75   35.80
  -2  -1  15  483.95   37.30
  -2   1  15  493.15   37.40
  -2   1  15  461.55   37.30
  -1  -1  15   11.80    4.50
  -1  -1  15   21.10    6.20
  -1   1  15   27.70    5.60
  -1   1  15   19.30    6.10
   0  -1  15  190.58   17.20
   0  -1  15  201.68   15.90
   0   1  15  179.78   17.30
   0   1  15  183.28   17.10
   1  -1  15    4.10    2.80
   1  -1  15    0.60    3.50
   1   1  15    3.70    3.80
   1   1  15    2.80    4.00
   2  -1  15  202.08   17.90
   2  -1  15  213.58   18.00
   2  -1  15  196.98   16.00
  -2  -1 -15  191.78   23.00
   2   1  15  204.68   16.50
   2   1  15  213.78   18.20
   3  -1  15   27.60    6.40
   3  -1  15   17.20    4.50
   3   1  15   25.60    6.50
   3   1  15   13.30    4.10
   4  -1  15   74.99    9.60
  -4   1 -15   47.90   13.60
   4   1  15   69.79    8.90
   4   1  15   77.29    9.50
  -9  -2  15   41.30    8.10
   9   2 -15   62.49    8.70
  -9   2  15   49.50    8.90
  -8  -2  15    3.50    4.10
  -8   2  15    8.80    5.50
   8   2 -15   14.00    5.90
   7  -2 -15  181.98   14.30
  -7  -2  15  165.38   15.00
  -7  -2  15  176.68   15.30
   7   2 -15  190.78   14.10
  -7   2  15  154.28   14.90
  -7   2  15  178.58   15.20
  -6  -2  15    2.10    3.30
  -6  -2  15    8.40    4.20
  -6   2  15    8.20    3.40
  -5  -2  15  298.47   25.40
   5  -2 -15  284.07   22.90
  -5  -2  15  302.07   24.00
  -5   2  15  317.37   24.70
  -5   2  15  315.57   25.10
  -4  -2  15    1.90    4.40
  -4  -2  15    1.90    3.70
  -4   2  15    2.70    3.20
  -4   2  15    5.90    3.20
  -3  -2  15  294.47   23.10
  -3  -2  15  272.37   24.50
  -3   2  15  307.07   23.70
  -3   2  15  295.97   24.40
  -2  -2  15   28.50    6.40
  -2   2  15   38.00    6.70
  -1  -2  15  307.17   23.50
  -1  -2  15  317.37   25.50
  -1   2  15  304.57   25.30
  -1   2  15  290.47   25.70
   0  -2  15    6.70    3.80
   0  -2  15    2.90    2.80
   0   2  15    8.40    3.00
   1  -2  15  366.26   28.40
   1  -2  15  339.57   28.20
   1  -2  15  361.16   26.10
   1   2  15  350.76   28.40
   1   2  15  349.96   26.70
   2  -2  15    5.90    3.00
  -2  -2 -15   -6.10    5.60
   2  -2  15    5.60    3.90
   2  -2  15    4.80    3.40
   2   2  15    6.40    3.30
   2   2  15   -3.10    4.00
   3  -2  15  101.59   10.50
   3  -2  15  111.39   10.00
   3   2  15   86.49    9.70
   3   2  15  112.39   10.60
   4  -2  15    6.80    5.00
   4  -2  15   11.50    5.30
   4   2  15    6.00    5.20
   4   2  15   -2.00    4.70
   4   2  15   -0.50    4.70
   9   3 -15   37.40    8.80
  -8  -3  15   94.79   10.30
  -8  -3  15  108.19   10.60
   8   3 -15  123.89    9.90
  -8   3  15   83.79   10.90
  -8   3  15  102.09   10.90
   7   3 -15   14.20    5.20
  -6  -3  15  266.87   22.50
  -6  -3  15  253.07   21.10
  -6   3  15  259.87   21.80
  -6   3  15  257.57   21.00
   6   3 -15  260.07   20.20
  -5  -3  15    2.90    3.20
  -5  -3  15    5.80    4.00
  -5   3  15    3.50    3.70
  -5   3  15    4.50    3.30
  -4  -3  15  333.97   27.40
  -4  -3  15  316.77   26.10
  -4   3  15  325.17   26.20
  -4   3  15  340.07   26.90
  -3  -3  15    2.50    4.20
  -3  -3  15    5.50    2.80
  -3   3  15    6.40    4.10
  -3   3  15    9.90    3.40
  -2  -3  15  142.59   15.20
  -2  -3  15  147.99   13.70
  -2   3  15  176.38   14.30
  -2   3  15  140.89   15.10
  -1  -3  15   -1.00    3.70
  -1  -3  15    2.60    2.70
   1   3 -15   -0.20    1.30
  -1   3  15   -2.70    2.70
   0  -3  15  127.29   13.10
   0  -3  15  123.09   13.60
   0  -3  15  118.29   11.10
   0   3  15  138.69   11.90
   0   3  15  125.59   13.50
   0   3 -15  135.79   10.20
   1  -3  15   -0.80    2.70
   1  -3  15    0.70    3.40
   1  -3  15    1.00    3.80
   1   3  15   -1.20    3.70
  -1   3 -15    1.30    1.60
  -2  -3 -15  181.18   23.00
   2  -3  15  224.98   18.10
   2  -3  15  203.88   18.90
   2   3  15  217.88   17.80
  -2   3 -15  226.68   16.80
   2   3  15  223.98   19.00
   3  -3  15   21.10    6.90
   3  -3  15    9.00    4.30
   3   3  15    6.10    4.80
  -4  -3 -15  100.49   24.70
   4   3  15  120.29   11.40
  -4   3 -15  106.19   20.40
   4   3  15  103.49   11.90
   4   3  15  109.99   15.60
   9   4 -15   69.09    9.40
   8   4 -15   29.20    7.90
  -7  -4  15  175.48   14.70
  -7  -4  15  151.98   14.20
  -7  -4  15  171.88   15.00
   7   4 -15  176.18   13.80
  -7   4  15  158.48   14.60
  -7   4  15  189.08   15.20
  -6  -4  15    1.30    3.30
  -6  -4  15   -0.40    4.60
  -6  -4  15    4.90    3.20
  -6   4  15    1.20    3.90
  -6   4  15   -1.10    3.80
   6   4 -15   13.80    5.00
  -5  -4  15  281.17   23.70
  -5  -4  15  318.97   25.30
  -5  -4  15  283.07   23.00
  -5   4  15  290.77   23.80
  -5   4  15  276.57   23.70
  -4  -4  15   -0.60    3.40
  -4  -4  15    7.10    3.00
  -4  -4  15    6.10    4.70
  -4   4  15    0.10    3.80
  -4   4  15    4.40    3.10
  -3  -4  15  212.68   19.30
  -3  -4  15  205.48   16.80
  -3  -4  15  186.18   18.60
   3   4 -15  215.18   15.20
  -3   4  15  202.58   18.80
  -3   4  15  207.48   18.20
  -2  -4  15    0.20    3.80
  -2  -4  15   -2.30    2.60
  -2   4  15   -0.80    2.80
  -2   4  15   -3.40    3.50
  -1  -4  15  161.58   16.20
  -1  -4  15  169.08   17.00
  -1  -4  15  181.08   14.40
   1   4 -15  180.48   13.50
  -1   4  15  174.08   15.10
  -1   4  15  169.68   16.90
   0  -4  15    2.80    3.90
   0  -4  15    4.80    2.60
   0   4 -15    1.50    1.60
   0   4  15   -2.70    4.00
   1  -4  15  286.77   22.80
   1  -4  15  264.47   24.60
   1  -4  15  275.77   23.20
  -1  -4 -15  227.18   25.10
   1   4  15  296.27   22.40
   1   4  15  269.37   23.40
  -1   4 -15  281.47   20.10
   2  -4  15   -0.10    3.80
   2  -4  15    5.50    4.20
   2   4  15    2.20    4.10
   2   4  15   -4.60    4.10
  -2   4 -15   -3.20    3.30
   3  -4  15  155.68   13.20
  -3  -4 -15  102.99   20.70
   3   4  15  126.29   12.30
  -3   4 -15  120.59   18.50
   3   4  15  149.09   13.20
   4  -4  15    8.30    5.40
   4   4  15   -7.10    5.70
  -8  -5  15   95.49   10.70
  -8  -5  15  124.59   13.20
  -8   5  15  101.89   11.80
   8   5 -15   96.39   10.40
  -7  -5  15    2.30    3.90
  -7  -5  15    2.20    4.10
   7   5 -15   15.50    5.80
  -6  -5  15  158.58   13.50
  -6  -5  15  139.49   14.80
  -6  -5  15  162.28   13.40
  -6   5  15  143.39   13.50
  -6   5  15  148.19   13.70
  -5  -5  15    9.30    4.30
  -5  -5  15    6.80    3.20
  -5  -5  15    8.30    3.40
  -5   5  15    9.10    3.90
  -5   5  15   11.60    4.20
   5   5 -15    4.50    4.10
  -4  -5  15  151.18   14.70
  -4  -5  15  162.08   13.10
  -4  -5  15  135.39   15.10
   4   5 -15  149.79   12.40
  -4   5  15  151.68   14.50
  -4   5  15  143.79   14.50
  -3  -5  15    8.50    3.10
  -3  -5  15   11.90    4.40
  -3  -5  15    7.40    3.80
  -3   5  15   20.50    5.40
   3   5 -15   18.70    4.50
  -3   5  15   12.80    4.60
  -2  -5  15  243.48   18.60
  -2  -5  15  231.98   21.10
  -2  -5  15  232.28   20.80
  -2   5  15  223.68   20.90
  -2   5  15  234.08   19.80
   2   5 -15  245.78   17.60
  -1  -5  15   11.30    4.40
  -1  -5  15    6.40    2.60
  -1  -5  15    9.70    3.60
  -1   5  15    5.00    4.00
   1   5 -15    3.10    1.70
  -1   5  15   11.10    3.30
   0  -5  15  306.17   24.80
   0  -5  15  296.67   21.90
   0  -5  15  289.77   25.00
   0   5  15  292.77   25.10
   0   5  15  312.37   24.30
   0   5 -15  291.97   21.70
   1  -5  15   -5.60    4.10
   1  -5  15   -0.60    3.60
   1   5  15    0.10    4.40
  -1   5 -15   -3.50    1.90
  -2  -5 -15  141.69   20.40
   2  -5  15  185.28   15.30
   2  -5  15  186.38   14.80
   2   5  15  172.78   15.70
  -2   5 -15  139.49   13.10
   2   5  15  158.48   15.00
   3  -5  15    4.80    5.50
   3  -5  15    8.30    4.70
  -3  -5 -15   -8.60    8.40
   3   5  15   -2.40    5.30
  -7  -6  15   56.19    8.00
  -7  -6  15   81.59    8.80
  -7   6  15   64.59    9.10
  -6  -6  15    5.80    5.50
  -6  -6  15   -2.90    3.70
  -6  -6  15    1.80    3.60
  -6   6  15   -2.40    4.90
  -5  -6  15  137.99   11.40
  -5  -6  15  118.69   12.20
  -5  -6  15  126.69   11.50
   5   6 -15  106.09   10.90
  -5   6  15  117.19   11.80
  -5   6  15  116.89   11.50
  -4  -6  15   -3.70    2.90
  -4  -6  15   -6.00    4.40
  -4  -6  15   -1.30    3.20
  -4   6  15   -5.10    3.70
  -4   6  15   -5.00    3.90
  -3  -6  15  317.27   27.50
  -3  -6  15  336.17   25.70
  -3  -6  15  323.27   26.90
   3   6 -15  327.17   23.90
  -3   6  15  328.77   26.40
  -3   6  15  344.87   27.30
  -2  -6  15    2.50    2.90
  -2  -6  15   10.90    3.80
  -2   6  15    5.30    3.80
   2   6 -15    5.40    2.00
  -2   6  15    4.10    3.70
  -1  -6  15  340.27   27.70
  -1  -6  15  365.36   28.10
  -1  -6  15  337.77   24.80
  -1   6  15  337.17   27.00
   1   6 -15  327.07   24.40
  -1   6  15  324.07   28.10
   0  -6  15    7.70    4.30
   0  -6  15    3.40    3.60
   0  -6 -15   -1.10    4.90
   0   6  15    9.20    4.00
   0   6  15    0.30    4.40
   1  -6  15  145.79   13.20
   1  -6  15  132.69   12.70
  -1  -6 -15  118.29   15.70
   1   6  15  116.59   13.30
   1   6  15  122.19   12.70
   2  -6  15    1.90    4.60
   2  -6  15   10.40    5.10
  -2  -6 -15   -0.20    6.10
   2   6  15   -4.40    5.30
  -3  -6 -15   28.70   10.60
   3   6  15   42.40    6.70
   3   6  15   46.00    8.90
  -3   6 -15   55.09   12.60
  -8  -7  15  176.98   16.60
  -6  -7  15   85.59    8.40
  -6  -7  15   93.09    9.30
  -6  -7  15   83.69    9.90
   6   7 -15   64.19    9.70
  -6   7  15   72.59    9.50
  -5  -7  15   -0.40    3.70
  -5  -7  15    9.60    5.20
  -5  -7  15   -3.00    3.50
  -4  -7  15  141.59   12.10
  -4  -7  15  137.69   13.70
  -4  -7  15  125.09   13.90
  -4   7  15  156.38   13.80
  -4   7  15  143.59   14.00
   4   7 -15  127.59   13.60
  -3  -7  15   -2.40    3.40
  -3  -7  15    7.30    4.80
  -3   7  15    1.70    4.00
  -3   7  15    2.20    4.60
  -2  -7  15  257.87   23.10
  -2  -7  15  291.27   23.80
  -2  -7  15  285.57   21.20
   2   7 -15  256.77   22.50
  -2   7  15  295.87   23.40
  -2   7  15  267.27   23.80
  -1  -7  15    6.50    3.40
   1  -7 -15    1.60    3.50
  -1  -7  15   -1.80    4.70
  -1   7  15    0.30    4.20
   0  -7  15  199.98   18.10
   0  -7  15  208.88   18.00
   0  -7 -15  181.48   19.20
   0   7  15  182.78   18.70
   0   7  15  218.78   17.70
  -1  -7 -15   -2.10    4.20
   1  -7  15    5.00    5.20
   1  -7  15    0.60    4.10
   1   7  15    5.30    5.00
  -2  -7 -15   19.70    8.10
   2   7  15   25.70    5.90
   2   7  15   36.80    8.70
   3  -7  15   13.80    5.50
  -3  -7 -15    3.50    9.90
   3   7  15   -4.00    6.60
  -3   7 -15   -5.10    4.90
   3   7  15   -1.80    7.00
  -7  -8  15   67.99   10.30
  -5  -8  15  102.99    9.90
  -5  -8  15   87.69   10.40
  -5   8  15   77.39    9.80
  -5   8  15   85.29   10.30
  -4  -8  15   -0.20    3.80
  -4  -8  15   -7.10    5.60
  -4   8  15    4.50    4.80
  -4   8  15   -0.30    4.90
  -3  -8  15  222.08   18.30
  -3  -8  15  213.18   16.30
  -3  -8  15  170.08   18.10
  -3   8  15  229.18   18.10
  -3   8  15  209.48   18.90
  -2  -8  15    5.00    5.30
  -2  -8  15    3.10    3.70
  -2   8  15   -2.50    4.50
  -1  -8  15  149.39   14.40
   1  -8 -15  167.78   15.70
  -1  -8  15  174.08   15.60
  -1   8  15  144.39   14.60
   0  -8  15   -1.10    4.30
   0  -8  15    6.00    5.50
   0  -8 -15   -3.70    3.20
   1  -8  15   65.39    9.00
   1  -8  15   62.49   10.00
   2  -8  15    6.80    5.50
   6   9 -15   83.39   10.50
  -6   9  15   68.09   11.50
  -4  -9  15  130.09   11.60
  -4  -9  15  108.99   11.70
  -4   9  15  105.29   12.20
  -3  -9  15    3.60    4.50
  -3  -9  15    9.20    5.60
   2  -9 -15   92.19    9.40
  -2  -9  15   81.39    9.30
   1  -9 -15    7.40    3.30
  -1  -9  15    4.90    4.60
   0  -9 -15   72.49   10.00
   0  -9  15   92.29   10.00
   0  -9  15   86.59   11.00
   1  -9  15   37.00    9.50
  -5  10  15   33.10    7.30
   5  10 -15   27.80    4.50
  -4 -10  15   43.60   10.60
  -3  10  15   25.20    5.90
  -3  10  15   30.00    9.60
   2 -10 -15   13.20    3.80
  -2 -10  15    4.50    5.20
  -1 -10  15   76.09   11.20
  -1 -10  15   63.09   10.00
   1 -10 -15   60.49    8.20
  -9   0  16   82.89   13.50
   9   0 -16   58.19   11.10
  -8   0  16   36.80    8.00
  -8   0  16   50.19    9.60
  -7   0  16    9.00    4.00
  -7   0  16    9.30    5.10
  -6   0  16  160.38   15.20
  -6   0  16  155.28   14.60
   6   0 -16  182.58   14.00
  -5   0  16    2.20    3.20
  -5   0  16   -1.60    3.90
  -4   0  16  305.27   26.00
  -4   0  16  324.57   24.80
  -3   0  16    7.50    3.70
  -2   0  16  251.27   20.40
  -2   0  16  259.07   22.10
  -1   0  16    6.30    2.90
  -1   0  16    1.50    4.00
   0   0  16  271.47   23.10
   0   0  16  281.37   21.30
   1   0  16   -5.60    3.30
   2   0  16   62.79    8.30
   2   0  16   74.39    8.70
   3   0  16    6.80    5.30
  -9  -1  16  159.68   16.60
  -8  -1  16    0.10    6.60
  -8   1  16    6.60    6.30
  -7  -1  16  124.39   11.60
  -7  -1  16  107.59   11.30
   7   1 -16  126.59   11.30
  -7   1  16  117.09   11.40
  -7   1  16  121.19   11.60
  -6  -1  16    3.30    4.10
  -6  -1  16    5.20    3.70
  -6   1  16    7.80    4.40
  -6   1  16    1.40    3.50
  -5  -1  16  180.18   16.80
  -5  -1  16  154.68   15.30
  -5   1  16  190.58   16.10
  -5   1  16  187.58   16.70
  -4  -1  16    3.50    3.70
  -4   1  16    3.50    3.70
  -4   1  16    6.40    3.10
  -3  -1  16  359.56   26.90
  -3  -1  16  339.47   28.40
  -3   1  16  363.56   27.20
  -3   1  16  334.87   28.40
  -2  -1  16   14.20    4.90
  -2  -1  16   19.80    4.90
  -2   1  16    9.70    4.60
  -2   1  16   20.80    4.80
  -1  -1  16  443.96   32.30
  -1  -1  16  419.86   34.20
  -1   1  16  450.45   34.60
  -1   1  16  449.06   32.90
   0  -1  16    2.60    3.00
   0  -1  16    8.10    3.90
   0   1  16    6.50    3.90
   0   1  16   11.10    3.20
   1  -1  16   34.10    7.30
   1  -1  16   44.90    7.30
   1   1  16   42.00    6.40
   1   1  16   54.99    7.60
   2  -1  16    0.80    4.00
  -2  -1 -16   -9.90    6.60
   2   1  16    5.40    4.50
  -2   1 -16   -6.60    6.90
  -3  -1 -16   13.60   10.50
   3   1  16   35.00    7.80
  -3   1 -16   14.40   10.60
   3   1  16   26.00    4.90
  -8  -2  16   72.09    8.90
  -8  -2  16   88.99   11.10
   8   2 -16   78.39   10.00
  -8   2  16   65.39   10.70
  -8   2  16   54.39    9.40
  -7  -2  16   10.60    5.40
  -7  -2  16    3.40    3.80
   7   2 -16   13.40    6.60
  -6  -2  16  195.38   16.70
  -6  -2  16  208.78   18.10
  -6   2  16  214.58   17.30
  -6   2  16  177.28   17.20
  -5  -2  16    2.30    3.20
  -5  -2  16    3.70    3.90
  -5   2  16    7.00    3.50
  -5   2  16    7.50    4.00
  -4  -2  16  241.98   18.90
  -4  -2  16  219.88   20.20
  -4   2  16  215.78   19.70
  -4   2  16  223.98   18.90
  -3  -2  16   10.20    4.40
  -3  -2  16   11.30    3.20
  -3   2  16    8.40    4.00
  -2  -2  16  103.79   10.40
  -2  -2  16  111.99   12.30
  -2   2  16  102.99   11.90
  -2   2  16  111.29   10.50
  -1  -2  16    2.40    4.20
  -1  -2  16   10.10    4.50
  -1   2  16   17.90    5.20
   0  -2  16  204.08   17.40
   0  -2  16  173.68   17.00
   0   2  16  200.58   16.10
   0   2  16  177.18   16.80
   1  -2  16   31.90    6.50
   1  -2  16   23.20    6.40
   1   2  16   24.50    6.50
   1   2  16   31.50    6.10
   2  -2  16  216.28   17.30
   2  -2  16  199.18   17.50
  -2  -2 -16  157.98   23.60
   2   2  16  220.08   18.10
   2   2  16  184.78   16.10
   3  -2  16    4.50    5.40
   3  -2  16   -4.80    4.90
  -8  -3  16    4.90    4.80
  -8   3  16   12.40    6.60
  -7  -3  16  128.89   13.40
  -7  -3  16  176.18   14.20
   7   3 -16  175.38   13.40
  -7   3  16  154.98   13.90
  -7   3  16  139.69   14.00
  -6  -3  16    9.30    4.70
  -6  -3  16    4.40    3.70
  -6   3  16    4.20    4.10
  -6   3  16   20.20    6.60
  -5  -3  16  149.79   13.60
  -5  -3  16  137.69   14.90
  -5   3  16  158.98   14.00
  -5   3  16  150.98   14.10
  -4  -3  16    3.50    3.10
  -4  -3  16   -1.70    3.90
  -4   3  16   -0.10    3.80
  -4   3  16    3.00    3.60
  -3  -3  16  158.28   13.20
  -3  -3  16  153.68   15.50
  -3   3  16  163.78   14.60
  -3   3  16  145.59   14.90
  -2  -3  16    2.80    3.10
  -2  -3  16    5.60    4.20
  -2   3  16    7.90    3.40
  -2   3  16   -0.80    3.80
  -1  -3  16  206.38   18.20
  -1  -3  16  213.88   18.70
  -1  -3  16  159.88   17.90
  -1   3  16  212.48   17.00
  -1   3  16  198.98   18.50
   0  -3  16    1.20    4.10
   0  -3  16   -3.20    3.50
   0   3  16   -0.90    4.10
   0   3  16    6.00    3.50
   1  -3  16  209.78   18.30
   1  -3  16  203.88   18.10
   1   3  16  222.28   18.90
   1   3  16  209.38   17.20
  -2  -3 -16  -11.10    7.40
   2  -3  16    4.40    4.80
   2  -3  16    3.50    4.10
   2   3  16   -3.90    4.20
   2   3  16    7.50    4.70
   3  -3  16  108.99   10.70
  -3  -3 -16   69.89   22.40
  -3   3 -16   72.39   20.00
   3   3  16   97.69   10.60
  -8  -4  16   66.79   10.00
  -8  -4  16   77.99    9.50
  -8   4  16   88.59   11.50
   8   4 -16   85.99   10.30
  -6  -4  16  147.59   13.50
  -6  -4  16  117.79   12.40
  -6  -4  16  131.89   12.00
  -6   4  16  125.79   12.60
  -6   4  16  135.49   12.50
  -5  -4  16    0.30    3.50
  -5   4  16    1.00    4.30
  -5   4  16   -1.50    3.90
  -4  -4  16  139.49   12.10
  -4  -4  16  118.59   13.20
  -4  -4  16  128.59   14.20
  -4   4  16  134.19   12.80
  -4   4  16  137.09   13.30
  -3  -4  16    8.40    4.50
  -3  -4  16    2.10    3.60
  -3  -4  16   -1.80    3.00
  -3   4  16    9.10    3.60
  -3   4  16    0.70    3.70
  -2  -4  16  128.79   13.30
  -2  -4  16  131.79   12.30
  -2  -4  16  119.29   13.20
  -2   4  16  137.49   12.50
  -2   4  16  130.19   13.30
  -1  -4  16    3.00    3.80
   0  -4  16  208.68   18.10
   0  -4  16  195.78   16.10
   0  -4  16  198.28   18.50
   0   4  16  194.58   18.00
   0   4  16  205.38   17.20
   1  -4  16    8.10    4.40
   1  -4  16    4.20    4.20
   1   4  16    8.20    4.10
  -2  -4 -16  156.18   22.90
   2  -4  16  191.38   15.60
   2  -4  16  187.58   15.50
   2   4  16  151.28   15.00
   2   4  16  183.18   15.80
   3  -4  16    2.60    6.20
  -3  -4 -16  -14.80   11.70
   3  -4  16    3.40    5.30
   3   4  16   -5.00    6.10
   8   5 -16   52.29   10.10
  -7  -5  16   57.69    8.50
  -7  -5  16   50.89    7.90
  -7   5  16   52.59    9.80
  -6  -5  16   -0.80    3.70
  -6   5  16    3.30    5.00
  -6   5  16   -6.10    4.70
  -5  -5  16  150.38   13.80
  -5  -5  16  175.88   15.20
  -5  -5  16  151.48   13.30
  -5   5  16  145.39   14.20
  -5   5  16  149.49   14.00
  -4  -5  16    1.20    3.30
  -4  -5  16   -1.80    3.30
  -4  -5  16    1.60    4.80
  -4   5  16   -6.80    4.00
  -4   5  16    1.20    4.00
  -3  -5  16  191.88   17.90
  -3  -5  16  176.38   17.00
  -3  -5  16  191.38   15.10
  -3   5  16  176.58   17.10
  -3   5  16  173.38   16.50
  -2  -5  16    9.50    4.50
  -2  -5  16    7.50    4.00
  -2   5  16   10.90    4.60
  -1  -5  16  205.28   17.80
  -1  -5  16  171.98   15.00
  -1  -5  16  197.68   17.70
  -1   5  16  206.08   16.60
  -1   5  16  178.18   17.50
   0  -5  16   -0.80    3.80
   0  -5  16    8.00    4.80
   0  -5 -16   -5.30    4.50
   0   5  16    1.00    4.50
  -1  -5 -16   99.89   17.50
   1  -5  16  128.19   12.40
   1  -5  16  134.29   12.80
   1   5  16  145.99   12.40
   1   5  16  130.09   12.20
   2  -5  16    6.10    5.60
   2  -5  16    5.80    4.70
   2   5  16   -2.30    5.80
  -6  -6  16   59.19    8.40
  -6  -6  16   72.79    8.30
  -6   6  16   49.10    8.90
  -5  -6  16    7.50    5.20
  -5  -6  16    9.90    4.00
  -5   6  16    1.90    5.10
  -4  -6  16  122.09   11.90
  -4  -6  16  151.48   14.00
  -4  -6  16  131.39   14.60
  -4   6  16  165.38   14.10
  -4   6  16  145.29   13.70
  -3  -6  16    7.50    3.50
  -3   6  16    3.80    4.20
  -3   6  16   -4.00    4.30
  -2  -6  16  276.47   23.90
  -2  -6  16  290.07   21.90
  -2  -6  16  282.47   23.60
  -2   6  16  273.37   22.40
  -2   6  16  279.47   23.60
  -1  -6  16   -0.90    3.70
  -1  -6  16   -2.10    4.80
  -1   6  16    7.70    4.30
  -1   6  16    9.20    4.80
   0  -6 -16  144.59   17.40
   0  -6  16  151.98   13.30
   0  -6  16  152.28   14.30
   0   6  16  136.09   14.10
   0   6  16  139.19   13.10
   1  -6  16    5.10    4.40
   1  -6  16    0.40    5.60
  -2  -6 -16    3.80    8.50
   2   6  16   12.80    6.00
   2   6  16   12.70    6.10
  -5  -7  16  134.39   11.80
  -5  -7  16   98.49   11.40
  -5  -7  16  135.79   12.50
  -5   7  16  140.09   12.70
  -4  -7  16    2.80    3.90
  -4   7  16   -6.10    4.80
  -4   7  16   -3.10    5.30
  -3  -7  16  206.18   17.20
  -3  -7  16  183.48   15.30
  -3  -7  16  194.08   17.10
  -3   7  16  189.88   16.50
  -3   7  16  193.78   17.10
  -2  -7  16    7.00    5.40
  -2  -7  16    5.50    3.90
  -2   7  16   -3.00    5.00
   1   7 -16   79.99   11.80
  -1   7  16   86.69    9.90
  -1   7  16   78.99   10.90
   0  -7  16    4.30    5.60
   0  -7  16    6.60    4.30
  -1  -7 -16   33.70    8.50
   1   7  16   30.70    9.50
   1   7  16   34.80    9.40
  -6  -8  16  102.09   11.70
  -4  -8  16   96.79    9.70
  -4  -8  16   89.99   10.80
  -4   8  16   74.39   10.30
  -4   8  16   81.49   10.70
  -3  -8  16    5.20    4.60
  -3  -8  16   12.10    6.00
  -3   8  16   -5.20    5.10
  -3   8  16   -2.30    5.50
  -2  -8  16  119.49   11.60
  -2  -8  16  119.99   11.40
   2  -8 -16  106.89   11.70
  -2   8  16   92.29   11.60
  -1  -8  16    4.60    4.70
  -1  -8  16   11.90    6.40
   0  -8 -16   16.90    5.80
   0   8  16    9.50    6.00
   0   8  16   27.40    6.50
  -3  -9  16   79.19   10.60
   3  -9 -16   70.89    8.60
  -3  -9  16   67.89    9.50
  -3   9  16   49.30   10.40
  -2  -9  16    6.20    5.40
   1  -9 -16   22.10    7.10
  -1  -9  16   39.10   10.50
  -1   9  16   15.10    7.80
  -7   0  17   27.90    7.60
  -6   0  17   14.80    5.30
  -6   0  17    2.60    4.10
  -5   0  17  239.18   20.00
  -5   0  17  241.08   19.40
  -4   0  17   19.90    5.90
  -4   0  17   25.50    5.80
  -3   0  17  401.76   29.80
  -3   0  17  381.56   31.20
  -2   0  17    0.00    3.90
  -2   0  17   -2.20    3.30
  -1   0  17   39.10    7.00
  -1   0  17   36.20    6.40
   0   0  17   13.80    4.90
   1   0  17   36.40    5.10
   2   0  17   -1.10    5.60
  -8  -1  17   42.70   10.40
  -8   1  17   37.00    8.30
  -7  -1  17    8.20    5.80
  -7   1  17    1.20    5.70
  -6  -1  17  123.89   11.80
  -6  -1  17  128.89   12.40
  -6   1  17  113.39   12.20
  -6   1  17  135.29   12.20
  -5  -1  17    8.70    3.70
  -5  -1  17    7.70    4.70
  -5   1  17   20.50    6.60
  -4  -1  17  133.89   14.20
  -4  -1  17  159.58   13.50
  -4   1  17  151.38   14.30
  -4   1  17  142.29   13.30
  -3  -1  17    3.50    3.30
  -3  -1  17    7.10    4.10
  -3   1  17    7.20    3.60
  -3   1  17    1.00    4.10
  -2  -1  17  194.08   15.40
  -2  -1  17  191.88   17.50
  -2   1  17  193.68   17.80
  -2   1  17  168.78   15.50
  -1  -1  17   -2.10    3.30
  -1  -1  17    7.70    4.40
  -1   1  17   -1.50    3.50
  -1   1  17    7.20    4.40
   0  -1  17  121.19   11.60
   0  -1  17   91.69   10.20
   0   1  17   94.39   10.30
   0   1  17  132.69   11.50
   1  -1  17    4.60    5.00
   1  -1  17    1.20    4.20
   1   1  17    5.30    4.80
  -2  -1 -17   55.89   14.60
   2  -1  17   86.89    9.70
   2  -1  17   84.69    9.30
   2   1  17   62.19    9.40
   2   1  17   64.69    9.90
  -2   1 -17   67.29   21.10
  -8  -2  17   -0.40    7.60
  -7  -2  17   47.90    8.20
  -7  -2  17   66.99   10.10
  -7   2  17   66.39    9.90
  -7   2  17   48.70    8.40
  -6   2  17   11.60    5.40
  -5  -2  17  125.39   12.60
  -5  -2  17  153.78   13.80
  -5   2  17  140.49   12.90
  -5   2  17  147.29   13.50
  -4  -2  17   10.60    4.40
  -4  -2  17   21.40    5.70
  -4   2  17   14.30    4.60
  -4   2  17    7.50    3.90
  -3  -2  17  236.48   19.80
  -3  -2  17  215.18   17.50
  -3   2  17  204.88   18.90
  -3   2  17  217.18   18.30
  -2  -2  17   -1.30    3.40
  -2  -2  17    6.50    4.20
  -2   2  17   -2.40    4.20
  -2   2  17   10.00    3.40
  -1  -2  17  142.29   13.00
  -1  -2  17  110.69   11.20
  -1   2  17  140.69   11.90
  -1   2  17  128.09   12.80
   0  -2  17   25.30    7.00
   0   2  17   24.50    6.90
  -1  -2 -17   87.09   19.50
   1  -2  17  121.89   12.10
   1  -2  17  145.59   12.40
   1   2  17  138.09   12.60
   2  -2  17    8.80    4.80
   2  -2  17    3.30    5.80
   2   2  17   -0.30    5.80
  -2   2 -17  -13.50    9.40
  -7  -3  17    3.60    6.80
  -7   3  17   -8.40    5.00
  -7   3  17    0.50    6.30
  -6  -3  17   74.69    9.80
  -6  -3  17  112.49   11.00
  -6   3  17  104.69   10.60
  -5  -3  17    4.90    5.00
  -5  -3  17    1.10    3.90
  -5   3  17   -5.80    4.30
  -5   3  17    9.10    4.70
  -4  -3  17   69.99    7.70
  -4  -3  17   57.29    8.30
  -4   3  17   60.49    8.00
  -4   3  17   64.19    8.20
  -3  -3  17    5.60    4.60
  -3   3  17   -5.70    4.10
  -3   3  17   -0.40    3.80
  -2  -3  17  150.08   14.20
  -2  -3  17  157.98   15.40
  -2  -3  17  147.59   12.80
  -2   3  17  146.19   14.80
  -2   3  17  143.09   13.50
  -1   3  17    5.50    4.10
  -1   3  17    1.40    4.20
   0  -3  17  231.78   18.90
   0  -3  17  205.38   19.10
   0  -3  17  239.08   18.80
   0   3  17  215.28   18.00
   0   3  17  205.78   18.90
   1  -3  17    9.00    5.40
   1  -3  17    7.30    4.60
   1   3  17    7.20    5.40
  -2  -3 -17   30.80   18.00
   2  -3  17   83.79    9.80
  -2   3 -17   50.19   16.60
   2   3  17   56.39    9.60
  -7  -4  17   53.79    8.20
  -7  -4  17   37.40    9.40
  -7   4  17   56.79   10.50
  -7   4  17   56.59    9.50
  -6  -4  17    7.00    5.80
  -6   4  17   -2.00    5.40
  -5  -4  17   79.29    9.40
  -5  -4  17   92.99    9.90
  -5  -4  17  113.09   10.50
  -5   4  17   88.99   10.00
  -4  -4  17    8.00    5.00
  -4   4  17    4.00    4.50
  -3  -4  17   89.89   10.30
  -3  -4  17  119.89   11.60
  -3  -4  17  108.19   12.00
  -3   4  17  116.59   11.80
  -3   4  17  127.49   11.20
  -2  -4  17    7.00    4.40
  -2  -4  17   -0.90    3.70
  -2   4  17    6.10    4.50
  -2   4  17   -1.10    4.30
  -1  -4  17  167.38   15.20
  -1  -4  17  217.48   17.50
  -1  -4  17  216.38   17.40
  -1   4  17  165.98   17.00
  -1   4  17  204.58   16.50
   0  -4  17   24.00    7.10
   0  -4  17   10.30    4.90
   1  -4  17  140.99   13.30
   1  -4  17  151.78   13.50
   1   4  17  154.68   14.30
  -7  -5  17   -6.00    5.30
  -6  -5  17   44.80    8.50
  -6  -5  17   37.50    7.30
  -6   5  17   31.50    9.00
  -6   5  17   31.50    6.30
  -5  -5  17   -2.90    4.30
  -5   5  17   -4.30    5.40
  -4  -5  17  109.39   11.30
  -4  -5  17  148.49   12.70
  -4  -5  17  151.98   12.60
  -4   5  17  123.99   12.80
  -4   5  17  106.39   12.40
  -3  -5  17    4.80    3.80
  -3   5  17    3.40    4.60
  -3   5  17    6.00    4.70
  -2  -5  17  168.58   14.70
  -2  -5  17  148.09   13.50
  -2  -5  17  167.58   14.70
  -2   5  17  149.29   14.00
  -2   5  17  174.58   14.80
  -1  -5  17    1.70    5.20
  -1  -5  17    2.60    4.00
   0  -5  17  107.99   11.30
   0  -5  17  114.19   11.20
   0   5  17  104.59   11.40
   1  -5  17    0.90    5.90
   1  -5  17    4.50    5.20
   1   5  17   -4.70    5.90
  -5  -6  17  138.59   12.50
  -5  -6  17  122.39   11.60
  -5   6  17   97.89   11.90
  -4  -6  17    3.30    4.50
  -4  -6  17    7.90    5.60
  -4   6  17    3.50    5.40
  -3  -6  17  144.09   12.00
  -3  -6  17  108.69   11.00
  -3   6  17  106.79   11.70
  -3   6  17  126.19   12.40
  -2  -6  17    6.80    4.20
  -2  -6  17   -1.90    5.30
  -2   6  17   -8.00    5.00
  -2   6  17    1.90    5.40
  -1  -6  17   97.09   10.10
   1  -6 -17   73.19   13.90
  -1  -6  17  104.49   10.90
  -1   6  17   83.39   10.70
   0  -6  17   11.50    6.20
   0  -6  17   -3.40    4.70
   0  -6 -17   -7.70    5.60
   0   6  17   -9.00    5.30
   0   6  17    1.90    5.90
  -5  -7  17    5.10    5.10
  -5   7  17    3.70    6.90
  -4  -7  17  162.48   13.80
  -4  -7  17  142.69   13.20
  -4  -7  17  109.09   12.10
  -4   7  17  120.39   12.90
  -4   7  17  152.38   13.50
  -3  -7  17    6.50    4.50
  -3   7  17    3.20    6.20
  -2  -7  17   95.89   10.50
  -2  -7  17   97.69   10.70
  -2   7  17   68.79   10.40
  -1  -7  17   13.40    6.70
  -1  -7  17    7.90    5.10
  -1   7  17   -9.00    5.60
  -1   7  17   -8.80    6.50
  -6   0  18   89.09   10.00
  -6   0  18   59.19    9.10
  -5   0  18    4.30    5.50
  -4   0  18  114.39   11.10
  -4   0  18   95.09   10.50
  -3   0  18    2.30    4.90
  -3   0  18    2.30    4.10
  -2   0  18  125.29   11.10
  -2   0  18   96.69   10.80
  -1   0  18    7.10    4.90
  -6  -1  18   -3.70    4.50
  -6  -1  18    6.10    6.10
  -6   1  18   -0.40    5.10
  -6   1  18   -5.10    6.20
  -5  -1  18  165.98   13.90
  -5  -1  18  116.69   12.70
  -5   1  18  119.29   13.10
  -5   1  18  163.48   13.70
  -4  -1  18   -6.60    4.00
  -4  -1  18   -4.90    4.90
  -4   1  18    1.40    5.20
  -3  -1  18   73.99    8.90
  -3  -1  18   76.99    8.30
  -3   1  18   82.19    8.90
  -3   1  18   64.09    8.50
  -2  -1  18   23.80    7.10
  -2   1  18    3.10    5.00
  -1  -1  18   57.19    8.10
  -1   1  18   50.19    7.80
   0  -1  18    5.40    5.40
   0  -1  18    3.50    4.80
   0   1  18   13.70    5.70
  -6  -2  18   81.29   10.10
  -6   2  18   65.99   10.50
  -5  -2  18    4.80    5.50
  -5   2  18   11.30    5.90
  -4  -2  18   63.39    9.00
  -4  -2  18  102.99    9.60
  -4   2  18   94.89    9.80
  -4   2  18   70.79    9.40
  -3  -2  18   10.40    5.00
  -3   2  18    5.50    5.00
  -3   2  18   -4.20    4.60
  -2  -2  18   80.09   10.60
  -2  -2  18  121.79   11.10
  -2   2  18  126.59   11.60
  -1  -2  18   30.00    8.10
  -1   2  18   36.10    7.80
   0  -2  18  149.79   13.20
   0  -2  18  119.49   13.20
   0   2  18  150.08   13.30
  -6  -3  18   12.20    6.50
  -6   3  18   -1.50    6.40
  -5  -3  18   66.19    9.70
  -5  -3  18   90.09    9.90
  -5   3  18   84.29    9.90
  -4  -3  18   -2.50    4.40
  -4  -3  18    6.40    5.40
  -4   3  18   12.50    5.50
  -3  -3  18   95.59   10.70
  -3  -3  18  101.59   10.50
  -3   3  18   97.39   10.50
  -2  -3  18    1.70    4.10
  -2  -3  18    8.10    5.30
  -2   3  18    3.00    5.10
  -1  -3  18  130.99   13.50
  -1  -3  18  158.78   13.60
  -1  -3  18  135.09   13.40
  -1   3  18  117.69   12.60
  -1   3  18  156.08   13.70
   0  -3  18   12.20    5.80
   0  -3  18    3.60    4.70
   0   3  18   13.30    5.90
  -5  -4  18    2.00    5.00
  -5  -4  18   14.30    6.50
  -5   4  18    7.60    6.00
  -4  -4  18   96.19   11.20
  -4  -4  18  125.19   11.30
  -4   4  18  108.29   11.00
  -4   4  18   77.69   10.40
  -3  -4  18   -0.20    4.70
  -3  -4  18    1.80    5.70
  -3   4  18   -5.70    4.90
  -3   4  18    2.60    5.30
  -2  -4  18   98.79   11.00
  -2  -4  18  110.79   11.50
  -2  -4  18  124.39   11.80
  -2   4  18   89.19   11.00
  -2   4  18  120.89   11.70
  -1  -4  18    2.50    4.60
  -1   4  18    1.80    5.40
  -5  -5  18   58.79    9.50
  -5   5  18   58.29   10.50
  -4  -5  18   12.30    6.20
  -4   5  18   12.60    6.00
  -3  -5  18  108.79   11.10
  -3  -5  18   93.89   10.60
  -3   5  18  103.29   11.20
  -3   5  18   80.99   11.00
  -2  -5  18   -0.80    4.90
  -2  -5  18    7.40    5.90
  -2   5  18   -6.80    5.80
  -1  -5  18   78.39   10.60
  -1   5  18   63.69   10.90
  -4  -1  19   41.90    8.40
  -4   1  19   58.99    8.90
  -3  -1  19   14.80    9.00
  -3   1  19    6.80    8.30
   0   0   0    0.00    0.00


_computing_structure_solution     'SHELXT 2014/5 (Sheldrick, 2014)'
_computing_structure_solution     'SHELXT 2018/2 (Sheldrick, 2018)'
;
_shelx_hkl_checksum              19094
loop_
_space_group_symop_operation_xyz
'x, y, z'
'-x+1/2, y+1/2, -z+1/2'
'-x, -y, -z'
'x-1/2, -y-1/2, z-1/2'
loop_
_atom_site_label
_atom_site_type_symbol
_atom_site_fract_x
_atom_site_fract_y
_atom_site_fract_z
_atom_site_U_iso_or_equiv
_atom_site_adp_type
_atom_site_occupancy
_atom_site_site_symmetry_order
_atom_site_calc_flag
_atom_site_refinement_flags_posn
_atom_site_refinement_flags_adp
_atom_site_refinement_flags_occupancy
_atom_site_disorder_assembly
_atom_site_disorder_group
Au1 Au 0.500000 0.500000 0.500000 0.02985(12) Uani 1 2 d S . P . .
Cl1 Cl 0.3946(2) 0.34093(11) 0.36351(10) 0.0525(3) Uani 1 1 d . . . . .
Cl2 Cl 0.38990(19) 0.64560(11) 0.34919(10) 0.0472(3) Uani 1 1 d . . . . .
C1 C 0.6855(5) 0.0656(4) 0.3031(3) 0.0313(7) Uani 1 1 d . . . . .
C2 C 0.7830(6) 0.1660(4) 0.3712(4) 0.0392(9) Uani 1 1 d . . . . .
H2 H 0.805504 0.240623 0.333565 0.047 Uiso 1 1 calc R U . . .
C3 C 0.8110(7) 0.0506(6) 0.5510(4) 0.0483(11) Uani 1 1 d . . . . .
H3 H 0.853016 0.047350 0.634956 0.058 Uiso 1 1 calc R U . . .
C4 C 0.7147(7) -0.0507(5) 0.4873(4) 0.0467(10) Uani 1 1 d . . . . .
H4 H 0.691808 -0.123248 0.527781 0.056 Uiso 1 1 calc R U . . .
C5 C 0.6520(6) -0.0437(4) 0.3626(4) 0.0374(8) Uani 1 1 d . . . . .
H5 H 0.587641 -0.112034 0.318600 0.045 Uiso 1 1 calc R U . . .
C6 C 0.6137(6) 0.0827(4) 0.1691(3) 0.0350(8) Uani 1 1 d . . . . .
N1 N 0.8440(6) 0.1539(4) 0.4914(3) 0.0441(9) Uani 1 1 d D . . . .
O1 O 0.6007(5) 0.1918(3) 0.1276(3) 0.0478(8) Uani 1 1 d . . . . .
O2 O 0.5708(6) -0.0195(3) 0.1082(3) 0.0498(9) Uani 1 1 d . . . . .
H H 0.500000 0.000000 0.000000 0.10(5) Uiso 1 2 d S . P . .
H1 H 0.917(7) 0.213(4) 0.533(5) 0.067(18) Uiso 1 1 d D . . . .
loop_
_atom_site_aniso_label
_atom_site_aniso_U_11
_atom_site_aniso_U_22
_atom_site_aniso_U_33
_atom_site_aniso_U_23
_atom_site_aniso_U_13
_atom_site_aniso_U_12
Au1 0.03605(15) 0.02700(14) 0.02641(14) 0.00135(7) 0.00798(8) 0.00149(8)
Cl1 0.0783(8) 0.0370(5) 0.0370(5) -0.0076(4) 0.0058(5) -0.0046(5)
Cl2 0.0617(7) 0.0387(5) 0.0375(5) 0.0122(4) 0.0061(4) 0.0056(5)
C1 0.0326(18) 0.0319(19) 0.0274(16) -0.0025(13) 0.0041(13) 0.0020(15)
C2 0.042(2) 0.0310(19) 0.039(2) -0.0027(15) 0.0012(16) -0.0003(16)
C3 0.053(3) 0.065(3) 0.0246(18) -0.0066(19) 0.0052(17) 0.012(2)
C4 0.059(3) 0.047(3) 0.036(2) 0.0080(19) 0.017(2) 0.004(2)
C5 0.044(2) 0.0321(19) 0.0365(19) -0.0019(16) 0.0106(16) -0.0025(17)
C6 0.0362(19) 0.038(2) 0.0273(16) 0.0002(15) 0.0022(14) 0.0047(16)
N1 0.044(2) 0.045(2) 0.0358(17) -0.0149(16) -0.0031(14) 0.0036(17)
O1 0.056(2) 0.0397(17) 0.0399(15) 0.0084(13) -0.0004(13) 0.0041(14)
O2 0.066(2) 0.0448(18) 0.0284(14) -0.0041(12) -0.0054(14) 0.0019(15)
loop_
_atom_type_symbol
_atom_type_description
_atom_type_scat_dispersion_real
_atom_type_scat_dispersion_imag
_atom_type_scat_source
C C 0.0033 0.0016 'International Tables Vol C Tables 4.2.6.8 and 6.1.1.4'
H H 0.0000 0.0000 'International Tables Vol C Tables 4.2.6.8 and 6.1.1.4'
N N 0.0061 0.0033 'International Tables Vol C Tables 4.2.6.8 and 6.1.1.4'
O O 0.0106 0.0060 'International Tables Vol C Tables 4.2.6.8 and 6.1.1.4'
Au Au -2.0133 8.8022 'International Tables Vol C Tables 4.2.6.8 and 6.1.1.4'
Cl Cl 0.1484 0.1585 'International Tables Vol C Tables 4.2.6.8 and 6.1.1.4'
loop_
_geom_angle_atom_site_label_1
_geom_angle_atom_site_label_2
_geom_angle_atom_site_label_3
_geom_angle
_geom_angle_site_symmetry_1
_geom_angle_site_symmetry_3
_geom_angle_publ_flag
Cl1 Au1 Cl1 180.0 3_666 . ?
Cl1 Au1 Cl2 89.16(6) 3_666 3_666 ?
Cl1 Au1 Cl2 90.84(6) . 3_666 ?
Cl1 Au1 Cl2 90.84(5) 3_666 . ?
Cl1 Au1 Cl2 89.16(5) . . ?
Cl2 Au1 Cl2 180.00(7) 3_666 . ?
C5 C1 C2 118.8(4) . . ?
C5 C1 C6 122.9(4) . . ?
C2 C1 C6 118.3(4) . . ?
N1 C2 C1 119.2(4) . . ?
N1 C2 H2 120.4 . . ?
C1 C2 H2 120.4 . . ?
N1 C3 C4 119.5(4) . . ?
N1 C3 H3 120.2 . . ?
C4 C3 H3 120.2 . . ?
C3 C4 C5 119.5(5) . . ?
C3 C4 H4 120.3 . . ?
C5 C4 H4 120.3 . . ?
C4 C5 C1 119.8(4) . . ?
C4 C5 H5 120.1 . . ?
C1 C5 H5 120.1 . . ?
O1 C6 O2 126.1(4) . . ?
O1 C6 C1 118.5(4) . . ?
O2 C6 C1 115.4(4) . . ?
C2 N1 C3 123.2(4) . . ?
C2 N1 H1 119(4) . . ?
C3 N1 H1 118(4) . . ?
C6 O2 H 112.9(3) . . ?
loop_
_geom_bond_atom_site_label_1
_geom_bond_atom_site_label_2
_geom_bond_distance
_geom_bond_site_symmetry_2
_geom_bond_publ_flag
Au1 Cl1 2.2805(12) 3_666 ?
Au1 Cl1 2.2805(12) . ?
Au1 Cl2 2.2898(11) 3_666 ?
Au1 Cl2 2.2898(11) . ?
C1 C5 1.389(6) . ?
C1 C2 1.391(5) . ?
C1 C6 1.496(5) . ?
C2 N1 1.336(5) . ?
C2 H2 0.9300 . ?
C3 N1 1.337(7) . ?
C3 C4 1.375(8) . ?
C3 H3 0.9300 . ?
C4 C5 1.383(6) . ?
C4 H4 0.9300 . ?
C5 H5 0.9300 . ?
C6 O1 1.236(5) . ?
C6 O2 1.275(5) . ?
N1 H1 0.87(2) . ?
O2 H 1.228(3) . ?
loop_
_geom_hbond_atom_site_label_D
_geom_hbond_atom_site_label_H
_geom_hbond_atom_site_label_A
_geom_hbond_distance_DH
_geom_hbond_distance_HA
_geom_hbond_distance_DA
_geom_hbond_angle_DHA
_geom_hbond_site_symmetry_A
_geom_hbond_publ_flag
C3 H3 Cl1 0.93 2.81 3.651(4) 150.8 4_666 yes
C4 H4 Cl1 0.93 2.75 3.683(5) 176.6 3_656 yes
O2 H O1 1.228(3) 2.486(3) 3.220(5) 116.02(17) 3_655 yes
O2 H O2 1.228(3) 1.228(3) 2.457(7) 180.0(3) 3_655 yes
N1 H1 O1 0.87(2) 1.79(2) 2.650(5) 169(6) 4_666 yes
loop_
_geom_torsion_atom_site_label_1
_geom_torsion_atom_site_label_2
_geom_torsion_atom_site_label_3
_geom_torsion_atom_site_label_4
_geom_torsion
_geom_torsion_site_symmetry_1
_geom_torsion_site_symmetry_2
_geom_torsion_site_symmetry_3
_geom_torsion_site_symmetry_4
_geom_torsion_publ_flag
C5 C1 C2 N1 0.9(6) . . . . ?
C6 C1 C2 N1 178.3(4) . . . . ?
N1 C3 C4 C5 -0.5(7) . . . . ?
C3 C4 C5 C1 -0.6(7) . . . . ?
C2 C1 C5 C4 0.4(6) . . . . ?
C6 C1 C5 C4 -176.9(4) . . . . ?
C5 C1 C6 O1 159.7(4) . . . . ?
C2 C1 C6 O1 -17.6(6) . . . . ?
C5 C1 C6 O2 -20.2(6) . . . . ?
C2 C1 C6 O2 162.6(4) . . . . ?
C1 C2 N1 C3 -2.1(7) . . . . ?
C4 C3 N1 C2 1.9(7) . . . . ?
