#------------------------------------------------------------------------------
#$Date: 2021-07-04 04:25:13 +0300 (Sun, 04 Jul 2021) $
#$Revision: 266948 $
#$URL: file:///home/coder/svn-repositories/cod/cif/4/51/88/4518807.cif $
#------------------------------------------------------------------------------
#
# This file is available in the Crystallography Open Database (COD),
# http://www.crystallography.net/
#
# All data on this site have been placed in the public domain by the
# contributors.
#
data_4518807
loop_
_publ_author_name
'Zheng, Yue'
'Qi, Xiujuan'
'Chen, Sitong'
'Song, Siwei'
'Zhang, Yaping'
'Wang, Kangcai'
'Zhang, Qinghua'
_publ_section_title
;
 Self-Assembly of Nitrogen-Rich Heterocyclic Compounds with Oxidants for
 the Development of High-Energy Materials.
;
_journal_issue                   24
_journal_name_full               'ACS applied materials &amp; interfaces'
_journal_page_first              28390
_journal_page_last               28397
_journal_paper_doi               10.1021/acsami.1c07558
_journal_volume                  13
_journal_year                    2021
_chemical_formula_moiety
'C4 H4 N8 O, 0.5&#x00A3;&#x00A8;H2 O2&#x00A3;&#x00A9;'
_chemical_formula_sum            'C4 H5 N8 O3'
_chemical_formula_weight         213.16
_space_group_crystal_system      triclinic
_space_group_IT_number           2
_space_group_name_Hall           '-P 1'
_space_group_name_H-M_alt        'P -1'
_atom_sites_solution_hydrogens   mixed
_atom_sites_solution_primary     dual
_audit_creation_date             2020-09-25
_audit_creation_method
;
Olex2 1.2
(compiled 2018.05.29 svn.r3508 for OlexSys, GUI svn.r5506)
;
_cell_angle_alpha                82.558(3)
_cell_angle_beta                 84.650(3)
_cell_angle_gamma                70.411(3)
_cell_formula_units_Z            2
_cell_length_a                   5.0497(2)
_cell_length_b                   6.4021(2)
_cell_length_c                   12.9263(5)
_cell_measurement_reflns_used    5704
_cell_measurement_temperature    295
_cell_measurement_theta_max      75.5780
_cell_measurement_theta_min      3.4470
_cell_volume                     389.83(3)
_computing_molecular_graphics    'Olex2 (Dolomanov et al., 2009)'
_computing_publication_material  'Olex2 (Dolomanov et al., 2009)'
_computing_structure_refinement  'ShelXL (Sheldrick, 2015)'
_computing_structure_solution    'ShelXT (Sheldrick, 2015)'
_diffrn_ambient_temperature      295
_diffrn_measured_fraction_theta_full 1.000
_diffrn_measured_fraction_theta_max 0.984
_diffrn_measurement_device_type  'Bruker APEX-II CCD'
_diffrn_measurement_method       '\f and \w scans'
_diffrn_radiation_type           CuK\a
_diffrn_radiation_wavelength     1.54178
_diffrn_reflns_av_R_equivalents  0.0401
_diffrn_reflns_av_unetI/netI     0.0269
_diffrn_reflns_Laue_measured_fraction_full 1.000
_diffrn_reflns_Laue_measured_fraction_max 0.984
_diffrn_reflns_limit_h_max       6
_diffrn_reflns_limit_h_min       -6
_diffrn_reflns_limit_k_max       8
_diffrn_reflns_limit_k_min       -8
_diffrn_reflns_limit_l_max       14
_diffrn_reflns_limit_l_min       -16
_diffrn_reflns_number            10701
_diffrn_reflns_point_group_measured_fraction_full 1.000
_diffrn_reflns_point_group_measured_fraction_max 0.984
_diffrn_reflns_theta_full        67.679
_diffrn_reflns_theta_max         77.170
_diffrn_reflns_theta_min         3.453
_diffrn_standards_number         0
_exptl_absorpt_coefficient_mu    1.364
_exptl_absorpt_correction_T_max  0.791
_exptl_absorpt_correction_T_min  0.772
_exptl_absorpt_correction_type   multi-scan
_exptl_absorpt_process_details
;
CrysAlisPro 1.171.40.50a (Rigaku Oxford Diffraction, 2019)
Empirical absorption correction using spherical harmonics,
 implemented in SCALE3 ABSPACK scaling algorithm.
;
_exptl_crystal_colour            'clear whiteish colourless'
_exptl_crystal_colour_lustre     clear
_exptl_crystal_colour_modifier   whiteish
_exptl_crystal_colour_primary    colourless
_exptl_crystal_density_diffrn    1.816
_exptl_crystal_description       block
_exptl_crystal_F_000             218
_exptl_crystal_size_max          0.22
_exptl_crystal_size_mid          0.2
_exptl_crystal_size_min          0.18
_refine_diff_density_max         0.225
_refine_diff_density_min         -0.322
_refine_diff_density_rms         0.058
_refine_ls_extinction_method     none
_refine_ls_goodness_of_fit_ref   1.085
_refine_ls_hydrogen_treatment    mixed
_refine_ls_matrix_type           full
_refine_ls_number_parameters     158
_refine_ls_number_reflns         1627
_refine_ls_number_restraints     20
_refine_ls_restrained_S_all      1.117
_refine_ls_R_factor_all          0.0452
_refine_ls_R_factor_gt           0.0401
_refine_ls_shift/su_max          0.000
_refine_ls_shift/su_mean         0.000
_refine_ls_structure_factor_coef Fsqd
_refine_ls_weighting_details
'w=1/[\s^2^(Fo^2^)+(0.0732P)^2^+0.0735P] where P=(Fo^2^+2Fc^2^)/3'
_refine_ls_weighting_scheme      calc
_refine_ls_wR_factor_gt          0.1137
_refine_ls_wR_factor_ref         0.1191
_reflns_Friedel_coverage         0.000
_reflns_number_gt                1438
_reflns_number_total             1627
_reflns_threshold_expression     'I > 2\s(I)'
_cod_data_source_file            am1c07558_si_002.cif
_cod_data_source_block           compound1
_cod_depositor_comments
'Adding full bibliography for 4518807--4518809.cif.'
_cod_database_code               4518807
_shelx_shelxl_version_number     2014/7
_shelx_space_group_comment
;
The symmetry employed for this shelxl refinement is uniquely defined
by the following loop, which should always be used as a source of
symmetry information in preference to the above space-group names.
They are only intended as comments.
;
_shelx_estimated_absorpt_t_max   0.791
_shelx_estimated_absorpt_t_min   0.753
_olex2_refinement_description
;
1. Fixed Uiso
 At 1.2 times of:
  All N(H,H) groups
2. Restrained distances
 N1-H1A = N1-H1B
 0.86 with sigma of 0.02
3. Uiso/Uaniso restraints and constraints
O3A \\sim O3B: within 2A with sigma of 0.04 and sigma for terminal atoms of 0.08
Uanis(O3A) \\sim Ueq, Uanis(O3B) \\sim Ueq: with sigma of 0.001 and sigma for
terminal atoms of 0.002
4. Others
 Sof(O3A)=1-FVAR(1)
 Sof(O3B)=FVAR(1)
5.a X=CH2 refined with riding coordinates:
 N7(H7A,H7B)
;
_shelx_res_file
;
    compound1.res created by SHELXL-2014/7

TITL compound1_a.res in P-1
REM Old TITL compound 1 in P-1
REM SHELXT solution in P-1: R1 0.219, Rweak 0.006, Alpha 0.056
REM <I/s> 0.000 for 0 systematic absences, Orientation as input
REM Formula found by SHELXT: C13 O2
CELL 1.54178 5.0497 6.4021 12.9263 82.558 84.65 70.411
ZERR 1 0.0002 0.0002 0.0005 0.003 0.003 0.003
LATT 1
SFAC C H N O
UNIT 8 10 16 6
DFIX 0.86 N1 H1a N1 H1b
SIMU O3A O3B
ISOR 0.001 0.002 O3A O3B

L.S. 20
PLAN  20
SIZE 0.22 0.2 0.18
TEMP 22.85
BOND
LIST 6
fmap 2
acta
REM <olex2.extras>
REM <HklSrc "%.\\compound%201.hkl">
REM </olex2.extras>

WGHT    0.073200    0.073500
FVAR       0.74220   0.65284
O2    4    0.709233    0.950618    0.244722    11.00000    0.06558    0.06583 =
         0.03473   -0.01112    0.00733   -0.04713
N3    3    0.167160    0.450743    0.272284    11.00000    0.04458    0.03599 =
         0.02714   -0.00891    0.00262   -0.02138
O1    4    0.523808    0.971829    0.400102    11.00000    0.08518    0.07717 =
         0.03480   -0.02735    0.01126   -0.05630
N8    3    0.558193    0.895614    0.315698    11.00000    0.04595    0.04223 =
         0.02716   -0.00882    0.00041   -0.02411
N2    3    0.127197    0.516089    0.369423    11.00000    0.05178    0.04293 =
         0.02490   -0.01034    0.00631   -0.02671
N7    3    0.589461    0.726793    0.112915    11.00000    0.05111    0.05031 =
         0.02574   -0.01118    0.00537   -0.03122
AFIX  93
H7A   2    0.678528    0.819568    0.114532    11.00000   -1.20000
H7B   2    0.590368    0.670398    0.055955    11.00000   -1.20000
AFIX   0
N6    3    0.289760    0.407953    0.109311    11.00000    0.04836    0.04238 =
         0.03037   -0.01348    0.00252   -0.02375
N4    3    0.053469    0.303884    0.246526    11.00000    0.05408    0.04185 =
         0.03666   -0.01210    0.00271   -0.02994
N5    3    0.131766    0.281200    0.148257    11.00000    0.05357    0.04383 =
         0.03469   -0.01367    0.00188   -0.02709
N1    3    0.210992    0.731329    0.476794    11.00000    0.06100    0.05252 =
         0.02726   -0.01409    0.00895   -0.03396

PART 1
O3B   4    0.875707    1.054530    0.035572    21.00000    0.04665    0.05222 =
         0.04380   -0.01868    0.00210   -0.02331

PART 0
C1    1    0.310231    0.513863    0.188830    11.00000    0.03944    0.03560 =
         0.02508   -0.00890    0.00238   -0.01753
C2    1    0.452055    0.671233    0.197433    11.00000    0.03615    0.03440 =
         0.02590   -0.00673   -0.00024   -0.01600
C3    1    0.422235    0.741802    0.297878    11.00000    0.03794    0.03491 =
         0.02582   -0.00848    0.00057   -0.01846
C4    1    0.253106    0.663225    0.381778    11.00000    0.04016    0.03444 =
         0.02637   -0.00692    0.00159   -0.01578

PART 2
O3A   4    0.953200    0.980471    0.052413   -21.00000    0.04831    0.04795 =
         0.04531   -0.00498    0.00131   -0.02444
PART 0
H3B   2    0.979277    1.117880    0.069253    11.00000    0.08612

H1A   2    0.113061    0.667474    0.521153    11.00000    0.05221
H1B   2    0.286413    0.824484    0.492913    11.00000    0.06014
HKLF 4

REM  compound1_a.res in P-1
REM R1 =  0.0401 for    1438 Fo > 4sig(Fo)  and  0.0452 for all    1627 data
REM    158 parameters refined using     20 restraints

END

WGHT      0.0732      0.0735

REM Highest difference peak  0.225,  deepest hole -0.322,  1-sigma level  0.058
Q1    1   0.3407  0.7006  0.3387  11.00000  0.05    0.23
Q2    1   0.7391  1.1815  0.0192  11.00000  0.05    0.21
Q3    1   1.0808  0.8542  0.0253  11.00000  0.05    0.18
Q4    1   0.4163  0.7396  0.2463  11.00000  0.05    0.17
Q5    1   0.2475  0.4816  0.2365  11.00000  0.05    0.15
Q6    1   1.0979  0.8626  0.0751  11.00000  0.05    0.15
Q7    1   0.0840  0.2510  0.1170  11.00000  0.05    0.15
Q8    1  -0.0394  0.2554  0.2803  11.00000  0.05    0.15
Q9    1   0.3973  0.4385  0.0601  11.00000  0.05    0.13
Q10   1   0.0445  0.4757  0.4123  11.00000  0.05    0.13
Q11   1  -0.2517  0.4419  0.2417  11.00000  0.05    0.13
Q12   1   0.5419  0.3019  0.1774  11.00000  0.05    0.12
Q13   1   0.6240  0.8564  0.4256  11.00000  0.05    0.12
Q14   1   0.4521  1.0523  0.1782  11.00000  0.05    0.12
Q15   1   0.5339  1.1658  0.2444  11.00000  0.05    0.12
Q16   1   0.8957  0.6856  0.2547  11.00000  0.05    0.12
Q17   1   0.4621  0.2375  0.1400  11.00000  0.05    0.12
Q18   1   0.7103  0.5290  0.3364  11.00000  0.05    0.12
Q19   1   0.3006  1.1005  0.3393  11.00000  0.05    0.11
Q20   1   0.7501  0.7935  0.4591  11.00000  0.05    0.11
;
_shelx_res_checksum              74551
_shelx_hkl_file
;
  -6  -5  -3    0.04    0.05
  -6  -5  -2    5.98    0.35
  -6  -5  -1    8.97    0.46
  -6  -4  -5    1.79    0.17
  -6  -4  -4    0.01    0.06
  -6  -4  -3    2.12    0.20
  -6  -4  -3    2.61    0.24
  -6  -4  -2    2.26    0.24
  -6  -4  -1    5.48    0.40
  -6  -4  -1    6.38    0.41
  -6  -4   0    0.27    0.10
  -6  -4   1   11.60    0.59
  -6  -4   1    9.49    0.51
  -6  -4   2    0.11    0.08
  -6  -3  -6    7.33    0.41
  -6  -3  -6    8.30    0.48
  -6  -3  -5   13.03    0.63
  -6  -3  -5   10.84    0.57
  -6  -3  -5   12.21    0.67
  -6  -3  -4    0.02    0.07
  -6  -3  -4   -0.10    0.12
  -6  -3  -3    6.10    0.44
  -6  -3  -2    2.22    0.26
  -6  -3  -1    0.33    0.13
  -6  -3  -1    0.33    0.14
  -6  -3   0    1.92    0.21
  -6  -3   0    2.27    0.23
  -6  -3   1    0.28    0.12
  -6  -3   1    0.07    0.10
  -6  -3   2   12.60    0.66
  -6  -3   2   11.98    0.65
  -6  -3   3    0.16    0.08
  -6  -3   3    0.16    0.09
  -6  -2  -6    0.04    0.07
  -6  -2  -5    0.25    0.13
  -6  -2  -4    0.32    0.14
  -6  -2  -4    0.10    0.10
  -6  -2  -3    2.78    0.31
  -6  -2  -3    2.44    0.26
  -6  -2  -2   26.84    1.30
  -6  -2  -1   -0.04    0.03
  -6  -2   0   20.00    0.93
  -6  -2   1    2.79    0.25
  -6  -2   2    8.00    0.47
  -6  -2   3    0.06    0.08
  -6  -1  -5    0.23    0.09
  -6  -1  -5    0.21    0.08
  -6  -1  -4    6.04    0.41
  -6  -1  -4    5.88    0.38
  -6  -1  -3    1.20    0.17
  -6  -1  -2    5.21    0.36
  -6  -1  -1   25.80    1.16
  -6  -1   0    0.57    0.11
  -6  -1   0    0.61    0.13
  -6  -1   1   14.49    0.72
  -6  -1   2    2.50    0.23
  -6  -1   3    0.05    0.07
  -5  -6  -7    0.39    0.09
  -5  -6  -7    0.27    0.10
  -5  -6  -6    0.05    0.06
  -5  -6  -6    0.07    0.08
  -5  -6  -6    0.05    0.08
  -5  -6  -5    0.15    0.09
  -5  -6  -5    0.18    0.11
  -5  -6  -5    0.19    0.10
  -5  -6  -4    3.73    0.32
  -5  -6  -3    4.22    0.38
  -5  -6  -2    0.08    0.11
  -5  -6  -1    0.01    0.02
  -5  -6  -1    4.34    0.36
  -5  -6   0   17.45    0.86
  -5  -6   0   20.00    0.99
  -5  -6   1   21.77    0.98
  -5  -6   1   20.19    0.95
  -5  -6   1   19.37    1.01
  -5  -6   2    0.24    0.08
  -5  -6   2    0.03    0.07
  -5  -6   2    0.15    0.09
  -5  -6   3    0.51    0.10
  -5  -5  -9    2.83    0.24
  -5  -5  -8    4.03    0.34
  -5  -5  -8    4.64    0.36
  -5  -5  -7    0.01    0.03
  -5  -5  -7   12.08    0.56
  -5  -5  -6    6.11    0.43
  -5  -5  -6    6.73    0.52
  -5  -5  -5    3.84    0.35
  -5  -5  -5    4.03    0.42
  -5  -5  -5    3.95    0.41
  -5  -5  -4    8.95    1.20
  -5  -5  -4    7.60    0.53
  -5  -5  -4   10.75    0.71
  -5  -5  -4   10.30    0.69
  -5  -5  -3    1.56    0.55
  -5  -5  -3    1.49    0.23
  -5  -5  -3    1.39    0.28
  -5  -5  -3    1.20    0.25
  -5  -5  -2    2.95    0.34
  -5  -5  -2    3.91    0.86
  -5  -5  -2    3.69    0.42
  -5  -5  -1    2.36    0.31
  -5  -5  -1    2.19    0.34
  -5  -5   0    7.82    0.58
  -5  -5   0    6.36    0.46
  -5  -5   0    8.49    0.63
  -5  -5   1    0.75    0.17
  -5  -5   1    0.55    0.19
  -5  -5   1    0.53    0.20
  -5  -5   2   23.55    1.18
  -5  -5   2   24.09    1.13
  -5  -5   2   21.49    1.10
  -5  -5   2   19.97    1.12
  -5  -5   3    1.97    0.33
  -5  -5   3    2.27    0.23
  -5  -5   3    2.22    0.24
  -5  -5   4    7.31    0.59
  -5  -5   5    8.26    0.51
  -5  -5   5    9.66    0.55
  -5  -5   6    5.82    0.36
  -5  -5   6    6.49    0.38
  -5  -4 -10    0.51    0.12
  -5  -4  -9   13.57    0.75
  -5  -4  -8    4.47    0.42
  -5  -4  -7    0.03    0.15
  -5  -4  -7    0.02    0.03
  -5  -4  -7    0.12    0.09
  -5  -4  -7    0.18    0.17
  -5  -4  -7    0.03    0.16
  -5  -4  -6   19.57    1.03
  -5  -4  -6   18.58    1.12
  -5  -4  -5   29.96    1.49
  -5  -4  -5   30.48    1.53
  -5  -4  -5   27.91    1.39
  -5  -4  -5   27.31    1.38
  -5  -4  -5   23.87    2.10
  -5  -4  -5   27.87    1.49
  -5  -4  -4   27.07    1.43
  -5  -4  -4   28.22    1.48
  -5  -4  -4   25.30    1.36
  -5  -4  -4   27.39    1.39
  -5  -4  -4   23.69    2.16
  -5  -4  -4   27.98    1.47
  -5  -4  -3    0.03    0.15
  -5  -4  -3   -0.04    0.17
  -5  -4  -3   -0.16    0.38
  -5  -4  -3   -0.04    0.19
  -5  -4  -3   -0.07    0.16
  -5  -4  -3    0.07    0.14
  -5  -4  -2   21.88    1.24
  -5  -4  -2   20.29    1.06
  -5  -4  -2   20.92    1.19
  -5  -4  -2   20.82    1.16
  -5  -4  -1    5.74    0.54
  -5  -4  -1    5.45    0.47
  -5  -4  -1    6.08    0.57
  -5  -4   0    1.70    0.38
  -5  -4   0    1.19    0.28
  -5  -4   0    1.24    0.26
  -5  -4   0    1.63    0.26
  -5  -4   0    1.40    0.29
  -5  -4   1    4.20    0.57
  -5  -4   1    3.32    0.35
  -5  -4   1    4.62    0.44
  -5  -4   1    4.19    0.42
  -5  -4   1    3.34    0.41
  -5  -4   2    1.21    0.35
  -5  -4   2    1.11    0.22
  -5  -4   2    0.85    0.21
  -5  -4   2    1.10    0.28
  -5  -4   2    1.23    0.22
  -5  -4   3   43.26    1.87
  -5  -4   3   42.94    1.97
  -5  -4   3   41.13    1.86
  -5  -4   4    1.85    0.30
  -5  -4   4    1.68    0.22
  -5  -4   4    2.02    0.31
  -5  -4   5    0.51    0.18
  -5  -4   6   -0.14    0.17
  -5  -4   6   -0.02    0.11
  -5  -4   6    0.11    0.12
  -5  -4   6    0.04    0.11
  -5  -4   7    0.02    0.08
  -5  -4   7    0.14    0.09
  -5  -4   7    0.03    0.09
  -5  -3 -10   -0.03    0.03
  -5  -3  -9    0.41    0.19
  -5  -3  -9   -0.01    0.01
  -5  -3  -9    0.66    0.18
  -5  -3  -8    1.34    0.28
  -5  -3  -8    1.76    0.22
  -5  -3  -8    1.22    0.25
  -5  -3  -7    1.40    0.30
  -5  -3  -7    1.28    0.22
  -5  -3  -7    0.96    0.18
  -5  -3  -7    1.48    0.28
  -5  -3  -6    0.91    0.28
  -5  -3  -6    0.69    0.17
  -5  -3  -6    1.29    0.26
  -5  -3  -5    0.12    0.20
  -5  -3  -5   -0.03    0.15
  -5  -3  -5    0.12    0.13
  -5  -3  -5    0.08    0.16
  -5  -3  -4    3.30    0.46
  -5  -3  -4    2.45    0.37
  -5  -3  -4    2.39    0.36
  -5  -3  -4    3.17    0.37
  -5  -3  -3    2.36    0.38
  -5  -3  -3    3.54    0.36
  -5  -3  -3    2.74    0.37
  -5  -3  -3    3.95    0.46
  -5  -3  -3    2.47    0.68
  -5  -3  -2    9.87    0.68
  -5  -3  -2    9.43    0.74
  -5  -3  -1   62.48    2.97
  -5  -3  -1   66.85    2.88
  -5  -3  -1   62.44    2.74
  -5  -3  -1   62.81    2.79
  -5  -3  -1   61.62    2.84
  -5  -3   0   16.68    1.18
  -5  -3   0   17.17    1.01
  -5  -3   0   17.21    1.05
  -5  -3   0   15.59    0.96
  -5  -3   0   17.49    1.08
  -5  -3   0   16.77    1.02
  -5  -3   1   67.11    3.23
  -5  -3   1   67.53    3.03
  -5  -3   1   73.52    3.12
  -5  -3   1   67.77    2.99
  -5  -3   1   66.55    3.02
  -5  -3   2    6.62    0.73
  -5  -3   2    7.71    0.61
  -5  -3   2    6.45    0.62
  -5  -3   2    7.31    0.59
  -5  -3   2    8.25    0.65
  -5  -3   3   32.38    1.88
  -5  -3   3   31.90    1.83
  -5  -3   3   36.26    1.70
  -5  -3   3   31.57    1.60
  -5  -3   3   34.19    1.72
  -5  -3   4    2.18    0.44
  -5  -3   4    1.58    0.36
  -5  -3   4    1.82    0.31
  -5  -3   4    2.10    0.33
  -5  -3   4    2.33    0.29
  -5  -3   5    1.88    0.31
  -5  -3   5    1.67    0.28
  -5  -3   5    2.03    0.30
  -5  -3   5    2.08    0.39
  -5  -3   5    1.36    0.36
  -5  -3   6    0.19    0.15
  -5  -3   6    0.14    0.12
  -5  -3   6   -0.05    0.13
  -5  -3   6    0.18    0.22
  -5  -3   6    0.11    0.18
  -5  -3   7    5.54    0.39
  -5  -3   7    7.10    0.47
  -5  -3   7    5.80    0.55
  -5  -3   8   -0.03    0.08
  -5  -2 -10   29.94    0.70
  -5  -2 -10   39.89    0.87
  -5  -2  -9    0.19    0.16
  -5  -2  -9    0.40    0.16
  -5  -2  -9    0.26    0.14
  -5  -2  -9   -0.05    0.09
  -5  -2  -8    6.19    0.54
  -5  -2  -8    6.45    0.51
  -5  -2  -8    5.82    0.46
  -5  -2  -8    4.93    0.44
  -5  -2  -7    6.49    0.54
  -5  -2  -7    5.97    0.51
  -5  -2  -6    3.19    0.47
  -5  -2  -6    4.14    0.44
  -5  -2  -5    1.15    0.24
  -5  -2  -5    0.94    0.24
  -5  -2  -4    2.00    0.30
  -5  -2  -4    1.34    0.22
  -5  -2  -4    1.66    0.29
  -5  -2  -3   17.18    0.99
  -5  -2  -3   17.33    1.03
  -5  -2  -3   19.81    1.10
  -5  -2  -3   18.35    1.08
  -5  -2  -2   19.20    1.13
  -5  -2  -2   15.88    0.99
  -5  -2  -2   17.96    1.05
  -5  -2  -2   17.40    1.03
  -5  -2  -1   27.21    1.45
  -5  -2  -1   27.39    1.43
  -5  -2  -1   26.88    1.46
  -5  -2  -1   27.57    1.50
  -5  -2   0  118.75    4.88
  -5  -2   0  113.46    4.87
  -5  -2   0  121.45    4.91
  -5  -2   0  122.61    4.96
  -5  -2   0  104.05    4.89
  -5  -2   0  121.89    5.01
  -5  -2   1    6.63    0.62
  -5  -2   1    6.37    0.59
  -5  -2   1    6.66    0.60
  -5  -2   1    7.03    0.60
  -5  -2   1    6.05    0.63
  -5  -2   1    6.15    0.67
  -5  -2   1    6.27    0.69
  -5  -2   1    6.31    0.64
  -5  -2   2   51.06    2.29
  -5  -2   2   49.16    2.32
  -5  -2   2   48.77    2.31
  -5  -2   2   47.99    2.48
  -5  -2   2   45.28    2.40
  -5  -2   2   48.60    2.46
  -5  -2   2   49.53    2.35
  -5  -2   3    4.85    0.47
  -5  -2   3    5.11    0.52
  -5  -2   3    4.98    0.53
  -5  -2   3    4.57    0.49
  -5  -2   3    4.02    0.56
  -5  -2   3    4.63    0.60
  -5  -2   3    5.11    0.60
  -5  -2   3    4.78    0.51
  -5  -2   4    0.23    0.22
  -5  -2   4   -0.04    0.18
  -5  -2   4   -0.10    0.16
  -5  -2   4    0.21    0.24
  -5  -2   4    0.05    0.25
  -5  -2   4    0.03    0.16
  -5  -2   4    0.18    0.22
  -5  -2   5    4.83    0.43
  -5  -2   5    5.26    0.48
  -5  -2   5    4.18    0.56
  -5  -2   5    4.31    0.49
  -5  -2   6   17.96    0.95
  -5  -2   6   16.30    0.89
  -5  -2   6   12.54    0.77
  -5  -2   6   14.12    1.02
  -5  -2   6   16.03    1.04
  -5  -2   6   14.29    0.92
  -5  -2   7   -0.10    0.15
  -5  -2   7    0.02    0.11
  -5  -2   7   -0.04    0.17
  -5  -2   7    0.04    0.17
  -5  -2   7    0.18    0.14
  -5  -2   8    1.05    0.15
  -5  -2   8    1.21    0.19
  -5  -1 -10   15.06    0.71
  -5  -1  -9    6.03    0.43
  -5  -1  -9    5.92    0.42
  -5  -1  -9    5.62    0.44
  -5  -1  -8    7.90    0.58
  -5  -1  -8    8.45    0.60
  -5  -1  -8    7.78    0.55
  -5  -1  -7    0.26    0.20
  -5  -1  -7    0.29    0.15
  -5  -1  -7    0.40    0.19
  -5  -1  -7    0.34    0.15
  -5  -1  -6    0.32    0.19
  -5  -1  -6    0.46    0.23
  -5  -1  -6    0.43    0.17
  -5  -1  -5    1.00    0.22
  -5  -1  -4    7.92    0.58
  -5  -1  -4    8.12    0.60
  -5  -1  -3    0.12    0.16
  -5  -1  -2    0.46    0.28
  -5  -1  -2    0.27    0.18
  -5  -1  -2   -0.04    0.18
  -5  -1  -2    0.15    0.18
  -5  -1  -1    8.27    0.76
  -5  -1  -1    8.12    0.66
  -5  -1  -1    7.84    0.67
  -5  -1  -1    7.11    0.63
  -5  -1   0    2.79    0.47
  -5  -1   0    3.49    0.50
  -5  -1   0    3.01    0.40
  -5  -1   0    2.99    0.41
  -5  -1   1   11.86    0.94
  -5  -1   1   10.83    0.90
  -5  -1   1   10.21    0.85
  -5  -1   1   12.24    0.85
  -5  -1   1   12.34    0.82
  -5  -1   2    3.06    0.46
  -5  -1   2    2.65    0.44
  -5  -1   2    3.29    0.41
  -5  -1   2    3.13    0.43
  -5  -1   2    2.65    0.38
  -5  -1   3   23.81    1.38
  -5  -1   3   24.29    1.45
  -5  -1   3   22.84    1.41
  -5  -1   3   22.05    1.23
  -5  -1   3   25.41    1.33
  -5  -1   4   20.63    1.30
  -5  -1   4   20.75    1.22
  -5  -1   4   18.56    1.26
  -5  -1   4   21.43    1.18
  -5  -1   4   19.07    1.06
  -5  -1   4   23.31    1.25
  -5  -1   5    3.53    0.47
  -5  -1   5    3.72    0.42
  -5  -1   5    3.23    0.47
  -5  -1   5    2.06    0.34
  -5  -1   5    2.88    0.40
  -5  -1   5    3.64    0.40
  -5  -1   6   37.46    1.47
  -5  -1   6   36.74    1.61
  -5  -1   6   39.14    1.68
  -5  -1   6   40.95    1.47
  -5  -1   7    1.32    0.26
  -5  -1   7    1.39    0.28
  -5  -1   7    0.82    0.16
  -5  -1   7    1.10    0.21
  -5  -1   8    0.05    0.10
  -5   0  -9    0.25    0.10
  -5   0  -9    0.15    0.10
  -5   0  -8    0.03    0.03
  -5   0  -8   -0.02    0.06
  -5   0  -7    2.33    0.28
  -5   0  -7    2.77    0.31
  -5   0  -6    2.09    0.30
  -5   0  -6    2.14    0.29
  -5   0  -5   18.99    1.10
  -5   0  -5   22.65    1.15
  -5   0  -4    6.20    0.53
  -5   0  -4    6.36    0.54
  -5   0  -3    1.40    0.27
  -5   0  -3    1.28    0.25
  -5   0  -3    1.80    0.29
  -5   0  -2    0.13    0.14
  -5   0  -2    0.04    0.22
  -5   0  -1    1.06    0.27
  -5   0   0    2.84    0.42
  -5   0   1    4.74    0.55
  -5   0   1    4.44    0.52
  -5   0   2    0.72    0.26
  -5   0   2    0.68    0.23
  -5   0   2    0.43    0.18
  -5   0   2    1.27    0.35
  -5   0   2    0.53    0.25
  -5   0   3    0.13    0.17
  -5   0   3    0.28    0.22
  -5   0   3    0.39    0.21
  -5   0   3    0.08    0.23
  -5   0   3    0.44    0.27
  -5   0   4   -0.20    0.18
  -5   0   4   -0.03    0.14
  -5   0   4    0.04    0.18
  -5   0   4   -0.04    0.24
  -5   0   4   -0.04    0.22
  -5   0   5    6.52    0.52
  -5   0   5    5.74    0.54
  -5   0   5    5.48    0.54
  -5   0   6    4.53    0.40
  -5   0   6    3.61    0.41
  -5   0   6    4.09    0.42
  -5   0   7    1.61    0.21
  -5   0   7    1.44    0.26
  -5   0   7    1.74    0.23
  -5   1  -7    0.53    0.12
  -5   1  -7    0.54    0.10
  -5   1  -7    0.63    0.13
  -5   1  -6    4.66    0.34
  -5   1  -6    4.63    0.36
  -5   1  -5    0.35    0.17
  -5   1  -5   -0.02    0.03
  -5   1  -5    0.26    0.13
  -5   1  -4    3.50    0.34
  -5   1  -4    3.67    0.37
  -5   1  -3    0.86    0.18
  -5   1  -3    0.88    0.22
  -5   1  -2    0.60    0.15
  -5   1  -2    0.82    0.21
  -5   1  -1    0.12    0.11
  -5   1  -1    0.06    0.18
  -5   1  -1   -0.02    0.13
  -5   1   0    0.58    0.24
  -5   1   0    0.56    0.21
  -5   1   1    2.52    0.38
  -5   1   1    2.33    0.33
  -5   1   2    1.47    0.27
  -5   1   2    1.93    0.28
  -5   1   3    0.18    0.15
  -5   1   3    0.28    0.16
  -5   1   4    0.14    0.14
  -5   1   4    0.03    0.18
  -5   1   4    0.02    0.12
  -5   1   5    0.59    0.20
  -5   1   5    0.63    0.19
  -5   1   5    0.81    0.16
  -5   1   6    4.35    0.37
  -5   1   6    3.17    0.25
  -5   2  -5    0.57    0.12
  -5   2  -4    0.01    0.09
  -5   2  -3    0.06    0.10
  -5   2  -2    1.52    0.21
  -5   2  -1    2.21    0.24
  -5   2   0    0.17    0.10
  -5   2   1    7.70    0.50
  -5   2   2   -0.11    0.13
  -5   2   3    2.29    0.26
  -5   2   4   -0.05    0.10
  -4  -7  -7    4.10    0.29
  -4  -7  -7    4.72    0.32
  -4  -7  -6    0.14    0.09
  -4  -7  -5    0.15    0.08
  -4  -7  -5   -0.02    0.08
  -4  -7  -4   -0.02    0.10
  -4  -7  -4   -0.02    0.07
  -4  -7  -4   -0.04    0.10
  -4  -7  -3    4.43    0.38
  -4  -7  -2    7.94    0.55
  -4  -7  -2    7.60    0.53
  -4  -7  -1    0.15    0.15
  -4  -7  -1    0.12    0.12
  -4  -7   0    0.73    0.18
  -4  -7   0    0.74    0.16
  -4  -7   0    0.91    0.17
  -4  -7   1   17.35    0.87
  -4  -7   2   17.95    0.89
  -4  -7   2   18.82    0.95
  -4  -7   3    1.26    0.16
  -4  -7   3    1.19    0.17
  -4  -6 -10   28.41    1.26
  -4  -6 -10   29.27    1.27
  -4  -6  -9   19.92    0.99
  -4  -6  -8    6.17    0.43
  -4  -6  -8    6.49    0.42
  -4  -6  -7    6.11    0.51
  -4  -6  -7    5.63    0.44
  -4  -6  -6    9.04    0.62
  -4  -6  -6   12.05    1.39
  -4  -6  -6    9.93    0.68
  -4  -6  -6   11.38    0.73
  -4  -6  -5   15.08    0.90
  -4  -6  -5   14.11    0.86
  -4  -6  -5   13.51    0.88
  -4  -6  -4    4.93    0.99
  -4  -6  -4    6.06    0.56
  -4  -6  -4    6.83    0.56
  -4  -6  -4    6.39    0.56
  -4  -6  -3   16.01    1.67
  -4  -6  -3   17.59    0.88
  -4  -6  -3   19.02    0.82
  -4  -6  -2    4.11    0.94
  -4  -6  -2    4.51    0.49
  -4  -6  -2    4.68    0.44
  -4  -6  -2    3.76    0.38
  -4  -6  -1    1.00    0.53
  -4  -6  -1    1.24    0.27
  -4  -6  -1    1.02    0.18
  -4  -6  -1    1.34    0.25
  -4  -6   0    0.49    0.21
  -4  -6   0    0.33    0.44
  -4  -6   0    0.36    0.14
  -4  -6   0    0.37    0.17
  -4  -6   0    0.27    0.23
  -4  -6   0   -0.02    0.05
  -4  -6   1    3.00    0.45
  -4  -6   1    4.10    0.44
  -4  -6   1    3.53    0.38
  -4  -6   1    4.31    0.44
  -4  -6   1    3.01    0.34
  -4  -6   2    0.70    0.27
  -4  -6   2    1.04    0.26
  -4  -6   2    0.81    0.21
  -4  -6   2    1.17    0.24
  -4  -6   2    0.82    0.21
  -4  -6   3   16.05    1.01
  -4  -6   3   17.33    1.01
  -4  -6   3   16.76    0.94
  -4  -6   3   15.65    0.93
  -4  -6   4    4.83    0.47
  -4  -6   4    4.51    0.46
  -4  -6   4    4.89    0.44
  -4  -6   5   12.00    0.74
  -4  -6   5   14.07    0.79
  -4  -6   5   11.14    0.71
  -4  -6   5   13.24    0.74
  -4  -6   6    6.33    0.42
  -4  -6   6    6.02    0.40
  -4  -5 -11    7.85    0.46
  -4  -5 -11    8.55    0.52
  -4  -5 -10   16.80    0.63
  -4  -5 -10   16.35    0.66
  -4  -5  -9    1.12    0.24
  -4  -5  -9    1.08    0.21
  -4  -5  -9    1.02    0.22
  -4  -5  -8   24.93    1.29
  -4  -5  -8   22.15    1.22
  -4  -5  -8   21.66    1.22
  -4  -5  -7   22.43    2.18
  -4  -5  -7   23.29    1.29
  -4  -5  -6    0.17    0.39
  -4  -5  -6    0.17    0.22
  -4  -5  -6    0.12    0.19
  -4  -5  -5   54.62    2.60
  -4  -5  -5   54.28    2.53
  -4  -5  -5   54.74    2.62
  -4  -5  -4   44.93    2.18
  -4  -5  -4   42.39    1.96
  -4  -5  -4   44.38    2.14
  -4  -5  -3   32.98    1.69
  -4  -5  -3   32.38    1.68
  -4  -5  -3   28.63    1.50
  -4  -5  -2    0.41    0.17
  -4  -5  -2    0.43    0.23
  -4  -5  -2    0.62    0.20
  -4  -5  -2    0.62    0.27
  -4  -5  -1   43.70    2.13
  -4  -5  -1   40.61    2.02
  -4  -5  -1   40.86    2.19
  -4  -5  -1   39.95    2.00
  -4  -5  -1   44.56    2.10
  -4  -5   0   15.10    1.14
  -4  -5   0   15.54    1.09
  -4  -5   0   14.85    0.97
  -4  -5   0   15.95    1.03
  -4  -5   0   13.14    0.94
  -4  -5   0   11.81    1.52
  -4  -5   1    0.27    0.27
  -4  -5   1    0.12    0.27
  -4  -5   1    0.16    0.23
  -4  -5   1    0.43    0.21
  -4  -5   1    0.66    0.44
  -4  -5   2    2.38    0.47
  -4  -5   2    1.97    0.46
  -4  -5   2    2.70    0.39
  -4  -5   2    2.11    0.42
  -4  -5   2    2.46    0.75
  -4  -5   3    5.57    0.61
  -4  -5   3    5.26    1.11
  -4  -5   3    6.26    0.71
  -4  -5   3    5.66    0.68
  -4  -5   4   49.04    2.48
  -4  -5   4   52.46    3.74
  -4  -5   4   55.64    2.66
  -4  -5   4   53.10    2.65
  -4  -5   5    3.82    0.45
  -4  -5   5    3.20    0.84
  -4  -5   5    3.36    0.49
  -4  -5   6    0.03    0.13
  -4  -5   6    0.20    0.18
  -4  -5   7    0.23    0.19
  -4  -5   8    0.42    0.16
  -4  -4 -12   10.23    0.59
  -4  -4 -11    1.86    0.22
  -4  -4 -11    2.04    0.26
  -4  -4 -11    1.74    0.25
  -4  -4 -10   11.37    0.69
  -4  -4 -10    9.56    0.68
  -4  -4 -10    9.62    0.65
  -4  -4 -10    9.43    0.68
  -4  -4  -9   31.94    1.56
  -4  -4  -9   29.88    1.54
  -4  -4  -9   31.08    1.55
  -4  -4  -9   27.83    1.50
  -4  -4  -8    1.53    0.33
  -4  -4  -8    1.53    0.31
  -4  -4  -8    1.28    0.29
  -4  -4  -8    1.66    0.32
  -4  -4  -7    9.06    0.74
  -4  -4  -7    8.42    0.69
  -4  -4  -7   10.98    1.47
  -4  -4  -7   10.74    0.81
  -4  -4  -7    8.61    0.74
  -4  -4  -6    0.40    0.24
  -4  -4  -6    0.14    0.21
  -4  -4  -6    0.06    0.11
  -4  -4  -6   -0.18    0.44
  -4  -4  -5    0.38    0.46
  -4  -4  -5    0.10    0.14
  -4  -4  -5   -0.05    0.21
  -4  -4  -5    0.13    0.21
  -4  -4  -4    0.71    0.25
  -4  -4  -4    0.60    0.27
  -4  -4  -4    0.33    0.21
  -4  -4  -4    0.12    0.20
  -4  -4  -4    0.47    0.20
  -4  -4  -4    0.55    0.20
  -4  -4  -4    0.20    0.44
  -4  -4  -3   13.30    1.48
  -4  -4  -3   15.62    1.03
  -4  -4  -3   15.21    0.95
  -4  -4  -3   15.29    1.02
  -4  -4  -3   13.41    1.02
  -4  -4  -3   12.27    0.92
  -4  -4  -2   22.97    2.07
  -4  -4  -2   24.35    1.43
  -4  -4  -2   25.03    1.36
  -4  -4  -2   24.79    1.38
  -4  -4  -2   25.24    1.50
  -4  -4  -1   21.01    1.31
  -4  -4  -1   23.02    1.41
  -4  -4  -1   21.71    1.29
  -4  -4  -1   23.16    1.37
  -4  -4  -1   23.26    2.00
  -4  -4   0   77.40    3.69
  -4  -4   0   80.58    4.70
  -4  -4   0   87.54    3.67
  -4  -4   0   82.68    3.73
  -4  -4   0   79.75    3.63
  -4  -4   0   83.25    3.66
  -4  -4   0   72.14    4.57
  -4  -4   1   49.86    2.71
  -4  -4   1   49.15    2.58
  -4  -4   1   56.36    2.50
  -4  -4   1   45.87    2.50
  -4  -4   1   53.87    2.50
  -4  -4   1   50.07    3.57
  -4  -4   2  141.78    6.04
  -4  -4   2  141.99    6.18
  -4  -4   2  138.89    6.27
  -4  -4   2  145.43    7.52
  -4  -4   2  150.51    7.30
  -4  -4   3    5.02    0.60
  -4  -4   3    5.30    0.75
  -4  -4   3    5.54    0.72
  -4  -4   3    5.06    1.12
  -4  -4   3    6.84    1.12
  -4  -4   4   47.73    2.47
  -4  -4   4   51.38    2.73
  -4  -4   4   57.45    2.67
  -4  -4   4   51.38    2.81
  -4  -4   4   50.45    3.82
  -4  -4   5    3.83    0.46
  -4  -4   5    3.05    0.56
  -4  -4   5    4.79    0.72
  -4  -4   5    2.40    0.81
  -4  -4   6    2.30    0.49
  -4  -4   6    2.67    0.86
  -4  -4   6    2.47    0.54
  -4  -4   7    0.70    0.49
  -4  -4   7    0.12    0.30
  -4  -4   8   10.91    0.86
  -4  -4   9    1.01    0.20
  -4  -3 -13    7.62    0.48
  -4  -3 -13    7.72    0.44
  -4  -3 -12    0.10    0.14
  -4  -3 -11   11.14    0.76
  -4  -3 -11   10.44    0.68
  -4  -3 -10   14.54    0.87
  -4  -3 -10   17.18    0.98
  -4  -3 -10   15.80    0.95
  -4  -3 -10   15.96    1.02
  -4  -3  -9  105.61    4.40
  -4  -3  -9  105.04    4.56
  -4  -3  -9  101.20    4.41
  -4  -3  -9  111.57    4.50
  -4  -3  -9  103.11    4.51
  -4  -3  -8    0.35    0.20
  -4  -3  -8    0.76    0.31
  -4  -3  -8    0.48    0.18
  -4  -3  -8    0.47    0.22
  -4  -3  -8    0.18    0.15
  -4  -3  -8    0.13    0.18
  -4  -3  -7   17.67    1.09
  -4  -3  -7   19.84    1.20
  -4  -3  -7   15.37    1.73
  -4  -3  -7   18.19    1.02
  -4  -3  -7   22.17    1.30
  -4  -3  -7   19.68    1.18
  -4  -3  -6   23.05    1.35
  -4  -3  -6   24.35    1.26
  -4  -3  -6   18.87    2.01
  -4  -3  -6   21.22    1.35
  -4  -3  -6   22.23    1.34
  -4  -3  -6   19.47    1.19
  -4  -3  -5   38.83    1.97
  -4  -3  -5   32.84    2.98
  -4  -3  -5   37.36    1.83
  -4  -3  -5   36.28    1.94
  -4  -3  -5   32.96    2.80
  -4  -3  -4   11.78    0.83
  -4  -3  -4   11.42    0.90
  -4  -3  -4   13.02    1.33
  -4  -3  -4   13.78    1.81
  -4  -3  -4   11.57    0.89
  -4  -3  -3   10.10    0.68
  -4  -3  -3   10.48    0.78
  -4  -3  -3   11.49    1.31
  -4  -3  -3   10.12    0.81
  -4  -3  -3    9.42    0.80
  -4  -3  -2   15.56    1.64
  -4  -3  -2   17.88    1.13
  -4  -3  -2   18.87    1.25
  -4  -3  -2   16.63    1.07
  -4  -3  -2   16.01    0.98
  -4  -3  -2   17.78    1.14
  -4  -3  -1   74.01    3.18
  -4  -3  -1   73.05    4.18
  -4  -3  -1   68.65    3.16
  -4  -3  -1   68.10    3.12
  -4  -3  -1   68.56    3.32
  -4  -3  -1   64.89    3.07
  -4  -3   0   93.68    4.17
  -4  -3   0   85.34    3.91
  -4  -3   0   94.09    3.94
  -4  -3   0   95.62    5.08
  -4  -3   0   84.50    3.90
  -4  -3   0   90.24    3.97
  -4  -3   0   77.37    4.67
  -4  -3   1  245.54    9.95
  -4  -3   1  234.49    9.82
  -4  -3   1  246.17   10.06
  -4  -3   1  258.58    9.77
  -4  -3   1  230.05    9.73
  -4  -3   1  242.33    9.63
  -4  -3   1  247.06    9.82
  -4  -3   1  237.88    9.74
  -4  -3   2   29.82    1.85
  -4  -3   2   26.28    1.68
  -4  -3   2   27.07    1.65
  -4  -3   2   25.93    1.51
  -4  -3   2   27.34    2.39
  -4  -3   2   26.04    1.56
  -4  -3   2   30.57    3.01
  -4  -3   3  110.90    4.84
  -4  -3   3  103.59    5.77
  -4  -3   3  100.24    4.54
  -4  -3   3  108.63    4.66
  -4  -3   3  114.26    7.18
  -4  -3   3  111.34    6.82
  -4  -3   4    4.07    0.89
  -4  -3   4    4.96    0.98
  -4  -3   4    5.56    1.40
  -4  -3   4    4.72    0.48
  -4  -3   4    5.14    0.69
  -4  -3   4    3.07    0.48
  -4  -3   5    0.46    0.38
  -4  -3   5    0.25    0.30
  -4  -3   5   -0.35    0.40
  -4  -3   5   -0.05    0.20
  -4  -3   5    0.58    0.65
  -4  -3   6    7.91    1.20
  -4  -3   6   11.66    2.00
  -4  -3   6   10.33    2.04
  -4  -3   6    8.48    0.71
  -4  -3   6    9.02    0.87
  -4  -3   6    9.81    1.07
  -4  -3   7   30.12    3.36
  -4  -3   7   29.96    1.70
  -4  -3   7   27.45    1.89
  -4  -3   8   -0.27    0.65
  -4  -3   8    0.62    0.25
  -4  -3   8    0.55    0.40
  -4  -3   9    4.43    0.60
  -4  -3   9    4.16    0.43
  -4  -3   9    4.73    0.42
  -4  -3  10    1.45    0.31
  -4  -3  10    2.45    0.25
  -4  -2 -13    4.46    0.36
  -4  -2 -13    4.39    0.31
  -4  -2 -12    9.05    0.56
  -4  -2 -12   11.03    0.70
  -4  -2 -12    9.67    0.59
  -4  -2 -11   78.64    3.23
  -4  -2 -11   72.50    3.30
  -4  -2 -11   74.16    3.19
  -4  -2 -10   60.25    2.75
  -4  -2 -10   57.25    2.55
  -4  -2 -10   63.07    2.73
  -4  -2 -10   59.98    2.80
  -4  -2  -9   96.61    4.06
  -4  -2  -9   99.95    4.29
  -4  -2  -9   95.05    4.25
  -4  -2  -8   10.67    0.75
  -4  -2  -8   10.30    0.86
  -4  -2  -8   10.05    0.85
  -4  -2  -8   10.26    0.74
  -4  -2  -8    9.35    0.71
  -4  -2  -8   10.46    0.81
  -4  -2  -7   17.77    1.17
  -4  -2  -7   16.58    0.94
  -4  -2  -7   16.40    1.06
  -4  -2  -7   16.56    1.01
  -4  -2  -7   18.62    1.15
  -4  -2  -6   -0.05    0.22
  -4  -2  -6    0.23    0.17
  -4  -2  -6   -0.06    0.12
  -4  -2  -6    0.04    0.17
  -4  -2  -6    0.04    0.17
  -4  -2  -5    9.60    0.78
  -4  -2  -5    8.29    0.74
  -4  -2  -5    8.94    1.38
  -4  -2  -5    9.53    0.77
  -4  -2  -5    8.06    1.14
  -4  -2  -5   10.14    0.76
  -4  -2  -5    9.09    0.63
  -4  -2  -5    9.22    0.67
  -4  -2  -4    2.50    0.41
  -4  -2  -4    3.05    0.61
  -4  -2  -4    1.88    0.34
  -4  -2  -4    2.73    0.40
  -4  -2  -4    2.28    0.31
  -4  -2  -4    2.12    0.32
  -4  -2  -4    2.21    0.62
  -4  -2  -4    1.99    0.75
  -4  -2  -3   28.18    2.14
  -4  -2  -3   28.32    1.53
  -4  -2  -3   26.83    1.50
  -4  -2  -3   27.72    1.43
  -4  -2  -3   29.12    1.43
  -4  -2  -2    0.24    0.22
  -4  -2  -2    0.35    0.27
  -4  -2  -2    0.43    0.24
  -4  -2  -2    0.12    0.21
  -4  -2  -2    0.28    0.21
  -4  -2  -2    0.19    0.16
  -4  -2  -2    0.53    0.20
  -4  -2  -1    8.22    0.77
  -4  -2  -1    7.87    0.78
  -4  -2  -1    6.54    0.66
  -4  -2  -1    7.92    0.74
  -4  -2  -1    9.14    0.73
  -4  -2  -1    6.84    1.07
  -4  -2  -1    8.25    0.68
  -4  -2  -1    7.90    0.64
  -4  -2  -1    7.94    0.67
  -4  -2  -1    8.15    0.63
  -4  -2   0   22.18    1.40
  -4  -2   0   23.27    1.45
  -4  -2   0   21.52    1.36
  -4  -2   0   23.79    1.33
  -4  -2   0   18.80    1.89
  -4  -2   0   19.84    1.20
  -4  -2   0   19.42    1.22
  -4  -2   1    5.80    0.59
  -4  -2   1    6.25    0.63
  -4  -2   1    7.58    0.74
  -4  -2   1    5.85    0.59
  -4  -2   1    8.00    0.84
  -4  -2   1    5.20    0.67
  -4  -2   2   34.38    2.05
  -4  -2   2   36.62    2.71
  -4  -2   2   32.35    3.13
  -4  -2   2   32.52    1.76
  -4  -2   2   31.81    1.66
  -4  -2   2   30.71    2.88
  -4  -2   2   34.05    3.46
  -4  -2   2   31.73    1.75
  -4  -2   2   35.42    1.91
  -4  -2   3    3.56    0.69
  -4  -2   3    2.99    0.74
  -4  -2   3    3.32    1.12
  -4  -2   3    3.26    0.41
  -4  -2   3    4.04    0.51
  -4  -2   3    4.66    1.37
  -4  -2   3    3.32    1.00
  -4  -2   3    4.53    0.62
  -4  -2   3    3.52    0.49
  -4  -2   4   95.55    4.33
  -4  -2   4   96.10    4.54
  -4  -2   4   96.61    5.25
  -4  -2   4   86.40    5.00
  -4  -2   4   81.07    5.95
  -4  -2   4   94.92    3.91
  -4  -2   4   89.77    4.03
  -4  -2   4   84.76    3.96
  -4  -2   4   93.29    4.19
  -4  -2   4  105.70    6.88
  -4  -2   4   84.83    5.86
  -4  -2   5   70.69    4.34
  -4  -2   5   67.68    4.21
  -4  -2   5   80.30    5.93
  -4  -2   5   59.12    4.86
  -4  -2   5   69.62    3.17
  -4  -2   5   66.01    3.26
  -4  -2   5   72.16    3.68
  -4  -2   5   66.67    3.40
  -4  -2   6    0.09    0.42
  -4  -2   6    0.07    0.34
  -4  -2   6    0.17    0.41
  -4  -2   6    0.28    0.56
  -4  -2   6   -0.04    0.20
  -4  -2   6    0.81    0.66
  -4  -2   6    1.02    1.02
  -4  -2   6    0.16    0.26
  -4  -2   7   90.84    4.05
  -4  -2   7   78.02    4.94
  -4  -2   7   86.77    6.40
  -4  -2   7   80.59    3.78
  -4  -2   7   91.36    6.00
  -4  -2   7   85.51    3.69
  -4  -2   8    3.09    1.20
  -4  -2   8    2.75    0.34
  -4  -2   8    2.33    0.46
  -4  -2   8    2.89    0.40
  -4  -2   9    0.94    0.31
  -4  -2  10    0.10    0.17
  -4  -2  10    0.59    0.34
  -4  -2  11    0.52    0.13
  -4  -1 -13    1.15    0.18
  -4  -1 -12    0.39    0.13
  -4  -1 -12    0.34    0.14
  -4  -1 -12    0.78    0.21
  -4  -1 -11    0.25    0.19
  -4  -1 -11    0.51    0.17
  -4  -1 -11    0.78    0.21
  -4  -1 -11    0.75    0.17
  -4  -1 -10    8.21    0.71
  -4  -1 -10    6.89    0.54
  -4  -1 -10    7.60    0.56
  -4  -1 -10    6.35    0.57
  -4  -1  -9    6.56    0.56
  -4  -1  -9    6.15    0.52
  -4  -1  -9    8.32    0.74
  -4  -1  -9    5.93    0.51
  -4  -1  -9    7.31    0.63
  -4  -1  -9    6.64    0.63
  -4  -1  -8    1.37    0.29
  -4  -1  -8    1.08    0.33
  -4  -1  -8    0.84    0.33
  -4  -1  -8    1.78    0.34
  -4  -1  -7    2.41    0.38
  -4  -1  -7    1.63    0.36
  -4  -1  -7    2.24    0.43
  -4  -1  -7    2.28    0.38
  -4  -1  -7    2.53    0.45
  -4  -1  -6   11.34    0.88
  -4  -1  -6   12.73    0.97
  -4  -1  -6   13.44    0.92
  -4  -1  -6   12.06    0.78
  -4  -1  -5    0.06    0.13
  -4  -1  -5    0.16    0.16
  -4  -1  -5   -0.05    0.23
  -4  -1  -5    0.33    0.24
  -4  -1  -5    0.33    0.22
  -4  -1  -5    0.16    0.32
  -4  -1  -4  100.27    4.26
  -4  -1  -4  102.90    4.28
  -4  -1  -4  101.73    4.29
  -4  -1  -4  107.65    4.46
  -4  -1  -4   96.12    4.31
  -4  -1  -4   95.51    5.60
  -4  -1  -4  106.17    4.39
  -4  -1  -3   23.17    1.33
  -4  -1  -3   21.75    2.19
  -4  -1  -3   23.87    1.35
  -4  -1  -3   24.41    1.33
  -4  -1  -3   26.51    1.42
  -4  -1  -3   24.52    1.33
  -4  -1  -3   26.80    1.37
  -4  -1  -2   16.13    1.10
  -4  -1  -2   16.47    1.03
  -4  -1  -2   17.12    1.05
  -4  -1  -2   18.07    1.10
  -4  -1  -2   16.97    1.03
  -4  -1  -2   17.97    1.06
  -4  -1  -2   17.23    1.17
  -4  -1  -2   18.89    1.19
  -4  -1  -1   -0.08    0.19
  -4  -1  -1    0.05    0.23
  -4  -1  -1    0.04    0.18
  -4  -1  -1   -0.04    0.17
  -4  -1  -1    0.07    0.14
  -4  -1  -1   -0.04    0.15
  -4  -1  -1    0.10    0.26
  -4  -1  -1    0.05    0.25
  -4  -1   0    1.63    0.37
  -4  -1   0    1.07    0.34
  -4  -1   0    1.17    0.30
  -4  -1   0    1.79    0.33
  -4  -1   0    1.69    0.30
  -4  -1   0    1.23    0.36
  -4  -1   0    1.54    0.39
  -4  -1   1   23.97    1.52
  -4  -1   1   24.34    1.54
  -4  -1   1   24.82    1.48
  -4  -1   1   25.54    1.39
  -4  -1   1   23.18    1.34
  -4  -1   1   22.66    1.30
  -4  -1   1   28.22    2.65
  -4  -1   2   28.07    1.68
  -4  -1   2   29.64    1.67
  -4  -1   2   26.53    1.70
  -4  -1   2   27.61    1.67
  -4  -1   2   26.19    1.57
  -4  -1   2   25.70    1.45
  -4  -1   2   27.31    1.43
  -4  -1   2   27.40    1.47
  -4  -1   2   26.69    2.76
  -4  -1   3    3.86    0.66
  -4  -1   3    4.78    0.66
  -4  -1   3    3.84    0.59
  -4  -1   3    3.42    0.83
  -4  -1   3    4.62    0.66
  -4  -1   3    4.48    0.59
  -4  -1   3    3.81    0.47
  -4  -1   3    4.02    0.45
  -4  -1   3    4.14    0.49
  -4  -1   3    3.61    1.19
  -4  -1   3    4.35    1.17
  -4  -1   4    1.16    0.39
  -4  -1   4    1.33    0.58
  -4  -1   4    1.08    0.36
  -4  -1   4    1.21    0.41
  -4  -1   4    1.60    0.31
  -4  -1   4    1.34    0.29
  -4  -1   4    2.00    1.03
  -4  -1   4    1.81    0.82
  -4  -1   5    0.88    0.35
  -4  -1   5    0.55    0.51
  -4  -1   5    0.48    0.27
  -4  -1   5    0.32    0.29
  -4  -1   5    0.71    0.23
  -4  -1   5    0.44    0.49
  -4  -1   5   -0.31    0.75
  -4  -1   5    0.27    0.47
  -4  -1   6   17.45    1.26
  -4  -1   6   19.84    2.19
  -4  -1   6   16.96    1.21
  -4  -1   6   20.41    1.39
  -4  -1   6   18.01    1.08
  -4  -1   6   22.69    1.21
  -4  -1   6   16.07    2.16
  -4  -1   6   23.47    3.01
  -4  -1   6   18.48    2.48
  -4  -1   7    1.53    0.39
  -4  -1   7    2.71    0.83
  -4  -1   7    0.94    0.89
  -4  -1   7    2.87    0.43
  -4  -1   7    2.98    0.52
  -4  -1   7    2.71    1.02
  -4  -1   7    2.01    0.33
  -4  -1   8    4.79    1.44
  -4  -1   8    3.82    0.50
  -4  -1   8    3.87    0.55
  -4  -1   8    4.39    0.47
  -4  -1   8    4.38    0.44
  -4  -1   9   19.84    2.56
  -4  -1   9   16.03    0.90
  -4  -1   9   18.52    1.24
  -4  -1   9   17.22    1.11
  -4  -1  10   -0.03    0.14
  -4  -1  10   -0.13    0.22
  -4  -1  10    0.12    0.28
  -4  -1  10    0.03    0.14
  -4  -1  11    1.28    0.17
  -4   0 -12    0.05    0.10
  -4   0 -11    0.03    0.16
  -4   0 -10    0.78    0.21
  -4   0 -10    0.64    0.16
  -4   0 -10    0.53    0.15
  -4   0 -10    0.85    0.28
  -4   0 -10    0.98    0.25
  -4   0  -9    2.61    0.35
  -4   0  -9    2.15    0.31
  -4   0  -9    2.40    0.33
  -4   0  -9    2.79    0.45
  -4   0  -8    4.56    0.49
  -4   0  -8    3.62    0.49
  -4   0  -8    4.83    0.58
  -4   0  -8    4.46    0.48
  -4   0  -7    0.09    0.24
  -4   0  -7    0.25    0.21
  -4   0  -7    0.04    0.17
  -4   0  -7    0.32    0.28
  -4   0  -6    4.23    0.54
  -4   0  -6    5.32    0.54
  -4   0  -6    4.70    0.52
  -4   0  -6    5.25    0.63
  -4   0  -5   32.90    1.83
  -4   0  -5   35.43    1.79
  -4   0  -5   37.13    1.97
  -4   0  -4    0.37    0.19
  -4   0  -4    0.18    0.17
  -4   0  -4    0.39    0.24
  -4   0  -4    0.36    0.27
  -4   0  -4    0.61    0.30
  -4   0  -3   24.43    1.44
  -4   0  -3   27.33    1.46
  -4   0  -3   24.65    1.39
  -4   0  -3   23.22    1.33
  -4   0  -3   27.52    1.54
  -4   0  -3   24.43    1.42
  -4   0  -3   27.35    1.56
  -4   0  -2    2.10    0.41
  -4   0  -2    1.82    0.35
  -4   0  -2    2.51    0.38
  -4   0  -2    1.72    0.32
  -4   0  -2    2.46    0.37
  -4   0  -2    2.71    0.41
  -4   0  -2    2.20    0.43
  -4   0  -2    2.50    0.42
  -4   0  -2    1.58    0.33
  -4   0  -1   12.80    0.90
  -4   0  -1   14.22    1.02
  -4   0  -1   11.83    0.89
  -4   0  -1   14.05    0.92
  -4   0  -1   14.91    0.97
  -4   0   0    0.31    0.24
  -4   0   0    0.23    0.18
  -4   0   0    0.11    0.17
  -4   0   0    0.44    0.23
  -4   0   0    0.37    0.21
  -4   0   0    0.26    0.24
  -4   0   1    8.96    0.85
  -4   0   1    8.86    0.82
  -4   0   1    7.37    1.28
  -4   0   1   10.68    0.76
  -4   0   1    8.49    0.70
  -4   0   1   11.25    0.79
  -4   0   1    9.57    0.80
  -4   0   1    9.43    0.79
  -4   0   1   11.79    0.94
  -4   0   1    8.98    0.86
  -4   0   2    3.19    0.52
  -4   0   2    2.93    0.88
  -4   0   2    3.56    0.48
  -4   0   2    3.70    0.43
  -4   0   2    3.30    0.44
  -4   0   2    3.90    0.49
  -4   0   2    3.69    0.59
  -4   0   2    2.85    0.53
  -4   0   2    3.56    0.49
  -4   0   3    5.40    0.51
  -4   0   3    6.47    0.60
  -4   0   3    5.64    0.61
  -4   0   3    5.63    0.61
  -4   0   3    6.72    0.75
  -4   0   3    7.42    0.76
  -4   0   3    5.85    1.25
  -4   0   3    5.28    0.66
  -4   0   4    0.90    0.29
  -4   0   4    0.83    0.24
  -4   0   4    0.66    0.35
  -4   0   4    0.88    0.29
  -4   0   4    1.14    0.72
  -4   0   4    1.41    0.75
  -4   0   4    0.90    0.39
  -4   0   4    1.59    0.44
  -4   0   5    4.00    0.51
  -4   0   5    4.01    0.45
  -4   0   5    2.74    0.42
  -4   0   5    3.93    0.61
  -4   0   5    3.82    0.60
  -4   0   5    3.57    1.12
  -4   0   5    3.24    1.04
  -4   0   5    4.88    0.66
  -4   0   6    5.18    0.51
  -4   0   6    5.27    0.57
  -4   0   6    6.25    0.72
  -4   0   6    5.38    1.41
  -4   0   6    5.59    1.33
  -4   0   6    5.44    0.69
  -4   0   7   18.14    2.48
  -4   0   7   22.52    1.40
  -4   0   7   21.59    1.41
  -4   0   7   24.22    1.30
  -4   0   7   19.89    1.14
  -4   0   8    0.99    0.75
  -4   0   8    1.22    0.36
  -4   0   8    1.41    0.39
  -4   0   8    1.60    0.36
  -4   0   8    1.70    0.30
  -4   0   9    1.25    0.31
  -4   0   9    1.98    0.35
  -4   0   9    1.92    0.40
  -4   0   9    1.72    0.27
  -4   0  10   32.52    1.66
  -4   0  10   26.97    1.62
  -4   0  10   29.01    1.33
  -4   0  10   29.50    1.54
  -4   1 -11    0.39    0.12
  -4   1 -10    1.37    0.23
  -4   1 -10    1.24    0.20
  -4   1  -9    2.46    0.37
  -4   1  -9    2.20    0.32
  -4   1  -9    1.95    0.29
  -4   1  -8    1.79    0.36
  -4   1  -8    2.48    0.35
  -4   1  -8    3.05    0.47
  -4   1  -7    5.71    0.61
  -4   1  -7    6.08    0.66
  -4   1  -7    5.39    0.53
  -4   1  -7    5.56    0.48
  -4   1  -6    1.19    0.28
  -4   1  -6    1.10    0.34
  -4   1  -6    1.35    0.37
  -4   1  -5    1.49    0.30
  -4   1  -5    1.44    0.37
  -4   1  -5    1.77    0.41
  -4   1  -4    9.15    0.81
  -4   1  -4   10.80    0.93
  -4   1  -4   10.34    0.79
  -4   1  -4   10.53    0.78
  -4   1  -3   -0.04    0.24
  -4   1  -3    0.09    0.16
  -4   1  -3    0.12    0.19
  -4   1  -3    0.15    0.17
  -4   1  -3   -0.18    0.25
  -4   1  -2    0.31    0.26
  -4   1  -2    1.07    0.28
  -4   1  -2    1.20    0.34
  -4   1  -2    0.94    0.25
  -4   1  -1   15.12    1.04
  -4   1  -1   14.59    1.00
  -4   1  -1   15.66    1.11
  -4   1  -1   14.03    1.00
  -4   1   0   15.72    1.04
  -4   1   0   13.25    1.02
  -4   1   0   12.68    1.06
  -4   1   0   17.16    1.10
  -4   1   0   16.97    1.06
  -4   1   1    2.97    0.48
  -4   1   1    3.69    0.55
  -4   1   1    2.75    0.49
  -4   1   1    3.13    0.45
  -4   1   1    3.15    0.47
  -4   1   1    3.47    0.45
  -4   1   1    3.81    0.49
  -4   1   2   65.06    3.10
  -4   1   2   74.58    3.20
  -4   1   2   73.38    3.15
  -4   1   2   72.12    3.24
  -4   1   2   70.99    3.30
  -4   1   2   70.29    3.26
  -4   1   2   61.59    3.11
  -4   1   2   68.69    3.27
  -4   1   3    0.69    0.28
  -4   1   3    0.73    0.23
  -4   1   3    0.47    0.25
  -4   1   3    1.29    0.39
  -4   1   3    0.67    0.31
  -4   1   3    0.51    0.28
  -4   1   4    4.06    0.50
  -4   1   4    3.80    0.43
  -4   1   4    3.24    0.45
  -4   1   4    4.23    0.62
  -4   1   4    3.63    0.59
  -4   1   4    4.25    0.57
  -4   1   4    4.41    0.61
  -4   1   5    0.10    0.24
  -4   1   5    0.37    0.35
  -4   1   5    0.72    0.39
  -4   1   5    0.24    0.21
  -4   1   5    0.41    0.18
  -4   1   6    0.52    0.26
  -4   1   6    0.91    0.39
  -4   1   6    0.95    0.25
  -4   1   6    1.01    0.22
  -4   1   7    1.40    0.27
  -4   1   7    1.05    0.28
  -4   1   7    1.23    0.36
  -4   1   7    1.26    0.38
  -4   1   8   15.26    0.86
  -4   1   8   15.50    1.05
  -4   1   8   15.85    1.10
  -4   1   8   16.91    1.10
  -4   1   9    0.73    0.28
  -4   1   9    0.76    0.26
  -4   1   9    0.83    0.25
  -4   1  10    4.41    0.43
  -4   1  10    2.88    0.32
  -4   2  -9    3.62    0.28
  -4   2  -9    3.12    0.30
  -4   2  -8    1.63    0.22
  -4   2  -7    0.73    0.19
  -4   2  -7    0.69    0.19
  -4   2  -7    0.66    0.26
  -4   2  -6    0.08    0.13
  -4   2  -6    0.13    0.13
  -4   2  -6   -0.11    0.23
  -4   2  -5   -0.03    0.12
  -4   2  -5   -0.16    0.22
  -4   2  -5    0.03    0.12
  -4   2  -5    0.15    0.15
  -4   2  -4    0.08    0.26
  -4   2  -4    0.12    0.15
  -4   2  -4   -0.11    0.15
  -4   2  -3    3.17    0.39
  -4   2  -3    4.90    0.50
  -4   2  -3    4.30    0.53
  -4   2  -2    0.37    0.22
  -4   2  -2    0.65    0.20
  -4   2  -2    0.22    0.21
  -4   2  -2    0.48    0.27
  -4   2  -1    1.15    0.31
  -4   2  -1    1.58    0.32
  -4   2  -1    1.72    0.37
  -4   2   0    7.13    0.68
  -4   2   0    6.30    0.59
  -4   2   0    6.00    0.63
  -4   2   0    6.42    0.65
  -4   2   1    3.98    0.54
  -4   2   1    4.45    0.58
  -4   2   1    3.88    0.44
  -4   2   1    3.62    0.45
  -4   2   1    3.82    0.50
  -4   2   1    3.75    0.50
  -4   2   2    0.36    0.21
  -4   2   2    0.20    0.26
  -4   2   2    0.54    0.29
  -4   2   2    0.70    0.23
  -4   2   2    0.13    0.17
  -4   2   2    0.43    0.23
  -4   2   3    1.14    0.29
  -4   2   3    1.17    0.36
  -4   2   3    1.58    0.39
  -4   2   3    1.33    0.29
  -4   2   3    0.97    0.25
  -4   2   3    0.95    0.30
  -4   2   4    1.82    0.37
  -4   2   4    1.60    0.41
  -4   2   4    2.16    0.42
  -4   2   4    2.17    0.34
  -4   2   4    1.60    0.37
  -4   2   4    1.73    0.28
  -4   2   5    3.85    0.52
  -4   2   5    5.02    0.58
  -4   2   5    4.87    0.57
  -4   2   5    4.00    0.40
  -4   2   6    3.38    0.47
  -4   2   6    3.81    0.47
  -4   2   6    3.10    0.46
  -4   2   6    2.37    0.28
  -4   2   7   42.89    2.15
  -4   2   7   45.42    2.18
  -4   2   7   43.48    2.06
  -4   2   7   45.85    2.19
  -4   2   8    0.43    0.19
  -4   2   8    0.44    0.22
  -4   2   8    0.49    0.23
  -4   2   8    0.34    0.16
  -4   2   9    7.47    0.53
  -4   2   9    7.61    0.54
  -4   3  -7    0.34    0.13
  -4   3  -7    0.56    0.12
  -4   3  -6    0.13    0.12
  -4   3  -5    0.11    0.16
  -4   3  -4   20.88    1.09
  -4   3  -4   24.08    1.21
  -4   3  -3    0.11    0.13
  -4   3  -3    0.03    0.19
  -4   3  -2    6.58    0.55
  -4   3  -2    6.54    0.59
  -4   3  -1    0.21    0.22
  -4   3   0    0.11    0.17
  -4   3   0   -0.02    0.06
  -4   3   0    0.04    0.20
  -4   3   1    0.18    0.17
  -4   3   1   -0.03    0.15
  -4   3   1    0.21    0.21
  -4   3   2    0.27    0.17
  -4   3   2   -0.06    0.16
  -4   3   2    0.34    0.22
  -4   3   3    0.68    0.20
  -4   3   3    0.70    0.22
  -4   3   3    1.02    0.26
  -4   3   4    0.13    0.13
  -4   3   4    0.51    0.19
  -4   3   4    0.59    0.24
  -4   3   4    0.52    0.22
  -4   3   5   16.29    0.90
  -4   3   5   16.93    0.98
  -4   3   5   18.13    1.02
  -4   3   6    8.84    0.62
  -4   3   6    9.50    0.64
  -4   3   7   23.94    1.15
  -4   4  -2    3.72    0.30
  -4   4  -1    0.25    0.12
  -4   4  -1    0.30    0.11
  -4   4   0    0.35    0.14
  -4   4   1   -0.05    0.11
  -4   4   1   -0.02    0.08
  -4   4   2   -0.02    0.10
  -4   4   2    0.02    0.08
  -3  -8  -3   -0.01    0.05
  -3  -8  -2    0.79    0.12
  -3  -7  -9   24.52    1.10
  -3  -7  -8   14.94    0.79
  -3  -7  -7    9.63    0.49
  -3  -7  -7   -0.01    0.01
  -3  -7  -6    5.43    0.41
  -3  -7  -6    5.72    0.46
  -3  -7  -6    5.89    0.47
  -3  -7  -5    2.42    0.29
  -3  -7  -5    2.72    0.34
  -3  -7  -5    2.34    0.29
  -3  -7  -4    8.99    0.50
  -3  -7  -4    8.07    0.51
  -3  -7  -4   -0.02    0.04
  -3  -7  -4   -0.02    0.06
  -3  -7  -3    2.78    0.30
  -3  -7  -3    2.66    0.31
  -3  -7  -3    3.49    0.35
  -3  -7  -2   10.94    0.73
  -3  -7  -2   11.10    0.74
  -3  -7  -2   11.19    0.75
  -3  -7  -2   10.19    0.69
  -3  -7  -1    3.56    0.40
  -3  -7  -1    3.03    0.38
  -3  -7  -1    3.33    0.38
  -3  -7  -1    3.33    0.37
  -3  -7   0    1.05    0.26
  -3  -7   0    0.81    0.20
  -3  -7   0    0.65    0.20
  -3  -7   0    0.79    0.23
  -3  -7   1   -0.03    0.11
  -3  -7   1    0.09    0.16
  -3  -7   1    0.03    0.15
  -3  -7   2    0.20    0.12
  -3  -7   2    0.06    0.16
  -3  -7   2    0.13    0.16
  -3  -7   3    0.18    0.15
  -3  -7   3    0.33    0.17
  -3  -7   3    0.01    0.02
  -3  -7   3    0.11    0.08
  -3  -7   4    5.03    0.41
  -3  -7   4    5.57    0.43
  -3  -7   5    2.52    0.25
  -3  -7   5    2.72    0.26
  -3  -7   5    3.15    0.30
  -3  -6 -11   19.36    0.92
  -3  -6 -10   21.52    1.09
  -3  -6  -9    6.95    0.51
  -3  -6  -8    0.83    0.22
  -3  -6  -8    1.13    0.26
  -3  -6  -7   11.99    0.63
  -3  -6  -7   12.04    0.72
  -3  -6  -7   12.72    0.77
  -3  -6  -6   32.13    1.63
  -3  -6  -6   32.25    1.72
  -3  -6  -6   33.86    1.63
  -3  -6  -5    2.07    0.33
  -3  -6  -5    1.38    0.27
  -3  -6  -5    1.35    0.31
  -3  -6  -5    1.52    0.66
  -3  -6  -4   49.01    3.55
  -3  -6  -4   50.52    2.35
  -3  -6  -4   51.64    2.43
  -3  -6  -4   50.88    2.43
  -3  -6  -4   51.64    2.42
  -3  -6  -4   48.26    2.28
  -3  -6  -3   36.28    1.88
  -3  -6  -3   35.00    1.80
  -3  -6  -3   36.70    1.81
  -3  -6  -3   33.29    1.73
  -3  -6  -3   35.13    2.90
  -3  -6  -2   33.83    1.83
  -3  -6  -2   33.53    1.75
  -3  -6  -2   32.77    1.71
  -3  -6  -2   34.82    1.73
  -3  -6  -2   29.71    2.71
  -3  -6  -1    0.56    0.18
  -3  -6  -1    0.88    0.31
  -3  -6  -1    1.06    0.53
  -3  -6  -1    0.86    0.27
  -3  -6  -1    0.92    0.31
  -3  -6   0   35.46    1.82
  -3  -6   0   30.46    1.59
  -3  -6   0   32.95    1.65
  -3  -6   0   35.58    1.91
  -3  -6   0   34.34    1.79
  -3  -6   0   33.12    2.82
  -3  -6   0   35.29    1.80
  -3  -6   1   14.57    0.94
  -3  -6   1   15.91    0.98
  -3  -6   1   17.15    1.12
  -3  -6   1   17.36    1.08
  -3  -6   1   15.22    1.07
  -3  -6   2    0.77    0.24
  -3  -6   2    0.72    0.23
  -3  -6   2    0.65    0.23
  -3  -6   3    0.99    0.26
  -3  -6   3    1.00    0.25
  -3  -6   3    1.21    0.26
  -3  -6   4    9.17    1.35
  -3  -6   4   10.27    0.74
  -3  -6   4    9.81    0.73
  -3  -6   4    9.51    0.69
  -3  -6   5   27.97    1.43
  -3  -6   5   27.09    1.42
  -3  -6   5   26.01    2.29
  -3  -6   6    2.80    0.34
  -3  -6   6    2.84    0.34
  -3  -6   7    0.47    0.19
  -3  -6   8    0.67    0.17
  -3  -6   8    0.78    0.15
  -3  -5 -13    1.75    0.19
  -3  -5 -12    0.39    0.14
  -3  -5 -12   -0.01    0.03
  -3  -5 -11   22.70    1.20
  -3  -5 -11   22.83    1.16
  -3  -5 -10    8.60    0.63
  -3  -5 -10    7.00    0.62
  -3  -5  -9   10.16    0.76
  -3  -5  -9    8.92    0.66
  -3  -5  -9   10.49    0.66
  -3  -5  -8   32.69    1.80
  -3  -5  -8   36.47    1.75
  -3  -5  -8   34.77    1.71
  -3  -5  -7    8.18    0.67
  -3  -5  -7    7.26    1.34
  -3  -5  -7    7.80    0.61
  -3  -5  -6   13.50    0.94
  -3  -5  -6   14.08    0.99
  -3  -5  -6   12.73    0.88
  -3  -5  -6   12.91    1.81
  -3  -5  -5   -0.20    0.52
  -3  -5  -5    0.19    0.16
  -3  -5  -5    0.12    0.17
  -3  -5  -5    0.14    0.21
  -3  -5  -5    0.13    0.16
  -3  -5  -4   -0.20    0.40
  -3  -5  -4    0.11    0.17
  -3  -5  -4    0.05    0.19
  -3  -5  -4    0.47    0.22
  -3  -5  -4    0.32    0.20
  -3  -5  -3    0.04    0.18
  -3  -5  -3    0.09    0.21
  -3  -5  -3    0.31    0.24
  -3  -5  -3    0.17    0.16
  -3  -5  -3    0.81    0.61
  -3  -5  -2   18.87    1.19
  -3  -5  -2   18.99    1.09
  -3  -5  -2   20.78    1.24
  -3  -5  -2   19.22    1.16
  -3  -5  -2   19.42    1.29
  -3  -5  -1   46.89    2.18
  -3  -5  -1   50.60    2.35
  -3  -5  -1   46.17    2.44
  -3  -5  -1   54.24    3.59
  -3  -5  -1   41.16    3.35
  -3  -5   0   29.04    1.74
  -3  -5   0   32.33    2.76
  -3  -5   1   57.56    4.06
  -3  -5   1   58.81    2.83
  -3  -5   1   53.91    2.66
  -3  -5   2   56.84    4.12
  -3  -5   2   51.87    2.76
  -3  -5   2   58.34    2.91
  -3  -5   2   56.72    2.66
  -3  -5   3  166.65    8.61
  -3  -5   3  159.78    6.93
  -3  -5   3  154.84    6.77
  -3  -5   3  163.01    6.63
  -3  -5   4    0.45    0.31
  -3  -5   4    0.12    0.17
  -3  -5   4    0.14    0.31
  -3  -5   5   38.52    2.15
  -3  -5   5   35.39    1.96
  -3  -5   5   32.12    3.04
  -3  -5   6    2.07    0.38
  -3  -5   6    2.21    0.78
  -3  -5   6    1.81    0.46
  -3  -5   7    5.27    0.64
  -3  -5   7    5.49    1.12
  -3  -5   8    0.05    0.22
  -3  -5   9    5.66    0.43
  -3  -4 -14    1.19    0.18
  -3  -4 -13    7.71    0.49
  -3  -4 -13    7.20    0.55
  -3  -4 -12    8.08    0.53
  -3  -4 -12    7.03    0.47
  -3  -4 -12    8.06    0.57
  -3  -4 -11    0.02    0.03
  -3  -4 -11    0.23    0.20
  -3  -4 -11    0.20    0.14
  -3  -4 -11    0.10    0.16
  -3  -4 -11    0.04    0.22
  -3  -4 -10    5.49    0.48
  -3  -4 -10    4.57    0.54
  -3  -4 -10    5.11    0.50
  -3  -4  -9   50.90    2.28
  -3  -4  -9   45.17    2.29
  -3  -4  -8  177.20    7.33
  -3  -4  -8  193.44    7.48
  -3  -4  -8  182.90    7.52
  -3  -4  -7    3.44    0.88
  -3  -4  -7    3.39    0.50
  -3  -4  -7    4.55    1.10
  -3  -4  -7    3.30    0.47
  -3  -4  -7    4.34    0.49
  -3  -4  -7    3.93    0.42
  -3  -4  -6   30.74    2.66
  -3  -4  -6   33.06    1.75
  -3  -4  -6   32.38    1.72
  -3  -4  -6   31.40    1.62
  -3  -4  -5   35.64    1.86
  -3  -4  -5   32.37    2.74
  -3  -4  -5   34.24    1.84
  -3  -4  -5   35.23    1.80
  -3  -4  -5   36.33    1.77
  -3  -4  -4   87.60    3.84
  -3  -4  -4   79.81    4.92
  -3  -4  -4   90.45    3.82
  -3  -4  -4   84.24    3.71
  -3  -4  -4   84.47    3.72
  -3  -4  -3   38.53    1.97
  -3  -4  -3   38.93    1.88
  -3  -4  -3   41.00    2.01
  -3  -4  -3   40.63    1.92
  -3  -4  -3   41.63    2.08
  -3  -4  -2   25.34    1.40
  -3  -4  -2   25.74    1.54
  -3  -4  -2   23.64    2.10
  -3  -4  -1    3.40    0.50
  -3  -4  -1    2.65    0.73
  -3  -4  -1    3.34    0.44
  -3  -4  -1    3.06    0.52
  -3  -4  -1    3.87    0.46
  -3  -4   0  120.69    6.25
  -3  -4   0  118.55    4.90
  -3  -4   0  115.37    5.12
  -3  -4   0  114.64    5.07
  -3  -4   0  114.74    4.92
  -3  -4   1  161.74    6.82
  -3  -4   1  158.81    6.84
  -3  -4   1  159.22    6.59
  -3  -4   1  167.34    8.16
  -3  -4   2  214.75    8.95
  -3  -4   2  219.41    8.96
  -3  -4   2  212.04    8.63
  -3  -4   2  213.77   10.36
  -3  -4   3   50.95    2.79
  -3  -4   3   54.41    2.62
  -3  -4   3   51.76    2.49
  -3  -4   3   52.15    3.90
  -3  -4   4  168.78    7.13
  -3  -4   4  160.36    6.78
  -3  -4   4  161.83    6.67
  -3  -4   5    5.13    1.46
  -3  -4   5    7.00    0.85
  -3  -4   5    5.38    0.59
  -3  -4   6    0.66    0.66
  -3  -4   6   -0.30    0.68
  -3  -4   6   -0.23    0.36
  -3  -4   7    4.33    1.34
  -3  -4   7    6.86    1.65
  -3  -4   7    7.08    0.86
  -3  -4   7    6.15    0.79
  -3  -4   8   25.19    2.64
  -3  -4   8   26.90    1.72
  -3  -4   8   27.81    1.78
  -3  -4   9    0.62    0.29
  -3  -4   9    0.68    0.31
  -3  -4   9    0.76    0.50
  -3  -4  10    4.15    0.53
  -3  -3 -14    5.28    0.42
  -3  -3 -14    6.35    0.47
  -3  -3 -13    6.55    0.54
  -3  -3 -13    6.27    0.56
  -3  -3 -12    3.34    0.41
  -3  -3 -12    3.41    0.44
  -3  -3 -12    3.65    0.47
  -3  -3 -11   34.88    1.65
  -3  -3 -11   33.71    1.75
  -3  -3 -11   34.37    1.78
  -3  -3 -11   31.37    1.56
  -3  -3 -11   32.09    1.79
  -3  -3 -10  201.51    8.24
  -3  -3 -10  215.82    8.17
  -3  -3 -10  203.27    8.32
  -3  -3 -10  195.50    8.23
  -3  -3 -10  196.60    8.07
  -3  -3  -9  112.36    4.75
  -3  -3  -9  112.38    4.68
  -3  -3  -9  113.61    4.79
  -3  -3  -9  106.46    4.72
  -3  -3  -9  106.10    4.63
  -3  -3  -8  296.92   12.77
  -3  -3  -8  278.70   11.10
  -3  -3  -8  275.53   10.99
  -3  -3  -8  265.16   11.00
  -3  -3  -8  284.98   11.02
  -3  -3  -7   16.95    1.07
  -3  -3  -7   15.87    1.06
  -3  -3  -7   18.08    1.95
  -3  -3  -7   16.91    1.11
  -3  -3  -7   17.84    1.93
  -3  -3  -6   25.35    1.42
  -3  -3  -6   24.13    1.41
  -3  -3  -6   23.42    1.26
  -3  -3  -6   25.93    1.31
  -3  -3  -6   27.81    2.43
  -3  -3  -6   25.65    1.43
  -3  -3  -6   26.67    2.35
  -3  -3  -5    0.58    0.22
  -3  -3  -5    0.80    0.62
  -3  -3  -5    0.54    0.19
  -3  -3  -5    0.42    0.15
  -3  -3  -5    0.33    0.43
  -3  -3  -5    0.35    0.21
  -3  -3  -4   52.61    2.36
  -3  -3  -4   49.68    2.30
  -3  -3  -4   53.52    2.44
  -3  -3  -3    9.03    0.77
  -3  -3  -3    8.88    0.68
  -3  -3  -3    8.65    0.71
  -3  -3  -3    9.14    0.67
  -3  -3  -2   54.68    2.48
  -3  -3  -2   54.50    2.45
  -3  -3  -2   53.33    2.50
  -3  -3  -2   46.40    3.04
  -3  -3  -1   12.80    0.89
  -3  -3  -1   12.29    0.89
  -3  -3  -1   11.51    0.80
  -3  -3  -1   11.94    0.86
  -3  -3  -1   11.26    1.29
  -3  -3   0   51.72    2.82
  -3  -3   0   57.53    2.55
  -3  -3   0   54.90    2.51
  -3  -3   0   54.79    2.63
  -3  -3   0   55.99    2.65
  -3  -3   1   49.12    2.84
  -3  -3   1   51.15    2.38
  -3  -3   1   51.62    2.37
  -3  -3   1   60.39    4.09
  -3  -3   1   46.53    3.91
  -3  -3   1   52.26    2.50
  -3  -3   1   51.18    2.63
  -3  -3   2   33.36    2.30
  -3  -3   2   32.38    1.65
  -3  -3   2   30.58    1.66
  -3  -3   2   34.37    3.10
  -3  -3   2   31.20    3.15
  -3  -3   2   35.13    2.00
  -3  -3   2   36.25    1.84
  -3  -3   3   41.69    2.36
  -3  -3   3   42.08    2.15
  -3  -3   3   39.15    1.95
  -3  -3   3   39.82    1.98
  -3  -3   3   41.37    3.50
  -3  -3   3   45.11    3.76
  -3  -3   3   41.05    3.89
  -3  -3   4   -0.30    0.90
  -3  -3   4    0.27    0.59
  -3  -3   4    0.04    0.14
  -3  -3   4    0.08    0.42
  -3  -3   4    0.05    0.26
  -3  -3   4   -0.47    0.57
  -3  -3   5  149.61    8.79
  -3  -3   5  159.86    9.34
  -3  -3   5  144.47    7.42
  -3  -3   5  156.90    7.42
  -3  -3   5  149.23    6.35
  -3  -3   5  133.18    8.15
  -3  -3   6  105.74    7.50
  -3  -3   6  111.64    6.10
  -3  -3   6  119.96    6.01
  -3  -3   6  105.36    4.85
  -3  -3   6  115.07    6.90
  -3  -3   7   -0.36    0.80
  -3  -3   7    0.37    0.41
  -3  -3   7    0.62    0.29
  -3  -3   7    0.77    0.68
  -3  -3   8  110.13    4.77
  -3  -3   8  103.92    6.64
  -3  -3   8  100.03    7.19
  -3  -3   8  114.77    7.78
  -3  -3   9    2.92    1.17
  -3  -3   9    1.61    0.54
  -3  -3  10    3.63    1.19
  -3  -3  10    3.28    0.61
  -3  -3  11   -0.05    0.24
  -3  -2 -15    0.74    0.12
  -3  -2 -14   -0.02    0.14
  -3  -2 -13    2.16    0.36
  -3  -2 -13    2.10    0.35
  -3  -2 -12    2.82    0.32
  -3  -2 -12    2.69    0.45
  -3  -2 -12    2.40    0.42
  -3  -2 -11    0.05    0.23
  -3  -2 -11    0.18    0.15
  -3  -2 -11   -0.05    0.22
  -3  -2 -11    0.07    0.17
  -3  -2 -11    0.13    0.19
  -3  -2 -10    2.37    0.44
  -3  -2 -10    2.92    0.40
  -3  -2 -10    1.86    0.36
  -3  -2 -10    2.15    0.41
  -3  -2 -10    2.36    0.45
  -3  -2  -9   14.25    1.05
  -3  -2  -9   13.39    0.85
  -3  -2  -9   12.46    0.92
  -3  -2  -9   12.96    0.93
  -3  -2  -9   13.15    0.82
  -3  -2  -9   13.55    0.99
  -3  -2  -9   12.89    1.01
  -3  -2  -8   25.02    1.52
  -3  -2  -8   23.69    1.37
  -3  -2  -8   28.05    1.48
  -3  -2  -8   27.48    1.50
  -3  -2  -8   27.19    1.37
  -3  -2  -8   26.44    1.56
  -3  -2  -8   26.88    1.54
  -3  -2  -7    3.22    0.45
  -3  -2  -7    2.79    0.36
  -3  -2  -7    2.16    0.35
  -3  -2  -7    2.24    0.36
  -3  -2  -7    2.01    0.41
  -3  -2  -7    1.69    0.57
  -3  -2  -6   28.31    1.50
  -3  -2  -6   25.14    1.42
  -3  -2  -6   25.19    1.39
  -3  -2  -6   26.12    1.35
  -3  -2  -6   27.17    2.19
  -3  -2  -6   25.87    1.46
  -3  -2  -6   25.97    1.38
  -3  -2  -5   46.88    3.05
  -3  -2  -5   45.01    2.18
  -3  -2  -5   46.95    2.11
  -3  -2  -5   45.72    2.16
  -3  -2  -5   44.93    2.48
  -3  -2  -4   39.48    1.93
  -3  -2  -4   44.24    2.40
  -3  -2  -4   39.72    1.95
  -3  -2  -3  310.77   12.95
  -3  -2  -3  318.51   12.45
  -3  -2  -2   73.01    3.31
  -3  -2  -2   70.13    3.12
  -3  -2  -2   75.27    3.28
  -3  -2  -2   77.30    3.82
  -3  -2  -2   78.20    3.27
  -3  -2  -1  141.59    5.87
  -3  -2  -1  142.95    5.91
  -3  -2  -1  143.33    6.00
  -3  -2  -1  144.85    5.83
  -3  -2   0    1.97    0.66
  -3  -2   0    1.46    0.73
  -3  -2   0    1.54    0.40
  -3  -2   0    1.66    0.32
  -3  -2   0    1.66    0.41
  -3  -2   1    1.42    0.81
  -3  -2   1    0.46    0.46
  -3  -2   1    0.99    0.36
  -3  -2   1    0.57    0.23
  -3  -2   1    0.93    0.35
  -3  -2   2   57.13    4.34
  -3  -2   2   53.24    3.78
  -3  -2   2   55.47    2.54
  -3  -2   2   56.66    2.68
  -3  -2   2   53.60    2.58
  -3  -2   2   56.62    3.23
  -3  -2   2   60.74    3.35
  -3  -2   3   70.76    3.79
  -3  -2   3   67.69    3.84
  -3  -2   3   61.75    2.90
  -3  -2   3   67.07    4.41
  -3  -2   3   64.30    2.98
  -3  -2   3   68.00    4.50
  -3  -2   4   21.14    1.82
  -3  -2   4   21.48    1.97
  -3  -2   4   18.34    1.15
  -3  -2   4   19.99    2.37
  -3  -2   4   19.61    1.24
  -3  -2   4   18.22    2.27
  -3  -2   5    3.09    0.71
  -3  -2   5    3.64    0.86
  -3  -2   5    2.78    0.43
  -3  -2   5    3.35    1.13
  -3  -2   5    2.50    0.45
  -3  -2   5    3.65    1.09
  -3  -2   6    3.56    0.78
  -3  -2   6    5.82    1.13
  -3  -2   6    4.75    0.54
  -3  -2   6    1.85    0.93
  -3  -2   6    2.94    1.54
  -3  -2   6    4.43    0.59
  -3  -2   6    3.39    1.12
  -3  -2   7   24.54    3.00
  -3  -2   7   29.86    3.56
  -3  -2   7   24.07    2.92
  -3  -2   7   29.18    1.66
  -3  -2   7   30.46    2.77
  -3  -2   8    0.36    0.88
  -3  -2   8    0.30    0.60
  -3  -2   8    0.28    0.48
  -3  -2   8    0.20    0.35
  -3  -2   9    7.14    1.80
  -3  -2   9    6.46    1.47
  -3  -2  10   49.38    4.59
  -3  -2  10   45.40    2.36
  -3  -2  11    0.30    0.73
  -3  -2  12    1.21    0.38
  -3  -1 -14   35.33    0.86
  -3  -1 -14   34.91    0.94
  -3  -1 -13   11.34    0.70
  -3  -1 -13   11.25    0.73
  -3  -1 -12   10.06    0.83
  -3  -1 -12    9.12    0.70
  -3  -1 -11    2.46    0.31
  -3  -1 -11    3.63    0.51
  -3  -1 -11    2.99    0.41
  -3  -1 -11    1.74    0.42
  -3  -1 -10    1.07    0.37
  -3  -1 -10    1.37    0.31
  -3  -1 -10    1.45    0.28
  -3  -1 -10    1.48    0.38
  -3  -1 -10    1.29    0.32
  -3  -1  -9    0.46    0.33
  -3  -1  -9    0.60    0.25
  -3  -1  -9    0.60    0.19
  -3  -1  -9    0.46    0.23
  -3  -1  -9    0.42    0.20
  -3  -1  -9    0.72    0.31
  -3  -1  -9    0.59    0.26
  -3  -1  -8   26.11    2.30
  -3  -1  -8   22.02    1.31
  -3  -1  -8   23.33    1.48
  -3  -1  -8   23.83    1.30
  -3  -1  -8   23.19    1.46
  -3  -1  -8   25.63    1.44
  -3  -1  -7   17.37    1.83
  -3  -1  -7   17.20    1.18
  -3  -1  -7   16.12    0.99
  -3  -1  -7   17.77    1.10
  -3  -1  -7   17.21    1.06
  -3  -1  -7   17.02    1.11
  -3  -1  -7   18.35    1.19
  -3  -1  -7   19.18    1.17
  -3  -1  -6    1.22    0.26
  -3  -1  -6    0.97    0.24
  -3  -1  -6    1.63    0.34
  -3  -1  -6    1.29    0.25
  -3  -1  -6    1.05    0.30
  -3  -1  -6    1.39    0.30
  -3  -1  -6    1.69    0.60
  -3  -1  -5   15.98    1.63
  -3  -1  -5   13.85    0.90
  -3  -1  -5   13.37    0.95
  -3  -1  -5   14.39    0.88
  -3  -1  -5   12.57    1.25
  -3  -1  -5   14.97    0.88
  -3  -1  -5   12.92    0.88
  -3  -1  -5   13.93    0.95
  -3  -1  -4  187.61    8.27
  -3  -1  -4  190.17    8.00
  -3  -1  -4  182.22    8.65
  -3  -1  -3   47.71    2.24
  -3  -1  -3   46.65    2.16
  -3  -1  -3   49.93    2.69
  -3  -1  -2  113.25    4.68
  -3  -1  -2  111.84    4.65
  -3  -1  -2  109.92    4.65
  -3  -1  -2  111.73    5.23
  -3  -1  -1    0.69    0.23
  -3  -1  -1    0.43    0.29
  -3  -1  -1    0.19    0.18
  -3  -1  -1    0.57    0.24
  -3  -1   0   58.32    3.36
  -3  -1   0   57.49    3.85
  -3  -1   0   60.03    2.79
  -3  -1   0   60.64    2.71
  -3  -1   0   56.61    2.64
  -3  -1   0   55.15    3.64
  -3  -1   0   58.06    3.09
  -3  -1   0   64.87    3.34
  -3  -1   1    0.28    0.28
  -3  -1   1    0.25    0.25
  -3  -1   1    0.15    0.20
  -3  -1   1    0.08    0.18
  -3  -1   1   -0.15    0.37
  -3  -1   1    0.34    0.38
  -3  -1   1    0.36    0.48
  -3  -1   2   30.77    3.04
  -3  -1   2   37.08    2.74
  -3  -1   2   39.18    1.93
  -3  -1   2   41.46    3.11
  -3  -1   2   35.60    2.51
  -3  -1   2   38.53    2.49
  -3  -1   2   42.04    2.51
  -3  -1   3    4.07    0.89
  -3  -1   3    4.10    1.13
  -3  -1   3    3.80    0.50
  -3  -1   3    3.72    0.96
  -3  -1   3    2.97    0.66
  -3  -1   3    3.03    0.71
  -3  -1   3    4.07    0.83
  -3  -1   4   23.65    1.43
  -3  -1   4   24.09    2.50
  -3  -1   4   23.65    2.14
  -3  -1   4   27.75    2.03
  -3  -1   5    3.64    0.53
  -3  -1   5    3.26    0.99
  -3  -1   5    4.19    0.96
  -3  -1   5    3.52    0.73
  -3  -1   6   21.91    1.42
  -3  -1   6   22.87    2.49
  -3  -1   6   23.57    2.01
  -3  -1   6   21.64    2.24
  -3  -1   7   17.36    1.21
  -3  -1   7   15.68    2.13
  -3  -1   8   56.59    2.81
  -3  -1   8   56.69    4.31
  -3  -1   8   56.88    4.67
  -3  -1   8   58.78    4.13
  -3  -1   9    6.22    1.45
  -3  -1   9    5.14    0.61
  -3  -1   9    5.70    1.44
  -3  -1   9    5.26    1.22
  -3  -1   9    5.12    1.17
  -3  -1  10   10.15    1.82
  -3  -1  11   39.87    4.16
  -3  -1  12    0.21    0.19
  -3   0 -14    9.16    0.54
  -3   0 -14   10.37    0.55
  -3   0 -14    9.27    0.52
  -3   0 -13    2.43    0.29
  -3   0 -13    2.53    0.30
  -3   0 -13    1.62    0.28
  -3   0 -12    3.56    0.40
  -3   0 -12    3.62    0.46
  -3   0 -12    3.95    0.43
  -3   0 -11   24.07    1.30
  -3   0 -11   24.75    1.36
  -3   0 -11   23.80    1.31
  -3   0 -10    0.90    0.24
  -3   0 -10    0.63    0.21
  -3   0 -10    0.42    0.24
  -3   0 -10    1.00    0.26
  -3   0  -9   11.50    0.83
  -3   0  -9   13.49    0.98
  -3   0  -9   11.10    0.83
  -3   0  -9   12.01    0.97
  -3   0  -9   11.15    0.86
  -3   0  -8    1.63    0.35
  -3   0  -8    2.03    0.34
  -3   0  -8    1.64    0.40
  -3   0  -8    2.04    0.36
  -3   0  -8    1.78    0.58
  -3   0  -8    1.83    0.40
  -3   0  -7    4.26    0.48
  -3   0  -7    3.13    0.42
  -3   0  -7    3.09    0.45
  -3   0  -7    3.31    0.78
  -3   0  -7    3.97    0.56
  -3   0  -7    3.38    0.50
  -3   0  -6   32.89    1.68
  -3   0  -6   32.46    1.73
  -3   0  -6   29.54    2.36
  -3   0  -6   32.57    1.78
  -3   0  -5    5.26    0.49
  -3   0  -5    3.49    0.39
  -3   0  -5    4.80    0.41
  -3   0  -5    5.03    0.53
  -3   0  -5    4.81    0.57
  -3   0  -5    4.66    0.44
  -3   0  -5    4.81    0.84
  -3   0  -4   29.89    1.47
  -3   0  -4   27.33    1.41
  -3   0  -4   28.63    1.46
  -3   0  -4   27.57    1.37
  -3   0  -4   26.40    1.42
  -3   0  -4   24.51    2.04
  -3   0  -4   32.89    1.57
  -3   0  -4   29.68    1.57
  -3   0  -4   26.33    1.46
  -3   0  -4   28.65    1.49
  -3   0  -3   89.95    4.81
  -3   0  -3   95.48    4.02
  -3   0  -3   92.01    4.01
  -3   0  -3  100.43    4.07
  -3   0  -3   95.42    4.08
  -3   0  -3   95.94    4.00
  -3   0  -2    0.75    0.20
  -3   0  -2    0.38    0.24
  -3   0  -2    0.54    0.23
  -3   0  -2    0.49    0.17
  -3   0  -1   24.24    1.34
  -3   0  -1   24.07    1.34
  -3   0  -1   21.78    1.86
  -3   0  -1   23.58    1.28
  -3   0  -1   24.17    1.32
  -3   0   0   49.66    3.25
  -3   0   0   52.67    2.42
  -3   0   0   51.92    2.35
  -3   0   0   51.72    2.44
  -3   0   0   45.43    3.17
  -3   0   1   73.17    4.30
  -3   0   1   64.71    4.26
  -3   0   1   73.11    3.14
  -3   0   2    8.09    1.35
  -3   0   2    9.27    0.67
  -3   0   2    9.72    1.26
  -3   0   2   10.46    1.44
  -3   0   2   10.09    0.78
  -3   0   2    9.76    0.71
  -3   0   3  352.80   13.68
  -3   0   3  357.50   13.88
  -3   0   3  347.35   15.00
  -3   0   3  360.04   15.79
  -3   0   3  336.73   13.55
  -3   0   3  359.10   13.78
  -3   0   3  352.49   13.76
  -3   0   4    2.68    0.36
  -3   0   4    3.94    0.55
  -3   0   4    2.69    0.79
  -3   0   4    3.39    0.49
  -3   0   4    3.64    0.37
  -3   0   4    3.07    0.47
  -3   0   4    3.90    1.05
  -3   0   5    2.17    0.73
  -3   0   5    1.11    0.70
  -3   0   5    0.62    0.31
  -3   0   5    0.95    0.32
  -3   0   5    1.23    0.37
  -3   0   6    4.33    0.56
  -3   0   6    2.95    0.90
  -3   0   6    4.07    1.18
  -3   0   6    4.07    0.52
  -3   0   7   17.19    2.11
  -3   0   7   16.94    2.30
  -3   0   7   16.44    1.12
  -3   0   8    2.35    0.41
  -3   0   8    1.83    0.87
  -3   0   8    1.74    0.44
  -3   0   8    2.11    0.82
  -3   0   9   45.45    4.03
  -3   0   9   44.14    2.40
  -3   0  10    2.72    0.99
  -3   0  10    1.94    0.44
  -3   0  11   21.51    1.34
  -3   0  12    5.75    0.57
  -3   1 -13    1.88    0.22
  -3   1 -12   -0.03    0.15
  -3   1 -11    3.03    0.38
  -3   1 -11    3.20    0.39
  -3   1 -11    3.33    0.46
  -3   1 -11    3.35    0.42
  -3   1 -10   15.92    0.99
  -3   1 -10   16.69    1.05
  -3   1 -10   14.31    0.95
  -3   1 -10   17.20    1.13
  -3   1 -10   16.22    1.06
  -3   1  -9   10.89    0.81
  -3   1  -9   11.64    0.89
  -3   1  -9   10.72    0.78
  -3   1  -8   31.05    1.61
  -3   1  -7   10.65    0.83
  -3   1  -7   13.13    1.00
  -3   1  -7   14.58    0.94
  -3   1  -7   12.40    1.03
  -3   1  -7   14.29    0.88
  -3   1  -6   -0.04    0.18
  -3   1  -6    0.05    0.27
  -3   1  -6    0.14    0.24
  -3   1  -6    0.13    0.13
  -3   1  -6    0.19    0.16
  -3   1  -6   -0.05    0.25
  -3   1  -5    1.80    0.32
  -3   1  -5    2.28    0.35
  -3   1  -5    2.23    0.41
  -3   1  -5    1.90    0.38
  -3   1  -5    1.66    0.28
  -3   1  -5    1.94    0.42
  -3   1  -4    5.12    0.51
  -3   1  -4    6.00    0.54
  -3   1  -4    5.19    0.60
  -3   1  -4    5.39    0.58
  -3   1  -4    4.76    0.54
  -3   1  -4    5.38    0.51
  -3   1  -4    6.19    0.55
  -3   1  -4    5.31    0.55
  -3   1  -3    0.04    0.13
  -3   1  -3   -0.10    0.22
  -3   1  -3   -0.03    0.16
  -3   1  -3    0.21    0.21
  -3   1  -3    0.03    0.11
  -3   1  -3   -0.04    0.19
  -3   1  -3    0.04    0.20
  -3   1  -2   41.31    2.01
  -3   1  -2   43.09    2.12
  -3   1  -2   41.11    1.98
  -3   1  -2   37.39    1.99
  -3   1  -2   37.93    1.91
  -3   1  -2   40.19    2.00
  -3   1  -1    3.03    0.42
  -3   1  -1    3.13    0.48
  -3   1  -1    2.20    0.39
  -3   1  -1    3.00    0.45
  -3   1  -1    2.87    0.40
  -3   1  -1    3.15    0.39
  -3   1  -1    2.59    0.33
  -3   1  -1    2.85    0.37
  -3   1   0   21.47    1.33
  -3   1   0   23.87    1.43
  -3   1   0   22.63    1.39
  -3   1   0   24.34    1.36
  -3   1   0   21.59    1.20
  -3   1   0   24.54    1.29
  -3   1   0   24.08    1.26
  -3   1   1   30.24    1.69
  -3   1   1   31.17    1.58
  -3   1   1   32.17    1.57
  -3   1   1   31.38    1.63
  -3   1   1   32.07    1.74
  -3   1   2   13.77    0.96
  -3   1   2   14.79    1.04
  -3   1   2   14.36    1.03
  -3   1   2   14.82    0.94
  -3   1   2   14.09    0.90
  -3   1   2   14.23    0.95
  -3   1   2   14.98    1.09
  -3   1   2   15.27    1.92
  -3   1   3    1.51    0.30
  -3   1   3    1.41    0.40
  -3   1   3    1.22    0.31
  -3   1   3    0.70    0.39
  -3   1   3    1.15    0.40
  -3   1   3    1.41    0.30
  -3   1   3    1.15    0.25
  -3   1   3    1.63    0.40
  -3   1   3    1.63    0.79
  -3   1   4    1.44    0.30
  -3   1   4    2.12    0.38
  -3   1   4    1.52    0.60
  -3   1   4    1.63    0.42
  -3   1   4    2.15    0.34
  -3   1   4    2.73    0.35
  -3   1   4    1.80    0.45
  -3   1   4    2.89    0.94
  -3   1   5   20.03    1.26
  -3   1   5   16.48    1.87
  -3   1   5   16.52    2.19
  -3   1   5   20.81    1.35
  -3   1   5   23.61    1.25
  -3   1   5   18.75    1.10
  -3   1   5   22.86    1.45
  -3   1   5   17.99    1.16
  -3   1   6   22.16    1.33
  -3   1   6   24.37    1.52
  -3   1   6   25.24    2.71
  -3   1   6   29.07    2.52
  -3   1   6   24.53    1.57
  -3   1   7   34.13    3.10
  -3   1   7   23.89    2.45
  -3   1   7   26.97    3.05
  -3   1   7   32.27    2.67
  -3   1   7   25.89    1.42
  -3   1   7   25.33    1.60
  -3   1   7   27.06    1.68
  -3   1   8   76.01    5.10
  -3   1   8   83.66    3.83
  -3   1   8   90.66    3.93
  -3   1   8   86.51    5.87
  -3   1   8   80.44    3.57
  -3   1   9   -0.05    0.25
  -3   1   9   -0.26    0.58
  -3   1   9    0.26    0.34
  -3   1   9   -0.15    0.25
  -3   1  10   31.49    3.15
  -3   1  10   29.92    1.65
  -3   1  10   30.97    1.82
  -3   1  11    0.58    0.30
  -3   1  12    4.31    0.45
  -3   2 -12    0.42    0.12
  -3   2 -12    0.82    0.15
  -3   2 -11    1.40    0.24
  -3   2 -11    1.48    0.23
  -3   2 -10    9.22    0.69
  -3   2 -10    8.45    0.65
  -3   2 -10    8.07    0.64
  -3   2  -9    0.30    0.19
  -3   2  -9    0.26    0.23
  -3   2  -9    0.58    0.25
  -3   2  -9    0.24    0.25
  -3   2  -8    0.78    0.31
  -3   2  -8    1.33    0.30
  -3   2  -8    0.85    0.31
  -3   2  -8    0.75    0.25
  -3   2  -7   10.22    0.86
  -3   2  -7    9.82    0.84
  -3   2  -7    9.71    0.80
  -3   2  -7   12.56    0.96
  -3   2  -7   10.26    0.78
  -3   2  -6    7.89    0.61
  -3   2  -6    8.31    0.68
  -3   2  -6    7.92    0.76
  -3   2  -5    3.27    0.68
  -3   2  -5    3.19    0.41
  -3   2  -5    3.01    0.47
  -3   2  -5    3.54    0.53
  -3   2  -5    2.99    0.39
  -3   2  -4    1.81    0.33
  -3   2  -4    1.03    0.36
  -3   2  -4    1.56    0.36
  -3   2  -4    1.20    0.41
  -3   2  -4    2.46    0.36
  -3   2  -3  100.86    4.21
  -3   2  -3   89.44    4.06
  -3   2  -3  100.38    4.28
  -3   2  -3   90.22    4.01
  -3   2  -3   92.94    3.99
  -3   2  -3   92.95    4.02
  -3   2  -2    2.89    0.41
  -3   2  -2    2.31    0.46
  -3   2  -2    2.90    0.41
  -3   2  -2    2.78    0.36
  -3   2  -2    2.35    0.62
  -3   2  -2    2.25    0.40
  -3   2  -1   25.03    2.12
  -3   2  -1   26.87    1.40
  -3   2  -1   27.96    1.48
  -3   2  -1   28.46    1.58
  -3   2   0    0.19    0.20
  -3   2   0    0.27    0.30
  -3   2   0    0.33    0.25
  -3   2   0   -0.05    0.27
  -3   2   0    0.04    0.18
  -3   2   1    0.04    0.18
  -3   2   1    0.28    0.31
  -3   2   1    0.05    0.23
  -3   2   1    0.16    0.29
  -3   2   1   -0.27    0.31
  -3   2   2    0.51    0.23
  -3   2   2    0.44    0.38
  -3   2   2    0.65    0.31
  -3   2   2    0.85    0.33
  -3   2   2    0.80    0.36
  -3   2   3    9.50    0.74
  -3   2   3    9.65    0.89
  -3   2   3    7.15    1.42
  -3   2   3    7.33    0.76
  -3   2   3    8.75    0.83
  -3   2   4    4.61    0.51
  -3   2   4    3.81    0.87
  -3   2   4    4.70    0.69
  -3   2   4    4.93    0.56
  -3   2   4    4.00    0.65
  -3   2   4    3.45    1.07
  -3   2   4    5.26    0.63
  -3   2   4    4.49    0.63
  -3   2   5    5.24    0.92
  -3   2   5    4.39    0.48
  -3   2   5    4.41    0.96
  -3   2   5    4.63    0.68
  -3   2   5    4.61    0.54
  -3   2   5    4.73    0.67
  -3   2   5    3.49    1.10
  -3   2   5    4.51    0.61
  -3   2   5    4.14    0.66
  -3   2   6   45.61    2.24
  -3   2   6   50.56    3.55
  -3   2   6   48.85    2.56
  -3   2   6   57.83    2.77
  -3   2   6   49.07    2.51
  -3   2   6   49.26    4.19
  -3   2   7   27.54    1.66
  -3   2   7   29.46    1.77
  -3   2   7   24.23    1.53
  -3   2   7   21.05    2.70
  -3   2   8  148.71    6.32
  -3   2   8  166.02    6.51
  -3   2   8  138.87    6.16
  -3   2   8  148.81    8.49
  -3   2   9   70.99    3.22
  -3   2   9   67.15    3.26
  -3   2   9   64.73    3.13
  -3   2  10    7.38    0.66
  -3   2  10    7.06    0.71
  -3   2  10    5.91    0.60
  -3   2  11    0.95    0.28
  -3   2  11    0.82    0.22
  -3   2  12    2.03    0.28
  -3   3 -10    0.17    0.11
  -3   3 -10    0.08    0.07
  -3   3  -9    0.03    0.12
  -3   3  -9   -0.10    0.10
  -3   3  -8    1.43    0.23
  -3   3  -8    1.24    0.27
  -3   3  -8    1.41    0.28
  -3   3  -7    0.65    0.27
  -3   3  -7    0.47    0.16
  -3   3  -7    0.84    0.27
  -3   3  -7    0.61    0.22
  -3   3  -6    0.10    0.11
  -3   3  -6    0.04    0.22
  -3   3  -6    0.06    0.15
  -3   3  -6    0.04    0.23
  -3   3  -5   38.59    1.96
  -3   3  -5   40.66    2.01
  -3   3  -5   35.26    1.80
  -3   3  -5   37.23    1.82
  -3   3  -4    9.42    0.72
  -3   3  -4    8.24    0.75
  -3   3  -4    8.46    0.66
  -3   3  -3  192.92    7.89
  -3   3  -3  194.00    7.73
  -3   3  -2   15.75    1.09
  -3   3  -2   19.01    1.24
  -3   3  -2   19.70    1.89
  -3   3  -1   27.43    1.52
  -3   3  -1   32.02    1.73
  -3   3  -1   28.77    1.56
  -3   3  -1   31.01    2.49
  -3   3  -1   28.42    2.34
  -3   3   0    7.71    1.20
  -3   3   0    6.81    0.74
  -3   3   0    7.51    0.67
  -3   3   1    2.61    0.37
  -3   3   1    2.28    0.64
  -3   3   1    2.45    0.71
  -3   3   1    2.33    0.42
  -3   3   1    3.28    0.52
  -3   3   2    1.63    0.33
  -3   3   2    1.77    0.32
  -3   3   2    2.53    0.75
  -3   3   2    2.22    0.62
  -3   3   2    1.63    0.39
  -3   3   3    2.19    0.39
  -3   3   3    1.34    0.27
  -3   3   3    1.49    0.56
  -3   3   3    1.28    0.60
  -3   3   4    0.15    0.14
  -3   3   4    0.12    0.35
  -3   3   4    0.09    0.18
  -3   3   4    0.11    0.29
  -3   3   4   -0.15    0.24
  -3   3   5    7.84    0.86
  -3   3   5    7.08    0.67
  -3   3   5    5.84    0.72
  -3   3   5    8.54    0.80
  -3   3   5    7.96    0.79
  -3   3   6    1.44    0.28
  -3   3   6    1.26    0.47
  -3   3   6    1.72    0.75
  -3   3   6    0.90    0.34
  -3   3   6    1.40    0.39
  -3   3   7   23.10    1.41
  -3   3   7   15.63    1.15
  -3   3   7   20.39    1.31
  -3   3   7   18.96    2.27
  -3   3   7   16.80    1.22
  -3   3   8    3.06    0.52
  -3   3   8    4.01    0.47
  -3   3   8    3.14    0.51
  -3   3   8    3.38    0.48
  -3   3   9    2.48    0.33
  -3   3   9    3.19    0.46
  -3   3   9    3.35    0.46
  -3   3  10    0.70    0.22
  -3   3  11    3.29    0.34
  -3   4  -8    0.15    0.08
  -3   4  -7    0.21    0.12
  -3   4  -7    0.19    0.12
  -3   4  -6    0.12    0.15
  -3   4  -6    0.24    0.13
  -3   4  -5    3.21    0.37
  -3   4  -5    3.79    0.39
  -3   4  -5    2.83    0.32
  -3   4  -4   10.51    0.69
  -3   4  -4   11.01    0.78
  -3   4  -4   10.79    0.77
  -3   4  -3    2.50    0.36
  -3   4  -3    2.13    0.38
  -3   4  -3    2.58    0.35
  -3   4  -2    0.32    0.19
  -3   4  -2    0.77    0.30
  -3   4  -2    0.26    0.18
  -3   4  -1    0.56    0.21
  -3   4   0    0.85    0.23
  -3   4   1    0.50    0.24
  -3   4   2    6.24    0.63
  -3   4   3    2.88    0.38
  -3   4   3    2.73    0.36
  -3   4   3    2.75    0.44
  -3   4   4    2.63    0.35
  -3   4   4    1.73    0.40
  -3   4   4    1.98    0.33
  -3   4   5    8.66    0.68
  -3   4   5    8.28    0.62
  -3   4   6    1.03    0.26
  -3   4   7    2.15    0.36
  -3   4   7    1.59    0.31
  -3   4   8    0.51    0.19
  -3   4   8    0.78    0.24
  -3   4   9    3.01    0.29
  -3   5  -3    0.59    0.14
  -3   5  -3    0.59    0.10
  -3   5  -2    0.32    0.11
  -3   5  -2    0.28    0.13
  -3   5  -2    0.37    0.12
  -3   5  -1   -0.04    0.10
  -3   5  -1   -0.02    0.12
  -3   5  -1    0.06    0.10
  -3   5   0    0.07    0.14
  -3   5   1    3.70    0.35
  -3   5   1    3.95    0.38
  -3   5   2    1.13    0.20
  -3   5   3   11.26    0.64
  -3   5   3   11.39    0.66
  -3   5   4    0.26    0.15
  -3   5   4    0.23    0.09
  -3   5   4    0.36    0.10
  -3   5   5    0.43    0.14
  -2  -8  -3    1.56    0.18
  -2  -8  -2    0.37    0.11
  -2  -8  -2    0.55    0.11
  -2  -8  -1    2.28    0.22
  -2  -8  -1    2.52    0.22
  -2  -7  -9   17.71    0.84
  -2  -7  -9   15.23    0.77
  -2  -7  -8    0.65    0.16
  -2  -7  -7    0.05    0.07
  -2  -7  -7    0.03    0.04
  -2  -7  -6    2.29    0.31
  -2  -7  -6    1.86    0.25
  -2  -7  -6    2.34    0.29
  -2  -7  -6    2.58    0.33
  -2  -7  -5   22.56    1.20
  -2  -7  -5   21.73    1.20
  -2  -7  -5   24.84    1.27
  -2  -7  -4    3.26    0.36
  -2  -7  -4    3.17    0.39
  -2  -7  -3   17.11    0.98
  -2  -7  -3   19.96    1.10
  -2  -7  -2   14.07    0.76
  -2  -7  -2   -0.03    0.04
  -2  -7  -1   31.54    1.11
  -2  -7  -1   33.58    1.15
  -2  -7   0    0.04    0.20
  -2  -7   0    0.02    0.13
  -2  -7   0    0.26    0.21
  -2  -7   0   -0.07    0.16
  -2  -7   1   13.47    0.79
  -2  -7   1   12.60    0.84
  -2  -7   1   12.48    0.79
  -2  -7   1   11.67    0.83
  -2  -7   2    6.56    0.51
  -2  -7   2    6.05    0.54
  -2  -7   2    5.77    0.48
  -2  -7   2    6.19    0.50
  -2  -7   3    1.95    0.26
  -2  -7   3    1.56    0.25
  -2  -7   3    2.07    0.33
  -2  -7   3    1.65    0.28
  -2  -7   3    1.68    0.23
  -2  -7   4    0.22    0.16
  -2  -7   4    0.27    0.15
  -2  -7   5    4.86    0.37
  -2  -7   5    4.25    0.38
  -2  -7   5    3.67    0.31
  -2  -7   6    3.91    0.29
  -2  -7   6    3.79    0.29
  -2  -6 -12    1.07    0.14
  -2  -6 -11   -0.13    0.10
  -2  -6 -11   -0.04    0.10
  -2  -6 -10   19.07    1.04
  -2  -6 -10   19.92    1.06
  -2  -6  -9    9.78    0.72
  -2  -6  -8    2.81    0.40
  -2  -6  -8    3.01    0.34
  -2  -6  -8    3.22    0.44
  -2  -6  -7   20.09    1.24
  -2  -6  -7   19.79    1.13
  -2  -6  -7   21.13    1.25
  -2  -6  -6   15.18    1.02
  -2  -6  -6   14.38    0.95
  -2  -6  -5    3.44    0.48
  -2  -6  -5    4.36    0.51
  -2  -6  -4   -0.13    0.21
  -2  -6  -4    0.04    0.13
  -2  -6  -4    0.16    0.35
  -2  -6  -4   -0.13    0.22
  -2  -6  -3    6.53    0.65
  -2  -6  -3    6.00    0.59
  -2  -6  -3    6.45    0.65
  -2  -6  -3    6.88    0.63
  -2  -6  -3    4.74    0.98
  -2  -6  -3    5.19    1.08
  -2  -6  -2    0.18    0.21
  -2  -6  -2    0.23    0.17
  -2  -6  -2    0.24    0.24
  -2  -6  -2   -0.24    0.17
  -2  -6  -2    0.15    0.30
  -2  -6  -2   -0.05    0.23
  -2  -6  -1    8.93    0.68
  -2  -6  -1    7.40    0.58
  -2  -6  -1    9.82    0.70
  -2  -6  -1    9.60    1.48
  -2  -6  -1    8.85    0.80
  -2  -6   0   28.31    1.66
  -2  -6   0   25.91    2.58
  -2  -6   0   32.11    1.70
  -2  -6   0   27.89    1.52
  -2  -6   0   28.20    1.52
  -2  -6   1   12.21    0.98
  -2  -6   1   11.78    0.95
  -2  -6   1   12.66    0.89
  -2  -6   1   12.45    0.88
  -2  -6   2   28.25    1.65
  -2  -6   2   28.73    1.56
  -2  -6   2   28.53    1.56
  -2  -6   3   34.10    1.83
  -2  -6   3   31.93    1.72
  -2  -6   3   32.19    1.72
  -2  -6   4   88.40    3.96
  -2  -6   4   89.67    3.89
  -2  -6   5    0.12    0.20
  -2  -6   5    0.70    0.26
  -2  -6   5    0.19    0.21
  -2  -6   6   11.59    0.83
  -2  -6   6   13.59    0.85
  -2  -6   7    0.81    0.21
  -2  -6   7    0.78    0.21
  -2  -6   7    0.59    0.18
  -2  -6   8    3.18    0.29
  -2  -6   8    4.29    0.39
  -2  -5 -14    0.76    0.12
  -2  -5 -13    2.79    0.26
  -2  -5 -12   10.89    0.65
  -2  -5 -12   10.12    0.65
  -2  -5 -11    0.84    0.20
  -2  -5 -11    1.16    0.23
  -2  -5 -11    0.61    0.20
  -2  -5 -10    0.41    0.21
  -2  -5 -10    0.48    0.17
  -2  -5 -10    0.38    0.20
  -2  -5  -9    0.52    0.23
  -2  -5  -9    0.78    0.24
  -2  -5  -8   50.65    2.48
  -2  -5  -8   47.74    2.28
  -2  -5  -8   55.54    2.51
  -2  -5  -7  207.12    8.63
  -2  -5  -7  231.64    8.85
  -2  -5  -6   16.14    1.80
  -2  -5  -6   20.43    1.26
  -2  -5  -6   18.45    1.12
  -2  -5  -6   20.74    1.18
  -2  -5  -6   17.49    2.04
  -2  -5  -5   21.52    2.15
  -2  -5  -5   19.56    1.19
  -2  -5  -5   19.30    1.23
  -2  -5  -5   18.91    1.17
  -2  -5  -5   20.18    2.01
  -2  -5  -5   20.32    1.20
  -2  -5  -4   19.32    2.05
  -2  -5  -4   20.86    1.28
  -2  -5  -4   22.23    1.29
  -2  -5  -4   21.47    1.30
  -2  -5  -4   21.74    1.28
  -2  -5  -4   22.38    2.13
  -2  -5  -3   51.05    3.57
  -2  -5  -3   48.67    2.50
  -2  -5  -3   51.74    2.30
  -2  -5  -3   51.94    2.33
  -2  -5  -3   45.73    3.46
  -2  -5  -3   52.62    2.51
  -2  -5  -3   54.78    2.52
  -2  -5  -3   56.26    2.54
  -2  -5  -2   38.75    1.82
  -2  -5  -2   39.80    1.84
  -2  -5  -2   39.50    2.00
  -2  -5  -2   36.09    1.91
  -2  -5  -2   37.36    2.95
  -2  -5  -2   37.13    1.96
  -2  -5  -1   15.12    1.05
  -2  -5  -1   14.51    0.91
  -2  -5  -1   14.29    0.91
  -2  -5  -1   12.68    1.64
  -2  -5  -1   15.06    1.03
  -2  -5  -1   13.04    0.93
  -2  -5   0    0.17    0.38
  -2  -5   0   -0.07    0.20
  -2  -5   0    0.19    0.19
  -2  -5   1   83.64    5.14
  -2  -5   1   90.16    4.07
  -2  -5   2  133.62    7.06
  -2  -5   2  121.34    5.35
  -2  -5   2  123.46    6.65
  -2  -5   2  118.56    5.14
  -2  -5   3   77.56    4.82
  -2  -5   3   78.39    3.73
  -2  -5   3   76.18    5.09
  -2  -5   4   52.45    4.58
  -2  -5   4   61.91    3.08
  -2  -5   4   65.44    4.51
  -2  -5   5  105.97    6.91
  -2  -5   5  106.31    4.90
  -2  -5   5  123.02    6.68
  -2  -5   6    7.61    1.59
  -2  -5   6    8.47    0.83
  -2  -5   6    8.60    1.45
  -2  -5   7    0.58    0.32
  -2  -5   7    1.32    0.65
  -2  -5   7    1.52    0.72
  -2  -5   8    0.40    0.23
  -2  -5   8    0.16    0.33
  -2  -5   9   13.15    0.87
  -2  -4 -14   17.51    0.94
  -2  -4 -14   19.38    1.01
  -2  -4 -13   17.44    0.96
  -2  -4 -13   16.49    0.99
  -2  -4 -12   10.31    0.76
  -2  -4 -12    9.00    0.62
  -2  -4 -11    0.04    0.19
  -2  -4 -11    0.25    0.19
  -2  -4 -11   -0.03    0.15
  -2  -4 -10   43.84    2.17
  -2  -4 -10   47.12    2.25
  -2  -4 -10   44.56    2.16
  -2  -4  -9  333.67   13.24
  -2  -4  -9  328.25   13.22
  -2  -4  -9  344.40   13.22
  -2  -4  -8   73.11    4.21
  -2  -4  -8   73.23    3.33
  -2  -4  -8   72.80    3.28
  -2  -4  -8   75.20    3.31
  -2  -4  -7  411.14   16.34
  -2  -4  -7  431.20   16.49
  -2  -4  -7  457.34   18.39
  -2  -4  -7  409.97   17.46
  -2  -4  -6   31.58    2.34
  -2  -4  -6   30.79    1.60
  -2  -4  -6   30.88    2.32
  -2  -4  -6   36.68    2.81
  -2  -4  -5   24.73    2.35
  -2  -4  -5   29.12    1.48
  -2  -4  -5   27.58    2.12
  -2  -4  -5   29.25    1.57
  -2  -4  -5   28.68    1.53
  -2  -4  -5   25.96    2.16
  -2  -4  -5   31.39    1.50
  -2  -4  -4    0.16    0.38
  -2  -4  -4    0.07    0.15
  -2  -4  -4    0.54    0.34
  -2  -4  -4    0.04    0.14
  -2  -4  -4   -0.04    0.16
  -2  -4  -4   -0.12    0.31
  -2  -4  -4   -0.21    0.16
  -2  -4  -4    0.03    0.14
  -2  -4  -3   52.01    2.16
  -2  -4  -3   47.52    3.15
  -2  -4  -3   47.13    2.29
  -2  -4  -3   50.98    2.31
  -2  -4  -3   42.59    2.90
  -2  -4  -2    8.55    1.18
  -2  -4  -2    8.92    0.59
  -2  -4  -2    8.49    0.59
  -2  -4  -1   64.89    3.79
  -2  -4  -1   56.84    2.69
  -2  -4  -1   55.88    3.55
  -2  -4   0   14.22    1.65
  -2  -4   0   15.59    1.08
  -2  -4   0   15.16    1.04
  -2  -4   0   18.11    1.70
  -2  -4   1   86.50    3.87
  -2  -4   1   90.06    3.97
  -2  -4   1   83.90    4.77
  -2  -4   2   35.22    3.20
  -2  -4   2   35.47    1.93
  -2  -4   2   39.29    2.05
  -2  -4   2   34.26    2.65
  -2  -4   3   76.28    3.70
  -2  -4   3   83.60    3.84
  -2  -4   3   89.73    5.50
  -2  -4   3   86.85    5.13
  -2  -4   3   90.01    5.86
  -2  -4   3   79.12    4.60
  -2  -4   4   15.54    1.19
  -2  -4   4   17.30    1.28
  -2  -4   4   19.34    1.87
  -2  -4   4   17.56    2.28
  -2  -4   4   16.22    2.03
  -2  -4   4   17.07    2.45
  -2  -4   5    0.82    0.40
  -2  -4   5    0.61    0.33
  -2  -4   5    0.51    0.63
  -2  -4   5    0.29    0.65
  -2  -4   5    1.44    0.74
  -2  -4   5    0.24    0.64
  -2  -4   6   75.72    3.76
  -2  -4   6   78.42    3.69
  -2  -4   6   81.55    5.60
  -2  -4   6   77.16    5.44
  -2  -4   6   78.08    5.10
  -2  -4   6   74.64    5.76
  -2  -4   7   77.92    3.84
  -2  -4   7   75.91    5.57
  -2  -4   7   81.57    6.02
  -2  -4   7   75.63    5.37
  -2  -4   7   87.77    5.37
  -2  -4   8    0.27    0.46
  -2  -4   8    0.21    0.32
  -2  -4   8   -0.31    0.53
  -2  -4   8    0.21    0.43
  -2  -4   9   89.85    4.12
  -2  -4   9   82.30    5.72
  -2  -4   9   86.91    5.44
  -2  -4  10    0.51    0.45
  -2  -4  10    0.69    0.29
  -2  -3 -15    0.15    0.12
  -2  -3 -15    0.12    0.09
  -2  -3 -15   -0.02    0.10
  -2  -3 -14    7.44    0.61
  -2  -3 -13    0.07    0.16
  -2  -3 -13    0.04    0.20
  -2  -3 -12    1.90    0.35
  -2  -3 -12    2.58    0.42
  -2  -3 -11    0.68    0.26
  -2  -3 -11    0.64    0.27
  -2  -3 -11    0.86    0.20
  -2  -3 -10    3.13    0.47
  -2  -3 -10    3.29    0.40
  -2  -3 -10    2.48    0.70
  -2  -3  -9    7.71    0.62
  -2  -3  -9    6.91    1.15
  -2  -3  -9    8.33    0.62
  -2  -3  -9    7.74    0.70
  -2  -3  -9    8.09    0.65
  -2  -3  -8   35.52    1.72
  -2  -3  -8   38.95    2.76
  -2  -3  -8   35.19    1.77
  -2  -3  -8   33.14    1.79
  -2  -3  -8   33.70    1.80
  -2  -3  -8   36.95    1.74
  -2  -3  -7   37.20    1.82
  -2  -3  -7   38.32    2.73
  -2  -3  -7   37.23    1.87
  -2  -3  -7   38.91    1.88
  -2  -3  -7   37.77    1.90
  -2  -3  -7   38.04    2.85
  -2  -3  -7   39.51    1.83
  -2  -3  -6    0.03    0.16
  -2  -3  -6    0.12    0.36
  -2  -3  -6   -0.07    0.13
  -2  -3  -5   63.24    3.50
  -2  -3  -5   69.11    3.78
  -2  -3  -4   79.77    4.05
  -2  -3  -4   75.96    4.16
  -2  -3  -3  129.91    6.08
  -2  -3  -2  481.97   18.65
  -2  -3  -2  465.95   19.45
  -2  -3  -2  485.27   18.61
  -2  -3  -1   87.39    4.54
  -2  -3  -1   89.01    4.50
  -2  -3  -1   89.09    3.82
  -2  -3  -1   87.91    3.80
  -2  -3   0  362.27   15.56
  -2  -3   0  388.03   15.55
  -2  -3   0  378.89   14.75
  -2  -3   0  377.70   14.73
  -2  -3   0  375.09   14.62
  -2  -3   1   10.45    1.14
  -2  -3   1    9.46    0.68
  -2  -3   1    9.25    0.78
  -2  -3   1   10.62    1.37
  -2  -3   1    9.97    1.47
  -2  -3   2    8.08    1.02
  -2  -3   2    7.78    0.72
  -2  -3   2    7.02    0.58
  -2  -3   2    6.62    1.26
  -2  -3   2    7.25    1.18
  -2  -3   3   39.56    2.97
  -2  -3   3   35.59    2.37
  -2  -3   3   39.13    3.20
  -2  -3   3   36.28    3.10
  -2  -3   3   31.14    1.68
  -2  -3   3   39.04    2.85
  -2  -3   4   46.45    2.22
  -2  -3   4   46.44    3.50
  -2  -3   4   44.16    3.26
  -2  -3   4   46.55    3.84
  -2  -3   4   49.86    3.95
  -2  -3   4   49.22    3.45
  -2  -3   5   33.85    1.75
  -2  -3   5   38.13    3.38
  -2  -3   5   36.06    3.47
  -2  -3   5   34.98    3.08
  -2  -3   5   31.43    2.80
  -2  -3   6   -0.26    0.59
  -2  -3   6    0.56    0.84
  -2  -3   6    0.66    0.62
  -2  -3   6    0.76    0.63
  -2  -3   7    2.13    1.02
  -2  -3   7    4.62    1.36
  -2  -3   7    2.43    0.92
  -2  -3   7    2.57    0.91
  -2  -3   7    2.99    0.88
  -2  -3   8   12.45    2.20
  -2  -3   8   14.47    2.44
  -2  -3   8   15.57    2.13
  -2  -3   9    0.65    0.73
  -2  -3   9    1.63    0.98
  -2  -3   9    1.45    0.77
  -2  -3  10    9.93    1.90
  -2  -3  11   42.58    3.39
  -2  -3  12   -0.25    0.24
  -2  -2 -15    1.55    0.26
  -2  -2 -15    1.48    0.21
  -2  -2 -15    1.38    0.22
  -2  -2 -14    0.42    0.25
  -2  -2 -14    0.47    0.21
  -2  -2 -13   61.00    2.92
  -2  -2 -13   62.76    2.91
  -2  -2 -12   20.90    1.34
  -2  -2 -12   22.64    1.29
  -2  -2 -12   19.24    1.23
  -2  -2 -11   45.18    2.25
  -2  -2 -11   40.29    2.10
  -2  -2 -11   41.59    1.98
  -2  -2 -10   10.78    1.46
  -2  -2 -10   10.92    0.88
  -2  -2 -10    9.12    0.78
  -2  -2 -10   10.80    0.75
  -2  -2 -10   11.83    0.78
  -2  -2  -9   15.25    1.00
  -2  -2  -9   15.31    0.92
  -2  -2  -9   12.87    1.58
  -2  -2  -9   15.46    1.03
  -2  -2  -9   13.14    0.86
  -2  -2  -9   13.68    0.95
  -2  -2  -9   15.14    1.00
  -2  -2  -8    3.18    0.42
  -2  -2  -8    2.62    0.75
  -2  -2  -8    2.60    0.38
  -2  -2  -8    2.76    0.33
  -2  -2  -8    2.48    0.33
  -2  -2  -7   78.85    3.29
  -2  -2  -7   81.81    4.44
  -2  -2  -7   83.58    4.43
  -2  -2  -6   30.81    1.43
  -2  -2  -6   33.06    2.32
  -2  -2  -6   32.54    2.30
  -2  -2  -5   12.30    1.26
  -2  -2  -5    9.15    1.13
  -2  -2  -4   28.17    2.05
  -2  -2  -3  517.77   20.65
  -2  -2  -3  536.46   20.38
  -2  -2  -2  434.23   17.08
  -2  -2  -2  426.00   17.20
  -2  -2  -1  296.95   12.07
  -2  -2  -1  286.48   11.51
  -2  -2  -1  320.25   12.65
  -2  -2   0   35.99    2.23
  -2  -2   0   41.37    2.61
  -2  -2   0   41.05    2.67
  -2  -2   1   79.96    4.04
  -2  -2   1   84.57    4.77
  -2  -2   1   82.48    4.49
  -2  -2   1   88.73    4.53
  -2  -2   2    4.55    0.80
  -2  -2   2    4.71    1.00
  -2  -2   2    3.60    0.81
  -2  -2   2    4.04    0.83
  -2  -2   3   37.03    2.55
  -2  -2   3   32.68    1.56
  -2  -2   3   39.53    2.70
  -2  -2   4    9.10    1.25
  -2  -2   4    9.30    0.63
  -2  -2   4   10.62    1.43
  -2  -2   5   71.74    4.44
  -2  -2   5   69.86    3.91
  -2  -2   5   68.94    4.50
  -2  -2   5   69.51    4.20
  -2  -2   5   64.15    4.13
  -2  -2   6   15.95    1.63
  -2  -2   6   13.59    1.82
  -2  -2   6   16.79    1.50
  -2  -2   6   15.50    1.82
  -2  -2   6   16.58    1.87
  -2  -2   7   24.69    2.56
  -2  -2   7   23.06    2.38
  -2  -2   7   25.16    2.41
  -2  -2   7   22.53    2.63
  -2  -2   8   14.70    2.23
  -2  -2   8   14.21    2.08
  -2  -2   9   70.99    5.35
  -2  -2   9   57.88    4.62
  -2  -2  10    8.59    1.55
  -2  -2  10    7.44    1.74
  -2  -2  11   21.90    3.01
  -2  -2  12   16.73    2.52
  -2  -1 -15    5.26    0.38
  -2  -1 -15    4.11    0.36
  -2  -1 -14   33.95    1.62
  -2  -1 -14   33.48    1.67
  -2  -1 -13   73.96    3.37
  -2  -1 -13   70.97    3.10
  -2  -1 -13   73.08    3.29
  -2  -1 -12    3.56    0.54
  -2  -1 -12    3.97    0.44
  -2  -1 -12    4.83    0.57
  -2  -1 -12    3.89    0.54
  -2  -1 -11    2.44    0.46
  -2  -1 -11    3.97    0.47
  -2  -1 -11    3.37    0.50
  -2  -1 -11    3.09    0.48
  -2  -1 -10   94.20    4.18
  -2  -1 -10  102.17    4.14
  -2  -1 -10   95.33    4.30
  -2  -1 -10   96.44    4.14
  -2  -1 -10   94.22    3.99
  -2  -1 -10   97.94    5.37
  -2  -1 -10   94.01    4.25
  -2  -1  -9    0.30    0.24
  -2  -1  -9    0.35    0.18
  -2  -1  -9    0.12    0.16
  -2  -1  -9    0.06    0.14
  -2  -1  -9    0.37    0.25
  -2  -1  -9    0.11    0.17
  -2  -1  -9    0.40    0.23
  -2  -1  -8   39.63    1.90
  -2  -1  -8   40.59    2.04
  -2  -1  -8   40.66    1.84
  -2  -1  -8   36.72    1.96
  -2  -1  -8   42.57    1.94
  -2  -1  -8   40.60    1.95
  -2  -1  -8   38.27    1.94
  -2  -1  -7    0.03    0.17
  -2  -1  -7   -0.03    0.17
  -2  -1  -6    3.91    0.65
  -2  -1  -5  101.01    4.72
  -2  -1  -5   97.83    4.13
  -2  -1  -4   11.76    1.08
  -2  -1  -4   10.95    0.80
  -2  -1  -3  178.37    7.30
  -2  -1  -2  588.11   22.84
  -2  -1  -1    0.06    0.10
  -2  -1  -1    0.34    0.29
  -2  -1  -1    0.07    0.23
  -2  -1  -1   -0.10    0.26
  -2  -1   0  229.05    9.19
  -2  -1   0  223.64    9.73
  -2  -1   0  227.23    9.98
  -2  -1   0  225.43    9.50
  -2  -1   1   38.09    2.10
  -2  -1   1   39.01    2.48
  -2  -1   1   40.22    2.66
  -2  -1   2  276.70   11.83
  -2  -1   2  289.25   11.48
  -2  -1   2  278.40   10.90
  -2  -1   3    0.19    0.25
  -2  -1   3   -0.10    0.33
  -2  -1   3    0.51    0.16
  -2  -1   4  887.37   34.07
  -2  -1   4  946.49   35.42
  -2  -1   4  857.68   35.00
  -2  -1   4  921.97   34.75
  -2  -1   5    2.22    0.65
  -2  -1   5    0.60    0.34
  -2  -1   5    1.54    0.39
  -2  -1   6    0.43    0.27
  -2  -1   6   -0.13    0.36
  -2  -1   6   -0.15    0.36
  -2  -1   7   11.38    1.47
  -2  -1   7   12.54    1.23
  -2  -1   7    9.82    1.47
  -2  -1   8   41.58    3.17
  -2  -1   8   39.76    3.20
  -2  -1   9    1.74    0.73
  -2  -1   9    2.12    0.75
  -2  -1  10   47.18    3.77
  -2  -1  11    5.83    1.34
  -2  -1  12   53.49    4.14
  -2   0 -15   -0.02    0.10
  -2   0 -14   -0.02    0.11
  -2   0 -14   -0.13    0.15
  -2   0 -13    0.38    0.21
  -2   0 -13   -0.03    0.05
  -2   0 -13    0.44    0.18
  -2   0 -13    0.59    0.28
  -2   0 -12    8.12    0.68
  -2   0 -12    7.82    0.71
  -2   0 -12    7.25    0.66
  -2   0 -12    7.66    0.65
  -2   0 -11    2.27    0.38
  -2   0 -11    1.97    0.35
  -2   0 -11    1.76    0.38
  -2   0 -11    1.59    0.30
  -2   0 -10   11.72    1.47
  -2   0 -10   11.50    0.84
  -2   0 -10   12.00    0.88
  -2   0 -10   13.80    0.95
  -2   0 -10   11.49    0.98
  -2   0 -10   13.04    1.00
  -2   0 -10   12.88    0.84
  -2   0  -9   56.79    3.61
  -2   0  -9   57.23    2.82
  -2   0  -9   53.32    2.58
  -2   0  -9   61.41    2.69
  -2   0  -9   58.84    2.68
  -2   0  -9   54.83    2.59
  -2   0  -9   58.86    2.80
  -2   0  -9   57.03    2.80
  -2   0  -9   59.21    2.60
  -2   0  -8   65.67    3.71
  -2   0  -8   62.95    2.89
  -2   0  -8   60.53    2.66
  -2   0  -8   64.20    2.75
  -2   0  -8   57.91    2.69
  -2   0  -8   54.12    2.79
  -2   0  -8   58.15    2.84
  -2   0  -8   60.55    2.66
  -2   0  -7  192.22    8.74
  -2   0  -7  195.72    7.92
  -2   0  -7  190.74    7.75
  -2   0  -7  199.18    7.73
  -2   0  -7  194.42    7.78
  -2   0  -7  192.66    7.89
  -2   0  -6   59.07    3.33
  -2   0  -5   36.98    2.34
  -2   0  -4    4.42    0.69
  -2   0  -3   95.73    4.55
  -2   0  -2   13.34    0.96
  -2   0  -2   11.01    1.00
  -2   0  -1  191.33    7.80
  -2   0  -1  201.50    7.61
  -2   0   0    2.59    0.56
  -2   0   0    3.23    0.55
  -2   0   0    1.93    0.55
  -2   0   0    3.63    0.54
  -2   0   1  292.56   11.23
  -2   0   1  278.78   11.77
  -2   0   1  291.71   11.75
  -2   0   2   93.20    3.95
  -2   0   2  104.80    4.97
  -2   0   2   95.27    4.53
  -2   0   2   98.04    4.43
  -2   0   2  104.46    4.69
  -2   0   3   91.93    3.78
  -2   0   3   93.71    3.83
  -2   0   3   92.53    4.80
  -2   0   3   90.85    4.28
  -2   0   4   13.15    0.77
  -2   0   4   12.74    0.80
  -2   0   4   11.25    1.36
  -2   0   4   13.32    1.12
  -2   0   5    0.19    0.19
  -2   0   5    0.22    0.15
  -2   0   5    0.28    0.40
  -2   0   5    0.11    0.32
  -2   0   6   62.55    2.74
  -2   0   6   58.66    2.66
  -2   0   6   56.33    3.46
  -2   0   6   61.94    4.05
  -2   0   6   69.98    3.85
  -2   0   7   74.45    3.35
  -2   0   7   77.41    4.27
  -2   0   7   74.81    4.77
  -2   0   7   82.66    4.58
  -2   0   8   79.40    3.54
  -2   0   8   82.67    5.17
  -2   0   8   80.91    4.82
  -2   0   9   95.17    6.01
  -2   0   9   98.19    5.70
  -2   0  10    0.49    0.60
  -2   0  10    2.64    0.89
  -2   0  10    2.59    0.85
  -2   0  11   64.23    4.91
  -2   0  11   74.91    4.92
  -2   0  12    5.74    1.23
  -2   1 -14    3.77    0.32
  -2   1 -14    0.02    0.02
  -2   1 -13    0.06    0.17
  -2   1 -13    0.03    0.14
  -2   1 -13    0.05    0.13
  -2   1 -13   -0.06    0.16
  -2   1 -12    6.25    0.59
  -2   1 -12    6.90    0.60
  -2   1 -12    6.15    0.59
  -2   1 -12    5.32    0.49
  -2   1 -11    2.67    0.40
  -2   1 -11    3.14    0.38
  -2   1 -11    3.71    0.47
  -2   1 -11    2.94    0.45
  -2   1 -10   11.12    0.78
  -2   1 -10   10.72    0.84
  -2   1 -10   11.39    0.84
  -2   1 -10    9.77    0.86
  -2   1 -10    8.81    0.70
  -2   1 -10    9.32    0.89
  -2   1  -9   34.05    2.50
  -2   1  -9   39.04    1.95
  -2   1  -9   35.57    1.99
  -2   1  -9   31.64    1.70
  -2   1  -9   34.65    1.89
  -2   1  -9   35.13    1.79
  -2   1  -9   36.78    1.84
  -2   1  -9   33.74    1.94
  -2   1  -9   39.44    1.93
  -2   1  -8    0.85    0.26
  -2   1  -8    0.55    0.18
  -2   1  -8    0.60    0.27
  -2   1  -8    1.23    0.39
  -2   1  -8    0.63    0.29
  -2   1  -8    0.55    0.22
  -2   1  -8    0.98    0.32
  -2   1  -8    1.45    0.50
  -2   1  -7    0.81    0.28
  -2   1  -7    0.31    0.23
  -2   1  -7    0.40    0.34
  -2   1  -7    0.24    0.13
  -2   1  -7    0.42    0.21
  -2   1  -7    0.87    0.29
  -2   1  -6   50.46    2.52
  -2   1  -6   53.37    2.52
  -2   1  -6   57.27    2.54
  -2   1  -6   54.13    3.02
  -2   1  -6   55.16    2.45
  -2   1  -5  105.19    4.85
  -2   1  -5  103.12    4.36
  -2   1  -4   17.25    1.30
  -2   1  -3   29.38    1.74
  -2   1  -2  215.78    9.17
  -2   1  -2  229.45    8.81
  -2   1  -1   17.65    1.11
  -2   1  -1   19.50    1.35
  -2   1   0  162.14    6.47
  -2   1   0  149.04    6.68
  -2   1   0  160.06    7.37
  -2   1   0  169.87    6.48
  -2   1   1    0.23    0.22
  -2   1   1    0.33    0.38
  -2   1   2    3.41    0.71
  -2   1   2    3.33    0.39
  -2   1   2    3.48    0.39
  -2   1   2    3.76    0.76
  -2   1   3    0.57    0.44
  -2   1   3   -0.13    0.36
  -2   1   3    0.09    0.17
  -2   1   3    0.06    0.19
  -2   1   3    0.35    0.21
  -2   1   4   61.91    2.75
  -2   1   4   61.01    2.73
  -2   1   4   61.17    3.63
  -2   1   4   59.45    2.69
  -2   1   5   18.36    1.09
  -2   1   5   16.77    1.04
  -2   1   5   18.38    1.77
  -2   1   6   16.49    1.82
  -2   1   6   17.12    1.08
  -2   1   6   15.60    1.02
  -2   1   6   15.49    1.73
  -2   1   7   76.04    4.52
  -2   1   7   69.98    3.18
  -2   1   7   67.10    3.11
  -2   1   7   64.71    4.22
  -2   1   8   38.43    2.00
  -2   1   8   41.92    2.09
  -2   1   8   33.94    2.96
  -2   1   8   38.53    2.91
  -2   1   8   39.96    3.18
  -2   1   9  492.66   20.49
  -2   1   9  502.61   21.13
  -2   1   9  482.20   20.25
  -2   1   9  481.47   18.61
  -2   1   9  453.88   18.51
  -2   1  10  106.24    6.37
  -2   1  10  110.80    6.94
  -2   1  10  110.61    4.86
  -2   1  11    7.70    1.40
  -2   1  11    7.61    0.75
  -2   1  11    5.24    1.38
  -2   1  12    0.27    0.46
  -2   1  13    5.54    0.64
  -2   2 -13    9.31    0.62
  -2   2 -12    5.11    0.45
  -2   2 -12   -0.02    0.06
  -2   2 -11    1.53    0.31
  -2   2 -11    1.62    0.24
  -2   2 -11    1.87    0.32
  -2   2 -11    1.98    0.35
  -2   2 -11    1.92    0.34
  -2   2 -10    9.68    0.82
  -2   2 -10   12.18    0.84
  -2   2 -10   10.19    0.82
  -2   2 -10   11.64    0.86
  -2   2 -10    8.82    0.64
  -2   2  -9    0.12    0.12
  -2   2  -9    0.19    0.21
  -2   2  -9    0.04    0.21
  -2   2  -9    0.15    0.22
  -2   2  -9    0.14    0.23
  -2   2  -8    0.16    0.18
  -2   2  -8    0.29    0.25
  -2   2  -8    0.31    0.24
  -2   2  -8    0.50    0.26
  -2   2  -8    0.13    0.20
  -2   2  -8    0.34    0.15
  -2   2  -7    3.98    0.55
  -2   2  -7    3.64    0.45
  -2   2  -7    3.64    0.51
  -2   2  -7    3.94    0.47
  -2   2  -7    2.75    0.47
  -2   2  -7    4.06    0.50
  -2   2  -6    1.65    0.37
  -2   2  -6    1.64    0.44
  -2   2  -6    1.44    0.29
  -2   2  -6    1.15    0.34
  -2   2  -6    1.89    0.33
  -2   2  -6    2.17    0.43
  -2   2  -5    1.25    0.32
  -2   2  -5    0.86    0.34
  -2   2  -5    1.11    0.25
  -2   2  -5    1.21    0.32
  -2   2  -5    0.77    0.23
  -2   2  -5    0.93    0.29
  -2   2  -4  144.28    6.16
  -2   2  -4  145.79    6.12
  -2   2  -4  159.06    6.17
  -2   2  -4  147.47    6.01
  -2   2  -3   21.76    1.25
  -2   2  -3   24.66    1.29
  -2   2  -3   21.68    1.17
  -2   2  -3   21.98    1.57
  -2   2  -2 1553.33   59.60
  -2   2  -2 1595.49   60.16
  -2   2  -1   67.97    3.36
  -2   2  -1   58.94    2.62
  -2   2   0  149.52    5.82
  -2   2   0  136.81    5.83
  -2   2   1   50.18    3.12
  -2   2   1   44.27    2.15
  -2   2   2   14.69    0.99
  -2   2   2   17.03    1.05
  -2   2   2   17.34    1.77
  -2   2   2   17.55    1.11
  -2   2   2   13.63    1.46
  -2   2   3   20.70    1.24
  -2   2   3   19.92    1.85
  -2   2   3   21.66    2.08
  -2   2   3   21.01    1.30
  -2   2   4   28.05    1.53
  -2   2   4   29.64    1.64
  -2   2   4   31.35    2.52
  -2   2   4   31.34    1.69
  -2   2   4   31.67    2.65
  -2   2   4   35.01    2.41
  -2   2   5    1.72    0.32
  -2   2   5    1.68    0.38
  -2   2   5    1.66    0.38
  -2   2   5    2.19    0.45
  -2   2   5    2.00    0.75
  -2   2   5    0.87    0.58
  -2   2   5    1.89    0.82
  -2   2   5    2.56    0.66
  -2   2   6   32.21    1.76
  -2   2   6   34.68    1.92
  -2   2   6   32.75    2.95
  -2   2   6   39.25    3.12
  -2   2   6   38.68    2.01
  -2   2   6   37.00    2.71
  -2   2   6   36.35    2.48
  -2   2   7   17.23    1.24
  -2   2   7   16.61    2.07
  -2   2   7   20.00    2.34
  -2   2   7   19.93    2.26
  -2   2   7   19.16    1.32
  -2   2   7   16.54    1.85
  -2   2   8   23.94    1.54
  -2   2   8   25.27    2.60
  -2   2   8   22.80    2.54
  -2   2   8   27.19    2.73
  -2   2   8   24.56    1.59
  -2   2   8   27.22    1.64
  -2   2   8   26.69    2.43
  -2   2   9   14.48    2.03
  -2   2   9   14.02    1.88
  -2   2   9   15.38    2.17
  -2   2   9   16.18    1.17
  -2   2   9   14.17    1.11
  -2   2   9   10.90    0.97
  -2   2  10   10.40    1.85
  -2   2  10   10.07    0.90
  -2   2  10    8.07    0.80
  -2   2  10    7.09    0.73
  -2   2  11    2.55    0.99
  -2   2  11    2.05    0.40
  -2   2  11    2.42    0.45
  -2   2  12   20.91    1.31
  -2   2  13    1.50    0.32
  -2   3 -12    1.92    0.23
  -2   3 -11   10.32    0.68
  -2   3 -10   -0.11    0.17
  -2   3 -10   -0.03    0.16
  -2   3  -9    0.57    0.24
  -2   3  -9    0.75    0.24
  -2   3  -9    0.85    0.26
  -2   3  -8    0.05    0.20
  -2   3  -8    0.18    0.22
  -2   3  -8   -0.08    0.16
  -2   3  -8   -0.12    0.22
  -2   3  -7    0.05    0.22
  -2   3  -7    0.68    0.24
  -2   3  -7    0.22    0.22
  -2   3  -7    0.36    0.22
  -2   3  -7    0.05    0.25
  -2   3  -6    2.25    0.41
  -2   3  -6    2.72    0.39
  -2   3  -6    2.42    0.47
  -2   3  -6    2.93    0.48
  -2   3  -6    2.80    0.39
  -2   3  -5    1.71    0.39
  -2   3  -5    1.48    0.30
  -2   3  -5    1.74    0.51
  -2   3  -5    2.19    0.44
  -2   3  -5    1.83    0.32
  -2   3  -5    1.45    0.36
  -2   3  -4   23.41    1.27
  -2   3  -4   25.59    1.44
  -2   3  -4   22.75    1.40
  -2   3  -3   41.89    1.98
  -2   3  -3   37.63    2.68
  -2   3  -3   42.48    2.14
  -2   3  -3   44.28    2.18
  -2   3  -2   10.99    0.84
  -2   3  -2    8.92    0.66
  -2   3  -2   12.05    1.33
  -2   3  -2   10.20    1.16
  -2   3  -2   10.40    0.83
  -2   3  -1    0.27    0.25
  -2   3  -1    0.71    0.38
  -2   3  -1    0.45    0.34
  -2   3  -1    0.38    0.23
  -2   3   0    2.41    0.46
  -2   3   0    1.80    0.35
  -2   3   0    2.00    0.31
  -2   3   0    3.23    0.70
  -2   3   1    5.56    0.48
  -2   3   1    4.57    0.87
  -2   3   1    5.81    0.92
  -2   3   1    4.59    0.50
  -2   3   1    5.96    0.61
  -2   3   1    4.91    0.64
  -2   3   1    5.18    0.54
  -2   3   2    5.66    1.04
  -2   3   2    3.89    0.56
  -2   3   2    4.01    0.41
  -2   3   2    3.05    0.72
  -2   3   2    5.12    0.96
  -2   3   2    4.79    0.57
  -2   3   2    5.11    0.69
  -2   3   2    4.00    0.48
  -2   3   3   19.52    1.30
  -2   3   3   20.33    2.12
  -2   3   3   21.20    1.37
  -2   3   3   18.43    1.24
  -2   3   3   17.28    1.71
  -2   3   4    0.19    0.46
  -2   3   4   -0.13    0.25
  -2   3   4   -0.15    0.33
  -2   3   4    0.19    0.32
  -2   3   4   -0.05    0.29
  -2   3   4    0.16    0.32
  -2   3   5    9.56    0.90
  -2   3   5   10.08    1.65
  -2   3   5    8.13    1.17
  -2   3   5    6.56    1.15
  -2   3   5    9.34    0.96
  -2   3   5    9.08    0.88
  -2   3   6   54.51    3.75
  -2   3   6   52.51    4.18
  -2   3   6   56.60    2.89
  -2   3   6   56.85    2.88
  -2   3   7    7.48    1.26
  -2   3   7    6.83    0.82
  -2   3   7    7.39    0.83
  -2   3   7    8.43    0.91
  -2   3   7    8.46    1.60
  -2   3   8   10.38    0.95
  -2   3   8    9.36    0.97
  -2   3   8   11.27    1.02
  -2   3   8   12.73    2.01
  -2   3   9   -0.12    0.30
  -2   3   9   -0.06    0.25
  -2   3   9   -0.24    0.30
  -2   3   9    0.25    0.61
  -2   3  10   12.59    1.89
  -2   3  10   11.14    0.90
  -2   3  10   12.48    1.03
  -2   3  10   11.52    0.96
  -2   3  11   10.32    0.79
  -2   3  11   12.23    0.91
  -2   3  11   11.67    0.89
  -2   3  12    1.75    0.37
  -2   3  12    2.81    0.35
  -2   4 -10    0.16    0.12
  -2   4  -9   -0.04    0.08
  -2   4  -9    0.03    0.12
  -2   4  -8    7.17    0.44
  -2   4  -8    8.99    0.58
  -2   4  -7    0.13    0.24
  -2   4  -7    0.41    0.19
  -2   4  -7    0.35    0.20
  -2   4  -6    4.50    0.59
  -2   4  -6    4.74    0.52
  -2   4  -6    4.52    0.50
  -2   4  -5   12.33    0.95
  -2   4  -5   11.41    0.86
  -2   4  -5   10.98    0.84
  -2   4  -4    4.03    0.55
  -2   4  -4    4.59    0.55
  -2   4  -3    5.29    0.96
  -2   4  -3    7.44    0.71
  -2   4  -3    6.96    0.69
  -2   4  -2    2.68    0.47
  -2   4  -2    1.80    0.56
  -2   4  -2    2.32    0.43
  -2   4  -1    2.04    0.40
  -2   4  -1    2.41    0.67
  -2   4  -1    1.29    0.50
  -2   4  -1    0.92    0.30
  -2   4   0    0.48    0.26
  -2   4   0    0.87    0.46
  -2   4   0    0.19    0.24
  -2   4   1    0.09    0.21
  -2   4   1   -0.05    0.25
  -2   4   1    0.15    0.33
  -2   4   1    0.77    0.48
  -2   4   2    5.80    0.63
  -2   4   2    7.20    0.68
  -2   4   2    8.34    0.80
  -2   4   2    8.57    1.30
  -2   4   2    5.59    1.03
  -2   4   3   13.59    1.01
  -2   4   3   12.02    0.94
  -2   4   3   15.90    1.18
  -2   4   3   11.65    1.46
  -2   4   3   12.54    1.63
  -2   4   4   73.43    4.54
  -2   4   4   78.55    3.54
  -2   4   4   83.08    3.69
  -2   4   4   91.53    3.89
  -2   4   4   83.02    3.81
  -2   4   4   71.20    3.50
  -2   4   5    8.40    0.83
  -2   4   5    7.73    0.88
  -2   4   5    8.08    0.90
  -2   4   5    9.31    1.37
  -2   4   6    2.34    0.83
  -2   4   6    2.49    0.51
  -2   4   6    2.55    0.57
  -2   4   6    3.55    0.62
  -2   4   7    0.61    0.53
  -2   4   7    0.06    0.32
  -2   4   7    0.51    0.36
  -2   4   8    4.82    0.62
  -2   4   8    5.18    0.69
  -2   4   9    0.23    0.32
  -2   4   9    0.20    0.28
  -2   4  10    0.56    0.25
  -2   4  10    0.51    0.26
  -2   4  10    0.65    0.30
  -2   4  11    0.08    0.15
  -2   4  11    0.07    0.20
  -2   5  -7    2.34    0.22
  -2   5  -6    0.03    0.16
  -2   5  -5    0.03    0.18
  -2   5  -5   -0.02    0.02
  -2   5  -5    0.02    0.06
  -2   5  -5    0.02    0.02
  -2   5  -5   -0.02    0.08
  -2   5  -4   -0.03    0.11
  -2   5  -4    0.05    0.16
  -2   5  -4   -0.08    0.21
  -2   5  -3    0.26    0.18
  -2   5  -3    0.20    0.22
  -2   5  -2    0.76    0.27
  -2   5  -2    0.58    0.25
  -2   5  -1    0.16    0.22
  -2   5  -1    0.29    0.22
  -2   5   0    1.42    0.34
  -2   5   0    1.33    0.31
  -2   5   1    7.35    0.62
  -2   5   1    8.41    0.70
  -2   5   2    4.64    0.51
  -2   5   2    5.10    0.53
  -2   5   3    0.12    0.22
  -2   5   3    0.11    0.18
  -2   5   4    1.14    0.33
  -2   5   4    0.69    0.22
  -2   5   5    1.04    0.23
  -2   5   5    0.85    0.31
  -2   5   6    4.31    0.51
  -2   5   6    3.61    0.37
  -2   5   7    1.21    0.31
  -2   5   7    0.70    0.29
  -2   5   8    1.25    0.28
  -2   5   8    0.99    0.28
  -2   5   9   44.65    2.00
  -2   5   9   45.66    2.00
  -2   6  -3    2.15    0.23
  -2   6  -2    4.58    0.33
  -2   6  -2    4.15    0.32
  -2   6  -1    0.68    0.15
  -2   6  -1    0.60    0.17
  -2   6   0    1.56    0.22
  -2   6   0    1.18    0.17
  -2   6   1    0.42    0.15
  -2   6   1    0.46    0.14
  -2   6   1    0.59    0.16
  -2   6   2    0.93    0.16
  -2   6   2    1.00    0.18
  -2   6   2    0.82    0.18
  -2   6   3    0.02    0.10
  -2   6   3    0.10    0.13
  -2   6   4   -0.09    0.08
  -2   6   4    0.09    0.12
  -2   6   4    0.05    0.08
  -2   6   5    0.10    0.12
  -1  -7  -9    6.61    0.41
  -1  -7  -8    2.93    0.29
  -1  -7  -8    2.86    0.27
  -1  -7  -7    0.10    0.13
  -1  -7  -7    0.12    0.12
  -1  -7  -7    0.29    0.15
  -1  -7  -6    8.24    0.57
  -1  -7  -6    6.72    0.54
  -1  -7  -6    7.70    0.57
  -1  -7  -5    4.53    0.43
  -1  -7  -5    4.04    0.41
  -1  -7  -5    5.02    0.48
  -1  -7  -4   -0.03    0.13
  -1  -7  -4   -0.11    0.14
  -1  -7  -3    0.02    0.05
  -1  -7  -3    0.09    0.15
  -1  -7  -3   -0.02    0.11
  -1  -7  -2   10.69    0.70
  -1  -7  -2   10.07    0.72
  -1  -7  -1    0.49    0.24
  -1  -7  -1    0.14    0.14
  -1  -7  -1    0.11    0.14
  -1  -7   0    3.07    0.41
  -1  -7   0    2.65    0.29
  -1  -7   0    3.18    0.37
  -1  -7   1    5.98    0.40
  -1  -7   1    6.00    0.52
  -1  -7   1    7.32    0.51
  -1  -7   2    4.04    0.41
  -1  -7   2    3.08    0.33
  -1  -7   2    3.05    0.38
  -1  -7   3   11.43    0.76
  -1  -7   3   12.97    0.78
  -1  -7   4   13.20    0.77
  -1  -7   4   13.64    0.78
  -1  -7   5   21.04    1.00
  -1  -7   6    0.19    0.09
  -1  -6 -11    7.27    0.48
  -1  -6 -10    0.06    0.12
  -1  -6 -10   -0.03    0.13
  -1  -6 -10   -0.02    0.02
  -1  -6  -9    0.67    0.20
  -1  -6  -9    0.62    0.21
  -1  -6  -8    0.08    0.18
  -1  -6  -8   -0.04    0.16
  -1  -6  -8   -0.04    0.18
  -1  -6  -7   29.83    1.64
  -1  -6  -7   32.30    1.64
  -1  -6  -7   28.95    1.61
  -1  -6  -6  132.26    5.72
  -1  -6  -6  139.11    5.72
  -1  -6  -6  136.77    5.71
  -1  -6  -5   27.69    1.56
  -1  -6  -5   29.14    1.59
  -1  -6  -5   26.20    1.53
  -1  -6  -4    4.17    0.50
  -1  -6  -4    4.76    0.57
  -1  -6  -4    4.11    0.44
  -1  -6  -3    6.45    0.64
  -1  -6  -3    7.37    0.62
  -1  -6  -2    9.27    0.67
  -1  -6  -2   10.91    0.79
  -1  -6  -2   11.21    0.86
  -1  -6  -2    8.83    0.73
  -1  -6  -1   13.07    0.92
  -1  -6  -1   12.35    0.94
  -1  -6  -1   12.54    0.97
  -1  -6  -1   11.44    0.78
  -1  -6  -1   11.45    0.78
  -1  -6  -1   12.59    0.87
  -1  -6   0    3.49    0.50
  -1  -6   0    3.45    0.54
  -1  -6   0    3.81    0.42
  -1  -6   0    3.49    0.45
  -1  -6   0    3.19    0.40
  -1  -6   0    2.79    0.43
  -1  -6   1    1.13    0.32
  -1  -6   1    0.73    0.34
  -1  -6   1    0.37    0.21
  -1  -6   1    0.26    0.19
  -1  -6   1    0.72    0.28
  -1  -6   1    0.47    0.26
  -1  -6   2   35.31    1.85
  -1  -6   2   36.89    1.93
  -1  -6   2   34.82    1.76
  -1  -6   2   30.68    1.71
  -1  -6   2   35.13    1.83
  -1  -6   3   44.41    2.22
  -1  -6   3   45.24    2.32
  -1  -6   3   45.40    2.22
  -1  -6   3   45.02    2.18
  -1  -6   4   11.73    1.81
  -1  -6   4   15.44    0.99
  -1  -6   4   13.74    0.94
  -1  -6   4   14.10    1.03
  -1  -6   4   11.87    0.90
  -1  -6   5   42.09    2.03
  -1  -6   5   42.82    2.06
  -1  -6   5   43.34    2.11
  -1  -6   5   39.47    1.97
  -1  -6   6   37.20    1.79
  -1  -6   6   35.31    1.74
  -1  -6   6   38.33    1.77
  -1  -6   6   37.98    1.81
  -1  -6   6   32.77    1.66
  -1  -6   7    6.41    0.53
  -1  -6   7    6.82    0.52
  -1  -6   7    6.93    0.53
  -1  -6   7    6.65    0.54
  -1  -6   8    0.59    0.15
  -1  -6   9    0.10    0.10
  -1  -5 -13   15.38    0.80
  -1  -5 -12   15.28    0.59
  -1  -5 -12   15.58    0.68
  -1  -5 -11    7.46    0.58
  -1  -5 -11    7.02    0.58
  -1  -5 -11    6.02    0.50
  -1  -5 -11    6.64    0.51
  -1  -5 -10    1.18    0.26
  -1  -5 -10    1.13    0.27
  -1  -5 -10    1.52    0.30
  -1  -5  -9   31.60    1.65
  -1  -5  -9   31.61    1.72
  -1  -5  -8  268.60   10.71
  -1  -5  -7   15.03    1.04
  -1  -5  -7   12.61    0.96
  -1  -5  -6  352.92   13.90
  -1  -5  -6  321.65   14.95
  -1  -5  -6  361.70   13.87
  -1  -5  -6  347.31   13.86
  -1  -5  -5   33.38    1.77
  -1  -5  -5   30.66    1.73
  -1  -5  -4   29.80    1.64
  -1  -5  -4   29.44    1.65
  -1  -5  -4   30.51    1.55
  -1  -5  -4   31.40    1.70
  -1  -5  -3    1.21    0.26
  -1  -5  -3    1.16    0.22
  -1  -5  -3    0.94    0.52
  -1  -5  -3    1.11    0.28
  -1  -5  -3    2.10    0.33
  -1  -5  -3    1.34    0.35
  -1  -5  -2    6.14    0.56
  -1  -5  -2    5.95    0.50
  -1  -5  -2    6.18    0.56
  -1  -5  -2    6.51    0.51
  -1  -5  -2    6.41    1.02
  -1  -5  -2    6.48    0.61
  -1  -5  -2    7.23    0.67
  -1  -5  -1    0.71    0.25
  -1  -5  -1    1.16    0.28
  -1  -5  -1    0.96    0.22
  -1  -5  -1    1.01    0.30
  -1  -5  -1    0.42    0.18
  -1  -5   0   30.05    1.58
  -1  -5   0   28.64    1.56
  -1  -5   0   27.23    2.68
  -1  -5   0   30.33    1.65
  -1  -5   0   30.32    1.69
  -1  -5   1    1.29    0.68
  -1  -5   1    1.30    0.34
  -1  -5   1    1.37    0.48
  -1  -5   1    0.67    0.26
  -1  -5   1    0.91    0.29
  -1  -5   2   33.10    3.25
  -1  -5   2   37.31    1.98
  -1  -5   2   32.30    2.51
  -1  -5   2   39.45    1.97
  -1  -5   3    4.08    1.13
  -1  -5   3    5.43    1.18
  -1  -5   3    5.09    0.95
  -1  -5   3    4.57    0.58
  -1  -5   4   63.09    4.87
  -1  -5   4   54.98    3.95
  -1  -5   4   57.34    3.84
  -1  -5   4   63.32    4.29
  -1  -5   4   62.61    2.91
  -1  -5   5    2.59    0.76
  -1  -5   5    1.51    0.65
  -1  -5   5    1.69    0.98
  -1  -5   5    1.53    0.38
  -1  -5   6    0.16    0.40
  -1  -5   6   -0.17    0.35
  -1  -5   6   -0.14    0.23
  -1  -5   7   20.84    2.61
  -1  -5   7   20.44    1.26
  -1  -5   7   22.87    1.35
  -1  -5   8   36.49    1.75
  -1  -5   8   35.98    1.79
  -1  -5   9    0.55    0.22
  -1  -5   9    0.12    0.14
  -1  -5  10   33.04    1.54
  -1  -4 -15    0.27    0.09
  -1  -4 -15    0.16    0.08
  -1  -4 -14    0.46    0.16
  -1  -4 -13   11.56    0.80
  -1  -4 -12    0.04    0.19
  -1  -4 -12    0.18    0.13
  -1  -4 -12    0.12    0.15
  -1  -4 -11    1.77    0.31
  -1  -4 -11    2.47    0.41
  -1  -4 -11    1.92    0.31
  -1  -4 -11    1.43    0.27
  -1  -4 -11    1.82    0.31
  -1  -4 -10   -0.08    0.16
  -1  -4 -10    0.04    0.17
  -1  -4 -10   -0.09    0.23
  -1  -4 -10   -0.12    0.20
  -1  -4  -9   12.31    0.93
  -1  -4  -9   13.65    0.91
  -1  -4  -9   14.62    1.01
  -1  -4  -9   13.31    0.92
  -1  -4  -8    5.49    0.59
  -1  -4  -8    6.77    0.60
  -1  -4  -8    6.13    0.61
  -1  -4  -8    5.35    0.55
  -1  -4  -7   70.54    3.25
  -1  -4  -7   73.61    3.26
  -1  -4  -7   74.54    3.32
  -1  -4  -7   66.41    3.89
  -1  -4  -7   78.54    3.35
  -1  -4  -6   13.84    0.93
  -1  -4  -5    6.12    0.57
  -1  -4  -5    5.67    0.54
  -1  -4  -4   26.50    1.40
  -1  -4  -4   28.49    1.46
  -1  -4  -4   24.33    2.09
  -1  -4  -4   26.57    1.41
  -1  -4  -3   45.87    2.09
  -1  -4  -3   48.73    2.02
  -1  -4  -3   44.45    2.07
  -1  -4  -3   47.75    2.22
  -1  -4  -3   45.95    2.96
  -1  -4  -3   48.26    2.20
  -1  -4  -2   54.23    2.38
  -1  -4  -2   53.48    2.37
  -1  -4  -2   54.31    2.50
  -1  -4  -2   56.95    3.33
  -1  -4  -1  264.44   11.20
  -1  -4  -1  281.93   10.87
  -1  -4  -1  277.10   10.86
  -1  -4  -1  280.17   10.96
  -1  -4  -1  290.07   12.49
  -1  -4   0   18.05    1.40
  -1  -4   0   20.80    1.89
  -1  -4   0   22.51    2.11
  -1  -4   1  218.48    9.65
  -1  -4   1  210.47    8.33
  -1  -4   1  189.86    8.91
  -1  -4   1  203.53    9.86
  -1  -4   2    5.17    1.01
  -1  -4   2    5.47    0.59
  -1  -4   2    4.39    0.82
  -1  -4   2    5.44    1.14
  -1  -4   3    1.53    0.73
  -1  -4   3    1.99    0.39
  -1  -4   3    1.18    0.56
  -1  -4   3    1.04    0.62
  -1  -4   4    9.86    1.51
  -1  -4   4    9.32    0.84
  -1  -4   4    8.05    1.25
  -1  -4   5   13.55    1.79
  -1  -4   5   12.82    1.02
  -1  -4   5    9.80    1.47
  -1  -4   5    8.96    1.71
  -1  -4   6   15.75    1.98
  -1  -4   6   18.07    1.25
  -1  -4   6   13.27    1.83
  -1  -4   6   14.93    2.25
  -1  -4   7    7.52    1.32
  -1  -4   7    5.91    0.69
  -1  -4   7    4.83    1.11
  -1  -4   7    4.18    1.23
  -1  -4   8   -0.28    0.49
  -1  -4   8    0.37    0.37
  -1  -4   9    2.47    0.95
  -1  -4  10    1.59    0.30
  -1  -4  11    6.77    0.59
  -1  -3 -15   10.43    0.64
  -1  -3 -15    8.10    0.55
  -1  -3 -14    2.65    0.37
  -1  -3 -13    2.80    0.44
  -1  -3 -13    3.54    0.39
  -1  -3 -12   57.52    2.64
  -1  -3 -12   48.56    2.32
  -1  -3 -12   51.71    2.44
  -1  -3 -12   55.90    2.46
  -1  -3 -11   19.52    1.11
  -1  -3 -11   20.32    1.31
  -1  -3 -11   21.14    1.22
  -1  -3 -11   19.25    1.12
  -1  -3 -11   20.29    1.19
  -1  -3 -10   94.77    4.24
  -1  -3 -10  113.44    4.56
  -1  -3 -10  101.92    4.29
  -1  -3 -10  100.58    4.29
  -1  -3 -10  102.19    4.38
  -1  -3 -10  102.15    5.37
  -1  -3  -9    9.31    0.72
  -1  -3  -9   10.34    0.75
  -1  -3  -9   12.00    1.36
  -1  -3  -9   10.63    0.79
  -1  -3  -9    9.52    0.71
  -1  -3  -8   37.01    1.85
  -1  -3  -8   38.72    1.88
  -1  -3  -8   38.67    2.60
  -1  -3  -8   38.69    1.90
  -1  -3  -8   39.28    1.84
  -1  -3  -7   16.19    1.47
  -1  -3  -7   14.44    1.24
  -1  -3  -7   17.52    1.00
  -1  -3  -7   16.58    0.98
  -1  -3  -7   14.94    0.93
  -1  -3  -6   60.88    3.27
  -1  -3  -6   66.04    3.42
  -1  -3  -6   61.68    3.72
  -1  -3  -5   13.70    1.20
  -1  -3  -5   16.67    1.53
  -1  -3  -4    0.40    0.30
  -1  -3  -4    0.52    0.33
  -1  -3  -3   34.23    1.90
  -1  -3  -3   34.62    2.24
  -1  -3  -3   31.95    1.41
  -1  -3  -3   31.06    1.40
  -1  -3  -2  313.34   12.19
  -1  -3  -2  311.44   12.09
  -1  -3  -2  317.67   12.10
  -1  -3  -1  582.66   22.88
  -1  -3  -1  562.06   21.74
  -1  -3   0  267.54   10.48
  -1  -3   0  265.69   11.60
  -1  -3   1   40.27    1.88
  -1  -3   1   39.28    2.52
  -1  -3   1   41.01    2.76
  -1  -3   1   35.93    2.24
  -1  -3   2   30.51    1.56
  -1  -3   2   30.81    2.05
  -1  -3   2   26.95    2.23
  -1  -3   2   28.93    2.19
  -1  -3   2   33.33    2.59
  -1  -3   3    2.11    0.54
  -1  -3   3    2.22    0.70
  -1  -3   3    2.85    0.86
  -1  -3   3    2.68    0.78
  -1  -3   4    5.31    0.90
  -1  -3   4    4.83    1.03
  -1  -3   4    5.37    1.17
  -1  -3   4    5.81    1.12
  -1  -3   5   11.23    1.69
  -1  -3   5   11.03    1.63
  -1  -3   5    7.87    1.20
  -1  -3   5    9.95    1.51
  -1  -3   5   12.72    1.27
  -1  -3   6   60.25    3.86
  -1  -3   6   57.74    4.18
  -1  -3   6   56.31    4.29
  -1  -3   6   51.58    4.01
  -1  -3   7   19.71    2.42
  -1  -3   7   20.44    2.51
  -1  -3   7   19.64    2.34
  -1  -3   8    4.38    1.22
  -1  -3   8    6.56    1.45
  -1  -3   9    0.97    0.59
  -1  -3   9    1.37    0.82
  -1  -3   9    1.38    0.78
  -1  -3   9    0.94    0.63
  -1  -3  10   24.83    2.92
  -1  -3  11    7.10    1.49
  -1  -2 -16    1.11    0.17
  -1  -2 -15    0.92    0.20
  -1  -2 -15    0.68    0.17
  -1  -2 -14    7.47    0.62
  -1  -2 -14    6.40    0.58
  -1  -2 -13   48.19    2.45
  -1  -2 -13   50.44    2.40
  -1  -2 -12  221.70    8.76
  -1  -2 -12  210.57    8.81
  -1  -2 -12  220.48    8.93
  -1  -2 -11    3.64    0.50
  -1  -2 -11    3.68    0.45
  -1  -2 -11    3.38    0.42
  -1  -2 -11    3.26    0.46
  -1  -2 -11    3.34    0.81
  -1  -2 -10    0.29    0.45
  -1  -2 -10    0.20    0.22
  -1  -2 -10   -0.16    0.18
  -1  -2 -10    0.10    0.17
  -1  -2 -10    0.06    0.14
  -1  -2 -10    0.09    0.18
  -1  -2  -9  141.88    5.81
  -1  -2  -9  130.84    5.70
  -1  -2  -9  157.20    7.03
  -1  -2  -9  140.42    5.69
  -1  -2  -9  143.47    5.79
  -1  -2  -9  149.52    5.93
  -1  -2  -8    1.44    0.26
  -1  -2  -8    1.47    0.51
  -1  -2  -8    1.28    0.24
  -1  -2  -7   40.04    1.79
  -1  -2  -7   33.66    2.40
  -1  -2  -6    0.54    0.17
  -1  -2  -6    0.97    0.25
  -1  -2  -6    0.42    0.31
  -1  -2  -5   29.58    1.69
  -1  -2  -5   30.43    1.90
  -1  -2  -4  215.69    8.91
  -1  -2  -4  211.10    9.08
  -1  -2  -3   25.57    1.57
  -1  -2  -2  210.12    8.96
  -1  -2  -2  220.37    8.88
  -1  -2  -1 1005.85   38.79
  -1  -2  -1  998.60   38.60
  -1  -2   0    1.46    0.33
  -1  -2   0    1.16    0.45
  -1  -2   0    2.00    0.52
  -1  -2   1  343.14   14.12
  -1  -2   1  346.72   14.50
  -1  -2   1  375.96   14.73
  -1  -2   1  368.89   14.71
  -1  -2   2    0.82    0.31
  -1  -2   2    0.44    0.31
  -1  -2   2    1.00    0.35
  -1  -2   2    0.10    0.32
  -1  -2   2    0.20    0.35
  -1  -2   3  266.08   11.63
  -1  -2   3  278.75   11.82
  -1  -2   3  297.53   11.48
  -1  -2   3  293.20   12.22
  -1  -2   4   60.50    3.37
  -1  -2   4   60.86    3.52
  -1  -2   4   64.92    3.53
  -1  -2   4   68.29    3.16
  -1  -2   4   65.62    3.81
  -1  -2   5  672.13   28.15
  -1  -2   5  708.58   28.38
  -1  -2   5  675.41   28.39
  -1  -2   5  725.43   28.39
  -1  -2   5  761.12   27.74
  -1  -2   5  699.74   28.78
  -1  -2   6    0.16    0.43
  -1  -2   6   -0.13    0.26
  -1  -2   6    0.13    0.36
  -1  -2   6   -0.11    0.33
  -1  -2   6   -0.12    0.28
  -1  -2   7    2.25    0.84
  -1  -2   7    2.10    0.64
  -1  -2   7    3.69    0.87
  -1  -2   7    1.26    0.57
  -1  -2   8    4.79    1.08
  -1  -2   8    7.01    1.40
  -1  -2   9   19.99    2.32
  -1  -2   9   22.17    2.52
  -1  -2   9   19.67    2.50
  -1  -2  10    5.98    1.34
  -1  -2  10    6.06    1.40
  -1  -2  10    7.34    1.59
  -1  -2  11   33.67    3.55
  -1  -1 -16    0.02    0.09
  -1  -1 -15    1.42    0.27
  -1  -1 -15    1.46    0.20
  -1  -1 -14    0.30    0.23
  -1  -1 -14    0.28    0.25
  -1  -1 -14    0.34    0.18
  -1  -1 -14    0.41    0.19
  -1  -1 -13    0.91    0.32
  -1  -1 -13    1.05    0.32
  -1  -1 -13    1.10    0.31
  -1  -1 -12    3.48    0.49
  -1  -1 -12    4.23    0.55
  -1  -1 -12    3.76    0.42
  -1  -1 -12    4.78    0.59
  -1  -1 -12    4.29    0.49
  -1  -1 -11   14.12    0.95
  -1  -1 -11   12.83    1.59
  -1  -1 -11   12.65    0.95
  -1  -1 -11   15.17    0.98
  -1  -1 -11   13.43    0.90
  -1  -1 -11   16.31    1.08
  -1  -1 -10   14.98    0.94
  -1  -1 -10   14.74    1.62
  -1  -1 -10   11.93    0.90
  -1  -1 -10   14.64    0.96
  -1  -1 -10   14.63    1.01
  -1  -1 -10   15.22    0.92
  -1  -1  -9   10.79    0.75
  -1  -1  -9    9.85    0.75
  -1  -1  -9   11.24    1.32
  -1  -1  -9   11.62    0.83
  -1  -1  -9   11.87    0.75
  -1  -1  -9    9.44    0.73
  -1  -1  -8  166.07    7.61
  -1  -1  -7  323.29   13.43
  -1  -1  -6  663.73   26.14
  -1  -1  -5  103.26    4.81
  -1  -1  -5  107.08    4.80
  -1  -1  -4  200.77    8.20
  -1  -1  -4  193.28    8.14
  -1  -1  -3    2.88    0.47
  -1  -1  -3    4.57    0.43
  -1  -1  -2  383.43   14.91
  -1  -1  -1   87.84    3.91
  -1  -1   0  352.86   13.98
  -1  -1   0  352.71   13.79
  -1  -1   0  349.23   14.01
  -1  -1   0  360.87   14.01
  -1  -1   1    2.02    0.30
  -1  -1   1    1.42    0.32
  -1  -1   1    1.47    0.35
  -1  -1   1    2.18    0.36
  -1  -1   1    1.34    0.32
  -1  -1   2 1056.12   40.44
  -1  -1   2 1048.87   40.57
  -1  -1   2 1065.08   40.72
  -1  -1   2 1070.91   40.64
  -1  -1   3  104.31    4.53
  -1  -1   3  107.33    4.71
  -1  -1   4  235.55    9.65
  -1  -1   4  257.59   10.09
  -1  -1   4  236.54    9.82
  -1  -1   5   -0.17    0.29
  -1  -1   5    0.07    0.18
  -1  -1   6    4.78    0.81
  -1  -1   6    3.59    0.63
  -1  -1   6    5.29    0.59
  -1  -1   7   26.42    2.02
  -1  -1   7   31.53    2.32
  -1  -1   8   81.04    4.71
  -1  -1   9   78.95    4.85
  -1  -1  10   75.32    4.94
  -1  -1  11    3.67    1.01
  -1  -1  11    5.63    1.20
  -1  -1  12   69.04    5.45
  -1   0 -15    3.12    0.29
  -1   0 -15    3.33    0.35
  -1   0 -14   16.08    0.68
  -1   0 -14   17.97    0.74
  -1   0 -14   18.86    0.93
  -1   0 -14   17.73    0.86
  -1   0 -14   18.41    0.79
  -1   0 -13    7.75    0.66
  -1   0 -13    7.44    0.65
  -1   0 -13    8.46    0.66
  -1   0 -13    7.93    0.75
  -1   0 -13    7.40    0.64
  -1   0 -13    8.77    0.77
  -1   0 -13    9.21    0.70
  -1   0 -12    0.59    0.29
  -1   0 -12    0.24    0.21
  -1   0 -12    0.24    0.21
  -1   0 -12    0.40    0.21
  -1   0 -12    0.76    0.24
  -1   0 -12    0.54    0.22
  -1   0 -12    1.01    0.34
  -1   0 -11   16.46    1.10
  -1   0 -11   17.77    1.08
  -1   0 -11   17.57    1.18
  -1   0 -11   13.61    1.04
  -1   0 -11   13.02    1.60
  -1   0 -11   17.00    1.16
  -1   0 -10   15.05    1.07
  -1   0 -10   15.10    1.03
  -1   0 -10   15.92    1.05
  -1   0 -10   15.27    0.99
  -1   0 -10   14.21    1.05
  -1   0 -10   15.56    1.65
  -1   0 -10   14.65    0.96
  -1   0  -9   49.82    2.38
  -1   0  -9   46.83    2.45
  -1   0  -9   47.85    2.43
  -1   0  -9   60.17    3.41
  -1   0  -9   52.46    2.32
  -1   0  -9   61.10    2.49
  -1   0  -9   54.83    2.54
  -1   0  -8   91.66    4.44
  -1   0  -8   79.74    3.55
  -1   0  -7    8.48    1.00
  -1   0  -6   15.34    1.26
  -1   0  -5  175.47    7.47
  -1   0  -4  547.37   21.35
  -1   0  -3   28.78    1.43
  -1   0  -3   23.61    1.43
  -1   0  -2  177.05    7.31
  -1   0  -2  186.87    7.17
  -1   0  -1  289.41   11.35
  -1   0  -1  289.92   11.25
  -1   0   0  119.17    4.97
  -1   0   0  127.63    5.04
  -1   0   1  808.73   31.24
  -1   0   1  814.04   31.02
  -1   0   2   28.75    1.52
  -1   0   2   28.48    1.53
  -1   0   2   27.56    1.42
  -1   0   3   56.54    2.70
  -1   0   3   60.69    2.78
  -1   0   3   55.31    2.58
  -1   0   4    8.69    0.71
  -1   0   4    8.05    0.52
  -1   0   4    8.08    0.70
  -1   0   4    9.52    0.70
  -1   0   5   84.43    4.01
  -1   0   5   88.20    3.64
  -1   0   6   18.70    1.50
  -1   0   6   17.99    1.30
  -1   0   7    5.68    0.87
  -1   0   7    7.26    0.94
  -1   0   8   71.86    4.11
  -1   0   8   72.91    4.06
  -1   0   9   17.86    1.74
  -1   0   9   18.27    1.83
  -1   0   9   20.47    1.96
  -1   0  10  785.50   31.83
  -1   0  11  105.22    6.04
  -1   0  12   10.02    1.63
  -1   1 -15   15.98    0.78
  -1   1 -14    0.25    0.17
  -1   1 -14    0.06    0.13
  -1   1 -14    0.08    0.13
  -1   1 -13   13.62    0.97
  -1   1 -13   14.74    0.93
  -1   1 -13   16.23    0.96
  -1   1 -13   15.27    1.01
  -1   1 -13   15.20    0.97
  -1   1 -12    6.34    0.66
  -1   1 -12    6.82    0.60
  -1   1 -12    5.39    0.57
  -1   1 -12    5.51    0.54
  -1   1 -12    7.04    0.64
  -1   1 -12    6.24    0.65
  -1   1 -11   13.99    0.96
  -1   1 -11   14.23    0.98
  -1   1 -11   15.05    1.01
  -1   1 -11   13.23    0.97
  -1   1 -11   13.46    1.04
  -1   1 -11   14.01    0.95
  -1   1 -10    7.40    0.73
  -1   1 -10    7.56    0.70
  -1   1 -10    8.92    0.74
  -1   1 -10    8.97    0.75
  -1   1 -10    8.23    0.78
  -1   1 -10    8.46    0.68
  -1   1  -9   72.53    3.26
  -1   1  -9   71.26    3.08
  -1   1  -9   68.43    3.17
  -1   1  -9   74.47    3.18
  -1   1  -9   63.68    3.16
  -1   1  -9   70.32    3.20
  -1   1  -9   68.04    3.95
  -1   1  -8    0.42    0.31
  -1   1  -8    0.12    0.14
  -1   1  -8    0.30    0.23
  -1   1  -8    0.29    0.21
  -1   1  -8    0.41    0.23
  -1   1  -8   -0.04    0.22
  -1   1  -8    0.20    0.15
  -1   1  -8    0.12    0.18
  -1   1  -8    0.24    0.16
  -1   1  -7    7.08    0.93
  -1   1  -7    7.56    0.64
  -1   1  -7    8.92    0.67
  -1   1  -6    4.78    0.46
  -1   1  -6    5.16    0.70
  -1   1  -5    1.81    0.41
  -1   1  -4    6.38    0.45
  -1   1  -4    8.12    0.73
  -1   1  -3  430.87   16.42
  -1   1  -3  418.00   16.57
  -1   1  -2   37.93    1.78
  -1   1  -1 8266.21  331.06
  -1   1  -1 9968.44  331.48
  -1   1   0   94.99    4.08
  -1   1   0   90.35    4.16
  -1   1   0   95.39    4.00
  -1   1   1  426.30   16.69
  -1   1   1  426.55   16.63
  -1   1   2   72.63    3.56
  -1   1   2   79.52    3.64
  -1   1   2   75.76    3.09
  -1   1   3   34.66    1.96
  -1   1   3   33.17    1.95
  -1   1   3   30.74    1.90
  -1   1   3   28.87    1.83
  -1   1   4   51.32    2.85
  -1   1   4   53.58    2.86
  -1   1   4   52.96    2.83
  -1   1   5  119.29    5.52
  -1   1   5  114.39    5.44
  -1   1   6    5.05    0.79
  -1   1   6    5.17    0.79
  -1   1   7  115.85    5.89
  -1   1   7  129.83    6.03
  -1   1   7  130.35    6.29
  -1   1   7  118.78    5.67
  -1   1   8   56.19    3.75
  -1   1   8   54.48    3.35
  -1   1   8   51.41    3.28
  -1   1   9   24.21    2.20
  -1   1   9   25.55    2.17
  -1   1   9   25.43    2.34
  -1   1  10   21.96    2.17
  -1   1  10   19.87    1.98
  -1   1  10   17.49    2.28
  -1   1  10   17.40    2.03
  -1   1  11   19.64    2.21
  -1   1  11   25.19    2.87
  -1   1  11   19.85    2.20
  -1   1  12    3.91    1.02
  -1   1  13   52.97    4.38
  -1   2 -14   11.13    0.67
  -1   2 -14   11.68    0.69
  -1   2 -14   10.80    0.61
  -1   2 -13    9.04    0.67
  -1   2 -13    9.45    0.71
  -1   2 -13    8.16    0.59
  -1   2 -12  170.39    6.94
  -1   2 -12  180.47    7.12
  -1   2 -12  166.16    6.88
  -1   2 -11    0.96    0.27
  -1   2 -11    1.32    0.26
  -1   2 -11    1.91    0.31
  -1   2 -10   28.48    1.57
  -1   2 -10   32.86    1.71
  -1   2 -10   30.84    1.56
  -1   2 -10   28.29    1.66
  -1   2  -9    1.96    0.41
  -1   2  -9    2.05    0.39
  -1   2  -9    2.13    0.32
  -1   2  -9    2.59    0.40
  -1   2  -9    1.63    0.33
  -1   2  -9    2.57    0.46
  -1   2  -8    1.99    0.39
  -1   2  -8    1.59    0.33
  -1   2  -8    2.04    0.37
  -1   2  -8    1.47    0.26
  -1   2  -8    1.44    0.32
  -1   2  -8    1.57    0.35
  -1   2  -8    2.10    0.35
  -1   2  -7    0.47    0.23
  -1   2  -7    0.34    0.23
  -1   2  -7    0.17    0.21
  -1   2  -7    0.75    0.24
  -1   2  -7    0.52    0.16
  -1   2  -7    0.50    0.21
  -1   2  -7    0.66    0.25
  -1   2  -7    0.50    0.22
  -1   2  -6    1.55    0.28
  -1   2  -6    1.67    0.29
  -1   2  -6    1.57    0.26
  -1   2  -6    1.52    0.34
  -1   2  -6    1.77    0.30
  -1   2  -6    1.14    0.27
  -1   2  -5   20.67    1.40
  -1   2  -5   20.89    1.41
  -1   2  -4   15.71    1.18
  -1   2  -4   16.36    1.06
  -1   2  -4   17.49    1.12
  -1   2  -3  184.61    7.80
  -1   2  -3  182.92    7.54
  -1   2  -2  117.80    5.44
  -1   2  -2  126.64    5.30
  -1   2  -1   22.40    1.51
  -1   2  -1   20.99    1.37
  -1   2   0    8.65    0.58
  -1   2   0    6.05    0.65
  -1   2   0    9.07    0.55
  -1   2   0    9.16    0.89
  -1   2   0    8.13    0.83
  -1   2   0    8.77    0.81
  -1   2   1    6.89    0.51
  -1   2   1    7.23    0.53
  -1   2   1    6.64    0.77
  -1   2   1    7.14    0.86
  -1   2   2   70.10    3.37
  -1   2   2   84.58    3.88
  -1   2   2   81.85    4.03
  -1   2   2   78.82    3.31
  -1   2   2   87.67    3.90
  -1   2   2   81.23    3.69
  -1   2   2   83.64    4.11
  -1   2   3   34.63    1.95
  -1   2   3   37.71    1.73
  -1   2   3   37.34    2.18
  -1   2   3   37.70    2.44
  -1   2   3   35.86    1.73
  -1   2   3   39.37    2.24
  -1   2   4   16.75    1.33
  -1   2   4   17.81    1.03
  -1   2   4   17.49    1.00
  -1   2   4   18.45    1.66
  -1   2   4   20.21    1.46
  -1   2   4   19.76    1.68
  -1   2   4   18.86    1.72
  -1   2   4   18.97    1.68
  -1   2   4   20.75    1.09
  -1   2   4   17.69    1.43
  -1   2   4   20.88    1.40
  -1   2   5   21.34    1.62
  -1   2   5   19.01    1.08
  -1   2   5   19.32    1.13
  -1   2   5   20.76    1.87
  -1   2   5   18.62    1.78
  -1   2   5   21.43    1.48
  -1   2   5   20.94    1.62
  -1   2   5   22.40    1.89
  -1   2   5   22.77    1.90
  -1   2   6   34.18    2.40
  -1   2   6   32.91    1.71
  -1   2   6   37.29    2.73
  -1   2   6   35.61    2.73
  -1   2   6   31.02    2.07
  -1   2   6   31.64    2.26
  -1   2   6   34.63    2.63
  -1   2   6   37.63    2.71
  -1   2   7  166.03    8.12
  -1   2   7  170.15    7.01
  -1   2   7  177.79    8.45
  -1   2   7  170.70    7.88
  -1   2   7  173.80    8.42
  -1   2   7  172.34    8.36
  -1   2   8   32.77    1.73
  -1   2   8   29.95    2.61
  -1   2   8   31.86    2.42
  -1   2   8   26.46    2.51
  -1   2   8   32.33    2.77
  -1   2   9   23.73    2.44
  -1   2   9   27.84    2.52
  -1   2   9   26.29    1.52
  -1   2   9   29.25    2.62
  -1   2   9   21.96    2.53
  -1   2  10    3.24    0.94
  -1   2  10    3.90    1.20
  -1   2  10    3.56    1.08
  -1   2  10    3.53    1.00
  -1   2  10    2.85    0.81
  -1   2  11   17.30    2.48
  -1   2  11   15.71    1.95
  -1   2  11   15.23    2.30
  -1   2  11   14.10    1.13
  -1   2  11   13.14    1.88
  -1   2  12   18.92    1.31
  -1   2  12   16.84    1.22
  -1   2  12   18.37    2.18
  -1   2  13   12.71    1.01
  -1   3 -13    4.67    0.37
  -1   3 -13    2.68    0.23
  -1   3 -12   16.39    0.92
  -1   3 -12   13.33    0.76
  -1   3 -11   10.15    0.74
  -1   3 -11    8.89    0.62
  -1   3 -10    3.32    0.39
  -1   3 -10    4.11    0.50
  -1   3  -9    0.10    0.25
  -1   3  -9   -0.10    0.20
  -1   3  -9   -0.06    0.13
  -1   3  -9    0.13    0.20
  -1   3  -8    0.77    0.31
  -1   3  -8    0.29    0.21
  -1   3  -8    0.63    0.25
  -1   3  -8    0.37    0.17
  -1   3  -8    0.86    0.25
  -1   3  -8    1.01    0.27
  -1   3  -7   21.77    1.18
  -1   3  -7   23.77    1.42
  -1   3  -7   21.00    1.27
  -1   3  -7   23.22    1.39
  -1   3  -7   23.04    1.33
  -1   3  -7   23.39    1.33
  -1   3  -6    6.27    0.50
  -1   3  -6    7.05    0.68
  -1   3  -6    6.24    0.62
  -1   3  -6    5.97    0.58
  -1   3  -6    6.91    0.63
  -1   3  -6    6.17    0.58
  -1   3  -5   17.84    1.16
  -1   3  -5   19.72    1.13
  -1   3  -5   17.57    1.05
  -1   3  -5   15.91    1.44
  -1   3  -5   19.64    1.15
  -1   3  -5   20.01    1.11
  -1   3  -4  118.21    4.91
  -1   3  -4  118.99    4.84
  -1   3  -4  113.26    5.52
  -1   3  -4  119.75    5.01
  -1   3  -4  117.06    4.95
  -1   3  -3   16.39    1.03
  -1   3  -3   15.89    1.38
  -1   3  -3   16.57    1.33
  -1   3  -3   15.78    1.02
  -1   3  -3   16.69    1.46
  -1   3  -2   52.11    3.04
  -1   3  -2   53.30    2.43
  -1   3  -2   46.15    2.77
  -1   3  -2   53.37    2.96
  -1   3  -1    0.10    0.28
  -1   3  -1    0.23    0.15
  -1   3  -1    0.44    0.28
  -1   3  -1    0.25    0.27
  -1   3   0   19.18    1.03
  -1   3   0   18.18    1.50
  -1   3   1    2.90    0.61
  -1   3   1    3.72    0.63
  -1   3   1    3.30    0.43
  -1   3   1    3.67    0.45
  -1   3   1    2.62    0.58
  -1   3   1    3.87    0.72
  -1   3   1    3.13    0.62
  -1   3   1    4.06    0.42
  -1   3   2    7.96    0.93
  -1   3   2    7.12    0.62
  -1   3   2    7.32    1.00
  -1   3   2    7.64    0.64
  -1   3   2    7.39    1.00
  -1   3   2    6.97    1.05
  -1   3   2    7.30    0.64
  -1   3   3   12.54    1.25
  -1   3   3   15.39    1.43
  -1   3   3   10.36    1.30
  -1   3   3   13.67    0.90
  -1   3   3   11.83    1.33
  -1   3   3   13.90    1.50
  -1   3   3   11.93    0.90
  -1   3   4  115.89    5.58
  -1   3   4  119.47    5.77
  -1   3   4  116.03    4.92
  -1   3   4  110.13    5.64
  -1   3   4  123.25    6.13
  -1   3   4  111.39    5.92
  -1   3   5  348.17   13.60
  -1   3   5  354.39   13.63
  -1   3   5  330.89   13.57
  -1   3   5  353.27   14.41
  -1   3   5  360.90   14.68
  -1   3   5  307.38   14.78
  -1   3   5  347.71   15.56
  -1   3   6   54.80    3.89
  -1   3   6   55.86    4.25
  -1   3   6   56.69    2.79
  -1   3   6   62.67    2.87
  -1   3   6   58.22    2.79
  -1   3   6   53.86    3.53
  -1   3   6   53.65    3.36
  -1   3   7    6.04    1.26
  -1   3   7    7.38    1.47
  -1   3   7    6.27    0.68
  -1   3   7    6.87    0.78
  -1   3   7    5.81    1.06
  -1   3   7    6.53    1.34
  -1   3   8    3.86    1.12
  -1   3   8    3.62    1.19
  -1   3   8    4.31    0.60
  -1   3   8    4.23    0.67
  -1   3   8    4.19    0.94
  -1   3   8    5.46    1.23
  -1   3   9   10.40    0.97
  -1   3   9    9.05    1.68
  -1   3   9    7.91    0.81
  -1   3   9    8.82    1.63
  -1   3  10    3.03    0.56
  -1   3  10    2.39    0.52
  -1   3  10    2.51    0.43
  -1   3  11   -0.43    0.89
  -1   3  11   -0.28    0.49
  -1   3  11   -0.06    0.29
  -1   3  11    0.06    0.26
  -1   3  12    0.79    0.32
  -1   3  12    0.52    0.27
  -1   3  13    1.77    0.37
  -1   3  13    1.10    0.30
  -1   3  14    0.74    0.24
  -1   4 -12    2.79    0.26
  -1   4 -11    0.88    0.18
  -1   4 -11    0.67    0.19
  -1   4 -10    0.08    0.18
  -1   4 -10    0.02    0.05
  -1   4 -10    0.35    0.18
  -1   4  -9    1.35    0.28
  -1   4  -9    1.85    0.29
  -1   4  -8    2.14    0.41
  -1   4  -8    1.58    0.34
  -1   4  -8    1.90    0.32
  -1   4  -7   37.64    2.00
  -1   4  -7   35.94    1.85
  -1   4  -7   38.37    1.93
  -1   4  -6   16.46    1.13
  -1   4  -6   14.84    0.98
  -1   4  -6   17.35    1.08
  -1   4  -6   13.90    0.95
  -1   4  -5    2.80    0.41
  -1   4  -5    3.32    0.50
  -1   4  -5    2.80    0.39
  -1   4  -4    1.33    0.32
  -1   4  -4    1.47    0.30
  -1   4  -3    3.21    0.45
  -1   4  -3    2.97    0.46
  -1   4  -3    3.25    0.51
  -1   4  -2   -0.14    0.33
  -1   4  -2    0.23    0.28
  -1   4  -2    0.12    0.21
  -1   4  -2    0.14    0.22
  -1   4  -2   -0.10    0.25
  -1   4  -1   21.54    1.98
  -1   4  -1   21.50    1.28
  -1   4  -1   20.92    1.32
  -1   4  -1   17.37    1.73
  -1   4  -1   20.40    1.84
  -1   4   0    0.05    0.25
  -1   4   0    0.14    0.26
  -1   4   0    0.51    0.38
  -1   4   0    0.04    0.18
  -1   4   0   -0.12    0.23
  -1   4   1   12.26    0.94
  -1   4   1   11.13    0.84
  -1   4   1   11.31    0.94
  -1   4   1   11.14    0.94
  -1   4   1   11.23    0.80
  -1   4   1   12.75    1.43
  -1   4   1   11.67    1.39
  -1   4   1   11.61    1.46
  -1   4   2   61.09    2.78
  -1   4   2   53.17    2.56
  -1   4   2   50.91    3.35
  -1   4   2   49.01    3.43
  -1   4   2   52.35    2.65
  -1   4   2   57.48    2.78
  -1   4   2   56.79    2.58
  -1   4   2   55.29    3.58
  -1   4   2   54.05    2.70
  -1   4   3   22.65    2.04
  -1   4   3   24.83    1.50
  -1   4   3   25.74    1.59
  -1   4   3   23.66    1.49
  -1   4   3   25.94    1.42
  -1   4   3   22.47    2.08
  -1   4   3   22.04    1.46
  -1   4   4    0.14    0.27
  -1   4   4   -0.16    0.35
  -1   4   4   -0.18    0.39
  -1   4   4    0.05    0.27
  -1   4   4   -0.06    0.31
  -1   4   4    0.05    0.37
  -1   4   4    0.36    0.53
  -1   4   4   -0.14    0.29
  -1   4   4    0.06    0.27
  -1   4   5    0.66    0.49
  -1   4   5    1.20    0.64
  -1   4   5    1.31    0.39
  -1   4   5    1.17    0.48
  -1   4   5    0.97    0.70
  -1   4   5    1.03    0.35
  -1   4   6   -0.17    0.38
  -1   4   6    0.36    0.35
  -1   4   6   -0.22    0.39
  -1   4   6   -0.13    0.35
  -1   4   6    0.42    0.56
  -1   4   6    0.41    0.31
  -1   4   7   20.59    2.16
  -1   4   7   19.52    1.39
  -1   4   7   23.40    1.54
  -1   4   7   17.69    2.31
  -1   4   7   22.02    1.42
  -1   4   7   18.39    2.38
  -1   4   8   -0.25    0.36
  -1   4   8    0.30    0.30
  -1   4   8   -0.07    0.34
  -1   4   8    0.07    0.33
  -1   4   8    0.05    0.23
  -1   4   8    0.36    0.40
  -1   4   9    1.93    0.43
  -1   4   9    1.76    0.80
  -1   4   9    1.79    0.75
  -1   4   9    2.15    0.50
  -1   4   9    1.93    0.48
  -1   4  10  175.19    6.95
  -1   4  10  163.95    6.89
  -1   4  10  153.54    8.43
  -1   4  10  153.14    6.69
  -1   4  11   11.48    0.93
  -1   4  11   11.17    0.94
  -1   4  11   11.91    0.95
  -1   4  12    6.93    0.65
  -1   4  12    6.78    0.63
  -1   4  13    0.44    0.23
  -1   5  -9    1.04    0.17
  -1   5  -9    0.80    0.16
  -1   5  -8    2.61    0.34
  -1   5  -8    2.52    0.31
  -1   5  -8    2.81    0.33
  -1   5  -7    0.74    0.26
  -1   5  -6    0.38    0.16
  -1   5  -6    0.21    0.23
  -1   5  -5    0.18    0.13
  -1   5  -5    0.19    0.26
  -1   5  -5    0.42    0.15
  -1   5  -4    1.67    0.29
  -1   5  -4    1.41    0.26
  -1   5  -3    0.47    0.20
  -1   5  -3   -0.04    0.19
  -1   5  -2   18.85    1.16
  -1   5  -2   20.37    1.30
  -1   5  -2   17.88    1.22
  -1   5  -1   32.52    1.85
  -1   5  -1   33.22    1.80
  -1   5  -1   29.80    2.48
  -1   5   0    4.97    0.63
  -1   5   0    4.50    0.54
  -1   5   0    3.60    0.84
  -1   5   1    7.55    0.77
  -1   5   1    6.83    0.68
  -1   5   1    8.27    1.26
  -1   5   2    3.90    0.50
  -1   5   2    4.18    0.52
  -1   5   2    4.11    0.59
  -1   5   2    4.19    0.93
  -1   5   2    4.00    0.58
  -1   5   3    2.32    0.44
  -1   5   3    0.95    0.26
  -1   5   3    1.51    0.40
  -1   5   3    0.17    0.39
  -1   5   3    2.44    0.47
  -1   5   4    0.58    0.26
  -1   5   4    0.18    0.31
  -1   5   4    0.34    0.28
  -1   5   4    0.39    0.30
  -1   5   5    2.27    0.49
  -1   5   5    1.98    0.46
  -1   5   5    1.91    0.38
  -1   5   5    1.83    0.41
  -1   5   5    2.02    0.36
  -1   5   5    2.68    0.53
  -1   5   6    2.91    0.58
  -1   5   6    3.40    0.43
  -1   5   6    3.25    0.50
  -1   5   6    2.46    0.50
  -1   5   6    3.48    0.50
  -1   5   7    0.66    0.28
  -1   5   7    0.39    0.30
  -1   5   7    0.10    0.26
  -1   5   7    0.44    0.36
  -1   5   8   37.44    1.96
  -1   5   8   44.27    2.12
  -1   5   9    0.05    0.21
  -1   5   9    0.39    0.22
  -1   5  10   23.70    1.33
  -1   5  10   25.85    1.40
  -1   5  10   21.98    1.30
  -1   5  11    0.03    0.19
  -1   5  11   -0.06    0.18
  -1   6  -7    0.04    0.06
  -1   6  -6    1.70    0.23
  -1   6  -5    0.16    0.16
  -1   6  -4   -0.02    0.04
  -1   6  -3    7.51    0.54
  -1   6  -2   -0.04    0.20
  -1   6  -2    0.06    0.12
  -1   6  -1   29.17    1.57
  -1   6  -1   28.73    1.49
  -1   6   0    0.21    0.23
  -1   6   0    0.46    0.19
  -1   6   1    5.05    0.50
  -1   6   1    5.63    0.60
  -1   6   2    0.25    0.25
  -1   6   2   -0.07    0.17
  -1   6   3    0.04    0.21
  -1   6   3    0.11    0.16
  -1   6   4    1.13    0.25
  -1   6   4    1.55    0.32
  -1   6   5   13.96    0.66
  -1   6   5   14.57    0.76
  -1   6   5   13.07    0.74
  -1   6   6    1.88    0.24
  -1   6   6    2.12    0.35
  -1   6   6    2.58    0.32
  -1   6   7    2.86    0.35
  -1   6   7    2.15    0.25
  -1   6   8    0.75    0.22
  -1   6   8   -0.02    0.03
  -1   6   9    0.71    0.16
  -1   7  -1   -0.01    0.08
  -1   7   0    0.06    0.10
  -1   7   1    0.16    0.11
  -1   7   2    3.46    0.29
   0  -7  -8    0.27    0.08
   0  -7  -7    0.61    0.13
   0  -7  -6   12.75    0.70
   0  -7  -6   11.46    0.66
   0  -7  -5   44.30    1.85
   0  -7  -5   37.73    1.76
   0  -7  -4   10.26    0.62
   0  -7  -4   10.05    0.60
   0  -7  -3    1.06    0.23
   0  -7  -3    1.11    0.19
   0  -7  -2    1.97    0.30
   0  -7  -2    2.34    0.29
   0  -7  -1    1.22    0.25
   0  -7  -1    1.21    0.22
   0  -7   0    1.55    0.26
   0  -7   0    1.79    0.27
   0  -7   1    0.59    0.18
   0  -7   1    1.08    0.22
   0  -7   2    0.85    0.17
   0  -7   4    9.39    0.56
   0  -6 -11    3.62    0.26
   0  -6 -10    1.34    0.21
   0  -6 -10    1.24    0.17
   0  -6 -10    1.65    0.22
   0  -6  -9    0.39    0.18
   0  -6  -8   14.26    0.89
   0  -6  -8   13.35    0.88
   0  -6  -7  101.60    4.21
   0  -6  -7   94.50    4.11
   0  -6  -6    1.65    0.33
   0  -6  -6    1.86    0.28
   0  -6  -5  163.94    6.54
   0  -6  -5  164.36    6.56
   0  -6  -5  152.66    6.43
   0  -6  -5  153.28    6.37
   0  -6  -4    9.40    0.79
   0  -6  -4    9.02    0.72
   0  -6  -4    9.32    0.72
   0  -6  -3   15.64    1.04
   0  -6  -3   16.21    1.09
   0  -6  -3   16.75    1.04
   0  -6  -3   14.46    0.98
   0  -6  -2    0.73    0.23
   0  -6  -2    1.23    0.26
   0  -6  -2    1.22    0.31
   0  -6  -2    1.27    0.33
   0  -6  -1   -0.15    0.16
   0  -6  -1   -0.04    0.20
   0  -6  -1    0.14    0.24
   0  -6  -1    0.17    0.14
   0  -6   0    0.03    0.15
   0  -6   0   -0.04    0.15
   0  -6   0   -0.04    0.15
   0  -6   0    0.12    0.14
   0  -6   0    0.27    0.25
   0  -6   0   -0.09    0.23
   0  -6   1    6.82    0.61
   0  -6   1    6.22    0.54
   0  -6   1    6.33    0.56
   0  -6   1    6.63    0.61
   0  -6   1    6.73    0.62
   0  -6   1    8.08    0.71
   0  -6   1    7.54    0.70
   0  -6   2    0.61    0.20
   0  -6   2    0.42    0.20
   0  -6   2    0.48    0.24
   0  -6   2    0.19    0.19
   0  -6   2    0.57    0.26
   0  -6   2    0.38    0.23
   0  -6   3    6.90    0.62
   0  -6   3    7.15    0.62
   0  -6   3    6.15    0.57
   0  -6   3    5.75    0.59
   0  -6   3    5.42    0.52
   0  -6   3    6.88    0.67
   0  -6   4    0.23    0.19
   0  -6   4   -0.03    0.17
   0  -6   4   -0.03    0.14
   0  -6   4    0.21    0.24
   0  -6   5   21.00    1.16
   0  -6   5   18.52    1.10
   0  -6   5   21.66    1.17
   0  -6   6   -0.13    0.17
   0  -6   6    0.06    0.15
   0  -6   6    0.08    0.14
   0  -6   7    0.78    0.19
   0  -6   7    0.44    0.15
   0  -6   7    0.39    0.16
   0  -6   8    2.83    0.26
   0  -5 -13    0.50    0.12
   0  -5 -12    3.16    0.29
   0  -5 -12    3.36    0.32
   0  -5 -11   -0.06    0.16
   0  -5 -11   -0.03    0.14
   0  -5 -11    0.03    0.12
   0  -5 -10    2.10    0.33
   0  -5 -10    2.23    0.36
   0  -5 -10    1.58    0.31
   0  -5  -9    0.04    0.22
   0  -5  -9   -0.04    0.23
   0  -5  -9    0.12    0.20
   0  -5  -8   11.28    0.84
   0  -5  -8   10.15    0.85
   0  -5  -8   11.44    0.88
   0  -5  -7    0.04    0.19
   0  -5  -7   -0.05    0.22
   0  -5  -7    0.03    0.16
   0  -5  -7   -0.14    0.24
   0  -5  -6   52.82    2.49
   0  -5  -6   55.43    2.63
   0  -5  -6   54.40    2.58
   0  -5  -5    0.27    0.24
   0  -5  -5    0.16    0.19
   0  -5  -5   -0.13    0.21
   0  -5  -4    2.19    0.39
   0  -5  -4    3.22    0.43
   0  -5  -4    3.00    0.48
   0  -5  -3    1.72    0.34
   0  -5  -3    1.74    0.30
   0  -5  -3    2.08    0.39
   0  -5  -2   18.47    1.07
   0  -5  -2   19.03    1.09
   0  -5  -2   18.70    1.21
   0  -5  -2   19.68    1.19
   0  -5  -2   16.90    1.06
   0  -5  -1    5.12    0.52
   0  -5  -1    4.70    0.48
   0  -5  -1    3.97    0.44
   0  -5  -1    4.65    0.49
   0  -5  -1    4.99    0.55
   0  -5  -1    4.24    0.42
   0  -5  -1    5.68    0.61
   0  -5  -1    4.95    0.56
   0  -5   0  104.81    4.49
   0  -5   0  109.06    4.52
   0  -5   0   91.17    5.69
   0  -5   0  109.20    4.65
   0  -5   0  107.29    4.58
   0  -5   1    1.44    0.37
   0  -5   1    1.59    0.34
   0  -5   1    1.43    0.35
   0  -5   1    1.19    0.29
   0  -5   1    0.76    0.51
   0  -5   1    1.14    0.47
   0  -5   1    0.94    0.30
   0  -5   1    0.91    0.29
   0  -5   2   52.85    2.45
   0  -5   2   49.23    2.40
   0  -5   2   52.11    2.48
   0  -5   2   50.63    2.44
   0  -5   2   45.08    3.74
   0  -5   2   43.74    3.22
   0  -5   2   49.94    2.49
   0  -5   2   48.71    2.39
   0  -5   3    0.83    0.30
   0  -5   3    0.52    0.26
   0  -5   3    0.70    0.66
   0  -5   3    0.47    0.38
   0  -5   3    0.10    0.26
   0  -5   3    1.22    0.29
   0  -5   4    0.61    0.30
   0  -5   4    0.21    0.22
   0  -5   4    0.75    0.61
   0  -5   4    0.33    0.41
   0  -5   4    0.10    0.22
   0  -5   4   -0.07    0.16
   0  -5   5    5.59    1.08
   0  -5   5    5.40    0.58
   0  -5   5    3.87    0.48
   0  -5   5    3.98    0.52
   0  -5   5    5.20    1.28
   0  -5   6    0.83    0.50
   0  -5   6    1.30    0.69
   0  -5   6    1.90    0.33
   0  -5   6    1.54    0.32
   0  -5   6    1.18    0.26
   0  -5   6    1.39    0.32
   0  -5   7    1.52    0.76
   0  -5   7    1.36    0.27
   0  -5   7    1.11    0.27
   0  -5   7    1.13    0.27
   0  -5   7    1.53    0.28
   0  -5   8    4.88    0.44
   0  -5   8    4.63    0.49
   0  -5   8    4.56    0.46
   0  -5   8    3.98    0.43
   0  -5   9    0.12    0.14
   0  -5   9    0.21    0.14
   0  -5  10    0.90    0.17
   0  -4 -14    5.95    0.45
   0  -4 -13    2.33    0.33
   0  -4 -12    1.50    0.28
   0  -4 -12    1.12    0.28
   0  -4 -12    1.21    0.24
   0  -4 -11   37.99    1.91
   0  -4 -11   37.96    1.85
   0  -4 -11   37.48    1.88
   0  -4 -10    7.36    0.68
   0  -4 -10    6.84    0.63
   0  -4 -10    6.69    0.64
   0  -4  -9  101.50    4.42
   0  -4  -8    1.85    0.37
   0  -4  -8    2.83    0.47
   0  -4  -8    1.99    0.39
   0  -4  -7   23.07    1.33
   0  -4  -7   23.50    1.37
   0  -4  -7   20.67    1.21
   0  -4  -7   24.69    1.40
   0  -4  -6   15.14    1.01
   0  -4  -6   15.17    0.96
   0  -4  -6   16.98    1.08
   0  -4  -6   17.01    1.10
   0  -4  -5    8.94    0.72
   0  -4  -5    9.90    0.73
   0  -4  -5   10.54    0.78
   0  -4  -4    2.58    0.37
   0  -4  -4    2.46    0.30
   0  -4  -4    2.78    0.36
   0  -4  -3    7.13    0.61
   0  -4  -3    7.25    0.54
   0  -4  -3    7.46    0.54
   0  -4  -3    6.79    0.61
   0  -4  -3    7.42    0.61
   0  -4  -3    7.98    0.66
   0  -4  -2   19.82    1.11
   0  -4  -2   21.52    1.08
   0  -4  -2   20.58    1.11
   0  -4  -2   18.40    1.03
   0  -4  -2   18.99    1.06
   0  -4  -2   21.60    1.21
   0  -4  -2   19.20    1.00
   0  -4  -2   22.48    1.19
   0  -4  -2   19.69    1.14
   0  -4  -1   45.17    3.06
   0  -4  -1   47.06    2.72
   0  -4  -1   49.00    2.22
   0  -4  -1   48.87    2.17
   0  -4  -1   47.31    2.15
   0  -4  -1   46.34    2.25
   0  -4  -1   48.50    2.24
   0  -4   0  182.37    8.32
   0  -4   0  166.66    7.65
   0  -4   0  179.88    7.06
   0  -4   0  167.10    6.96
   0  -4   1   93.43    4.00
   0  -4   1   94.63    4.02
   0  -4   1   92.17    4.76
   0  -4   1   95.70    5.33
   0  -4   1   95.47    4.03
   0  -4   2    3.46    0.45
   0  -4   2    2.95    0.41
   0  -4   2    1.54    0.55
   0  -4   2    2.45    0.54
   0  -4   2    3.88    0.96
   0  -4   2    2.92    0.40
   0  -4   3    8.21    0.65
   0  -4   3    6.27    0.63
   0  -4   3    7.38    1.13
   0  -4   3    7.79    1.38
   0  -4   3    6.70    0.62
   0  -4   4    0.15    0.36
   0  -4   4    0.44    0.25
   0  -4   4    0.08    0.22
   0  -4   4   -0.22    0.55
   0  -4   5    0.94    0.52
   0  -4   5    0.76    0.25
   0  -4   5    0.25    0.49
   0  -4   6    4.09    0.94
   0  -4   6    4.59    0.51
   0  -4   6    4.70    1.00
   0  -4   6    4.00    1.17
   0  -4   7   15.83    1.00
   0  -4   7   15.40    1.05
   0  -4   7   16.22    1.96
   0  -4   8    6.39    1.21
   0  -4   8    8.27    1.71
   0  -4   8    7.86    0.66
   0  -4   8    8.62    0.72
   0  -4   9    0.56    0.68
   0  -4   9    0.57    0.22
   0  -4  10    0.06    0.14
   0  -4  11    5.60    0.49
   0  -3 -15   -0.08    0.12
   0  -3 -14    0.20    0.12
   0  -3 -13    7.23    0.60
   0  -3 -13    7.50    0.56
   0  -3 -12   38.64    2.01
   0  -3 -12   35.94    1.83
   0  -3 -12   36.37    1.80
   0  -3 -11  250.57   10.31
   0  -3 -11  269.06   10.43
   0  -3 -11  271.79   10.49
   0  -3 -10    2.09    0.33
   0  -3 -10    2.30    0.32
   0  -3 -10    2.17    0.35
   0  -3 -10    2.12    0.39
   0  -3  -9    1.26    0.28
   0  -3  -9    1.36    0.32
   0  -3  -8   78.12    3.23
   0  -3  -8   66.82    3.09
   0  -3  -8   74.37    3.24
   0  -3  -7    1.95    0.34
   0  -3  -7    1.75    0.32
   0  -3  -6    5.99    0.51
   0  -3  -6    5.97    0.54
   0  -3  -6    5.95    0.53
   0  -3  -5    0.06    0.15
   0  -3  -4   52.52    2.20
   0  -3  -3  172.91    6.74
   0  -3  -3  171.59    6.73
   0  -3  -2   32.92    2.01
   0  -3  -2   29.99    2.01
   0  -3  -2   32.38    1.51
   0  -3  -2   34.03    1.48
   0  -3  -2   33.44    1.51
   0  -3  -2   33.27    1.48
   0  -3  -1   31.20    2.03
   0  -3  -1   31.36    1.39
   0  -3  -1   32.03    1.78
   0  -3  -1   29.72    1.76
   0  -3   0  270.70   11.00
   0  -3   0  265.83   11.41
   0  -3   1    0.37    0.29
   0  -3   1    0.19    0.24
   0  -3   1    0.14    0.14
   0  -3   2   65.95    2.92
   0  -3   2   68.97    4.17
   0  -3   3    7.96    1.09
   0  -3   3    7.48    0.59
   0  -3   3    7.78    1.29
   0  -3   3    7.77    1.23
   0  -3   4   58.88    4.05
   0  -3   4   54.67    3.96
   0  -3   4   62.80    3.62
   0  -3   5   60.28    4.29
   0  -3   5   63.47    4.38
   0  -3   5   65.34    4.13
   0  -3   5   57.86    3.63
   0  -3   6  210.08   10.16
   0  -3   6  196.71   10.07
   0  -3   6  199.57    9.64
   0  -3   6  185.63    8.94
   0  -3   7    0.50    0.66
   0  -3   7    0.48    0.54
   0  -3   8    5.08    1.32
   0  -3   8    4.80    1.25
   0  -3   9    0.51    0.57
   0  -3   9   -0.28    0.48
   0  -3   9    0.53    0.56
   0  -3  10    2.44    0.78
   0  -3  11    6.80    1.46
   0  -2 -15    0.07    0.13
   0  -2 -15   -0.03    0.15
   0  -2 -14    3.08    0.41
   0  -2 -14    3.78    0.44
   0  -2 -13    0.73    0.21
   0  -2 -13    0.56    0.18
   0  -2 -13    0.75    0.26
   0  -2 -13    0.75    0.28
   0  -2 -12    0.76    0.21
   0  -2 -12    1.31    0.36
   0  -2 -12    0.97    0.25
   0  -2 -11    8.74    0.73
   0  -2 -11    8.81    0.69
   0  -2 -11    8.97    0.66
   0  -2 -11    9.19    0.70
   0  -2 -10   14.34    0.90
   0  -2 -10   14.43    0.97
   0  -2 -10   13.64    0.89
   0  -2 -10   13.66    0.87
   0  -2  -9   20.96    1.17
   0  -2  -9   21.58    1.18
   0  -2  -9   22.10    1.26
   0  -2  -9   22.05    1.19
   0  -2  -9   23.08    1.22
   0  -2  -8    0.20    0.18
   0  -2  -8    0.59    0.33
   0  -2  -8    0.44    0.16
   0  -2  -8    0.27    0.14
   0  -2  -7  175.91    7.12
   0  -2  -7  185.28    7.82
   0  -2  -6  650.58   25.46
   0  -2  -5  569.74   22.24
   0  -2  -4   45.23    2.22
   0  -2  -3  116.08    4.69
   0  -2  -3  109.76    5.02
   0  -2  -2    5.19    0.57
   0  -2  -2    5.30    0.59
   0  -2  -2    6.64    0.43
   0  -2  -1  181.49    6.70
   0  -2  -1  179.22    6.60
   0  -2  -1  161.94    6.43
   0  -2  -1  176.42    6.96
   0  -2  -1  156.81    6.33
   0  -2   0   26.88    1.37
   0  -2   0   27.97    1.60
   0  -2   0   24.86    1.15
   0  -2   1  200.65    8.86
   0  -2   1  209.97    8.62
   0  -2   2   14.14    1.31
   0  -2   2   13.86    1.33
   0  -2   2   16.42    1.34
   0  -2   2   13.17    1.14
   0  -2   3  692.33   27.05
   0  -2   3  682.13   27.06
   0  -2   3  685.36   26.87
   0  -2   3  662.11   26.58
   0  -2   4   52.43    3.29
   0  -2   4   56.42    3.39
   0  -2   4   52.73    3.18
   0  -2   5  113.59    5.65
   0  -2   5  106.04    5.58
   0  -2   5   94.49    4.87
   0  -2   5  110.43    5.43
   0  -2   6   25.73    2.31
   0  -2   6   24.29    2.24
   0  -2   6   19.58    1.72
   0  -2   6   22.16    2.07
   0  -2   7    4.85    1.10
   0  -2   7    5.50    1.10
   0  -2   7    3.37    0.72
   0  -2   7    5.71    1.09
   0  -2   8    2.12    0.80
   0  -2   8    1.66    0.72
   0  -2   8    1.25    0.67
   0  -2   9   24.13    2.68
   0  -2   9   24.61    2.68
   0  -2  10   24.45    2.79
   0  -2  11   40.67    3.29
   0  -2  12    7.94    1.63
   0  -1 -16   12.45    0.67
   0  -1 -15    5.20    0.48
   0  -1 -15    5.13    0.45
   0  -1 -14   14.63    0.72
   0  -1 -14   15.27    0.84
   0  -1 -14   16.04    0.83
   0  -1 -13   23.65    1.33
   0  -1 -13   21.01    1.16
   0  -1 -13   24.26    1.44
   0  -1 -13   25.31    1.43
   0  -1 -13   23.88    1.28
   0  -1 -12   11.05    0.86
   0  -1 -12   13.23    0.99
   0  -1 -12   11.05    0.91
   0  -1 -12   11.87    0.83
   0  -1 -11    4.40    0.54
   0  -1 -11    5.51    0.47
   0  -1 -11    4.84    0.59
   0  -1 -11    4.84    0.50
   0  -1 -10   31.96    1.60
   0  -1 -10   29.67    1.51
   0  -1 -10   28.19    1.46
   0  -1 -10   29.71    1.53
   0  -1 -10   30.97    1.69
   0  -1  -9   41.25    1.89
   0  -1  -9   38.99    1.91
   0  -1  -9   39.33    1.92
   0  -1  -9   39.91    1.88
   0  -1  -9   39.83    1.84
   0  -1  -9   44.78    2.82
   0  -1  -8  172.42    7.76
   0  -1  -7   94.38    4.55
   0  -1  -6   38.00    1.71
   0  -1  -6   41.06    2.25
   0  -1  -5    1.05    0.31
   0  -1  -4  189.72    7.72
   0  -1  -3  550.28   21.19
   0  -1  -2   12.85    0.72
   0  -1  -1  145.06    5.79
   0  -1  -1  148.40    5.83
   0  -1  -1  158.70    5.89
   0  -1   0   98.09    4.20
   0  -1   1  217.76    8.55
   0  -1   1  224.37    8.61
   0  -1   1  212.57    8.61
   0  -1   1  214.13    8.41
   0  -1   1  207.80    8.26
   0  -1   2  871.27   33.12
   0  -1   2  872.04   33.11
   0  -1   2  853.29   33.27
   0  -1   3   64.38    2.84
   0  -1   4   85.54    3.69
   0  -1   5   17.25    1.07
   0  -1   6   12.39    0.88
   0  -1   7    5.53    0.92
   0  -1   8    1.97    0.66
   0  -1   9   48.11    3.17
   0  -1  10    0.42    0.52
   0  -1  11  495.86   21.84
   0   0 -15    0.06    0.17
   0   0 -15   -0.04    0.06
   0   0 -14   56.54    1.47
   0   0 -14   60.34    1.65
   0   0 -14   59.08    1.46
   0   0 -14   58.27    1.36
   0   0 -13    1.16    0.33
   0   0 -13    0.76    0.30
   0   0 -13    0.94    0.22
   0   0 -13    1.07    0.27
   0   0 -13    0.62    0.24
   0   0 -13    0.76    0.21
   0   0 -13    1.10    0.31
   0   0 -12   24.16    1.44
   0   0 -12   25.10    1.32
   0   0 -12   22.61    1.41
   0   0 -12   22.36    1.34
   0   0 -12   23.52    1.33
   0   0 -12   27.02    1.55
   0   0 -12   26.89    1.40
   0   0 -12   24.88    1.46
   0   0 -11    0.74    0.31
   0   0 -11    1.16    0.36
   0   0 -11    0.71    0.25
   0   0 -11    0.64    0.23
   0   0 -11    1.00    0.29
   0   0 -11    0.83    0.25
   0   0 -11    0.67    0.27
   0   0 -10   22.81    1.31
   0   0 -10   21.41    1.32
   0   0 -10   22.63    1.26
   0   0 -10   22.66    1.33
   0   0 -10   21.24    1.21
   0   0  -9   38.90    1.90
   0   0  -9   38.73    1.93
   0   0  -9   36.77    1.82
   0   0  -9   42.47    1.99
   0   0  -9   38.50    1.86
   0   0  -8  174.20    7.86
   0   0  -7    0.55    0.27
   0   0  -7    0.17    0.26
   0   0  -6   72.32    3.59
   0   0  -6   74.47    3.63
   0   0  -5   21.09    1.35
   0   0  -5   22.45    1.41
   0   0  -4   12.90    0.88
   0   0  -4   12.30    0.89
   0   0  -3    3.00    0.34
   0   0  -3    3.26    0.38
   0   0  -2  728.36   27.25
   0   0  -2  700.94   27.26
   0   0  -1    0.65    0.09
   0   0  -1    0.64    0.09
   0   0   1    0.48    0.08
   0   0   2  673.09   25.46
   0   0   3    2.94    0.17
   0   0   4   11.58    0.58
   0   0   5   16.48    0.75
   0   0   6   74.03    3.84
   0   0   7    0.12    0.31
   0   0   8  179.08    8.63
   0   0   9   38.84    3.25
   0   0  10   23.58    2.06
   0   0  11    1.08    0.61
   0   0  12   23.81    3.13
   0   1 -15    2.87    0.29
   0   1 -14    2.93    0.34
   0   1 -14    2.33    0.37
   0   1 -14    2.44    0.34
   0   1 -14    1.81    0.28
   0   1 -13   13.39    0.91
   0   1 -13   16.57    0.97
   0   1 -13   14.32    0.88
   0   1 -13   15.44    1.03
   0   1 -13   13.15    0.93
   0   1 -13   14.60    1.03
   0   1 -13   15.01    1.02
   0   1 -12   39.53    2.07
   0   1 -12   41.58    2.05
   0   1 -12   44.39    2.24
   0   1 -12   41.21    2.00
   0   1 -12   41.81    2.11
   0   1 -12   40.65    2.19
   0   1 -12   45.54    2.21
   0   1 -11  464.36   18.48
   0   1 -11  485.87   18.42
   0   1 -11  464.13   18.36
   0   1 -11  484.69   18.68
   0   1 -11  480.90   18.50
   0   1 -11  481.61   18.61
   0   1 -11  459.25   18.52
   0   1 -10    0.13    0.23
   0   1 -10    0.48    0.27
   0   1 -10    0.45    0.26
   0   1 -10    0.21    0.21
   0   1 -10    0.58    0.23
   0   1 -10    0.43    0.21
   0   1 -10    0.09    0.23
   0   1  -9   56.64    2.65
   0   1  -9   59.64    2.59
   0   1  -9   54.98    2.66
   0   1  -9   56.77    2.71
   0   1  -9   57.85    2.57
   0   1  -9   59.25    2.66
   0   1  -8    1.31    0.28
   0   1  -8    1.63    0.28
   0   1  -8    1.47    0.29
   0   1  -8    1.30    0.23
   0   1  -8    1.36    0.27
   0   1  -7    6.37    0.82
   0   1  -6   17.33    1.33
   0   1  -6   14.80    1.21
   0   1  -5   18.46    1.33
   0   1  -5   20.62    1.34
   0   1  -4   94.17    4.30
   0   1  -4  100.57    3.97
   0   1  -4   97.55    4.29
   0   1  -3   65.81    2.95
   0   1  -3   71.24    2.97
   0   1  -3   63.94    2.75
   0   1  -2  873.81   33.58
   0   1  -2  888.30   33.57
   0   1  -2  874.24   33.49
   0   1  -2  887.30   33.51
   0   1  -1  216.37    8.40
   0   1  -1  216.68    8.44
   0   1  -1  218.07    8.45
   0   1   0   98.26    3.97
   0   1   0   99.04    4.05
   0   1   1  146.31    6.14
   0   1   1  166.34    6.27
   0   1   1  154.66    6.19
   0   1   1  159.73    6.15
   0   1   2   13.26    0.83
   0   1   2   12.66    0.73
   0   1   2   14.16    0.80
   0   1   2   12.93    0.81
   0   1   2   14.08    0.90
   0   1   3  560.30   21.77
   0   1   3  557.31   21.60
   0   1   3  557.80   21.49
   0   1   3  572.02   21.61
   0   1   3  581.25   21.79
   0   1   3  549.95   21.62
   0   1   4  188.54    7.43
   0   1   4  189.83    7.58
   0   1   4  189.04    7.64
   0   1   5    1.00    0.16
   0   1   5    1.70    0.33
   0   1   5    1.28    0.27
   0   1   6   39.85    2.17
   0   1   6   39.92    2.03
   0   1   7   94.86    4.45
   0   1   8  173.35    8.47
   0   1   8  175.45    7.66
   0   1   9   44.37    3.52
   0   1   9   43.44    2.70
   0   1   9   46.55    3.34
   0   1  10   32.69    2.97
   0   1  11    6.42    1.60
   0   1  11    5.03    1.26
   0   1  12   14.94    2.47
   0   1  12    8.80    1.74
   0   1  13   19.71    2.79
   0   2 -14    2.28    0.28
   0   2 -14    2.04    0.29
   0   2 -13   34.05    1.71
   0   2 -13   33.89    1.78
   0   2 -12    8.34    0.78
   0   2 -12    8.44    0.72
   0   2 -12    6.77    0.68
   0   2 -12    7.66    0.70
   0   2 -11   39.60    2.02
   0   2 -11   43.15    2.06
   0   2 -11   41.12    2.14
   0   2 -11   46.66    2.32
   0   2 -11   42.07    2.18
   0   2 -11   40.62    2.14
   0   2 -10   29.63    1.59
   0   2 -10   29.75    1.57
   0   2 -10   28.81    1.67
   0   2 -10   30.16    1.67
   0   2  -9   25.60    1.47
   0   2  -9   29.50    1.49
   0   2  -9   27.26    1.55
   0   2  -9   26.16    1.52
   0   2  -8    1.31    0.31
   0   2  -8    2.53    0.37
   0   2  -8    1.82    0.33
   0   2  -8    1.74    0.32
   0   2  -8    1.44    0.27
   0   2  -8    1.94    0.34
   0   2  -8    1.34    0.29
   0   2  -8    2.08    0.36
   0   2  -7    3.76    0.66
   0   2  -7    5.05    0.50
   0   2  -7    4.40    0.48
   0   2  -7    5.18    0.48
   0   2  -7    5.70    0.47
   0   2  -7    4.92    0.48
   0   2  -6   21.89    1.58
   0   2  -5  102.21    4.44
   0   2  -5  105.61    4.73
   0   2  -4   54.72    2.59
   0   2  -4   53.12    2.64
   0   2  -3  658.21   25.86
   0   2  -3  637.89   25.88
   0   2  -3  716.21   25.87
   0   2  -2   15.14    0.98
   0   2  -2   13.57    0.94
   0   2  -2   13.21    0.84
   0   2  -1  203.64    8.17
   0   2  -1  194.56    8.15
   0   2  -1  204.82    7.92
   0   2   0   25.37    1.39
   0   2   0   24.28    1.15
   0   2   0   26.43    1.52
   0   2   0   26.18    1.45
   0   2   1  158.69    7.40
   0   2   1  175.58    7.21
   0   2   1  183.62    7.41
   0   2   1  177.39    7.51
   0   2   1  178.77    7.18
   0   2   2    6.35    0.76
   0   2   2    4.91    0.54
   0   2   2    6.92    0.78
   0   2   2    5.66    0.57
   0   2   2    5.53    0.59
   0   2   3  118.16    5.19
   0   2   3  110.91    5.17
   0   2   3  108.29    5.13
   0   2   3  111.26    4.83
   0   2   3  112.84    4.92
   0   2   4   43.84    2.63
   0   2   4   46.25    2.48
   0   2   4   41.95    2.62
   0   2   4   43.87    2.35
   0   2   4   42.16    2.43
   0   2   4   45.21    2.60
   0   2   5  549.19   21.83
   0   2   5  560.38   22.24
   0   2   5  555.83   21.70
   0   2   5  549.63   22.04
   0   2   5  558.24   21.54
   0   2   5  531.68   21.97
   0   2   5  548.01   22.06
   0   2   6  635.18   24.89
   0   2   6  634.75   25.41
   0   2   6  635.48   24.72
   0   2   6  621.12   24.38
   0   2   6  610.35   25.05
   0   2   6  619.08   25.15
   0   2   6  639.44   25.15
   0   2   7  177.50    7.88
   0   2   7  167.79    8.34
   0   2   7  174.48    7.67
   0   2   7  173.47    8.09
   0   2   7  174.06    8.26
   0   2   7  175.08    8.01
   0   2   8    0.34    0.42
   0   2   8   -0.12    0.28
   0   2   8    0.85    0.54
   0   2   8    0.14    0.30
   0   2   8    0.12    0.28
   0   2   9   25.57    2.26
   0   2   9   22.66    2.04
   0   2   9   25.28    2.55
   0   2  10   15.42    1.70
   0   2  10   17.62    2.27
   0   2  10   12.91    1.80
   0   2  11    7.05    1.66
   0   2  11    6.34    1.48
   0   2  11    8.90    1.47
   0   2  12    1.70    1.02
   0   2  13    0.94    0.70
   0   2  14    3.20    0.53
   0   3 -14   11.17    0.58
   0   3 -14   12.57    0.66
   0   3 -13    0.34    0.14
   0   3 -12   13.08    0.82
   0   3 -12   13.97    0.91
   0   3 -11    7.87    0.62
   0   3 -11    7.07    0.67
   0   3 -11    7.81    0.75
   0   3 -10    4.29    0.47
   0   3 -10    3.22    0.39
   0   3 -10    4.23    0.51
   0   3 -10    4.32    0.59
   0   3  -9    0.98    0.28
   0   3  -9    0.85    0.23
   0   3  -9    1.15    0.26
   0   3  -9    0.91    0.30
   0   3  -8    5.01    0.56
   0   3  -8    4.96    0.54
   0   3  -8    5.52    0.51
   0   3  -8    4.41    0.53
   0   3  -8    4.58    0.56
   0   3  -7    0.34    0.21
   0   3  -7    0.17    0.23
   0   3  -7    0.10    0.15
   0   3  -7    0.21    0.18
   0   3  -7    0.55    0.23
   0   3  -6  186.19    7.83
   0   3  -6  207.24    7.95
   0   3  -6  199.75    7.82
   0   3  -6  196.70    7.91
   0   3  -6  193.77    7.90
   0   3  -5   57.56    2.70
   0   3  -5   56.22    3.06
   0   3  -5   55.77    3.00
   0   3  -5   62.89    2.70
   0   3  -5   60.26    2.67
   0   3  -4   55.61    2.93
   0   3  -4   54.18    2.73
   0   3  -3    6.71    0.63
   0   3  -2   70.10    3.07
   0   3  -2   72.26    3.52
   0   3  -1    0.23    0.10
   0   3  -1    0.14    0.18
   0   3  -1    0.14    0.17
   0   3   0  264.01   10.41
   0   3   0  250.92   10.97
   0   3   0  268.61   10.87
   0   3   0  269.58   10.36
   0   3   0  269.04   10.35
   0   3   1   30.35    1.50
   0   3   1   31.39    1.46
   0   3   1   29.63    1.90
   0   3   1   31.12    1.91
   0   3   1   29.53    1.44
   0   3   2   31.50    1.95
   0   3   2   33.54    1.63
   0   3   2   33.58    1.66
   0   3   2   33.52    1.61
   0   3   2   35.42    2.08
   0   3   2   33.88    2.11
   0   3   2   31.18    2.31
   0   3   2   33.89    2.31
   0   3   2   31.92    2.08
   0   3   2   32.76    1.57
   0   3   3  175.56    6.88
   0   3   3  170.17    6.94
   0   3   3  169.18    7.56
   0   3   3  170.04    7.43
   0   3   3  162.26    7.90
   0   3   3  177.74    8.02
   0   3   3  168.32    7.24
   0   3   4   52.25    3.46
   0   3   4   47.67    3.35
   0   3   4   50.33    2.97
   0   3   4   53.65    3.36
   0   3   4   54.94    2.43
   0   3   4   52.19    2.45
   0   3   5    0.04    0.18
   0   3   5   -0.04    0.18
   0   3   5    0.20    0.27
   0   3   5   -0.16    0.44
   0   3   5   -0.15    0.37
   0   3   5    0.14    0.39
   0   3   5    0.09    0.20
   0   3   5   -0.14    0.31
   0   3   6    6.83    0.62
   0   3   6    6.79    0.65
   0   3   6    5.18    0.87
   0   3   6    7.69    1.35
   0   3   6    6.48    1.26
   0   3   6    7.34    1.22
   0   3   6    6.58    0.86
   0   3   6    4.42    1.00
   0   3   7    1.41    0.36
   0   3   7    1.45    0.32
   0   3   7    2.27    0.59
   0   3   7    1.47    0.70
   0   3   7    1.04    0.69
   0   3   7    2.32    0.71
   0   3   7    2.13    0.73
   0   3   8   80.12    3.56
   0   3   8   80.66    3.66
   0   3   8   76.25    4.50
   0   3   8   76.38    5.40
   0   3   8   82.01    5.43
   0   3   8   73.15    4.80
   0   3   8   81.34    5.09
   0   3   9    0.28    0.56
   0   3   9    1.83    0.87
   0   3   9    1.06    0.79
   0   3   9    1.71    0.77
   0   3   9    1.46    0.66
   0   3   9    1.75    0.36
   0   3   9    1.65    0.40
   0   3  10    2.83    1.22
   0   3  10    2.92    1.06
   0   3  10    2.50    0.44
   0   3  10    2.25    0.88
   0   3  11  271.78   13.25
   0   3  11  273.45   14.58
   0   3  11  300.55   14.57
   0   3  12   34.95    1.97
   0   3  12   36.11    3.89
   0   3  12   35.52    3.27
   0   3  12   33.56    3.11
   0   3  13    7.36    0.80
   0   3  14    0.30    0.23
   0   4 -12    3.09    0.33
   0   4 -12    2.56    0.24
   0   4 -11    5.78    0.55
   0   4 -11    5.08    0.48
   0   4 -11    5.33    0.43
   0   4 -10    0.06    0.14
   0   4 -10    0.19    0.19
   0   4 -10   -0.05    0.20
   0   4 -10    0.14    0.12
   0   4  -9    0.88    0.24
   0   4  -9    0.53    0.20
   0   4  -9    0.54    0.19
   0   4  -9    0.72    0.25
   0   4  -9    0.86    0.27
   0   4  -8    8.02    0.73
   0   4  -8    8.49    0.65
   0   4  -8    9.94    0.78
   0   4  -7   15.25    1.02
   0   4  -7   13.91    0.90
   0   4  -7   14.83    1.01
   0   4  -7   14.96    1.03
   0   4  -6    4.30    0.50
   0   4  -6    3.87    0.42
   0   4  -6    4.19    0.49
   0   4  -6    4.48    0.55
   0   4  -5    0.84    0.33
   0   4  -5    0.20    0.25
   0   4  -5    0.59    0.18
   0   4  -5    0.86    0.25
   0   4  -5    0.83    0.20
   0   4  -5    0.68    0.22
   0   4  -5    1.16    0.31
   0   4  -4    0.44    0.33
   0   4  -4    0.32    0.16
   0   4  -4    0.14    0.14
   0   4  -4    0.26    0.13
   0   4  -4   -0.04    0.22
   0   4  -3    6.41    0.64
   0   4  -3    6.20    0.94
   0   4  -3    6.99    0.52
   0   4  -3    6.81    0.66
   0   4  -2    2.78    0.67
   0   4  -2    3.57    0.69
   0   4  -2    4.05    0.50
   0   4  -2    2.53    0.42
   0   4  -1   95.35    4.98
   0   4  -1   94.00    4.13
   0   4  -1   92.55    4.80
   0   4  -1   93.70    4.12
   0   4   0  175.83    6.95
   0   4   0  170.97    7.11
   0   4   0  167.45    7.89
   0   4   1   50.04    2.33
   0   4   1   49.49    3.14
   0   4   1   48.34    2.41
   0   4   1   51.34    2.41
   0   4   2   19.56    1.29
   0   4   2   21.23    1.18
   0   4   2   20.01    1.22
   0   4   2   18.02    1.23
   0   4   2   19.16    1.16
   0   4   2   16.40    1.62
   0   4   2   20.19    1.24
   0   4   3    7.55    0.71
   0   4   3    6.20    0.71
   0   4   3    7.61    0.67
   0   4   3    6.93    1.25
   0   4   3    6.25    0.68
   0   4   3    7.99    0.69
   0   4   3    7.91    1.10
   0   4   3    7.36    1.07
   0   4   3    8.42    1.15
   0   4   4    2.13    0.40
   0   4   4    2.49    0.47
   0   4   4    2.69    0.46
   0   4   4    2.48    0.45
   0   4   4    2.36    0.60
   0   4   4    2.52    0.71
   0   4   4    2.06    0.75
   0   4   4    1.87    0.75
   0   4   4    2.80    0.43
   0   4   4    2.59    0.69
   0   4   5   10.00    0.84
   0   4   5    8.62    1.55
   0   4   5    9.28    0.84
   0   4   5    8.87    0.84
   0   4   5    9.92    0.87
   0   4   5   10.71    0.90
   0   4   5   10.65    0.85
   0   4   5   10.99    1.30
   0   4   5   11.42    1.48
   0   4   5   10.23    0.78
   0   4   5    9.86    1.33
   0   4   6   15.71    1.12
   0   4   6   11.40    1.81
   0   4   6   15.03    1.13
   0   4   6   17.50    1.19
   0   4   6   16.04    1.10
   0   4   6   15.63    1.16
   0   4   6   15.60    1.12
   0   4   6   14.04    1.67
   0   4   6   12.55    1.46
   0   4   6   12.27    1.79
   0   4   6   15.18    1.85
   0   4   6   14.85    1.00
   0   4   7   24.20    2.29
   0   4   7   23.14    1.44
   0   4   7   22.19    1.50
   0   4   7   24.19    1.54
   0   4   7   22.94    1.47
   0   4   7   22.64    2.51
   0   4   7   22.49    2.41
   0   4   7   21.49    2.66
   0   4   8    2.81    0.77
   0   4   8    3.22    0.57
   0   4   8    3.03    1.07
   0   4   8    3.40    1.00
   0   4   8    2.77    0.93
   0   4   8    2.93    0.52
   0   4   8    3.47    0.51
   0   4   9  101.65    4.54
   0   4   9   95.90    4.44
   0   4   9  101.74    6.73
   0   4   9   95.28    6.12
   0   4  10    6.79    0.76
   0   4  10    6.49    0.70
   0   4  10    8.33    0.83
   0   4  10    7.16    1.42
   0   4  10    6.44    1.35
   0   4  10    5.11    1.43
   0   4  11   36.96    3.73
   0   4  11   41.53    2.17
   0   4  11   38.13    2.07
   0   4  11   34.86    3.22
   0   4  11   34.88    3.21
   0   4  11   36.23    2.06
   0   4  12    1.52    0.36
   0   4  12    0.73    0.31
   0   4  12    1.71    0.35
   0   4  13    2.93    0.46
   0   5 -10   -0.01    0.02
   0   5 -10    0.01    0.03
   0   5  -9    0.02    0.07
   0   5  -9    0.39    0.17
   0   5  -9    0.59    0.17
   0   5  -8    4.32    0.37
   0   5  -8    3.97    0.43
   0   5  -8    3.67    0.43
   0   5  -8    4.87    0.47
   0   5  -7    1.13    0.29
   0   5  -7    1.17    0.21
   0   5  -7    1.21    0.26
   0   5  -7    1.79    0.32
   0   5  -6    0.88    0.31
   0   5  -6    1.08    0.26
   0   5  -6    1.75    0.25
   0   5  -5    4.38    0.54
   0   5  -5    3.77    0.38
   0   5  -5    3.97    0.41
   0   5  -4   -0.13    0.22
   0   5  -4    0.05    0.23
   0   5  -4    0.32    0.27
   0   5  -4    0.22    0.12
   0   5  -4    0.11    0.13
   0   5  -3    0.14    0.28
   0   5  -3    0.46    0.26
   0   5  -3    0.47    0.20
   0   5  -2   47.64    3.34
   0   5  -2   48.76    2.53
   0   5  -2   55.13    2.62
   0   5  -2   49.66    2.41
   0   5  -1    1.38    0.56
   0   5  -1    1.06    0.39
   0   5  -1    0.98    0.34
   0   5  -1    1.05    0.27
   0   5   0  100.15    4.37
   0   5   0   88.93    5.26
   0   5   1    5.16    0.57
   0   5   1    5.77    0.59
   0   5   1    4.39    0.95
   0   5   1    5.71    0.65
   0   5   1    3.78    0.87
   0   5   2   17.47    1.23
   0   5   2   20.38    1.21
   0   5   2   16.28    1.18
   0   5   2   18.06    1.22
   0   5   2   17.79    1.16
   0   5   2   19.15    1.33
   0   5   2   16.92    1.91
   0   5   2   18.17    1.97
   0   5   3    1.57    0.33
   0   5   3    1.30    0.57
   0   5   3    1.80    0.40
   0   5   3    1.72    0.46
   0   5   3    1.98    0.46
   0   5   3    1.81    0.42
   0   5   3    1.47    0.44
   0   5   4    3.00    0.85
   0   5   4    2.43    0.40
   0   5   4    4.01    0.90
   0   5   4    2.25    0.69
   0   5   4    2.76    0.47
   0   5   4    1.81    0.42
   0   5   4    3.05    0.54
   0   5   4    2.92    0.54
   0   5   4    2.48    0.45
   0   5   5    0.18    0.36
   0   5   5   -0.05    0.17
   0   5   5    0.16    0.27
   0   5   5   -0.35    0.56
   0   5   5    0.06    0.27
   0   5   5    0.05    0.29
   0   5   5    0.14    0.31
   0   5   5    0.05    0.23
   0   5   6   51.19    2.59
   0   5   6   53.96    2.55
   0   5   6   53.97    2.76
   0   5   6   51.43    2.69
   0   5   6   53.20    2.69
   0   5   6   47.07    3.41
   0   5   6   51.64    3.82
   0   5   6   53.21    2.80
   0   5   6   51.83    3.76
   0   5   7    0.13    0.30
   0   5   7   -0.06    0.29
   0   5   7   -0.06    0.31
   0   5   7    0.14    0.34
   0   5   7    0.18    0.41
   0   5   8   11.09    0.97
   0   5   8   10.29    1.64
   0   5   8   10.03    0.95
   0   5   8   10.01    0.93
   0   5   8   10.55    0.95
   0   5   9    0.19    0.43
   0   5   9    0.17    0.28
   0   5   9    0.17    0.26
   0   5   9   -0.06    0.28
   0   5   9   -0.11    0.29
   0   5  10    1.61    0.38
   0   5  10    2.33    0.42
   0   5  10    1.97    0.39
   0   5  11    0.57    0.28
   0   5  11   -0.04    0.20
   0   5  11   -0.04    0.17
   0   5  11   -0.04    0.18
   0   5  12    3.56    0.42
   0   5  13    0.50    0.21
   0   6  -8    2.47    0.24
   0   6  -7   -0.03    0.04
   0   6  -7    0.71    0.18
   0   6  -6    0.11    0.16
   0   6  -5   21.55    1.22
   0   6  -5   22.89    1.25
   0   6  -4   -0.12    0.19
   0   6  -3    6.06    0.61
   0   6  -3    5.84    0.52
   0   6  -2    0.54    0.30
   0   6  -2    0.42    0.26
   0   6  -2    0.44    0.18
   0   6  -1    6.28    0.68
   0   6  -1    7.24    0.72
   0   6  -1    7.16    0.63
   0   6   0    0.15    0.23
   0   6   1   -0.04    0.17
   0   6   2    0.85    0.32
   0   6   2    0.97    0.38
   0   6   2    1.52    0.32
   0   6   3   11.93    0.92
   0   6   3   15.22    1.05
   0   6   3   15.08    1.13
   0   6   3   15.37    1.01
   0   6   4    9.19    0.77
   0   6   4    8.43    0.76
   0   6   4    8.76    0.87
   0   6   4    9.59    0.77
   0   6   5  161.76    6.63
   0   6   5  160.03    6.55
   0   6   5  150.07    6.52
   0   6   5  169.38    6.80
   0   6   6    2.87    0.47
   0   6   6    3.23    0.40
   0   6   6    2.51    0.42
   0   6   6    2.66    0.37
   0   6   6    2.74    0.51
   0   6   7   91.05    3.66
   0   6   7  102.66    3.80
   0   6   7  102.65    3.79
   0   6   8   12.96    0.91
   0   6   8   12.50    0.82
   0   6   8   13.71    0.96
   0   6   8   12.84    0.87
   0   6   8   12.56    0.90
   0   6   9    0.26    0.18
   0   6   9    0.47    0.21
   0   6   9    0.43    0.23
   0   6   9    0.57    0.20
   0   6  10    1.18    0.22
   0   6  10    1.36    0.26
   0   6  10    1.51    0.22
   0   6  11    4.21    0.34
   0   7  -4    7.96    0.48
   0   7  -3    8.38    0.53
   0   7  -3    8.46    0.54
   0   7  -2    0.76    0.16
   0   7  -2    0.91    0.21
   0   7  -1    0.99    0.17
   0   7  -1    0.74    0.22
   0   7   0    1.68    0.29
   0   7   1    0.90    0.22
   0   7   2    1.91    0.34
   0   7   2    1.68    0.27
   0   7   3    1.12    0.27
   0   7   3    1.17    0.21
   0   7   4   13.04    0.79
   0   7   4    9.48    0.60
   0   7   5   47.52    2.15
   0   7   6   12.26    0.73
   0   7   7    0.52    0.14
   1  -7  -2    2.95    0.25
   1  -7  -1    0.19    0.09
   1  -7   1   -0.01    0.07
   1  -6  -9    0.66    0.15
   1  -6  -8    0.35    0.16
   1  -6  -8    0.40    0.15
   1  -6  -7    2.60    0.32
   1  -6  -7    1.99    0.30
   1  -6  -7    2.06    0.25
   1  -6  -6    2.31    0.28
   1  -6  -6    1.86    0.31
   1  -6  -5   15.37    0.90
   1  -6  -5   15.58    0.95
   1  -6  -4    0.88    0.24
   1  -6  -4    1.57    0.29
   1  -6  -3   -0.03    0.16
   1  -6  -3    0.07    0.17
   1  -6  -2    0.25    0.15
   1  -6  -2    0.11    0.17
   1  -6  -1    5.10    0.48
   1  -6  -1    7.03    0.58
   1  -6   0    0.54    0.21
   1  -6   0    0.73    0.21
   1  -6   0    0.79    0.25
   1  -6   1   28.56    1.41
   1  -6   1   25.67    1.34
   1  -6   1   24.37    1.33
   1  -6   2   -0.03    0.18
   1  -6   2   -0.11    0.11
   1  -6   2    0.15    0.19
   1  -6   2   -0.03    0.14
   1  -6   3    8.97    0.67
   1  -6   3    8.42    0.62
   1  -6   3    8.84    0.66
   1  -6   4    0.06    0.14
   1  -6   4    0.08    0.14
   1  -6   4   -0.23    0.18
   1  -6   5    0.25    0.14
   1  -6   5    0.42    0.15
   1  -6   5    0.54    0.19
   1  -6   6    1.70    0.23
   1  -6   6    1.54    0.19
   1  -5 -12    0.49    0.11
   1  -5 -11   -0.05    0.08
   1  -5 -11   -0.09    0.13
   1  -5 -10   23.44    1.20
   1  -5  -9    0.21    0.12
   1  -5  -9    0.36    0.18
   1  -5  -9    0.21    0.20
   1  -5  -8   36.93    1.80
   1  -5  -8   37.51    1.84
   1  -5  -8   40.12    1.94
   1  -5  -7    0.54    0.22
   1  -5  -7    0.64    0.23
   1  -5  -7    0.39    0.26
   1  -5  -6    2.97    0.42
   1  -5  -6    3.54    0.43
   1  -5  -6    2.84    0.45
   1  -5  -5    1.99    0.37
   1  -5  -5    1.89    0.33
   1  -5  -5    2.41    0.42
   1  -5  -4    0.40    0.19
   1  -5  -4    0.22    0.21
   1  -5  -4    0.13    0.16
   1  -5  -4   -0.05    0.23
   1  -5  -3    1.86    0.39
   1  -5  -3    1.60    0.31
   1  -5  -3    2.39    0.43
   1  -5  -2    5.50    0.60
   1  -5  -2    4.31    0.45
   1  -5  -2    4.73    0.52
   1  -5  -1    6.73    0.56
   1  -5  -1    8.17    0.73
   1  -5  -1    6.67    0.63
   1  -5  -1    6.53    0.59
   1  -5  -1    6.26    0.62
   1  -5   0    5.32    0.56
   1  -5   0    4.87    0.55
   1  -5   0    3.94    0.48
   1  -5   0    4.92    0.56
   1  -5   0    4.31    0.47
   1  -5   0    5.30    0.63
   1  -5   0    4.93    0.55
   1  -5   1   30.67    1.75
   1  -5   1   35.31    1.83
   1  -5   1   33.25    1.78
   1  -5   1   31.95    1.73
   1  -5   1   34.41    1.83
   1  -5   2   19.75    1.25
   1  -5   2   21.52    1.27
   1  -5   2   23.34    1.39
   1  -5   2   23.41    1.34
   1  -5   2   19.96    1.27
   1  -5   3    0.39    0.23
   1  -5   3    0.22    0.20
   1  -5   3    0.05    0.22
   1  -5   3    0.47    0.26
   1  -5   3    0.26    0.23
   1  -5   4    1.86    0.38
   1  -5   4    2.11    0.37
   1  -5   4    2.04    0.39
   1  -5   4    1.56    0.32
   1  -5   5    0.89    0.26
   1  -5   5   -0.20    0.40
   1  -5   5    0.46    0.23
   1  -5   5    0.37    0.22
   1  -5   5    0.47    0.23
   1  -5   6    0.57    0.23
   1  -5   6    0.29    0.18
   1  -5   6    0.52    0.18
   1  -5   7    1.04    0.25
   1  -5   7    0.85    0.22
   1  -5   7    0.78    0.19
   1  -5   7    0.83    0.22
   1  -5   8    2.16    0.28
   1  -5   8    2.35    0.32
   1  -5   8    2.32    0.27
   1  -5   9    0.74    0.18
   1  -4 -13    0.23    0.11
   1  -4 -12    7.06    0.56
   1  -4 -11    9.72    0.69
   1  -4 -11   11.40    0.76
   1  -4 -11   11.68    0.82
   1  -4 -10  141.14    5.94
   1  -4 -10  156.86    6.10
   1  -4  -9    2.01    0.34
   1  -4  -9    1.65    0.26
   1  -4  -9    1.66    0.35
   1  -4  -8   -0.03    0.12
   1  -4  -8    0.04    0.18
   1  -4  -8   -0.13    0.20
   1  -4  -8    0.15    0.24
   1  -4  -7   20.65    1.26
   1  -4  -7   21.13    1.27
   1  -4  -7   23.43    1.39
   1  -4  -6    0.09    0.19
   1  -4  -6    0.04    0.18
   1  -4  -6    0.21    0.20
   1  -4  -6   -0.05    0.25
   1  -4  -5    1.12    0.27
   1  -4  -5    1.39    0.31
   1  -4  -5    1.46    0.33
   1  -4  -5    1.11    0.29
   1  -4  -5    1.28    0.33
   1  -4  -4   -0.25    0.20
   1  -4  -4    0.14    0.24
   1  -4  -4   -0.04    0.17
   1  -4  -4    0.09    0.19
   1  -4  -4   -0.11    0.16
   1  -4  -3   22.12    1.28
   1  -4  -3   22.10    1.23
   1  -4  -3   24.51    1.39
   1  -4  -3   25.96    1.41
   1  -4  -3   21.84    1.26
   1  -4  -3   23.85    1.32
   1  -4  -2   55.08    2.49
   1  -4  -2   57.23    2.53
   1  -4  -2   55.83    2.56
   1  -4  -2   52.17    2.42
   1  -4  -2   52.01    2.46
   1  -4  -2   60.44    2.65
   1  -4  -1   12.03    0.80
   1  -4  -1   12.78    0.89
   1  -4  -1   12.22    0.83
   1  -4  -1   11.69    0.83
   1  -4  -1   12.67    0.85
   1  -4  -1   11.02    0.86
   1  -4   0   -0.03    0.16
   1  -4   0    0.13    0.22
   1  -4   0    0.12    0.20
   1  -4   0   -0.08    0.19
   1  -4   0    0.34    0.21
   1  -4   1   21.35    1.28
   1  -4   1   20.08    2.00
   1  -4   1   25.00    1.40
   1  -4   2    0.04    0.22
   1  -4   2    0.08    0.21
   1  -4   2    0.11    0.19
   1  -4   2   -0.04    0.18
   1  -4   2   -0.15    0.34
   1  -4   2   -0.17    0.45
   1  -4   3    3.47    0.87
   1  -4   3    3.54    0.44
   1  -4   3    3.86    0.48
   1  -4   3    3.45    0.46
   1  -4   3    3.30    0.48
   1  -4   3    3.75    0.46
   1  -4   4    1.38    0.33
   1  -4   4    1.62    0.33
   1  -4   4    1.27    0.33
   1  -4   4    1.36    0.31
   1  -4   4    0.87    0.53
   1  -4   5    2.60    0.39
   1  -4   5    3.91    0.47
   1  -4   5    3.31    0.47
   1  -4   5    2.70    0.38
   1  -4   5    3.21    0.90
   1  -4   6   15.15    0.97
   1  -4   6   16.66    1.06
   1  -4   6   16.55    1.00
   1  -4   6   13.74    0.91
   1  -4   7   31.21    1.63
   1  -4   7   33.83    1.73
   1  -4   7   35.53    1.70
   1  -4   7   30.00    2.69
   1  -4   8    1.93    0.32
   1  -4   8    1.67    0.28
   1  -4   9    1.52    0.28
   1  -4  10    0.07    0.13
   1  -4  11    0.45    0.17
   1  -3 -14    0.39    0.12
   1  -3 -14    0.48    0.15
   1  -3 -14    0.43    0.11
   1  -3 -13    1.20    0.23
   1  -3 -13    0.98    0.26
   1  -3 -13    1.28    0.23
   1  -3 -12    0.46    0.23
   1  -3 -12    0.59    0.22
   1  -3 -11    0.03    0.12
   1  -3 -11    0.12    0.16
   1  -3 -11   -0.04    0.19
   1  -3 -11    0.05    0.22
   1  -3 -10    2.22    0.35
   1  -3 -10    3.11    0.48
   1  -3 -10    2.68    0.38
   1  -3  -9    8.52    0.72
   1  -3  -9    8.96    0.72
   1  -3  -8    5.09    0.52
   1  -3  -8    4.09    0.48
   1  -3  -8    3.94    0.45
   1  -3  -7    7.57    0.63
   1  -3  -7    6.55    0.59
   1  -3  -7    5.71    0.60
   1  -3  -7    6.18    0.54
   1  -3  -6   58.57    2.57
   1  -3  -6   56.49    2.59
   1  -3  -6   56.82    2.57
   1  -3  -6   55.10    2.61
   1  -3  -6   53.47    2.48
   1  -3  -5  331.12   13.34
   1  -3  -5  339.44   13.42
   1  -3  -5  360.53   13.46
   1  -3  -5  351.21   13.49
   1  -3  -5  340.48   13.41
   1  -3  -4  119.81    4.89
   1  -3  -4  112.81    4.80
   1  -3  -4  123.08    4.88
   1  -3  -4  114.41    4.79
   1  -3  -3   12.95    0.79
   1  -3  -3   14.07    0.87
   1  -3  -3   12.56    0.73
   1  -3  -3   13.69    0.79
   1  -3  -2    8.45    0.56
   1  -3  -2    8.01    0.54
   1  -3  -2    7.69    0.56
   1  -3  -2    6.84    0.54
   1  -3  -2    7.64    0.57
   1  -3  -1    3.76    0.34
   1  -3  -1    3.28    0.35
   1  -3  -1    2.80    0.35
   1  -3  -1    3.65    0.38
   1  -3   0   16.73    1.53
   1  -3   0   16.77    0.96
   1  -3   0   17.29    0.96
   1  -3   1    0.11    0.32
   1  -3   1    0.06    0.14
   1  -3   1    0.03    0.14
   1  -3   1    0.11    0.15
   1  -3   2   58.93    3.40
   1  -3   2   53.49    2.40
   1  -3   2   52.83    2.39
   1  -3   2   52.86    2.38
   1  -3   2   56.41    3.77
   1  -3   3   16.44    1.69
   1  -3   3   17.53    0.98
   1  -3   3   16.32    0.98
   1  -3   3   19.12    2.13
   1  -3   4  121.35    5.01
   1  -3   4  119.70    4.96
   1  -3   4  133.44    7.28
   1  -3   4  118.23    6.94
   1  -3   5   18.72    1.90
   1  -3   5   17.58    1.02
   1  -3   5   18.65    1.07
   1  -3   5   18.57    2.42
   1  -3   6    7.16    1.20
   1  -3   6    6.26    0.56
   1  -3   6    6.56    0.54
   1  -3   6    7.60    1.55
   1  -3   6    7.04    1.55
   1  -3   7   20.29    2.08
   1  -3   7   20.69    1.16
   1  -3   7   24.23    2.92
   1  -3   7   19.63    2.68
   1  -3   8    0.99    0.55
   1  -3   8    0.92    0.23
   1  -3   8    1.21    0.80
   1  -3   8   -0.30    0.52
   1  -3   9    0.34    0.41
   1  -3   9   -0.31    0.54
   1  -3   9   -0.31    0.53
   1  -3  10    0.04    0.41
   1  -3  10    2.62    1.05
   1  -3  11    8.69    0.69
   1  -2 -15   12.17    0.67
   1  -2 -14    3.23    0.37
   1  -2 -14    2.58    0.27
   1  -2 -14    3.54    0.37
   1  -2 -13   12.65    0.63
   1  -2 -13   14.20    0.79
   1  -2 -12   23.28    1.23
   1  -2 -12   23.07    1.36
   1  -2 -11   15.82    0.98
   1  -2 -11   14.09    0.92
   1  -2 -11   14.63    1.05
   1  -2 -10    3.80    0.46
   1  -2 -10    3.98    0.48
   1  -2 -10    4.04    0.46
   1  -2 -10    3.69    0.43
   1  -2 -10    3.92    0.52
   1  -2  -9   27.22    1.48
   1  -2  -9   25.41    1.44
   1  -2  -9   27.21    1.47
   1  -2  -9   28.76    1.56
   1  -2  -9   27.30    1.42
   1  -2  -8   31.95    1.59
   1  -2  -8   31.28    1.59
   1  -2  -8   29.06    1.52
   1  -2  -7  155.63    6.40
   1  -2  -7  156.38    6.40
   1  -2  -7  164.80    6.44
   1  -2  -6   31.81    1.59
   1  -2  -5   18.08    0.98
   1  -2  -4   17.53    0.93
   1  -2  -3   37.09    1.65
   1  -2  -2   80.05    3.21
   1  -2  -2   71.77    3.43
   1  -2  -2   82.12    3.24
   1  -2  -2   80.90    3.25
   1  -2  -1    8.26    0.49
   1  -2  -1    7.69    0.50
   1  -2   0    7.89    0.88
   1  -2   0    8.31    1.08
   1  -2   0    8.56    1.00
   1  -2   0    8.59    0.53
   1  -2   0    8.88    0.52
   1  -2   0    8.89    0.52
   1  -2   1   21.48    1.74
   1  -2   1   20.91    1.83
   1  -2   1   22.31    1.63
   1  -2   1   22.24    1.05
   1  -2   1   21.07    1.04
   1  -2   1   21.47    1.03
   1  -2   2  125.46    5.94
   1  -2   2  127.28    5.69
   1  -2   2  119.39    4.79
   1  -2   2  120.24    4.82
   1  -2   3  199.05    8.27
   1  -2   3  206.58    8.83
   1  -2   3  184.46    8.23
   1  -2   3  182.96    7.31
   1  -2   3  186.77    7.34
   1  -2   4   19.99    1.63
   1  -2   4   21.84    2.09
   1  -2   4   17.81    1.57
   1  -2   4   17.07    0.92
   1  -2   4   18.75    0.97
   1  -2   5   23.02    1.90
   1  -2   5   25.67    1.95
   1  -2   5   23.07    1.14
   1  -2   6    1.11    0.51
   1  -2   6    0.83    0.43
   1  -2   7    0.40    0.36
   1  -2   7    0.86    0.41
   1  -2   8    0.89    0.44
   1  -2   8    1.56    0.90
   1  -2   8    0.79    0.74
   1  -2   9    2.10    0.72
   1  -2   9    1.75    0.92
   1  -2   9    0.87    0.72
   1  -2  10   27.22    2.52
   1  -2  10   28.03    3.30
   1  -2  10   33.45    3.53
   1  -2  11    1.05    0.56
   1  -2  11    2.45    1.02
   1  -1 -15   22.81    1.15
   1  -1 -14    0.22    0.16
   1  -1 -14    0.33    0.22
   1  -1 -14   -0.02    0.03
   1  -1 -14    0.05    0.15
   1  -1 -13   55.48    2.47
   1  -1 -13   57.88    2.61
   1  -1 -13   55.82    2.57
   1  -1 -12    3.03    0.37
   1  -1 -12    2.76    0.43
   1  -1 -12    3.15    0.43
   1  -1 -11   20.61    1.17
   1  -1 -11   20.07    1.23
   1  -1 -10   16.64    1.04
   1  -1 -10   19.19    1.15
   1  -1 -10   17.97    1.11
   1  -1 -10   17.08    1.15
   1  -1  -9   25.10    1.33
   1  -1  -9   25.21    1.39
   1  -1  -9   24.96    1.37
   1  -1  -9   25.36    1.45
   1  -1  -9   25.41    1.38
   1  -1  -8   54.79    2.48
   1  -1  -8   52.30    2.52
   1  -1  -8   55.80    2.50
   1  -1  -8   57.57    2.51
   1  -1  -8   53.86    2.44
   1  -1  -7  118.84    5.49
   1  -1  -6    4.89    0.64
   1  -1  -5  109.67    4.80
   1  -1  -4   52.62    2.49
   1  -1  -3   34.95    1.69
   1  -1  -2   71.59    2.99
   1  -1  -2   74.01    3.26
   1  -1  -1  397.28   15.78
   1  -1  -1  414.52   16.10
   1  -1  -1  445.88   16.46
   1  -1  -1  423.51   16.17
   1  -1  -1  444.90   16.26
   1  -1   0   98.70    4.22
   1  -1   0   91.26    4.35
   1  -1   1 9999.00  378.06
   1  -1   2   40.79    2.34
   1  -1   2   39.91    2.11
   1  -1   3  399.52   16.03
   1  -1   3  429.87   16.84
   1  -1   3  450.84   16.53
   1  -1   4    6.22    0.59
   1  -1   4    7.12    0.93
   1  -1   4    8.91    0.89
   1  -1   5    3.16    0.69
   1  -1   5    2.26    0.52
   1  -1   6    4.53    0.75
   1  -1   6    6.06    1.00
   1  -1   6    4.34    0.69
   1  -1   6    5.80    0.81
   1  -1   7    7.18    0.97
   1  -1   7    9.19    1.27
   1  -1   7    8.53    1.02
   1  -1   7    6.69    0.97
   1  -1   8    0.48    0.51
   1  -1   8    0.36    0.40
   1  -1   9   74.19    4.61
   1  -1   9   65.97    4.07
   1  -1  10    8.86    1.49
   1  -1  10    7.21    1.17
   1  -1  12    4.54    1.33
   1   0 -15    0.04    0.12
   1   0 -14    4.98    0.49
   1   0 -13    1.42    0.28
   1   0 -13    1.80    0.36
   1   0 -13    1.31    0.24
   1   0 -12    8.89    0.63
   1   0 -12    8.70    0.75
   1   0 -12    8.55    0.66
   1   0 -12    8.77    0.72
   1   0 -11   94.17    3.96
   1   0 -11   93.07    4.06
   1   0 -11   95.46    4.11
   1   0 -11   90.19    4.13
   1   0 -11   91.39    3.91
   1   0 -10  717.23   26.96
   1   0 -10  687.22   26.80
   1   0 -10  738.01   27.00
   1   0 -10  691.97   27.05
   1   0 -10  665.21   26.86
   1   0 -10  705.04   26.79
   1   0  -9   18.72    1.04
   1   0  -9   20.59    1.25
   1   0  -9   17.15    1.08
   1   0  -9   18.10    1.70
   1   0  -9   19.80    1.06
   1   0  -9   20.06    1.16
   1   0  -8   66.06    3.04
   1   0  -8   74.82    3.11
   1   0  -8   72.19    3.88
   1   0  -7    6.55    0.88
   1   0  -6   20.32    1.48
   1   0  -5   84.91    3.94
   1   0  -5   83.96    3.47
   1   0  -4   10.20    0.83
   1   0  -4    9.71    0.65
   1   0  -3   57.05    2.67
   1   0  -3   56.61    2.50
   1   0  -2   25.09    1.35
   1   0  -2   24.13    1.22
   1   0  -1  800.60   30.57
   1   0   0  118.98    5.01
   1   0   0  126.51    5.09
   1   0   1  286.66   11.19
   1   0   2  188.51    7.50
   1   0   3   24.95    1.32
   1   0   3   27.93    1.47
   1   0   3   24.54    1.34
   1   0   3   23.21    1.10
   1   0   4  548.50   20.70
   1   0   4  529.73   20.56
   1   0   4  546.50   20.90
   1   0   4  527.42   20.75
   1   0   4  525.78   20.48
   1   0   5  177.02    7.67
   1   0   5  176.32    7.06
   1   0   6   12.85    1.30
   1   0   7    7.70    1.10
   1   0   8   82.31    4.95
   1   0   8   88.06    4.97
   1   0   8   87.43    4.32
   1   0   9   46.85    3.64
   1   0   9   49.07    2.96
   1   0  10   16.91    2.25
   1   0  11   18.72    2.30
   1   0  12    0.56    0.56
   1   1 -15    2.10    0.25
   1   1 -14    1.95    0.32
   1   1 -14    2.01    0.26
   1   1 -13    5.37    0.50
   1   1 -13    5.29    0.57
   1   1 -13    5.97    0.59
   1   1 -13    5.66    0.58
   1   1 -12   68.16    3.09
   1   1 -12   71.76    3.28
   1   1 -12   69.60    3.30
   1   1 -12   72.01    3.25
   1   1 -11    5.31    0.53
   1   1 -11    4.87    0.62
   1   1 -11    5.49    0.66
   1   1 -11    5.88    0.60
   1   1 -11    6.30    0.66
   1   1 -10   73.81    3.22
   1   1 -10   77.67    3.51
   1   1 -10   71.70    3.31
   1   1 -10   68.64    3.11
   1   1 -10   80.01    3.39
   1   1  -9   77.24    3.25
   1   1  -9   75.63    3.48
   1   1  -9   73.52    3.33
   1   1  -9   81.51    4.35
   1   1  -9   72.79    3.17
   1   1  -9   74.21    3.34
   1   1  -8   84.42    3.53
   1   1  -8   86.67    4.51
   1   1  -8   86.35    3.65
   1   1  -8   84.54    3.78
   1   1  -8   79.80    3.61
   1   1  -7   39.13    2.48
   1   1  -6    6.05    0.79
   1   1  -5    0.07    0.23
   1   1  -4  265.06   10.79
   1   1  -3  119.02    5.12
   1   1  -3  117.69    5.15
   1   1  -2 1042.56   40.32
   1   1  -2 1063.33   40.39
   1   1  -1    2.32    0.33
   1   1   0  352.55   13.81
   1   1   1   78.22    3.41
   1   1   1   76.22    3.32
   1   1   1   80.05    3.58
   1   1   2  382.20   14.82
   1   1   2  376.10   14.71
   1   1   2  381.79   15.09
   1   1   2  377.47   15.02
   1   1   3    5.16    0.69
   1   1   3    3.84    0.59
   1   1   3    4.66    0.50
   1   1   3    3.05    0.52
   1   1   4  186.17    7.36
   1   1   4  203.02    8.21
   1   1   4  186.63    7.24
   1   1   4  201.86    8.11
   1   1   4  195.81    7.86
   1   1   5  100.72    4.20
   1   1   5  108.08    5.06
   1   1   5  106.38    4.72
   1   1   6  615.69   24.08
   1   1   6  637.67   25.22
   1   1   6  628.82   24.04
   1   1   6  644.07   24.75
   1   1   7  316.60   13.58
   1   1   7  308.10   12.99
   1   1   8  156.94    8.03
   1   1   8  158.60    7.42
   1   1   9   12.29    1.81
   1   1   9   10.39    1.38
   1   1  10    9.88    1.55
   1   1  10   15.62    2.28
   1   1  10   15.78    2.07
   1   1  11   14.74    2.43
   1   1  11   10.51    1.83
   1   1  12    5.93    1.74
   1   2 -14    4.84    0.39
   1   2 -13   45.19    2.20
   1   2 -13   42.10    2.06
   1   2 -13   43.48    2.10
   1   2 -13   46.41    2.05
   1   2 -12    0.91    0.30
   1   2 -12    0.70    0.25
   1   2 -12    0.67    0.23
   1   2 -12    0.70    0.29
   1   2 -12    0.82    0.26
   1   2 -11   37.40    2.06
   1   2 -11   35.81    1.94
   1   2 -11   36.46    1.92
   1   2 -11   37.27    1.95
   1   2 -11   36.84    1.84
   1   2 -10    5.37    0.61
   1   2 -10    5.18    0.59
   1   2 -10    6.48    0.58
   1   2 -10    5.77    0.61
   1   2  -9   22.36    1.32
   1   2  -9   21.67    1.23
   1   2  -9   20.90    1.31
   1   2  -9   22.96    1.32
   1   2  -9   19.11    1.87
   1   2  -8    5.53    0.54
   1   2  -8    4.87    0.46
   1   2  -8    5.20    0.49
   1   2  -8    6.04    0.58
   1   2  -8    5.07    0.60
   1   2  -8    4.63    0.49
   1   2  -8    5.26    0.54
   1   2  -8    5.42    0.90
   1   2  -7    3.16    0.35
   1   2  -7    3.18    0.45
   1   2  -7    2.90    0.38
   1   2  -7    2.67    0.35
   1   2  -7    2.64    0.37
   1   2  -6   -0.09    0.21
   1   2  -5  806.86   31.50
   1   2  -4   70.83    3.50
   1   2  -3  281.45   11.67
   1   2  -3  277.54   11.37
   1   2  -2    0.63    0.26
   1   2  -1  343.97   13.98
   1   2   0    1.56    0.35
   1   2   1  981.75   37.85
   1   2   2  196.47    8.40
   1   2   2  210.63    8.75
   1   2   2  214.00    8.93
   1   2   3   24.79    1.39
   1   2   3   24.82    1.52
   1   2   3   24.86    1.86
   1   2   3   27.94    1.85
   1   2   3   24.25    1.74
   1   2   4  200.78    8.38
   1   2   4  213.37    9.10
   1   2   4  225.10    9.49
   1   2   4  203.71    9.18
   1   2   4  222.31    9.07
   1   2   4  202.64    8.58
   1   2   5   32.53    2.28
   1   2   5   32.07    2.45
   1   2   5   33.26    2.37
   1   2   5   27.14    2.08
   1   2   6    0.97    0.47
   1   2   6    0.56    0.35
   1   2   6    0.76    0.57
   1   2   6    1.51    0.58
   1   2   6    0.24    0.39
   1   2   7   41.14    2.87
   1   2   7   47.15    3.40
   1   2   7   39.98    3.00
   1   2   7   40.39    2.90
   1   2   7   36.03    2.69
   1   2   8    0.97    0.44
   1   2   8    1.20    0.54
   1   2   8    1.68    0.84
   1   2   8    1.70    0.68
   1   2   8    0.98    0.55
   1   2   9  135.36    7.34
   1   2   9  149.88    8.42
   1   2   9  161.19    8.22
   1   2   9  150.20    7.77
   1   2   9  136.69    7.17
   1   2  10    0.19    0.42
   1   2  10   -0.30    0.61
   1   2  10   -0.53    0.59
   1   2  10    0.45    0.50
   1   2  11    3.10    0.93
   1   2  11    3.29    1.27
   1   2  11    3.97    1.30
   1   2  12  231.01   12.53
   1   2  13   51.86    4.19
   1   3 -14    0.03    0.07
   1   3 -13   10.45    0.64
   1   3 -12    7.70    0.58
   1   3 -12    7.20    0.69
   1   3 -11    6.04    0.60
   1   3 -11    6.86    0.60
   1   3 -11    7.83    0.75
   1   3 -10   27.76    1.57
   1   3 -10   29.38    1.73
   1   3 -10   26.39    1.51
   1   3  -9    0.94    0.43
   1   3  -9    1.43    0.29
   1   3  -9    1.89    0.33
   1   3  -9    1.36    0.34
   1   3  -9    1.48    0.28
   1   3  -9    1.23    0.34
   1   3  -9    1.12    0.31
   1   3  -8    7.54    1.08
   1   3  -8    6.50    0.60
   1   3  -8    6.97    0.69
   1   3  -8    6.31    0.61
   1   3  -8    6.62    0.71
   1   3  -8    7.66    0.64
   1   3  -8    7.48    0.65
   1   3  -7   21.50    1.86
   1   3  -7   21.35    1.29
   1   3  -7   19.82    1.28
   1   3  -7   24.46    1.41
   1   3  -7   23.08    1.29
   1   3  -7   21.49    1.23
   1   3  -6   57.84    3.25
   1   3  -6   53.72    2.56
   1   3  -6   54.57    2.58
   1   3  -6   52.96    2.62
   1   3  -6   60.70    2.59
   1   3  -6   53.90    2.47
   1   3  -5   10.59    1.11
   1   3  -5    9.55    0.71
   1   3  -4    5.44    0.73
   1   3  -3    1.38    0.37
   1   3  -2   30.91    2.27
   1   3  -2   29.95    1.85
   1   3  -1   42.26    2.68
   1   3  -1   39.81    2.25
   1   3   0  261.23   10.29
   1   3   0  257.36   10.23
   1   3   0  274.52   10.78
   1   3   0  271.09   11.29
   1   3   1  586.57   22.87
   1   3   1  560.54   21.82
   1   3   1  572.85   21.88
   1   3   1  563.31   22.45
   1   3   1  581.11   22.87
   1   3   2  319.54   12.31
   1   3   2  320.91   12.34
   1   3   2  314.89   12.27
   1   3   2  312.86   12.99
   1   3   2  318.86   13.33
   1   3   2  295.02   12.89
   1   3   3   34.09    2.55
   1   3   3   31.29    2.07
   1   3   3   32.29    1.58
   1   3   4    0.49    0.43
   1   3   4    0.50    0.19
   1   3   4    0.18    0.20
   1   3   5   14.38    0.90
   1   3   5   11.53    1.53
   1   3   5   12.21    1.61
   1   3   5   15.20    1.65
   1   3   5   15.07    1.36
   1   3   6   61.60    2.82
   1   3   6   69.54    4.18
   1   3   6   62.10    4.61
   1   3   6   62.63    4.29
   1   3   6   64.45    4.00
   1   3   6   61.79    3.50
   1   3   7   17.10    2.09
   1   3   7   15.23    1.77
   1   3   7   14.51    1.82
   1   3   7   15.32    0.98
   1   3   8   43.43    3.63
   1   3   8   39.27    3.09
   1   3   8   40.16    3.16
   1   3   8   37.03    1.89
   1   3   9    8.06    1.68
   1   3   9    6.13    1.25
   1   3   9   10.82    1.61
   1   3  10  115.70    7.86
   1   3  10  100.08    6.93
   1   3  10  108.24    6.33
   1   3  11   19.67    3.15
   1   3  11   18.81    2.79
   1   3  11   19.83    2.34
   1   3  11   21.91    1.39
   1   3  12   59.78    4.56
   1   3  12   57.32    5.15
   1   3  13    2.59    0.89
   1   3  13    2.31    0.44
   1   3  14    3.11    0.49
   1   4 -12   12.44    0.78
   1   4 -11    6.06    0.58
   1   4 -10    1.08    0.29
   1   4  -9    2.85    0.38
   1   4  -9    2.58    0.42
   1   4  -9    2.67    0.45
   1   4  -9    2.22    0.35
   1   4  -8   -0.04    0.17
   1   4  -8    0.04    0.18
   1   4  -8    0.10    0.23
   1   4  -8    0.05    0.21
   1   4  -7    6.66    0.60
   1   4  -7    7.43    0.69
   1   4  -7    5.55    0.66
   1   4  -7    6.38    0.64
   1   4  -6   14.15    1.03
   1   4  -6   11.27    1.26
   1   4  -6   14.77    0.95
   1   4  -6   14.69    1.03
   1   4  -6   15.86    1.09
   1   4  -6   15.10    1.03
   1   4  -5   10.81    0.83
   1   4  -5   10.15    0.75
   1   4  -5   10.06    0.82
   1   4  -5    8.07    1.01
   1   4  -5   10.89    0.77
   1   4  -5   10.75    0.81
   1   4  -5   10.03    0.81
   1   4  -4    9.69    0.78
   1   4  -4    9.35    0.71
   1   4  -4    8.79    0.73
   1   4  -4    8.38    0.95
   1   4  -4    9.24    0.68
   1   4  -4    9.04    0.64
   1   4  -4    9.44    0.73
   1   4  -4    9.21    0.74
   1   4  -3    2.18    0.38
   1   4  -3    1.53    0.30
   1   4  -3    1.77    0.31
   1   4  -3    1.75    0.41
   1   4  -3    1.67    0.26
   1   4  -2    5.60    0.51
   1   4  -2    3.61    0.59
   1   4  -2    5.14    0.56
   1   4  -2    5.52    0.54
   1   4  -1  203.67    8.29
   1   4  -1  208.88    8.21
   1   4  -1  196.62    8.51
   1   4   0   19.47    1.06
   1   4   0   18.63    1.20
   1   4   0   22.03    1.93
   1   4   1  279.47   11.26
   1   4   1  280.69   11.16
   1   4   1  293.35   12.40
   1   4   1  284.72   11.28
   1   4   1  280.38   11.10
   1   4   2   56.32    2.67
   1   4   2   53.19    2.50
   1   4   2   54.97    2.56
   1   4   2   54.53    2.56
   1   4   2   52.95    2.61
   1   4   2   55.45    3.39
   1   4   2   55.52    2.39
   1   4   2   54.49    3.42
   1   4   2   54.84    2.67
   1   4   2   50.57    3.23
   1   4   3   47.67    2.28
   1   4   3   46.31    2.29
   1   4   3   49.64    2.45
   1   4   3   47.67    3.13
   1   4   3   48.33    3.18
   1   4   3   48.65    3.07
   1   4   3   47.07    2.40
   1   4   4   23.41    1.53
   1   4   4   25.36    2.12
   1   4   4   26.63    1.48
   1   4   4   27.33    1.53
   1   4   4   28.14    1.61
   1   4   4   27.65    2.18
   1   4   4   26.66    2.46
   1   4   4   30.10    2.41
   1   4   5    6.14    1.15
   1   4   5    5.21    0.91
   1   4   5    6.78    0.64
   1   4   5    6.08    0.64
   1   4   5    7.35    0.74
   1   4   5    5.87    0.55
   1   4   5    6.85    1.42
   1   4   5    7.56    1.34
   1   4   5    6.98    1.09
   1   4   6   10.18    1.37
   1   4   6   14.00    0.95
   1   4   6    9.50    1.73
   1   4   6   11.49    1.70
   1   4   6    8.86    1.59
   1   4   6   12.66    0.96
   1   4   6   13.21    1.04
   1   4   7   71.72    3.40
   1   4   7   77.03    5.05
   1   4   7   79.26    3.55
   1   4   7   77.43    3.64
   1   4   8    5.64    0.59
   1   4   8    6.09    0.68
   1   4   8    5.96    0.73
   1   4   8    5.45    1.22
   1   4   8    3.69    1.08
   1   4   9   13.36    2.25
   1   4   9   13.97    1.05
   1   4   9   12.24    1.07
   1   4   9   10.55    1.70
   1   4   9   14.09    1.95
   1   4  10   -0.32    0.65
   1   4  10    0.32    0.28
   1   4  10   -0.11    0.23
   1   4  10   -0.23    0.45
   1   4  10    0.22    0.31
   1   4  11    2.30    0.99
   1   4  11    1.82    0.82
   1   4  11    2.07    0.40
   1   4  11    1.90    0.42
   1   4  11    1.25    0.63
   1   4  12    0.44    0.44
   1   4  12    0.30    0.25
   1   4  12    0.56    0.28
   1   4  13   10.45    0.89
   1   4  14    0.30    0.23
   1   5 -11    0.04    0.07
   1   5 -10   34.38    1.64
   1   5 -10   36.34    1.59
   1   5  -9    0.15    0.14
   1   5  -9    0.33    0.17
   1   5  -9    0.06    0.14
   1   5  -8   35.13    1.68
   1   5  -8   34.93    1.76
   1   5  -8   33.07    1.75
   1   5  -7   20.74    1.15
   1   5  -7   18.66    1.20
   1   5  -7   20.26    1.24
   1   5  -6   -0.05    0.22
   1   5  -6   -0.18    0.19
   1   5  -6    0.04    0.14
   1   5  -6    0.03    0.15
   1   5  -5    1.63    0.30
   1   5  -5    2.33    0.43
   1   5  -4   54.35    2.72
   1   5  -4   59.56    2.65
   1   5  -4   61.82    2.86
   1   5  -4   51.37    3.41
   1   5  -4   57.35    2.69
   1   5  -3    4.34    0.53
   1   5  -3    4.80    0.59
   1   5  -3    4.79    0.49
   1   5  -3    4.14    0.46
   1   5  -3    4.66    0.54
   1   5  -2   35.83    1.91
   1   5  -2   39.11    2.03
   1   5  -2   35.99    1.82
   1   5  -2   33.53    1.84
   1   5  -1    0.61    0.35
   1   5  -1    1.48    0.28
   1   5  -1    1.06    0.28
   1   5   0   31.81    1.66
   1   5   0   30.39    1.79
   1   5   1    0.82    0.28
   1   5   1    0.92    0.37
   1   5   1    1.30    0.38
   1   5   2    6.91    0.69
   1   5   2    8.05    0.84
   1   5   2    6.04    0.74
   1   5   2    8.78    0.70
   1   5   2    7.01    0.78
   1   5   3    1.69    0.46
   1   5   3    1.41    0.36
   1   5   3    1.20    0.39
   1   5   3    1.13    0.27
   1   5   3    1.15    0.30
   1   5   3    2.05    0.48
   1   5   3    1.67    0.34
   1   5   4   27.41    1.66
   1   5   4   31.72    1.86
   1   5   4   32.49    1.84
   1   5   4   26.13    1.55
   1   5   4   31.40    1.75
   1   5   4   23.32    2.16
   1   5   4   28.20    2.65
   1   5   4   29.48    1.79
   1   5   4   26.63    1.52
   1   5   4   27.92    1.59
   1   5   5   35.76    3.08
   1   5   5   35.46    2.76
   1   5   5   34.37    1.93
   1   5   5   33.97    2.01
   1   5   5   34.86    1.94
   1   5   5   31.52    1.98
   1   5   5   31.88    1.96
   1   5   5   30.64    1.75
   1   5   5   32.76    1.78
   1   5   6  324.99   14.85
   1   5   6  347.12   15.79
   1   5   6  354.65   15.23
   1   5   6  340.90   13.81
   1   5   6  347.10   13.80
   1   5   6  355.49   13.95
   1   5   6  347.81   13.95
   1   5   6  337.90   13.88
   1   5   6  341.59   13.65
   1   5   6  342.20   13.58
   1   5   7   13.11    1.18
   1   5   7   14.82    1.15
   1   5   7   13.70    1.19
   1   5   7   14.05    1.15
   1   5   7   14.57    1.18
   1   5   7   16.05    1.13
   1   5   7   11.13    1.81
   1   5   8  267.61   10.73
   1   5   8  266.79   10.87
   1   5   8  250.23   12.54
   1   5   8  254.80   10.76
   1   5   8  272.82   10.73
   1   5   8  260.22   10.83
   1   5   9   32.85    1.89
   1   5   9   32.23    1.88
   1   5   9   31.41    1.81
   1   5   9   32.12    1.81
   1   5   9   32.33    1.90
   1   5   9   30.43    2.78
   1   5   9   30.23    1.80
   1   5  10    0.93    0.32
   1   5  10    1.90    0.43
   1   5  10    1.80    0.40
   1   5  10    1.80    0.36
   1   5  10    0.96    0.32
   1   5  10    1.02    0.61
   1   5  10    1.27    0.58
   1   5  10    1.58    0.35
   1   5  11    7.13    0.68
   1   5  11    7.62    0.73
   1   5  11    6.13    0.61
   1   5  11    6.05    0.64
   1   5  11    7.07    0.74
   1   5  12   15.86    1.06
   1   5  12   16.61    1.09
   1   5  13   14.76    0.90
   1   6  -8    0.49    0.11
   1   6  -8    0.60    0.15
   1   6  -7    6.49    0.52
   1   6  -7    5.71    0.41
   1   6  -6   33.14    1.53
   1   6  -5   38.93    1.55
   1   6  -5   40.29    1.76
   1   6  -4   13.41    0.82
   1   6  -4   13.88    0.97
   1   6  -4   14.42    1.02
   1   6  -4   13.51    0.89
   1   6  -3   42.07    2.00
   1   6  -3   43.71    2.20
   1   6  -3   45.92    2.28
   1   6  -3   44.03    2.14
   1   6  -2   31.99    1.58
   1   6  -2   32.36    1.76
   1   6  -2   32.96    1.76
   1   6  -1    0.87    0.26
   1   6  -1    0.86    0.21
   1   6  -1    0.38    0.19
   1   6  -1    0.55    0.28
   1   6   0    2.61    0.39
   1   6   0    3.08    0.36
   1   6   0    3.14    0.45
   1   6   0    3.78    0.88
   1   6   0    3.50    0.56
   1   6   0    3.53    0.54
   1   6   1   12.28    0.88
   1   6   1   13.45    1.07
   1   6   1   12.52    1.03
   1   6   2    9.36    0.78
   1   6   2    9.74    1.39
   1   6   2   10.14    0.95
   1   6   2   10.38    0.95
   1   6   3    7.57    0.82
   1   6   3    6.59    0.64
   1   6   3    6.61    0.78
   1   6   3    6.32    0.66
   1   6   3    6.78    1.15
   1   6   4    3.52    0.52
   1   6   4    4.21    0.61
   1   6   4    4.77    0.53
   1   6   5   26.68    1.62
   1   6   5   23.31    1.38
   1   6   5   22.37    1.37
   1   6   5   26.66    1.58
   1   6   6  129.47    5.65
   1   6   6  135.54    5.82
   1   6   6  132.64    5.68
   1   6   6  136.16    5.84
   1   6   6  143.88    6.00
   1   6   7   30.38    1.65
   1   6   7   25.15    1.55
   1   6   7   29.84    1.69
   1   6   7   32.30    1.86
   1   6   7   29.39    1.73
   1   6   7   29.81    1.72
   1   6   8    0.36    0.26
   1   6   8    0.08    0.20
   1   6   8   -0.04    0.18
   1   6   8   -0.06    0.28
   1   6   8    0.05    0.27
   1   6   9    1.03    0.33
   1   6   9    0.12    0.21
   1   6   9    0.67    0.21
   1   6  10   -0.27    0.22
   1   6  10   -0.07    0.17
   1   6  10   -0.15    0.17
   1   6  11    6.57    0.53
   1   6  11    7.40    0.56
   1   7  -5   23.05    1.10
   1   7  -4   12.07    0.71
   1   7  -3   -0.02    0.05
   1   7  -3   10.63    0.55
   1   7  -2    2.53    0.32
   1   7  -2    3.29    0.35
   1   7  -1    6.89    0.53
   1   7  -1    6.16    0.54
   1   7  -1    6.74    0.61
   1   7   0    2.36    0.29
   1   7   0    3.10    0.43
   1   7   0    3.14    0.40
   1   7   1   -0.04    0.21
   1   7   1    0.19    0.21
   1   7   2   12.45    0.91
   1   7   2   13.33    0.92
   1   7   3   -0.04    0.20
   1   7   3    0.04    0.23
   1   7   4    0.12    0.21
   1   7   4    0.13    0.24
   1   7   5    4.77    0.49
   1   7   6    8.54    0.63
   1   7   6    9.28    0.73
   1   7   7    0.13    0.12
   1   7   7    0.13    0.18
   1   7   8    3.17    0.36
   1   7   9    5.15    0.39
   2  -6  -5    0.04    0.08
   2  -6  -5    0.01    0.07
   2  -6  -4    0.07    0.09
   2  -6  -4    0.02    0.08
   2  -6  -3   -0.07    0.07
   2  -6  -2    0.72    0.18
   2  -6  -1    0.67    0.18
   2  -6   0    1.76    0.24
   2  -6   1    0.93    0.17
   2  -6   1    0.66    0.16
   2  -6   2    5.34    0.38
   2  -6   2    4.83    0.36
   2  -6   3    2.44    0.23
   2  -5  -9   40.74    1.78
   2  -5  -9   41.34    1.78
   2  -5  -8    0.77    0.17
   2  -5  -8    1.27    0.23
   2  -5  -7    1.44    0.25
   2  -5  -7    1.30    0.24
   2  -5  -6    4.05    0.44
   2  -5  -6    3.93    0.43
   2  -5  -5    1.15    0.26
   2  -5  -5    1.09    0.25
   2  -5  -4    0.94    0.25
   2  -5  -3   -0.04    0.19
   2  -5  -3    0.23    0.18
   2  -5  -2    4.74    0.54
   2  -5  -2    4.50    0.49
   2  -5  -2    5.10    0.48
   2  -5  -1    9.78    0.76
   2  -5  -1    8.82    0.69
   2  -5   0    1.27    0.31
   2  -5   0    1.57    0.25
   2  -5   0    1.56    0.32
   2  -5   1    0.65    0.23
   2  -5   1    0.49    0.19
   2  -5   1    0.51    0.25
   2  -5   1    0.25    0.21
   2  -5   2    0.70    0.22
   2  -5   2    1.07    0.27
   2  -5   2    0.89    0.24
   2  -5   2    1.11    0.29
   2  -5   3    0.51    0.20
   2  -5   3    0.07    0.16
   2  -5   3    0.72    0.24
   2  -5   4   -0.03    0.15
   2  -5   4    0.07    0.23
   2  -5   4    0.03    0.13
   2  -5   5    0.09    0.13
   2  -5   5    0.04    0.11
   2  -5   5    0.19    0.18
   2  -5   5    0.06    0.15
   2  -5   6    0.05    0.14
   2  -5   6    0.15    0.13
   2  -5   7    2.54    0.28
   2  -5   7    2.94    0.29
   2  -5   8    3.37    0.27
   2  -4 -11    0.22    0.11
   2  -4 -10    0.40    0.17
   2  -4 -10    0.40    0.20
   2  -4 -10    0.19    0.14
   2  -4  -9    0.06    0.14
   2  -4  -9    0.15    0.21
   2  -4  -9    0.06    0.16
   2  -4  -9    0.10    0.12
   2  -4  -8    4.05    0.44
   2  -4  -8    4.18    0.47
   2  -4  -8    3.08    0.36
   2  -4  -7    0.42    0.20
   2  -4  -7    0.13    0.21
   2  -4  -7    0.29    0.23
   2  -4  -7    0.06    0.11
   2  -4  -6    2.47    0.36
   2  -4  -6    2.78    0.44
   2  -4  -6    3.39    0.46
   2  -4  -6    2.77    0.35
   2  -4  -5    6.79    0.59
   2  -4  -5    7.12    0.67
   2  -4  -4   81.52    3.61
   2  -4  -4   82.67    3.65
   2  -4  -3   13.88    1.01
   2  -4  -3   13.34    0.95
   2  -4  -3   13.56    0.95
   2  -4  -2    7.39    0.69
   2  -4  -2    6.23    0.57
   2  -4  -2    6.64    0.60
   2  -4  -2    8.31    0.74
   2  -4  -2    7.67    0.66
   2  -4  -1    0.37    0.22
   2  -4  -1    0.22    0.19
   2  -4  -1    0.36    0.26
   2  -4  -1    0.34    0.27
   2  -4  -1    0.15    0.18
   2  -4   0    0.53    0.23
   2  -4   0    0.20    0.25
   2  -4   0    0.35    0.24
   2  -4   1    1.93    0.36
   2  -4   1    1.18    0.34
   2  -4   1    2.21    0.40
   2  -4   2    2.21    0.42
   2  -4   2    2.32    0.42
   2  -4   2    2.85    0.43
   2  -4   2    2.12    0.39
   2  -4   2    3.07    0.50
   2  -4   3    9.31    0.77
   2  -4   3    7.41    1.25
   2  -4   3    8.09    0.71
   2  -4   3    6.39    0.64
   2  -4   3    6.79    0.69
   2  -4   3    7.95    0.78
   2  -4   4    4.15    0.51
   2  -4   4    4.97    0.56
   2  -4   4    4.64    0.58
   2  -4   4    4.91    0.53
   2  -4   4    4.45    1.00
   2  -4   5   10.80    0.81
   2  -4   5    9.87    0.77
   2  -4   5   11.37    0.84
   2  -4   5   12.31    0.89
   2  -4   6    4.63    0.45
   2  -4   6    3.89    0.97
   2  -4   6    4.23    0.47
   2  -4   6    4.10    0.44
   2  -4   6    4.73    0.53
   2  -4   6    5.17    0.53
   2  -4   7    0.03    0.14
   2  -4   7    0.11    0.17
   2  -4   7    0.22    0.18
   2  -4   8    8.59    0.63
   2  -4   8    8.17    0.63
   2  -4   9    0.02    0.14
   2  -4   9   -0.05    0.13
   2  -4  10   -0.08    0.10
   2  -3 -13    1.52    0.17
   2  -3 -13    1.19    0.16
   2  -3 -12    2.96    0.34
   2  -3 -12    2.78    0.31
   2  -3 -11   12.12    0.76
   2  -3 -11   10.02    0.70
   2  -3 -10   10.08    0.79
   2  -3 -10   12.96    0.92
   2  -3 -10   12.97    0.84
   2  -3 -10   12.77    0.85
   2  -3  -9   -0.08    0.18
   2  -3  -9   -0.05    0.25
   2  -3  -9    0.04    0.18
   2  -3  -9   -0.12    0.16
   2  -3  -8   10.45    0.83
   2  -3  -8   10.54    0.88
   2  -3  -8   10.54    0.80
   2  -3  -8   10.00    0.77
   2  -3  -7    7.84    0.71
   2  -3  -7    6.04    0.67
   2  -3  -7    7.75    0.65
   2  -3  -7    6.44    0.60
   2  -3  -6   52.84    2.58
   2  -3  -6   52.01    2.57
   2  -3  -6   55.41    2.51
   2  -3  -5    9.69    0.78
   2  -3  -5    9.18    0.71
   2  -3  -4    0.04    0.21
   2  -3  -4    0.20    0.20
   2  -3  -4    0.16    0.20
   2  -3  -4    0.17    0.15
   2  -3  -3   20.94    1.23
   2  -3  -3   19.86    1.14
   2  -3  -3   21.94    1.27
   2  -3  -3   19.87    1.18
   2  -3  -3   19.89    1.15
   2  -3  -2    3.93    0.46
   2  -3  -2    5.00    0.54
   2  -3  -2    4.25    0.46
   2  -3  -2    4.68    0.51
   2  -3  -2    3.81    0.44
   2  -3  -1    5.23    0.55
   2  -3  -1    5.54    0.53
   2  -3  -1    5.23    0.54
   2  -3   0    2.71    0.40
   2  -3   0    2.52    0.38
   2  -3   0    2.19    0.39
   2  -3   0    2.47    0.61
   2  -3   0    2.16    0.39
   2  -3   1    0.53    0.24
   2  -3   1    0.28    0.21
   2  -3   1    0.22    0.24
   2  -3   1    0.14    0.34
   2  -3   1    0.51    0.21
   2  -3   1    0.33    0.22
   2  -3   2   10.72    0.81
   2  -3   2   11.20    0.79
   2  -3   2   10.58    0.84
   2  -3   2   10.14    0.81
   2  -3   2    8.28    1.47
   2  -3   3   43.69    2.14
   2  -3   3   42.25    2.08
   2  -3   3   44.52    2.20
   2  -3   3   42.68    2.12
   2  -3   3   45.82    3.98
   2  -3   3   35.08    3.39
   2  -3   4   22.79    2.83
   2  -3   4   21.40    2.61
   2  -3   4   24.67    1.40
   2  -3   4   22.12    1.32
   2  -3   4   24.93    1.44
   2  -3   4   25.29    1.39
   2  -3   5    2.41    0.97
   2  -3   5    2.39    1.03
   2  -3   5    1.55    0.31
   2  -3   5    1.98    0.33
   2  -3   5    1.57    0.37
   2  -3   5    1.47    0.66
   2  -3   5    1.92    0.34
   2  -3   6    3.17    0.45
   2  -3   6    1.83    0.74
   2  -3   6    3.36    1.12
   2  -3   6    2.35    0.37
   2  -3   6    2.83    0.38
   2  -3   7    0.31    0.21
   2  -3   7   -0.18    0.35
   2  -3   7   -0.29    0.50
   2  -3   7    0.04    0.17
   2  -3   7   -0.03    0.14
   2  -3   8    0.08    0.18
   2  -3   8   -0.17    0.41
   2  -3   8   -0.30    0.60
   2  -3   8    0.10    0.14
   2  -3   9    0.51    0.21
   2  -3   9    0.74    0.24
   2  -3  10   -0.03    0.13
   2  -3  10   -0.09    0.14
   2  -2 -14   19.04    0.91
   2  -2 -14   23.05    1.01
   2  -2 -13    1.67    0.23
   2  -2 -13    1.05    0.18
   2  -2 -12   23.66    0.87
   2  -2 -12   24.80    0.94
   2  -2 -11    1.56    0.27
   2  -2 -11    1.79    0.33
   2  -2 -10    8.34    0.72
   2  -2 -10    7.58    0.68
   2  -2 -10    8.93    0.73
   2  -2 -10    7.31    0.62
   2  -2 -10    8.98    0.78
   2  -2  -9   13.85    0.95
   2  -2  -9   13.96    1.00
   2  -2  -9   13.66    0.92
   2  -2  -9   12.43    0.99
   2  -2  -9   15.61    1.01
   2  -2  -8   24.55    1.41
   2  -2  -8   26.29    1.49
   2  -2  -8   26.20    1.40
   2  -2  -8   24.10    1.48
   2  -2  -8   26.12    1.45
   2  -2  -7   16.94    1.05
   2  -2  -7   18.06    1.13
   2  -2  -7   15.56    1.02
   2  -2  -7   17.39    1.13
   2  -2  -7   17.72    1.08
   2  -2  -6   35.22    1.77
   2  -2  -6   30.98    1.72
   2  -2  -6   35.23    1.71
   2  -2  -5    1.93    0.34
   2  -2  -5    1.65    0.28
   2  -2  -4   30.69    1.53
   2  -2  -4   29.82    1.47
   2  -2  -4   29.10    1.52
   2  -2  -4   31.76    1.57
   2  -2  -4   29.78    1.47
   2  -2  -3   20.83    1.16
   2  -2  -2   16.29    0.95
   2  -2  -2   16.21    0.97
   2  -2  -1   41.43    2.78
   2  -2  -1   46.77    2.02
   2  -2  -1   38.15    2.55
   2  -2   0  136.46    6.65
   2  -2   0  139.57    6.72
   2  -2   0  142.91    5.68
   2  -2   0  135.30    6.56
   2  -2   1   67.63    4.21
   2  -2   1   62.20    3.83
   2  -2   1   65.75    2.87
   2  -2   1   65.11    2.80
   2  -2   1   65.70    2.84
   2  -2   2 1515.73   59.47
   2  -2   2 1645.44   59.96
   2  -2   2 1592.63   59.32
   2  -2   2 1547.55   57.88
   2  -2   2 1488.27   57.84
   2  -2   2 1552.95   57.90
   2  -2   2 1478.05   57.80
   2  -2   3   26.25    2.41
   2  -2   3   24.89    2.57
   2  -2   3   24.03    2.14
   2  -2   3   23.72    2.07
   2  -2   3   24.70    1.31
   2  -2   3   23.88    1.28
   2  -2   3   24.65    1.25
   2  -2   4  158.46    7.93
   2  -2   4  163.33    8.33
   2  -2   4  155.50    7.43
   2  -2   4  149.60    6.05
   2  -2   4  149.53    7.30
   2  -2   4  145.94    5.99
   2  -2   4  142.68    5.93
   2  -2   5    0.16    0.42
   2  -2   5    1.94    0.81
   2  -2   5    0.49    0.60
   2  -2   5    1.17    0.30
   2  -2   5    1.05    0.54
   2  -2   5    0.93    0.23
   2  -2   5    0.82    0.21
   2  -2   6    2.07    0.69
   2  -2   6    1.19    0.76
   2  -2   6    1.97    0.35
   2  -2   6    1.93    0.74
   2  -2   6    1.44    0.28
   2  -2   6    1.71    0.28
   2  -2   7    2.36    0.74
   2  -2   7    4.21    1.24
   2  -2   7    3.33    0.45
   2  -2   7    3.19    0.85
   2  -2   7    2.88    0.38
   2  -2   8    0.13    0.18
   2  -2   8    0.34    0.38
   2  -2   8    0.37    0.32
   2  -2   8    0.30    0.53
   2  -2   9    0.17    0.17
   2  -2   9    0.34    0.45
   2  -2   9   -0.31    0.53
   2  -2   9    0.32    0.63
   2  -2  10    5.33    1.52
   2  -2  11    1.17    0.66
   2  -1 -14   -0.02    0.14
   2  -1 -14    0.01    0.08
   2  -1 -14    0.05    0.10
   2  -1 -13    5.50    0.40
   2  -1 -13    5.97    0.44
   2  -1 -12    0.10    0.14
   2  -1 -12    0.07    0.16
   2  -1 -12   -0.14    0.21
   2  -1 -11    7.39    0.63
   2  -1 -11    7.72    0.67
   2  -1 -10  110.33    4.69
   2  -1 -10  108.05    4.71
   2  -1 -10  110.96    4.65
   2  -1 -10  108.06    4.72
   2  -1  -9  499.99   19.04
   2  -1  -9  469.70   19.08
   2  -1  -9  509.17   19.04
   2  -1  -9  473.52   19.05
   2  -1  -8   43.87    2.04
   2  -1  -8   42.71    2.07
   2  -1  -8   39.96    2.09
   2  -1  -8   39.50    2.03
   2  -1  -8   41.59    2.10
   2  -1  -7   67.56    3.68
   2  -1  -7   70.51    3.15
   2  -1  -7   70.39    3.24
   2  -1  -7   75.01    3.20
   2  -1  -7   75.93    3.26
   2  -1  -6   15.81    0.99
   2  -1  -6   16.32    1.29
   2  -1  -6   16.70    0.95
   2  -1  -6   12.85    1.21
   2  -1  -5   18.08    1.02
   2  -1  -5   16.31    1.24
   2  -1  -4   58.19    2.81
   2  -1  -3    0.21    0.14
   2  -1  -3   -0.06    0.17
   2  -1  -3    0.07    0.15
   2  -1  -2    3.95    0.42
   2  -1  -2    2.96    0.53
   2  -1  -2    3.37    0.56
   2  -1  -1    0.31    0.13
   2  -1  -1    0.28    0.19
   2  -1  -1    0.39    0.27
   2  -1  -1    0.10    0.17
   2  -1  -1    0.39    0.27
   2  -1  -1    0.43    0.15
   2  -1  -1    0.38    0.13
   2  -1   0  177.58    6.98
   2  -1   0  166.11    6.74
   2  -1   0  167.05    7.10
   2  -1   0  159.58    6.88
   2  -1   0  138.42    6.55
   2  -1   0  145.28    6.06
   2  -1   1   29.53    2.10
   2  -1   1   23.53    1.83
   2  -1   1   25.88    1.23
   2  -1   1   27.19    1.27
   2  -1   2  239.36    9.18
   2  -1   2  230.10    9.13
   2  -1   2  238.12    9.12
   2  -1   2  232.52    9.17
   2  -1   3   28.00    1.34
   2  -1   3   28.45    1.33
   2  -1   3   30.81    1.40
   2  -1   4   20.23    2.03
   2  -1   4   17.40    0.94
   2  -1   4   19.53    0.94
   2  -1   4   19.26    1.01
   2  -1   4   17.75    1.56
   2  -1   5  102.12    4.16
   2  -1   5  106.81    5.15
   2  -1   5   98.92    4.08
   2  -1   5   97.08    4.03
   2  -1   6   55.25    3.41
   2  -1   6   60.42    4.07
   2  -1   6   52.06    2.35
   2  -1   6   52.70    3.28
   2  -1   6   45.34    2.98
   2  -1   7    0.66    0.20
   2  -1   7    0.27    0.35
   2  -1   7    0.60    0.40
   2  -1   7    0.21    0.56
   2  -1   8    0.85    0.23
   2  -1   8    1.59    0.58
   2  -1   8    0.49    0.37
   2  -1   8    0.91    0.68
   2  -1   9   30.72    2.60
   2  -1   9   33.44    3.21
   2  -1  10   11.83    1.92
   2  -1  11    1.76    0.80
   2  -1  12    5.03    1.18
   2   0 -14    2.97    0.32
   2   0 -14    2.45    0.27
   2   0 -13    5.13    0.52
   2   0 -13    4.86    0.48
   2   0 -13    4.44    0.39
   2   0 -12    4.17    0.49
   2   0 -12    3.43    0.39
   2   0 -11   70.85    3.19
   2   0 -11   68.08    3.07
   2   0 -10    1.86    0.31
   2   0 -10    1.49    0.30
   2   0 -10    1.57    0.34
   2   0 -10    1.12    0.33
   2   0  -9   90.82    5.07
   2   0  -9   98.98    4.17
   2   0  -9   97.98    4.23
   2   0  -9   97.06    4.26
   2   0  -8   78.74    4.30
   2   0  -8   77.89    3.42
   2   0  -8   83.46    3.54
   2   0  -8   76.05    3.45
   2   0  -8   78.89    3.52
   2   0  -7   77.12    4.13
   2   0  -7   80.90    3.40
   2   0  -7   69.57    3.36
   2   0  -7   79.60    3.36
   2   0  -7   78.96    3.28
   2   0  -7   75.50    3.39
   2   0  -6   62.38    2.74
   2   0  -6   57.01    2.96
   2   0  -6   64.51    3.37
   2   0  -5    0.19    0.19
   2   0  -5    0.47    0.25
   2   0  -4   11.45    1.01
   2   0  -4   13.30    1.10
   2   0  -3   94.92    4.37
   2   0  -3   92.01    4.10
   2   0  -3   99.59    4.40
   2   0  -2   92.54    4.29
   2   0  -2   90.28    4.24
   2   0  -2   95.61    4.40
   2   0  -1  272.51   10.78
   2   0  -1  291.34   11.35
   2   0  -1  273.33   11.01
   2   0  -1  297.97   11.56
   2   0   0    3.37    0.54
   2   0   0    2.28    0.50
   2   0   0    2.48    0.28
   2   0   1  190.60    8.07
   2   0   1  184.08    7.26
   2   0   1  192.19    8.04
   2   0   1  187.67    7.35
   2   0   2   13.87    0.72
   2   0   2   14.38    1.34
   2   0   3  102.56    4.12
   2   0   3  103.45    4.78
   2   0   3  106.76    5.05
   2   0   4    6.11    0.77
   2   0   4    5.13    0.69
   2   0   4    5.03    0.38
   2   0   5   33.29    2.14
   2   0   5   39.52    2.78
   2   0   5   35.93    1.59
   2   0   5   34.03    2.15
   2   0   6   59.13    3.16
   2   0   6   58.00    2.51
   2   0   6   60.07    3.24
   2   0   6   67.75    3.97
   2   0   7  194.77    7.62
   2   0   7  180.95    8.47
   2   0   8   49.18    3.10
   2   0   8   60.89    4.05
   2   0   9   58.18    4.25
   2   0  10    9.28    1.55
   2   0  10   10.81    1.80
   2   0  11    2.49    0.99
   2   0  11    2.40    0.82
   2   0  11    2.10    0.91
   2   0  12    7.57    1.69
   2   1 -14   22.12    1.09
   2   1 -13    8.00    0.56
   2   1 -13    9.56    0.61
   2   1 -12   54.84    2.42
   2   1 -12   50.09    2.19
   2   1 -12   53.71    2.40
   2   1 -11    3.59    0.39
   2   1 -11    4.27    0.45
   2   1 -11    4.31    0.53
   2   1 -10   48.07    2.31
   2   1 -10   49.44    3.43
   2   1 -10   54.11    2.41
   2   1 -10   55.96    2.58
   2   1  -9    2.15    0.33
   2   1  -9    2.42    0.31
   2   1  -9    1.92    0.43
   2   1  -9    2.48    0.37
   2   1  -9    2.45    0.65
   2   1  -9    1.75    0.40
   2   1  -8   39.66    1.93
   2   1  -8   39.28    1.83
   2   1  -8   38.14    1.92
   2   1  -8   42.56    2.86
   2   1  -8   38.85    1.91
   2   1  -8   42.68    2.04
   2   1  -8   38.58    2.13
   2   1  -7   10.60    0.72
   2   1  -7   11.20    1.26
   2   1  -7   10.40    0.77
   2   1  -7    9.40    0.82
   2   1  -7    9.63    0.72
   2   1  -7   10.38    0.73
   2   1  -6    0.21    0.26
   2   1  -6    0.10    0.16
   2   1  -5    1.33    0.42
   2   1  -4  931.07   35.30
   2   1  -4  864.90   35.44
   2   1  -4  949.94   35.69
   2   1  -3    0.55    0.29
   2   1  -3    0.50    0.31
   2   1  -3    0.33    0.32
   2   1  -2  293.40   11.89
   2   1  -1   39.97    2.22
   2   1  -1   40.64    2.37
   2   1   0  230.21    9.04
   2   1   0  236.12    9.85
   2   1   1   -0.06    0.18
   2   1   1    0.36    0.33
   2   1   1    0.12    0.21
   2   1   1    0.08    0.22
   2   1   2  622.10   24.37
   2   1   2  613.70   24.43
   2   1   2  620.39   24.78
   2   1   2  627.09   23.85
   2   1   2  624.78   24.58
   2   1   3  178.86    7.08
   2   1   3  180.84    7.56
   2   1   3  173.66    7.77
   2   1   4   12.52    1.35
   2   1   4    9.59    0.93
   2   1   4   13.01    1.23
   2   1   5  106.35    5.44
   2   1   5   99.14    4.69
   2   1   5  104.46    5.09
   2   1   6    4.97    0.86
   2   1   6    5.10    1.01
   2   1   7   -0.13    0.25
   2   1   7    0.17    0.35
   2   1   8   38.81    2.82
   2   1   8   39.76    3.25
   2   1   9   -0.15    0.38
   2   1   9   -0.46    0.56
   2   1  10  102.02    6.49
   2   1  11    2.25    0.91
   2   1  11    5.03    1.28
   2   1  12    3.16    1.08
   2   1  12    3.52    0.53
   2   1  13   66.47    5.23
   2   2 -14    0.39    0.13
   2   2 -13   -0.04    0.05
   2   2 -13    0.07    0.09
   2   2 -13    0.03    0.16
   2   2 -12   23.81    1.22
   2   2 -12   22.84    1.27
   2   2 -12   26.15    1.37
   2   2 -11   19.74    1.20
   2   2 -11   19.26    1.07
   2   2 -11   18.90    1.14
   2   2 -11   17.39    1.00
   2   2 -10    8.81    0.76
   2   2 -10    9.76    1.33
   2   2 -10    9.16    0.67
   2   2 -10    9.51    0.76
   2   2 -10    8.20    0.66
   2   2  -9   63.84    2.85
   2   2  -9   63.16    3.14
   2   2  -9   67.51    3.00
   2   2  -9   59.47    2.82
   2   2  -9   65.36    4.03
   2   2  -9   64.83    2.85
   2   2  -8   12.50    0.84
   2   2  -8   13.77    1.06
   2   2  -8   13.85    0.94
   2   2  -8   10.88    0.82
   2   2  -8   13.63    0.94
   2   2  -8   14.81    1.61
   2   2  -7   28.13    1.40
   2   2  -7   24.96    1.56
   2   2  -7   28.06    1.47
   2   2  -7   25.93    1.46
   2   2  -7   25.65    1.40
   2   2  -7   29.49    2.29
   2   2  -6   16.74    0.93
   2   2  -6   14.78    1.05
   2   2  -6   15.99    0.97
   2   2  -6   16.24    1.01
   2   2  -6   14.93    0.97
   2   2  -6   14.84    0.94
   2   2  -6   17.96    1.67
   2   2  -5   75.96    4.13
   2   2  -4   11.35    1.18
   2   2  -4    9.42    1.15
   2   2  -3   28.98    2.17
   2   2  -3   35.34    2.33
   2   2  -2    4.04    0.78
   2   2  -1   71.90    3.30
   2   2   0   36.98    2.25
   2   2   0   40.38    2.29
   2   2   0   35.59    1.76
   2   2   1  308.56   12.50
   2   2   1  297.58   12.55
   2   2   2  437.65   17.65
   2   2   2  439.63   16.94
   2   2   2  458.93   18.15
   2   2   2  425.55   17.79
   2   2   3  538.20   21.22
   2   2   3  526.36   20.45
   2   2   3  552.45   21.75
   2   2   4   26.98    1.87
   2   2   4   27.21    1.37
   2   2   4   27.72    2.21
   2   2   5    9.91    1.10
   2   2   5   11.60    1.46
   2   2   5   11.68    0.76
   2   2   6   32.16    2.75
   2   2   6   31.84    2.20
   2   2   6   33.14    2.70
   2   2   6   31.92    1.62
   2   2   7   79.42    4.91
   2   2   7   74.03    4.10
   2   2   7   83.57    4.98
   2   2   7   78.14    3.44
   2   2   8    3.21    0.43
   2   2   8    3.19    0.91
   2   2   8    2.20    0.78
   2   2   9   16.10    2.11
   2   2   9   14.45    1.03
   2   2   9   17.55    2.22
   2   2  10    9.50    1.70
   2   2  10    9.53    1.70
   2   2  10    9.03    1.63
   2   2  11   36.69    3.52
   2   2  11   38.37    3.49
   2   2  12   23.34    2.80
   2   2  13   64.00    4.83
   2   3 -13    0.15    0.09
   2   3 -12   -0.08    0.16
   2   3 -12   -0.05    0.13
   2   3 -11   42.69    1.93
   2   3 -11   40.42    2.11
   2   3 -11   38.73    1.95
   2   3 -10    9.70    0.71
   2   3 -10    9.41    0.74
   2   3 -10    8.34    0.80
   2   3 -10    8.11    0.58
   2   3  -9    2.08    0.63
   2   3  -9    1.86    0.28
   2   3  -9    1.66    0.31
   2   3  -9    2.19    0.44
   2   3  -9    1.57    0.32
   2   3  -9    2.05    0.35
   2   3  -8    9.90    1.37
   2   3  -8   13.63    0.90
   2   3  -8   13.62    1.05
   2   3  -8   12.79    0.89
   2   3  -8   11.85    0.90
   2   3  -7    2.55    0.67
   2   3  -7    2.23    0.34
   2   3  -7    2.34    0.37
   2   3  -7    2.45    0.44
   2   3  -7    1.83    0.34
   2   3  -7    2.56    0.42
   2   3  -7    2.93    0.43
   2   3  -6    0.93    0.44
   2   3  -6    0.18    0.17
   2   3  -6    0.51    0.25
   2   3  -6    0.08    0.15
   2   3  -6    0.47    0.20
   2   3  -6    0.25    0.19
   2   3  -5   35.73    1.81
   2   3  -5   34.75    1.78
   2   3  -5   36.06    2.54
   2   3  -5   35.56    1.80
   2   3  -5   34.36    1.72
   2   3  -5   34.78    1.86
   2   3  -4   50.32    2.29
   2   3  -4   49.03    2.27
   2   3  -4   47.80    2.25
   2   3  -4   44.37    2.24
   2   3  -4   50.99    3.10
   2   3  -3   33.78    2.40
   2   3  -3   34.87    2.63
   2   3  -2    7.97    1.02
   2   3  -2    6.25    1.06
   2   3  -1   10.18    0.62
   2   3   0  370.33   14.22
   2   3   0  357.00   14.14
   2   3   0  364.51   14.10
   2   3   0  381.92   15.06
   2   3   1   84.91    3.66
   2   3   1   88.18    3.64
   2   3   1   82.13    4.38
   2   3   2  492.75   19.59
   2   3   2  452.37   19.11
   2   3   3  132.43    6.54
   2   3   3  125.24    5.25
   2   3   4   80.74    3.56
   2   3   5   71.85    4.47
   2   3   5   66.69    3.52
   2   3   6   -0.19    0.53
   2   3   6   -0.18    0.41
   2   3   7   41.52    3.39
   2   3   7   41.42    3.31
   2   3   8   40.46    3.65
   2   3   8   38.33    3.23
   2   3   8   36.17    3.23
   2   3   9    7.15    0.71
   2   3   9    9.93    1.58
   2   3   9    6.65    1.42
   2   3   9    7.48    1.65
   2   3  10    2.64    0.90
   2   3  10    2.95    0.47
   2   3  11    0.23    0.47
   2   3  11   -0.25    0.43
   2   3  11    0.26    0.21
   2   3  12    1.20    0.72
   2   3  12    1.70    0.81
   2   3  13   -0.17    0.21
   2   3  13   -0.23    0.32
   2   3  14    7.11    0.76
   2   4 -12    0.19    0.09
   2   4 -11    2.55    0.29
   2   4 -10    0.58    0.21
   2   4 -10    1.23    0.30
   2   4  -9   88.74    3.74
   2   4  -9   83.19    3.88
   2   4  -8   -0.05    0.22
   2   4  -8    0.04    0.18
   2   4  -8    0.16    0.25
   2   4  -7   77.68    3.57
   2   4  -7   80.75    3.57
   2   4  -7   81.36    3.49
   2   4  -7   76.92    3.62
   2   4  -7   68.89    4.34
   2   4  -6   72.91    3.52
   2   4  -6   78.17    3.56
   2   4  -6   81.10    3.55
   2   4  -6   80.13    3.46
   2   4  -6   75.82    3.57
   2   4  -6   76.99    4.41
   2   4  -5    0.70    0.26
   2   4  -5    0.39    0.32
   2   4  -5    0.32    0.20
   2   4  -5    0.53    0.23
   2   4  -5    0.33    0.23
   2   4  -5    0.86    0.24
   2   4  -4   16.77    1.06
   2   4  -4   15.23    1.03
   2   4  -4   14.77    1.56
   2   4  -4   12.79    0.97
   2   4  -4   16.36    1.01
   2   4  -3   72.39    3.38
   2   4  -3   79.52    3.45
   2   4  -3   80.77    4.31
   2   4  -3   80.97    3.48
   2   4  -3   76.39    3.42
   2   4  -3   75.18    3.47
   2   4  -2   38.54    1.94
   2   4  -2   35.34    1.92
   2   4  -2   38.17    1.86
   2   4  -2   39.31    1.90
   2   4  -2   36.58    1.90
   2   4  -2   39.38    3.07
   2   4  -2   35.07    2.54
   2   4  -1   88.18    5.21
   2   4  -1   89.44    3.91
   2   4  -1   86.43    3.90
   2   4  -1   88.06    3.76
   2   4  -1   90.81    3.82
   2   4  -1   88.98    4.68
   2   4  -1   85.68    3.81
   2   4   0   15.82    0.97
   2   4   0   15.60    1.10
   2   4   0   17.86    1.10
   2   4   0   15.87    0.97
   2   4   0   15.67    1.14
   2   4   0   16.13    1.86
   2   4   0   14.45    1.07
   2   4   0   15.16    1.03
   2   4   1   56.53    2.64
   2   4   1   54.74    2.56
   2   4   1   57.01    2.64
   2   4   1   54.37    2.73
   2   4   1   53.28    3.73
   2   4   1   58.15    2.74
   2   4   1   53.94    3.06
   2   4   1   59.25    3.69
   2   4   1   53.78    2.62
   2   4   1   55.26    2.71
   2   4   2    7.38    0.59
   2   4   2    7.89    0.65
   2   4   2    7.80    0.71
   2   4   2    8.57    0.80
   2   4   2    7.74    0.76
   2   4   2    9.52    1.08
   2   4   2    9.85    1.35
   2   4   2    6.97    0.73
   2   4   2    7.37    0.68
   2   4   3   50.49    2.48
   2   4   3   52.64    2.52
   2   4   3   51.73    2.50
   2   4   3   49.19    2.42
   2   4   3   50.28    2.57
   2   4   3   47.57    3.10
   2   4   3   53.27    2.49
   2   4   3   48.16    3.48
   2   4   4    0.10    0.26
   2   4   4    0.05    0.21
   2   4   4    0.06    0.24
   2   4   4    0.18    0.43
   2   4   4   -0.14    0.22
   2   4   4    0.05    0.18
   2   4   5   32.51    1.80
   2   4   5   33.08    1.79
   2   4   5   29.38    1.70
   2   4   5   30.77    1.86
   2   4   6   35.35    1.86
   2   4   6   36.41    1.93
   2   4   6   31.13    1.84
   2   4   7  438.76   19.21
   2   4   7  419.00   16.95
   2   4   7  437.44   17.08
   2   4   7  446.19   17.11
   2   4   8   71.03    5.06
   2   4   8   77.73    3.57
   2   4   8   77.71    3.59
   2   4   9  353.14   15.49
   2   4   9  335.33   13.21
   2   4   9  322.79   13.20
   2   4  10   44.15    3.66
   2   4  10   43.17    2.19
   2   4  10   40.63    2.16
   2   4  11    0.22    0.39
   2   4  11    0.05    0.19
   2   4  11   -0.22    0.44
   2   4  11    0.06    0.23
   2   4  12   11.28    1.71
   2   4  12   10.21    1.63
   2   4  12    9.86    0.88
   2   4  12   11.24    0.98
   2   4  13   15.95    1.16
   2   4  14   16.34    1.02
   2   5 -11    0.78    0.12
   2   5 -10    0.43    0.14
   2   5  -9   14.06    0.82
   2   5  -8    0.15    0.17
   2   5  -7    0.87    0.25
   2   5  -7    1.03    0.28
   2   5  -6   10.21    0.83
   2   5  -6    8.70    0.75
   2   5  -6   10.54    0.85
   2   5  -5  108.15    4.83
   2   5  -5  113.14    4.73
   2   5  -4   59.89    2.88
   2   5  -4   59.42    2.88
   2   5  -4   60.62    2.84
   2   5  -3   73.21    3.48
   2   5  -3   77.87    3.55
   2   5  -3   80.34    3.55
   2   5  -2  116.17    5.03
   2   5  -2  121.12    5.15
   2   5  -2  116.66    5.07
   2   5  -1   83.81    3.80
   2   5  -1   78.91    3.72
   2   5  -1   81.21    3.62
   2   5  -1   83.57    3.61
   2   5  -1   81.51    4.32
   2   5  -1   79.93    3.67
   2   5   0    0.55    0.23
   2   5   0    0.59    0.29
   2   5   0    0.05    0.20
   2   5   0   -0.08    0.16
   2   5   0    0.40    0.49
   2   5   0    0.11    0.22
   2   5   0    0.14    0.24
   2   5   1   14.96    1.09
   2   5   1   17.47    2.05
   2   5   1   15.03    1.18
   2   5   1   15.18    1.16
   2   5   1   13.47    1.05
   2   5   1   14.61    0.96
   2   5   1   14.95    1.47
   2   5   1   14.67    1.01
   2   5   2   37.82    2.06
   2   5   2   37.64    1.94
   2   5   2   39.83    2.25
   2   5   2   41.67    2.25
   2   5   2   42.29    2.14
   2   5   2   39.36    2.15
   2   5   2   41.96    3.35
   2   5   3   61.56    2.92
   2   5   3   54.65    3.97
   2   5   3   58.43    2.93
   2   5   3   51.02    2.59
   2   5   3   57.68    2.81
   2   5   3   59.68    2.85
   2   5   3   53.41    2.72
   2   5   3   56.97    2.75
   2   5   3   53.78    2.80
   2   5   3   44.53    3.35
   2   5   4   22.64    1.53
   2   5   4   21.44    2.32
   2   5   4   23.88    1.50
   2   5   4   24.87    1.57
   2   5   4   21.72    1.37
   2   5   4   23.01    1.49
   2   5   4   23.84    1.61
   2   5   4   21.82    1.41
   2   5   4   22.02    2.51
   2   5   4   21.03    2.12
   2   5   5   21.42    1.46
   2   5   5   20.09    1.50
   2   5   5   19.94    2.21
   2   5   5   22.25    1.44
   2   5   5   23.39    1.53
   2   5   5   21.17    1.51
   2   5   5   18.12    1.26
   2   5   5   17.34    2.32
   2   5   5   15.54    1.96
   2   5   5   20.91    1.34
   2   5   5   20.34    1.40
   2   5   6   21.73    1.40
   2   5   6   19.18    1.37
   2   5   6   22.85    1.58
   2   5   6   17.86    1.23
   2   5   6   23.26    2.38
   2   5   6   21.76    1.59
   2   5   6   19.21    1.41
   2   5   7  221.49    9.38
   2   5   7  230.24    9.42
   2   5   7  225.79    9.35
   2   5   7  232.91    9.61
   2   5   7  233.24   11.64
   2   5   7  225.67   11.08
   2   5   8   55.99    2.73
   2   5   8   55.65    2.85
   2   5   8   49.50    2.59
   2   5   8   58.98    4.39
   2   5   8   53.17    4.01
   2   5   8   48.62    2.59
   2   5   9    0.06    0.25
   2   5   9    0.14    0.31
   2   5   9    0.24    0.20
   2   5   9    0.76    0.36
   2   5   9    0.91    0.65
   2   5   9    0.21    0.36
   2   5  10    0.37    0.24
   2   5  10    0.31    0.26
   2   5  10    0.19    0.30
   2   5  10    0.44    0.29
   2   5  10    0.50    0.22
   2   5  10    0.12    0.28
   2   5  10    0.21    0.42
   2   5  10    0.20    0.52
   2   5  11    1.09    0.35
   2   5  11    0.95    0.28
   2   5  11    1.31    0.35
   2   5  11    0.60    0.31
   2   5  12   11.62    0.84
   2   5  12   11.11    0.88
   2   5  12   11.70    0.88
   2   5  12   10.90    0.84
   2   5  12   12.02    0.89
   2   5  13    2.76    0.34
   2   5  13    3.42    0.45
   2   6  -9    0.01    0.05
   2   6  -8    3.88    0.32
   2   6  -7    0.48    0.16
   2   6  -6   13.68    0.82
   2   6  -5    0.35    0.17
   2   6  -5    0.29    0.21
   2   6  -4   78.66    3.74
   2   6  -4   87.69    3.78
   2   6  -4   87.05    3.82
   2   6  -4   89.61    3.70
   2   6  -3   30.72    1.70
   2   6  -3   32.62    1.76
   2   6  -3   30.05    1.72
   2   6  -3   34.31    1.67
   2   6  -2   27.21    1.54
   2   6  -2   26.73    1.58
   2   6  -2   28.99    1.52
   2   6  -2   29.79    1.66
   2   6  -1   12.23    0.85
   2   6  -1   10.65    0.83
   2   6  -1   10.48    0.86
   2   6  -1   13.41    1.02
   2   6   0   29.78    1.62
   2   6   0   27.29    1.51
   2   6   0   31.30    1.77
   2   6   0   27.65    1.59
   2   6   1    9.44    0.91
   2   6   1    9.94    0.79
   2   6   1    9.55    0.83
   2   6   2    0.06    0.26
   2   6   3    5.69    0.57
   2   6   3    5.77    0.62
   2   6   3    5.07    0.66
   2   6   4   -0.07    0.34
   2   6   4   -0.09    0.20
   2   6   4    0.21    0.34
   2   6   4    0.09    0.20
   2   6   4    0.06    0.28
   2   6   5    3.16    0.63
   2   6   5    3.83    0.52
   2   6   5    3.71    0.64
   2   6   5    3.22    0.42
   2   6   5    3.66    0.60
   2   6   6   14.24    1.21
   2   6   6   11.57    0.96
   2   6   6   13.65    1.13
   2   6   6   12.15    1.09
   2   6   7   20.31    1.37
   2   6   7   21.36    1.36
   2   6   7   20.90    1.50
   2   6   7   21.79    1.48
   2   6   7   21.71    1.50
   2   6   8    3.14    0.54
   2   6   8    3.05    0.47
   2   6   8    4.21    0.47
   2   6   8    3.69    0.55
   2   6   8    3.08    0.55
   2   6   8    3.51    0.50
   2   6   9    9.88    0.74
   2   6   9   10.14    0.82
   2   6   9    8.58    0.81
   2   6   9   10.02    0.83
   2   6  10   16.92    1.03
   2   6  10   20.25    1.22
   2   6  10   19.36    1.15
   2   6  10   16.73    1.09
   2   6  10   18.12    1.11
   2   6  11    0.04    0.19
   2   6  11    0.03    0.16
   2   6  11    0.05    0.14
   2   6  12    2.13    0.29
   2   7  -5    3.44    0.26
   2   7  -4    0.68    0.14
   2   7  -3    1.74    0.22
   2   7  -2    5.29    0.42
   2   7  -2    6.53    0.55
   2   7  -1   13.12    0.77
   2   7  -1   14.57    0.94
   2   7   0   -0.02    0.12
   2   7   0   -0.03    0.10
   2   7   1   29.38    1.41
   2   7   1   28.73    1.47
   2   7   2   13.19    0.88
   2   7   3   20.89    1.31
   2   7   3   21.14    1.23
   2   7   4    4.24    0.55
   2   7   4    3.75    0.48
   2   7   5   24.78    1.44
   2   7   5   24.98    1.41
   2   7   6    2.10    0.38
   2   7   6    2.40    0.40
   2   7   7    0.31    0.19
   2   7   7    0.55    0.25
   2   7   8    0.60    0.18
   2   7   8    0.76    0.24
   2   7   9   14.85    0.78
   2   8   2    0.53    0.13
   2   8   3    1.74    0.22
   2   8   4    0.12    0.09
   3  -5  -5    0.19    0.11
   3  -5  -4    0.29    0.12
   3  -5  -3   11.17    0.66
   3  -5  -2    0.99    0.20
   3  -5  -1    3.31    0.32
   3  -5   0    0.11    0.11
   3  -5   1   -0.03    0.09
   3  -5   1   -0.01    0.03
   3  -5   2    0.41    0.14
   3  -5   2    0.25    0.10
   3  -5   3    0.64    0.14
   3  -5   3    0.55    0.12
   3  -5   4    0.39    0.10
   3  -4  -9    2.52    0.22
   3  -4  -8    1.13    0.20
   3  -4  -8    0.59    0.11
   3  -4  -7    1.77    0.21
   3  -4  -6    0.92    0.19
   3  -4  -6    1.18    0.20
   3  -4  -6    0.89    0.24
   3  -4  -5    7.59    0.55
   3  -4  -5    9.09    0.67
   3  -4  -4    2.71    0.39
   3  -4  -3    3.98    0.47
   3  -4  -2    6.10    0.57
   3  -4  -2    5.54    0.48
   3  -4  -1    0.76    0.28
   3  -4  -1    0.48    0.18
   3  -4  -1    0.50    0.23
   3  -4  -1    0.39    0.19
   3  -4   0    1.07    0.25
   3  -4   0    1.33    0.32
   3  -4   0    1.48    0.30
   3  -4   0    1.06    0.26
   3  -4   1    0.47    0.21
   3  -4   1    0.43    0.25
   3  -4   1    0.49    0.21
   3  -4   1    0.47    0.22
   3  -4   2    0.34    0.21
   3  -4   2    0.52    0.17
   3  -4   2    0.28    0.22
   3  -4   3    2.83    0.40
   3  -4   3    3.11    0.41
   3  -4   3    2.53    0.31
   3  -4   3    3.27    0.43
   3  -4   4   11.08    0.77
   3  -4   4   11.03    0.78
   3  -4   5    3.40    0.37
   3  -4   5    2.84    0.35
   3  -4   5    3.32    0.39
   3  -4   6   -0.03    0.13
   3  -4   6    0.09    0.12
   3  -4   7   -0.02    0.11
   3  -4   7    0.36    0.14
   3  -4   7    0.15    0.10
   3  -4   8    0.24    0.09
   3  -4   8    0.21    0.10
   3  -3 -11    2.66    0.21
   3  -3 -10    0.41    0.14
   3  -3  -9    3.10    0.34
   3  -3  -9    2.92    0.32
   3  -3  -9    3.06    0.37
   3  -3  -8    2.95    0.35
   3  -3  -8    3.92    0.41
   3  -3  -8    2.96    0.39
   3  -3  -7   15.78    0.97
   3  -3  -7   16.96    1.04
   3  -3  -7   18.55    1.05
   3  -3  -6    1.29    0.25
   3  -3  -6    1.69    0.36
   3  -3  -6    1.04    0.27
   3  -3  -6    0.67    0.22
   3  -3  -5    5.70    0.57
   3  -3  -5    7.45    0.68
   3  -3  -4   -0.07    0.17
   3  -3  -4    0.03    0.11
   3  -3  -4    0.09    0.22
   3  -3  -3    1.63    0.30
   3  -3  -3    1.53    0.34
   3  -3  -2    2.38    0.37
   3  -3  -2    2.00    0.37
   3  -3  -2    1.74    0.37
   3  -3  -2    1.97    0.34
   3  -3  -1    2.61    0.40
   3  -3  -1    3.20    0.44
   3  -3  -1    3.12    0.45
   3  -3  -1    2.09    0.41
   3  -3   0    7.82    0.72
   3  -3   0    8.53    0.71
   3  -3   0    7.26    0.71
   3  -3   0    7.81    0.71
   3  -3   1   31.07    1.70
   3  -3   1   33.25    1.78
   3  -3   1   34.10    1.81
   3  -3   1   33.90    1.78
   3  -3   2   17.17    1.10
   3  -3   2   20.45    1.27
   3  -3   2   19.62    1.21
   3  -3   2   15.20    1.80
   3  -3   2   18.16    1.19
   3  -3   3  192.31    8.07
   3  -3   3  210.29    8.26
   3  -3   3  218.36    8.29
   3  -3   3  177.42    9.59
   3  -3   3  200.79    8.24
   3  -3   4    9.99    0.82
   3  -3   4    9.98    0.82
   3  -3   4   10.12    0.82
   3  -3   4    9.31    1.47
   3  -3   5   38.35    1.94
   3  -3   5   31.87    1.90
   3  -3   5   41.14    1.95
   3  -3   5   31.39    2.93
   3  -3   5   40.99    1.94
   3  -3   6    0.05    0.18
   3  -3   6   -0.08    0.18
   3  -3   6    0.07    0.19
   3  -3   6   -0.04    0.18
   3  -3   6   -0.18    0.49
   3  -3   7    0.77    0.23
   3  -3   7    0.35    0.19
   3  -3   7    0.70    0.22
   3  -3   7    0.76    0.22
   3  -3   8    1.62    0.24
   3  -3   8    1.60    0.25
   3  -3   9   -0.13    0.14
   3  -3  10    0.18    0.11
   3  -2 -12    2.32    0.23
   3  -2 -11    0.02    0.02
   3  -2 -11    0.98    0.20
   3  -2 -10    5.99    0.50
   3  -2 -10    7.16    0.53
   3  -2 -10    6.81    0.49
   3  -2  -9   63.26    2.85
   3  -2  -9   69.49    2.98
   3  -2  -9   65.92    2.92
   3  -2  -8  146.94    6.13
   3  -2  -8  144.35    6.22
   3  -2  -8  158.01    6.25
   3  -2  -8  154.18    6.18
   3  -2  -7   25.69    1.45
   3  -2  -7   25.19    1.49
   3  -2  -7   29.49    1.54
   3  -2  -7   27.24    1.46
   3  -2  -7   29.36    1.60
   3  -2  -6   44.42    2.28
   3  -2  -6   49.27    2.38
   3  -2  -6   49.09    2.26
   3  -2  -5    3.71    0.46
   3  -2  -5    3.51    0.76
   3  -2  -5    3.45    0.39
   3  -2  -5    4.57    0.53
   3  -2  -5    3.43    0.40
   3  -2  -4    4.45    0.49
   3  -2  -4    4.57    0.55
   3  -2  -4    4.77    0.46
   3  -2  -4    4.16    0.85
   3  -2  -4    4.56    0.49
   3  -2  -3    7.87    0.68
   3  -2  -3    8.66    0.73
   3  -2  -2    0.84    0.25
   3  -2  -2    0.54    0.24
   3  -2  -2    0.53    0.24
   3  -2  -2    0.64    0.24
   3  -2  -1    0.15    0.19
   3  -2  -1    0.09    0.17
   3  -2  -1    0.04    0.16
   3  -2  -1   -0.07    0.17
   3  -2  -1   -0.04    0.20
   3  -2  -1    0.12    0.19
   3  -2   0    0.04    0.21
   3  -2   0    0.08    0.19
   3  -2   0    0.04    0.17
   3  -2   0    0.18    0.18
   3  -2   0    0.15    0.33
   3  -2   0    0.17    0.34
   3  -2   1   27.45    2.43
   3  -2   1   25.78    1.46
   3  -2   1   23.91    2.38
   3  -2   1   24.95    1.39
   3  -2   1   28.05    1.48
   3  -2   2    3.07    0.43
   3  -2   2    2.48    0.80
   3  -2   2    2.24    0.75
   3  -2   2    3.13    0.94
   3  -2   2    1.88    0.37
   3  -2   2    2.54    0.43
   3  -2   2    3.02    0.38
   3  -2   2    2.76    0.43
   3  -2   3   91.87    4.15
   3  -2   3   92.80    4.22
   3  -2   3   98.48    4.15
   3  -2   3   92.49    6.02
   3  -2   3   82.69    5.51
   3  -2   3   98.64    5.72
   3  -2   3  100.94    4.16
   3  -2   4    1.96    0.37
   3  -2   4    1.02    0.62
   3  -2   4    1.49    0.35
   3  -2   4    0.93    0.53
   3  -2   4    1.24    0.33
   3  -2   4    0.88    0.56
   3  -2   4    1.39    0.66
   3  -2   4    1.58    0.75
   3  -2   4    1.87    0.96
   3  -2   5    3.33    0.45
   3  -2   5    3.70    1.01
   3  -2   5    3.89    0.48
   3  -2   5    3.74    0.49
   3  -2   5    5.41    1.15
   3  -2   5    1.25    0.60
   3  -2   5    2.82    0.84
   3  -2   5    2.99    1.03
   3  -2   5    4.34    1.30
   3  -2   6    8.43    0.72
   3  -2   6    7.00    1.40
   3  -2   6    7.54    0.68
   3  -2   6    8.54    1.42
   3  -2   6    5.78    1.42
   3  -2   6    7.22    1.73
   3  -2   6    7.70    0.68
   3  -2   6    7.24    1.44
   3  -2   7   10.73    0.81
   3  -2   7    7.09    1.47
   3  -2   7   10.14    0.77
   3  -2   7   11.10    2.00
   3  -2   7    9.44    0.75
   3  -2   7   11.15    1.76
   3  -2   8    0.48    0.53
   3  -2   8    0.82    0.23
   3  -2   8   -0.29    0.58
   3  -2   8    0.96    0.24
   3  -2   9    0.21    0.46
   3  -2  10    6.01    0.51
   3  -2  10    7.59    0.72
   3  -2  11    1.09    0.20
   3  -1 -13    2.27    0.21
   3  -1 -12    4.67    0.38
   3  -1 -11    0.77    0.20
   3  -1 -11    0.29    0.18
   3  -1 -10   32.56    1.65
   3  -1 -10   33.59    1.69
   3  -1  -9   -0.04    0.18
   3  -1  -9    0.13    0.21
   3  -1  -8   92.19    3.98
   3  -1  -8   92.02    4.06
   3  -1  -7   25.41    1.36
   3  -1  -7   26.54    1.52
   3  -1  -7   26.49    1.43
   3  -1  -7   24.80    1.47
   3  -1  -6   24.57    1.43
   3  -1  -6   25.26    1.35
   3  -1  -6   22.62    1.37
   3  -1  -5   17.69    1.72
   3  -1  -5   20.83    1.17
   3  -1  -5   20.67    1.25
   3  -1  -5   23.23    1.22
   3  -1  -5   19.46    1.21
   3  -1  -4    2.33    0.35
   3  -1  -4    3.02    0.69
   3  -1  -4    1.71    0.33
   3  -1  -4    2.29    0.32
   3  -1  -4    1.93    0.34
   3  -1  -3    1.60    0.30
   3  -1  -3    1.01    0.24
   3  -1  -3    2.19    0.61
   3  -1  -3    1.50    0.29
   3  -1  -3    1.27    0.23
   3  -1  -2   12.71    0.86
   3  -1  -2   15.36    0.94
   3  -1  -2   14.09    0.88
   3  -1  -2   15.70    0.96
   3  -1  -2   13.73    0.90
   3  -1  -2   13.28    1.43
   3  -1  -2   12.89    0.88
   3  -1  -2   12.26    1.39
   3  -1  -1   29.70    1.53
   3  -1  -1   33.02    1.60
   3  -1  -1   28.47    2.33
   3  -1  -1   32.72    1.62
   3  -1  -1   30.38    1.54
   3  -1  -1   25.74    2.21
   3  -1   0   24.34    2.13
   3  -1   0   23.99    2.06
   3  -1   0   22.86    1.28
   3  -1   0   21.37    1.18
   3  -1   0   22.26    1.21
   3  -1   1    2.57    0.35
   3  -1   1    3.00    0.77
   3  -1   1    2.15    0.35
   3  -1   1    2.33    0.33
   3  -1   1    2.51    0.40
   3  -1   1    1.79    0.54
   3  -1   1    2.72    0.72
   3  -1   1    1.15    0.54
   3  -1   2   33.07    2.70
   3  -1   2   43.11    2.06
   3  -1   2   39.35    3.02
   3  -1   2   40.47    1.92
   3  -1   2   45.49    3.10
   3  -1   2   37.54    2.80
   3  -1   2   41.06    3.13
   3  -1   2   38.80    1.89
   3  -1   3   -0.10    0.15
   3  -1   3    0.05    0.21
   3  -1   3   -0.04    0.19
   3  -1   3   -0.16    0.27
   3  -1   3    0.23    0.17
   3  -1   3   -0.17    0.42
   3  -1   3   -0.14    0.29
   3  -1   3   -0.20    0.48
   3  -1   4    5.50    0.52
   3  -1   4    6.31    0.57
   3  -1   4    5.62    1.14
   3  -1   4    5.36    0.52
   3  -1   4    4.45    1.10
   3  -1   4    6.06    1.08
   3  -1   4    5.73    1.09
   3  -1   4    4.95    1.21
   3  -1   5    2.07    0.35
   3  -1   5    2.06    0.78
   3  -1   5    2.45    0.35
   3  -1   5    2.06    0.66
   3  -1   5    1.96    0.69
   3  -1   6   -0.19    0.38
   3  -1   6   -0.04    0.17
   3  -1   6    0.69    0.61
   3  -1   6    0.94    0.25
   3  -1   7   14.01    1.81
   3  -1   7   12.43    0.83
   3  -1   7   14.18    2.00
   3  -1   7   11.29    0.84
   3  -1   7   10.70    1.84
   3  -1   8   29.36    2.76
   3  -1   8   29.18    2.97
   3  -1   8   27.47    1.50
   3  -1   8   31.77    3.31
   3  -1   9    9.60    1.89
   3  -1   9   10.87    1.91
   3  -1   9    9.70    1.70
   3  -1  10   12.87    1.89
   3  -1  11    3.12    0.53
   3  -1  12   -0.04    0.14
   3   0 -13   14.58    0.74
   3   0 -13   15.41    0.79
   3   0 -13   14.60    0.77
   3   0 -12    5.62    0.50
   3   0 -12    6.62    0.48
   3   0 -11   25.54    1.37
   3   0 -11   24.16    1.29
   3   0 -10    3.02    0.45
   3   0 -10    2.37    0.37
   3   0  -9   42.92    2.21
   3   0  -9   44.41    2.12
   3   0  -9   42.31    2.13
   3   0  -8    2.01    0.33
   3   0  -8    1.68    0.38
   3   0  -8    2.23    0.42
   3   0  -8    2.00    0.35
   3   0  -8    1.72    0.33
   3   0  -7   19.04    1.09
   3   0  -7   17.16    1.15
   3   0  -7   16.43    1.07
   3   0  -7   16.61    1.06
   3   0  -6    4.58    0.53
   3   0  -6    4.08    0.47
   3   0  -6    4.20    0.74
   3   0  -6    4.60    0.49
   3   0  -5    0.80    0.26
   3   0  -5    0.58    0.19
   3   0  -5    0.69    0.33
   3   0  -5    0.65    0.19
   3   0  -5    0.85    0.38
   3   0  -5    0.64    0.18
   3   0  -4    2.54    0.37
   3   0  -4    3.31    0.61
   3   0  -4    2.92    0.36
   3   0  -4    3.07    0.37
   3   0  -4    3.24    0.37
   3   0  -4    3.94    0.73
   3   0  -4    2.91    0.37
   3   0  -3  316.07   13.98
   3   0  -3  354.08   13.50
   3   0  -3  347.18   14.54
   3   0  -3  347.81   13.50
   3   0  -3  338.16   13.49
   3   0  -3  357.72   14.23
   3   0  -3  352.59   13.44
   3   0  -2    9.33    1.16
   3   0  -2    9.52    0.70
   3   0  -2    9.10    0.69
   3   0  -2    9.59    0.69
   3   0  -2    9.28    1.01
   3   0  -2    9.16    1.03
   3   0  -2   10.76    1.25
   3   0  -1   84.07    4.42
   3   0  -1   74.49    3.29
   3   0  -1   79.80    3.34
   3   0  -1   75.08    3.91
   3   0  -1   77.18    4.24
   3   0   0   53.05    2.45
   3   0   0   49.77    3.11
   3   0   0   53.40    2.38
   3   0   0   50.79    2.40
   3   0   0   55.09    2.41
   3   0   0   51.83    3.35
   3   0   1   23.87    2.10
   3   0   1   24.57    1.29
   3   0   1   25.77    1.40
   3   0   1   21.74    1.97
   3   0   1   24.37    1.91
   3   0   1   26.64    2.08
   3   0   1   25.60    1.32
   3   0   2    0.14    0.35
   3   0   2    0.93    0.22
   3   0   2    1.06    0.30
   3   0   2    0.83    0.48
   3   0   2    0.83    0.41
   3   0   2    0.78    0.21
   3   0   3   97.20    5.04
   3   0   3   92.24    3.90
   3   0   3   98.07    4.16
   3   0   3   97.47    5.38
   3   0   4   29.96    2.25
   3   0   4   28.99    2.50
   3   0   4   24.59    1.30
   3   0   4   25.72    2.46
   3   0   4   30.20    1.60
   3   0   5    3.43    0.97
   3   0   5    4.08    1.17
   3   0   5    4.70    0.48
   3   0   5    4.30    0.87
   3   0   5    5.14    1.13
   3   0   6   27.29    2.30
   3   0   6   29.99    2.95
   3   0   6   29.77    2.76
   3   0   7    4.68    1.22
   3   0   7    4.00    1.04
   3   0   8    1.25    0.79
   3   0   8    2.23    0.81
   3   0   9   13.38    1.77
   3   0   9   10.84    1.87
   3   0   9   10.40    1.72
   3   0  10   -0.31    0.75
   3   0  10    1.16    0.65
   3   0  11   27.54    1.72
   3   0  11   17.67    2.25
   3   0  12    3.30    0.55
   3   1 -13    4.29    0.35
   3   1 -13    3.16    0.25
   3   1 -12    0.60    0.22
   3   1 -12    0.62    0.18
   3   1 -12    0.34    0.14
   3   1 -11   42.95    2.05
   3   1 -11   40.78    1.94
   3   1 -10   13.62    0.97
   3   1 -10   13.25    0.88
   3   1  -9    4.68    0.48
   3   1  -9    5.38    0.61
   3   1  -9    5.59    0.55
   3   1  -9    4.95    0.52
   3   1  -8   57.88    2.71
   3   1  -8   57.16    2.72
   3   1  -8   62.26    2.86
   3   1  -8   59.07    2.71
   3   1  -8   57.54    3.69
   3   1  -7   16.17    1.11
   3   1  -7   17.98    1.09
   3   1  -7   17.04    1.08
   3   1  -7   16.06    1.02
   3   1  -7   15.30    1.01
   3   1  -7   16.14    1.69
   3   1  -6   21.65    1.24
   3   1  -6   20.54    1.24
   3   1  -6   19.85    1.16
   3   1  -6   22.24    1.95
   3   1  -5    3.67    0.39
   3   1  -5    3.30    0.40
   3   1  -5    4.41    0.82
   3   1  -5    2.91    0.41
   3   1  -5    3.24    0.42
   3   1  -4   24.44    1.31
   3   1  -4   22.80    1.23
   3   1  -4   22.52    1.83
   3   1  -4   28.06    2.13
   3   1  -4   25.39    1.30
   3   1  -4   23.80    1.31
   3   1  -3    4.00    0.42
   3   1  -3    3.45    0.37
   3   1  -3    3.86    0.73
   3   1  -3    4.99    0.75
   3   1  -3    3.94    0.42
   3   1  -3    4.44    0.82
   3   1  -3    4.02    0.42
   3   1  -2   37.28    2.60
   3   1  -2   39.09    2.52
   3   1  -1   -0.06    0.14
   3   1  -1   -0.10    0.27
   3   1  -1    0.37    0.35
   3   1   0   62.36    2.77
   3   1   0   63.42    3.75
   3   1   1    0.57    0.24
   3   1   1    0.14    0.34
   3   1   1    0.96    0.41
   3   1   2  114.51    4.85
   3   1   2  118.43    6.07
   3   1   2  115.99    4.78
   3   1   2  110.95    5.63
   3   1   2  112.51    5.84
   3   1   3   50.22    3.27
   3   1   3   46.60    2.22
   3   1   3   48.11    3.38
   3   1   3   48.56    3.27
   3   1   3   46.75    2.97
   3   1   4  197.70    9.66
   3   1   4  201.30    8.12
   3   1   4  202.43    9.53
   3   1   4  196.79    9.32
   3   1   4  193.39    8.96
   3   1   5   15.25    1.94
   3   1   5   15.17    1.05
   3   1   5   13.76    1.81
   3   1   5   12.93    1.66
   3   1   5   14.42    0.89
   3   1   5   11.09    1.34
   3   1   6    1.32    0.36
   3   1   6    2.36    0.88
   3   1   6    1.57    0.63
   3   1   6    1.70    0.55
   3   1   7   16.99    1.25
   3   1   7   16.00    1.95
   3   1   7   19.25    2.25
   3   1   8   23.17    1.53
   3   1   8   26.42    2.54
   3   1   9    0.67    0.36
   3   1   9    0.57    0.63
   3   1   9    0.40    0.40
   3   1  10    1.62    0.33
   3   1  10    0.40    0.40
   3   1  10    0.60    0.67
   3   1  10    0.72    0.68
   3   1  10    1.58    0.41
   3   1  11    2.43    1.01
   3   1  11    2.90    0.53
   3   1  12    7.65    0.79
   3   2 -13    3.55    0.29
   3   2 -12    0.84    0.21
   3   2 -12    0.57    0.13
   3   2 -11   -0.10    0.19
   3   2 -11    0.08    0.13
   3   2 -11   -0.02    0.04
   3   2 -10   49.59    2.36
   3   2 -10   48.43    2.26
   3   2  -9    7.39    0.69
   3   2  -9    6.67    0.61
   3   2  -9    7.05    0.64
   3   2  -8    0.37    0.26
   3   2  -8    0.31    0.35
   3   2  -8    0.24    0.18
   3   2  -8    0.27    0.22
   3   2  -7   32.41    1.64
   3   2  -7   29.05    2.47
   3   2  -7   25.51    1.41
   3   2  -7   29.45    1.61
   3   2  -7   28.93    1.60
   3   2  -7   27.12    1.49
   3   2  -6    4.69    0.54
   3   2  -6    3.65    0.45
   3   2  -6    4.19    0.51
   3   2  -6    4.51    0.53
   3   2  -6    3.80    0.85
   3   2  -5    2.04    0.63
   3   2  -5    3.08    0.40
   3   2  -5    2.89    0.41
   3   2  -4   20.22    1.18
   3   2  -4   20.21    1.17
   3   2  -4   19.20    1.82
   3   2  -4   20.40    1.90
   3   2  -3   69.05    2.95
   3   2  -3   65.50    2.95
   3   2  -3   64.04    2.85
   3   2  -3   66.57    3.94
   3   2  -3   66.98    4.03
   3   2  -2   57.23    2.55
   3   2  -2   53.43    2.44
   3   2  -2   57.44    3.59
   3   2  -1    0.78    0.18
   3   2   0    1.86    0.28
   3   2   0    1.80    0.58
   3   2   0    2.32    0.34
   3   2   0    1.99    0.49
   3   2   1  152.89    7.09
   3   2   1  145.90    5.90
   3   2   1  136.08    6.75
   3   2   2   73.91    4.22
   3   2   2   76.55    3.30
   3   2   2   76.31    4.07
   3   2   2   78.24    4.35
   3   2   3  320.56   12.50
   3   2   3  307.50   14.12
   3   2   3  315.02   12.37
   3   2   3  312.06   13.46
   3   2   3  315.39   13.67
   3   2   4   42.02    2.95
   3   2   4   42.09    2.00
   3   2   4   39.22    2.08
   3   2   4   43.21    1.96
   3   2   4   42.52    2.95
   3   2   5   43.73    3.26
   3   2   5   47.84    2.28
   3   2   5   50.74    2.43
   3   2   5   50.91    3.82
   3   2   5   50.56    3.34
   3   2   6   27.55    2.52
   3   2   6   27.14    1.59
   3   2   6   25.14    2.70
   3   2   6   27.08    2.37
   3   2   6   27.36    1.47
   3   2   7    2.57    0.37
   3   2   7    2.98    0.93
   3   2   7    2.77    0.77
   3   2   7    2.65    0.47
   3   2   7    0.97    0.69
   3   2   8   22.25    2.46
   3   2   8   25.71    1.59
   3   2   8   26.29    2.92
   3   2   8   25.31    2.34
   3   2   8   25.75    1.41
   3   2   9   11.12    1.52
   3   2   9   14.76    2.23
   3   2   9   14.21    1.09
   3   2   9   13.78    1.93
   3   2  10    2.59    1.00
   3   2  10    1.09    0.72
   3   2  10    1.92    0.42
   3   2  10    2.30    0.89
   3   2  11    0.22    0.22
   3   2  11   -0.28    0.49
   3   2  11   -0.28    0.39
   3   2  12    1.35    0.76
   3   2  13    1.81    0.36
   3   3 -12    0.12    0.10
   3   3 -11    0.22    0.09
   3   3 -11    0.39    0.11
   3   3 -11    0.45    0.17
   3   3 -10    3.10    0.32
   3   3 -10    4.47    0.45
   3   3 -10    3.91    0.38
   3   3  -9    2.84    0.34
   3   3  -9    3.32    0.39
   3   3  -9    2.84    0.39
   3   3  -9    2.26    0.34
   3   3  -8  108.45    4.66
   3   3  -8  116.32    4.60
   3   3  -8  109.91    4.77
   3   3  -8  104.96    4.65
   3   3  -7    0.72    0.25
   3   3  -7    0.45    0.19
   3   3  -7    0.56    0.22
   3   3  -7    0.91    0.32
   3   3  -6  102.61    4.42
   3   3  -6  105.46    4.38
   3   3  -6  111.01    4.62
   3   3  -6   98.20    4.47
   3   3  -5  143.84    5.92
   3   3  -5  144.79    5.90
   3   3  -5  148.27    6.05
   3   3  -5  139.25    6.03
   3   3  -4    0.49    0.47
   3   3  -4    0.10    0.17
   3   3  -4    0.18    0.14
   3   3  -4    0.35    0.24
   3   3  -4    0.16    0.18
   3   3  -4    0.13    0.21
   3   3  -4    0.03    0.12
   3   3  -3   44.83    3.24
   3   3  -3   40.48    1.91
   3   3  -3   38.71    2.00
   3   3  -3   42.84    2.06
   3   3  -3   39.20    1.99
   3   3  -2   33.37    1.70
   3   3  -2   36.26    2.88
   3   3  -2   33.24    1.65
   3   3  -2   34.29    1.78
   3   3  -2   34.06    1.71
   3   3  -1   52.77    2.41
   3   3  -1   52.19    2.40
   3   3  -1   49.89    2.38
   3   3  -1   54.31    2.61
   3   3  -1   53.86    2.54
   3   3  -1   53.52    2.39
   3   3   0   57.72    2.61
   3   3   0   55.35    2.63
   3   3   0   58.30    2.63
   3   3   0   56.29    2.53
   3   3   0   56.67    2.69
   3   3   0   56.87    2.56
   3   3   0   57.04    2.55
   3   3   0   58.49    2.79
   3   3   1   11.75    0.85
   3   3   1   11.91    0.83
   3   3   1    9.76    1.19
   3   3   1   11.26    0.75
   3   3   1   11.47    0.93
   3   3   1   11.85    0.89
   3   3   1   11.85    0.77
   3   3   2   51.58    2.55
   3   3   2   53.80    2.42
   3   3   2   53.14    2.51
   3   3   2   57.77    3.69
   3   3   2   56.31    2.45
   3   3   3    8.23    0.72
   3   3   3    7.53    1.10
   3   3   3    9.29    0.65
   3   3   3    8.49    0.70
   3   3   3    8.02    1.28
   3   3   3    9.15    1.09
   3   3   4   54.25    2.49
   3   3   4   48.39    3.64
   3   3   4   51.74    2.38
   3   3   4   55.31    3.42
   3   3   5    0.69    0.43
   3   3   5    0.40    0.18
   3   3   5    0.49    0.22
   3   3   5   -0.20    0.48
   3   3   5    0.49    0.20
   3   3   6   21.63    2.05
   3   3   6   23.19    1.32
   3   3   6   26.56    1.42
   3   3   6   26.05    2.77
   3   3   6   27.22    2.71
   3   3   7   15.29    1.02
   3   3   7   15.92    1.67
   3   3   7   14.56    2.13
   3   3   8  294.07   14.23
   3   3   8  289.15   14.01
   3   3   9  111.39    6.95
   3   3   9  106.39    6.85
   3   3  10  207.53   10.97
   3   3  11   30.60    1.83
   3   3  11   34.33    3.36
   3   3  12    2.76    0.93
   3   3  12    3.23    1.00
   3   3  12    3.09    0.48
   3   3  13    6.13    0.61
   3   3  14    4.57    0.47
   3   4 -11    0.34    0.09
   3   4 -10    4.63    0.33
   3   4 -10    0.01    0.01
   3   4  -9    1.02    0.21
   3   4  -9    1.15    0.20
   3   4  -8   25.49    1.43
   3   4  -8   26.32    1.36
   3   4  -7    5.80    0.61
   3   4  -7    6.05    0.55
   3   4  -6    0.29    0.22
   3   4  -6    0.23    0.19
   3   4  -6    0.16    0.22
   3   4  -5    6.95    0.69
   3   4  -5    6.24    0.67
   3   4  -5    6.25    0.59
   3   4  -5    6.73    1.13
   3   4  -4  166.78    6.70
   3   4  -4  153.85    6.53
   3   4  -4  159.51    7.95
   3   4  -3   57.81    2.65
   3   4  -3   52.57    3.63
   3   4  -3   51.64    2.47
   3   4  -3   52.09    2.62
   3   4  -3   60.23    4.12
   3   4  -2  228.54    9.03
   3   4  -2  214.84   10.33
   3   4  -2  222.92   10.92
   3   4  -2  218.43    8.89
   3   4  -2  223.25    9.09
   3   4  -1  169.63    6.84
   3   4  -1  166.47    7.01
   3   4  -1  183.91    8.99
   3   4  -1  164.71    6.89
   3   4  -1  165.55    6.91
   3   4   0  117.62    4.94
   3   4   0  117.61    5.03
   3   4   0  120.59    5.15
   3   4   0  117.25    4.99
   3   4   0  119.45    5.26
   3   4   0  112.46    5.00
   3   4   0  118.56    5.04
   3   4   1    4.22    0.53
   3   4   1    3.35    0.50
   3   4   1    3.29    0.43
   3   4   1    3.18    0.41
   3   4   1    3.69    0.51
   3   4   1    3.46    0.45
   3   4   1    3.49    0.57
   3   4   1    4.68    0.90
   3   4   2   25.22    1.51
   3   4   2   23.66    1.42
   3   4   2   22.96    1.36
   3   4   2   24.64    1.37
   3   4   2   24.72    1.53
   3   4   2   26.42    1.55
   3   4   2   25.48    1.41
   3   4   2   24.35    2.24
   3   4   2   24.79    1.48
   3   4   3   41.67    2.18
   3   4   3   41.26    2.21
   3   4   3   40.63    2.12
   3   4   3   42.41    2.04
   3   4   3   41.75    2.21
   3   4   3   39.71    3.12
   3   4   3   43.81    2.38
   3   4   3   42.37    2.08
   3   4   4   85.44    3.77
   3   4   4   85.53    3.98
   3   4   4   90.04    3.81
   3   4   4   90.06    5.31
   3   4   4   85.44    4.11
   3   4   5   36.69    1.83
   3   4   5   33.89    3.01
   3   4   5   34.33    1.82
   3   4   5   38.58    2.06
   3   4   5   37.22    2.05
   3   4   6   33.71    3.05
   3   4   6   34.83    1.94
   3   4   6   31.43    1.92
   3   4   7    4.29    1.16
   3   4   7    3.95    0.57
   3   4   7    3.55    0.58
   3   4   8  211.81   10.60
   3   4   8  187.24    8.02
   3   4   8  195.27    8.13
   3   4   9   55.97    4.44
   3   4   9   48.58    2.56
   3   4   9   48.06    2.48
   3   4  10    5.74    1.27
   3   4  10    4.22    0.53
   3   4  10    4.47    0.59
   3   4  11    0.31    0.19
   3   4  11    0.05    0.21
   3   4  11   -0.22    0.44
   3   4  12    6.16    0.61
   3   4  12    7.28    0.70
   3   4  12    5.47    0.59
   3   4  12    7.18    0.70
   3   4  13    7.82    0.74
   3   4  14    1.44    0.30
   3   4  14    1.07    0.25
   3   5 -10    0.79    0.11
   3   5  -9    8.27    0.52
   3   5  -8    0.02    0.03
   3   5  -8    0.15    0.14
   3   5  -7    5.96    0.56
   3   5  -7    4.69    0.46
   3   5  -6    2.83    0.38
   3   5  -5   40.52    2.00
   3   5  -4    0.05    0.23
   3   5  -4    0.08    0.18
   3   5  -3  149.52    6.48
   3   5  -3  162.76    6.58
   3   5  -3  158.12    7.68
   3   5  -2   51.00    3.48
   3   5  -2   49.37    2.48
   3   5  -2   55.56    2.59
   3   5  -2   51.42    2.46
   3   5  -2   51.27    2.62
   3   5  -1   55.50    2.62
   3   5  -1   58.95    2.71
   3   5  -1   51.69    3.61
   3   5  -1   54.33    2.66
   3   5  -1   48.39    4.00
   3   5   0   27.15    1.49
   3   5   0   28.98    1.58
   3   5   0   25.68    2.77
   3   5   0   25.96    1.60
   3   5   0   25.59    2.36
   3   5   1   49.49    3.97
   3   5   1   48.44    2.53
   3   5   1   44.81    2.46
   3   5   1   46.43    2.51
   3   5   1   53.41    2.60
   3   5   1   52.83    2.44
   3   5   1   48.49    2.34
   3   5   2   19.62    1.48
   3   5   2   20.22    1.42
   3   5   2   22.82    2.55
   3   5   2   19.64    1.37
   3   5   2   19.59    1.29
   3   5   2   21.24    1.29
   3   5   2   19.86    1.41
   3   5   2   21.15    1.41
   3   5   2   22.71    1.30
   3   5   3    0.36    0.35
   3   5   3    0.24    0.41
   3   5   3   -0.07    0.37
   3   5   3    0.24    0.28
   3   5   3    0.15    0.22
   3   5   3    0.11    0.22
   3   5   3    0.46    0.28
   3   5   3    0.19    0.47
   3   5   3   -0.26    0.32
   3   5   3    0.06    0.27
   3   5   3    0.25    0.20
   3   5   4    0.12    0.25
   3   5   4    0.11    0.26
   3   5   4    0.14    0.27
   3   5   4    0.43    0.28
   3   5   4    0.21    0.41
   3   5   4    0.28    0.35
   3   5   4    0.07    0.34
   3   5   4    0.24    0.41
   3   5   5    0.09    0.20
   3   5   5    0.38    0.33
   3   5   5    0.25    0.30
   3   5   5    0.23    0.27
   3   5   5    0.07    0.31
   3   5   5    0.18    0.27
   3   5   5   -0.22    0.49
   3   5   5    0.31    0.34
   3   5   5    0.07    0.31
   3   5   6   13.88    1.11
   3   5   6   12.53    1.04
   3   5   6   13.13    1.10
   3   5   6   12.97    1.10
   3   5   6   12.47    1.04
   3   5   6   14.65    2.02
   3   5   6   11.51    1.59
   3   5   6   12.97    1.16
   3   5   7    7.28    0.81
   3   5   7    7.96    0.80
   3   5   7    6.56    0.76
   3   5   7    6.67    0.80
   3   5   7    7.14    0.73
   3   5   7    7.86    1.55
   3   5   7    7.52    1.31
   3   5   7    8.23    0.90
   3   5   8   35.63    1.98
   3   5   8   35.88    2.05
   3   5   8   32.59    1.82
   3   5   8   36.51    3.33
   3   5   8   32.11    2.88
   3   5   8   32.94    2.02
   3   5   9    9.19    0.86
   3   5   9   11.41    0.93
   3   5   9   10.96    0.97
   3   5   9    9.92    0.78
   3   5   9   10.11    0.93
   3   5   9   12.05    1.63
   3   5  10    7.47    1.35
   3   5  10    6.95    0.70
   3   5  10    7.61    0.73
   3   5  10    6.82    0.67
   3   5  11   21.98    1.32
   3   5  11   22.03    1.38
   3   5  11   20.94    1.23
   3   5  11   23.49    1.42
   3   5  11   20.24    1.23
   3   5  12    0.66    0.29
   3   5  12    0.40    0.21
   3   5  12    0.55    0.26
   3   5  12    0.51    0.23
   3   5  13    1.82    0.29
   3   5  13    2.18    0.31
   3   6  -8    0.56    0.11
   3   6  -7    0.47    0.13
   3   6  -6    2.84    0.32
   3   6  -5   25.42    1.43
   3   6  -5   29.35    1.40
   3   6  -4    9.86    0.77
   3   6  -4   10.40    0.73
   3   6  -3    1.07    0.27
   3   6  -3    0.87    0.21
   3   6  -3    0.93    0.28
   3   6  -2    0.52    0.23
   3   6  -2    0.69    0.24
   3   6  -1   15.53    1.06
   3   6  -1   16.37    1.07
   3   6   0   33.31    1.85
   3   6   0   34.76    1.90
   3   6   0   34.26    1.79
   3   6   1    0.69    0.23
   3   6   1    0.60    0.30
   3   6   1    0.27    0.25
   3   6   1    0.21    0.37
   3   6   2   31.29    1.67
   3   6   2   36.52    1.96
   3   6   2   35.07    1.91
   3   6   2   29.73    2.93
   3   6   3   34.39    1.98
   3   6   3   32.79    1.78
   3   6   3   36.79    2.01
   3   6   3   35.28    1.94
   3   6   3   29.86    2.95
   3   6   4   52.97    2.76
   3   6   4   52.73    2.58
   3   6   4   54.63    2.61
   3   6   4   52.29    2.73
   3   6   4   52.49    2.63
   3   6   4   50.81    3.91
   3   6   5    2.20    0.49
   3   6   5    1.73    0.39
   3   6   5    1.80    0.39
   3   6   5    2.24    0.49
   3   6   5    1.39    0.35
   3   6   5    1.74    0.67
   3   6   6   33.43    1.87
   3   6   6   30.35    1.86
   3   6   6   36.97    1.92
   3   6   6   34.33    1.80
   3   6   6   34.98    2.02
   3   6   7   12.26    0.97
   3   6   7   13.64    1.03
   3   6   7   14.75    1.02
   3   6   7   10.55    0.79
   3   6   7   10.31    0.80
   3   6   8    0.82    0.34
   3   6   8    0.90    0.29
   3   6   8    0.95    0.33
   3   6   8    1.08    0.36
   3   6   8    0.70    0.36
   3   6   8    0.82    0.25
   3   6   9    8.21    0.65
   3   6   9    8.30    0.76
   3   6   9    8.60    0.76
   3   6   9    8.62    0.80
   3   6   9    8.77    0.79
   3   6  10   22.27    1.31
   3   6  10   21.46    1.27
   3   6  10   23.57    1.31
   3   6  11   20.96    1.12
   3   6  11   19.66    1.13
   3   6  11   20.32    1.11
   3   7  -5    2.76    0.22
   3   7  -4    4.76    0.35
   3   7  -3    0.12    0.11
   3   7  -2   -0.02    0.04
   3   7  -2    0.37    0.15
   3   7  -1    0.11    0.13
   3   7  -1   -0.08    0.12
   3   7   0    0.72    0.22
   3   7   0    0.76    0.19
   3   7   1    3.75    0.43
   3   7   2   10.94    0.81
   3   7   3    3.45    0.46
   3   7   4    9.11    0.66
   3   7   4    0.02    0.05
   3   7   5    2.41    0.31
   3   7   6    5.37    0.47
   3   7   7   13.10    0.84
   3   7   7   11.07    0.72
   3   7   8   17.31    0.94
   3   7   8   14.40    0.83
   3   7   9   22.93    1.12
   4  -4  -2   -0.02    0.08
   4  -4  -1    0.01    0.06
   4  -4   0    0.08    0.09
   4  -4   1    0.26    0.09
   4  -4   2    2.76    0.23
   4  -3  -7   22.25    1.08
   4  -3  -7   23.53    1.06
   4  -3  -6    9.96    0.62
   4  -3  -6    9.78    0.59
   4  -3  -5   16.13    0.66
   4  -3  -5   18.02    0.65
   4  -3  -4    0.14    0.11
   4  -3  -4    0.19    0.15
   4  -3  -3    0.47    0.13
   4  -3  -3    0.52    0.18
   4  -3  -3    0.51    0.19
   4  -3  -2    0.13    0.13
   4  -3  -2    0.32    0.17
   4  -3  -2    0.20    0.15
   4  -3  -1    0.03    0.13
   4  -3  -1    0.08    0.13
   4  -3   0   -0.03    0.14
   4  -3   0    0.07    0.12
   4  -3   1    0.31    0.19
   4  -3   1   -0.03    0.17
   4  -3   2    6.05    0.54
   4  -3   2    6.54    0.57
   4  -3   2    6.40    0.56
   4  -3   3   -0.05    0.06
   4  -3   3    0.03    0.13
   4  -3   3    0.08    0.12
   4  -3   4   19.62    1.10
   4  -3   4   24.19    1.21
   4  -3   4   20.40    1.10
   4  -3   4   25.95    1.22
   4  -3   4   21.48    1.14
   4  -3   5   -0.02    0.09
   4  -3   5   -0.05    0.13
   4  -3   5    0.09    0.12
   4  -3   5    0.07    0.13
   4  -3   5   -0.03    0.13
   4  -3   6    0.04    0.11
   4  -3   6    0.15    0.11
   4  -3   6    0.14    0.11
   4  -3   7    0.24    0.09
   4  -3   7    0.23    0.09
   4  -2  -9    7.63    0.48
   4  -2  -8   -0.01    0.02
   4  -2  -8    0.02    0.11
   4  -2  -8    0.17    0.09
   4  -2  -7   36.55    1.73
   4  -2  -7   45.54    1.88
   4  -2  -7   43.80    1.90
   4  -2  -7   36.71    1.71
   4  -2  -6    2.69    0.38
   4  -2  -6    2.33    0.31
   4  -2  -6    3.26    0.38
   4  -2  -5    5.16    0.51
   4  -2  -5    4.17    0.41
   4  -2  -4    1.36    0.28
   4  -2  -4    1.38    0.25
   4  -2  -4    1.74    0.29
   4  -2  -3    0.79    0.24
   4  -2  -3    1.06    0.24
   4  -2  -3    1.30    0.28
   4  -2  -2    0.37    0.18
   4  -2  -2    0.16    0.16
   4  -2  -1    3.80    0.45
   4  -2  -1    4.81    0.52
   4  -2  -1    4.67    0.44
   4  -2   0    6.96    0.66
   4  -2   0    6.03    0.56
   4  -2   0    6.21    0.55
   4  -2   0    6.21    0.62
   4  -2   0    6.65    0.59
   4  -2   1    1.53    0.33
   4  -2   1    1.26    0.30
   4  -2   2    0.16    0.28
   4  -2   2    0.67    0.29
   4  -2   2    0.61    0.26
   4  -2   2    0.83    0.25
   4  -2   2    0.35    0.24
   4  -2   3    3.74    0.49
   4  -2   3    4.31    0.52
   4  -2   3    3.45    0.41
   4  -2   3    3.52    0.48
   4  -2   3    3.97    0.51
   4  -2   4   -0.35    0.35
   4  -2   4    0.21    0.20
   4  -2   4    0.06    0.15
   4  -2   4   -0.09    0.21
   4  -2   4   -0.04    0.19
   4  -2   4    0.04    0.20
   4  -2   5    0.12    0.20
   4  -2   5   -0.13    0.14
   4  -2   5   -0.05    0.20
   4  -2   5    0.04    0.16
   4  -2   5   -0.11    0.16
   4  -2   6    0.08    0.15
   4  -2   6    0.14    0.18
   4  -2   6    0.04    0.19
   4  -2   6    0.15    0.17
   4  -2   7    0.63    0.20
   4  -2   7    0.46    0.18
   4  -2   8    1.67    0.24
   4  -2   8    1.53    0.23
   4  -2   9    3.19    0.27
   4  -2   9    4.29    0.38
   4  -1 -10    3.58    0.29
   4  -1 -10    3.93    0.31
   4  -1  -9    0.40    0.16
   4  -1  -9    0.57    0.17
   4  -1  -9    0.41    0.15
   4  -1  -8   15.99    0.97
   4  -1  -8   17.30    0.98
   4  -1  -8   15.98    0.91
   4  -1  -7    0.43    0.13
   4  -1  -7    1.56    0.31
   4  -1  -7    1.53    0.26
   4  -1  -7    1.45    0.30
   4  -1  -7    1.30    0.27
   4  -1  -6    0.80    0.22
   4  -1  -6    1.23    0.29
   4  -1  -6    0.95    0.25
   4  -1  -6    1.02    0.23
   4  -1  -5    0.20    0.14
   4  -1  -5    0.15    0.14
   4  -1  -5    0.25    0.20
   4  -1  -4    3.41    0.46
   4  -1  -4    3.61    0.43
   4  -1  -4    3.70    0.44
   4  -1  -3    0.66    0.24
   4  -1  -3    0.55    0.19
   4  -1  -3    0.53    0.23
   4  -1  -3    0.94    0.50
   4  -1  -3    0.84    0.24
   4  -1  -2   64.07    3.07
   4  -1  -2   68.59    3.08
   4  -1  -2   73.82    3.20
   4  -1  -2   65.32    4.32
   4  -1  -2   73.52    3.19
   4  -1  -1    3.21    0.43
   4  -1  -1    2.93    0.39
   4  -1  -1    3.09    0.45
   4  -1  -1    3.13    0.82
   4  -1  -1    3.94    0.49
   4  -1  -1    3.07    0.76
   4  -1   0   14.31    1.02
   4  -1   0   16.26    1.04
   4  -1   0   14.62    1.03
   4  -1   0   14.96    1.00
   4  -1   0   13.93    1.71
   4  -1   1   15.75    1.07
   4  -1   1   16.45    1.10
   4  -1   1   15.24    1.87
   4  -1   1   15.48    1.08
   4  -1   1   16.88    1.13
   4  -1   1   11.15    1.64
   4  -1   1   16.10    1.92
   4  -1   2    0.70    0.28
   4  -1   2    1.14    0.25
   4  -1   2    0.68    0.28
   4  -1   2    1.35    0.61
   4  -1   2    0.95    0.30
   4  -1   2    0.92    0.52
   4  -1   2    0.64    0.27
   4  -1   2    1.76    0.68
   4  -1   3    0.16    0.16
   4  -1   3    0.37    0.23
   4  -1   3   -0.10    0.23
   4  -1   3   -0.16    0.23
   4  -1   3    0.20    0.40
   4  -1   3   -0.05    0.20
   4  -1   3   -0.18    0.37
   4  -1   3   -0.25    0.22
   4  -1   3   -0.20    0.41
   4  -1   4    9.82    0.81
   4  -1   4   11.42    0.93
   4  -1   4    9.20    0.87
   4  -1   4    8.78    1.52
   4  -1   4    9.66    0.82
   4  -1   4   10.15    0.83
   4  -1   5    1.29    0.65
   4  -1   5    1.78    0.37
   4  -1   5    2.27    0.39
   4  -1   5    1.86    0.36
   4  -1   5    1.59    0.40
   4  -1   6    1.07    0.57
   4  -1   6    1.61    0.40
   4  -1   6    1.35    0.31
   4  -1   6    1.11    0.27
   4  -1   6    1.83    0.34
   4  -1   7    5.43    0.67
   4  -1   7    5.43    0.55
   4  -1   7    6.64    0.60
   4  -1   8    2.66    0.35
   4  -1   8    2.39    0.41
   4  -1   8    2.09    0.31
   4  -1   9    1.93    0.26
   4  -1   9    2.42    0.38
   4  -1   9    1.49    0.34
   4  -1  10    1.21    0.26
   4  -1  11    0.41    0.15
   4   0 -11    0.38    0.12
   4   0 -11    0.33    0.10
   4   0 -10   30.73    1.49
   4   0 -10   31.94    1.45
   4   0  -9    1.59    0.29
   4   0  -9    1.41    0.24
   4   0  -9    1.81    0.27
   4   0  -8    1.97    0.37
   4   0  -8    1.51    0.26
   4   0  -8    1.51    0.28
   4   0  -8    1.57    0.29
   4   0  -7   21.75    1.25
   4   0  -7   21.30    1.25
   4   0  -6    5.51    0.55
   4   0  -6    4.02    0.51
   4   0  -6    5.75    0.54
   4   0  -6    4.32    0.48
   4   0  -5    3.39    0.39
   4   0  -5    4.23    0.45
   4   0  -5    3.47    0.47
   4   0  -4    0.94    0.24
   4   0  -4    1.32    0.28
   4   0  -4    0.98    0.47
   4   0  -4    0.84    0.22
   4   0  -4    1.11    0.30
   4   0  -3    5.98    0.58
   4   0  -3    6.41    0.59
   4   0  -3    7.00    1.13
   4   0  -3    5.18    0.55
   4   0  -3    5.83    0.52
   4   0  -3    5.78    0.58
   4   0  -2    3.22    0.42
   4   0  -2    3.27    0.41
   4   0  -2    3.71    0.47
   4   0  -2    3.35    0.45
   4   0  -2    3.21    0.80
   4   0  -2    3.13    0.43
   4   0  -1    9.26    0.79
   4   0  -1   10.30    0.81
   4   0  -1    9.63    1.40
   4   0  -1    9.73    0.81
   4   0  -1   12.75    1.59
   4   0  -1    9.38    0.77
   4   0  -1    8.50    1.18
   4   0   0    0.19    0.21
   4   0   0    0.04    0.18
   4   0   0    0.14    0.25
   4   0   0    0.18    0.40
   4   0   0    0.14    0.21
   4   0   0    0.30    0.30
   4   0   1   12.03    1.70
   4   0   1   12.69    0.91
   4   0   1   11.93    0.95
   4   0   1   12.22    1.60
   4   0   1   14.35    0.98
   4   0   1   12.85    1.68
   4   0   1   12.52    0.92
   4   0   1   13.71    1.01
   4   0   2    2.55    0.84
   4   0   2    2.16    0.39
   4   0   2    1.73    0.65
   4   0   2    2.06    0.38
   4   0   2    2.42    0.43
   4   0   2    1.97    0.36
   4   0   2    1.96    0.69
   4   0   3   23.13    1.52
   4   0   3   19.97    2.28
   4   0   3   26.88    1.49
   4   0   3   22.60    2.31
   4   0   3   24.98    1.44
   4   0   3   20.29    2.38
   4   0   3   26.96    1.44
   4   0   4    1.07    0.64
   4   0   4    0.12    0.27
   4   0   4    0.49    0.24
   4   0   4    0.53    0.47
   4   0   4    0.96    0.29
   4   0   4    0.64    0.56
   4   0   4    0.04    0.18
   4   0   5   29.71    1.71
   4   0   5   24.19    2.49
   4   0   5   33.23    1.72
   4   0   5   32.71    1.91
   4   0   5   31.97    3.10
   4   0   5   26.06    2.83
   4   0   5   32.21    1.68
   4   0   5   34.68    1.88
   4   0   6    4.64    0.50
   4   0   6    4.52    0.62
   4   0   6    4.55    1.13
   4   0   6    3.82    0.49
   4   0   6    4.23    0.49
   4   0   6    4.98    0.69
   4   0   6    5.70    1.30
   4   0   6    5.74    1.15
   4   0   6    3.09    1.05
   4   0   7    0.22    0.17
   4   0   7    0.22    0.25
   4   0   7    0.23    0.45
   4   0   7    0.19    0.16
   4   0   7   -0.14    0.26
   4   0   7   -0.26    0.58
   4   0   7   -0.24    0.48
   4   0   8    3.07    0.96
   4   0   8    3.72    0.53
   4   0   8    1.56    0.79
   4   0   8    2.32    0.90
   4   0   9    2.45    0.85
   4   0   9    2.01    0.44
   4   0   9    1.95    0.39
   4   0  10    0.62    0.31
   4   0  10    0.76    0.25
   4   0  11   -0.03    0.13
   4   0  12    0.05    0.14
   4   1 -11    1.27    0.20
   4   1 -10   -0.06    0.17
   4   1 -10   -0.09    0.11
   4   1  -9   18.41    1.12
   4   1  -9   20.20    1.08
   4   1  -8    4.71    0.51
   4   1  -8    5.34    0.48
   4   1  -8    4.29    0.41
   4   1  -7    2.02    0.35
   4   1  -7    1.71    0.38
   4   1  -7    2.37    0.35
   4   1  -7    2.64    0.37
   4   1  -7    2.28    0.32
   4   1  -6   18.41    1.14
   4   1  -6   18.43    1.10
   4   1  -5    0.44    0.25
   4   1  -5    0.48    0.18
   4   1  -5    0.73    0.19
   4   1  -5    0.62    0.21
   4   1  -4    1.53    0.28
   4   1  -4    1.80    0.30
   4   1  -4    1.43    0.30
   4   1  -4    1.58    0.31
   4   1  -3    4.28    0.47
   4   1  -3    3.89    0.46
   4   1  -3    4.32    0.50
   4   1  -3    3.47    0.43
   4   1  -3    3.69    0.82
   4   1  -3    4.21    0.81
   4   1  -3    3.80    0.43
   4   1  -2   24.85    1.43
   4   1  -2   22.33    2.04
   4   1  -2   28.03    1.50
   4   1  -2   27.56    1.46
   4   1  -2   23.51    2.20
   4   1  -2   25.34    1.43
   4   1  -1   22.07    1.37
   4   1  -1   24.17    2.10
   4   1  -1   25.13    1.38
   4   1  -1   20.94    2.10
   4   1  -1   23.53    1.35
   4   1  -1   24.15    1.39
   4   1  -1   26.48    2.38
   4   1   0    1.94    0.68
   4   1   0    1.15    0.32
   4   1   0    1.23    0.28
   4   1   0    0.93    0.30
   4   1   0    0.99    0.30
   4   1   1   -0.18    0.37
   4   1   1    0.14    0.20
   4   1   1   -0.22    0.18
   4   1   1    0.12    0.16
   4   1   1   -0.16    0.36
   4   1   1    0.15    0.22
   4   1   2   18.02    1.12
   4   1   2   15.80    1.82
   4   1   2   16.87    1.08
   4   1   2   17.86    1.18
   4   1   3   27.12    1.60
   4   1   3   20.14    2.38
   4   1   3   22.22    1.30
   4   1   3   26.50    1.53
   4   1   3   25.47    1.43
   4   1   3   23.93    2.27
   4   1   3   24.26    1.37
   4   1   3   24.45    1.49
   4   1   4  108.79    4.75
   4   1   4  101.05    6.35
   4   1   4  102.23    6.16
   4   1   4  104.40    4.51
   4   1   4  103.83    5.78
   4   1   4  103.67    4.43
   4   1   4   98.77    4.36
   4   1   4  111.62    4.66
   4   1   5    0.22    0.43
   4   1   5    0.75    0.61
   4   1   5    0.09    0.16
   4   1   5    0.07    0.14
   4   1   5    0.17    0.33
   4   1   5    0.27    0.27
   4   1   5    0.10    0.16
   4   1   6   14.65    1.96
   4   1   6   13.19    1.01
   4   1   6   11.19    1.94
   4   1   6   12.54    0.92
   4   1   7    1.87    0.47
   4   1   7    2.78    0.46
   4   1   7    2.51    1.01
   4   1   7    2.00    0.80
   4   1   8    1.37    0.41
   4   1   8    1.33    0.34
   4   1   8    1.98    0.89
   4   1   8    1.08    0.57
   4   1   9    5.59    0.71
   4   1   9    6.94    0.67
   4   1   9    5.28    1.35
   4   1   9    5.86    1.22
   4   1  10    7.36    0.65
   4   1  10    6.93    0.76
   4   1  11    0.53    0.24
   4   1  11    0.51    0.18
   4   1  12    0.27    0.14
   4   2 -11    0.40    0.13
   4   2 -11    0.53    0.12
   4   2 -10    0.10    0.14
   4   2 -10    0.20    0.12
   4   2  -9    1.17    0.27
   4   2  -8    2.74    0.40
   4   2  -8    2.77    0.37
   4   2  -8    2.32    0.36
   4   2  -7   90.01    3.93
   4   2  -7   92.80    3.88
   4   2  -7   87.11    3.93
   4   2  -7   87.48    3.91
   4   2  -6   -0.09    0.23
   4   2  -6   -0.04    0.19
   4   2  -6    0.19    0.23
   4   2  -6   -0.03    0.15
   4   2  -6   -0.14    0.24
   4   2  -5   60.06    4.00
   4   2  -5   69.51    3.09
   4   2  -5   65.77    2.95
   4   2  -5   63.11    2.83
   4   2  -4   92.67    4.09
   4   2  -4   99.00    4.15
   4   2  -4   85.40    5.18
   4   2  -3    3.82    0.48
   4   2  -3    3.23    0.82
   4   2  -3    3.00    0.43
   4   2  -3    3.96    0.49
   4   2  -2   33.61    1.77
   4   2  -2   31.30    1.68
   4   2  -2   36.76    2.87
   4   2  -1    5.04    0.59
   4   2  -1    6.83    0.60
   4   2   0   19.30    1.26
   4   2   0   23.18    1.31
   4   2   0   21.28    1.32
   4   2   1    8.89    0.77
   4   2   1    6.79    0.63
   4   2   1    5.95    0.68
   4   2   1    9.13    0.71
   4   2   1    7.57    0.62
   4   2   1    7.41    0.69
   4   2   1    7.88    0.71
   4   2   2   -0.18    0.45
   4   2   2    0.55    0.28
   4   2   2    0.32    0.24
   4   2   2    0.34    0.22
   4   2   2    0.45    0.18
   4   2   3   29.90    1.65
   4   2   3   26.46    2.45
   4   2   3   30.97    1.72
   4   2   3   31.48    1.62
   4   2   3   25.77    1.45
   4   2   3   31.11    1.66
   4   2   3   29.07    2.71
   4   2   4    3.15    0.91
   4   2   4    2.58    0.44
   4   2   4    2.28    0.37
   4   2   4    1.89    0.28
   4   2   4    3.30    0.48
   4   2   4    1.82    0.78
   4   2   5   12.15    1.72
   4   2   5   12.27    1.96
   4   2   5    9.12    1.52
   4   2   5   10.97    0.88
   4   2   5   10.80    0.87
   4   2   6   -0.20    0.21
   4   2   6   -0.21    0.36
   4   2   6   -0.28    0.55
   4   2   6    0.22    0.44
   4   2   6    0.20    0.30
   4   2   6   -0.10    0.20
   4   2   6    0.68    0.60
   4   2   7   17.98    1.18
   4   2   7   16.43    2.01
   4   2   7   19.25    2.37
   4   2   7   17.03    1.31
   4   2   7   17.41    1.15
   4   2   7   20.18    2.42
   4   2   8    8.73    1.43
   4   2   8    9.82    0.79
   4   2   8   10.19    0.95
   4   2   8    7.30    1.49
   4   2   8   10.08    0.81
   4   2   9   94.77    4.21
   4   2   9  106.09    6.58
   4   2   9   87.47    3.90
   4   2   9  102.31    6.20
   4   2   9   92.16    3.93
   4   2  10   57.31    2.83
   4   2  10   61.40    4.55
   4   2  10   56.65    2.71
   4   2  11   58.76    2.65
   4   2  12   10.07    0.83
   4   2  13    3.40    0.36
   4   3 -10    1.58    0.21
   4   3 -10    2.70    0.25
   4   3  -9    5.39    0.43
   4   3  -9    4.53    0.41
   4   3  -8    0.72    0.21
   4   3  -8    0.25    0.19
   4   3  -8    0.64    0.21
   4   3  -7   28.05    1.45
   4   3  -7   28.11    1.54
   4   3  -7   26.21    1.41
   4   3  -6    9.58    0.74
   4   3  -6   10.98    0.87
   4   3  -6    9.12    0.75
   4   3  -5    0.08    0.17
   4   3  -5    0.04    0.20
   4   3  -5   -0.05    0.24
   4   3  -5    0.17    0.23
   4   3  -5    0.09    0.14
   4   3  -5   -0.15    0.23
   4   3  -4    4.21    0.48
   4   3  -4    5.29    1.04
   4   3  -4    3.91    0.45
   4   3  -4    4.73    0.57
   4   3  -4    5.24    0.58
   4   3  -3  105.63    4.60
   4   3  -3  111.32    6.11
   4   3  -3  108.35    5.99
   4   3  -3  111.22    4.73
   4   3  -3  112.15    4.77
   4   3  -2   24.89    1.49
   4   3  -2   26.92    1.47
   4   3  -2   27.70    2.56
   4   3  -2   27.56    1.59
   4   3  -2   29.25    1.56
   4   3  -2   27.40    1.54
   4   3  -2   30.39    2.71
   4   3  -1  253.03    9.82
   4   3  -1  249.07    9.71
   4   3  -1  241.13    9.72
   4   3  -1  233.65   11.50
   4   3  -1  234.05    9.76
   4   3  -1  236.80    9.66
   4   3   0   88.68    3.78
   4   3   0   90.05    3.93
   4   3   0   87.18    3.79
   4   3   0   85.20    3.95
   4   3   0   86.18    3.80
   4   3   0   81.55    3.75
   4   3   1   67.38    3.08
   4   3   1   67.53    3.19
   4   3   1   68.34    3.01
   4   3   1   69.05    3.15
   4   3   1   62.83    3.02
   4   3   1   67.32    3.04
   4   3   1   65.76    3.24
   4   3   2   17.33    1.04
   4   3   2   16.55    1.15
   4   3   2   17.62    1.22
   4   3   2   17.38    1.10
   4   3   2   16.46    1.13
   4   3   2   17.87    1.10
   4   3   2   16.76    1.27
   4   3   3   10.51    0.88
   4   3   3   10.88    0.82
   4   3   3   10.80    0.88
   4   3   3   11.32    1.57
   4   3   3   11.02    0.82
   4   3   3   10.12    0.98
   4   3   4   11.01    0.93
   4   3   4    8.99    1.47
   4   3   4   12.29    0.87
   4   3   4   11.60    0.92
   4   3   4   14.45    1.84
   4   3   4   10.53    0.81
   4   3   5   34.15    2.95
   4   3   5   35.51    1.86
   4   3   5   36.79    1.97
   4   3   5   36.89    3.29
   4   3   5   36.71    1.85
   4   3   6   19.80    2.13
   4   3   6   20.66    1.23
   4   3   6   19.75    1.30
   4   3   6   21.57    2.47
   4   3   6   19.88    1.19
   4   3   7   18.26    1.99
   4   3   7   18.53    1.16
   4   3   7   18.95    1.24
   4   3   7   17.58    2.13
   4   3   7   18.30    2.38
   4   3   8    0.14    0.18
   4   3   8   -0.25    0.56
   4   3   9  101.42    4.35
   4   3   9   99.34    6.37
   4   3  10   16.53    1.20
   4   3  11   10.24    0.86
   4   3  12    0.04    0.15
   4   3  12   -0.04    0.17
   4   3  13    7.59    0.65
   4   4  -9    0.66    0.14
   4   4  -8   12.73    0.72
   4   4  -8   10.60    0.67
   4   4  -7    0.13    0.15
   4   4  -7    0.18    0.10
   4   4  -6    2.73    0.39
   4   4  -6    2.47    0.30
   4   4  -5    5.14    0.59
   4   4  -5    4.95    0.55
   4   4  -5    3.80    0.40
   4   4  -4   55.43    2.72
   4   4  -4   58.53    2.72
   4   4  -4   54.02    2.50
   4   4  -3    5.11    0.62
   4   4  -3    6.73    0.68
   4   4  -3    6.57    0.57
   4   4  -3    4.67    0.54
   4   4  -3    5.30    0.51
   4   4  -2  139.00    7.56
   4   4  -2  136.52    5.75
   4   4  -2  138.62    5.82
   4   4  -2  141.01    5.89
   4   4  -1   48.47    3.90
   4   4  -1   47.75    2.41
   4   4  -1   52.33    2.54
   4   4  -1   51.99    2.44
   4   4  -1   50.36    2.55
   4   4   0   79.48    3.58
   4   4   0   81.20    5.40
   4   4   0   84.56    3.72
   4   4   0   79.12    3.56
   4   4   0   80.53    3.61
   4   4   0   81.87    3.77
   4   4   1   21.78    1.36
   4   4   1   22.61    1.48
   4   4   1   23.76    1.57
   4   4   1   24.93    1.34
   4   4   1   21.67    2.52
   4   4   1   23.37    1.41
   4   4   1   21.05    1.26
   4   4   2   21.96    1.41
   4   4   2   24.43    1.41
   4   4   2   22.28    1.49
   4   4   2   24.13    1.48
   4   4   2   21.65    1.29
   4   4   2   23.72    1.60
   4   4   2   26.11    1.46
   4   4   3   13.45    1.03
   4   4   3   15.37    1.10
   4   4   3   15.85    1.03
   4   4   3   13.00    1.03
   4   4   3   14.02    0.91
   4   4   3   13.83    1.05
   4   4   3   13.54    1.17
   4   4   3   13.04    0.99
   4   4   4    0.55    0.28
   4   4   4    0.52    0.23
   4   4   4    0.70    0.30
   4   4   4    0.79    0.26
   4   4   4    0.50    0.41
   4   4   4    0.31    0.17
   4   4   4    0.88    0.35
   4   4   4    0.48    0.25
   4   4   5   -0.18    0.37
   4   4   5    0.09    0.18
   4   4   5    0.06    0.24
   4   4   5   -0.18    0.26
   4   4   5    0.05    0.19
   4   4   6   -0.20    0.34
   4   4   6   -0.09    0.16
   4   4   6   -0.06    0.24
   4   4   6    0.25    0.24
   4   4   6    0.13    0.17
   4   4   7   10.45    1.59
   4   4   7   10.84    0.95
   4   4   7    8.91    0.73
   4   4   8    1.30    0.38
   4   4   8    0.97    0.35
   4   4   9   34.15    3.03
   4   4   9   33.26    1.84
   4   4   9   31.23    1.84
   4   4  10    9.92    0.82
   4   4  10    9.77    1.49
   4   4  10   10.52    0.87
   4   4  10   12.51    1.01
   4   4  11    1.60    0.30
   4   4  11    2.69    0.46
   4   4  11    2.15    0.36
   4   4  11    1.94    0.37
   4   4  12   11.55    0.84
   4   4  12   11.34    0.78
   4   4  13    1.09    0.23
   4   5  -8    0.21    0.08
   4   5  -7    0.50    0.14
   4   5  -7    0.32    0.14
   4   5  -7    0.13    0.09
   4   5  -6   -0.03    0.16
   4   5  -6    0.04    0.11
   4   5  -5    2.95    0.41
   4   5  -5    3.96    0.47
   4   5  -5    4.34    0.40
   4   5  -4   53.48    2.55
   4   5  -4   54.83    2.43
   4   5  -3    6.05    0.61
   4   5  -3    6.58    0.65
   4   5  -3    5.99    0.54
   4   5  -2    2.77    0.44
   4   5  -2    2.95    0.43
   4   5  -2    2.25    0.41
   4   5  -1    0.43    0.48
   4   5  -1    0.15    0.22
   4   5  -1    0.35    0.21
   4   5  -1    0.37    0.27
   4   5   0   15.86    2.10
   4   5   0   15.89    1.04
   4   5   0   15.05    1.08
   4   5   0   17.20    1.18
   4   5   1   46.30    2.26
   4   5   1   42.42    2.13
   4   5   1   44.33    2.35
   4   5   2    0.62    0.27
   4   5   2    0.77    0.29
   4   5   2    0.69    0.37
   4   5   2    0.94    0.30
   4   5   2    0.79    0.27
   4   5   3   27.30    1.68
   4   5   3   31.28    1.77
   4   5   3   29.90    1.72
   4   5   3   33.68    1.86
   4   5   3   27.36    2.93
   4   5   3   31.26    1.68
   4   5   4   41.98    2.23
   4   5   4   39.89    2.06
   4   5   4   41.70    2.22
   4   5   4   45.45    2.32
   4   5   4   40.76    2.20
   4   5   4   44.58    3.77
   4   5   4   44.48    2.11
   4   5   5   56.16    2.74
   4   5   5   55.32    2.60
   4   5   5   50.13    2.55
   4   5   5   53.52    2.72
   4   5   5   55.13    2.76
   4   5   5   54.41    3.81
   4   5   5   51.68    2.71
   4   5   5   55.23    2.87
   4   5   5   53.34    2.50
   4   5   6    0.20    0.22
   4   5   6    0.05    0.19
   4   5   6    0.12    0.26
   4   5   6    0.12    0.24
   4   5   6    0.18    0.41
   4   5   6    0.18    0.30
   4   5   6   -0.14    0.30
   4   5   7   18.49    2.14
   4   5   7   22.67    1.48
   4   5   7   24.34    1.46
   4   5   7   21.64    1.51
   4   5   7   21.09    1.36
   4   5   7   24.57    1.49
   4   5   7   22.84    1.40
   4   5   8   20.17    1.33
   4   5   8   25.03    1.46
   4   5   8   19.67    1.34
   4   5   8   24.50    1.41
   4   5   8   21.13    2.24
   4   5   8   24.52    1.45
   4   5   8   24.37    1.54
   4   5   9    1.05    0.29
   4   5   9    1.13    0.29
   4   5   9    1.04    0.26
   4   5   9    1.10    0.31
   4   5   9    1.62    0.40
   4   5  10   17.38    1.05
   4   5  10   13.93    1.00
   4   5  10   16.89    1.04
   4   5  10   17.38    1.12
   4   5  10   14.94    1.06
   4   5  10   17.29    1.11
   4   5  10   15.20    0.93
   4   5  11    9.99    0.74
   4   5  11    8.92    0.67
   4   5  11    8.24    0.63
   4   6  -6    5.86    0.36
   4   6  -6    7.54    0.40
   4   6  -5   13.81    0.72
   4   6  -5   12.94    0.77
   4   6  -4    4.75    0.39
   4   6  -4    4.49    0.44
   4   6  -3   15.35    0.88
   4   6  -3   16.12    0.96
   4   6  -2    1.05    0.23
   4   6  -2    0.75    0.24
   4   6  -1    3.51    0.42
   4   6   0    0.53    0.21
   4   6   1    0.18    0.13
   4   6   1    1.90    0.31
   4   6   2    4.47    0.48
   4   6   2    4.20    0.56
   4   6   2    4.82    0.48
   4   6   3   16.63    1.08
   4   6   3   18.60    1.17
   4   6   3   16.12    0.98
   4   6   4    5.37    0.58
   4   6   4    6.27    0.63
   4   6   4    5.65    0.61
   4   6   5   11.26    0.80
   4   6   5   13.21    0.95
   4   6   5   13.65    0.95
   4   6   5   12.36    0.93
   4   6   6   10.55    0.77
   4   6   6   10.86    0.86
   4   6   6   11.85    0.85
   4   6   6   12.85    0.91
   4   6   7    5.37    0.52
   4   6   7    5.99    0.61
   4   6   7    6.38    0.59
   4   6   7    5.07    0.57
   4   6   7    5.54    0.53
   4   6   8    6.53    0.57
   4   6   8    5.72    0.43
   4   6   8    6.68    0.57
   4   6   9   19.80    1.12
   4   6   9   19.25    1.12
   4   6  10   30.84    1.48
   4   7  -3    1.02    0.13
   4   7  -2   18.63    0.89
   4   7  -1   14.63    0.80
   4   7  -1   17.96    0.84
   4   7   0    0.95    0.16
   4   7   0    0.86    0.17
   4   7   1    0.02    0.11
   4   7   2   -0.02    0.02
   4   7   3    3.61    0.33
   4   7   4   -0.13    0.13
   4   7   5    0.05    0.13
   4   7   6    0.17    0.12
   4   7   7    3.78    0.32
   5  -2  -3    1.64    0.18
   5  -2  -2   -0.07    0.08
   5  -2  -1    9.17    0.57
   5  -2   0    0.22    0.12
   5  -2   1    3.15    0.32
   5  -2   2    1.47    0.21
   5  -2   2    2.16    0.25
   5  -2   3    0.10    0.09
   5  -2   3    0.02    0.09
   5  -2   4    0.03    0.07
   5  -1  -6    4.39    0.32
   5  -1  -6    4.01    0.32
   5  -1  -5    0.26    0.10
   5  -1  -5    0.73    0.15
   5  -1  -5    0.62    0.16
   5  -1  -4    0.04    0.09
   5  -1  -4   -0.02    0.10
   5  -1  -4    0.16    0.14
   5  -1  -3    0.43    0.14
   5  -1  -2    1.62    0.26
   5  -1  -1    2.17    0.30
   5  -1  -1    2.76    0.35
   5  -1   0    0.54    0.17
   5  -1   1    0.21    0.16
   5  -1   1   -0.03    0.14
   5  -1   1   -0.03    0.14
   5  -1   2    1.39    0.27
   5  -1   2    1.09    0.25
   5  -1   2    0.66    0.21
   5  -1   2    0.79    0.21
   5  -1   3    0.67    0.21
   5  -1   3    1.03    0.24
   5  -1   3    0.82    0.20
   5  -1   3    0.82    0.22
   5  -1   3    0.70    0.19
   5  -1   4    3.64    0.37
   5  -1   4    3.26    0.36
   5  -1   4    3.41    0.39
   5  -1   4    2.80    0.36
   5  -1   4    3.37    0.37
   5  -1   5    0.15    0.18
   5  -1   5    0.07    0.11
   5  -1   5    0.25    0.12
   5  -1   5    0.33    0.17
   5  -1   5    0.30    0.16
   5  -1   6    4.38    0.41
   5  -1   6    5.01    0.43
   5  -1   6    5.09    0.43
   5  -1   7    0.44    0.14
   5   0  -8    2.00    0.21
   5   0  -7    1.59    0.17
   5   0  -7    1.54    0.23
   5   0  -6    3.19    0.30
   5   0  -6    3.55    0.33
   5   0  -5    4.69    0.41
   5   0  -5    6.41    0.50
   5   0  -4    0.10    0.12
   5   0  -4   -0.09    0.16
   5   0  -4    0.02    0.11
   5   0  -3    0.36    0.17
   5   0  -3    0.37    0.15
   5   0  -2    0.59    0.21
   5   0  -2    0.60    0.19
   5   0  -1    3.24    0.41
   5   0  -1    3.55    0.44
   5   0  -1    4.02    0.45
   5   0   0    3.28    0.43
   5   0   0    3.68    0.43
   5   0   0    2.83    0.37
   5   0   1    1.24    0.30
   5   0   1    1.45    0.31
   5   0   1    1.31    0.28
   5   0   1    1.27    0.29
   5   0   2    0.16    0.27
   5   0   2   -0.08    0.19
   5   0   2   -0.08    0.21
   5   0   2   -0.07    0.19
   5   0   2   -0.08    0.20
   5   0   2    0.08    0.18
   5   0   3    2.28    0.69
   5   0   3    1.85    0.34
   5   0   3    2.39    0.39
   5   0   3    1.84    0.31
   5   0   3    1.83    0.35
   5   0   3    1.65    0.33
   5   0   4    6.31    0.59
   5   0   4    6.58    0.57
   5   0   4    7.55    0.67
   5   0   4    7.37    0.67
   5   0   5   21.24    1.24
   5   0   5   18.61    1.11
   5   0   5   19.73    1.08
   5   0   6    2.57    0.40
   5   0   6    1.95    0.27
   5   0   6    2.94    0.43
   5   0   6    2.51    0.38
   5   0   7    2.68    0.38
   5   0   7    2.94    0.39
   5   0   8    0.06    0.14
   5   0   8   -0.08    0.13
   5   0   9    0.21    0.14
   5   0   9    0.12    0.10
   5   1  -8   -0.02    0.10
   5   1  -8    0.03    0.07
   5   1  -7    1.04    0.22
   5   1  -7    1.50    0.20
   5   1  -6   39.28    1.13
   5   1  -6   38.77    1.07
   5   1  -6   41.29    0.96
   5   1  -5    3.19    0.34
   5   1  -5    3.24    0.31
   5   1  -5   -0.02    0.05
   5   1  -5    2.52    0.34
   5   1  -5   -0.02    0.03
   5   1  -4   20.08    0.99
   5   1  -4   21.99    1.16
   5   1  -3   19.55    1.06
   5   1  -3   23.09    1.22
   5   1  -2    3.22    0.42
   5   1  -2    2.50    0.37
   5   1  -2    2.72    0.36
   5   1  -1   11.90    0.86
   5   1  -1   11.12    0.83
   5   1  -1   11.14    0.81
   5   1   0    3.36    0.46
   5   1   0    2.98    0.43
   5   1   1    6.40    0.67
   5   1   1    7.70    0.65
   5   1   1    6.27    0.64
   5   1   2    0.18    0.31
   5   1   2    0.22    0.21
   5   1   2    0.19    0.17
   5   1   2    0.05    0.22
   5   1   2    0.28    0.24
   5   1   3    0.23    0.22
   5   1   3    0.30    0.22
   5   1   3    0.36    0.18
   5   1   3    0.19    0.32
   5   1   3    0.29    0.24
   5   1   4    9.55    0.76
   5   1   4    8.92    0.67
   5   1   4    9.26    0.81
   5   1   4    9.62    0.80
   5   1   4    8.94    0.82
   5   1   5    0.19    0.37
   5   1   5    0.92    0.28
   5   1   5    0.96    0.30
   5   1   5    0.85    0.20
   5   1   6    0.35    0.40
   5   1   6    0.39    0.24
   5   1   6    0.43    0.26
   5   1   7    0.18    0.24
   5   1   7    0.31    0.19
   5   1   7    0.04    0.18
   5   1   8    7.87    0.68
   5   1   8    8.34    0.64
   5   1   8    7.69    0.61
   5   1   9    6.38    0.54
   5   1   9    5.22    0.45
   5   1   9    5.07    0.44
   5   1  10   16.59    0.90
   5   2  -8    1.11    0.16
   5   2  -8    0.62    0.15
   5   2  -7    0.02    0.06
   5   2  -7    0.02    0.12
   5   2  -7    0.16    0.14
   5   2  -6   14.10    0.89
   5   2  -6   15.66    0.92
   5   2  -5    4.71    0.50
   5   2  -5    5.23    0.46
   5   2  -5    5.16    0.50
   5   2  -4   -0.24    0.16
   5   2  -4    0.05    0.12
   5   2  -4    0.06    0.13
   5   2  -3    4.75    0.44
   5   2  -3    3.98    0.43
   5   2  -3    4.97    0.49
   5   2  -3    4.35    0.52
   5   2  -2   48.15    2.15
   5   2  -2   46.37    2.30
   5   2  -2   47.38    2.27
   5   2  -2   47.20    2.29
   5   2  -1    6.91    0.65
   5   2  -1    6.72    0.65
   5   2   0  119.65    5.10
   5   2   1   27.83    1.53
   5   2   1   27.69    1.50
   5   2   2   17.49    1.18
   5   2   2   20.43    1.19
   5   2   3   15.86    1.14
   5   2   3   19.15    1.18
   5   2   4    1.55    0.34
   5   2   4    1.71    0.35
   5   2   4    1.22    0.28
   5   2   4    2.09    0.69
   5   2   5    0.95    0.29
   5   2   5    1.31    0.59
   5   2   5    0.90    0.27
   5   2   5    1.59    0.40
   5   2   5    0.86    0.27
   5   2   5    1.44    0.32
   5   2   5    1.07    0.32
   5   2   6    3.34    0.46
   5   2   6    2.65    0.78
   5   2   6    2.89    0.38
   5   2   6    4.12    0.48
   5   2   6    3.81    0.46
   5   2   6    3.38    0.50
   5   2   7    5.49    0.59
   5   2   7    4.40    0.44
   5   2   7    5.30    0.51
   5   2   8    5.52    0.55
   5   2   8    4.74    0.45
   5   2   8    5.76    0.58
   5   2   9    0.13    0.15
   5   2   9    0.25    0.12
   5   2   9    0.12    0.18
   5   2  10   32.24    1.51
   5   2  11    0.79    0.18
   5   3  -8    0.04    0.07
   5   3  -7    6.27    0.45
   5   3  -7    5.63    0.39
   5   3  -6   -0.09    0.13
   5   3  -6    0.02    0.11
   5   3  -6    0.08    0.12
   5   3  -5    1.70    0.25
   5   3  -5    2.11    0.33
   5   3  -5    1.96    0.28
   5   3  -5    1.78    0.26
   5   3  -4    2.85    0.40
   5   3  -4    2.33    0.33
   5   3  -4    2.29    0.32
   5   3  -4    1.82    0.26
   5   3  -4    2.13    0.36
   5   3  -4    1.92    0.29
   5   3  -3   33.41    1.62
   5   3  -3   29.82    1.58
   5   3  -3   35.00    1.75
   5   3  -3   35.38    1.72
   5   3  -2    7.30    0.61
   5   3  -2    6.99    0.65
   5   3  -2    7.36    0.67
   5   3  -1   68.07    3.16
   5   3  -1   71.44    3.22
   5   3  -1   69.96    3.15
   5   3  -1   72.79    3.20
   5   3   0   18.76    1.16
   5   3   0   16.22    1.06
   5   3   0   15.60    1.04
   5   3   0   15.86    1.07
   5   3   0   18.35    1.11
   5   3   1   62.86    2.81
   5   3   1   57.43    2.85
   5   3   1   66.21    2.88
   5   3   1   56.20    4.06
   5   3   2    9.50    0.71
   5   3   2   10.21    0.78
   5   3   2    9.34    0.80
   5   3   2    9.37    0.82
   5   3   2    9.81    0.78
   5   3   3    2.54    0.37
   5   3   3    3.12    0.43
   5   3   3    3.14    0.49
   5   3   3    2.72    0.45
   5   3   3    3.13    0.37
   5   3   3    2.40    0.36
   5   3   3    3.08    0.42
   5   3   3    2.44    0.43
   5   3   4    2.11    0.41
   5   3   4    2.64    0.40
   5   3   4    3.86    0.53
   5   3   4    2.47    0.40
   5   3   4    2.53    0.39
   5   3   4    3.09    0.50
   5   3   5    0.14    0.20
   5   3   5    0.31    0.21
   5   3   5    0.44    0.28
   5   3   5    0.05    0.18
   5   3   5    0.26    0.20
   5   3   5    0.40    0.29
   5   3   6    1.66    0.35
   5   3   6    1.45    0.28
   5   3   6    0.75    0.33
   5   3   6    0.87    0.28
   5   3   6    1.01    0.24
   5   3   6    1.05    0.35
   5   3   7    0.60    0.23
   5   3   7    1.21    0.24
   5   3   7    1.33    0.23
   5   3   7    0.85    0.34
   5   3   7    0.99    0.29
   5   3   8    1.71    0.30
   5   3   8    1.58    0.33
   5   3   8    1.21    0.36
   5   3   9    0.32    0.15
   5   3   9    0.40    0.24
   5   3   9    0.51    0.26
   5   3   9    0.51    0.22
   5   3  10   13.31    0.86
   5   3  10   13.99    0.92
   5   3  11    2.27    0.27
   5   3  11    2.17    0.30
   5   4  -7    0.06    0.08
   5   4  -6    0.01    0.03
   5   4  -6   -0.06    0.10
   5   4  -5    0.74    0.17
   5   4  -5    0.71    0.18
   5   4  -4    2.54    0.33
   5   4  -4    1.93    0.33
   5   4  -3   40.71    1.92
   5   4  -3   43.45    2.09
   5   4  -3   44.03    2.05
   5   4  -2    0.98    0.23
   5   4  -2    1.19    0.29
   5   4  -1    4.26    0.46
   5   4  -1    3.21    0.39
   5   4  -1    3.48    0.47
   5   4   0    1.44    0.30
   5   4   0    1.02    0.26
   5   4   0    1.17    0.28
   5   4   1    6.15    0.62
   5   4   1    4.89    0.49
   5   4   1    6.19    0.63
   5   4   2   20.15    1.23
   5   4   2   22.99    1.33
   5   4   2   23.07    1.40
   5   4   3   -0.04    0.17
   5   4   3    0.15    0.25
   5   4   3   -0.04    0.20
   5   4   3   -0.08    0.16
   5   4   3    0.11    0.22
   5   4   3    0.07    0.15
   5   4   4   25.18    1.46
   5   4   4   29.40    1.46
   5   4   4   26.11    1.56
   5   4   4   27.20    1.48
   5   4   4   25.51    1.43
   5   4   4   23.29    1.30
   5   4   4   23.60    1.54
   5   4   5   26.95    1.55
   5   4   5   28.65    1.47
   5   4   5   31.25    1.67
   5   4   5   29.97    1.53
   5   4   5   25.35    1.49
   5   4   5   24.68    1.32
   5   4   5   26.95    1.66
   5   4   6   21.72    1.29
   5   4   6   18.28    1.12
   5   4   6   20.84    1.18
   5   4   6   19.70    1.23
   5   4   6   21.08    1.37
   5   4   7    0.09    0.17
   5   4   7    0.03    0.07
   5   4   7    0.05    0.20
   5   4   7    0.09    0.15
   5   4   7   -0.08    0.20
   5   4   7    0.05    0.26
   5   4   8    5.00    0.50
   5   4   8   -0.03    0.08
   5   4   8    4.89    0.50
   5   4   8    3.57    0.33
   5   4   8   -0.03    0.06
   5   4   8    3.98    0.44
   5   4   8    3.76    0.48
   5   4   9    1.67    0.24
   5   4   9   13.66    0.72
   5   4   9    0.02    0.06
   5   4   9   12.10    0.67
   5   4   9   11.66    0.68
   5   4  10    0.92    0.20
   5   5  -5    7.02    0.48
   5   5  -5    8.66    0.49
   5   5  -4    7.04    0.53
   5   5  -4    7.93    0.54
   5   5  -3    2.66    0.33
   5   5  -3    1.95    0.29
   5   5  -2   24.03    1.26
   5   5  -1    0.52    0.12
   5   5  -1    0.32    0.18
   5   5  -1    0.51    0.19
   5   5   0    7.98    0.65
   5   5   0    8.10    0.54
   5   5   0    8.50    0.64
   5   5   0    8.22    0.66
   5   5   1    2.69    0.39
   5   5   1    2.31    0.37
   5   5   1    2.35    0.32
   5   5   2    3.19    0.44
   5   5   2    3.72    0.45
   5   5   2    3.29    0.37
   5   5   3    1.35    0.33
   5   5   3    1.83    0.31
   5   5   4    9.77    0.80
   5   5   4   11.16    0.75
   5   5   4    9.14    0.71
   5   5   5    3.80    0.40
   5   5   5    4.34    0.47
   5   5   5    3.40    0.50
   5   5   6    7.47    0.65
   5   5   6    5.75    0.48
   5   5   6    7.31    0.61
   5   5   6    7.68    0.71
   5   5   7   11.80    0.69
   5   5   7   10.09    0.61
   5   5   8    3.93    0.39
   5   5   8    4.00    0.38
   5   5   9    3.31    0.36
   5   5   9    2.76    0.31
   5   6  -3    0.50    0.12
   5   6  -2    0.31    0.13
   5   6  -1   22.01    1.01
   5   6  -1   17.61    0.86
   5   6   0   18.95    0.98
   5   6   0   18.20    0.88
   5   6   1    4.56    0.40
   5   6   1    4.23    0.33
   5   6   2    0.06    0.14
   5   6   2    0.16    0.12
   5   6   3    4.47    0.37
   5   6   4    4.35    0.41
   5   6   4    3.01    0.28
   5   6   5    0.19    0.15
   5   6   6    0.05    0.13
   5   6   7    0.40    0.12
   6   0   1    1.31    0.15
   6   1  -3    0.05    0.08
   6   1  -2    2.50    0.25
   6   1  -2    2.54    0.24
   6   1  -1   14.52    0.73
   6   1  -1   14.49    0.77
   6   1   0    0.48    0.14
   6   1   0    0.64    0.16
   6   1   1   29.70    1.31
   6   1   1   27.53    1.28
   6   1   1   27.27    1.29
   6   1   2    5.70    0.40
   6   1   2    4.57    0.38
   6   1   2    4.86    0.37
   6   1   3    1.12    0.18
   6   1   3    0.94    0.14
   6   1   3    1.04    0.15
   6   1   4    5.75    0.37
   6   1   4    5.48    0.39
   6   1   4    4.94    0.36
   6   1   5    0.22    0.09
   6   2  -3    0.07    0.10
   6   2  -3    0.14    0.09
   6   2  -2    8.59    0.49
   6   2  -2    8.92    0.55
   6   2  -2    7.93    0.48
   6   2  -1    2.24    0.27
   6   2  -1    2.67    0.27
   6   2   0   20.57    1.01
   6   2   0   22.69    1.03
   6   2   1    1.38    0.21
   6   2   1    1.54    0.22
   6   2   2   25.51    1.20
   6   2   2   25.72    1.21
   6   2   2   26.90    1.22
   6   2   3    2.63    0.30
   6   2   3    2.97    0.30
   6   2   3    2.11    0.27
   6   2   4    0.29    0.14
   6   2   4    0.37    0.13
   6   2   4    0.45    0.15
   6   2   5    0.15    0.09
   6   2   5    0.04    0.09
   6   3  -3    0.19    0.10
   6   3  -2   10.74    0.57
   6   3  -1    0.14    0.10
   6   3  -1    0.18    0.12
   6   3   0    2.30    0.27
   6   3   0    2.41    0.27
   6   3   0    2.34    0.28
   6   3   1    0.21    0.13
   6   3   1    0.35    0.12
   6   3   2    1.92    0.27
   6   3   2    2.30    0.28
   6   3   3    6.47    0.47
   6   3   3    5.62    0.44
   6   3   4   -0.02    0.10
   6   3   4    0.06    0.10
   6   3   5   11.21    0.61
   6   3   5   10.01    0.58
   6   3   6    9.16    0.55
   6   4  -2   -0.02    0.09
   6   4  -1   11.81    0.65
   6   4  -1   10.87    0.61
   6   4   0    0.08    0.10
   6   4   0    0.02    0.10
   6   4   1    5.07    0.40
   6   4   2    2.67    0.28
   6   4   3    2.96    0.31
   6   4   4   -0.02    0.11
   6   4   5    2.19    0.24
   6   5   1    7.49    0.45
   6   5   2    5.23    0.35
   0   0   0    0.00    0.00

_computing_structure_solution     'SHELXT 2018/2 (Sheldrick, 2018)'
;
_shelx_hkl_checksum              12290
_olex2_submission_special_instructions 'No special instructions were received'
loop_
_space_group_symop_operation_xyz
'x, y, z'
'-x, -y, -z'
loop_
_atom_site_label
_atom_site_type_symbol
_atom_site_fract_x
_atom_site_fract_y
_atom_site_fract_z
_atom_site_U_iso_or_equiv
_atom_site_adp_type
_atom_site_occupancy
_atom_site_site_symmetry_order
_atom_site_calc_flag
_atom_site_refinement_flags_posn
_atom_site_refinement_flags_adp
_atom_site_refinement_flags_occupancy
_atom_site_disorder_assembly
_atom_site_disorder_group
O2 O 0.7092(3) 0.9506(2) 0.24472(9) 0.0490(3) Uani 1 1 d . . . . .
N3 N 0.1672(3) 0.4507(2) 0.27228(9) 0.0336(3) Uani 1 1 d . . . . .
O1 O 0.5238(3) 0.9718(2) 0.40010(9) 0.0571(4) Uani 1 1 d . . . . .
N8 N 0.5582(3) 0.8956(2) 0.31570(9) 0.0357(3) Uani 1 1 d . . . . .
N2 N 0.1272(3) 0.5161(2) 0.36942(9) 0.0370(3) Uani 1 1 d . . . . .
N7 N 0.5895(3) 0.7268(2) 0.11291(9) 0.0385(3) Uani 1 1 d . . . . .
H7A H 0.6785 0.8196 0.1145 0.046 Uiso 1 1 calc R . . . .
H7B H 0.5904 0.6704 0.0560 0.046 Uiso 1 1 calc R . . . .
N6 N 0.2898(3) 0.4080(2) 0.10931(10) 0.0375(3) Uani 1 1 d . . . . .
N4 N 0.0535(3) 0.3039(2) 0.24653(10) 0.0402(3) Uani 1 1 d . . . . .
N5 N 0.1318(3) 0.2812(2) 0.14826(10) 0.0406(3) Uani 1 1 d . . . . .
N1 N 0.2110(3) 0.7313(2) 0.47679(10) 0.0429(3) Uani 1 1 d D . . . .
O3B O 0.8757(11) 1.0545(11) 0.0356(3) 0.0448(11) Uani 0.653(19) 1 d . U P A 1
C1 C 0.3102(3) 0.5139(2) 0.18883(10) 0.0318(3) Uani 1 1 d . . . . .
C2 C 0.4521(3) 0.6712(2) 0.19743(10) 0.0308(3) Uani 1 1 d . . . . .
C3 C 0.4222(3) 0.7418(2) 0.29788(10) 0.0309(3) Uani 1 1 d . . . . .
C4 C 0.2531(3) 0.6632(2) 0.38178(10) 0.0326(3) Uani 1 1 d . . . . .
O3A O 0.953(2) 0.9805(18) 0.0524(5) 0.0452(16) Uani 0.347(19) 1 d . U P A 2
H3B H 0.979(6) 1.118(5) 0.069(2) 0.086(8) Uiso 1 1 d . . . . .
H1A H 0.113(4) 0.667(3) 0.5212(15) 0.052(5) Uiso 1 1 d D . . . .
H1B H 0.286(4) 0.824(3) 0.4929(18) 0.060(6) Uiso 1 1 d D . . . .
loop_
_atom_site_aniso_label
_atom_site_aniso_U_11
_atom_site_aniso_U_22
_atom_site_aniso_U_33
_atom_site_aniso_U_23
_atom_site_aniso_U_13
_atom_site_aniso_U_12
O2 0.0656(7) 0.0658(8) 0.0347(6) -0.0111(5) 0.0073(5) -0.0471(6)
N3 0.0446(6) 0.0360(6) 0.0271(6) -0.0089(4) 0.0026(5) -0.0214(5)
O1 0.0852(9) 0.0772(9) 0.0348(6) -0.0274(6) 0.0113(6) -0.0563(7)
N8 0.0460(6) 0.0422(6) 0.0272(6) -0.0088(5) 0.0004(5) -0.0241(5)
N2 0.0518(7) 0.0429(7) 0.0249(6) -0.0103(5) 0.0063(5) -0.0267(6)
N7 0.0511(7) 0.0503(7) 0.0257(6) -0.0112(5) 0.0054(5) -0.0312(6)
N6 0.0484(7) 0.0424(6) 0.0304(6) -0.0135(5) 0.0025(5) -0.0237(5)
N4 0.0541(7) 0.0419(7) 0.0367(7) -0.0121(5) 0.0027(6) -0.0299(6)
N5 0.0536(7) 0.0438(7) 0.0347(7) -0.0137(5) 0.0019(5) -0.0271(6)
N1 0.0610(8) 0.0525(8) 0.0273(7) -0.0141(5) 0.0089(6) -0.0340(6)
O3B 0.0467(15) 0.0522(19) 0.0438(14) -0.0187(11) 0.0021(10) -0.0233(14)
C1 0.0394(7) 0.0356(7) 0.0251(7) -0.0089(5) 0.0024(5) -0.0175(5)
C2 0.0361(6) 0.0344(7) 0.0259(7) -0.0067(5) -0.0002(5) -0.0160(5)
C3 0.0379(7) 0.0349(7) 0.0258(7) -0.0085(5) 0.0006(5) -0.0185(5)
C4 0.0402(7) 0.0344(7) 0.0264(7) -0.0069(5) 0.0016(5) -0.0158(5)
O3A 0.048(2) 0.048(2) 0.045(2) -0.0050(15) 0.0013(14) -0.0244(17)
loop_
_atom_type_symbol
_atom_type_description
_atom_type_scat_dispersion_real
_atom_type_scat_dispersion_imag
_atom_type_scat_source
C C 0.0181 0.0091 'International Tables Vol C Tables 4.2.6.8 and 6.1.1.4'
H H 0.0000 0.0000 'International Tables Vol C Tables 4.2.6.8 and 6.1.1.4'
N N 0.0311 0.0180 'International Tables Vol C Tables 4.2.6.8 and 6.1.1.4'
O O 0.0492 0.0322 'International Tables Vol C Tables 4.2.6.8 and 6.1.1.4'
loop_
_geom_angle_atom_site_label_1
_geom_angle_atom_site_label_2
_geom_angle_atom_site_label_3
_geom_angle
_geom_angle_site_symmetry_1
_geom_angle_site_symmetry_3
_geom_angle_publ_flag
N4 N3 N2 121.38(12) . . ?
C1 N3 N2 129.37(12) . . ?
C1 N3 N4 109.25(12) . . ?
O2 N8 C3 118.71(11) . . ?
O1 N8 O2 120.82(12) . . ?
O1 N8 C3 120.47(12) . . ?
C4 N2 N3 113.75(11) . . ?
C1 N6 N5 104.91(12) . . ?
N5 N4 N3 104.95(11) . . ?
N4 N5 N6 112.42(12) . . ?
N3 C1 C2 119.49(12) . . ?
N6 C1 N3 108.47(12) . . ?
N6 C1 C2 132.04(13) . . ?
N7 C2 C1 116.76(12) . . ?
N7 C2 C3 129.65(13) . . ?
C3 C2 C1 113.59(12) . . ?
N8 C3 C4 120.43(11) . . ?
C2 C3 N8 118.35(12) . . ?
C2 C3 C4 121.22(12) . . ?
N2 C4 C3 122.55(12) . . ?
N1 C4 N2 114.15(12) . . ?
N1 C4 C3 123.30(13) . . ?
loop_
_geom_bond_atom_site_label_1
_geom_bond_atom_site_label_2
_geom_bond_distance
_geom_bond_site_symmetry_2
_geom_bond_publ_flag
O2 N8 1.2302(16) . ?
N3 N2 1.3508(16) . ?
N3 N4 1.3428(17) . ?
N3 C1 1.3366(18) . ?
O1 N8 1.2265(16) . ?
N8 C3 1.4268(17) . ?
N2 C4 1.3329(18) . ?
N7 C2 1.3134(18) . ?
N6 N5 1.3423(18) . ?
N6 C1 1.3320(18) . ?
N4 N5 1.3064(18) . ?
N1 C4 1.3310(18) . ?
O3B O3B 1.507(7) 2_775 ?
C1 C2 1.4381(19) . ?
C2 C3 1.4080(18) . ?
C3 C4 1.4604(19) . ?
O3A O3A 1.412(11) 2_775 ?
