#------------------------------------------------------------------------------
#$Date: 2021-04-28 00:40:36 +0300 (Wed, 28 Apr 2021) $
#$Revision: 264595 $
#$URL: file:///home/coder/svn-repositories/cod/cif/4/51/86/4518633.cif $
#------------------------------------------------------------------------------
#
# This file is available in the Crystallography Open Database (COD),
# http://www.crystallography.net/
#
# All data on this site have been placed in the public domain by the
# contributors.
#
data_4518633
loop_
_publ_author_name
'Yan, Siyu'
'Tang, Kaixin'
'Lin, Yuejian'
'Ren, Yuanhang'
'Tian, Wanli'
'Chen, Hua'
'Lin, Tingting'
'Qiu, Longzhen'
'Pan, Xiaoyong'
'Wang, Weizhi'
_publ_section_title
;
 Light-Emitting Diodes with Manganese Halide Tetrahedron Embedded in
 Anti-Perovskites
;
_journal_name_full               'ACS Energy Letters'
_journal_page_first              1901
_journal_page_last               1911
_journal_paper_doi               10.1021/acsenergylett.1c00250
_journal_year                    2021
_chemical_formula_sum            'Cl5 Cs3 Mn'
_chemical_formula_weight         630.92
_space_group_crystal_system      tetragonal
_space_group_IT_number           140
_space_group_name_Hall           '-I 4 2c'
_space_group_name_H-M_alt        'I 4/m c m'
_audit_creation_method           SHELXL-2016/6
_cell_angle_alpha                90
_cell_angle_beta                 90
_cell_angle_gamma                90
_cell_formula_units_Z            4
_cell_length_a                   9.1751(3)
_cell_length_b                   9.1751(3)
_cell_length_c                   14.8827(10)
_cell_measurement_reflns_used    7194
_cell_measurement_temperature    298(2)
_cell_measurement_theta_max      26.12
_cell_measurement_theta_min      2.61
_cell_volume                     1252.86(10)
_computing_cell_refinement       'Bruker SAINT'
_computing_data_collection       'Bruker APEX2'
_computing_data_reduction        'Bruker SAINT'
_computing_molecular_graphics    'Bruker SHELXTL'
_computing_publication_material  'Bruker SHELXTL'
_computing_structure_refinement  'SHELXL-2016/6 (Sheldrick, 2016)'
_computing_structure_solution    'SHELXT 2018/2 (Sheldrick, 2018)'
_diffrn_ambient_temperature      298(2)
_diffrn_measured_fraction_theta_full 1.000
_diffrn_measured_fraction_theta_max 1.000
_diffrn_measurement_device_type  'Bruker APEX-II CCD'
_diffrn_measurement_method       '\f and \w scans'
_diffrn_radiation_type           MoK\a
_diffrn_radiation_wavelength     0.71073
_diffrn_reflns_av_R_equivalents  0.1350
_diffrn_reflns_av_unetI/netI     0.0520
_diffrn_reflns_Laue_measured_fraction_full 1.000
_diffrn_reflns_Laue_measured_fraction_max 1.000
_diffrn_reflns_limit_h_max       11
_diffrn_reflns_limit_h_min       -11
_diffrn_reflns_limit_k_max       11
_diffrn_reflns_limit_k_min       -11
_diffrn_reflns_limit_l_max       18
_diffrn_reflns_limit_l_min       -18
_diffrn_reflns_number            9689
_diffrn_reflns_point_group_measured_fraction_full 1.000
_diffrn_reflns_point_group_measured_fraction_max 1.000
_diffrn_reflns_theta_full        25.242
_diffrn_reflns_theta_max         26.130
_diffrn_reflns_theta_min         2.737
_exptl_absorpt_coefficient_mu    10.648
_exptl_absorpt_correction_T_max  0.067
_exptl_absorpt_correction_T_min  0.004
_exptl_absorpt_correction_type   multi-scan
_exptl_absorpt_process_details   sadabs
_exptl_crystal_colour            green
_exptl_crystal_density_diffrn    3.345
_exptl_crystal_description       block
_exptl_crystal_F_000             1100
_exptl_crystal_size_max          0.560
_exptl_crystal_size_mid          0.410
_exptl_crystal_size_min          0.360
_refine_diff_density_max         6.189
_refine_diff_density_min         -5.467
_refine_diff_density_rms         0.987
_refine_ls_extinction_method     none
_refine_ls_goodness_of_fit_ref   1.255
_refine_ls_hydrogen_treatment    undef
_refine_ls_matrix_type           full
_refine_ls_number_parameters     17
_refine_ls_number_reflns         362
_refine_ls_number_restraints     0
_refine_ls_restrained_S_all      1.255
_refine_ls_R_factor_all          0.1199
_refine_ls_R_factor_gt           0.1189
_refine_ls_shift/su_max          0.000
_refine_ls_shift/su_mean         0.000
_refine_ls_structure_factor_coef Fsqd
_refine_ls_weighting_details
'w=1/[\s^2^(Fo^2^)+(0.2000P)^2^+60.0000P] where P=(Fo^2^+2Fc^2^)/3'
_refine_ls_weighting_scheme      calc
_refine_ls_wR_factor_gt          0.3027
_refine_ls_wR_factor_ref         0.3042
_reflns_Friedel_coverage         0.000
_reflns_number_gt                348
_reflns_number_total             362
_reflns_threshold_expression     'I > 2\s(I)'
_cod_data_source_file            nz1c00250_si_007.cif
_cod_data_source_block           mo_200909a_a
_cod_original_cell_volume        1252.86(12)
_cod_database_code               4518633
_shelx_shelxl_version_number     2016/6
_shelx_space_group_comment
; 
The symmetry employed for this shelxl refinement is uniquely defined 
by the following loop, which should always be used as a source of 
symmetry information in preference to the above space-group names. 
They are only intended as comments. 
;
_shelx_estimated_absorpt_t_min   0.066
_shelx_estimated_absorpt_t_max   0.114
_shelx_res_file
; 
TITL mo_200909a_a.res in I4/mcm 
    mo_200909a_a.res 
    created by SHELXL-2016/6 at 16:43:33 on 03-Oct-2020 
CELL  0.71073   9.1751   9.1751  14.8827   90.000   90.000   90.000 
ZERR    4.000   0.0003   0.0003   0.0010    0.000    0.000    0.000 
LATT 2 
SYMM -X, -Y, Z 
SYMM -Y, X, Z 
SYMM Y, -X, Z 
SYMM -X, Y, 1/2-Z 
SYMM X, -Y, 1/2-Z 
SYMM Y, X, 1/2-Z 
SYMM -Y, -X, 1/2-Z 
SFAC Cl Cs Mn 
UNIT 20 12 4 
L.S. 5 
ACTA 
BOND 
FMAP 2 
PLAN 20 
CONF 
SIZE 0.36 0.41 0.56 
TEMP 24.850 
WGHT    0.200000   60.000000 
FVAR       0.15715 
CS1   2    0.336096    0.163904    0.500000    10.25000    0.01164    0.01164 = 
         0.03852    0.00000    0.00000    0.00327 
CS2   2    0.500000    0.500000    0.250000    10.12500    0.02375    0.02375 = 
         0.05037    0.00000    0.00000    0.00000 
MN1   3    0.000000    0.500000    0.750000    10.12500    0.00993    0.00993 = 
         0.02571    0.00000    0.00000    0.00000 
CL1   1    0.143176    0.356824    0.654704    10.50000    0.02655    0.02655 = 
         0.04128   -0.00876    0.00876    0.01105 
CL2   1    0.500000    0.500000    0.500000    10.12500    0.01815    0.01815 = 
         0.06326    0.00000    0.00000    0.00000 
  
HKLF 4 
  
  
  
  
REM  mo_200909a_a.res in I4/mcm 
REM R1 =  0.1189 for     348 Fo > 4sig(Fo)  and  0.1199 for all     362 data 
REM     17 parameters refined using      0 restraints 
  
END 
  
WGHT      0.2000      0.0000 
  
REM Highest difference peak  6.189,  deepest hole -5.467,  1-sigma level  0.987 
Q1    1   0.4105  0.0895  0.5000  10.25000  0.05    6.19 
Q2    1   0.2666  0.2334  0.5000  10.25000  0.05    5.97 
Q3    1   0.2598  0.1002  0.5000  10.50000  0.05    5.95 
Q4    1   0.4264  0.4264  0.2500  10.50000  0.05    4.85 
Q5    1   0.5000  0.5000  0.3016  10.25000  0.05    4.35 
Q6    1   0.3342  0.1658  0.4453  10.50000  0.05    4.14 
Q7    1  -0.0699  0.5699  0.7547  10.50000  0.05    3.55 
Q8    1   0.3356  0.0290  0.5000  10.50000  0.05    2.94 
Q9    1   0.5000  0.5000  0.5511  10.25000  0.05    2.67 
Q10   1   0.4425 -0.0575  0.5000  10.25000  0.05    2.20 
Q11   1   0.1667  0.4062  0.5000  10.50000  0.05    2.17 
Q12   1   0.1607  0.3393  0.7975  10.50000  0.05    2.01 
Q13   1   0.0028  0.3976  0.6064  11.00000  0.05    1.99 
Q14   1   0.0422  0.3990  0.6632  11.00000  0.05    1.94 
Q15   1   0.7047  0.5927  0.5000  10.50000  0.05    1.86 
Q16   1   0.1396  0.2591  0.5000  10.50000  0.05    1.86 
Q17   1   0.1466  0.3534  0.5960  10.50000  0.05    1.83 
Q18   1   0.3504  0.2971  0.5000  10.50000  0.05    1.73 
Q19   1   0.2522  0.4079  0.6378  11.00000  0.05    1.65 
Q20   1   0.0504  0.2906  0.6576  11.00000  0.05    1.64 
;
_shelx_res_checksum              79397
_shelx_hkl_file
; 
  -1   1   0   30.20    5.40 
   1  -1   0   34.20    4.90 
  -1  -1   0   16.40    7.40 
  -1  -1   0   46.00    5.50 
  -1  -1   0   29.00   13.00 
   1   1   0   31.20    4.30 
   0  -2   0  274.37   26.50 
  -2   0   0  321.97   25.50 
  -2   0   0  250.57   26.90 
   0   2   0  253.77   29.60 
   0  -2   0  244.48   29.20 
   0   2   0  247.18   26.70 
   0   2   0  293.27   26.60 
  -2   0   0  308.27   26.10 
  -2  -2   0 3273.87  298.97 
  -2  -2   0 3257.87  297.87 
  -2   2   0 3603.64  292.47 
  -2   2   0 3150.58  299.67 
   2  -2   0 3620.24  296.37 
  -2  -2   0 3151.08  309.17 
  -1   3   0 3058.19  305.87 
   1  -3   0 3979.90  298.87 
   1  -3   0 3324.77  303.57 
  -1   3   0 3002.30  300.47 
  -3  -1   0 3928.01  304.27 
   1  -3   0 3155.18  299.37 
  -1  -3   0 4522.75  430.16 
   1   3   0 4236.28  382.16 
  -3   1   0 4860.41  382.06 
  -1  -3   0 3783.22  382.26 
  -3   3   0 2216.28  191.68 
   3  -3   0 2404.16  194.98 
  -3   3   0 2201.88  203.08 
  -3   3   0 1870.51  195.58 
  -3   3   0 2413.16  190.98 
  -3  -3   0 1908.21  200.78 
  -3  -3   0 2294.87  240.98 
  -3  -3   0 2064.99  223.88 
   4   2   0 6869.01  646.44 
   4   2   0 7251.47  648.84 
   4   2   0 8033.40  651.23 
   0  -4   0  127.49   50.89 
   0   4   0  106.39   18.60 
  -4   0   0   96.59   13.60 
   4   0   0  123.89   21.90 
   4   0   0  104.19   10.90 
   0   4   0   82.49   12.90 
   0   4   0   88.69   12.80 
  -4   0   0   75.49   13.20 
  -4   0   0   76.49   21.10 
   0  -4   0   73.39   13.00 
   0  -4   0   86.29   11.60 
  -4   0   0   89.19   12.90 
  -4   2   0 3193.28  273.67 
   2   4   0 3267.67  274.67 
  -2  -4   0 3385.76  299.67 
  -2  -4   0 2653.73  276.37 
  -4   2   0 2679.83  277.97 
  -2  -4   0 3781.02  369.96 
   4  -4   0 3277.67  252.87 
  -4   4   0 2965.80  250.07 
  -4   4   0 2845.82  250.97 
  -4  -4   0 2387.66  258.87 
  -4  -4   0 2642.04  278.97 
  -4  -4   0 2356.06  263.07 
  -4  -4   0 3166.38  313.17 
  -4   4   0 2861.51  252.07 
  -4   4   0 2964.70  266.27 
   5   3   0 1966.70  164.98 
   5   3   0 1664.53  161.68 
  -5  -1   0   49.10   20.10 
  -5  -1   0   77.89   14.60 
  -5  -1   0   93.39   17.60 
   1  -5   0   83.99   16.80 
  -1   5   0  108.59   35.30 
   1  -5   0   75.19   12.10 
  -1   5   0   95.79   20.30 
   1  -5   0  176.18   62.79 
  -1   5   0   80.09   11.90 
  -5  -1   0   60.49   21.10 
   1  -5   0   84.69    9.70 
  -5  -1   0   56.19   15.30 
  -1   5   0   70.49   13.50 
  -5   1   0   81.29    8.40 
  -5   1   0   60.49   12.70 
  -1  -5   0   97.99   23.50 
   5  -1   0   90.29    9.70 
   1   5   0   84.39   12.50 
   1   5   0  130.99   24.40 
   1   5   0   69.29   11.60 
  -1  -5   0   35.50   38.00 
  -1  -5   0   70.89   13.20 
  -1  -5   0   74.49   14.40 
  -1  -5   0   88.69   13.20 
  -5   1   0   74.89    9.30 
   1   5   0  178.88   50.79 
   3   5   0 2719.23  314.47 
   3   5   0 2706.43  257.07 
  -5  -5   0   48.70   24.90 
  -5   5   0   55.69   12.30 
  -5  -5   0   74.79   21.60 
  -5   5   0   48.70   21.50 
   5   5   0   93.79   12.00 
  -5   5   0   55.69   11.70 
   5   5   0   88.79   13.10 
  -5  -5   0   75.29   61.69 
  -6  -4   0   17.50   22.20 
  -4   6   0   32.80   25.40 
   6   4   0   22.20   29.60 
  -4   6   0   32.60   18.90 
  -6  -4   0    8.30   12.00 
  -6  -4   0   -3.40   33.80 
  -6  -4   0   24.40   31.70 
   6   4   0   35.80   14.50 
   6   4   0   31.70   12.90 
  -4   6   0   10.10    8.70 
   4  -6   0   25.30   21.00 
  -6  -4   0    6.30   11.30 
   6   4   0   21.50    6.00 
  -2   6   0   82.09   15.00 
   2  -6   0   99.29    9.80 
  -2   6   0   89.29   19.10 
  -6  -2   0  102.29   24.10 
  -6  -2   0   68.09   31.60 
  -6  -2   0   70.39   19.70 
  -6  -2   0   86.29   38.60 
   2  -6   0   82.39   10.10 
  -2   6   0  120.19   33.60 
   0  -6   0 5344.57  440.16 
   0   6   0 5344.97  443.26 
  -6   0   0 4358.86  450.65 
  -6   0   0 5704.53  445.26 
   0  -6   0 4553.94  442.56 
   0   6   0 4436.56  440.96 
  -6   0   0 4307.77  446.76 
   0  -6   0 5871.91  453.45 
   2   6   0  499.15  122.09 
   2   6   0  244.38   40.50 
  -4  -6   0   -4.70   12.40 
  -4  -6   0   24.50   76.99 
  -6   4   0   17.50   14.30 
   4   6   0   74.29   31.80 
   4   6   0   59.39   61.69 
  -6   4   0    5.20    4.60 
  -4  -6   0   -1.70   10.90 
   4   6   0   33.10   17.50 
   4   6   0   10.20    5.70 
  -4  -6   0   19.30   12.70 
   6   6   0 9999.00  891.11 
  -7  -5   0   16.90   17.60 
   7   5   0   41.30   10.80 
  -5   7   0   60.49   36.40 
  -7  -5   0   32.10   34.40 
   7   5   0   84.69   53.29 
  -7  -5   0   30.50   22.50 
  -5   7   0   32.60   25.10 
  -7  -5   0   74.09   45.50 
   7   5   0   77.09   19.70 
  -3   7   0 4257.87  385.66 
  -7  -3   0 3869.51  376.56 
   7   3   0 4061.39  361.16 
  -7  -1   0   44.10   14.30 
  -7  -1   0   37.60   28.90 
   1  -7   0   48.30    7.60 
  -1   7   0   59.89   26.10 
  -1   7   0   27.90   10.20 
  -7  -1   0   50.19   17.80 
   1  -7   0   61.59   12.00 
  -7  -1   0   39.70   20.40 
  -1   7   0   54.49   15.00 
  -1  -7   0   50.09   11.90 
   1   7   0   40.10   11.00 
  -7   1   0   53.29   15.20 
  -7   1   0   48.70   12.10 
  -1  -7   0   63.79   23.00 
   1   7   0  103.89   27.90 
  -1  -7   0   39.40   13.70 
   1   7   0  190.88   94.69 
  -7   1   0   42.70   15.20 
  -1  -7   0   72.49   68.49 
   3   7   0 4788.92  495.05 
   3   7   0 4524.05  427.76 
  -5  -7   0   53.69   69.99 
  -7   5   0    3.60    6.90 
  -5  -7   0    5.90   15.40 
   5   7   0  -27.10   57.19 
  -7   5   0   28.80    8.20 
  -7   5   0   15.80   16.30 
   5   7   0   38.70   17.00 
  -5  -7   0   12.70   18.60 
  -7   5   0   14.60    5.70 
  -7   7   0  316.77   71.99 
   7   7   0  240.38   38.90 
  -7  -7   0  181.78   58.39 
   7   7   0  309.37   93.39 
   8   6   0  447.26   55.79 
   8   6   0  561.54   55.49 
  -6   8   0  370.96   73.99 
  -8  -6   0  284.37   66.99 
   8   6   0  674.93  122.39 
   8   4   0 1402.06  132.49 
   4  -8   0 1590.44  169.88 
  -8  -4   0 1050.39  250.27 
  -4   8   0 1530.55  164.08 
  -8  -2   0 1083.29  144.99 
  -8  -2   0 1086.29  126.09 
   8   2   0 1311.17  110.79 
  -8   0   0  275.47   41.90 
   0  -8   0  335.77   36.70 
   0   8   0  449.36   77.89 
  -8   0   0  219.98   42.10 
  -8   0   0  299.27   42.00 
   8   0   0  307.77   28.70 
   0   8   0  225.28   34.70 
   0   8   0  281.27   35.10 
   0  -8   0  277.37   30.60 
  -2  -8   0  522.15   55.19 
  -8   2   0  520.85   57.99 
  -8   2   0  431.16   47.60 
  -8   2   0  487.65   50.09 
  -2  -8   0  643.94  137.39 
   4   8   0 1199.58  194.98 
   4   8   0 1238.08  130.99 
   6   8   0  356.46   50.29 
   8   8   0  556.74   69.29 
  -8  -8   0  848.12  116.19 
  -8   8   0  534.95   88.39 
   9   5   0  343.17   34.50 
   9   3   0 1235.08  143.79 
   3  -9   0 1323.97  173.68 
  -9  -3   0 1214.38  140.09 
  -1   9   0  619.74   88.89 
  -9  -1   0  599.34   76.49 
   1  -9   0  613.64   61.19 
   1   9   0 1089.19  151.58 
  -1  -9   0  953.50  178.28 
   3   9   0  833.72  101.09 
   3   9   0  886.41  158.68 
   5   9   0  466.85   61.39 
  -5  -9   0  249.18  143.19 
   5   9   0  474.25  130.99 
  -4  10   0 5567.64  473.55 
 -10  -4   0 3965.60  448.66 
 -10  -4   0 4241.98  471.05 
  -4  10   0 5375.46  470.75 
   2 -10   0 1734.43  219.28 
 -10  -2   0 1572.34  173.88 
  10   0   0   34.10    7.20 
   0  10   0   47.30   43.40 
 -10   0   0   16.10   27.70 
   0 -10   0   37.80    9.80 
   0 -10   0   42.60   67.09 
   0 -10   0   48.40   23.90 
 -10   0   0   57.49   26.60 
 -10   0   0   88.39   35.50 
 -10   0   0   31.20   16.80 
 -10   2   0  711.63   66.69 
 -10   2   0  552.04   69.69 
 -10   2   0  505.75   76.19 
  -2 -10   0  498.45   60.29 
   4  10   0 1492.75  152.68 
   4  10   0 1581.04  236.08 
  -4 -10   0 1098.49  244.28 
   1 -11   0   19.90    6.30 
 -11  -1   0   46.70   42.10 
  -1  11   0   25.40   33.50 
 -11  -1   0   48.30   43.90 
 -11  -1   0   34.30   34.20 
   1 -11   0   22.20   11.80 
 -11   1   0   29.70   28.70 
 -11   1   0   27.50   31.30 
   1  11   0   48.80   58.29 
 -11   1   0   20.70   27.40 
  -1 -11   0   99.69   93.89 
  -1 -11   0   30.30   10.80 
 -11   1   0   25.90   13.30 
   0  -1  -1    3.50    1.40 
   0   1  -1    1.30    2.20 
   0  -1  -1    1.40    5.40 
   0  -1  -1    5.70    1.60 
  -1   0  -1    9.00    3.90 
  -1   0  -1    3.10    1.00 
   0  -1  -1    1.70    1.20 
  -1   0  -1    4.70    1.60 
  -1   0  -1    0.30    0.80 
   1   0  -1    2.30    0.80 
   0   1  -1    0.50    2.30 
   1   0  -1    3.20    0.80 
   0  -1   1   -1.90    4.50 
   0   1   1    2.00    1.10 
   1   0   1    2.20    1.20 
   0  -1   1    5.50    2.90 
   0   1   1    4.40    6.20 
   1   0   1    1.70    0.70 
   0   1   1    2.20    1.50 
   0  -1   1    2.00    0.80 
  -1   0   1    3.40    1.00 
  -1   0   1    1.10    0.70 
  -1   0   1    1.90    1.50 
   0   1   1    2.40    1.60 
   0  -1   1    1.90    1.90 
   0   1   1    3.60    1.40 
  -1   2  -1  987.30   78.79 
   1  -2  -1  937.81   82.49 
   2   1  -1  724.73  114.69 
   1  -2  -1  826.92   78.69 
  -1   2  -1  811.62   84.19 
  -2  -1  -1  889.01   94.39 
   1  -2  -1  887.01   78.29 
  -2  -1   1 1020.10   82.59 
  -1   2   1  803.82   83.09 
   1  -2   1  791.32   78.89 
  -1   2   1  836.92   79.49 
   1  -2   1  792.52   80.89 
   1  -2   1  826.22   91.39 
  -1   2   1  978.70   79.89 
  -1   2   1  914.41   80.09 
   1  -2   1  974.80   77.99 
  -2  -1   1  773.62   81.09 
  -2  -1   1  999.50   83.19 
  -2  -1   1  972.60   81.19 
   1   2  -1  907.91   82.89 
  -1  -2  -1 1025.70   85.59 
   1   2  -1  882.61   83.29 
  -1  -2  -1  841.62   84.29 
   1   2  -1  767.22  102.09 
  -2   1  -1  853.61   84.09 
  -1  -2   1 1003.10   84.09 
   2  -1   1 1062.89   81.59 
  -1  -2   1  984.70   83.49 
  -1  -2   1  763.12   86.89 
  -2   1   1  952.00   81.99 
  -1  -2   1  930.81   90.99 
   1   2   1  927.41   86.29 
  -1  -2   1  837.52  111.69 
  -2   1   1  947.21   83.19 
  -2   3  -1   24.60    4.00 
  -3  -2  -1   -0.10   14.40 
   2  -3  -1   84.99   27.80 
  -2   3  -1   41.30   12.70 
   3   2  -1   17.80   19.40 
  -3  -2  -1   14.40    7.90 
  -2   3  -1   50.89   20.00 
   3   2  -1   28.40    4.60 
  -3  -2  -1   23.10    8.50 
  -3  -2  -1   16.30   18.50 
  -2   3  -1   18.00    8.50 
   2  -3  -1   20.10    6.50 
  -3  -2  -1   18.70    8.40 
  -2   3   1   26.30    6.30 
  -2   3   1   34.30    5.90 
   2  -3   1   42.40   20.30 
  -2   3   1   20.40    8.90 
   2  -3   1   24.50    6.40 
  -3  -2   1   23.10   15.50 
  -3  -2   1   19.80    8.10 
  -3  -2   1   20.00    6.70 
  -3  -2   1    8.40    8.90 
  -3   0  -1    6.80    6.80 
   0   3  -1    1.40    1.80 
   3   0  -1    5.60    4.00 
   0  -3  -1    0.90    1.80 
   0   3  -1   -1.90    9.60 
  -3   0  -1    0.00    2.30 
   0   3  -1    1.10    6.00 
   0  -3  -1    1.50    2.40 
   0  -3  -1   -4.30   20.00 
  -3   0  -1    1.80    2.00 
   3   0  -1    4.80    2.00 
   0   3  -1   38.40   20.40 
   0  -3  -1    3.80    3.10 
  -3   0  -1   -0.90    9.00 
   0  -3  -1    2.50    4.20 
   0  -3   1   15.20    9.10 
   0   3   1    2.00    2.40 
   0  -3   1    2.50    4.10 
   0   3   1   16.00   18.50 
   3   0   1    0.30   12.60 
   0   3   1    0.20    1.90 
   0   3   1    2.00    3.00 
   0  -3   1    9.80    2.90 
   3   0   1    1.00    1.60 
  -3   0   1    6.70    2.10 
  -3   0   1   -5.40    6.40 
   0  -3   1    0.70   11.80 
  -3   0   1    0.20    2.60 
   2   3  -1   33.40    5.90 
  -2  -3  -1   20.40    8.50 
  -2  -3  -1   19.30    7.40 
  -3   2  -1   28.80    5.40 
  -2  -3  -1   55.59   37.20 
  -2  -3  -1   20.40   10.20 
   2   3  -1   51.09   34.10 
  -3   2  -1   32.80   10.40 
   2   3  -1   22.10    5.90 
  -2  -3   1   27.60    8.60 
  -3   2   1   33.70   10.10 
   2   3   1   31.70    6.10 
  -2  -3   1   29.20    7.30 
  -2  -3   1   72.39   54.29 
  -2  -3   1   13.60    7.40 
   2   3   1   65.29   15.40 
   2   3   1  137.99   74.39 
   2   3   1   34.00    7.30 
  -2  -3   1   16.80   12.30 
   4   3  -1    1.20    5.90 
  -4  -3  -1   19.50   22.90 
   4   3  -1   -2.30   17.00 
   3  -4  -1    8.20   15.40 
  -4  -3  -1    1.10    5.60 
  -4  -3  -1    0.80   19.70 
  -4  -3  -1    0.90    8.00 
  -3   4  -1   12.40    7.40 
  -3   4  -1   -5.60    8.30 
  -3   4  -1   11.70   15.80 
  -3   4  -1   12.30    4.00 
  -4  -3  -1    3.30    6.80 
   4   3  -1   49.70   15.00 
   4   3   1   17.50    9.00 
   3  -4   1   26.80    7.10 
  -3   4   1   38.00   15.30 
   4   3   1   25.60   36.80 
   4   3   1   11.60    4.90 
   4   3   1    3.30    3.50 
  -4  -3   1    0.80    7.70 
  -3   4   1    3.60    4.70 
  -4  -3   1    8.20    7.30 
  -4  -3   1   -3.70   13.60 
  -4  -3   1    5.90    6.80 
  -3   4   1   30.50    7.20 
  -4  -3   1   -9.10   18.70 
   4   3   1   22.00   14.40 
  -3   4   1    5.30    7.10 
   1  -4  -1  905.01   79.19 
   1  -4  -1  832.12   79.39 
  -1   4  -1  714.33   95.39 
  -1   4  -1 1010.70   94.29 
   1  -4  -1  914.01   86.39 
  -4  -1  -1  852.11   83.19 
  -1   4  -1  845.52   81.19 
  -4  -1  -1  795.52   84.69 
  -4  -1  -1  856.41   84.49 
  -4  -1  -1  912.11  104.79 
   4   1  -1  891.11   98.19 
   1  -4   1  989.60   78.39 
  -4  -1   1  969.90   84.79 
  -1   4   1  862.31   87.59 
  -1   4   1  891.61   81.19 
  -4  -1   1  762.72   96.69 
   1  -4   1  841.32   80.09 
  -4  -1   1 1010.50   86.29 
  -1   4   1  899.41   82.19 
  -4  -1   1  741.63   84.19 
  -4  -1   1  867.11   85.79 
   1  -4   1  833.32   86.69 
   1   4  -1  854.31   83.99 
  -1  -4  -1 1069.89  146.99 
   1   4  -1  890.31   86.89 
  -4   1  -1 1000.00   86.39 
  -1  -4  -1  813.62   85.29 
  -1  -4  -1  806.32   96.69 
  -1  -4   1 1015.40   85.59 
   1   4   1  902.51   90.39 
   1   4   1  894.11   84.59 
  -1  -4   1  787.92  122.69 
  -4   1   1  973.10   84.99 
  -1  -4   1  954.80   85.39 
  -4   3  -1   -1.00    7.80 
  -3  -4  -1    1.70    4.90 
  -3  -4  -1   -3.00   23.70 
  -3  -4  -1   -3.50    8.10 
   3   4  -1   10.80    9.70 
   3   4  -1    5.80    3.40 
   3   4  -1    3.70    2.90 
   3   4  -1   -1.00   23.40 
  -3  -4  -1    3.40    6.90 
   3   4  -1   10.40   17.30 
  -3  -4   1    1.30    4.30 
   3   4   1    6.50    3.60 
   3   4   1   13.10    9.60 
  -3  -4   1   -9.90   13.00 
  -4   3   1   16.50    9.50 
  -3  -4   1   -0.60    5.60 
  -3  -4   1    5.80    6.90 
  -3  -4   1    1.90   25.70 
   3   4   1   22.60   46.80 
   3   4   1   20.00   19.70 
   5   4  -1 1102.19  108.79 
  -5  -4  -1  932.51  122.39 
   4  -5  -1 1272.97  115.59 
   5   4   1 1345.17  111.19 
  -5  -2  -1  455.85   54.29 
  -5  -2  -1  436.66   71.59 
   2  -5  -1  454.45   43.30 
   2  -5  -1  536.75   43.60 
   2  -5  -1  562.84   52.09 
  -5  -2  -1  407.06   71.79 
  -5  -2  -1  525.25   67.99 
  -2   5  -1  428.26   48.30 
  -5  -2   1  422.06   51.79 
   2  -5   1  542.75   43.20 
  -2   5   1  452.05   49.40 
  -5  -2   1  465.95   54.49 
   2  -5   1  451.35   43.70 
  -2   5   1  411.26   48.70 
  -2   5   1  509.95   48.70 
  -5  -2   1  429.56   67.89 
  -5  -2   1  450.15   60.29 
   2  -5   1  518.65   50.59 
  -2   5   1  558.94   59.69 
  -5   0  -1    5.80    4.80 
  -5   0  -1   -1.80    4.60 
  -5   0  -1    6.40   14.30 
   0   5  -1    0.10    4.00 
   0   5  -1    7.90   28.30 
   0  -5  -1   14.60    8.70 
  -5   0  -1  -11.00   12.80 
   0  -5  -1    4.60    3.50 
   0   5  -1   -2.50    8.50 
   0  -5  -1    6.20    5.80 
   0   5  -1    5.60   19.40 
  -5   0  -1   11.20    5.80 
   0  -5  -1    6.20    4.30 
   0  -5  -1    7.30   32.30 
   5   0  -1   10.20    5.90 
   0   5  -1    6.40    3.80 
   5   0   1    3.60    2.50 
   0  -5   1    0.70    3.90 
   0  -5   1   10.50    7.50 
   0   5   1    1.10    3.50 
  -5   0   1   14.40    5.90 
  -5   0   1    6.70    9.30 
   0   5   1    2.20    5.80 
   0  -5   1   12.90   25.80 
  -5   0   1   10.90    6.40 
   0   5   1   17.30   17.90 
   0   5   1   10.20   18.10 
  -5   0   1    6.10    6.50 
   0   5   1   10.10    5.10 
   5   0   1   -3.00   12.20 
   0  -5   1   10.10    3.90 
  -2  -5  -1  478.65   53.49 
  -2  -5  -1  442.56   60.29 
   2   5  -1  542.75   50.79 
  -2  -5  -1  399.16   54.59 
  -5   2  -1  504.85   55.39 
  -2  -5  -1  717.43  139.49 
  -5   2  -1  603.14   52.69 
   2   5  -1  473.45   50.09 
  -2  -5   1  377.96   92.59 
  -2  -5   1  524.25   52.89 
   2   5   1  606.04   51.79 
  -2  -5   1  508.75   53.99 
  -5   2   1  460.95   55.39 
  -5   2   1  529.05   50.79 
  -2  -5   1  660.13   71.69 
  -4  -5  -1  624.34  115.19 
  -5   4  -1  551.44   52.69 
  -5   4  -1  557.94   48.00 
  -5   4  -1  459.75   49.10 
  -5   4  -1  642.14   68.69 
  -4  -5  -1  425.86   58.79 
  -4  -5   1  498.95   63.49 
  -4  -5   1  483.95   76.79 
  -5   4   1  517.65   63.99 
  -4  -5   1  490.15  102.59 
  -5   4   1  614.14   48.90 
  -4  -5   1  521.45   59.19 
  -5   6  -1   10.60    7.20 
  -6  -5  -1   30.30   15.90 
   6   5  -1   63.59   20.30 
   6   5  -1   47.50   53.89 
   6   5  -1   70.19   22.60 
  -5   6  -1   27.10   10.70 
  -5   6  -1   22.30   20.40 
  -5   6  -1   17.30   24.90 
   6   5  -1   18.60    5.90 
   5  -6  -1   22.90    7.60 
  -6  -5  -1   45.30   29.30 
  -6  -5  -1    1.70   12.30 
  -6  -5   1    2.90   32.80 
  -5   6   1   19.40   18.20 
  -5   6   1    5.10    7.20 
  -5   6   1    7.00    7.40 
   5  -6   1   11.60    5.60 
   6   5   1   91.39   25.80 
  -6  -5   1   25.00   24.80 
   6   5   1   24.00    8.30 
   6   5   1   42.50   15.40 
  -5   6   1    3.40   10.30 
  -6  -5   1   -0.50   17.00 
  -5   6   1   49.20   14.30 
   6   5   1   25.40    7.00 
   6   5   1   55.39   58.09 
   5  -6   1   51.19   16.20 
  -6  -5   1   16.00   15.90 
  -3   6  -1   80.69   39.90 
  -6  -3  -1   29.10   18.60 
  -6  -3  -1   23.60   25.20 
   6   3  -1   68.49   38.40 
  -3   6  -1    9.10    9.90 
  -3   6  -1   27.70   19.40 
  -6  -3  -1   50.19   37.90 
  -6  -3  -1   19.70   13.30 
   3  -6  -1   24.90   28.30 
  -6  -3  -1   20.20   13.30 
   6   3  -1   31.00    8.70 
  -6  -3   1   50.89   27.30 
  -3   6   1   11.40    7.80 
  -6  -3   1    7.70   11.60 
  -3   6   1   21.20   15.30 
   6   3   1  106.19   56.49 
  -6  -3   1   60.79   23.10 
   6   3   1   20.60    8.20 
   6   3   1   70.59   22.00 
   3  -6   1   91.89   38.10 
  -6  -3   1   39.60   31.10 
  -6  -3   1    6.30   11.40 
   6   3   1   34.40   10.90 
  -3   6   1   40.50   11.00 
  -3   6   1   45.30   12.70 
   6   3   1   34.80    7.50 
  -6  -1  -1   -0.90    7.30 
  -1   6  -1   30.10   34.80 
   1  -6  -1   15.20    4.50 
  -1   6  -1    9.40    7.30 
   6   1  -1   27.00    6.30 
   1  -6  -1   18.90   10.60 
  -6  -1  -1   33.50   28.30 
  -1   6  -1    5.00    4.80 
   1  -6  -1   13.00    5.90 
  -6  -1  -1    6.00   19.70 
  -6  -1  -1    6.90    8.30 
  -6  -1  -1    0.70    9.10 
  -1   6  -1   45.80   19.80 
  -1   6  -1   10.40   15.60 
  -1   6   1   16.20   12.50 
  -1   6   1   46.40   28.20 
  -1   6   1    6.20    6.30 
  -6  -1   1   16.20   14.60 
  -6  -1   1   20.50   11.30 
   1  -6   1    6.60    3.00 
  -6  -1   1   14.50   13.10 
  -1   6   1   22.80   19.10 
  -6  -1   1    5.80   15.90 
  -6  -1   1    6.40    7.60 
   1  -6   1    7.70    5.70 
  -1   6   1   11.10    5.90 
   1  -6   1   15.10   10.10 
  -6   1  -1    1.50    6.50 
  -1  -6  -1   14.40   13.80 
   1   6  -1    5.20    5.90 
   1   6  -1   14.50   13.90 
  -1  -6  -1   16.30    9.50 
  -1  -6  -1   14.30    6.70 
  -6   1  -1    1.40    4.30 
  -6   1  -1   -5.50   11.80 
   1   6  -1    6.80    4.70 
  -1  -6  -1   23.90   95.99 
  -1  -6  -1    8.10    7.10 
   1   6  -1   -2.90   21.90 
   1   6  -1   88.59   41.10 
  -6   1   1   10.30    4.00 
   1   6   1   43.80   44.60 
   1   6   1   13.40    6.00 
  -6   1   1    3.50    6.20 
   1   6   1    3.70    4.20 
  -1  -6   1   26.90    9.20 
  -6   1   1    0.60    6.50 
   1   6   1   80.19   35.10 
   6  -1   1    9.50    3.30 
  -1  -6   1    6.00    9.40 
  -1  -6   1    9.50   28.00 
   1   6   1   23.70   12.60 
  -1  -6   1    6.00    4.80 
  -3  -6  -1  -11.70   62.49 
  -3  -6  -1   20.10   11.00 
  -6   3  -1   11.70   11.60 
   3   6  -1   28.60   42.40 
  -6   3  -1   11.50    5.90 
  -3  -6  -1    8.40   11.10 
  -3  -6  -1    9.40   14.00 
   3   6  -1    9.70    5.60 
  -3  -6  -1    4.60    9.00 
   3   6  -1  109.79   41.60 
   3   6  -1   32.50   19.60 
   3   6  -1    9.40    5.50 
   3   6   1   18.10    6.70 
   3   6   1   23.20   39.80 
  -3  -6   1   43.00   13.20 
  -3  -6   1   17.70   12.50 
  -6   3   1   15.50   10.60 
  -3  -6   1    7.10    9.50 
  -3  -6   1   15.20   21.70 
  -3  -6   1    9.00   49.60 
   3   6   1   24.50   12.90 
   3   6   1   17.60    7.20 
  -5  -6  -1   26.00   28.80 
   5   6  -1  117.79   81.99 
   5   6  -1   31.20   16.60 
   5   6  -1  125.39   38.40 
  -5  -6  -1    2.60   20.50 
  -6   5  -1   13.40   18.60 
  -5  -6  -1   32.80   16.20 
  -5  -6  -1   10.80   52.69 
  -6   5   1   12.20   15.80 
   5   6   1   85.09   28.70 
  -5  -6   1   17.60   17.60 
   5   6   1   51.49   18.20 
  -5  -6   1   26.90   13.80 
   5   6   1   48.30   10.00 
  -5  -6   1   12.60   13.80 
   5   6   1   61.29   12.70 
  -5  -6   1   12.50   32.60 
  -5  -6   1   -0.10   56.29 
   7   6  -1   41.40   56.89 
   7   6  -1   17.00   16.40 
  -6   7  -1   14.20   25.10 
   7   6  -1   19.70   16.20 
  -6   7  -1   19.80   24.90 
  -7  -6  -1   18.00   50.49 
  -7  -6  -1   36.70   24.40 
  -7  -6  -1   40.40   26.10 
  -6   7  -1    3.50   14.30 
  -7  -6  -1   19.80   33.30 
   7   6  -1    4.00    5.40 
  -6   7   1    4.40   31.60 
   7   6   1   51.69   52.09 
  -7  -6   1   -0.20   19.30 
  -7  -6   1   18.80   26.50 
  -7  -6   1  -15.80   42.60 
   7   6   1    3.80   16.60 
  -6   7   1    6.70   14.70 
  -6   7   1   11.00   12.90 
   7   6   1   33.00    8.90 
   7   6   1   33.90   15.20 
  -7  -4  -1  726.23   92.09 
   7   4  -1  901.91   80.09 
   7   4  -1  787.92   76.09 
  -7  -4  -1  862.11  138.39 
  -7  -4   1  797.32  104.59 
   7   4   1  962.40   77.59 
  -4   7   1  688.63   95.49 
  -7  -4   1  840.22   97.69 
  -7  -4   1  753.32  118.69 
   7   2  -1 1384.06  106.39 
  -7  -2  -1 1242.38  126.19 
   7   2  -1 1060.19  105.49 
   7   2  -1 1276.67  110.49 
   7   2  -1 1014.10  128.69 
  -7  -2   1  985.50  121.69 
  -7  -2   1 1290.47  131.69 
   7   2   1 1376.16  111.79 
  -2   7   1 1087.99  126.59 
   7   2   1 1162.28  105.49 
   0   7  -1   -2.30    7.30 
   0   7  -1   32.20   42.20 
   0  -7  -1   27.90   46.20 
   0   7  -1   -3.40   20.40 
  -7   0  -1   19.80   21.90 
   0  -7  -1   36.20   12.60 
  -7   0  -1   19.30   15.70 
   0  -7  -1   21.50   16.80 
  -7   0  -1   -1.30    8.60 
   0   7  -1   10.90   16.80 
   0  -7  -1   -1.50    6.30 
  -7   0  -1   -0.50    9.10 
  -7   0  -1    2.70    8.80 
   0   7   1   13.90   25.50 
   0  -7   1    9.00    4.90 
   0  -7   1   -4.40   34.20 
  -7   0   1    8.30   13.70 
  -7   0   1   17.00   13.20 
   0   7   1   15.30   12.30 
   0  -7   1    6.30    7.00 
  -7   0   1   10.90   10.40 
   0   7   1   41.90   37.50 
   0   7   1   -3.30    5.50 
  -7   0   1   -2.10   11.80 
  -7   0   1   12.20   10.10 
   2   7  -1  552.74   52.19 
  -7   2  -1  546.65   47.20 
  -2  -7  -1  537.75   65.89 
  -7   2  -1  493.65   56.09 
  -2  -7  -1  571.84   59.19 
   2   7  -1  430.86   50.79 
  -7   2  -1  496.55   51.09 
  -2  -7  -1  557.84   56.49 
  -2  -7  -1  613.54  175.28 
   2   7   1  543.35   52.49 
  -7   2   1  461.05   46.10 
  -2  -7   1  459.35   60.29 
  -2  -7   1  494.45   54.49 
  -7   2   1  511.15   59.29 
  -7   2   1  501.45   49.40 
   4   7  -1 1035.50  187.98 
   4   7  -1 1444.66  142.29 
   4   7   1 1333.17  134.69 
  -7   6  -1   11.20   20.90 
   6   7  -1  -16.30   58.69 
   6   7  -1    9.00   14.10 
  -7   6  -1   32.40   19.50 
  -6  -7  -1   12.00   17.70 
  -7   6  -1    4.20    5.10 
  -6  -7  -1   27.10   29.90 
   6   7  -1   20.50   23.60 
  -6  -7  -1   13.60   59.79 
  -7   6  -1    7.70   10.00 
  -7   6   1    8.10    6.80 
   6   7   1   31.90   17.20 
   6   7   1    7.90   52.89 
   6   7   1   24.20   22.30 
  -6  -7   1  -17.40   53.59 
  -6  -7   1    2.80   17.40 
  -6  -7   1    1.90   22.70 
  -7   6   1   -3.00   17.70 
  -7   6   1    4.80    5.20 
  -7   6   1   10.50   10.10 
  -8  -7  -1  785.92  113.39 
   8   7  -1 1122.39  172.98 
   8   7  -1 1127.09  100.59 
  -7   8  -1  988.40  124.19 
  -8  -7   1  873.31  127.29 
  -7   8   1  988.10  110.29 
   8   7   1  798.52   96.09 
  -8  -5  -1  952.30  117.19 
  -8  -5  -1 1146.49  125.89 
   8   5  -1 1066.89  102.29 
   5  -8   1  959.60  114.49 
  -8  -5   1 1191.48  139.99 
  -5   8   1 1242.58  133.89 
  -3   8  -1    4.30   12.40 
  -3   8  -1    7.80   37.30 
  -8  -3  -1  -13.70   51.59 
   8   3  -1   22.10   24.10 
  -8  -3  -1   11.50   25.70 
  -8  -3  -1   28.60   18.50 
  -8  -3  -1   13.00   25.60 
  -8  -3  -1    5.50   18.60 
   8   3  -1    9.40    3.60 
  -3   8  -1    7.40   15.60 
   8   3  -1    6.80    3.60 
   8   3  -1    8.50    6.30 
   3  -8  -1    0.40   32.70 
  -3   8  -1   34.30   28.20 
  -3   8   1  110.29   45.60 
  -8  -3   1   10.60   22.90 
   8   3   1    9.00    4.10 
  -8  -3   1   16.40   20.70 
   8   3   1    3.10   24.80 
  -8  -3   1  -13.40   40.70 
  -3   8   1   -7.20   18.00 
  -8  -3   1   13.90   25.70 
  -3   8   1   -4.10   14.50 
  -3   8   1    6.20   12.90 
   8   3   1    6.50    3.60 
  -8  -3   1   -2.50   17.70 
   8   3   1    5.00    6.50 
   3  -8   1   82.09   51.59 
  -3   8   1    3.50    9.80 
  -1   8  -1  337.17   62.09 
  -8  -1  -1  351.26   57.69 
   1  -8  -1  376.06   37.30 
  -8  -1  -1  401.46   53.49 
  -8  -1  -1  410.36   52.69 
   1  -8  -1  451.35   41.10 
  -1   8  -1  381.66   46.20 
   1  -8   1  392.26   40.60 
  -8  -1   1  497.75   67.19 
   1  -8   1  342.27   36.30 
  -8  -1   1  369.86   51.69 
  -1   8   1  295.67   41.30 
  -1   8   1  387.46   44.50 
   1   8  -1 1099.49  130.39 
  -1  -8  -1  879.61  207.08 
  -8   1   1  903.31   99.79 
   1   8   1 1159.38  115.29 
   1   8   1  933.71  148.99 
  -3  -8  -1  -65.69   71.49 
  -3  -8  -1    1.30    9.10 
  -8   3  -1   -5.70   12.90 
   3   8  -1   33.70   39.00 
  -3  -8  -1   15.50   13.40 
  -8   3  -1    3.20    8.90 
   3   8  -1   17.50   18.40 
   3   8  -1  -18.60   44.30 
   3   8   1   60.09   62.79 
  -8   3   1    6.50    9.10 
  -3  -8   1    7.10   11.60 
  -8   3   1   -4.10    6.70 
   3   8   1    7.90   12.40 
  -8   3   1    0.60   11.30 
  -3  -8   1  -30.70   87.09 
   3   8   1    1.70   28.20 
  -5  -8  -1  212.78   40.40 
  -8   5  -1  239.38   44.10 
  -5  -8  -1  432.36  136.49 
  -5  -8  -1  177.28   44.80 
  -8   5  -1  164.68   26.50 
  -8   5   1  245.58   22.60 
  -8   5   1  209.28   42.30 
  -5  -8   1  201.58   39.20 
  -5  -8   1  270.97   46.30 
  -5  -8   1  190.48   92.79 
  -7  -8  -1  504.05  175.68 
  -7  -8  -1  984.90  128.59 
  -8   7  -1  907.91   92.09 
   7   8  -1 1246.48  212.48 
   7   8  -1  874.11   98.39 
  -9  -6  -1   88.29   53.29 
  -9  -6  -1   99.09   40.60 
  -6   9  -1   47.00   25.90 
   9   6  -1   48.00   13.60 
   9   6  -1   33.20    8.40 
  -6   9  -1  125.29   41.40 
  -6   9  -1   17.80   11.60 
  -6   9  -1  119.69   52.69 
   6  -9  -1   20.50    9.30 
   9   6   1   51.79   14.00 
  -9  -6   1   35.00   49.60 
  -6   9   1   21.90   31.40 
  -6   9   1    3.50   10.40 
  -6   9   1   57.99   36.10 
  -6   9   1   -0.90   21.10 
   6  -9   1   25.40   13.10 
   9   6   1   24.30    8.20 
  -9  -4  -1   21.00   26.70 
  -4   9  -1   14.80   31.20 
  -4   9  -1    5.80   20.80 
   9   4  -1   25.40    8.40 
  -9  -4  -1    3.60   23.40 
  -9  -4  -1   11.60   30.40 
  -4   9  -1   -2.80   11.50 
  -9  -4  -1  -18.90   34.70 
  -4   9  -1   77.89   41.80 
   4  -9  -1  -26.80   30.20 
   9   4  -1   -2.40   25.60 
  -9  -4   1   -1.70   29.50 
   4  -9   1   20.00   36.20 
  -4   9   1   -2.70   14.60 
  -4   9   1   -8.40   30.50 
  -4   9   1   71.59   41.20 
   9   4   1   32.80   36.60 
  -9  -4   1   11.90   35.10 
  -9  -4   1   12.80   28.00 
  -4   9   1    3.70   19.20 
  -2   9  -1    5.20   16.40 
   2  -9  -1    6.50    3.40 
  -2   9  -1   47.60   33.10 
  -9  -2  -1   10.60   19.00 
   2  -9  -1    7.80    4.50 
   2  -9  -1   37.40   60.29 
  -9  -2  -1    5.90   23.40 
   9   2  -1   41.70   18.30 
   9   2  -1   18.50    6.80 
  -9  -2  -1   28.70   24.90 
  -9  -2   1   16.20   22.10 
  -2   9   1   62.69   29.40 
   2  -9   1   47.10   47.30 
   2  -9   1    8.80    4.90 
  -9  -2   1   -7.80   21.00 
  -2   9   1  -14.00   21.60 
   9   2   1   14.10   20.00 
   9   2   1   11.10    6.80 
   2  -9   1    6.20    3.10 
  -9  -2   1   39.90   30.80 
   9   0  -1    1.50    3.70 
   9   0  -1    1.70    3.00 
   0   9  -1   18.10   33.90 
   0   9  -1  -11.80   19.40 
  -9   0  -1    9.70   14.30 
   0   9  -1  -54.19   47.20 
  -9   0  -1   -2.50   14.40 
   0  -9  -1  -40.80   55.29 
  -9   0  -1  -16.90   15.50 
  -9   0  -1   34.70   29.90 
  -9   0  -1    8.20   17.20 
   0  -9  -1    1.10   12.00 
   0  -9   1    0.30    4.10 
   9   0   1   -2.10    6.00 
   0  -9   1    3.80    9.90 
   0  -9   1  -20.60   38.10 
  -9   0   1    4.20   15.90 
   0   9   1   -6.90   38.00 
  -9   0   1   14.40   25.00 
   0   9   1   -0.30   18.00 
   0   9   1  -11.90   31.70 
  -9   0   1   -7.90   16.50 
  -9   0   1    4.10   16.60 
   9   0   1    9.00    6.40 
  -9   0   1   25.40   20.80 
  -9   2  -1   16.30    8.80 
  -9   2  -1    0.60   11.90 
   2   9  -1   21.20   20.70 
   2   9  -1   10.60   46.50 
  -9   2  -1    1.90   16.20 
  -2  -9  -1   10.80  115.19 
   2   9  -1   45.50   47.20 
  -9   2  -1   -3.10   12.60 
  -2  -9   1  -61.59   80.59 
  -9   2   1    3.70   13.40 
   2   9   1   28.80   57.29 
  -9   2   1    3.40   14.50 
   2   9   1   57.99   49.50 
   2   9   1   20.10   16.20 
  -9   2   1   12.40   12.20 
  -2  -9   1    0.00   14.80 
  -9   2   1    1.70    9.40 
  -4  -9  -1   78.89  119.09 
  -4  -9  -1   -0.20   17.00 
  -9   4  -1    5.60   17.00 
   4   9  -1    0.20   69.69 
  -4  -9  -1    1.00   12.70 
   4   9  -1    7.90   18.90 
   4   9  -1   10.60   37.10 
  -9   4  -1   -2.60    9.70 
  -9   4   1    8.80   15.00 
  -4  -9   1   12.10   84.59 
   4   9   1   15.90   29.50 
   4   9   1    4.90   21.30 
  -9   4   1   -2.00   10.00 
   4   9   1  -21.40   60.49 
  -4  -9   1    1.70   14.80 
   6   9  -1   36.60   87.69 
   6   9  -1  108.19   55.59 
  -6  -9  -1   41.50  106.29 
  -6  -9  -1   11.20   21.40 
  -9   6  -1    7.70   11.20 
   6   9  -1   20.50   24.30 
  -6  -9  -1   -8.80   26.70 
  -9   6  -1   -6.30   10.80 
  -9   6  -1    8.90    8.70 
  -6  -9   1  -46.20   79.59 
   6   9   1   83.99   77.89 
  -6  -9   1   11.00   27.50 
  -9   6   1   11.10   22.20 
   6   9   1   25.50   16.00 
  -6  -9   1   14.80   20.80 
  -9   6   1   12.20    5.80 
  -9   6   1    6.10    7.80 
  10   5  -1  400.56   44.30 
  10   5  -1  507.05   45.60 
   5 -10  -1  609.94   69.89 
  10   5   1  441.66   44.60 
  10   5   1  515.95   46.20 
  -3  10  -1   29.40   42.10 
 -10  -3  -1   -8.40   32.60 
  -3  10  -1   60.79   52.99 
 -10  -3  -1   30.20   31.70 
   3 -10  -1   -0.30   47.80 
  -3  10  -1   -4.00   15.30 
 -10  -3  -1   50.79   29.70 
 -10  -3   1    4.60   32.90 
  -3  10   1   17.90   28.40 
   3 -10   1   17.40   47.80 
  -3  10   1   31.20   47.60 
 -10  -3   1   37.20   48.40 
  -3  10   1   11.30   22.50 
  10   1  -1  332.47   31.80 
 -10  -1  -1  393.26   64.39 
  10   1  -1  316.57   34.70 
   1 -10  -1  252.37   29.70 
 -10  -1  -1  481.35   80.09 
 -10  -1  -1  235.18   53.69 
  -1  10  -1  271.07   56.09 
   1 -10   1  336.57   42.60 
 -10  -1   1  278.97   55.99 
  -1  10   1  376.46   72.19 
   1 -10   1  237.58   29.10 
 -10  -1   1  438.66   83.69 
 -10   1  -1  384.86   52.49 
 -10   1  -1  306.77   50.49 
   1  10  -1  441.46   98.69 
 -10   1  -1  323.97   51.89 
  -1 -10  -1  328.17  101.79 
  -1 -10  -1  282.97   35.60 
  -1 -10   1  231.58   32.70 
   1  10   1  483.45  104.59 
 -10   1   1  309.57   52.09 
 -10   1   1  267.37   51.39 
  -1 -10   1  419.86  111.39 
 -10   3  -1   16.10   15.90 
   3  10  -1   30.70   47.40 
   3  10  -1   23.80   75.69 
 -10   3  -1   -4.40    8.30 
   3  10  -1   62.39   27.60 
  -3 -10  -1   37.20   94.99 
  -3 -10  -1    4.10   12.10 
 -10   3  -1   19.60   15.60 
   3  10   1    5.60   14.90 
 -10   3   1  -10.00   13.30 
 -10   3   1   21.40   17.10 
 -10   3   1    6.30   10.40 
  -3 -10   1   23.80  108.29 
 -10   3   1   13.00   14.40 
   3  10   1    8.50   37.80 
   3  10   1   14.10   74.59 
  -5 -10  -1  135.29   41.60 
  -5 -10  -1  109.29  130.99 
 -10   5  -1  184.68   37.60 
 -10   5  -1  125.49   26.70 
 -10   5   1  175.78   38.90 
  -5 -10   1  280.27  129.79 
 -11  -2  -1  416.86   86.29 
 -11  -2  -1  550.24   82.99 
   2 -11  -1  635.04  139.19 
 -11   0  -1   19.80   22.30 
   0 -11  -1    2.80    6.50 
   0  11  -1   23.00   63.29 
   0  11  -1    8.10   38.30 
 -11   0  -1    3.70   26.00 
 -11   0  -1    1.30    9.70 
   0 -11  -1  -15.80   79.99 
 -11   0   1   40.10   31.10 
 -11   0   1    4.70   23.50 
   0  11   1    2.70   56.49 
   0 -11   1  -15.80   62.19 
   0  11   1   27.80   48.80 
   0 -11   1    3.90    5.40 
 -11   0   1  -48.20   37.00 
 -11   2  -1  640.54   63.99 
  -2 -11  -1  321.77  129.99 
   2  11  -1  569.64   88.59 
   2  11   1  509.95   84.99 
   0   0  -2  227.38   19.60 
   0   0  -2  218.18   19.90 
   0   0  -2  182.38   19.20 
   0   0   2  192.08   19.10 
   0   0   2  232.38   19.60 
   0   0   2  214.98   21.40 
   0   0   2  210.18   19.80 
   1   1  -2  386.96   35.00 
   1   1  -2  343.67   40.40 
  -1  -1  -2  313.27   35.80 
   1   1  -2  406.46   34.00 
  -1   1  -2  426.96   35.10 
  -1  -1  -2  368.76   36.30 
  -1  -1  -2  423.46   36.80 
  -1   1  -2  381.66   33.50 
   1  -1  -2  370.16   37.20 
   1   1  -2  341.47   34.00 
   1  -1  -2  352.36   33.20 
  -1   1  -2  333.67   37.40 
   1  -1  -2  363.46   33.10 
  -1   1   2  379.46   33.40 
   1   1   2  335.67   34.30 
   1   1   2  343.07   34.50 
  -1   1   2  415.26   33.80 
  -1   1   2  401.26   39.10 
   1  -1   2  309.97   34.60 
  -1  -1   2  386.06   36.40 
   1  -1   2  380.36   35.50 
  -1  -1   2  379.86   34.30 
   1  -1   2  385.76   33.10 
  -1  -1   2  387.26   35.20 
   0   2  -2 3030.10  276.57 
   2   0  -2 2737.23  275.77 
   0   2  -2 3208.88  294.27 
   2   0  -2 3143.39  278.97 
  -2   0  -2 3083.89  289.47 
  -2   0  -2 2928.51  275.77 
  -2   0  -2 3240.08  278.87 
  -2   0  -2 3481.05  276.97 
   0  -2  -2 3322.87  278.57 
   0  -2   2 2753.92  286.17 
   0  -2   2 3287.27  281.77 
   0  -2   2 3339.67  276.27 
  -2   0   2 3286.87  276.67 
  -2   0   2 3377.06  276.47 
  -2   0   2 2822.52  282.07 
  -2   0   2 3345.97  275.97 
  -2  -2  -2  405.16   43.30 
  -2   2  -2  351.26   45.00 
   2   2  -2  373.26   39.40 
  -2   2  -2  371.16   44.60 
  -2   2  -2  422.66   37.60 
  -2  -2  -2  390.46   72.19 
  -2  -2  -2  442.86   43.70 
   2   2  -2  384.16   39.10 
  -2   2  -2  440.46   40.70 
   2  -2   2  496.55   42.20 
  -2   2   2  472.15   52.29 
  -2  -2   2  442.06   44.90 
   2  -2   2  381.06   39.00 
  -2  -2   2  379.46   56.99 
  -2  -2   2  407.06   41.00 
  -2  -2   2  430.16   40.20 
  -2  -2   2  418.36   43.50 
  -2   2   2  474.75   38.90 
  -2   2   2  431.36   37.70 
  -2   2   2  391.46   43.60 
   3   1  -2  248.78   22.50 
  -1   3  -2  243.08   23.10 
  -1   3  -2  244.78   34.90 
   3   1  -2  247.68   33.30 
   3   1  -2  248.78   22.60 
   1  -3  -2  205.98   23.20 
  -1   3  -2  198.98   31.70 
  -1   3  -2  304.67   44.50 
  -3  -1  -2  186.68   43.10 
   1  -3  -2  263.57   23.70 
   1  -3  -2  257.87   28.10 
   1  -3  -2  218.48   22.20 
  -3  -1  -2  186.78   26.10 
   1  -3   2  273.67   21.90 
  -3  -1   2  245.98   27.00 
  -3  -1   2  221.68   25.50 
   1  -3   2  218.58   26.20 
  -3  -1   2  268.87   25.70 
  -1   3   2  191.98   23.40 
  -3  -1   2  244.08   36.80 
   1  -3   2  222.68   36.20 
  -3  -1   2  236.28   24.80 
  -1   3   2  219.98   27.90 
  -1   3   2  207.58   24.10 
  -1  -3  -2  217.08   26.70 
  -1  -3  -2  178.78   26.90 
   1   3  -2  244.28   24.20 
  -3   1  -2  253.27   22.00 
  -3   1  -2  232.68   25.10 
  -1  -3  -2  281.57   75.29 
  -3   1  -2  211.78   25.10 
  -1  -3  -2  203.48   29.70 
   1   3  -2  238.28   24.60 
  -1  -3  -2  195.88   25.50 
   1   3  -2  265.17   59.89 
  -3   1  -2  270.97   25.80 
  -3   1   2  259.07   22.60 
  -3   1   2  270.47   25.00 
  -3   1   2  230.88   25.00 
  -1  -3   2  276.97   24.90 
  -1  -3   2  253.77   31.80 
  -3   1   2  249.78   23.00 
   1   3   2  257.17   25.40 
   1   3   2  223.08   26.40 
  -1  -3   2  186.98   28.00 
  -1  -3   2  328.37   71.29 
  -3   1   2  203.18   22.80 
  -3   3  -2 2252.87  190.78 
  -3   3  -2 2128.39  177.28 
  -3   3  -2 2070.09  173.78 
  -3   3  -2 1879.31  186.58 
   3   3  -2 1622.84  209.58 
  -3  -3  -2 2266.27  201.98 
  -3   3   2 1817.02  183.68 
  -3   3   2 1862.11  176.18 
  -3  -3   2 1893.11  178.98 
  -3   3   2 2059.69  174.18 
   3  -3   2 1885.41  175.58 
   4   2  -2  225.88   43.40 
   2  -4  -2  205.78   20.80 
   2  -4  -2  249.08   23.40 
  -4  -2  -2  164.58   49.90 
   2  -4  -2  249.88   28.00 
  -4  -2  -2  205.98   28.90 
  -2   4  -2  242.38   23.50 
  -2   4  -2  318.07   41.50 
  -2   4   2  203.88   24.10 
  -4  -2   2  184.38   30.60 
  -4  -2   2  240.88   29.00 
   2  -4   2  347.27   55.89 
  -4  -2   2  193.48   28.50 
  -2   4   2  270.97   26.40 
  -4  -2   2  225.28   45.80 
   2  -4   2  204.88   25.00 
  -4  -2   2  197.68   26.90 
   2  -4   2  211.98   21.30 
  -2   4   2  241.98   25.50 
   0   4  -2 1814.22  171.58 
   0  -4  -2 1801.62  173.18 
  -4   0  -2 1946.91  171.28 
  -4   0  -2 1609.24  182.58 
   0  -4  -2 1934.61  171.98 
   0  -4  -2 1869.11  179.98 
  -4   0  -2 1766.72  174.38 
  -4   0  -2 2060.59  171.48 
  -4   0  -2 1813.92  187.28 
   0   4  -2 2137.09  171.98 
   0  -4  -2 1695.83  172.38 
   0   4   2 1882.61  172.08 
  -4   0   2 2079.19  169.88 
   0  -4   2 2220.88  170.18 
   0   4   2 1885.61  176.08 
  -4   0   2 2101.19  182.18 
   0   4   2 1798.22  172.38 
   2   4  -2  432.46   96.69 
  -2  -4  -2  196.68   30.50 
  -4   2  -2  247.58   32.10 
   2   4  -2  224.28   26.30 
  -4   2  -2  254.37   27.00 
   2   4  -2  223.28   25.80 
  -2  -4  -2  197.28   35.00 
  -2  -4  -2  214.48   29.00 
  -2  -4  -2  306.27  103.69 
  -4   2   2  233.88   22.90 
  -2  -4   2  239.98   36.40 
  -4   2   2  279.47   25.10 
  -2  -4   2  261.57   30.40 
  -4   2   2  262.37   24.80 
  -2  -4   2  280.47   29.00 
  -4   2   2  235.98   31.20 
  -4   2   2  275.37   25.30 
  -4   4  -2  217.08   21.00 
  -4   4  -2  223.08   23.40 
   4   4  -2  386.36   79.19 
  -4   4  -2  301.77   42.20 
  -4  -4  -2  193.48   30.10 
  -4  -4  -2  123.29   49.30 
  -4  -4  -2  229.98   34.80 
   4   4  -2  210.78   22.30 
   4  -4  -2  236.38   22.60 
   4  -4   2  212.38   22.50 
  -4  -4   2  126.69   36.80 
  -4   4   2  203.28   32.70 
  -4   4   2  161.98   23.50 
  -4  -4   2  204.88   28.30 
  -4  -4   2  191.28   30.20 
  -4  -4   2  264.37   74.99 
  -4   4   2  220.98   22.30 
   5   3  -2  275.67   56.99 
  -3   5  -2  143.49   24.30 
  -5  -3  -2  126.39   47.00 
  -3   5  -2  164.68   19.90 
  -5  -3  -2  232.28   32.20 
  -5  -3  -2  223.88   34.40 
  -5  -3  -2  181.38   28.30 
  -5  -3   2  144.09   24.90 
  -5  -3   2  102.49   29.20 
  -3   5   2  168.28   22.30 
  -3   5   2  149.19   27.90 
  -3   5   2  157.38   21.10 
  -3   5   2  181.08   21.50 
  -5  -3   2  136.39   27.80 
  -5  -3   2  127.59   24.70 
  -5  -3   2  105.79   39.60 
   3  -5   2  178.28   20.40 
  -5  -1  -2  176.88   42.80 
  -5  -1  -2  198.38   29.30 
  -5  -1  -2  215.28   29.20 
   5   1  -2  234.88   33.20 
   1  -5  -2  234.28   27.10 
   1  -5  -2  238.78   24.20 
  -1   5  -2  193.98   25.40 
  -5  -1  -2  202.48   49.90 
  -1   5  -2  159.18   35.60 
   1  -5  -2  267.07   32.00 
  -1   5   2  276.27   33.70 
  -5  -1   2  223.38   29.60 
  -5  -1   2  237.78   30.40 
  -5  -1   2  229.48   39.70 
  -1   5   2  206.48   25.40 
   1  -5   2  337.17   86.99 
  -1   5   2  197.78   26.20 
   1  -5   2  254.67   22.30 
   1  -5   2  230.78   29.00 
  -5  -1   2  261.07   30.00 
  -1  -5  -2  203.18   27.50 
  -5   1  -2  210.58   33.80 
  -5   1  -2  189.68   24.60 
   1   5  -2  275.97   58.79 
  -1  -5  -2  197.58   78.59 
  -1  -5  -2  242.58   36.60 
   1   5  -2  217.98   23.50 
   1   5  -2  194.28   24.20 
  -1  -5  -2  221.58   29.90 
  -5   1  -2  174.08   23.50 
  -1  -5  -2  219.28   25.50 
  -1  -5   2  249.38   24.20 
  -5   1   2  246.98   20.90 
  -5   1   2  161.78   26.00 
   1   5   2  253.37   29.60 
  -5   1   2  165.98   23.90 
  -1  -5   2  159.28   27.20 
   3   5  -2  166.88   20.20 
  -3  -5  -2  145.59   25.20 
  -3  -5  -2  166.88   29.00 
  -5   3  -2  153.38   20.60 
   3   5  -2  181.58   20.60 
  -3  -5  -2  144.79   66.49 
  -5   3  -2  187.78   31.20 
  -3  -5   2  200.18   26.20 
  -5   3   2  152.18   26.10 
  -5   3   2  186.48   16.50 
  -3  -5   2  174.18   23.60 
  -3  -5   2  108.39   51.29 
  -5   3   2  157.98   18.60 
  -3  -5   2  180.38   39.60 
  -5   3   2  188.68   19.40 
  -5   5  -2   89.99   12.40 
  -5  -5  -2   52.19   20.30 
  -5   5  -2  127.09   35.30 
  -5  -5  -2   67.59   23.70 
  -5  -5  -2  245.68  111.69 
  -5  -5  -2   24.10   23.30 
   5   5  -2   99.69   12.60 
  -5  -5  -2  184.58   41.40 
   5  -5  -2   72.89    9.50 
  -5  -5   2   58.19   21.90 
   5  -5   2   96.19   11.70 
  -5  -5   2   65.39   34.40 
  -5   5   2   76.69   13.60 
  -5  -5   2   52.29   17.60 
  -5  -5   2   67.79   20.40 
  -5   5   2  111.09   28.10 
  -5  -5   2  109.29   43.90 
   6   4  -2 1900.91  200.28 
  -6  -4  -2 2472.85  223.38 
  -6  -4  -2 2149.69  214.28 
   4  -6  -2 2262.27  210.58 
   6   4  -2 1885.81  244.78 
   6   4   2 2445.16  204.08 
   6   4   2 2460.05  200.68 
  -6  -2  -2 1423.76  180.08 
   2  -6  -2 1676.33  150.88 
   0   6  -2  142.49   22.70 
  -6   0  -2  163.48   26.40 
   0  -6  -2  188.78   22.60 
  -6   0  -2  168.38   23.80 
   0  -6  -2  220.38   26.10 
   6   0  -2  199.68   23.50 
   0   6  -2  160.98   21.60 
   0  -6  -2  188.18   23.00 
  -6   0  -2  239.18   44.70 
   0   6  -2  222.18   53.79 
  -6   0  -2  132.39   31.30 
   0  -6  -2  117.19   56.59 
   6   0  -2  181.88   18.00 
  -6   0  -2  163.58   23.70 
   0  -6   2  185.48   19.70 
  -6   0   2  200.18   28.30 
  -6   0   2  134.29   28.30 
   0  -6   2  187.98   58.19 
   0   6   2  230.58   30.00 
   0   6   2  155.58   21.80 
   0  -6   2  188.98   29.70 
  -6   0   2  202.28   22.60 
  -6   2  -2 1203.18  101.09 
  -6   2  -2  986.70  110.49 
  -2  -6  -2 1316.47  124.99 
  -2  -6  -2 1083.59  114.09 
  -2  -6  -2 1144.89  110.79 
  -2  -6  -2 1034.80  187.88 
  -2  -6  -2 1030.90  114.39 
   2   6  -2 1064.39  106.29 
   2   6  -2 1024.40  105.69 
  -6   2  -2 1237.58  110.39 
  -6   2   2 1115.89  107.69 
  -6   2   2 1272.77  102.39 
  -2  -6   2 1182.88  181.48 
  -2  -6   2 1234.78  109.09 
  -4  -6  -2  773.82   92.89 
   4   6  -2  974.00   83.69 
  -6   4  -2  990.50   80.09 
  -4  -6  -2  730.53   98.69 
  -6   4  -2  777.42   84.69 
  -6   4  -2  992.30  101.09 
  -6   4   2  815.12   95.29 
  -4  -6   2  824.02  143.99 
  -4  -6   2  921.41   92.09 
  -6   4   2  933.01   80.09 
  -4  -6   2  964.10  107.79 
  -4  -6   2  901.41   94.59 
  -6  -6  -2   85.79   57.69 
  -6   6  -2  132.49   20.50 
  -6   6  -2  154.28   22.40 
  -6  -6  -2  204.28   37.40 
   6   6  -2  174.48   18.70 
  -6   6   2  189.38   37.90 
  -6   6   2  129.69   26.80 
  -6  -6   2  123.19   31.10 
  -6   6   2  157.08   21.90 
  -6  -6   2  126.79   39.60 
  -6  -6   2  171.78   71.59 
   7   5  -2  259.07   71.49 
   7   5  -2  163.98   19.60 
   7   5  -2  213.38   23.80 
   5  -7  -2  192.68   24.20 
  -5   7   2  162.18   49.99 
  -5   7   2  121.39   27.70 
  -7  -3  -2  214.98   40.90 
  -7  -3  -2  178.28   37.90 
   3  -7  -2  199.68   31.30 
   7   3  -2  293.17   28.10 
   7   3  -2  285.47   28.90 
   7   3  -2  258.47   25.10 
  -7  -3  -2  281.47   45.10 
   7   3   2  316.77   42.00 
  -7  -3   2  184.08   52.59 
  -3   7   2  175.18   40.80 
  -7  -1  -2  136.69   44.90 
   1  -7  -2   98.69   13.50 
  -7  -1  -2  110.79   23.50 
  -7  -1  -2   69.29   28.00 
   7   1  -2  137.99   21.10 
  -7  -1  -2  107.29   25.30 
  -1   7  -2   97.59   21.10 
  -7  -1  -2  113.89   23.50 
  -1   7  -2   88.99   17.00 
   1  -7  -2  108.79   15.30 
  -1   7  -2   61.09   24.70 
   1  -7  -2  166.68   29.50 
  -7  -1   2  130.59   30.10 
  -7  -1   2   74.89   24.30 
  -1   7   2  106.99   19.20 
   1  -7   2   99.39   11.90 
  -7  -1   2   63.19   23.70 
  -7  -1   2  115.39   24.50 
  -1   7   2   87.79   16.80 
  -7  -1   2   72.39   23.80 
   1  -7   2  128.69   16.30 
  -1  -7  -2  155.28   27.00 
  -7   1  -2   96.79   19.30 
  -7   1  -2  120.69   29.40 
  -1  -7  -2  144.99   37.00 
  -7   1  -2  100.79   23.30 
  -1  -7  -2   97.29   17.20 
   1   7  -2   80.89   15.60 
  -1  -7  -2  118.79   19.90 
   1   7  -2  210.58   72.39 
  -7   1  -2  118.19   17.30 
   1   7  -2  129.89   20.70 
  -7   1   2   64.79   19.80 
   1   7   2  120.69   17.20 
  -7   1   2  119.59   22.20 
  -1  -7   2  110.69   15.60 
  -7   1   2   88.79   14.10 
   7  -1   2  116.99   13.20 
  -1  -7   2  110.89   25.20 
  -1  -7   2   70.09   50.69 
   1   7   2  115.69   20.10 
  -3  -7  -2   80.89   96.09 
  -3  -7  -2  107.69   27.50 
  -7   3  -2   93.29   25.00 
   3   7  -2  102.49   16.60 
  -3  -7  -2   60.59   21.90 
  -7   3  -2  119.69   19.50 
  -3  -7  -2  110.89   22.90 
   3   7  -2  129.39   17.00 
   3   7  -2  295.47  118.99 
  -3  -7  -2  122.99   33.50 
  -3  -7   2   77.59   21.90 
  -3  -7   2  110.79   20.80 
  -3  -7   2  143.69   38.40 
  -7   3   2  110.69   18.40 
  -7   3   2  102.59   24.80 
  -3  -7   2   99.09   66.79 
  -7   3   2  128.09   13.80 
  -7   3   2   99.39   13.30 
   5   7  -2  340.57  113.29 
   5   7  -2  408.36   58.29 
   5   7   2  322.77   46.90 
   5   7   2  559.14  121.89 
   7   7  -2  152.18   31.60 
   7   7  -2  175.38   36.10 
  -7   7  -2  102.89   27.80 
  -7  -7  -2   75.99   46.30 
  -7   7  -2   96.89   40.00 
  -7  -7  -2  225.68   62.79 
   7   7  -2  197.78   91.09 
  -7   7   2   32.30   22.00 
  -7   7   2   52.89   27.40 
   7   7   2  180.28   68.29 
  -7  -7   2   18.10   28.60 
   7   7   2   80.79   21.30 
  -8  -6  -2  484.55  116.49 
  -8  -6   2  422.06  109.79 
   8   6   2  682.73   64.39 
  -8  -6   2  644.84  105.29 
  -6   8   2  728.73   91.79 
   6  -8   2  733.73   78.79 
   8   4  -2   40.70   11.10 
  -8  -4  -2  146.29   42.20 
   8   4  -2   39.90    8.00 
  -8  -4  -2   77.49   28.90 
   4  -8  -2  105.19   35.00 
   8   4  -2   36.90   33.90 
  -4   8  -2  189.08   54.89 
  -4   8  -2   17.90   11.70 
   8   4  -2   50.79   10.30 
  -4   8  -2   48.00   20.70 
   8   4   2   81.29   14.90 
   8   4   2   62.79    9.90 
   8   4   2  125.69   47.90 
  -4   8   2   76.19   40.30 
  -4   8   2   14.80   15.50 
  -8  -4   2   44.10   28.50 
  -4   8   2   37.30   22.50 
  -4   8   2   12.40   13.30 
  -8  -4   2   11.50   19.70 
  -4   8   2   41.80   17.50 
  -8  -4   2   20.90   27.20 
  -8  -2  -2  103.79   30.60 
  -8  -2  -2  122.09   31.20 
   8   2  -2  149.88   18.60 
   2  -8  -2  225.98   74.79 
   2  -8   2  236.48   72.09 
  -8  -2   2   76.29   38.20 
  -8  -2   2  210.08   41.30 
  -2   8   2   92.99   42.10 
  -2   8   2  296.07   67.89 
   8   2   2  163.48   20.10 
  -2   8   2  187.58   48.70 
   0   8  -2  697.83  100.09 
  -8   0  -2  721.23   81.19 
  -8   0  -2  859.51   89.09 
   0  -8  -2  774.72   70.59 
   8   0  -2  733.73   67.39 
   0   8  -2  642.14   73.19 
   8   0  -2  651.13   64.79 
  -8   0  -2  804.32   79.29 
   0   8   2  634.14   71.19 
   0  -8   2  646.64   66.89 
   0   8   2  858.31   75.39 
  -8   0   2  703.23   79.99 
  -8   0   2  789.92   78.69 
   0  -8   2  646.04   69.69 
   2   8  -2  131.19   63.79 
   2   8  -2  161.38   43.20 
  -2  -8  -2   90.69  117.09 
  -2  -8   2   36.90   54.69 
   2   8   2  318.57   99.99 
   4   8  -2   62.19   26.70 
  -4  -8  -2   -2.90   87.39 
  -8   4  -2   24.00   18.90 
   4   8  -2  106.79   46.40 
   4   8  -2   37.40   59.19 
  -4  -8  -2   64.89   22.40 
  -4  -8  -2   14.70   19.70 
  -8   4  -2   15.10    9.10 
  -8   4   2   29.30   10.80 
  -8   4   2   39.70    6.80 
  -4  -8   2   -3.40   62.39 
  -8   4   2   20.80   14.90 
   4   8   2   35.80   15.70 
  -4  -8   2    8.90   12.70 
   4   8   2   76.29   76.39 
   6   8  -2 1207.68  204.58 
  -6  -8  -2 1358.76  144.59 
   6   8  -2 1204.18  138.39 
   6   8   2 1034.40  117.09 
   5  -9  -2  150.48   43.10 
   9   5  -2  126.79   17.00 
  -5   9  -2  131.39   35.30 
  -9  -5   2  206.48   54.69 
  -5   9   2  196.88   51.49 
   9   5   2  157.38   18.50 
   9   3  -2 1284.17  146.79 
   9   3  -2 1307.17  129.39 
  -9  -3  -2 1394.86  149.99 
   3  -9   2 1737.53  180.98 
   1  -9  -2   97.19   13.90 
   1  -9  -2  110.39   17.40 
  -9  -1  -2  150.78   35.70 
  -1   9  -2   61.09   29.70 
  -9  -1  -2  186.88   34.30 
  -9  -1  -2  100.09   28.60 
  -9  -1   2  158.58   37.70 
  -9  -1   2   62.79   26.50 
   1  -9   2   86.99   12.30 
  -9  -1   2  143.39   41.90 
   1  -9   2  111.29   18.10 
  -1   9   2  142.09   48.00 
   1   9  -2  388.16   72.79 
  -1  -9  -2  311.47  133.29 
   1   9   2  416.26   57.89 
   1   9   2  349.96  102.69 
   3   9  -2  837.22  166.18 
   3   9   2 1289.37  122.49 
   5   9  -2  261.77  178.18 
  -5  -9  -2    1.90  110.99 
   5   9  -2  231.08   43.40 
   5   9   2  180.28   32.50 
   5   9   2  228.28  130.49 
 -10  -4  -2   87.19   60.69 
   4 -10  -2   73.89   41.10 
  -4  10  -2  127.69   53.69 
 -10  -4  -2  139.29   47.00 
  -4  10  -2  258.77   79.99 
  -4  10   2   86.59   37.50 
   4 -10   2   64.79   43.60 
 -10  -4   2  136.19   50.39 
  -4  10   2  120.19   54.09 
  -2  10  -2  187.78   68.59 
  -2  10  -2  192.78   70.19 
   2 -10  -2   81.49   75.79 
 -10  -2  -2   38.60   26.00 
 -10  -2  -2   50.19   28.10 
 -10  -2  -2   57.49   34.80 
 -10  -2  -2   11.40   16.40 
 -10  -2   2   34.60   29.80 
  -2  10   2   77.19   49.10 
 -10  -2   2   53.49   34.90 
   2 -10   2   26.40   39.80 
  -2  10   2   -0.90   27.80 
  -2  10   2   38.80   27.90 
 -10  -2   2   53.89   56.99 
   0  10  -2  398.26   77.09 
   0 -10  -2  431.56   44.30 
 -10   0   2  517.05   67.99 
   0 -10   2  354.16   41.30 
   0 -10   2  580.64  112.29 
 -10   0   2  489.45   86.29 
  -2 -10  -2   57.19  114.19 
 -10   2  -2   32.80   21.30 
  -2 -10  -2    9.20   11.70 
 -10   2  -2    5.00    9.80 
 -10   2  -2    5.60   14.00 
   2  10  -2  129.19   72.39 
   2  10  -2  -30.00   48.20 
 -10   2  -2   -5.10   18.40 
   2  10  -2    8.40   24.10 
 -10   2   2   41.50   19.00 
  -2 -10   2   40.70   60.39 
   2  10   2   25.60   18.10 
   2  10   2   90.49   49.20 
   2  10   2    8.70   60.39 
 -10   2   2   12.50   21.70 
 -10   2   2    4.80   10.80 
  -4 -10  -2  -70.89  135.09 
  -4 -10  -2   13.80   14.90 
 -10   4  -2    6.10    5.90 
 -10   4  -2   -1.60   18.80 
   4  10  -2  160.08   60.79 
 -10   4  -2    5.60   13.60 
  -4 -10  -2   24.90   21.90 
   4  10  -2   48.50   79.79 
   4  10  -2   61.19   28.60 
 -10   4  -2   12.80    8.20 
 -10   4   2   12.40   15.90 
 -10   4   2   21.50   15.60 
   4  10   2   24.60   86.79 
 -10   4   2   17.70    6.20 
  -4 -10   2   -0.60   85.09 
  -4 -10   2   21.50   16.20 
   4  10   2   40.70   18.60 
   1 -11  -2   36.50    8.50 
   1 -11  -2   34.10   12.20 
 -11  -1  -2   64.99   39.00 
  -1  11  -2   23.40   28.50 
 -11  -1  -2    7.40   15.40 
  11   1  -2   26.50    6.90 
 -11  -1  -2   25.40   27.00 
  -1  11   2   28.50   41.20 
   1 -11   2   33.90   12.80 
 -11  -1   2    5.50   75.39 
 -11  -1   2   75.69   32.00 
   1 -11   2   22.40    6.30 
  -1  11   2  146.69   67.99 
  -1 -11  -2   20.30   12.30 
   1  11  -2   -8.40   45.60 
 -11   1  -2   59.19   34.50 
   1  11  -2  199.08  145.59 
  -1 -11  -2  137.89  134.59 
 -11   1  -2   30.50   10.60 
 -11   1  -2   23.40   14.70 
 -11   1  -2   71.59   20.60 
 -11   1  -2   40.50   25.60 
  -1 -11   2   36.90   65.99 
 -11   1   2  -18.80   17.50 
 -11   1   2   47.40   31.70 
  -1 -11   2   27.40    9.70 
 -11   1   2   49.90   31.80 
   1  11   2   46.50   52.49 
   0  -1  -3    7.50    3.20 
  -1   0  -3    6.00    3.70 
   0  -1  -3    3.90    1.70 
   0   1  -3    4.60    2.70 
   0  -1  -3    9.20    2.90 
  -1   0  -3    5.20    2.20 
   0   1  -3    2.70    1.90 
   0   1  -3    5.70    3.00 
   1   0  -3    1.70    1.30 
  -1   0  -3    9.10    2.70 
   1   0   3    5.40    1.60 
   0   1   3    0.90    4.50 
   0   1   3    2.30    2.00 
   0   1   3    1.60    1.20 
   1   0   3    0.40    2.00 
  -1   0   3    3.70    1.90 
   0  -1   3    1.60    1.40 
   0   1   3    8.90    3.80 
  -1   2  -3 4193.28  342.77 
  -2  -1  -3 3761.92  339.27 
   1  -2  -3 3775.82  340.87 
  -1   2  -3 3832.92  347.57 
   1  -2  -3 4133.59  337.77 
   2   1  -3 3453.65  336.17 
  -2  -1  -3 3179.18  338.57 
  -1   2  -3 3922.91  335.87 
   2   1  -3 3620.04  335.77 
  -2  -1  -3 3778.62  359.66 
  -2  -1  -3 3575.14  339.77 
  -2  -1   3 3841.42  337.07 
   2   1   3 4116.19  336.67 
  -2  -1   3 4274.57  340.77 
  -1   2   3 4344.37  337.77 
  -1   2   3 3464.85  336.27 
  -2  -1   3 3841.42  337.57 
  -1   2   3 3917.41  353.86 
  -1  -2  -3 4309.77  340.67 
  -2   1  -3 4288.37  336.37 
  -1  -2  -3 3894.01  371.96 
   1   2  -3 4340.67  340.57 
   1   2  -3 3957.60  356.46 
   1   2  -3 3664.93  336.07 
  -1  -2  -3 4437.96  340.27 
  -2   1  -3 4174.48  336.07 
   2  -1   3 3443.26  334.37 
   1   2   3 3787.32  336.87 
  -1  -2   3 3413.16  345.67 
  -1  -2   3 3236.08  339.37 
  -2   1   3 3431.36  337.07 
  -2   1   3 3807.82  334.87 
   2  -1   3 3632.74  334.57 
  -1  -2   3 3939.01  339.27 
   1   2   3 3488.65  336.87 
  -2   1   3 3713.13  340.07 
  -3  -2  -3  110.29   42.40 
   3   2  -3  187.18   18.30 
   3   2  -3  179.38   16.60 
   2  -3  -3  130.59   14.90 
   2  -3  -3  149.39   14.00 
  -2   3  -3  134.49   27.20 
  -2   3  -3  151.98   15.30 
  -3  -2  -3  163.58   21.40 
   3   2  -3  112.59   31.10 
  -2   3  -3  142.99   20.40 
   2  -3  -3  200.68   26.10 
  -3  -2  -3  124.69   20.00 
   3   2  -3  130.59   16.10 
  -3  -2  -3   99.39   22.20 
  -2   3  -3  152.38   29.50 
   2  -3   3  158.38   13.90 
  -2   3   3  156.08   16.40 
   2  -3   3  178.68   22.80 
  -3  -2   3  170.48   17.90 
  -3  -2   3  143.29   20.30 
  -3  -2   3  157.98   19.10 
  -3  -2   3  126.59   29.80 
  -2   3   3  196.58   37.90 
  -2   3   3  124.19   20.80 
  -3  -2   3  163.58   23.30 
  -2   3   3  131.29   16.30 
   2  -3   3  136.39   16.80 
  -3   0  -3    3.70    3.20 
   0  -3  -3   -7.10   17.60 
   0  -3  -3    0.60    4.50 
   0  -3  -3    3.50    3.30 
   0   3  -3    0.30    1.70 
  -3   0  -3   -2.60    5.70 
   3   0  -3    3.00    1.70 
   0   3  -3    3.00    7.00 
   0   3  -3   -2.70    8.00 
   3   0  -3    2.10    1.10 
   0  -3  -3    4.80    3.10 
   3   0  -3   -0.50    1.20 
   0   3  -3   -3.30    7.30 
   0  -3  -3    4.50    3.10 
   3   0  -3    4.20    3.50 
  -3   0  -3   -0.10    4.50 
  -3   0  -3    7.40    3.20 
  -3   0   3    0.40    1.80 
   3   0   3    7.60    5.20 
   0  -3   3    0.40    4.90 
   0  -3   3    1.10    3.80 
  -3   0   3    3.10    2.30 
  -3   0   3    2.80    4.00 
   3   0   3    2.00    1.90 
   0   3   3    3.50    2.90 
   0  -3   3    0.40    1.20 
   0  -3   3    8.70    7.50 
   0   3   3   -6.30   12.90 
  -3   0   3    1.30    1.60 
   3   0   3    1.90    7.10 
   0   3   3    4.10    2.60 
   3  -2  -3  154.28   16.60 
  -3   2  -3  160.98   18.30 
  -2  -3  -3  142.79   21.00 
  -3   2  -3  164.48   16.20 
  -3   2  -3  168.98   18.70 
   2   3  -3  116.09   38.50 
  -2  -3  -3  195.88   82.69 
  -2  -3  -3  148.29   20.80 
  -2  -3  -3  128.09   25.00 
  -3   2  -3  117.49   22.70 
   2   3  -3  140.89   16.90 
  -3   2   3  155.88   15.20 
  -3   2   3  147.39   22.30 
   3  -2   3  166.38   16.40 
  -3   2   3  169.68   20.20 
   3  -2   3  144.29   15.50 
   3  -2   3  173.68   17.50 
   2   3   3  165.08   19.50 
  -2  -3   3  170.38   18.80 
  -3   2   3  170.48   15.90 
  -3   2   3  121.69   23.00 
  -3   4  -3   48.20    7.10 
   4   3  -3   22.80   19.10 
  -4  -3  -3   17.00   14.00 
  -4  -3  -3   49.50   13.60 
  -4  -3  -3   49.80   15.40 
  -3   4  -3   50.99   14.80 
  -3   4  -3   67.79   25.10 
  -3   4  -3   82.79   26.80 
   4   3  -3   48.40    7.50 
  -4  -3  -3   30.10   31.30 
  -4  -3  -3   14.10   12.00 
   3  -4   3   38.70    7.80 
  -4  -3   3   34.30   15.20 
  -4  -3   3   29.40   24.20 
  -4  -3   3   42.70   11.20 
  -4  -3   3   26.30   10.90 
  -4  -3   3   34.70   11.30 
  -3   4   3   82.99   30.20 
  -3   4   3   65.89   14.50 
   3  -4   3   87.79   20.70 
  -3   4   3   43.00    8.90 
  -3   4   3   40.50    9.00 
  -3   4   3   41.10   14.80 
   1  -4  -3 1413.16  138.79 
   1  -4  -3 1413.16  136.99 
  -4  -1  -3 1247.48  160.98 
   1  -4  -3 1633.34  138.79 
   4   1  -3 1741.83  136.59 
   1  -4  -3 1811.72  146.79 
  -1   4  -3 1288.17  150.58 
  -1   4  -3 1569.44  138.59 
  -4  -1  -3 1305.87  141.19 
   4   1  -3 1646.64  147.89 
   4   1  -3 1789.12  136.69 
  -4  -1   3 1765.42  145.29 
   1  -4   3 1754.92  136.29 
  -4  -1   3 1659.73  140.59 
  -4  -1   3 1456.35  139.49 
  -1   4   3 1478.55  139.49 
  -4  -1   3 1609.74  141.79 
   1  -4   3 1442.96  145.59 
  -1   4   3 1318.77  139.39 
  -1   4   3 1325.87  143.59 
  -4   1  -3 1844.02  147.59 
  -1  -4  -3 1677.83  213.28 
  -4   1  -3 1769.72  141.89 
  -1  -4  -3 1337.07  148.49 
  -4   1  -3 1467.15  146.09 
   1   4  -3 1601.94  143.59 
  -1  -4  -3 1591.14  155.78 
  -4   1  -3 1485.95  144.79 
   1   4  -3 1429.46  143.59 
  -4   1   3 1390.76  154.18 
  -4   1   3 1741.43  142.39 
   1   4   3 1644.44  144.59 
  -1  -4   3 1782.02  153.58 
  -4   1   3 1776.82  142.69 
   1   4   3 1568.74  146.79 
  -1  -4   3 1323.87  168.08 
  -4   3  -3   57.19   19.70 
  -3  -4  -3   32.30   16.80 
   3   4  -3   50.09    8.10 
   4  -3  -3   41.70    6.30 
   3   4  -3   48.80    8.40 
  -4   3  -3   53.89    9.30 
  -3  -4  -3   29.90   11.70 
  -3  -4  -3   51.99   13.80 
  -3  -4  -3   44.20   41.00 
  -4   3  -3   33.50   13.30 
   3   4  -3   11.50   20.60 
  -4   3  -3   44.20    6.50 
  -3  -4   3   31.00   14.40 
  -3  -4   3   48.50    9.60 
  -4   3   3   40.20    5.90 
  -3  -4   3   46.80   28.80 
   4  -3   3   41.50    6.40 
  -4   3   3   64.39   16.50 
  -4   3   3   58.39   13.10 
  -3  -4   3   30.60   11.80 
   4  -3   3   44.40    6.00 
  -4   3   3   70.69   21.60 
  -3  -4   3   51.69   12.70 
   5   4  -3 1016.00  138.79 
  -5  -4  -3 1053.99  148.89 
  -4   5  -3 1284.87  120.89 
  -5  -4  -3 1178.28  109.09 
  -4   5  -3 1058.59   95.09 
   5   4  -3 1103.99   95.69 
  -4   5  -3 1075.49   98.59 
   4  -5   3 1049.30   94.69 
  -4   5   3  953.00   97.49 
  -5  -4   3 1050.49  103.29 
  -5  -4   3  876.51  110.39 
  -4   5   3  966.90  108.49 
  -5  -4   3  956.30  105.49 
  -4   5   3  952.00   99.79 
  -5  -4   3  938.61  134.09 
  -4   5   3 1019.20   96.89 
  -5  -2  -3 1831.72  189.28 
   2  -5  -3 2069.89  179.58 
   5   2  -3 1967.70  199.78 
  -5  -2  -3 2065.69  191.98 
  -2   5  -3 1795.32  191.78 
   2  -5  -3 1905.61  178.28 
  -2   5  -3 2078.19  182.68 
  -2   5  -3 2615.34  250.17 
  -5  -2  -3 1930.61  189.08 
   2  -5   3 2355.26  178.28 
  -5  -2   3 2340.77  211.98 
   2  -5   3 2083.59  179.68 
  -2   5   3 1859.91  183.18 
  -5  -2   3 1922.41  188.88 
  -5  -2   3 1982.00  188.78 
  -5  -2   3 1927.81  186.48 
  -5  -2   3 2138.79  190.98 
  -2   5   3 1949.01  191.48 
   2  -5   3 2065.79  184.48 
   0  -5  -3   32.70   10.20 
   0  -5  -3  -12.90   30.70 
   0   5  -3   18.60   26.70 
   0  -5   3   10.00   10.70 
   5   0   3   14.50   16.90 
   0   5   3   46.40   37.80 
   0  -5   3    6.40   16.10 
  -2  -5  -3 2066.09  331.57 
   2   5  -3 2407.36  257.67 
  -2  -5  -3 2025.80  197.38 
  -5   2  -3 1972.50  191.88 
   2   5  -3 1940.41  192.68 
  -5   2  -3 2234.98  189.18 
  -5   2  -3 2364.66  196.08 
  -2  -5  -3 1872.01  198.88 
  -5   2  -3 2086.39  199.18 
   2   5  -3 1982.50  192.18 
  -2  -5  -3 2147.09  209.98 
  -2  -5   3 2313.37  205.88 
  -5   2   3 2221.88  191.38 
  -2  -5   3 1749.72  230.68 
  -2  -5   3 2231.28  194.18 
  -5   2   3 2436.86  193.28 
  -5   2   3 2154.38  191.78 
  -5   2   3 2274.67  189.88 
  -4  -5  -3 1391.46  207.28 
   4   5  -3 1158.98  155.88 
   4   5  -3 1043.70   94.69 
  -5   4  -3  980.70   96.69 
   4   5  -3 1213.08   96.49 
  -5   4  -3 1083.89   92.79 
  -4  -5   3 1052.49  101.19 
  -5   4   3  855.91  104.69 
  -5   4   3 1069.29   93.09 
  -4  -5   3  826.62  137.39 
  -5   4   3  956.70   98.29 
  -5   4   3 1030.10   96.89 
  -4  -5   3  849.81  108.79 
   5  -4   3 1015.80   91.39 
  -4  -5   3 1043.00  103.59 
   6   5  -3  147.89   59.59 
  -6  -5  -3  346.87   51.59 
  -6  -5  -3  205.48   47.60 
   6   5  -3  202.18   25.30 
  -6  -5  -3  276.07   40.20 
   6   5   3  265.87   29.30 
  -5   6   3  150.68   38.40 
  -6  -5   3  135.69   43.70 
  -3   6  -3    5.90   10.20 
   3  -6  -3   19.20    9.80 
  -3   6  -3   36.00   26.70 
   6   3  -3   18.70    4.50 
  -6  -3  -3   16.80   12.20 
   6   3  -3   27.00    7.20 
   6   3  -3    5.90   18.00 
   6   3  -3   27.10    7.40 
  -6  -3  -3   13.00   25.60 
   3  -6  -3   14.50   19.70 
  -6  -3  -3    4.10    9.90 
  -3   6  -3   44.00   33.30 
  -6  -3  -3   42.20   18.40 
   3  -6  -3   11.40    1.90 
  -6  -3  -3   -3.60   14.20 
  -3   6  -3    9.70    6.80 
   3  -6  -3   11.00    1.70 
  -6  -3   3   11.80   22.20 
   3  -6   3   12.80    6.60 
  -6  -3   3    8.10   10.60 
  -3   6   3    4.90    6.80 
  -6  -3   3    6.10   10.50 
   3  -6   3   31.00   26.00 
  -3   6   3    4.60    9.30 
  -6  -3   3    7.70   19.60 
  -3   6   3   11.90    7.00 
  -6  -3   3   14.50   13.40 
  -3   6   3    3.50   10.70 
  -6  -1  -3  100.09   23.40 
   1  -6  -3  150.38   17.30 
  -1   6  -3   89.69   28.70 
  -6  -1  -3  123.09   23.30 
   6   1  -3  196.28   24.90 
  -1   6  -3  150.38   19.80 
  -1   6   3  166.48   26.10 
  -6  -1   3  153.78   25.50 
  -6  -1   3  132.89   30.50 
   1  -6   3  150.98   23.90 
  -6  -1   3  183.18   24.50 
  -6  -1   3  128.69   23.70 
  -1   6   3  151.98   20.50 
   1  -6   3  112.99   16.60 
  -1   6   3  156.68   20.20 
  -6  -1   3  151.88   32.30 
  -1  -6  -3  167.78   22.10 
  -6   1  -3  176.08   19.30 
  -1  -6  -3   76.59   67.89 
  -1  -6  -3  233.08   40.70 
  -1  -6  -3  157.88   24.50 
  -6   1  -3   96.29   26.40 
   1   6  -3  127.69   19.80 
  -6   1  -3  127.69   20.50 
  -6   1  -3  144.99   23.10 
  -1  -6  -3  192.68   29.40 
   1   6  -3  140.09   19.40 
  -6   1   3  120.49   19.80 
  -6   1   3  152.68   17.10 
  -1  -6   3  125.39   24.60 
  -1  -6   3  218.28   34.90 
  -6   1   3  138.39   22.10 
  -1  -6   3  157.68   18.60 
   6  -1   3  180.38   17.70 
   1   6   3  194.48   21.50 
  -3  -6  -3   25.40   20.60 
   3   6  -3   87.09   38.00 
  -3  -6  -3   21.70   51.49 
  -6   3  -3   12.00   12.90 
  -6   3  -3   12.30    5.40 
  -6   3  -3   18.40    7.40 
   3   6  -3   28.20   21.10 
   3   6  -3    9.10    5.40 
  -3  -6  -3   -0.20   10.40 
  -3  -6  -3    5.10    9.10 
  -6   3  -3   13.40    4.70 
   3   6  -3    6.70   43.00 
  -6   3   3   16.60    4.40 
  -6   3   3    8.20    9.30 
  -6   3   3    5.90    6.20 
   3   6   3   30.30   12.10 
  -6   3   3    9.10    5.40 
   3   6   3  125.59   98.39 
  -3  -6   3    7.40    6.50 
  -3  -6   3   30.70   48.20 
  -6   5  -3  116.49   14.70 
  -5  -6  -3   65.69   29.90 
   5   6  -3  150.88   17.40 
  -6   5  -3  209.58   46.50 
   5   6  -3  117.69   14.50 
  -5  -6  -3   31.10   60.79 
   5   6  -3  347.97  116.09 
  -5  -6  -3   93.09   27.40 
  -6   5  -3   94.39   16.50 
  -6   5   3   72.59   18.80 
  -6   5   3  126.39   21.50 
  -5  -6   3   83.99   22.30 
  -5  -6   3  108.19   28.20 
  -6   5   3  129.19   16.40 
  -5  -6   3  130.49   25.30 
  -5  -6   3   36.30   40.40 
  -6   5   3  125.39   27.20 
  -6   5   3   92.39   13.40 
   7   6  -3   66.19   22.30 
   7   6  -3   39.90   55.49 
  -7  -6  -3   93.09   37.60 
  -6   7  -3   13.70   12.90 
  -7  -6  -3   61.59   33.30 
  -6   7  -3   26.70   22.80 
   6  -7  -3   19.10    5.20 
  -7  -6  -3   38.20   20.30 
  -7  -6  -3  -22.90   39.80 
   7   6   3   54.49   16.20 
   6  -7   3   24.40    7.20 
  -7  -6   3   -2.60   43.00 
  -6   7   3   18.40   15.60 
  -6   7   3   15.20    9.20 
  -7  -6   3   21.40   22.70 
   6  -7   3   19.70    5.60 
   7   6   3   31.50   10.60 
  -6   7   3   34.50   11.90 
  -6   7   3   27.60   21.90 
  -7  -6   3  -14.90   28.70 
  -6   7   3    9.20   15.50 
  -7  -4  -3  832.42   99.19 
   4  -7  -3  813.62   91.89 
   7   4  -3  877.71   81.19 
   7   4   3  844.02   84.89 
   7   4   3  853.91   79.39 
   2  -7  -3  924.11  109.49 
   7   2  -3 1243.28  102.79 
   7   2  -3 1161.78   99.49 
   7   2  -3 1080.59   99.09 
  -2   7   3 1255.47  140.59 
   2  -7   3 1015.70  133.49 
   0  -7  -3   15.20   17.10 
  -7   0  -3   12.80   10.90 
   0  -7  -3   -0.80    3.70 
   0   7  -3    4.80    7.50 
   0   7  -3    3.20    4.90 
   0  -7  -3    2.90    5.90 
   0  -7  -3   10.70    9.30 
   0   7  -3  -16.80   18.40 
   0   7  -3   10.60   35.70 
  -7   0  -3    2.90    9.70 
  -7   0  -3    9.10   12.70 
   0  -7  -3   -3.00   50.09 
   7   0  -3    5.90    4.00 
   0   7  -3   28.60   25.90 
   7   0  -3    2.60    2.00 
  -7   0  -3    0.40    7.70 
  -7   0   3    3.00   10.70 
   0  -7   3    2.20    4.60 
  -7   0   3    7.60   10.30 
   0   7   3   20.30   31.90 
   0  -7   3    3.40    3.20 
   0   7   3    6.20    8.30 
   0   7   3   -0.20    5.40 
   0   7   3   14.30   11.70 
   0  -7   3   -2.40    8.30 
  -7   0   3    7.50   12.50 
  -7   0   3    5.10   12.20 
   0  -7   3    2.60   24.50 
   7   0   3   28.50   23.00 
   0   7   3   38.40   26.50 
  -7   0   3    2.40   11.30 
   7   0   3   -0.20    2.90 
  -2  -7  -3  492.85   53.19 
  -7   2  -3  549.35   55.09 
   2   7  -3  454.35   48.70 
   2   7  -3  619.04  101.39 
  -7   2  -3  412.76   53.59 
  -2  -7  -3  545.45   58.29 
  -2  -7  -3  293.37  101.29 
   2   7  -3  420.76   47.20 
  -7   2   3  483.35   44.20 
  -7   2   3  434.16   50.69 
  -2  -7   3  518.85   49.60 
  -2  -7   3  430.46   98.39 
  -7   2   3  392.76   46.00 
   4   7  -3  780.32  161.28 
  -4  -7  -3  374.96  162.68 
   4   7   3  705.73   74.49 
   6   7  -3   53.49   65.79 
  -7   6  -3    7.80    8.60 
   6   7  -3  116.39   34.10 
  -6  -7  -3   19.40   19.00 
  -7   6  -3   55.89   33.30 
  -6  -7  -3   13.20   58.39 
  -6  -7  -3   72.59   35.40 
   6   7  -3   60.09   24.90 
  -7   6   3    6.80   18.30 
  -6  -7   3   12.60   16.20 
  -7   6   3   32.00   10.70 
  -6  -7   3   22.60   57.39 
  -7   6   3   26.80   15.80 
  -6  -7   3    6.30   18.70 
   6   7   3   57.09   51.29 
   8   7  -3  670.73  143.19 
  -8  -7  -3  765.12   94.29 
   8   7  -3  696.83   74.29 
   8   7   3  576.84   69.99 
   8   5  -3 2095.99  195.68 
  -8  -5  -3 2386.56  219.58 
   8   5  -3 1698.43  235.28 
   8   5   3 2336.67  199.98 
   8   3  -3   57.39    8.00 
   8   3  -3   49.60   11.10 
  -3   8  -3  133.19   54.39 
  -8  -3  -3  106.39   31.30 
  -8  -3  -3   39.00   21.30 
  -8  -3  -3   32.90   19.50 
   8   3  -3   56.79    9.20 
  -8  -3  -3   59.29   25.30 
   8   3  -3   46.50   23.80 
  -8  -3   3   25.70   22.60 
  -8  -3   3   21.40   32.90 
  -3   8   3   23.50   13.70 
  -3   8   3   33.50   28.20 
   3  -8   3   70.69   37.50 
  -8  -3   3   34.90   24.50 
  -3   8   3   51.09   22.70 
  -8  -3   3    2.60   25.60 
  -3   8   3   26.60   24.00 
  -8  -3   3   34.30   21.10 
  -8  -1  -3  904.61   98.69 
   8   1  -3  910.61   87.49 
  -1   8  -3 1092.59   93.99 
   1  -8  -3  944.81   84.69 
   1  -8  -3  902.01   83.89 
  -8  -1  -3  960.40   93.79 
   1  -8   3  799.32   83.79 
   1  -8   3  758.52   80.89 
  -8  -1   3  894.51   97.39 
  -8   1  -3  889.91   86.49 
  -8   1  -3  884.51   94.99 
   1   8  -3  748.23  117.79 
  -1  -8  -3  934.81   89.79 
  -1  -8  -3  976.50  105.49 
  -8   1  -3  973.20   91.39 
  -8   1   3  947.81   95.39 
  -1  -8   3  908.41  138.29 
  -1  -8   3  767.42   83.29 
  -8   3  -3   28.80   11.60 
  -3  -8  -3   30.00  103.79 
   3   8  -3   67.79   29.00 
  -8   3  -3   14.80   26.60 
  -3  -8  -3   19.90   12.80 
  -8   3  -3   28.20    6.70 
   3   8  -3   89.49   55.99 
  -8   3  -3   23.50    9.70 
  -3  -8  -3   13.30   17.80 
   3   8   3   40.10   16.50 
  -8   3   3   12.50   11.30 
  -8   3   3   25.80    6.40 
  -3  -8   3   21.50   51.19 
  -3  -8   3   14.40   10.70 
  -8   3   3   24.80    7.50 
  -8   3   3   19.70   12.40 
   3   8   3   70.99   55.09 
   5   8  -3 1111.49  190.98 
  -8   5  -3 1134.49  129.29 
  -5  -8  -3 1520.15  282.37 
   7   8  -3  546.15  138.59 
  -7  -8  -3  311.77  126.09 
  -7  -8  -3  403.46   67.99 
   7   8  -3  628.84   88.69 
   7   8   3  475.55   56.29 
  -6   9  -3   24.90   29.90 
  -6   9  -3    2.90   26.70 
   6  -9  -3   15.50    8.70 
  -9  -6  -3   79.99   36.30 
   9   6  -3   28.60   11.90 
  -9  -6  -3   90.79   48.20 
  -6   9  -3  193.98   92.49 
  -6   9  -3   15.10   12.70 
  -6   9   3   52.39   34.20 
  -9  -6   3   18.00   31.20 
  -9  -6   3   73.59   42.10 
  -6   9   3   49.90   40.00 
   6  -9   3   32.60   19.90 
   9   6   3   53.89   14.20 
   9   6   3   22.00    9.70 
   9   4  -3  110.69   15.20 
  -9  -4  -3  195.58   45.20 
   9   4  -3   86.79   12.00 
   9   4  -3   68.39   31.70 
   9   4  -3   82.39   16.50 
   4  -9  -3  193.88   47.50 
  -9  -4  -3   48.40   42.80 
  -4   9  -3  120.79   46.50 
  -9  -4   3  143.09   42.30 
  -9  -4   3   49.10   36.70 
   9   4   3  121.49   13.10 
   4  -9   3   90.99   42.50 
  -4   9   3  124.19   40.30 
  -4   9   3   48.30   24.20 
  -4   9   3  195.88   53.89 
  -9  -2  -3  208.38   47.00 
  -9  -2  -3  116.39   29.40 
   9   2  -3  162.48   28.00 
  -9  -2   3  165.58   47.40 
  -2   9   3  231.58   59.89 
   2  -9   3  258.97   67.09 
  -2   9   3  275.57   46.90 
   0  -9  -3    6.20    6.80 
   0  -9  -3   -5.80   11.50 
  -9   0  -3   -2.60   11.30 
   0  -9  -3   -7.90   64.99 
   0   9  -3  -11.30   23.10 
  -9   0  -3  -10.50   15.30 
  -9   0  -3    1.50    8.20 
  -9   0  -3  -10.60    9.00 
  -9   0  -3    9.20   26.00 
   0   9  -3   -3.60   32.00 
  -9   0  -3   -8.80   14.40 
   0   9  -3   32.10   55.29 
   0   9   3   -8.20   39.80 
   0  -9   3    2.00   35.00 
   0  -9   3    1.90    4.00 
   9   0   3    3.50    4.40 
  -9   0   3   12.70   15.20 
   0   9   3   -5.60   32.80 
   9   0   3   12.10   13.40 
  -9   0   3    6.60   19.90 
  -9   0   3    5.90   19.90 
   0   9   3   23.60   15.40 
  -9   0   3    1.40   15.10 
  -9   0   3   -2.40   17.40 
   0  -9   3   -3.50    7.10 
   2   9  -3  139.39   60.09 
  -9   2  -3  127.09   28.70 
  -9   2  -3  135.39   27.60 
  -9   2  -3  105.69   18.10 
  -2  -9  -3  136.19   38.80 
  -2  -9  -3  280.77  141.89 
  -2  -9  -3  137.29   24.30 
  -9   2  -3   79.49   16.60 
  -2  -9   3  162.58   71.29 
  -2  -9   3   98.19   17.40 
  -9   2   3   80.59   16.80 
   4   9  -3  149.99   44.30 
   4   9  -3  128.29   77.89 
  -4  -9  -3   36.50  225.68 
   4   9   3  133.89   72.99 
  -4  -9   3   85.19  106.09 
  -6  -9  -3   21.20   36.60 
  -9   6  -3   -2.00    8.60 
   6   9  -3   83.39   37.60 
   6   9  -3    8.20   87.39 
   6   9  -3   67.89   25.40 
  -9   6  -3    0.20    8.10 
  -6  -9  -3   32.80   22.20 
  -9   6  -3    4.60    8.60 
  -9   6  -3   18.00   27.70 
  -9   6   3   18.40    9.90 
  -9   6   3   -0.50    8.00 
  -9   6   3   10.80   10.20 
  -9   6   3    7.90   23.30 
   6   9   3   98.29  107.29 
  -6  -9   3   42.00  115.59 
  -9   6   3   12.50   31.70 
   6   9   3   30.80   14.10 
   6   9   3   79.09   26.30 
  -6  -9   3   11.80   22.00 
  10   5  -3  249.68   27.10 
   5 -10  -3  274.77   41.20 
 -10  -5   3  338.67   72.89 
  10   5   3  283.17   27.50 
 -10  -5   3  362.76   74.79 
  10   5   3  227.48   25.80 
 -10  -3  -3    6.90   28.60 
   3 -10  -3   41.80   52.89 
 -10  -3  -3   23.30   35.50 
  -3  10  -3    5.40   15.10 
  10   3  -3    7.60    6.70 
 -10  -3  -3  -14.20   26.60 
  -3  10  -3   23.10   56.19 
  -3  10  -3   15.70   47.20 
 -10  -3   3   12.30   28.40 
  -3  10   3    6.40   26.30 
   3 -10   3    1.30   36.90 
  -3  10   3   17.50   24.50 
  -3  10   3    4.60   42.40 
 -10  -3   3   11.70   32.70 
   1 -10  -3  115.89   16.90 
 -10  -1  -3  166.78   41.10 
 -10  -1  -3  147.69   27.60 
  10   1  -3  152.28   15.20 
   1 -10  -3  141.69   22.40 
 -10  -1   3   69.29   29.90 
 -10  -1   3  153.08   44.00 
   1 -10   3  102.99   14.40 
  -1 -10  -3  150.88   23.90 
 -10   1  -3  182.88   37.30 
 -10   1  -3  158.38   24.70 
 -10   1  -3  132.89   28.80 
 -10   1  -3  120.59   22.00 
 -10   1  -3  212.48   40.20 
   1  10  -3  123.09   49.10 
 -10   1   3  103.69   29.10 
  -1 -10   3  119.99   18.60 
  -1 -10   3  122.39   57.99 
   3  10  -3   11.80   25.10 
 -10   3  -3    4.70   11.50 
   3  10  -3  -24.70   97.49 
  -3 -10  -3    4.70  116.29 
 -10   3  -3    5.20   16.50 
 -10   3  -3    3.30   13.70 
  -3 -10  -3    6.30   15.80 
 -10   3  -3    0.20    8.20 
 -10   3  -3   -9.70   17.10 
   3  10  -3   14.30   49.99 
  -3 -10  -3   10.10   13.50 
  -3 -10   3   13.00    9.60 
  -3 -10   3   33.40   71.59 
 -10   3   3   -4.40    9.40 
   3  10   3   15.10   76.99 
   3  10   3   19.90   35.00 
 -10   3   3   -5.80   12.50 
   3  10   3   10.60   14.90 
 -10   3   3    2.20   18.70 
 -10   3   3    2.30    8.30 
   5  10  -3  296.67  171.88 
 -10   5  -3  215.48   47.90 
   5  10  -3  338.27   56.09 
  -5 -10  -3  135.19  162.68 
  -5 -10   3   66.29   94.79 
   5  10   3  255.87   40.30 
   2 -11  -3  260.37   27.10 
   2 -11  -3  288.27   27.90 
  -2  11   3  368.96   73.59 
   2 -11   3  259.47   28.20 
   0  11  -3   -9.20   67.59 
 -11   0  -3   53.89   34.40 
 -11   0  -3   10.50   15.60 
   0 -11  -3   11.50    8.20 
 -11   0  -3    0.00   24.90 
 -11   0  -3   -7.70   10.80 
   0  11  -3    9.70   32.60 
 -11   0  -3   11.90   16.30 
   0 -11  -3  -46.90   88.29 
   0 -11   3  -36.10   50.19 
 -11   0   3   10.40   35.00 
   0  11   3    0.50   20.90 
   0  11   3  -25.30   45.20 
   0  11   3  -31.30   54.59 
 -11   0   3    3.40    9.70 
 -11   0   3   11.40   32.00 
 -11   0   3    6.90   19.60 
   0 -11   3    0.40    4.90 
   2  11  -3  204.98   76.29 
 -11   2  -3  265.17   47.90 
  -2 -11  -3  341.67   41.20 
 -11   2  -3  256.27   32.40 
 -11   2  -3  306.77   47.80 
 -11   2  -3  386.56   81.99 
   2  11   3  473.25  108.89 
 -11   2   3  197.28   42.30 
  -2 -11   3  221.18   31.80 
  -2 -11   3  245.28   87.59 
   0   0  -4 6055.39  547.25 
   0   0  -4 6151.38  551.44 
   0   0   4 6616.84  547.45 
   0   0   4 6162.28  550.34 
  -1  -1  -4  313.77   41.80 
   1   1  -4  348.87   32.10 
  -1   1  -4  348.37   32.20 
   1  -1  -4  357.16   32.70 
   1  -1  -4  334.77   35.60 
   1  -1  -4  307.77   30.50 
   1   1  -4  323.87   36.60 
   1   1  -4  322.27   31.00 
  -1   1  -4  383.16   33.00 
  -1  -1  -4  317.47   33.30 
  -1  -1  -4  357.46   33.90 
  -1   1  -4  319.47   31.10 
  -1  -1  -4  299.87   32.70 
  -1   1  -4  366.36   32.80 
  -1   1   4  327.47   33.70 
  -1  -1   4  324.77   31.90 
  -1  -1   4  347.87   34.10 
   1  -1   4  332.87   30.40 
   1   1   4  341.87   31.70 
   1  -1   4  358.36   33.70 
  -1   1   4  322.67   30.80 
  -1  -1   4  280.17   34.90 
  -1   1   4  302.57   31.40 
  -1  -1   4  354.16   31.10 
   1  -1   4  332.57   31.10 
  -1   1   4  334.17   37.20 
   1   1   4  311.47   31.40 
   0  -2  -4  769.52   82.19 
  -2   0  -4  681.03   72.39 
   0  -2  -4  810.32   66.79 
  -2   0  -4  713.93   67.09 
   0   2  -4  680.23   64.09 
   0  -2  -4  728.73   69.89 
  -2   0  -4  642.94   66.19 
  -2   0  -4  708.93   65.59 
   2   0  -4  644.84   63.39 
   0  -2  -4  632.74   64.69 
   0   2  -4  788.22   67.99 
   0   2  -4  788.22   71.59 
   2   0  -4  765.82   64.49 
   0  -2  -4  752.92   67.59 
   0   2  -4  699.13   72.69 
   0  -2   4  746.73   68.69 
  -2   0   4  707.43   65.09 
   0  -2   4  748.43   63.79 
   0  -2   4  662.03   69.79 
   0   2   4  666.03   66.89 
   2   0   4  644.64   63.69 
   2   0   4  663.03   62.29 
   0  -2   4  723.23   66.09 
   2   0   4  770.42   64.19 
  -2   0   4  652.83   67.99 
   0   2   4  658.83   64.89 
  -2   0   4  748.43   64.09 
  -2   2  -4 2903.51  239.28 
  -2  -2  -4 2371.16  243.38 
   2   2  -4 2673.73  239.28 
   2  -2  -4 2871.21  243.68 
   2  -2  -4 2572.44  237.58 
   2   2  -4 2568.24  239.58 
   2  -2  -4 2811.72  237.98 
   2   2  -4 2847.92  241.68 
  -2  -2  -4 2743.43  244.38 
  -2   2  -4 3026.20  242.48 
  -2   2  -4 2307.17  247.38 
   2   2   4 2674.53  239.78 
  -2  -2   4 2538.05  250.67 
  -2   2   4 2761.52  252.57 
  -2  -2   4 2752.52  242.48 
   2   2   4 2834.92  239.98 
  -2   2   4 2654.93  238.78 
  -2   2   4 2499.55  244.98 
   2  -2   4 3011.10  240.88 
  -2   2   4 2761.12  244.78 
  -2  -2   4 2897.91  240.68 
  -2  -2   4 2660.83  244.08 
   2  -2   4 2786.82  237.68 
   2  -2   4 2538.95  239.48 
   1  -3  -4 1189.48  110.09 
   1  -3  -4 1034.40   98.19 
   3   1  -4 1067.09   98.79 
  -3  -1  -4  938.81  101.29 
   3   1  -4 1015.20  106.49 
  -3  -1  -4 1078.09  102.59 
  -1   3  -4 1253.27  110.19 
   3   1  -4 1198.78   98.19 
  -3  -1  -4  989.80  103.39 
   1  -3  -4  971.50   99.29 
  -3  -1  -4  961.00  119.79 
  -1   3  -4 1195.08  109.99 
   3   1  -4 1193.98   98.99 
   1  -3  -4 1170.48  100.69 
  -1   3  -4 1108.29   99.09 
  -3  -1   4 1281.77  108.89 
   1  -3   4 1261.57   97.89 
  -1   3   4 1057.69  100.09 
  -3  -1   4 1103.49  107.99 
  -3  -1   4 1090.29  100.49 
  -1   3   4  993.70  104.09 
  -3  -1   4 1288.97  101.09 
   1  -3   4  912.51  102.29 
  -1  -3  -4 1000.70  111.89 
   1   3  -4 1352.86  113.29 
  -1  -3  -4 1007.60  110.39 
  -3   1  -4 1161.98  105.59 
  -1  -3  -4 1416.06  169.98 
  -3   1  -4 1275.27  107.49 
  -1  -3  -4 1132.59  107.59 
  -3   1  -4 1115.69  109.69 
  -1  -3  -4 1147.29  108.19 
   3  -1  -4 1176.08  101.89 
  -3   1  -4 1152.68  103.89 
   3  -1   4 1209.08  101.59 
  -3   1   4 1119.19  108.89 
  -3   1   4 1143.69  105.09 
  -1  -3   4 1254.87  104.19 
   1   3   4 1073.39  104.59 
  -1  -3   4 1041.30  116.99 
  -3   1   4 1118.69  102.79 
  -3   1   4 1170.08  106.99 
  -1  -3   4 1216.38  112.19 
   1   3   4 1083.59  105.49 
   3  -3  -4  201.18   21.50 
   3  -3  -4  235.98   26.50 
  -3   3  -4  254.87   24.00 
  -3   3  -4  246.18   42.90 
  -3  -3  -4  185.18   28.70 
   3   3  -4  225.88   24.50 
   3  -3  -4  265.67   21.40 
   3   3  -4  222.58   25.00 
  -3  -3  -4  276.67   31.90 
  -3   3  -4  266.87   31.60 
  -3  -3  -4  168.88   60.99 
  -3   3   4  260.07   24.00 
  -3  -3   4  230.98   30.60 
  -3   3   4  214.18   24.40 
  -3   3   4  226.38   31.30 
  -3  -3   4  263.07   31.20 
  -3  -3   4  267.57   27.90 
  -3  -3   4  314.07   54.99 
  -3   3   4  210.38   40.40 
   4   2  -4 1969.10  153.68 
   4   2  -4 1615.74  152.68 
  -2   4  -4 1784.92  162.88 
  -2   4  -4 1758.32  153.28 
   2  -4  -4 1858.51  160.58 
  -2   4  -4 1738.73  172.98 
   4   2  -4 1438.06  167.28 
  -4  -2  -4 1499.55  159.28 
   2  -4  -4 1575.44  150.58 
  -4  -2   4 1802.92  157.68 
  -2   4   4 1585.04  154.58 
   2  -4   4 1817.62  150.98 
  -4  -2   4 1717.53  160.18 
  -2   4   4 1487.25  160.68 
  -4  -2   4 1921.31  155.48 
  -2   4   4 1604.14  154.58 
  -4  -2   4 1759.82  158.58 
   2  -4   4 1641.34  155.08 
  -4  -2   4 1975.80  176.88 
  -4   0  -4  602.94   75.29 
   0  -4  -4  618.04   67.59 
   0   4  -4  888.61   95.39 
   0  -4  -4  774.52   77.19 
  -4   0  -4  746.43   68.09 
   0   4  -4  684.73   66.59 
  -4   0  -4  638.24   70.39 
   4   0  -4  805.92   69.49 
   0  -4  -4  628.74   67.39 
   4   0  -4  685.43   63.89 
   0   4  -4  579.24   81.99 
   0  -4  -4  659.33   68.39 
   4   0  -4  776.12   63.19 
  -4   0   4  703.73   66.19 
  -4   0   4  771.62   73.09 
   0   4   4  658.83   69.69 
  -4   0   4  828.82   67.59 
   0  -4   4  785.92   65.19 
   0   4   4  688.23   67.69 
  -4   0   4  703.83   64.09 
   0  -4   4  789.32   77.59 
   0  -4   4  742.43   83.69 
  -2  -4  -4 1626.94  167.08 
   2   4  -4 1661.33  150.88 
  -2  -4  -4 1439.96  155.08 
  -4   2  -4 1715.43  149.99 
  -4   2  -4 1914.91  154.28 
   2   4  -4 1492.75  150.98 
  -2  -4   4 1442.56  176.48 
   2   4   4 1925.41  151.58 
  -2  -4   4 1385.76  156.68 
  -4   2   4 1802.62  148.19 
   2   4   4 1826.22  156.38 
  -2  -4   4 1851.11  152.38 
  -4   2   4 1745.03  148.79 
  -4   2   4 1823.62  152.58 
  -4   2   4 1416.26  155.88 
  -4   2   4 1555.14  152.18 
  -4   2   4 1711.33  148.19 
  -4  -4  -4  899.41   91.19 
  -4  -4  -4  785.22   89.29 
  -4   4  -4  930.31   80.59 
   4   4  -4  972.30   84.69 
   4   4  -4  838.42   81.49 
  -4   4  -4  725.33   90.39 
   4  -4  -4  865.81   81.59 
  -4   4   4  911.91   81.39 
  -4   4   4  827.72   92.59 
  -4  -4   4  933.71   88.19 
  -4  -4   4  874.71  116.49 
  -4  -4   4 1018.30   86.89 
  -4   4   4 1059.59  104.29 
   4  -4   4  854.71   79.99 
  -4   4   4  731.43   81.69 
  -5  -3  -4  767.42   88.29 
   3  -5  -4  912.11   76.59 
   5   3  -4  736.03  103.39 
   3  -5  -4  901.11   76.19 
  -3   5  -4  952.60  105.99 
  -5  -3  -4  692.13  120.59 
  -3   5  -4  910.61   81.09 
  -5  -3  -4  834.12   89.59 
   5   3  -4 1008.50   79.59 
  -5  -3   4  893.31   88.89 
  -3   5   4  782.42   84.69 
  -5  -3   4  818.92   88.59 
  -5  -3   4 1043.80  114.99 
  -5  -3   4  792.82   90.49 
  -3   5   4  908.81   93.69 
   3  -5   4  906.31   81.49 
  -3   5   4  736.03   81.89 
   5   1  -4   27.50   10.80 
  -5  -1  -4   15.80    8.20 
   1  -5  -4   40.00    9.50 
  -1   5  -4    4.60   21.80 
  -1   5  -4    4.10   10.80 
  -5  -1  -4    3.50    9.90 
   1  -5  -4   25.80    6.90 
  -5  -1  -4    9.30    6.60 
   5   1  -4   30.00    5.30 
  -5  -1  -4   18.40   13.60 
   5   1  -4   19.00    3.60 
   1  -5  -4   25.30   12.60 
   5   1  -4   22.10    4.10 
  -5  -1  -4   79.39   28.80 
   1  -5   4    9.10    6.90 
  -1   5   4   40.10   12.50 
  -5  -1   4   19.00    6.90 
  -5  -1   4   14.50    6.80 
   5   1   4   30.30    4.60 
   1  -5   4   19.80    3.80 
  -1   5   4   46.30   33.40 
  -1   5   4   15.30    6.60 
  -1   5   4    7.80    4.80 
  -1   5   4   13.10    7.90 
  -5  -1   4   12.30   10.70 
  -5  -1   4   21.80   14.60 
  -5  -1   4    4.40    6.40 
  -5   1  -4    5.70    5.50 
  -5   1  -4   11.30    7.30 
   1   5  -4   18.20    5.70 
   1   5  -4   25.90   21.50 
  -5   1  -4   24.60    5.40 
  -1  -5  -4   16.50    7.40 
  -1  -5  -4   -0.40    8.10 
   1   5  -4   32.10    8.50 
  -1  -5  -4   10.60    7.00 
  -1  -5  -4   12.90   13.40 
  -5   1  -4   19.20    5.80 
  -5   1  -4   11.60    9.70 
   1   5  -4   43.60   26.10 
  -1  -5  -4   -7.70   44.10 
  -5   1  -4   11.80    8.40 
   1   5   4   19.70    6.40 
  -5   1   4   24.30    9.60 
   1   5   4   15.40    7.10 
   5  -1   4   13.50    4.40 
  -1  -5   4   26.20   24.90 
  -1  -5   4    8.40    7.40 
  -5   1   4   12.10    7.50 
  -1  -5   4   -0.90    8.30 
  -5   1   4   16.30    5.50 
   1   5   4   97.59   67.59 
   1   5   4   21.00    7.30 
   1   5   4   26.80   10.30 
   3   5  -4  900.91  140.99 
   3   5  -4  844.92   80.39 
  -3  -5  -4  808.12  182.48 
  -3  -5  -4  764.82   87.99 
  -5   3  -4  913.41   83.19 
  -5   3  -4  960.10   80.69 
  -3  -5  -4  781.02   87.09 
   3   5  -4  804.12   80.59 
  -3  -5  -4  834.12  101.49 
  -3  -5   4  781.52   90.69 
  -5   3   4  973.00   78.09 
  -3  -5   4  687.13  112.69 
  -5   3   4  940.51   79.49 
  -5   3   4  852.11   89.59 
  -5   3   4  796.32   82.49 
  -5   3   4  725.23   89.29 
  -5   3   4  857.91   77.59 
  -3  -5   4  973.90   84.69 
  -5   5  -4   17.10   16.50 
   5   5  -4   34.50    8.40 
  -5  -5  -4   15.10   22.50 
  -5   5  -4   12.40    6.60 
  -5  -5  -4   41.40   19.70 
   5  -5  -4   25.90    6.40 
  -5  -5  -4   60.49   18.50 
  -5  -5  -4   36.90   23.50 
  -5   5  -4   28.50    7.70 
   5   5  -4   -2.90   36.20 
  -5  -5  -4   22.40   42.00 
   5   5   4  122.09   47.80 
  -5  -5   4   30.20   13.90 
  -5  -5   4    4.60   42.60 
  -5   5   4   28.20   19.10 
  -5   5   4   24.50    8.50 
   5  -5   4   19.20    5.40 
  -5  -5   4    6.40   18.20 
  -5  -5   4   22.90   11.80 
  -5   5   4   32.90   17.70 
  -5   5   4   21.00    9.70 
  -5  -5   4   17.10   13.60 
   5  -5   4   25.40    4.90 
  -5   5   4   26.10   16.40 
   6   4  -4  240.18   23.90 
  -6  -4  -4  153.58   42.70 
  -4   6  -4  112.49   38.40 
  -6  -4  -4  260.37   37.80 
   4  -6  -4  187.78   27.10 
  -6  -4  -4  161.18   34.20 
  -6  -4  -4  119.69   52.29 
  -6  -4   4  124.69   37.60 
  -4   6   4  219.28   42.50 
   4  -6   4  293.27   43.60 
  -2   6  -4   82.19   24.60 
  -6  -2  -4   60.69   23.00 
  -6  -2  -4   59.09   33.20 
  -2   6  -4  219.48   55.09 
   6   2  -4  120.69   25.20 
  -2   6  -4  112.69   17.10 
   2  -6  -4  102.99   11.80 
  -6  -2  -4  121.29   23.20 
  -6  -2  -4   99.09   22.90 
   2  -6  -4  123.89   13.80 
  -2   6   4  107.29   17.70 
  -6  -2   4  116.39   24.00 
  -2   6   4  100.69   22.10 
  -6  -2   4  100.49   23.20 
  -6  -2   4   97.89   23.50 
   2  -6   4  117.79   11.50 
  -2   6   4  114.49   17.50 
   2  -6   4  109.39   13.10 
  -6  -2   4  114.99   33.80 
  -6  -2   4  117.69   20.40 
   0  -6  -4 2964.00  261.77 
  -6   0  -4 2678.83  265.07 
  -6   0  -4 3067.89  260.87 
   0  -6  -4 3077.59  260.27 
   6   0  -4 3129.99  258.47 
   6   0  -4 2987.70  253.17 
   0   6  -4 2818.72  258.67 
   0   6  -4 2715.63  259.27 
  -6   0   4 2511.65  259.77 
  -6   0   4 3140.39  270.77 
   0  -6   4 3004.20  255.37 
   0   6   4 2736.73  263.47 
   0   6   4 2626.44  258.77 
  -6   0   4 2568.54  258.97 
   0  -6   4 3384.56  296.47 
   2   6  -4   92.49   16.50 
  -2  -6  -4  114.59   23.00 
  -2  -6  -4  171.88   44.40 
  -2  -6  -4  101.19   90.29 
  -6   2  -4  137.39   20.70 
  -6   2  -4  104.19   19.40 
  -2  -6  -4   94.09   26.90 
   2   6  -4   86.99   43.40 
  -6   2  -4  101.49   23.20 
  -6   2  -4  127.29   14.70 
   2   6  -4  113.29   16.40 
  -2  -6  -4  131.59   21.70 
   6  -2   4  122.69   13.10 
  -2  -6   4  123.59   17.00 
   2   6   4  135.49   20.30 
  -6   2   4  107.89   14.90 
  -2  -6   4  124.19   49.40 
  -6   2   4   88.69   16.50 
  -6   2   4  130.39   15.90 
  -2  -6   4  172.08   28.90 
  -6   2   4  131.69   19.00 
  -4  -6  -4  229.08   40.70 
  -6   4  -4  235.78   50.99 
  -4  -6  -4  158.88   95.09 
   4   6   4  324.77   32.90 
   4   6   4  250.27   31.60 
   4   6   4  269.87   34.80 
  -6  -6  -4 4165.88  389.36 
   6   6   4 4212.38  374.76 
  -7  -5  -4  -12.30   40.20 
  -5   7  -4   -3.20   11.00 
   7   5  -4   11.00    9.10 
   7   5  -4    4.60    5.90 
  -7  -5  -4    1.70   14.70 
   5  -7  -4   -0.30    5.20 
  -7  -5  -4   27.30   32.40 
  -5   7  -4    5.70    9.00 
  -7  -5  -4   21.90   20.20 
   7   5  -4    1.90    3.80 
  -5   7  -4   31.40   24.70 
   7   5  -4   -5.80   34.00 
  -5   7  -4   28.70   41.80 
  -5   7   4    3.90   11.20 
  -7  -5   4   16.30   39.30 
   5  -7   4   -0.20    4.80 
  -5   7   4    9.80    8.50 
  -5   7   4  -12.80   13.20 
   7   5   4    5.80   37.40 
   7   5   4   10.30    8.70 
   7   5   4    6.60   11.80 
  -5   7   4    4.30   14.60 
  -7  -5   4    3.70   15.00 
  -5   7   4   10.60   17.30 
  -7  -5   4   -9.20   14.40 
   5  -7   4   22.90   23.60 
  -3   7  -4  374.16   41.90 
   3  -7  -4  354.66   31.10 
   3  -7  -4  303.17   30.60 
   7   3  -4  375.46   56.79 
  -7  -3  -4  330.17   59.09 
  -7  -3  -4  512.45   80.19 
  -7  -3  -4  425.86   50.39 
  -7  -3  -4  374.66   48.70 
  -7  -3   4  308.37   45.30 
  -7  -3   4  313.07   48.20 
  -3   7   4  371.26   47.50 
  -7  -3   4  322.57   48.30 
  -7  -3   4  325.07   62.79 
   3  -7   4  319.57   30.50 
  -3   7   4  310.67   39.90 
  -3   7   4  529.55  100.39 
  -3   7   4  429.96   52.79 
   3  -7   4  324.37   30.20 
  -3   7   4  290.87   38.50 
   1  -7  -4   49.30   11.50 
  -1   7  -4   74.79   17.00 
  -1   7  -4  232.58   69.29 
   1  -7  -4   88.19   72.39 
  -7  -1  -4  108.19   25.90 
  -1   7  -4   50.89   12.30 
  -7  -1  -4   35.20   21.90 
   7   1  -4   56.29   17.30 
   1  -7  -4   57.89   10.70 
  -1   7  -4  134.69   48.80 
  -7  -1  -4   40.30   15.50 
  -7  -1  -4   17.80   15.20 
   1  -7  -4   78.19   22.70 
  -7  -1  -4   37.40   15.20 
  -1   7   4  129.09   50.69 
   1  -7   4   42.10   17.10 
  -1   7   4   40.30   11.90 
  -7  -1   4   41.00   17.20 
  -7  -1   4   33.10   20.10 
  -1   7   4   49.40   12.80 
  -1   7   4   48.40   16.30 
  -1   7   4   80.39   20.90 
  -7  -1   4   60.99   19.70 
  -7  -1   4   31.80   14.40 
  -7  -1   4   51.49   16.30 
   1  -7   4   59.59    7.70 
  -7   1  -4   72.59   13.40 
   1   7  -4   44.20   32.80 
   1   7  -4   49.10   11.70 
   1   7  -4  142.79   57.49 
  -7   1  -4   18.30   12.60 
  -7   1  -4   21.00   10.70 
  -1  -7  -4   95.09   33.10 
  -7   1  -4   48.50   16.30 
  -7   1  -4   40.50   12.80 
  -1  -7  -4   47.40   13.20 
  -1  -7  -4   42.30   14.50 
   1   7  -4   44.20   12.30 
  -7   1  -4   40.30   12.60 
   1   7  -4  154.98   48.00 
  -1  -7  -4   59.59   72.29 
  -7   1   4   31.80   11.90 
  -7   1   4   37.30   13.70 
  -1  -7   4   88.89   46.80 
   1   7   4   80.29   18.90 
  -1  -7   4   44.00    8.80 
  -7   1   4   48.10   15.80 
   7  -1   4   45.20    8.00 
  -7   1   4   25.70   10.20 
   1   7   4   72.59   12.80 
   1   7   4  113.99   49.10 
  -7   1   4   42.70    9.40 
  -1  -7   4   42.40   14.80 
  -3  -7  -4  243.18  109.19 
  -7   3  -4  345.77   35.90 
  -3  -7  -4  458.35   70.89 
  -3  -7  -4  363.36   44.40 
  -7   3  -4  363.76   50.39 
   3   7  -4  309.37   35.80 
  -3  -7  -4  289.27   59.59 
   3   7  -4  399.66   91.19 
  -7   3  -4  308.57   39.40 
  -3  -7  -4  340.17   47.70 
  -7   3  -4  359.06   32.90 
  -3  -7   4  228.98   74.39 
  -3  -7   4  337.27   54.99 
  -3  -7   4  309.27   38.30 
  -7   3   4  306.67   33.10 
  -7   3   4  364.26   34.90 
  -7   3   4  271.37   36.50 
   5   7  -4   30.50   53.39 
  -5  -7  -4   11.50   15.70 
   5   7  -4    7.80   22.30 
  -5  -7  -4   57.59   71.09 
  -5  -7  -4    1.50   21.10 
  -7   5  -4    3.80    8.80 
  -7   5  -4   10.30   25.60 
  -5  -7  -4    3.90   29.90 
  -7   5  -4   -1.10    6.30 
   5   7  -4    3.30   17.80 
  -7   5   4   17.20   11.50 
   5   7   4    7.40    9.50 
  -7   5   4   17.20   11.80 
   5   7   4   44.80   21.50 
  -5  -7   4   -3.80   11.80 
  -5  -7   4   25.90   45.50 
  -7   5   4   30.70    8.70 
   5   7   4   53.79   67.19 
   7   7  -4   30.80   68.19 
  -7  -7  -4  203.28   57.49 
   7   7  -4  144.79   31.40 
  -7  -7  -4   76.99   30.50 
   7   7  -4  134.69   32.80 
  -7   7  -4   33.70   17.30 
  -7   7   4   26.80   20.70 
  -7  -7   4   33.30   27.50 
  -8  -6  -4   29.00   22.50 
  -8  -6  -4  -18.10   42.90 
  -6   8  -4   13.00   28.80 
  -8  -6  -4   52.39   38.00 
  -6   8  -4  146.19   65.49 
  -6   8  -4   13.70   21.90 
  -8  -6  -4   49.60   57.89 
   8   6  -4    6.80   51.29 
   6  -8   4   39.30   23.20 
   8   6   4   39.50   13.60 
  -6   8   4   35.70   24.10 
  -6   8   4   11.20   19.40 
  -8  -6   4   11.20   24.10 
   8   6   4   55.09   38.10 
  -6   8   4   -1.30   20.90 
  -8  -6   4   33.40   28.40 
   8   6   4   89.49   20.30 
  -8  -6   4   27.30   44.90 
   4  -8  -4 1963.80  172.68 
   8   4  -4 1464.75  155.28 
  -8  -4  -4 1357.26  170.38 
  -4   8  -4 1616.64  184.58 
   8   4  -4 1740.53  154.58 
  -8  -4  -4 1818.72  178.08 
   8   4   4 1877.01  154.28 
   4  -8   4 1878.21  185.48 
   8   2  -4  645.64   66.79 
  -8  -2  -4  709.83   73.49 
   2  -8  -4  653.63   55.29 
  -8  -2  -4  692.33   74.99 
   2  -8  -4  507.75   53.59 
  -2   8   4  499.35   60.29 
  -8  -2   4  531.85   70.79 
  -8  -2   4  473.55   68.59 
  -8  -2   4  667.53   76.99 
   2  -8   4  605.84   55.49 
  -2   8   4  555.14   62.49 
   2  -8   4  572.64   53.19 
  -8   0  -4    4.60    7.70 
   0  -8  -4   17.40    8.50 
   0   8  -4   35.80   25.20 
  -8   0  -4    8.30   13.00 
  -8   0  -4   29.40   20.20 
   0  -8  -4  116.69   97.29 
   0   8  -4    5.80   45.50 
  -8   0  -4   13.50   13.70 
  -8   0  -4   25.50   12.70 
  -8   0  -4   15.10   13.40 
   0  -8  -4   29.60   10.70 
   0  -8   4   19.80    6.00 
   0  -8   4   -0.40   28.70 
  -8   0   4   20.70   14.40 
   0   8   4   81.19   33.00 
   0   8   4   30.60   15.40 
  -8   0   4   32.90   18.10 
  -8   0   4   20.00   10.70 
   0  -8   4   14.80    6.30 
   8   0   4   21.20    6.30 
  -8   0   4   10.40   14.00 
  -8   0   4   28.60   18.20 
   0   8   4   45.00   47.20 
   0   8   4   12.20    9.30 
   2   8  -4  576.74  101.39 
  -2  -8  -4  647.54   64.19 
  -8   2  -4  563.24   64.89 
  -2  -8  -4  801.32  208.08 
  -2  -8   4  610.44  108.49 
  -8   2   4  457.55   53.19 
  -2  -8   4  544.25   56.89 
  -8   2   4  635.54   64.09 
  -8   4  -4 1084.19  107.59 
  -4  -8  -4  745.83  103.09 
  -8   6  -4   44.20   35.30 
  -8   6  -4    2.40    8.70 
   6   8  -4   57.29   30.50 
  -6  -8  -4   44.30   95.69 
   6   8  -4    2.20   70.59 
  -6  -8  -4   19.80   19.40 
   6   8  -4   37.60   25.50 
  -8   6  -4    8.40   10.20 
  -6  -8  -4   36.60   32.40 
  -8   6   4   14.70   12.30 
  -8   6   4   22.60    7.70 
   6   8   4  182.28   85.89 
  -8   6   4   17.20   10.90 
  -6  -8   4   57.89   59.79 
  -8   6   4   -1.30   17.60 
   6   8   4   25.00   12.40 
  -8   6   4   -3.70   17.20 
  -6  -8   4   17.30   18.80 
   6   8   4   53.89   24.60 
   5  -9  -4  439.66   55.39 
  -5   9  -4  556.14   78.69 
   5  -9   4  655.33  108.69 
   9   5   4  560.84   50.29 
  -5   9   4  475.45   76.29 
   9   3  -4  459.15   40.00 
  -9  -3  -4  309.97   70.69 
  -9  -3  -4  405.26   62.99 
   9   3  -4  463.15   44.90 
  -9  -3  -4  464.45   77.39 
   9   3  -4  502.95   40.20 
   3  -9   4  402.66   75.19 
  -3   9   4  438.06   66.29 
  -3   9   4  315.67   68.69 
  -9  -1   4 1011.70  102.69 
  -1   9   4  829.92   96.69 
  -1   9   4  750.52  125.39 
  -9   1  -4  347.77   38.50 
  -9   1  -4  297.77   39.10 
  -9   1  -4  307.97   37.90 
   1   9  -4  210.98   60.09 
  -9   1   4  261.77   35.80 
  -1  -9   4  429.96   91.89 
  -3  -9  -4  223.48  123.69 
   3   9  -4  193.68   70.99 
  -9   3  -4  179.88   25.80 
  -9   3  -4  247.48   38.90 
  -3  -9  -4  225.38   38.60 
  -3  -9  -4  242.68   34.50 
  -9   3  -4  157.88   30.30 
  -9   3  -4  215.48   22.60 
  -3  -9   4   64.79   51.19 
  -3  -9   4  161.38   25.70 
  -9   3   4  123.99   24.50 
  -9   3   4  151.18   21.50 
  -9   3   4  211.78   33.90 
  -9   3   4  112.09   27.10 
   5   9  -4  269.67  118.29 
  -5  -9  -4  438.16   72.99 
  -5  -9  -4  311.27  142.99 
   5   9   4  513.45   56.99 
  10   4  -4  394.86   46.30 
  -4  10   4  508.75   84.19 
 -10  -4   4  402.76   78.99 
   4 -10   4  437.66   81.19 
 -10  -2  -4  543.55   80.49 
  -2  10   4  582.24   97.09 
   2 -10   4  618.44   96.69 
   0  10  -4  123.29   57.09 
 -10   0  -4   33.50   12.10 
   0  10  -4  155.28   78.09 
 -10   0  -4   58.59   24.50 
 -10   0  -4   95.69   32.50 
   0 -10  -4  113.19  123.09 
 -10   0  -4   48.20   27.40 
 -10   0  -4   42.30   16.50 
   0  10  -4   15.40   28.90 
 -10   0   4    8.70   10.20 
   0 -10   4   47.50   51.09 
 -10   0   4   24.10   18.20 
 -10   0   4   14.40   24.40 
   0 -10   4   26.10    9.00 
   0  10   4   57.39   59.79 
 -10   2  -4  354.06   50.59 
 -10   2  -4  338.07   42.10 
  -2 -10  -4  390.66   45.60 
   2  10  -4  220.28   72.29 
  -2 -10   4  246.58   77.19 
 -10   4  -4  137.79   19.90 
  -4 -10  -4  213.58   45.20 
 -10   4  -4  124.89   36.60 
   4  10  -4  296.87  142.59 
  -4 -10  -4  259.37  140.09 
 -10   4  -4  167.28   22.50 
 -10   4   4  142.29   21.20 
  -4 -10   4  121.59   27.20 
  -4 -10   4  143.89   87.29 
   1 -11  -4   -2.00    5.90 
 -11  -1  -4   -7.90   14.30 
  -1  11  -4   12.20   25.50 
   1 -11  -4    2.90   16.50 
 -11  -1  -4   16.40   23.90 
 -11  -1  -4   -9.00   16.60 
  -1  11  -4   32.50   59.79 
   1 -11  -4  257.27  186.98 
   1 -11   4    1.60   10.70 
 -11  -1   4   -4.40   22.40 
  -1  11   4   -4.40   20.20 
  -1  11   4   -7.70   44.30 
  -1  11   4   50.29   52.59 
 -11  -1   4   40.40   35.00 
   1 -11   4    5.60    4.20 
   1  11  -4   51.49   73.49 
 -11   1  -4   11.00   17.00 
 -11   1  -4  -18.40   21.90 
 -11   1  -4    2.90   13.10 
  -1 -11  -4   -8.30   10.50 
   1  11  -4   20.00   43.00 
   1  11  -4   24.00   40.90 
  -1 -11  -4   30.90  120.29 
 -11   1  -4   -0.90   12.40 
 -11   1   4   -0.50   33.90 
  -1 -11   4   -1.90   10.20 
 -11   1   4   31.20   29.10 
   1  11   4   18.10   42.10 
 -11   1   4    9.20   15.20 
  -1 -11   4   14.90   54.39 
   1  11   4   14.60   16.60 
   1  11   4   -2.70   68.59 
   1   0  -5    4.90    2.00 
   0   1  -5    9.00    3.20 
   0  -1  -5    3.90    5.40 
  -1   0  -5    0.30    4.80 
   0  -1  -5   13.00    4.60 
   0   1  -5   11.50    3.00 
  -1   0  -5    3.60    2.40 
   1   0  -5    2.70    2.20 
   0   1   5    5.00    8.80 
   1   0   5   11.10    2.90 
   0  -1   5    6.40    3.60 
  -1   0   5    8.40    5.40 
   0  -1   5    8.90    3.00 
   1   0   5    5.80    2.70 
  -1   0   5   10.60    2.70 
  -1   0   5    3.20    3.90 
   0  -1   5    3.20    3.10 
   0  -1   5    8.00    4.40 
   0   1   5    9.60    2.80 
   1   0   5    8.80    3.20 
   1   0   5    2.00    3.10 
   0   1   5   16.50    5.40 
   0   1   5    7.00    3.60 
   2   1  -5 1041.10  113.09 
  -1   2  -5 1271.17  109.99 
   1  -2  -5 1105.19  106.09 
  -1   2  -5 1296.57  113.09 
  -2  -1  -5 1075.99  122.09 
  -2  -1  -5 1105.09  110.99 
   2   1  -5 1149.89  106.49 
   2   1  -5 1203.48  107.39 
  -2  -1  -5 1199.38  110.19 
  -1   2  -5 1159.98  106.79 
   1  -2  -5 1293.87  116.59 
  -2  -1  -5 1097.79  110.19 
   1  -2  -5 1171.78  107.29 
   1  -2   5 1257.97  107.79 
  -2  -1   5 1197.08  111.69 
   1  -2   5 1242.18  111.69 
  -2  -1   5 1339.27  107.39 
   2   1   5 1203.28  106.89 
  -1   2   5 1189.98  111.49 
  -1   2   5 1168.98  106.99 
  -2  -1   5 1221.98  108.29 
   1  -2   5 1247.38  105.79 
   2   1   5 1213.08  105.89 
  -2  -1   5 1153.88  113.39 
   1   2  -5 1382.06  118.19 
  -1  -2  -5 1207.28  117.39 
  -2   1  -5 1212.28  112.49 
   1   2  -5 1159.78  111.19 
   2  -1  -5 1165.38  109.99 
   1   2  -5 1337.97  114.09 
  -1  -2  -5 1209.18  115.09 
  -2   1  -5 1381.66  114.49 
  -1  -2  -5 1277.37  114.99 
  -2   1  -5 1248.68  112.29 
   2  -1  -5 1320.67  109.59 
  -1  -2  -5 1170.28  114.19 
  -1  -2   5 1129.19  118.89 
  -2   1   5 1273.47  118.79 
  -2   1   5 1163.48  113.69 
   2  -1   5 1197.38  110.19 
   2  -1   5 1299.07  114.19 
  -2   1   5 1221.38  110.79 
   1   2   5 1218.78  112.59 
   1   2   5 1223.18  112.09 
   2  -1   5 1302.57  110.79 
  -2   1   5 1265.87  109.49 
  -1  -2   5 1211.68  115.29 
  -1  -2   5 1237.28  113.19 
  -1  -2   5 1280.07  111.19 
  -2   3  -5   -0.50    5.50 
   2  -3  -5    3.00    4.90 
  -3  -2  -5    3.50    9.10 
  -2   3  -5    4.40    2.70 
   2  -3  -5   20.90    4.90 
   3   2  -5    5.60    7.90 
   2  -3  -5    4.30    2.30 
   3   2  -5    5.20    2.40 
   3   2  -5    8.30    3.90 
  -3  -2  -5   12.30   11.10 
  -3  -2  -5   10.10    6.40 
  -3  -2  -5   17.20    7.60 
  -2   3  -5    0.50   10.30 
  -3  -2  -5   -5.00   16.20 
  -3  -2   5    0.20    4.00 
  -2   3   5   12.90    9.30 
   3   2   5   25.20   18.20 
   3   2   5   13.10    3.70 
  -2   3   5   45.80   20.90 
   3   2   5    8.90    6.40 
   3   2   5   10.70    3.90 
  -3  -2   5   19.80    6.00 
  -2   3   5   10.10    6.60 
  -3  -2   5    7.30    7.90 
   2  -3   5    5.60    1.80 
   2  -3   5   14.30    5.90 
  -2   3   5    7.20    3.40 
   0   3  -5   13.60    3.80 
  -3   0  -5   -1.40    4.50 
   0  -3  -5   14.50   15.00 
   0   3  -5    2.40    7.90 
   0  -3  -5    5.10    4.00 
  -3   0  -5   -0.20    2.70 
   0  -3  -5    3.20    6.90 
  -3   0  -5    6.30    8.00 
   0  -3  -5    2.40    2.90 
   0   3  -5   -0.30    6.80 
   0   3  -5   -2.80    4.70 
  -3   0   5    1.00    1.90 
   3   0   5    1.20    2.40 
   0   3   5    1.70    3.40 
   0   3   5   -0.70    2.50 
   3   0   5    6.40    2.20 
   0   3   5    6.30   14.30 
  -3   0   5    2.10    2.50 
   3   0   5   -3.60    4.90 
   0   3   5    5.40    4.30 
   0   3   5   12.10    8.00 
   0  -3   5   -0.20    3.70 
   0  -3   5   15.50    6.50 
   3  -2  -5    2.50    2.80 
  -2  -3  -5    1.50    4.10 
   2   3  -5    1.80    2.20 
  -2  -3  -5    6.10    8.90 
   2   3  -5    0.00    5.10 
  -2  -3  -5    3.50    4.90 
   3  -2  -5    4.30    1.70 
  -2  -3  -5    9.50    9.80 
   3  -2  -5    2.70    2.50 
  -2  -3  -5   71.39   43.00 
   2   3  -5    5.20    3.00 
   2   3  -5    3.80    9.70 
  -3   2  -5    3.40    2.90 
   2   3  -5    3.80    6.70 
  -2  -3   5    1.00    2.50 
  -2  -3   5   16.90   13.40 
   3  -2   5    2.40    2.80 
  -3   2   5    8.50    9.10 
  -3   2   5    5.10    3.30 
   2   3   5    8.50    3.70 
   3  -2   5    9.80    3.80 
   2   3   5   20.10    8.40 
  -2  -3   5   -2.50    4.90 
   2   3   5    1.00    2.30 
   3  -2   5    1.20    2.30 
   2   3   5    4.30   16.50 
  -2  -3   5   -0.40    4.60 
   3  -2   5    6.60    2.00 
  -4  -3  -5    7.10    7.30 
   4   3  -5    2.20    3.90 
   4   3  -5   10.20    4.80 
  -4  -3  -5    5.50    6.80 
   3  -4  -5    5.70    5.80 
   4   3  -5    6.90   13.60 
  -3   4  -5    7.40    6.40 
   4   3  -5    3.50    3.10 
  -3   4  -5   -0.70    5.30 
  -3   4  -5   -1.50   10.60 
  -4  -3  -5   12.70   18.00 
  -3   4  -5   12.60   23.80 
  -4  -3  -5    7.60   16.40 
   3  -4  -5   10.80    2.10 
  -4  -3  -5    1.60   25.90 
  -3   4   5   -2.60   17.80 
  -4  -3   5    1.50    6.20 
  -4  -3   5   -2.40   10.70 
   4   3   5   13.40   19.50 
   4   3   5   36.20   12.60 
   4   3   5   14.10    7.40 
  -4  -3   5    5.70    8.50 
  -3   4   5    0.60    3.60 
  -3   4   5   40.00   13.80 
   4   3   5    6.30    6.10 
  -3   4   5    6.80   11.50 
   3  -4   5    4.50    5.10 
  -4  -3   5   35.70   10.20 
   4   1  -5  855.61   70.99 
  -1   4  -5  768.62   71.99 
  -1   4  -5  772.42   84.89 
  -4  -1  -5  635.44   76.29 
  -4  -1  -5  643.94   90.49 
   4   1  -5  747.83   70.89 
  -1   4  -5  904.71   88.89 
   1  -4  -5  724.13   72.29 
   1  -4  -5  876.41   82.09 
  -4  -1  -5  697.03   71.49 
   4   1  -5  906.61   80.69 
   1  -4  -5  904.51  101.79 
   1  -4  -5  758.62   72.99 
  -4  -1  -5  746.33   75.99 
  -4  -1   5  794.42   79.49 
   1  -4   5  677.83   75.49 
   1  -4   5  861.11   69.99 
  -1   4   5  720.13   77.59 
  -1   4   5  767.82   73.59 
  -4  -1   5  871.21   83.29 
  -4  -1   5  763.22   73.39 
  -1  -4  -5  815.32   87.89 
  -1  -4  -5  737.53  152.18 
   1   4  -5  903.11   87.99 
  -1  -4  -5  714.83   77.19 
  -4   1  -5  874.81   74.89 
  -1  -4  -5  735.43   77.49 
   1   4  -5  809.62  131.49 
  -4   1  -5  886.91   78.49 
   4  -1  -5  712.73   70.89 
  -1  -4  -5  712.93   78.59 
  -4   1  -5  756.82   81.19 
   1   4  -5  842.02   74.69 
   1   4  -5  746.03   74.19 
  -4   1  -5  878.71   79.09 
  -4   1   5  829.52   77.79 
   1   4   5  778.02   75.99 
  -4   1   5  802.22   75.09 
  -1  -4   5  725.13   78.59 
  -4   1   5  858.51   73.39 
  -1  -4   5  758.22   97.99 
  -4   1   5  702.43   79.09 
   1   4   5  812.02   74.89 
  -1  -4   5  923.41   73.99 
  -4   3  -5   -0.60   16.80 
  -3  -4  -5    5.40   16.00 
  -3  -4  -5   -0.10   17.40 
  -3  -4  -5   14.40    8.60 
  -3  -4  -5    7.70    6.70 
  -4   3  -5    0.20    3.80 
   3   4  -5   24.50   14.10 
   3   4  -5   -4.50    6.80 
  -4   3  -5    1.50    5.40 
  -3  -4  -5   11.40   49.30 
  -4   3  -5    1.70    3.40 
   3   4  -5   -4.90   17.30 
   4  -3  -5   11.10    4.60 
  -4   3   5    5.10    2.90 
  -3  -4   5   -2.00    5.70 
   4  -3   5    2.40    2.00 
   3   4   5    8.80    6.60 
  -4   3   5   16.00    4.80 
   4  -3   5    3.30    3.70 
  -3  -4   5    4.40    3.90 
  -4   3   5   33.10   17.50 
  -3  -4   5    8.20    8.70 
   4  -3   5    5.50    3.00 
  -4   3   5    1.60    7.70 
   3   4   5    7.90    6.20 
  -4   3   5    2.90    6.40 
   5   4  -5  462.45   45.90 
  -5  -4  -5  542.45   58.29 
   4  -5  -5  509.45   49.20 
   5   4  -5  357.66   80.49 
  -5  -4  -5  322.17   92.39 
  -4   5  -5  485.15   47.20 
  -5  -4  -5  418.86   55.19 
   4  -5   5  456.45   45.30 
  -5  -4   5  374.06   57.59 
  -4   5   5  601.44   62.39 
  -5  -4   5  485.05   54.19 
  -4   5   5  522.55   49.30 
  -4   5   5  469.05   59.49 
   5   2  -5  684.33   74.89 
  -2   5  -5  683.43   73.39 
   2  -5  -5  594.34   58.39 
   5   2  -5  692.23   60.09 
  -2   5  -5  652.93   62.19 
  -5  -2  -5  576.24   67.29 
  -2   5  -5  628.54   83.09 
  -5  -2  -5  566.14   68.09 
   2  -5  -5  608.04   60.99 
   5   2  -5  624.74   64.19 
  -2   5   5  611.94   63.69 
   2  -5   5  715.53   58.29 
  -5  -2   5  657.33   66.69 
  -5  -2   5  700.53   66.99 
  -5  -2   5  720.43   82.09 
  -2   5   5  636.54   70.59 
  -5  -2   5  640.64   69.89 
   2  -5   5  646.24   64.19 
   0   5  -5   -4.10   14.00 
   0  -5  -5   20.30    7.90 
   0  -5  -5   -6.70   43.20 
   0  -5  -5    4.40    5.20 
   0  -5  -5   -0.80   10.60 
  -5   0  -5    1.40   12.40 
  -5   0  -5    0.00   10.00 
  -5   0  -5    6.70    5.80 
   0   5  -5   23.90   20.80 
   0  -5   5   14.70    8.90 
   0   5   5   20.50    7.70 
   5   0   5   22.20   12.60 
   0  -5   5    2.10    7.30 
  -5   0   5    3.40    7.10 
   0   5   5    8.00    9.60 
   0  -5   5    0.50   10.70 
  -5   0   5   23.30    7.70 
   0   5   5   -3.60   21.90 
  -5   0   5    9.00    7.60 
   5   0   5   13.60    2.60 
  -2  -5  -5  641.94   78.09 
  -2  -5  -5  771.32   88.99 
  -5   2  -5  729.73   69.29 
  -2  -5  -5  867.31  202.08 
   2   5  -5  587.54   64.69 
  -2  -5  -5  593.94   69.49 
   2   5  -5  649.93   64.59 
  -5   2  -5  770.02   67.39 
  -2  -5  -5  596.54   69.29 
  -5   2  -5  694.23   63.99 
  -2  -5   5  549.85   70.69 
  -2  -5   5  734.93   65.49 
  -2  -5   5  534.85   86.89 
  -5   2   5  679.63   65.89 
   5  -2   5  756.32   63.69 
   2   5   5  711.63   66.89 
  -5   2   5  659.13   62.99 
   2   5   5  751.22   64.89 
   4   5  -5  468.55   48.40 
  -5   4  -5  535.45   48.10 
  -5   4  -5  491.55   52.29 
  -5   4  -5  451.75   50.59 
  -4  -5  -5  523.05   58.19 
   4   5  -5  497.75   48.40 
   4   5  -5  369.56   83.89 
  -4  -5  -5  445.96   56.39 
  -5   4   5  528.05   66.09 
   5  -4   5  495.25   45.70 
  -5   4   5  391.36   47.80 
  -5   4   5  471.75   59.39 
  -4  -5   5  378.46   57.29 
  -5   4   5  484.75   58.09 
  -4  -5   5  558.24   54.59 
  -5   4   5  502.25   47.50 
   5  -4   5  534.65   45.30 
  -4  -5   5  654.53  104.19 
  -5   6  -5    4.10   40.30 
  -6  -5  -5   10.30   11.70 
  -6  -5  -5    2.10   28.40 
   6   5  -5    2.20    3.80 
   5  -6  -5    2.30    4.40 
   6   5  -5    3.30    8.40 
   6   5  -5   25.20    7.90 
  -5   6  -5    5.40   16.80 
  -6  -5  -5    7.50   50.09 
   6   5  -5  -12.90   24.40 
  -5   6  -5    6.90    7.60 
  -5   6   5   20.10   10.30 
   6   5   5   12.40   36.10 
   5  -6   5   13.30   14.80 
  -6  -5   5  -14.40   16.60 
   6   5   5    8.10    7.00 
  -5   6   5   -1.20   17.80 
   6   5   5    8.40    7.60 
   5  -6   5    3.20    2.90 
   5  -6   5    0.70    3.30 
   6   5   5   37.80   15.80 
  -6  -5   5   -6.20   23.30 
  -5   6   5    0.60    8.40 
  -5   6   5   10.10   17.50 
   6   3  -5    3.80    3.80 
   6   3  -5    0.50    3.70 
  -6  -3  -5  -15.70   28.70 
  -6  -3  -5  -12.90   20.00 
  -3   6  -5    0.00    9.10 
  -3   6  -5   -2.20    5.60 
   3  -6  -5    1.70    1.60 
   6   3  -5    4.80    3.00 
   6   3  -5    0.20   13.00 
  -3   6  -5   94.09   50.29 
   3  -6  -5    5.10    2.50 
  -6  -3  -5   13.50   11.20 
   3  -6  -5   43.40   19.60 
  -6  -3  -5   -0.60    9.10 
  -3   6  -5    0.20   23.80 
  -6  -3  -5   -5.30   20.30 
  -3   6   5   26.80   13.50 
  -3   6   5   11.30    7.70 
   6   3   5    9.30   11.00 
   3  -6   5    5.50    5.40 
   6   3   5   12.00   22.90 
  -3   6   5   -5.70   13.10 
   3  -6   5    1.10    1.80 
  -6  -3   5    2.70   14.90 
  -3   6   5   -0.80    5.70 
   3  -6   5    5.90    1.60 
   6   3   5    7.40    6.70 
  -6  -3   5    0.70    9.00 
  -6  -3   5   -6.30    9.40 
   6   3   5    7.50    5.40 
   6   3   5    4.60    5.50 
  -3   6   5    1.40   22.30 
  -6  -3   5    7.90   21.40 
  -6  -3   5    6.20    8.50 
  -6  -1  -5    3.20    8.20 
  -1   6  -5   91.09   42.70 
   1  -6  -5    6.40    4.20 
   1  -6  -5    9.30    5.20 
   6   1  -5    6.20    2.90 
  -6  -1  -5   -1.60   10.60 
  -6  -1  -5    5.40   15.20 
   6   1  -5    6.30    2.30 
  -1   6  -5    1.80   24.80 
   1  -6  -5   12.90   35.60 
  -1   6  -5    2.90    5.80 
  -6  -1  -5  -11.00   16.10 
   1  -6  -5    8.80    6.20 
   6   1  -5    2.90    5.90 
  -1   6  -5    2.60   13.20 
  -6  -1  -5    3.80    7.10 
   1  -6  -5   16.10   13.30 
   6   1  -5   11.90    3.40 
  -1   6   5    9.60    7.50 
  -1   6   5    5.40    5.40 
  -6  -1   5    7.20    9.80 
  -1   6   5   11.80   26.10 
   1  -6   5   12.00   10.60 
  -6  -1   5   -2.60    6.60 
  -6  -1   5    1.80    5.20 
  -6  -1   5   -3.10   14.10 
  -1   6   5   24.60   14.00 
   1  -6   5   -0.40   15.30 
   1  -6   5    6.70    7.10 
  -1   6   5    5.70    6.00 
   6   1   5   10.60    2.70 
  -6  -1   5   10.80    8.00 
   6   1   5   16.70    6.50 
   1   6  -5    9.90   21.50 
  -1  -6  -5    2.10   61.09 
   1   6  -5   24.90   24.30 
  -1  -6  -5    1.40   10.70 
  -1  -6  -5   -2.00   16.60 
  -6   1  -5   26.20   13.00 
   1   6  -5    4.90    5.50 
   1   6  -5    1.20    3.70 
  -1  -6  -5    1.60    5.40 
  -1  -6  -5   13.90    8.50 
  -6   1  -5    4.60    8.60 
   1   6  -5   29.70   30.30 
  -6   1  -5    4.30    7.80 
  -6   1   5   -1.20    4.60 
   6  -1   5   24.60   13.20 
   1   6   5    6.40    6.80 
   1   6   5    1.20    3.70 
  -6   1   5    3.10    7.40 
   1   6   5    7.40   30.30 
  -1  -6   5    1.80    2.80 
  -6   1   5    5.80    8.10 
  -1  -6   5    2.50    7.70 
   1   6   5    4.00    5.60 
  -1  -6   5    2.70   11.10 
   6  -1   5    8.70    4.50 
  -1  -6   5    3.80   20.20 
  -6   3  -5   19.90    8.20 
  -6   3  -5   19.20   20.30 
  -3  -6  -5   19.60   64.19 
   3   6  -5   14.90   23.00 
   3   6  -5   -2.40    5.50 
   3   6  -5    3.60   17.50 
  -6   3  -5    0.80    5.40 
  -3  -6  -5    5.70    8.20 
   3   6  -5  -22.30   36.60 
  -3  -6  -5   10.10   25.10 
  -3  -6  -5   -0.30    9.60 
  -3  -6  -5   -3.20   19.80 
  -6   3  -5    2.20    4.30 
   3   6  -5   -2.20    3.40 
   3   6   5   -2.80   11.90 
  -6   3   5    4.10    4.80 
  -6   3   5   -1.10    5.80 
  -6   3   5   -0.90    7.90 
   3   6   5    8.80    6.90 
  -3  -6   5   47.00   57.99 
  -6   3   5   -4.10    4.20 
  -3  -6   5    8.40    9.20 
   6  -3   5    4.70    3.30 
  -3  -6   5    0.80    4.60 
  -6   3   5   14.20   14.40 
  -3  -6   5    6.30   12.40 
   3   6   5    9.20    7.00 
  -6   3   5   -0.60    7.10 
   6  -3   5    3.40    5.20 
   3   6   5   20.80   40.60 
  -6   3   5    7.70    4.40 
   3   6   5    4.00    8.00 
   5   6  -5    1.20   33.70 
   5   6  -5    4.50    5.30 
  -5  -6  -5   -4.90   61.89 
  -5  -6  -5    8.40   11.70 
   5   6  -5   -1.80   15.50 
  -5  -6  -5    1.00   14.40 
  -6   5  -5    9.30    6.40 
  -5  -6  -5    6.70   32.00 
  -6   5  -5   10.60    9.70 
  -6   5  -5   42.20   34.40 
  -6   5  -5  -10.90   10.40 
   5   6   5    3.50    7.70 
   6  -5   5   17.10   13.10 
  -6   5   5    7.60   13.50 
  -6   5   5   -3.30    7.70 
  -6   5   5    0.70    5.80 
  -5  -6   5    5.10   36.80 
  -6   5   5   -7.50   12.90 
  -6   5   5   13.60    6.90 
  -5  -6   5    0.30   10.40 
  -6   5   5    6.40   13.90 
  -6   5   5    1.40    2.90 
   5   6   5   12.40   14.50 
   6  -5   5    5.20    3.10 
   5   6   5   15.60   35.30 
   5   6   5    9.20    7.90 
  -6   7  -5  -22.20   15.90 
   7   6  -5   16.10   36.70 
   6  -7  -5    8.50    4.70 
  -6   7  -5   25.30   47.60 
   7   6  -5   32.40   18.60 
  -6   7  -5   14.80   12.90 
  -7  -6  -5   29.50   31.70 
  -6   7  -5    8.60    9.00 
  -7  -6  -5   24.70   38.90 
   6  -7   5   21.10   22.90 
   6  -7   5    2.80    4.90 
  -6   7   5   19.60   20.00 
   7   6   5   13.40   36.50 
  -6   7   5   -8.20   20.50 
  -6   7   5   15.50   11.40 
  -7  -6   5   -7.00   18.70 
  -6   7   5    1.30   13.70 
  -6   7   5    7.00   15.70 
   7   4  -5  559.34   48.80 
   4  -7  -5  540.35   56.29 
  -7  -4  -5  400.36   59.19 
  -7  -4  -5  408.66   90.79 
  -7  -4  -5  368.96   57.79 
  -4   7   5  462.45   71.49 
  -2   7  -5  539.55   84.39 
   7   2  -5  416.86   48.30 
  -2   7  -5  417.56   43.70 
  -7  -2  -5  364.66   56.49 
   2  -7  -5  328.07   34.70 
  -7  -2  -5  382.16   47.60 
   2  -7  -5  406.66   37.50 
  -7  -2  -5  262.57   60.79 
  -7  -2  -5  398.56   50.69 
  -7  -2   5  312.07   49.00 
  -7  -2   5  357.86   48.30 
  -7  -2   5  349.57   44.10 
  -2   7   5  418.26   43.60 
  -2   7   5  332.27   41.10 
  -7  -2   5  408.76   50.19 
  -7  -2   5  388.96   61.19 
   2  -7   5  319.87   35.50 
  -2   7   5  401.56   50.39 
   0  -7  -5   -7.30   50.79 
  -7   0  -5    6.90   12.70 
   0  -7  -5    9.50   18.20 
   0   7  -5   13.50   36.40 
   0  -7  -5    0.70    4.70 
   0  -7  -5   -3.10    6.60 
  -7   0  -5   -6.60    8.50 
   0   7  -5    5.00    7.80 
  -7   0  -5    4.20    8.20 
  -7   0  -5  -11.60   15.00 
   0   7  -5   -6.30   18.10 
   0  -7  -5    1.80    8.00 
   0   7  -5  -18.70   27.60 
   0   7  -5    2.30    5.60 
  -7   0   5    2.90    6.80 
   7   0   5   -4.30   14.30 
   0   7   5   13.50   31.40 
   7   0   5    2.50    3.60 
   0   7   5   -0.60    4.80 
   0   7   5    8.10   10.70 
   0  -7   5   -5.10   11.40 
   0  -7   5   -5.80    8.40 
  -7   0   5    1.10    7.90 
  -7   0   5   11.90   14.40 
   0  -7   5    3.00   20.30 
   0  -7   5   -0.80    2.40 
  -7   0   5    0.70    6.40 
   0   7   5   -2.10    5.90 
  -2  -7  -5  169.48  181.38 
  -2  -7  -5  363.56   48.80 
  -2  -7  -5  408.46   47.40 
  -7   2  -5  399.16   45.50 
   2   7  -5  352.36   40.60 
  -7   2  -5  440.86   40.70 
   2   7  -5  372.46   44.90 
   2   7  -5  239.48   70.59 
  -7   2  -5  431.66   40.90 
  -7   2  -5  395.36   47.00 
  -7   2   5  468.35   40.50 
  -2  -7   5  371.76   40.40 
  -2  -7   5  394.46   50.59 
  -7   2   5  336.97   39.60 
   7  -2   5  362.66   36.50 
  -2  -7   5  305.97   74.79 
  -7   2   5  413.56   45.00 
  -4  -7  -5  438.26  143.79 
  -4  -7  -5  522.45   69.49 
   4   7   5  545.85   58.49 
  -7   6  -5   24.00   39.70 
  -7   6  -5   -2.60    9.00 
   6   7  -5    6.00   16.60 
  -6  -7  -5   22.80   26.50 
  -7   6  -5    3.80    7.80 
   6   7  -5   41.30   36.80 
   6   7  -5  -29.60   52.29 
  -6  -7  -5   -8.80   67.09 
  -6  -7  -5    9.90   16.00 
  -7   6  -5   11.30   11.50 
  -6  -7   5    8.60   18.50 
  -7   6   5    2.20    3.70 
  -7   6   5   -5.00   14.80 
   6   7   5   11.00   14.20 
  -7   6   5  -11.20   13.30 
  -7   6   5    1.60   14.10 
   6   7   5   10.90    9.90 
   6   7   5   24.70   45.10 
  -6  -7   5  -18.90   65.49 
  -7   6   5   -5.80    8.80 
   8   7  -5  606.04   65.39 
  -8  -7  -5  701.13   85.89 
   8   7   5  474.95   59.29 
   8   5  -5  746.83   74.89 
  -8  -5  -5  854.51   97.99 
  -8  -5  -5  742.13  116.39 
   8   5   5  736.43   73.29 
   5  -8   5  802.32   96.59 
  -3   8  -5   -6.20   13.50 
  -8  -3  -5   19.10   28.70 
   3  -8  -5   11.10   24.30 
  -8  -3  -5   16.80   14.90 
   3  -8  -5    3.70    2.60 
  -3   8  -5    7.10   31.30 
  -3   8  -5    2.30   11.90 
  -8  -3  -5   14.70   14.10 
   8   3  -5    1.20   14.60 
   3  -8  -5    2.30    2.10 
   8   3  -5    2.40    2.90 
  -3   8  -5   -4.90   50.79 
   8   3  -5    1.10    5.20 
  -8  -3  -5   -2.10   25.60 
  -3   8   5    0.00   20.60 
   3  -8   5    4.40    1.80 
  -8  -3   5   -8.50   16.50 
  -3   8   5   18.10   15.20 
   3  -8   5   -0.70   19.20 
  -3   8   5    0.20   10.60 
  -8  -3   5   -4.20   14.20 
  -3   8   5    2.00    7.20 
   8   3   5   11.80   32.60 
  -8  -3   5    4.30   27.30 
   3  -8   5    2.30    2.20 
  -3   8   5   22.90   36.80 
   1  -8  -5  440.76   42.20 
   1  -8  -5  423.96   40.20 
  -8  -1  -5  441.46   49.90 
   8   1  -5  342.07   41.50 
   8   1  -5  443.86   36.20 
  -8  -1  -5  401.46   54.69 
  -8  -1  -5  389.16   56.09 
  -8  -1   5  378.76   59.09 
   1  -8   5  473.15   74.49 
  -1   8   5  400.36   45.30 
  -1   8   5  337.47   42.70 
  -8  -1   5  318.87   46.40 
  -8  -1   5  330.87   45.80 
   1  -8   5  324.27   36.30 
  -1  -8  -5  436.36   47.70 
  -8   1  -5  409.86   42.60 
  -8   1  -5  399.36   50.29 
  -1  -8  -5  378.86   57.09 
  -1  -8   5  420.06   51.89 
  -1  -8   5  352.96   37.00 
  -8   1   5  322.37   37.90 
  -1  -8   5  365.86   77.49 
  -8   1   5  277.97   38.80 
  -8   3  -5   -4.90    5.80 
  -3  -8  -5    5.50   10.70 
   3   8  -5    2.30   22.90 
   3   8  -5    4.30   55.29 
  -8   3  -5    0.50   18.50 
  -8   3  -5    2.40   10.80 
  -3  -8  -5 -127.49  195.48 
   3   8  -5  -26.70   32.30 
  -3  -8  -5   49.50   23.20 
  -3  -8   5   -2.80    5.70 
  -8   3   5   11.40   11.40 
  -8   3   5  -10.30   16.20 
   3   8   5  140.89   79.89 
  -8   3   5    8.90    7.70 
  -8   3   5    4.80    6.90 
  -3  -8   5  -26.00   36.10 
   3   8   5   55.09   29.90 
   5   8   5  578.34   64.19 
  -7  -8  -5  622.14  160.68 
  -7  -8  -5  487.65   95.39 
  -8   7   5  272.17   54.19 
   7   8   5  413.86   47.50 
   6  -9  -5    8.00   12.30 
  -9  -6  -5   21.40   34.50 
  -9  -6  -5    4.70   54.69 
  -9  -6  -5    9.90   29.30 
  -6   9   5   -0.30   10.50 
  -6   9   5   -5.70   15.10 
  -9  -6   5   13.00   30.50 
   6  -9   5   -5.10   26.50 
   9   6   5   -3.00   12.40 
  -4   9  -5    7.30   13.70 
  -9  -4  -5   16.70   22.10 
   9   4  -5    6.30    5.20 
   9   4  -5    9.10    4.70 
  -4   9  -5   76.99   74.79 
   4  -9  -5   -5.90   16.40 
  -9  -4  -5    5.80   21.60 
  -4   9  -5    2.50   32.50 
  -9  -4  -5   51.39   38.50 
  -9  -4   5   14.90   22.40 
  -9  -4   5  -15.90   23.30 
  -4   9   5   -3.80   18.80 
   9   4   5   18.00    7.50 
   4  -9   5    7.90   26.60 
  -4   9   5   18.50   25.70 
  -4   9   5    5.90    9.80 
   9   4   5    9.00    5.10 
   9   2  -5   13.20   10.10 
  -9  -2  -5   14.90   24.60 
  -2   9  -5   16.80   57.59 
  -9  -2  -5   -6.30   22.50 
  -2   9  -5   36.30   42.70 
  -9  -2  -5   -8.40   15.30 
   9   2  -5    6.50    4.50 
  -2   9  -5   12.50   16.70 
  -9  -2  -5   -8.50   16.40 
  -9  -2  -5   14.90   24.30 
   2  -9  -5   33.10   48.00 
   2  -9  -5   17.40    6.00 
   2  -9  -5    9.90    4.90 
   9   2   5   25.40   23.30 
  -9  -2   5   -1.80   18.00 
  -9  -2   5    1.70   23.70 
  -2   9   5   30.30   18.50 
  -9  -2   5    9.30   27.10 
  -9  -2   5   -4.00   18.30 
   2  -9   5    1.30    5.50 
   2  -9   5   16.50   23.60 
   2  -9   5    6.20    3.20 
  -2   9   5   28.50   39.30 
  -9   0  -5   -4.50   13.20 
   0   9  -5   -6.50   23.40 
  -9   0  -5    4.40   12.30 
  -9   0  -5   -2.30   18.00 
   0   9  -5   -3.00   50.79 
   0  -9  -5    0.20    7.90 
  -9   0  -5    0.30   12.30 
   0   9  -5  -25.40   38.50 
   0  -9  -5  -10.60   82.89 
   0  -9  -5    1.10   11.80 
   0   9   5    0.90   10.50 
   9   0   5   29.40   21.10 
   0   9   5    4.90   27.00 
  -9   0   5    0.30   15.40 
  -9   0   5   -6.10   12.30 
  -9   0   5  -10.60   13.60 
  -9   0   5   -1.30    9.40 
   0  -9   5    2.10   29.90 
   0   9   5   15.40   46.70 
  -9   0   5   13.90   15.80 
   0  -9   5    3.60    3.70 
   2   9  -5   29.10   60.99 
   2   9  -5   12.20   33.50 
  -9   2  -5   19.50   13.90 
  -2  -9  -5   12.10  131.69 
  -9   2  -5   -9.70   16.20 
   2   9  -5   20.80   38.90 
  -2  -9  -5    2.20    9.40 
  -9   2  -5   12.50    9.60 
  -2  -9  -5    0.50   13.80 
  -9   2  -5   15.90   15.40 
  -9   2  -5  -12.70   12.40 
   2   9   5    4.30    9.10 
  -9   2   5   10.10    8.70 
  -2  -9   5    2.30    6.20 
  -9   2   5   13.40   13.10 
  -9   2   5   -2.20    8.20 
  -2  -9   5   40.80   40.00 
   2   9   5    2.70   41.60 
   2   9   5   29.50   31.70 
  -9   4  -5   16.30   24.70 
   4   9  -5    1.20   23.50 
   4   9  -5   -8.10   55.99 
  -9   4  -5    9.70    7.80 
  -9   4  -5   -5.60   10.60 
  -4  -9  -5  129.39  143.39 
  -4  -9  -5   22.00   19.20 
  -4  -9  -5   -2.10   12.50 
   4   9  -5   28.40   40.40 
   4   9   5   -1.40   67.99 
   4   9   5   33.90   24.90 
  -9   4   5    2.20    7.90 
  -9   4   5   -4.30   12.20 
  -9   4   5    4.60    7.20 
  -9   4   5   20.80   15.50 
  -9   4   5   18.60   13.90 
  -4  -9   5    7.50    9.80 
  -4  -9   5   12.90   52.09 
  -9   6  -5   -3.80   10.30 
  -9   6  -5   12.00   33.70 
  -9   6  -5    2.70    9.10 
   6   9  -5   26.00   94.19 
  -6  -9  -5   33.10   30.00 
   6   9  -5    3.10   29.00 
   6   9  -5   -6.20   39.20 
  -6  -9  -5    2.30   17.20 
  -9   6  -5    3.70   10.60 
  -9   6   5   -3.80   14.00 
  -9   6   5    6.20   11.20 
   6   9   5    1.60    9.80 
  -9   6   5   12.50   18.90 
  -9   6   5    0.20   10.50 
  -9   6   5    2.60   21.00 
  -6  -9   5  -13.30   15.70 
   3 -10  -5  -28.00   38.10 
 -10  -3  -5   13.30   23.00 
  10   3  -5   -1.20    5.90 
  -3  10  -5  -28.20   66.39 
   3 -10  -5    2.10    2.30 
   3 -10  -5    3.70    2.20 
 -10  -3  -5   12.10   30.50 
  -3  10  -5   -1.50   15.60 
 -10  -3  -5    5.20   20.70 
  -3  10   5  -13.00   31.70 
   3 -10   5   21.00   32.40 
  -3  10   5    4.10   20.80 
 -10  -3   5    5.60   27.70 
 -10  -3   5  -12.20   24.40 
  -3  10   5    6.70   37.50 
   1 -10  -5  169.88   22.10 
 -10  -1  -5  159.98   30.80 
   1 -10   5  125.29   15.40 
 -10  -1   5   95.59   34.90 
  -1  10   5  256.97   67.19 
   1 -10   5  124.19   19.70 
   1 -10   5  149.49   63.29 
  -1 -10  -5  195.38   29.10 
 -10   1  -5  215.68   38.50 
 -10   1  -5  190.78   27.80 
   1  10  -5   86.69   43.90 
 -10   1   5  164.98   32.90 
  -1 -10   5  136.79   52.49 
 -10   1   5  120.89   27.50 
  -1 -10   5  130.09   18.90 
   3  10  -5   -1.60   97.89 
   3  10  -5    1.80   28.20 
   3  10  -5   10.90   55.39 
 -10   3  -5    1.70   14.80 
 -10   3  -5   14.30   10.10 
 -10   3  -5    4.20   18.50 
 -10   3  -5   18.30   17.90 
  -3 -10  -5   -2.20   11.10 
 -10   3  -5  -18.50   17.90 
  -3 -10  -5    7.70   17.80 
  -3 -10  -5 -104.79  144.59 
  -3 -10   5  -29.30   52.59 
   3  10   5   30.20   68.69 
  -3 -10   5    0.90    8.30 
 -10   3   5   -2.90    8.50 
 -10   3   5   -3.60   13.50 
   3  10   5   12.70   13.10 
   3  10   5   40.80   31.50 
 -10   3   5  -16.00    9.70 
   0   0  -6 2352.36  204.18 
   0   0  -6 2103.99  203.18 
   0   0  -6 2389.06  205.08 
   0   0   6 2425.06  204.08 
   0   0   6 2337.47  204.78 
   0   0   6 2194.58  202.68 
   1  -1  -6  835.32   81.99 
   1  -1  -6  844.42   76.79 
  -1   1  -6  888.91   77.29 
   1   1  -6  785.32   76.09 
  -1  -1  -6  778.62   78.29 
  -1  -1  -6  836.72   77.99 
   1  -1  -6  778.52   74.39 
   1   1  -6  770.92   74.69 
  -1  -1  -6  695.33   76.79 
  -1   1  -6  813.22   75.49 
  -1   1  -6  815.52   76.79 
   1  -1  -6  818.42   75.09 
  -1  -1  -6  781.82   87.49 
  -1   1   6  787.02   74.59 
   1  -1   6  875.61   79.09 
   1   1   6  886.01   75.79 
   1  -1   6  876.31   74.29 
   1  -1   6  843.22   75.29 
   1  -1   6  922.31   81.29 
   1   1   6  829.92   75.09 
  -1  -1   6  932.81   79.69 
  -1  -1   6  746.23   80.69 
  -1   1   6  828.62   75.39 
  -1   1   6  725.43   77.69 
  -1  -1   6  825.22   74.69 
  -1  -1   6  848.22   77.99 
   1   1   6  942.81   78.59 
   0  -2  -6 3092.29  260.57 
   2   0  -6 2546.35  255.97 
   0  -2  -6 3058.99  273.27 
   2   0  -6 2814.42  257.47 
   2   0  -6 2979.80  255.37 
  -2   0  -6 2926.91  260.67 
   0  -2  -6 2973.40  259.27 
   0   2  -6 3285.37  263.77 
  -2   0  -6 3133.89  259.87 
   0   2  -6 2939.81  259.77 
   0   2  -6 2718.93  265.77 
  -2   0  -6 2813.52  269.17 
   0   2  -6 2688.03  256.87 
  -2   0  -6 3026.20  259.87 
   0   2   6 2822.82  257.37 
   0  -2   6 3149.08  261.27 
  -2   0   6 2735.93  256.57 
   2   0   6 2924.21  256.37 
  -2   0   6 2660.43  262.77 
  -2   0   6 2916.61  264.57 
   0  -2   6 3029.70  256.37 
   0   2   6 2887.41  259.77 
   2   2  -6  207.98   24.20 
   2   2  -6  186.48   33.00 
   2  -2  -6  280.17   26.40 
  -2   2  -6  243.18   26.90 
   2   2  -6  239.48   26.20 
  -2  -2  -6  202.08   44.40 
  -2   2  -6  244.48   28.20 
  -2  -2  -6  215.48   28.10 
  -2  -2  -6  226.98   29.90 
  -2  -2  -6  241.58   28.70 
   2  -2  -6  215.38   23.00 
  -2   2  -6  248.58   25.30 
  -2   2  -6  258.27   27.40 
   2   2   6  248.18   24.30 
   2  -2   6  256.77   26.70 
  -2   2   6  240.88   36.00 
   2  -2   6  244.48   23.00 
  -2  -2   6  224.38   31.90 
  -2  -2   6  255.37   27.00 
   2   2   6  274.97   25.20 
  -2  -2   6  282.07   25.50 
  -2  -2   6  252.37   29.40 
  -2   2   6  246.18   26.00 
  -2   2   6  247.98   24.40 
  -3  -1  -6  693.73   91.39 
  -1   3  -6  825.62   84.89 
  -1   3  -6  829.82   86.59 
   3   1  -6  831.02   83.09 
  -3  -1  -6  686.53   80.09 
   3   1  -6  804.42   73.19 
   3   1  -6  839.12   75.09 
  -3  -1  -6  688.43   78.89 
   1  -3  -6  969.50   78.29 
  -1   3  -6  760.52   74.89 
   1  -3  -6  804.52   88.69 
  -3  -1  -6  755.22   82.09 
  -1   3  -6  731.53   84.09 
  -3  -1   6  900.91   75.99 
  -1   3   6  756.82   75.39 
  -3  -1   6  782.32   82.49 
  -3  -1   6  794.12   76.49 
  -1   3   6  730.23   79.39 
   1  -3   6  862.61   80.09 
   3   1   6  914.91   72.99 
  -3  -1   6  858.11   82.19 
   3   1   6  903.81   74.19 
   1  -3   6  920.41   82.29 
   1  -3   6  850.01   73.49 
  -3   1  -6  813.42   85.19 
  -1  -3  -6  832.92  109.19 
  -1  -3  -6  820.42   85.99 
  -1  -3  -6  795.62   79.29 
   1   3  -6  709.93   89.99 
  -3   1  -6  849.81   76.99 
  -1  -3  -6  748.33   78.49 
  -3   1  -6  856.21   77.79 
  -3   1  -6  914.81   79.89 
   1   3  -6  757.22   74.99 
   3  -1  -6  811.02   73.39 
   1   3  -6  898.81   80.89 
  -1  -3   6  795.92   80.19 
  -3   1   6  776.72   82.89 
  -3   1   6  745.63   77.39 
  -1  -3   6  912.21   94.19 
  -1  -3   6  794.12   77.89 
  -3   1   6  846.82   74.69 
   1   3   6  803.92   76.79 
  -3   1   6  794.12   80.19 
  -1  -3   6  886.41   74.89 
   3  -1   6  803.92   71.89 
   3  -1   6  857.01   73.29 
   1   3   6  804.12   75.89 
  -3  -3  -6 2780.42  268.97 
   3   3  -6 3249.77  266.67 
  -3  -3  -6 2492.35  267.97 
  -3   3  -6 3351.66  267.37 
   3   3  -6 2922.31  262.77 
   3  -3  -6 3218.98  261.77 
  -3  -3  -6 2353.46  307.27 
   3  -3  -6 2956.50  260.07 
   3  -3  -6 3039.80  266.97 
  -3   3  -6 3085.29  267.87 
   3   3  -6 2845.02  263.07 
   3   3   6 3418.56  262.67 
  -3  -3   6 2996.60  280.37 
  -3   3   6 2616.44  270.67 
   3  -3   6 2944.71  261.47 
  -3   3   6 2915.71  265.87 
  -3  -3   6 2921.41  269.87 
  -3   3   6 2902.91  284.17 
  -3   3   6 2725.33  271.17 
   3   3   6 3300.07  263.17 
   3  -3   6 3151.58  263.67 
  -3  -3   6 2765.12  267.47 
   3  -3   6 2972.80  259.87 
   4   2  -6   51.39    8.70 
  -2   4  -6   64.89    9.50 
  -4  -2  -6   40.20   13.10 
  -2   4  -6   30.20   15.20 
  -2   4  -6   45.10   14.60 
   2  -4  -6   52.69    8.20 
  -2   4  -6   84.19   30.20 
   4   2  -6   56.09    7.80 
   2  -4  -6   56.69    9.00 
   4   2  -6   42.70   15.10 
   2  -4  -6   48.80    6.80 
  -4  -2  -6   33.60   11.60 
   2  -4  -6   72.59   21.20 
  -4  -2  -6   42.40   21.00 
  -4  -2  -6   51.59   14.10 
  -4  -2  -6   28.10   27.50 
   4   2  -6   54.79    8.80 
   2  -4   6   67.69    6.90 
   2  -4   6   42.40   11.60 
  -2   4   6   51.89    9.50 
  -4  -2   6   63.09   10.70 
  -2   4   6   58.59   27.60 
  -2   4   6   49.70   15.00 
  -4  -2   6   40.70   11.50 
  -2   4   6  115.69   25.40 
   2  -4   6   76.69   14.40 
  -4  -2   6   69.29   20.60 
  -4  -2   6   70.29   17.00 
  -4   0  -6 3436.76  293.37 
   0  -4  -6 3466.75  298.07 
   0  -4  -6 2822.32  286.77 
   0  -4  -6 3328.07  287.97 
  -4   0  -6 3123.99  290.57 
   0  -4  -6 2768.82  284.97 
  -4   0  -6 3427.26  290.87 
   0   4  -6 3711.53  298.77 
  -4   0  -6 3043.10  298.17 
   0   4  -6 3043.60  303.27 
   4   0  -6 3141.09  282.57 
   0   4  -6 3100.39  284.67 
   0  -4   6 3415.26  297.57 
   0  -4   6 3453.25  289.07 
  -4   0   6 2802.22  291.77 
  -4   0   6 3190.08  285.67 
   0   4   6 3077.59  285.87 
  -4   0   6 3306.37  291.77 
   0   4   6 3125.19  288.47 
   0  -4   6 3582.84  283.27 
  -4   2  -6   44.10   10.30 
   2   4  -6   56.89    9.50 
   4  -2  -6   73.09    7.70 
   2   4  -6   50.89   29.10 
  -4   2  -6   69.49   12.30 
   2   4  -6   79.79   18.80 
  -2  -4  -6   44.70   17.80 
   2   4  -6   95.39   24.20 
  -2  -4  -6   39.50   34.40 
  -4   2  -6   73.39   12.20 
   2   4  -6   52.49    9.50 
   4  -2  -6   61.89    6.90 
  -4   2  -6   52.19   10.60 
  -2  -4  -6   41.20   21.40 
  -2  -4  -6   51.19   14.00 
  -2  -4  -6   39.90   13.00 
   4  -2   6   79.39   11.10 
  -2  -4   6   72.19   16.40 
   4  -2   6   80.29   11.30 
   4  -2   6   65.89    6.50 
  -2  -4   6   67.09   10.00 
  -4   2   6   41.20   16.00 
  -4   2   6   52.19    8.70 
   2   4   6   62.39    9.40 
   2   4   6   65.79   10.40 
  -2  -4   6   41.20   17.40 
  -4   2   6   66.69   13.10 
  -2  -4   6   45.50   13.20 
  -4   4  -6   85.79   33.70 
  -4  -4  -6    4.80    7.20 
   4   4  -6    7.60    4.00 
   4  -4  -6    5.20    4.60 
  -4  -4  -6   -7.60   22.30 
  -4   4  -6    9.40    5.20 
   4   4  -6   15.60   41.80 
  -4  -4  -6    5.00   20.90 
  -4   4  -6    0.40    9.40 
   4   4  -6   12.90   12.00 
   4   4  -6    5.10    6.90 
  -4   4  -6    8.80    5.70 
  -4  -4  -6    5.70   34.90 
   4   4  -6    5.70    4.70 
  -4  -4  -6   17.20    9.60 
  -4   4   6   14.50   14.10 
  -4  -4   6   15.00   11.00 
  -4   4   6   22.70   20.10 
  -4  -4   6    8.80    6.80 
  -4   4   6    5.00    4.00 
  -4   4   6   12.30   11.20 
  -4  -4   6    6.40   15.30 
   4  -4   6    6.70    3.60 
  -4   4   6    4.70    5.80 
   4  -4   6    5.00    5.40 
  -4  -4   6   37.70   13.80 
   4   4   6   62.29   39.20 
   4  -4   6    7.00    3.20 
   4   4   6   25.20   10.60 
   3  -5  -6   72.79    9.60 
  -5  -3  -6   20.70   21.60 
  -3   5  -6   57.69   12.30 
   3  -5  -6   89.99   18.50 
   5   3  -6   89.29   11.00 
  -5  -3  -6   26.20   34.20 
  -3   5  -6  104.19   45.50 
  -3   5  -6   64.09   16.90 
  -5  -3  -6   55.09   16.20 
  -3   5  -6   56.59   22.90 
   5   3  -6   59.69   25.90 
  -5  -3  -6   50.99   16.70 
   3  -5  -6   64.79    7.60 
   5   3  -6   58.19   10.30 
  -5  -3  -6   72.59   32.30 
   3  -5   6   73.89    7.40 
  -5  -3   6   49.10   17.00 
  -5  -3   6   70.89   17.10 
  -3   5   6   91.29   14.10 
  -5  -3   6   52.39   25.70 
  -3   5   6   68.59   20.20 
   3  -5   6   76.99   11.40 
   3  -5   6   92.99   17.90 
  -3   5   6  163.28   45.30 
  -3   5   6   95.29   26.10 
  -5  -3   6   47.40   16.60 
   5   1  -6  104.79   13.10 
  -1   5  -6  104.79   30.30 
  -1   5  -6  107.19   28.90 
   1  -5  -6  135.39   17.00 
  -5  -1  -6  137.69   20.30 
  -1   5  -6  176.38   49.20 
   1  -5  -6  148.19   44.40 
  -5  -1  -6   56.39   26.00 
   1  -5  -6  132.19   16.70 
   1  -5  -6  111.29   13.90 
  -1   5  -6  102.79   15.60 
  -5  -1  -6  105.09   19.90 
   1  -5   6   92.69   18.30 
  -5  -1   6  119.59   27.60 
  -5  -1   6  111.59   17.00 
  -5  -1   6  142.49   25.10 
  -1   5   6   98.89   18.90 
  -1   5   6  101.79   16.40 
  -1   5   6  236.48   59.39 
   1  -5   6  166.48   27.10 
  -5  -1   6  132.59   17.90 
  -1  -5  -6  102.59   18.10 
  -1  -5  -6  160.18   35.90 
   1   5  -6  112.79   15.30 
  -1  -5  -6  128.79   21.10 
   1   5  -6  100.79   15.50 
   5  -1  -6  111.79   11.10 
  -5   1  -6  107.89   24.10 
  -5   1  -6  152.78   17.80 
  -1  -5  -6  204.68   90.09 
   1   5  -6  132.19   34.00 
   1   5  -6   63.69   29.80 
  -5   1  -6   86.99   21.60 
  -1  -5  -6  108.99   17.80 
  -5   1  -6   98.59   18.80 
  -5   1   6   80.09   19.20 
   1   5   6  110.79   16.90 
  -1  -5   6  114.09   14.10 
  -5   1   6  128.29   20.50 
   1   5   6  130.59   15.90 
  -1  -5   6  123.09   33.80 
  -5   1   6  121.89   16.40 
   5  -1   6  147.49   16.00 
  -1  -5   6  121.29   21.40 
   3   5  -6   60.79   12.30 
   3   5  -6   91.39   23.60 
   3   5  -6   25.30   26.10 
  -3  -5  -6   61.19   30.80 
  -5   3  -6   72.09   12.40 
  -5   3  -6   61.79   14.50 
  -3  -5  -6   49.30   15.60 
  -3  -5  -6   47.60   15.10 
   3   5  -6   73.49   11.60 
  -5   3  -6   25.30   20.00 
  -3  -5  -6   41.20   53.19 
   3   5   6   62.49   11.80 
   5  -3   6   74.89   10.80 
  -5   3   6   69.89   23.30 
  -3  -5   6   43.70   20.70 
  -5   3   6   52.99   16.90 
  -3  -5   6   81.39   12.90 
   5  -3   6   84.49   11.10 
  -5   3   6  103.49   17.90 
  -5   3   6   53.59   12.50 
  -3  -5   6   55.49   25.60 
  -5  -5  -6   27.00   13.80 
  -5   5  -6   34.40   11.00 
  -5  -5  -6   -2.50   36.10 
  -5   5  -6  116.39   46.90 
  -5   5  -6   45.50   11.10 
   5   5  -6   29.00   36.30 
  -5  -5  -6   57.49   18.10 
  -5  -5  -6   19.20   60.29 
   5   5  -6   48.70    9.50 
  -5  -5  -6    4.90   32.60 
   5   5  -6   30.40    9.00 
   5  -5  -6   33.90    8.10 
  -5   5  -6   35.60   15.10 
   5  -5   6   37.30    6.50 
  -5   5   6   38.40   19.20 
   5  -5   6   32.70    6.60 
   5  -5   6   61.49   13.80 
  -5  -5   6   30.10   13.30 
  -5   5   6   34.30   16.80 
  -5   5   6   32.60   11.30 
  -5  -5   6   38.70   25.20 
  -5  -5   6   51.79   27.20 
  -5   5   6   54.99   12.10 
  -5   5   6   44.00   26.20 
  -6  -4  -6 1185.78  123.99 
  -4   6  -6 1193.18  115.99 
   4  -6  -6 1442.76  119.39 
  -6  -4  -6 1252.77  168.88 
  -6  -4  -6 1380.46  128.09 
   6   4  -6 1241.58  111.99 
  -4   6   6 1202.88  118.59 
  -6  -4   6 1027.80  125.39 
  -6  -4   6 1281.27  150.88 
   4  -6   6 1158.38  112.49 
  -4   6   6 1248.88  131.19 
  -4   6   6 1258.77  117.89 
  -4   6   6 1341.17  131.99 
  -6  -4   6 1094.79  121.59 
   6   2  -6 1028.40   84.49 
  -2   6  -6  875.61   99.69 
  -6  -2  -6  858.31   96.49 
   2  -6  -6  850.21   83.59 
  -6  -2  -6  992.50   95.99 
  -2   6  -6  943.61   89.29 
   2  -6  -6 1017.70   87.59 
  -2   6  -6  759.32  109.39 
   6   2  -6 1046.00   99.59 
  -6  -2   6  929.91   93.49 
  -6  -2   6  866.61   97.49 
  -2   6   6  890.31   89.79 
  -6  -2   6  904.81   93.09 
  -2   6   6  964.30   97.79 
   2  -6   6  936.01   90.19 
   0  -6  -6  541.25   57.09 
  -6   0  -6  516.85   62.39 
  -6   0  -6  601.04   59.09 
   0   6  -6  502.05   55.79 
   0   6  -6  726.63   89.89 
   0  -6  -6  620.14   58.39 
   0  -6  -6  673.63  128.79 
   0  -6  -6  565.24   58.69 
   0   6   6  531.85   59.09 
  -6   0   6  514.05   56.99 
   0   6   6  561.04   56.29 
   0  -6   6  617.94   76.39 
  -6   0   6  650.93   66.29 
  -6   0   6  479.35   54.89 
   0  -6   6  567.24   52.59 
  -6   2  -6  998.70   99.49 
  -2  -6  -6  983.10  108.99 
   2   6  -6 1034.80   94.99 
  -2  -6  -6  925.11   98.89 
  -6   2  -6 1033.30   93.69 
   2   6  -6  923.71   93.39 
  -2  -6  -6  854.41   98.19 
  -6   2  -6 1109.79  102.29 
  -6   2   6  964.30   93.99 
  -6   2   6  908.31   92.19 
  -2  -6   6 1047.50   93.49 
  -6   2   6 1067.39   97.49 
   6  -2   6 1022.10   91.49 
   2   6   6 1075.29   95.89 
  -2  -6   6  894.91  120.69 
   2   6   6 1037.20   92.89 
   4   6  -6 1113.99  102.89 
   4   6  -6 1041.60  105.09 
  -4  -6  -6  895.61  135.39 
  -4  -6  -6 1000.00  112.19 
  -4  -6  -6 1317.27  124.79 
  -6   4  -6 1061.79  106.49 
  -6   4   6 1129.09  103.69 
  -6   4   6 1240.58  113.09 
  -4  -6   6 1184.18  107.99 
  -6   4   6 1035.80  116.49 
  -4  -6   6 1045.30  142.19 
  -6   4   6 1189.08  102.29 
  -6   4   6  983.90  106.79 
  -6   4   6 1101.89  115.19 
  -6  -6  -6  236.28   82.09 
   6   6  -6  165.68   75.49 
  -6   6  -6  210.68   29.40 
  -6   6  -6  166.68   27.70 
  -6  -6  -6  360.46   76.29 
  -6   6   6  201.78   32.10 
   6  -6   6  208.88   22.30 
  -6   6   6  263.27   43.80 
  -6  -6   6  218.98   37.00 
  -6   6   6  269.97   30.70 
  -6  -6   6  168.28   58.59 
  -6   6   6  269.97   42.30 
  -7  -5  -6   59.29   24.00 
  -7  -5  -6  212.88   56.09 
  -5   7  -6   53.79   18.30 
  -7  -5  -6  123.89   30.50 
   7   5  -6   62.59   43.90 
  -5   7  -6  313.87   94.89 
   5  -7   6  111.49   14.40 
  -5   7   6   36.80   27.60 
  -5   7   6   72.09   29.20 
  -5   7   6   58.99   24.50 
  -5   7   6   58.99   19.30 
   5  -7   6  126.79   31.10 
  -5   7   6   63.39   17.70 
  -7  -5   6   39.00   49.80 
  -7  -3  -6  443.26   84.99 
   7   3  -6  514.05   46.80 
  -7  -3  -6  528.15   61.69 
  -3   7  -6  439.56   65.49 
   7   3  -6  446.76   64.09 
  -7  -3  -6  497.35   78.79 
  -7  -3  -6  578.24   80.89 
   3  -7  -6  500.65   46.70 
  -3   7   6  536.45   56.69 
  -7  -3   6  490.65   77.69 
  -7  -3   6  434.26   62.89 
  -3   7   6  450.75   53.29 
  -3   7   6  547.15   64.29 
   3  -7   6  800.82  104.79 
   7   1  -6  305.37   35.70 
  -1   7  -6  321.57   36.70 
  -1   7  -6  209.38   45.70 
  -1   7  -6  285.47   67.19 
   1  -7  -6  296.47   31.60 
  -7  -1  -6  340.27   40.30 
   1  -7  -6  334.97   34.40 
   1  -7  -6  328.27   35.30 
  -7  -1  -6  288.97   42.50 
  -1   7   6  246.38   33.60 
  -1   7   6  319.97   40.50 
   1  -7   6  417.26   56.89 
   1  -7   6  276.37   37.10 
  -7  -1   6  305.27   48.80 
  -7  -1   6  253.27   37.20 
  -7  -1   6  275.57   36.60 
  -7  -1   6  295.27   45.00 
   1  -7   6  298.87   29.10 
  -7   1  -6  328.27   36.20 
   1   7  -6  168.38   67.69 
  -7   1  -6  305.27   41.50 
  -1  -7  -6  364.76   45.10 
   1   7  -6  256.57   33.50 
   1   7  -6  295.17   37.50 
  -1  -7  -6  513.05  208.88 
  -1  -7  -6  322.17   37.70 
  -1  -7  -6  334.27   39.80 
  -7   1  -6  255.27   42.00 
  -7   1   6  254.67   32.30 
  -7   1   6  252.27   33.70 
  -1  -7   6  291.47   41.60 
  -7   1   6  367.96   43.20 
   7  -1   6  336.17   32.10 
   1   7   6  291.97   33.10 
   1   7   6  344.67   37.60 
  -1  -7   6  285.57   59.39 
  -1  -7   6  304.27   31.30 
   3   7  -6  423.76   49.99 
  -7   3  -6  501.85   54.29 
  -7   3  -6  517.65   50.49 
  -3  -7  -6  567.24   60.89 
  -3  -7  -6  387.46  168.18 
  -3  -7  -6  585.54   92.69 
  -3  -7  -6  433.46   55.79 
   7  -3   6  466.65   43.90 
  -7   3   6  425.26   47.80 
  -3  -7   6  409.66   83.89 
  -7   3   6  458.85   49.90 
  -7   3   6  436.86   46.40 
  -3  -7   6  448.66   51.29 
   5   7  -6   60.79   59.39 
  -7   5  -6   38.30   12.70 
  -5  -7  -6   64.09   49.70 
  -5  -7  -6   73.29   22.40 
  -7   5  -6   58.39   14.10 
  -7   5  -6   78.79   16.00 
  -7   5  -6  164.08   53.19 
  -5  -7  -6   33.10   82.99 
  -5  -7  -6   86.19   27.20 
  -7   5   6   56.69   13.40 
  -7   5   6   40.80   16.60 
  -7   5   6   36.80   14.20 
  -7   5   6   41.70   13.00 
  -5  -7   6   16.20   43.00 
  -5  -7   6   44.50   17.20 
  -7   5   6   77.19   24.10 
  -7  -7  -6  671.13   84.39 
  -7  -7  -6  598.14   73.59 
   7   7  -6  649.14   70.29 
  -7  -7  -6  407.56  123.39 
   7   7   6  505.25   58.79 
  -7  -7   6  329.77  120.59 
  -8  -6  -6  414.46   65.79 
  -8  -6  -6  550.54   75.29 
  -8  -6  -6  337.97  143.59 
  -8  -6  -6  672.13  110.09 
   8   6  -6  436.16   51.89 
   8   6   6  444.56   50.69 
   6  -8   6  515.35   67.29 
   4  -8  -6  117.29   25.80 
   8   4  -6  136.09   15.70 
   8   4  -6  143.79   18.60 
   8   4  -6  144.49   19.20 
  -8  -4  -6  253.17   52.89 
  -8  -4  -6   82.49   28.90 
  -4   8   6  123.39   43.00 
  -8  -4   6   60.09   41.20 
   4  -8   6  123.39   33.00 
   8   4   6  177.68   18.90 
  -2   8  -6  437.66  137.19 
  -2   8  -6   92.79   49.99 
   8   2  -6  206.58   19.40 
  -8  -2  -6   91.09   38.30 
  -8  -2  -6  222.68   32.50 
   8   2   6  194.78   18.00 
  -2   8   6  189.58   64.59 
   0  -8  -6  356.76   38.60 
  -8   0  -6  294.97   48.10 
   0  -8  -6  325.87   37.10 
   0  -8  -6  327.47   45.80 
  -8   0  -6  298.27   38.30 
   0  -8   6  251.57   28.60 
   0   8   6  299.57   33.80 
   0  -8   6  354.26   61.99 
  -8   0   6  218.58   33.90 
  -8   0   6  244.68   36.90 
  -2  -8  -6    3.80  101.39 
  -8   2  -6   98.09   16.80 
  -8   2  -6   79.99   20.60 
   2   8  -6   24.20   36.30 
   2   8  -6  244.78   71.19 
  -2  -8  -6   92.59   22.40 
  -8   2  -6   79.99   22.70 
  -2  -8  -6   69.99   21.90 
  -8   2   6   86.39   20.50 
  -8   2   6   54.39   12.70 
  -8   2   6   50.19   16.10 
   8  -2   6   68.29    9.50 
  -2  -8   6   72.99   12.90 
  -2  -8   6   59.19   43.70 
  -8   2   6   60.79   14.10 
  -8   4  -6   34.10   14.20 
  -4  -8  -6   73.19   34.20 
  -4  -8  -6  109.79  111.19 
   4   8  -6    3.90   53.49 
  -8   4  -6   56.69   14.10 
  -8   4  -6   73.09   13.40 
  -8   4   6   38.30   13.20 
  -4  -8   6   47.90   21.40 
  -8   4   6   48.80   19.70 
  -4  -8   6   27.60   49.20 
  -8   4   6   76.19   13.80 
   6   8  -6  189.18   95.79 
  -6  -8  -6  261.07   44.80 
  -8   6   6  176.08   27.00 
  -8   6   6  160.08   40.40 
   9   5  -6   50.49   12.50 
  -5   9  -6   19.10   16.20 
   9   5  -6   71.39   13.20 
  -9  -5  -6   76.39   32.60 
  -9  -5  -6  111.69   36.60 
   5  -9  -6   44.00   14.10 
   9   5  -6   33.60    7.90 
  -5   9  -6   34.30   26.00 
  -9  -5  -6  149.99   54.89 
  -5   9   6   27.20   12.90 
   5  -9   6   83.79   34.00 
  -5   9   6   80.49   30.20 
  -9  -5   6   22.00   25.60 
  -5   9   6   17.40   25.80 
  -9  -3  -6  813.92  103.69 
   9   3  -6  935.51   81.29 
   9   3  -6 1105.69   85.39 
  -9  -3  -6  865.11   98.29 
   3  -9   6  788.52  105.49 
  -3   9   6  806.02  101.59 
  -9  -1  -6  175.98   38.20 
   9   1  -6  102.69   17.00 
  -9  -1  -6   87.59   27.40 
   9   1  -6  104.19   11.00 
   1  -9  -6  126.29   18.60 
  -1   9  -6  176.98   67.69 
  -1   9  -6   66.59   27.10 
  -9  -1  -6  146.99   28.10 
  -9  -1   6  123.39   30.40 
   1  -9   6  102.09   34.30 
   1  -9   6  109.99   12.80 
  -9  -1   6   72.49   29.30 
   1  -9   6   73.59   19.40 
  -9  -1   6   85.89   23.90 
  -9   1  -6  110.89   30.40 
  -9   1  -6  117.29   24.50 
  -1  -9  -6  152.48   24.80 
  -1  -9  -6  170.08   28.90 
  -1  -9   6  173.18   58.49 
  -9   1   6  108.19   21.80 
  -1  -9   6  129.09   17.10 
  -3  -9  -6  532.95   59.09 
   3   9  -6  271.17   88.09 
  -9   3  -6  484.15   58.39 
  -9   3  -6  421.86   50.79 
  -9   3  -6  514.15   48.60 
  -3  -9   6  437.46  100.49 
  -3  -9   6  482.65   50.09 
  -9   3   6  395.76   46.90 
  -9   5  -6   19.10   12.60 
  -9   5  -6   16.20   10.40 
  -5  -9  -6  -17.60  124.09 
   5   9  -6  106.09   44.80 
   5   9  -6   74.39   41.10 
  -5  -9  -6   29.60   19.90 
  -5  -9  -6   85.69   33.60 
   5   9  -6  -69.09   69.49 
   5   9   6   46.60   16.40 
  -9   5   6   15.60   17.80 
  -9   5   6   38.80   12.40 
  -5  -9   6   -3.00   67.29 
  -5  -9   6   15.30   13.80 
   2 -10  -6    9.70    5.80 
   2 -10  -6    5.70   59.49 
  -2  10  -6   43.80   69.79 
  -2  10  -6    7.50   18.50 
  10   2  -6    3.10    3.80 
 -10  -2  -6   16.40   17.30 
 -10  -2  -6   20.90   21.40 
  -2  10  -6  -22.50   42.90 
   2 -10  -6    4.90    5.90 
  -2  10   6   -6.50   14.50 
  -2  10   6   -3.20   36.10 
   2 -10   6    8.80    6.70 
 -10  -2   6    1.20   19.10 
   2 -10   6   -0.20    3.00 
  -2  10   6   -8.90   42.50 
   2 -10   6   -9.50   25.80 
   0 -10  -6  754.82   72.79 
 -10   0  -6  788.72   88.79 
 -10   0  -6  686.83   74.09 
 -10   0   6  530.45   76.79 
   0 -10   6  754.22  108.39 
 -10   2  -6  -10.90   15.60 
   2  10  -6   22.40   40.30 
   2  10  -6  124.69   68.19 
  -2 -10  -6  -17.40  135.99 
 -10   2  -6   -8.90   19.40 
   2  10  -6   15.30   46.30 
 -10   2  -6    2.80   10.60 
  -2 -10  -6  -11.90    9.90 
  -2 -10  -6    5.70   16.00 
  -2 -10   6   -2.10    6.30 
   2  10   6  -12.40   65.39 
   2  10   6    3.60   10.90 
 -10   2   6   -1.90   10.00 
  -2 -10   6   -9.70   47.20 
   2  10   6   -9.60   27.90 
 -10   2   6   -7.60    9.50 
 -10   2   6    7.80   12.60 
   0  -1  -7    1.50    2.40 
   1   0  -7    2.00    2.00 
   0   1  -7    4.50    2.60 
  -1   0  -7   18.40    9.30 
  -1   0  -7    0.00    2.60 
  -1   0  -7    0.10    2.50 
   0   1  -7    4.50    3.90 
   0  -1  -7    0.50    2.10 
   0   1  -7    1.10    2.40 
   1   0   7    1.00    4.60 
   1   0   7   10.90    3.10 
   0  -1   7    1.90    3.20 
   0   1   7    1.80    2.60 
  -1   0   7    6.50    3.70 
   0   1   7    5.30    7.20 
   0  -1   7    0.70    3.40 
  -1   0   7    9.70    6.60 
  -1   0   7    1.20    1.80 
   0   1   7    1.70    3.80 
   1   0   7    5.20    3.50 
   0  -1   7   13.50    6.90 
   0   1   7    1.30    1.70 
   0  -1   7    1.20    2.50 
   1   0   7    3.90    3.10 
   2   1  -7  346.67   35.30 
  -1   2  -7  329.57   35.90 
   2   1  -7  368.06   36.80 
  -2  -1  -7  321.97   38.80 
   1  -2  -7  385.36   36.70 
  -2  -1  -7  344.27   38.90 
  -2  -1  -7  470.55   62.29 
  -1   2  -7  380.86   38.50 
  -1   2  -7  339.97   38.40 
  -2  -1  -7  328.77   39.30 
   1  -2  -7  357.96   45.00 
  -1   2   7  481.05   54.19 
   1  -2   7  389.16   39.60 
  -2  -1   7  407.66   42.10 
   2   1   7  350.96   35.50 
  -2  -1   7  351.86   37.20 
  -1   2   7  344.87   35.70 
  -2  -1   7  415.76   46.90 
  -1   2   7  448.36   43.60 
   1  -2   7  389.76   41.80 
   1  -2   7  373.06   36.30 
  -2  -1   7  380.46   35.90 
  -1   2   7  409.06   39.30 
  -1   2   7  338.37   39.80 
   1   2  -7  343.57   35.10 
  -2   1  -7  317.37   39.10 
  -1  -2  -7  355.36   38.60 
  -1  -2  -7  312.67   37.50 
  -2   1  -7  364.46   38.40 
   2  -1  -7  382.06   36.60 
   1   2  -7  376.06   37.80 
  -2   1  -7  365.46   36.90 
  -1  -2  -7  361.76   38.00 
   2  -1  -7  428.66   34.50 
   1   2  -7  418.86   52.09 
  -1  -2   7  364.26   34.90 
  -1  -2   7  404.16   47.00 
   1   2   7  377.06   36.50 
   2  -1   7  384.76   39.00 
  -1  -2   7  369.06   39.40 
  -2   1   7  346.67   43.70 
  -2   1   7  319.07   38.00 
   2  -1   7  355.46   34.00 
   1   2   7  378.06   35.80 
  -1  -2   7  328.37   36.30 
  -2   1   7  360.56   35.00 
   2  -1   7  362.36   35.00 
  -3  -2  -7   21.70   12.80 
   3   2  -7   31.30   14.20 
   3   2  -7   27.80    5.70 
  -2   3  -7   32.10    9.00 
   2  -3  -7   43.50    6.50 
   3   2  -7   53.29    7.60 
  -3  -2  -7   18.40   18.90 
  -3  -2  -7   27.40   10.20 
  -2   3  -7   29.80   13.20 
   3   2  -7   25.50    7.20 
  -3  -2  -7   44.40   11.70 
  -2   3  -7   27.20   10.40 
   3   2   7   36.10    6.10 
   3   2   7   35.60    5.60 
  -2   3   7   66.69   14.20 
  -2   3   7   21.60   16.90 
   2  -3   7   46.70    9.50 
  -3  -2   7   50.79    8.10 
   2  -3   7   42.40    8.50 
   2  -3   7   34.40    5.10 
  -2   3   7   42.90    7.40 
  -2   3   7   29.60   11.60 
  -3  -2   7   32.90   11.40 
  -3  -2   7   37.40   14.20 
  -2   3   7   52.09   16.70 
  -3  -2   7   32.30    9.40 
   3   0  -7    1.70    2.50 
   0  -3  -7    3.70    3.40 
   3   0  -7    6.00    1.60 
  -3   0  -7    1.10    3.60 
  -3   0  -7    7.10    9.50 
   0   3  -7   -1.00    8.30 
  -3   0  -7    1.20    3.90 
   0   3  -7    2.00    2.40 
   0   3  -7   -1.70    4.10 
   0  -3  -7    8.00    3.90 
  -3   0  -7   -0.60    5.50 
   0  -3  -7    6.90   11.40 
   0  -3  -7    0.90    4.10 
   3   0   7   11.10    2.60 
   3   0   7    2.90    3.40 
   0   3   7   27.30   31.10 
  -3   0   7    3.80    6.20 
   0  -3   7    0.80    5.00 
   0   3   7    2.80    3.90 
  -3   0   7    1.80    4.60 
   3   0   7    1.40    1.80 
  -3   0   7    8.00    4.50 
   0   3   7   -2.50    8.90 
   0   3   7    5.40    3.20 
   0  -3   7   -0.10    4.10 
   0  -3   7    2.80    3.70 
  -3   0   7    1.40    2.30 
   3   0   7    2.00    2.80 
  -2  -3  -7   39.10   16.10 
   3  -2  -7   38.00   11.60 
   2   3  -7   38.70   10.60 
  -3   2  -7   34.00    8.70 
  -2  -3  -7   26.60    8.90 
   2   3  -7   48.50   26.60 
  -2  -3  -7   35.30   12.80 
   3  -2  -7   30.00    4.70 
   2   3  -7   28.60    6.80 
  -3   2  -7   29.70    9.20 
  -3   2  -7   36.20    8.80 
  -3   2   7   32.50   14.30 
   3  -2   7   26.60    5.00 
  -3   2   7   27.70    6.40 
  -2  -3   7   33.20   12.50 
  -2  -3   7   19.20    7.40 
   2   3   7   34.00    6.40 
  -2  -3   7   29.50   10.20 
  -3   2   7   29.50    4.20 
  -2  -3   7   35.30    6.70 
  -3   2   7   16.70    9.80 
   3  -2   7   25.50    4.30 
  -3   4  -7    4.80    4.50 
   3  -4  -7    2.70    5.60 
  -3   4  -7   11.40    9.50 
   4   3  -7   16.40    5.70 
   3  -4  -7    2.60    2.90 
   4   3  -7    5.10    4.00 
   4   3  -7    4.80   12.10 
  -4  -3  -7   -0.30    7.20 
  -4  -3  -7   33.60   21.00 
  -4  -3  -7   10.60   30.00 
   3  -4  -7   10.00    2.70 
  -4  -3  -7   13.40    7.80 
  -4  -3  -7    9.40   12.90 
  -3   4  -7   -5.10   17.20 
  -3   4  -7   14.50    7.20 
   4   3  -7    6.40    4.50 
   4   3   7   10.10    3.30 
   3  -4   7    8.00    6.20 
  -3   4   7   11.70   20.20 
  -3   4   7    1.80    7.10 
   4   3   7   18.30    9.00 
  -4  -3   7   16.60   13.60 
   4   3   7   15.20    8.70 
  -3   4   7    9.70    8.00 
   4   3   7   23.60   19.50 
  -3   4   7    0.10    3.70 
   3  -4   7   20.80    8.30 
   4   3   7    9.20    4.40 
  -3   4   7    4.00   12.90 
   3  -4   7    4.80    3.50 
  -4  -3   7    2.60    4.70 
  -4  -3   7    4.70    8.00 
  -4  -3   7    7.70    7.90 
  -1   4  -7  453.25   45.50 
  -4  -1  -7  387.46   49.90 
  -4  -1  -7  400.26   62.49 
   4   1  -7  503.35   44.80 
  -1   4  -7  441.96   54.09 
   4   1  -7  473.95   52.49 
  -1   4  -7  431.76   56.49 
   1  -4  -7  405.86   43.80 
   1  -4  -7  369.16   46.10 
  -1   4  -7  566.94   66.49 
   4   1  -7  535.45   42.70 
  -4  -1  -7  456.35   56.39 
   1  -4  -7  495.45   47.30 
   4   1  -7  453.25   44.00 
   1  -4  -7  487.15   64.59 
  -4  -1  -7  444.06   49.30 
  -1   4   7  431.06   49.90 
  -4  -1   7  470.95   54.39 
   1  -4   7  515.85   43.20 
  -4  -1   7  437.56   46.90 
   1  -4   7  427.86   51.39 
  -4  -1   7  550.14   47.20 
  -4  -1   7  485.85   54.39 
  -1   4   7  448.76   46.20 
   1  -4   7  492.75   52.99 
  -4   1  -7  465.95   50.89 
  -1  -4  -7  498.75   60.69 
  -4   1  -7  439.56   56.19 
   1   4  -7  451.35   46.10 
   1   4  -7  467.05   67.19 
  -1  -4  -7  453.05   86.49 
  -4   1  -7  517.55   51.09 
   1   4  -7  518.25   54.99 
  -1  -4  -7  432.26   50.09 
  -4   1  -7  484.45   48.20 
  -1  -4  -7  436.06   49.20 
  -1  -4  -7  457.25   49.50 
   4  -1  -7  464.75   43.50 
   4  -1   7  566.04   47.50 
  -1  -4   7  419.56   48.90 
   4  -1   7  521.15   42.80 
  -1  -4   7  443.36   57.09 
  -4   1   7  462.75   51.09 
  -4   1   7  424.36   47.80 
  -1  -4   7  518.05   45.30 
  -1  -4   7  383.76   49.90 
  -4   1   7  516.05   45.90 
   1   4   7  486.65   46.50 
  -4   1   7  382.46   52.69 
   1   4   7  488.05   47.70 
  -3  -4  -7   24.90   10.20 
   3   4  -7    2.30    4.30 
  -3  -4  -7    2.30    5.80 
   3   4  -7    6.90    4.10 
  -4   3  -7    2.80    5.60 
  -3  -4  -7   -6.60   16.00 
  -3  -4  -7   -6.50   42.30 
  -4   3  -7    3.40    5.40 
   4  -3  -7   10.90    2.60 
  -3  -4  -7   -9.80   17.40 
  -4   3  -7    2.60    4.80 
   3   4  -7   45.90   13.30 
   4  -3  -7    6.20    2.50 
  -4   3  -7    4.30   10.10 
   3   4  -7   15.00   20.10 
   3   4  -7   -2.00    9.60 
   4  -3   7   10.20    5.70 
  -4   3   7    5.20    9.30 
   3   4   7   15.70   10.50 
   3   4   7    5.70    3.50 
   3   4   7   30.10   43.90 
  -4   3   7    4.00    9.40 
   3   4   7    8.50    4.10 
   4  -3   7   10.40    4.40 
  -3  -4   7    2.20    7.00 
  -4   3   7    1.40   12.60 
   3   4   7    8.50    8.70 
   4  -3   7    4.70    2.30 
  -4   3   7    2.30    3.50 
  -3  -4   7   32.60   12.80 
   4  -3   7   20.60    6.20 
  -3  -4   7   10.80    5.10 
  -3  -4   7   -5.40   24.90 
   4  -3   7   10.90    2.00 
   5   4  -7  232.58   54.89 
   5   4  -7  355.06   32.00 
   4  -5  -7  299.27   34.60 
   5   4  -7  266.77   31.40 
  -4   5  -7  290.77   42.20 
  -5  -4  -7  267.37   39.40 
  -4   5  -7  346.97   74.29 
  -4   5  -7  293.97   36.00 
   4  -5  -7  284.47   27.30 
  -5  -4  -7  308.97   41.20 
   4  -5  -7  320.57   27.10 
  -4   5  -7  349.07   34.70 
  -4   5   7  393.16   68.19 
  -4   5   7  317.27   49.80 
  -5  -4   7  247.28   39.90 
  -4   5   7  270.77   43.20 
   4  -5   7  284.27   30.00 
  -5  -4   7  342.47   38.00 
   4  -5   7  276.27   30.70 
  -5  -4   7  342.87   57.79 
  -4   5   7  289.17   33.70 
   5   2  -7  216.08   32.50 
   2  -5  -7  183.58   21.40 
  -5  -2  -7  148.29   26.30 
  -5  -2  -7  104.39   36.30 
   2  -5  -7  200.88   21.30 
  -2   5  -7  167.28   30.30 
  -2   5  -7  228.28   56.69 
  -2   5  -7  152.68   36.50 
  -5  -2  -7  117.99   44.20 
   2  -5  -7  169.28   18.70 
  -2   5  -7  176.08   22.60 
  -5  -2  -7  150.98   27.00 
   5   2  -7  170.08   20.20 
   2  -5   7  192.88   24.10 
   2  -5   7  204.58   19.10 
  -5  -2   7  216.88   35.50 
  -5  -2   7  173.88   24.80 
  -2   5   7  174.28   23.10 
  -2   5   7  196.68   29.30 
  -5  -2   7  210.58   25.30 
  -5  -2   7  201.48   33.10 
   2  -5   7  247.38   30.70 
   0  -5  -7   11.90   15.20 
   0  -5  -7    1.80    4.90 
   5   0  -7    1.50    2.60 
   0  -5  -7   12.80    6.70 
   0   5  -7   10.60   13.70 
  -5   0  -7    4.60    6.10 
   0  -5  -7  -10.80   23.70 
   0   5  -7   -5.50   13.20 
   5   0  -7    6.10    2.90 
  -5   0  -7   -3.20   12.10 
  -5   0  -7   12.40   12.50 
   0   5  -7    1.70    3.70 
   0  -5  -7   -0.50    5.00 
   0   5  -7    3.20   17.60 
  -5   0  -7    5.10    7.10 
   0   5   7    4.20   13.90 
  -5   0   7   -2.00    7.10 
   0  -5   7    4.00    2.70 
   5   0   7    1.00    2.10 
   0  -5   7    5.50    6.60 
   5   0   7    1.30    3.80 
   0   5   7    5.80    4.60 
   0   5   7    8.50    6.40 
  -5   0   7   -2.30    3.70 
   0  -5   7    1.90    7.00 
   0   5   7   22.50   22.90 
  -5   0   7   -0.80    4.90 
   0  -5   7    4.70    9.80 
   5   0   7   11.50    6.80 
   5   0   7    7.50    8.80 
  -5   0   7    1.90    6.90 
  -5   2  -7  200.88   23.80 
  -2  -5  -7  137.79   67.59 
  -5   2  -7  244.58   27.20 
  -5   2  -7  173.58   26.20 
   2   5  -7  159.28   58.29 
   2   5  -7  226.58   35.50 
  -2  -5  -7  193.18   35.20 
  -2  -5  -7  168.68   25.70 
  -2  -5  -7  162.48   25.60 
   2   5  -7  160.38   27.80 
   5  -2  -7  208.08   17.20 
  -2  -5  -7  169.38   43.70 
   2   5  -7  185.58   22.10 
   5  -2  -7  169.88   17.20 
  -2  -5   7  147.39   36.70 
  -2  -5   7  209.38   22.30 
  -5   2   7  192.98   25.50 
   2   5   7  192.08   22.90 
  -5   2   7  200.08   21.90 
  -5   2   7  164.08   24.80 
   5  -2   7  209.78   22.90 
  -2  -5   7  146.39   26.50 
  -4  -5  -7  128.39   79.19 
   4   5  -7  270.57   32.10 
  -5   4  -7  270.87   34.80 
  -4  -5  -7  244.38   36.80 
  -5   4  -7  333.47   36.40 
   4   5  -7  292.87   31.50 
   4   5  -7  191.88   63.99 
  -4  -5  -7  351.46   40.90 
  -4  -5   7  321.27   35.70 
  -5   4   7  249.08   39.50 
   5  -4   7  312.87   27.90 
   5  -4   7  299.37   30.10 
  -4  -5   7  312.47   59.09 
  -5   4   7  278.47   41.30 
   5  -4   7  335.77   32.70 
  -5   4   7  276.77   31.80 
  -5   4   7  311.37   54.29 
  -6  -5  -7   21.70   51.29 
  -5   6  -7   19.60   11.10 
   5  -6  -7   33.40   10.00 
  -5   6  -7   37.30   13.40 
  -5   6  -7   81.09   51.99 
  -6  -5  -7   27.80   15.40 
  -6  -5  -7    6.10   34.70 
  -6  -5  -7   33.70   17.20 
   6   5  -7   30.40    8.30 
   6   5  -7    8.50   25.30 
  -5   6  -7   22.90   16.40 
   6   5  -7   62.29   16.00 
   6   5  -7   34.60    8.90 
  -5   6   7   26.50   19.30 
   5  -6   7   23.60    6.70 
   5  -6   7   31.60    6.80 
  -5   6   7   41.00   26.60 
   5  -6   7   49.60   14.90 
  -5   6   7   29.90   11.30 
  -6  -5   7   26.10   31.70 
  -6  -5   7   12.50   11.90 
  -5   6   7   38.90   23.80 
  -5   6   7   53.69   16.20 
  -6  -3  -7   32.10   17.90 
   6   3  -7   21.60    6.10 
  -6  -3  -7   17.80   35.60 
  -3   6  -7    5.30   11.20 
   6   3  -7   13.40   15.70 
   3  -6  -7   15.20   12.30 
  -3   6  -7   16.20   20.50 
   6   3  -7   13.20    5.60 
   3  -6  -7   12.70    5.10 
  -3   6  -7   17.10   40.00 
  -6  -3  -7    9.40   33.90 
   6   3  -7   33.50    8.30 
  -6  -3  -7    0.80    9.80 
  -6  -3  -7   16.80   11.50 
  -3   6  -7   19.40    9.20 
   3  -6   7   15.90    7.10 
  -3   6   7   10.70   21.90 
  -3   6   7    7.00    7.20 
  -3   6   7   20.90   29.90 
   3  -6   7   12.50    2.90 
  -6  -3   7    9.90   18.60 
  -3   6   7    0.90   10.70 
  -3   6   7   26.80   12.30 
  -6  -3   7   10.60   15.40 
   3  -6   7   25.00   13.80 
  -6  -3   7   12.50   14.20 
  -6  -3   7   13.30    9.70 
   6   1  -7   17.80   10.20 
   6   1  -7   34.90    4.60 
  -6  -1  -7   15.10   18.00 
  -6  -1  -7   19.30   11.10 
   1  -6  -7   21.70    6.80 
  -1   6  -7   44.10   37.50 
   6   1  -7   29.90    6.30 
  -1   6  -7   21.70   13.10 
  -6  -1  -7  -14.80   21.30 
   1  -6  -7   32.10    9.10 
  -6  -1  -7   36.20   14.10 
   1  -6  -7   24.70   27.40 
  -1   6  -7   41.80   21.50 
  -1   6  -7   -2.10   19.00 
   1  -6  -7   25.40    9.30 
  -1   6   7   47.30   13.90 
  -6  -1   7   25.30   14.30 
  -6  -1   7   22.90   14.30 
  -1   6   7   48.50   36.90 
  -6  -1   7   24.90   10.00 
  -1   6   7   18.00    7.70 
  -6  -1   7   17.30    9.70 
   1  -6   7   16.00    9.40 
   1  -6   7   25.70    5.50 
   1  -6   7   34.60   17.20 
   1  -6   7   44.30   13.80 
   6   1   7   43.00    6.10 
  -1   6   7   28.20   11.80 
   1   6  -7   18.40    7.30 
   1   6  -7   25.60   24.40 
   1   6  -7   41.10   29.60 
  -6   1  -7   22.10   11.00 
  -1  -6  -7   27.00   55.29 
   1   6  -7   18.40   18.30 
  -1  -6  -7   30.40   11.60 
  -6   1  -7   14.70   12.20 
  -1  -6  -7   41.50   25.30 
  -6   1  -7   46.10   17.10 
  -6   1  -7   27.20    9.40 
  -1  -6  -7   21.80   10.30 
   1   6  -7   22.20    8.50 
  -1  -6   7   19.10    5.70 
   1   6   7   99.99   47.10 
  -6   1   7   25.70   12.10 
  -1  -6   7   17.20   20.50 
   1   6   7   24.60    7.50 
  -1  -6   7   11.40    9.40 
   1   6   7   32.60    9.90 
   6  -1   7   26.10    7.10 
  -6   1   7   31.50    9.30 
  -6   1   7   12.10   11.30 
   1   6   7   65.99   19.90 
   1   6   7   57.39   15.20 
  -6   1   7   16.10    7.70 
   3   6  -7   14.00   31.50 
  -3  -6  -7  -12.10   31.70 
  -6   3  -7   14.50    7.30 
  -6   3  -7    7.60    8.80 
  -6   3  -7    4.60   10.00 
  -6   3  -7    8.00    7.70 
  -3  -6  -7    6.90    8.80 
  -3  -6  -7   11.50    9.20 
   3   6  -7   12.80    6.40 
   3   6  -7   32.60   20.50 
  -3  -6  -7   35.30   90.99 
   3   6  -7   35.30   24.00 
  -3  -6   7    8.00   12.80 
  -3  -6   7   13.20    6.30 
   3   6   7   20.00    7.50 
   3   6   7   38.00   16.60 
  -6   3   7   16.10   11.90 
   6  -3   7   16.00    5.50 
   3   6   7   75.89   44.40 
  -3  -6   7   23.30   28.10 
  -6   3   7   12.30    9.70 
  -6   3   7   13.20    7.80 
  -6   3   7   17.20   16.90 
   3   6   7   29.90   10.90 
  -6   3   7   14.40    6.00 
  -6   5  -7   15.80   10.00 
  -5  -6  -7    5.20   41.40 
   5   6  -7   44.20   43.30 
   5   6  -7   25.50    8.40 
  -5  -6  -7   19.00   15.10 
   5   6  -7   73.49   28.50 
  -6   5  -7   29.80   11.00 
  -5  -6  -7   58.39   20.60 
   5   6  -7   63.59   21.40 
  -5  -6  -7   46.00   68.19 
  -6   5  -7   11.60   10.80 
   6  -5   7   29.00    6.70 
  -5  -6   7   26.90   12.00 
  -6   5   7   31.60   17.80 
  -6   5   7   40.80   11.30 
  -6   5   7   25.40   16.00 
   6  -5   7   50.69   13.10 
  -5  -6   7   53.09   46.80 
  -6   5   7   22.20    9.20 
  -6   5   7   16.90    4.40 
  -6   5   7   17.30   22.20 
  -7  -6  -7    5.90   15.60 
  -7  -6  -7   22.80   19.60 
   6  -7  -7    3.90    7.80 
  -7  -6  -7   21.50   65.19 
   7   6  -7    3.50   11.90 
  -6   7  -7   10.30   16.10 
  -7  -6  -7   -8.90   58.69 
  -6   7  -7    0.10    8.50 
  -6   7  -7   22.10   55.99 
   7   6  -7   27.50   39.90 
   6  -7   7    7.20   15.80 
   6  -7   7    1.60    3.60 
  -6   7   7   11.90   16.00 
   7   6   7   16.60   11.70 
  -6   7   7    2.70   17.40 
  -7  -6   7  -13.80   63.79 
  -6   7   7   11.10   23.70 
   7   6   7   24.20   34.60 
   7   6   7    2.80    7.60 
  -7  -6   7    9.10   17.10 
  -6   7   7    2.60   11.10 
  -6   7   7   -6.70   20.50 
  -7  -4  -7  323.37   44.30 
   7   4  -7  247.38   51.29 
  -4   7  -7  290.37   36.80 
  -7  -4  -7  288.77   42.00 
  -7  -4   7  197.48   38.60 
  -4   7   7  315.07   47.50 
   4  -7   7  248.28   31.20 
  -4   7   7  275.07   35.70 
  -4   7   7  266.87   54.69 
  -4   7   7  338.67   40.50 
  -2   7  -7  242.38   45.10 
   2  -7  -7  290.87   31.60 
  -7  -2  -7  386.26   45.70 
   7   2  -7  340.07   43.00 
   7   2  -7  347.87   31.30 
  -2   7  -7  199.78   57.19 
  -7  -2  -7  315.17   49.40 
   2  -7  -7  389.06   36.40 
  -2   7  -7  327.87   39.40 
  -7  -2   7  327.97   42.70 
  -7  -2   7  421.66   59.29 
  -2   7   7  310.87   37.80 
   2  -7   7  326.07   38.40 
  -7  -2   7  301.37   42.90 
   2  -7   7  333.77   31.00 
  -2   7   7  330.77   44.80 
   0  -7  -7    1.10    5.50 
   0  -7  -7    2.00    7.00 
  -7   0  -7    5.60    8.80 
   0   7  -7  -13.40   18.10 
   0   7  -7   16.60   33.90 
  -7   0  -7    6.00    9.90 
   0   7  -7    2.30   30.20 
   0  -7  -7   37.30   54.29 
   0  -7  -7    8.70    9.10 
  -7   0  -7   -2.70   20.00 
   0  -7   7    0.00    8.70 
   0  -7   7    9.70    3.90 
   0   7   7    4.90    8.80 
  -7   0   7    1.70   10.10 
  -7   0   7    6.10    8.50 
   0   7   7   11.30    8.70 
  -7   0   7    5.70    7.30 
   0   7   7    0.20    4.60 
   0   7   7    6.10   40.30 
   0  -7   7   -2.10   16.60 
   7   0   7   32.50   16.60 
  -7   2  -7  317.97   48.30 
  -2  -7  -7   59.89  127.99 
  -2  -7  -7  320.77   48.90 
  -7   2  -7  377.06   43.70 
   2   7  -7  482.95   74.49 
  -7   2  -7  392.66   38.20 
  -2  -7  -7  302.07   41.30 
   7  -2   7  334.07   33.70 
  -7   2   7  350.56   41.80 
  -2  -7   7  317.57   64.59 
  -7   2   7  305.27   36.60 
  -7   2   7  284.87   35.70 
  -2  -7   7  331.47   35.30 
  -4  -7  -7  197.78   35.10 
  -7   4  -7  304.37   54.29 
   4   7  -7  127.29   91.39 
  -7   4  -7  274.57   30.00 
  -4  -7  -7  139.39  105.39 
  -4  -7  -7  358.86   44.00 
  -7   4  -7  305.17   33.10 
  -7   4  -7  204.88   32.90 
  -4  -7  -7  179.78   71.39 
  -7   4   7  220.38   42.50 
  -7   4   7  274.97   29.60 
  -7   4   7  242.68   38.00 
  -4  -7   7  239.88   32.20 
  -7   4   7  211.98   32.50 
  -7   4   7  247.18   34.40 
  -4  -7   7  214.48   66.49 
   6   7  -7   20.70   22.70 
  -6  -7  -7    2.50   12.40 
  -7   6  -7   -0.60   45.60 
  -7   6  -7    7.90   11.40 
  -6  -7  -7   17.00   21.30 
  -6  -7  -7   -5.90   66.89 
  -6  -7  -7   32.00   64.39 
  -7   6  -7    6.20   12.50 
   6   7  -7   31.50  101.09 
   6   7  -7    5.10   17.90 
  -7   6  -7   -4.50    7.80 
   6   7   7   27.00   14.60 
  -7   6   7   -9.30   17.40 
  -7   6   7    1.90    4.00 
   6   7   7    9.00    8.40 
  -7   6   7   -6.30    9.90 
  -6  -7   7    6.10   14.70 
  -7   6   7    1.40   14.80 
  -7   6   7    9.30    9.40 
  -7   6   7   -1.40   17.00 
  -6  -7   7   -5.80   41.90 
   6   7   7   -7.70   43.30 
  -7   6   7    3.00   17.70 
  -8  -5  -7  266.37   75.79 
  -8  -5  -7  292.97   45.90 
   8   5  -7  234.78   26.50 
  -8  -5  -7  245.28   43.10 
   8   5  -7  117.39   51.39 
   5  -8  -7  199.28   27.80 
  -8  -5   7  118.29   51.99 
   5  -8   7  320.47   44.90 
  -5   8   7  192.88   42.20 
  -5   8   7  149.19   44.80 
  -8  -3  -7   -7.80   13.40 
   8   3  -7    3.20    3.40 
   8   3  -7   20.60   16.20 
  -8  -3  -7   16.10   15.90 
   3  -8  -7   17.20   18.00 
  -3   8  -7    1.80   17.00 
  -3   8  -7   23.00   72.19 
   3  -8  -7   10.20    4.60 
  -8  -3  -7   -2.20   14.60 
   8   3  -7   11.40    6.10 
  -8  -3  -7   19.90   33.20 
  -3   8   7    6.80    9.10 
   3  -8   7    7.70    2.60 
  -3   8   7    0.70   12.80 
   3  -8   7    6.50    3.40 
   8   3   7   32.60   25.60 
  -8  -3   7    8.10   29.20 
  -8  -3   7    0.90   14.00 
   8   3   7   21.40    5.80 
  -3   8   7   18.40   33.70 
   8   1  -7  170.98   17.60 
  -8  -1  -7  213.98   35.40 
   1  -8  -7  216.28   26.00 
  -8  -1  -7  244.98   34.20 
  -1   8  -7  237.98   64.49 
   1  -8  -7  236.08   27.50 
  -1   8   7  246.68   33.60 
  -8  -1   7  163.88   31.20 
  -8  -1   7  180.28   30.60 
   1  -8   7  176.88   19.80 
  -1   8   7  153.98   24.40 
  -1  -8  -7  217.28   35.60 
  -1  -8  -7  232.48   31.00 
   1   8  -7  208.48   61.99 
  -8   1  -7  187.48   38.10 
  -8   1  -7  207.58   35.60 
  -8   1  -7  238.88   31.30 
  -1  -8   7  258.67   58.59 
   1   8   7  245.68   31.50 
  -8   1   7  176.28   27.40 
  -3  -8  -7   17.30   14.10 
  -8   3  -7   11.50   10.40 
  -8   3  -7   22.00   13.40 
  -8   3  -7    6.30    8.60 
   3   8  -7  -13.90   57.99 
  -3  -8  -7    4.90  109.39 
  -3  -8  -7    6.50   10.40 
   3   8  -7  125.39   73.09 
   8  -3   7   33.10   11.60 
   3   8   7   16.60   45.50 
  -3  -8   7   -2.60   30.60 
   8  -3   7    9.40    4.50 
  -3  -8   7    8.80    6.60 
  -8   3   7   10.10   12.30 
  -8   3   7    3.60    7.30 
  -8   3   7    9.30   17.20 
  -8   3   7    4.90   10.40 
  -8   3   7    8.00    9.30 
   3   8   7    0.30    6.70 
   5   8  -7   87.79   89.59 
  -8   5  -7  141.59   27.80 
  -8   5  -7  258.07   57.79 
  -5  -8  -7  379.66  183.58 
   5   8   7  248.48   29.90 
  -5  -8   7   88.39   59.49 
   4  -9  -7   14.80   15.10 
   9   4  -7    4.60    5.70 
  -9  -4  -7   -8.40   16.20 
  -4   9  -7   -3.00   27.00 
   9   4  -7    1.60    4.20 
   9   4  -7    3.40    7.40 
  -4   9  -7  -90.99   67.39 
  -4   9  -7    9.80   15.60 
  -9  -4  -7    2.10   17.60 
   4  -9   7    2.00   21.40 
  -4   9   7  -12.20   29.30 
  -4   9   7   -0.50   15.90 
   9   4   7    5.40    5.30 
  -9  -4   7   15.10   21.80 
   9   4   7    8.90    8.00 
  -4   9   7   11.90   10.80 
   9   2  -7   26.10    5.20 
  -2   9  -7   56.09   69.99 
   2  -9  -7  112.59   57.69 
  -2   9  -7   49.50   42.90 
  -2   9  -7   21.80   19.70 
   2  -9  -7   10.60    7.10 
  -9  -2  -7   25.40   21.40 
  -9  -2  -7    9.40   16.10 
   2  -9   7   13.70    6.40 
  -9  -2   7   22.50   17.30 
  -2   9   7   14.60    9.70 
  -2   9   7    9.90   41.20 
  -2   9   7   59.19   21.20 
   2  -9   7   25.10   22.60 
   0  -9  -7   10.60   79.39 
   0   9  -7   -5.90   22.90 
  -9   0  -7    0.00   12.50 
  -9   0  -7   12.20   15.40 
   0  -9  -7   -1.40   11.10 
  -9   0  -7   -7.10   24.80 
  -9   0  -7    7.90   18.10 
   0  -9  -7   12.30    9.10 
   0   9  -7   -2.00   49.80 
   0   9   7    1.60   10.10 
   0  -9   7    3.20   26.00 
   0  -9   7   -4.20    5.00 
  -9   0   7    9.40   11.70 
  -9   0   7   -0.70   11.90 
  -9   0   7    6.90   15.00 
  -9   0   7  -18.70   20.40 
   9   0   7    4.60   15.90 
   0   9   7   -8.80   43.70 
  -2  -9  -7   86.99  139.79 
   2   9  -7   70.59   46.70 
   2   9  -7  -11.00   37.90 
  -9   2  -7   41.20   13.30 
  -9   2  -7   30.10   20.10 
  -2  -9  -7   44.00   16.40 
  -2  -9  -7   14.20   16.00 
   2   9  -7   98.09   54.29 
  -9   2   7   21.90   16.60 
   2   9   7   72.49   30.50 
   2   9   7   43.60   48.40 
  -9   2   7   20.90   12.00 
   2   9   7   96.69   32.10 
  -2  -9   7   19.30   31.80 
   4   9  -7   18.10   36.80 
   4   9  -7   44.90   64.19 
  -4  -9  -7    8.00   13.70 
  -9   4  -7   15.40   13.10 
  -9   4  -7   17.00   14.50 
  -4  -9  -7   45.30  159.38 
  -4  -9  -7   28.70   22.80 
  -9   4  -7   10.00    9.30 
   4   9  -7    6.80   31.60 
  -4  -9   7   -1.30    9.00 
   4   9   7    5.40   10.10 
  -9   4   7   -3.40    8.00 
  -9   4   7    5.30   14.10 
   4   9   7   10.50   62.09 
   4   9   7   -7.20   18.40 
  -9   4   7    0.00   11.00 
  -4  -9   7    4.50   48.90 
  -3  10  -7   -8.20   35.40 
 -10  -3  -7    1.10   17.40 
   3 -10  -7   43.80   39.50 
   3 -10  -7    2.00    4.20 
 -10  -3  -7   33.10   26.50 
  10   3  -7    4.70    5.30 
  -3  10  -7   12.90   18.10 
  -3  10  -7  -13.70   83.29 
 -10  -3   7   26.20   24.20 
   3 -10   7   -5.30   25.80 
  -3  10   7   40.00   48.30 
  -3  10   7    2.70   19.00 
  -3  10   7   10.60   11.10 
   1 -10  -7  229.28   27.20 
 -10  -1  -7  216.58   36.10 
 -10  -1  -7  234.18   46.10 
   1 -10   7  126.49   26.10 
   1 -10   7  220.78   56.19 
 -10   1  -7  102.39   33.50 
 -10   1  -7  200.18   29.60 
 -10   1  -7  253.37   42.80 
  -1 -10  -7  228.98   30.50 
  -1 -10   7  160.78   53.39 
 -10   1   7  129.69   31.90 
  -1 -10   7  130.89   20.70 
 -10   3  -7   -4.60   15.30 
   3  10  -7  -13.20   61.79 
   3  10  -7    0.60   38.80 
 -10   3  -7  -14.00   18.70 
 -10   3  -7    7.60   11.70 
  -3 -10  -7    3.60   18.10 
  -3 -10  -7 -121.59  204.48 
   3  10  -7  -11.30   50.49 
 -10   3   7   26.40   15.30 
 -10   3   7   -9.70   11.30 
  -3 -10   7   17.00   88.39 
   3  10   7    3.10   26.00 
   3  10   7    6.20   10.90 
   3  10   7   -4.20   54.49 
 -10   3   7   18.60   10.80 
  -3 -10   7    7.20    8.10 
   0   0  -8 5493.05  485.05 
   0   0  -8 5408.36  483.95 
   0   0  -8 5040.60  482.85 
   0   0   8 5969.80  491.15 
   0   0   8 5404.36  482.05 
   0   0   8 5686.63  484.95 
   1   1  -8   10.40    4.70 
  -1  -1  -8    4.80   17.50 
   1   1  -8    6.70    3.50 
   1  -1  -8    6.20    4.40 
  -1   1  -8   17.40    6.20 
  -1   1  -8    7.00    4.40 
  -1  -1  -8    7.10    5.10 
   1   1  -8    4.40    2.90 
  -1   1  -8   15.60    4.90 
   1  -1  -8    4.50    4.90 
  -1  -1  -8    6.80    4.70 
   1  -1  -8    6.80    3.10 
  -1   1   8   17.00   12.40 
  -1  -1   8    4.60    2.50 
  -1   1   8   21.60    7.30 
  -1  -1   8    9.90    6.80 
  -1  -1   8    3.40    3.50 
  -1  -1   8   18.30    7.50 
   1   1   8   11.70    4.60 
   1  -1   8    6.50    3.50 
   1   1   8    9.30    3.30 
  -1   1   8   10.00    4.00 
   1  -1   8   10.20    5.50 
  -1   1   8    8.00    3.10 
  -1  -1   8    8.20    6.00 
   1   1   8   10.80    5.90 
   1  -1   8   15.90    7.60 
   1   1   8    7.30    7.10 
   1  -1   8    8.00    4.90 
  -2   0  -8  186.58   23.90 
  -2   0  -8  158.18   23.50 
   0   2  -8  188.38   21.50 
   0  -2  -8  182.78   21.70 
   2   0  -8  226.68   22.90 
   0  -2  -8  197.38   34.30 
   0   2  -8  185.78   23.70 
   0   2  -8  241.78   24.50 
  -2   0  -8  190.78   24.00 
   0  -2  -8  181.78   22.70 
  -2   0  -8  218.08   35.00 
   2   0  -8  198.28   20.70 
   2   0  -8  193.18   20.00 
   0  -2  -8  215.68   24.50 
   0  -2   8  244.78   26.00 
   0   2   8  191.68   21.30 
  -2   0   8  200.68   21.10 
   0  -2   8  213.68   20.60 
  -2   0   8  200.28   23.70 
   0  -2   8  226.08   27.00 
   2   0   8  208.08   23.30 
   2   0   8  209.98   20.60 
   0  -2   8  201.58   22.40 
  -2   0   8  205.38   28.60 
   2   2  -8 1279.57  129.09 
   2   2  -8 1212.18  140.99 
  -2  -2  -8 1321.17  133.49 
  -2  -2  -8 1414.56  135.79 
  -2   2  -8 1441.36  133.49 
   2  -2  -8 1561.64  131.59 
   2  -2  -8 1388.96  128.69 
   2  -2  -8 1481.25  137.99 
  -2   2  -8 1527.75  131.69 
  -2  -2  -8 1333.17  153.78 
   2  -2  -8 1305.67  128.09 
   2   2  -8 1442.56  131.79 
  -2  -2  -8 1388.16  134.09 
  -2   2  -8 1533.15  133.99 
  -2  -2   8 1603.74  130.19 
  -2   2   8 1362.96  129.69 
   2   2   8 1582.44  129.49 
  -2   2   8 1441.76  145.49 
  -2   2   8 1414.16  129.59 
  -2  -2   8 1467.15  136.09 
   2   2   8 1513.85  129.79 
   2  -2   8 1486.75  128.09 
  -2  -2   8 1311.67  139.19 
   2  -2   8 1656.33  136.89 
  -2   2   8 1343.57  135.99 
   2  -2   8 1564.34  133.29 
  -2  -2   8 1420.26  131.89 
   3   1  -8 1023.70   92.89 
  -1   3  -8  977.10   97.49 
   3   1  -8  977.80   91.39 
   3   1  -8 1081.79   90.29 
  -3  -1  -8  854.11  110.19 
  -1   3  -8 1003.20  101.49 
   1  -3  -8 1115.19   95.39 
  -3  -1  -8  880.51   96.69 
  -3  -1  -8  986.20   99.79 
  -1   3  -8  931.91   92.59 
   1  -3  -8  921.11   91.39 
   1  -3  -8  916.71   92.79 
  -3  -1  -8  963.70   96.49 
   3   1   8 1078.99   91.19 
   1  -3   8 1092.19   90.69 
  -3  -1   8  921.11  102.19 
  -3  -1   8  951.30   94.19 
  -3  -1   8 1075.49   92.89 
   1  -3   8 1208.88   98.59 
  -1   3   8 1001.40   97.29 
  -3  -1   8  981.70  100.99 
   3   1   8 1059.09   89.59 
  -1   3   8  970.90   92.69 
  -3  -1   8 1045.10  100.99 
   1  -3   8 1106.29  100.19 
   3  -1  -8 1087.69   88.99 
   1   3  -8  873.71  106.79 
  -1  -3  -8  961.50   95.49 
  -1  -3  -8 1301.37  141.69 
  -3   1  -8 1063.69   96.19 
   1   3  -8 1008.00   96.69 
   3  -1  -8 1085.59   95.09 
  -1  -3  -8  903.71   95.19 
  -3   1  -8 1052.69   97.69 
   3  -1  -8  965.60   93.19 
   1   3  -8  925.01   92.09 
  -3   1  -8 1011.70   95.49 
  -1  -3  -8 1011.10   96.59 
   3  -1   8 1063.99   90.99 
   1   3   8 1107.69   94.29 
  -3   1   8  991.10   91.99 
  -1  -3   8 1006.70   97.79 
  -3   1   8  933.31  102.39 
  -1  -3   8  895.71   93.79 
  -3   1   8  937.81   99.39 
  -1  -3   8 1096.29   91.79 
  -3   1   8  931.51   95.59 
   1   3   8 1045.40   92.99 
   3   3  -8  413.66   65.29 
  -3  -3  -8  524.45   87.49 
  -3  -3  -8  434.36   53.99 
   3   3  -8  520.25   48.70 
  -3   3  -8  466.95   53.39 
   3  -3  -8  549.45   46.80 
  -3  -3  -8  430.96   61.39 
   3   3  -8  531.15   52.19 
  -3  -3  -8  443.66   53.79 
  -3   3  -8  450.15   55.29 
   3  -3  -8  498.95   54.29 
  -3   3  -8  554.84   51.69 
   3   3  -8  496.15   49.30 
  -3   3  -8  488.85   53.19 
   3  -3  -8  476.55   46.80 
  -3   3   8  485.25   57.39 
  -3  -3   8  483.35   56.39 
  -3   3   8  442.46   57.49 
   3  -3   8  595.64   48.90 
   3  -3   8  512.75   46.60 
  -3   3   8  444.26   49.70 
   3   3   8  581.74   48.70 
  -3   3   8  521.55   49.70 
   3  -3   8  530.65   50.79 
  -3   3   8  581.44   72.99 
   3  -3   8  574.44   53.89 
  -3  -3   8  497.85   53.09 
   3   3   8  562.64   48.40 
  -3  -3   8  570.54   50.89 
   2  -4  -8 1116.79  112.89 
   2  -4  -8 1048.60   98.29 
   4   2  -8 1186.98  101.29 
  -4  -2  -8 1030.50  116.59 
  -2   4  -8  993.00  117.49 
  -4  -2  -8  973.20  128.19 
   2  -4  -8 1044.20   99.79 
   4   2  -8 1040.00  113.09 
   4   2  -8 1074.59   98.59 
   2  -4  -8 1195.78  101.59 
  -2   4  -8 1119.59  110.29 
  -4  -2  -8  982.50  105.59 
  -4  -2  -8  991.20  106.69 
  -2   4  -8 1094.09  101.69 
  -4  -2   8 1221.58  102.99 
   4   2   8 1256.47   98.59 
   2  -4   8 1167.38   97.89 
  -4  -2   8 1081.19  109.49 
  -4  -2   8  991.60  110.89 
   2  -4   8 1253.17  103.89 
  -2   4   8 1048.90  101.49 
  -2   4   8 1063.89  108.29 
  -4  -2   8 1020.60  103.59 
   4   0  -8   49.70    8.20 
   0   4  -8   69.69   10.00 
  -4   0  -8   47.70   12.50 
   0   4  -8   37.40   14.60 
   0   4  -8   54.19   20.40 
   0   4  -8   57.19   20.90 
   0  -4  -8   31.70    9.80 
   0  -4  -8   59.39   13.20 
   0  -4  -8   54.29   10.40 
   4   0  -8   41.40    7.20 
  -4   0  -8   69.29   17.60 
  -4   0  -8   33.00   18.40 
  -4   0  -8   28.60   10.70 
  -4   0   8   36.00   10.20 
  -4   0   8   40.60   15.10 
   0   4   8   42.10   11.90 
   0  -4   8   47.60   12.30 
  -4   0   8   51.69    8.90 
   0  -4   8   57.09    7.50 
   0  -4   8   65.09   18.90 
   4   0   8   57.39   10.80 
   0  -4   8   36.80   12.40 
   0   4   8   42.00    9.90 
  -4   0   8   50.29   15.70 
  -4   2  -8 1304.97  106.89 
   2   4  -8  995.90  101.89 
  -2  -4  -8 1008.10  106.39 
  -2  -4  -8 1076.69  117.69 
   2   4  -8 1119.69  102.09 
  -4   2  -8 1195.58  108.39 
   4  -2  -8 1128.39   99.19 
  -2  -4  -8 1247.08  178.38 
  -2  -4  -8 1055.09  111.69 
   2   4  -8 1157.88  109.19 
  -2  -4  -8  978.90  106.09 
   2   4  -8  910.71  124.79 
  -4   2  -8 1178.78  105.59 
   4  -2   8 1263.07  105.99 
  -4   2   8 1054.59  107.99 
  -2  -4   8 1199.68  102.19 
  -4   2   8 1033.20  106.69 
   4  -2   8 1168.28   97.49 
   2   4   8 1190.08  101.99 
  -2  -4   8  999.70  105.69 
  -2  -4   8  935.61  107.19 
   2   4   8 1136.29  101.99 
   4  -2   8 1206.88   98.59 
  -4   2   8 1056.89  101.59 
   4   4  -8  896.91   87.29 
  -4  -4  -8  774.52   93.39 
   4   4  -8 1120.59   93.89 
   4   4  -8  895.71  135.29 
  -4   4  -8 1000.60   90.69 
   4  -4  -8 1005.20   84.29 
  -4  -4  -8  872.21   95.09 
   4  -4  -8  942.81   85.09 
   4   4  -8  919.31   90.69 
  -4   4  -8  966.20   95.09 
   4  -4  -8  917.01   90.79 
  -4  -4  -8 1375.76  233.98 
  -4   4  -8  911.61   92.69 
  -4  -4   8  792.62   93.99 
  -4   4   8  802.32  110.69 
  -4   4   8  954.90   89.19 
   4  -4   8 1021.90   90.59 
  -4  -4   8 1041.70   91.79 
  -4   4   8  886.01   99.09 
  -4   4   8  791.42   98.29 
   4  -4   8 1009.30   83.59 
  -4  -4   8  762.72   94.59 
  -4   4   8 1101.39   92.79 
   4  -4   8  969.70   85.29 
   4   4   8 1046.70   86.19 
  -4  -4   8  960.30  109.29 
   3  -5  -8  414.36   48.30 
   3  -5  -8  353.96   35.90 
  -5  -3  -8  305.27   69.49 
  -3   5  -8  358.36   51.59 
  -3   5  -8  419.46   72.19 
  -5  -3  -8  345.47   46.60 
  -5  -3  -8  348.17   46.70 
  -3   5  -8  392.16   41.80 
   5   3  -8  326.27   54.19 
   5   3  -8  376.96   39.20 
  -5  -3   8  363.26   49.40 
  -3   5   8  373.66   49.50 
  -5  -3   8  437.76   44.50 
   3  -5   8  461.35   46.20 
   3  -5   8  398.06   35.70 
  -5  -3   8  343.47   46.10 
  -3   5   8  536.95   64.19 
  -3   5   8  539.75   78.99 
  -5  -3   8  395.76   58.29 
  -3   5   8  355.86   41.20 
   3  -5   8  421.96   39.90 
  -5  -1  -8  -10.90   16.30 
   1  -5  -8   14.50   17.30 
   5   1  -8   13.70    4.70 
  -1   5  -8    8.70    5.80 
  -1   5  -8   28.00   22.60 
  -5  -1  -8    7.20    8.70 
   1  -5  -8   13.30    5.40 
  -5  -1  -8   16.70   17.50 
   5   1  -8   12.80    4.90 
   1  -5  -8   12.10    5.90 
  -1   5  -8   11.90   14.40 
  -1   5  -8    4.50   12.70 
  -5  -1  -8   23.20   10.90 
  -1   5   8   20.30    7.20 
  -1   5   8   73.89   26.70 
  -5  -1   8   13.60    8.40 
  -1   5   8   45.10   15.20 
  -1   5   8   13.30    8.10 
  -5  -1   8   11.50   11.30 
   5   1   8   33.00    9.20 
   1  -5   8   19.40   11.70 
  -5  -1   8   24.50    8.20 
   1  -5   8   14.00    8.30 
  -5  -1   8   21.70   11.80 
  -1   5   8   36.00   27.70 
   1  -5   8   10.70    3.50 
  -1  -5  -8    9.70    7.70 
   1   5  -8    8.50   12.80 
   5  -1  -8   29.70    6.00 
  -1  -5  -8   18.70    8.40 
   1   5  -8   11.80   16.30 
  -5   1  -8   48.70   13.80 
  -5   1  -8   47.40   16.60 
   1   5  -8   17.00    7.70 
  -5   1  -8   46.50   15.60 
  -1  -5  -8   15.90   21.10 
   1   5  -8   18.70   21.70 
  -5   1  -8   12.20    7.50 
  -1  -5  -8   10.10   10.10 
  -1  -5  -8   28.00   29.10 
   5  -1   8   39.90   12.50 
   5  -1   8   26.00    7.20 
   5  -1   8   39.40    5.60 
  -1  -5   8   12.00   13.30 
  -1  -5   8   29.80    6.80 
  -5   1   8   13.30   11.60 
   1   5   8  115.39   48.80 
   1   5   8   12.80    6.00 
  -1  -5   8    6.90    8.80 
  -1  -5   8   10.30    9.10 
  -5   1   8   10.80    5.70 
   1   5   8   53.09   19.60 
  -5   1   8   15.00    8.40 
  -5   1   8   13.20   10.40 
   3   5  -8  271.27   65.99 
  -3  -5  -8  338.27   43.70 
   3   5  -8  381.06   39.50 
  -5   3  -8  399.96   41.80 
  -3  -5  -8  295.57   59.09 
   5  -3  -8  368.76   33.20 
  -3  -5  -8  347.87   62.69 
   3   5  -8  435.76   49.20 
  -5   3  -8  461.05   43.60 
   5  -3  -8  371.36   33.20 
  -5   3  -8  380.76   43.60 
   3   5  -8  363.76   38.20 
  -3  -5  -8  333.27   43.40 
   3   5   8  410.36   38.60 
   5  -3   8  420.46   39.60 
  -5   3   8  282.07   51.39 
  -5   3   8  381.36   38.60 
  -3  -5   8  437.16   40.40 
  -5   3   8  332.77   47.20 
  -5   3   8  331.97   44.50 
  -5   3   8  336.97   41.80 
  -3  -5   8  302.47   44.20 
   3   5   8  408.16   37.20 
  -3  -5   8  320.87   55.79 
  -5  -5  -8    8.80   12.00 
   5   5  -8   10.60    5.80 
  -5  -5  -8   -2.00    9.10 
  -5  -5  -8   43.20   30.70 
   5  -5  -8    7.70    5.90 
  -5  -5  -8   56.69   59.69 
  -5   5  -8    4.10   11.40 
  -5   5  -8    7.20   10.00 
  -5   5  -8    5.20   51.09 
   5   5  -8   -3.20   26.20 
   5   5  -8   14.10   10.50 
  -5   5  -8   10.30    8.60 
  -5   5   8   19.60   25.90 
  -5   5   8   23.80   16.00 
  -5   5   8   10.00    7.30 
   5  -5   8   13.20    7.70 
   5   5   8   43.90   13.60 
   5  -5   8   16.80    5.60 
  -5  -5   8   16.40   26.90 
  -5  -5   8   24.10   10.30 
  -5   5   8   26.40   13.80 
   5   5   8   65.69   30.70 
   5   5   8   32.20    9.30 
   5  -5   8   12.20    3.80 
  -5   5   8   -1.40   18.40 
  -6  -4  -8   10.60   11.60 
  -4   6  -8    6.00   44.70 
   6   4  -8   10.10   20.80 
  -6  -4  -8  -20.30   36.10 
   6   4  -8   16.70    7.00 
   6   4  -8   24.70    9.30 
  -4   6  -8   13.30    8.40 
  -6  -4  -8   17.80   12.50 
  -6  -4  -8   -3.80   20.80 
   4  -6  -8   24.50   10.90 
  -4   6  -8   17.40   16.10 
  -4   6  -8   28.50   18.00 
   4  -6  -8   17.50    4.10 
   4  -6  -8   15.60    3.10 
   4  -6   8   19.60    6.80 
  -4   6   8   19.20   10.20 
  -6  -4   8   16.40   23.80 
  -4   6   8   17.90   28.70 
   4  -6   8   15.70   10.40 
  -6  -4   8   17.00   11.30 
  -4   6   8   51.49   29.90 
  -4   6   8   56.89   20.10 
   4  -6   8   26.40    7.00 
  -4   6   8   58.19   18.00 
  -6  -2  -8   49.10   35.50 
  -6  -2  -8   59.29   19.20 
   2  -6  -8   61.09   12.00 
   2  -6  -8   68.79    9.50 
  -2   6  -8   48.20   27.30 
   6   2  -8  104.39   26.40 
  -6  -2  -8   36.00   27.00 
  -6  -2  -8   39.10   15.00 
  -2   6  -8   56.69   21.50 
  -2   6  -8   70.69   16.00 
  -2   6  -8   38.40   40.70 
   2  -6  -8   86.39   12.30 
   6   2  -8   46.70    9.60 
  -6  -2   8   64.69   15.80 
   2  -6   8   73.09   14.70 
   2  -6   8   59.09   21.30 
  -2   6   8   63.39   14.60 
  -6  -2   8   51.19   16.60 
  -2   6   8  143.99   52.79 
  -2   6   8   53.89   16.90 
  -2   6   8  140.29   39.50 
  -6  -2   8   69.79   24.70 
   2  -6   8   65.09    8.10 
  -6   0  -8 2257.37  207.98 
   0   6  -8 1912.61  193.38 
   0  -6  -8 1996.30  194.78 
   0  -6  -8 2095.49  196.48 
   6   0  -8 2025.30  188.58 
   0   6  -8 2135.59  216.58 
  -6   0  -8 1983.70  201.68 
   0  -6  -8 2219.08  196.28 
  -6   0  -8 2470.15  199.18 
   0   6  -8 2273.47  241.08 
  -6   0   8 2060.69  194.48 
   0   6   8 2083.49  193.58 
   0  -6   8 2460.15  198.88 
  -6   0   8 2257.67  202.88 
   0   6   8 2074.09  196.28 
  -6   0   8 2001.90  194.18 
  -2  -6  -8   42.90   64.19 
   2   6  -8   19.70   32.20 
  -6   2  -8   53.19   16.00 
  -2  -6  -8   65.29   54.89 
  -2  -6  -8   54.99   15.10 
  -2  -6  -8   50.59   22.10 
  -6   2  -8   59.29   13.90 
   2   6  -8   45.30   11.00 
   2   6  -8  156.68   43.70 
  -6   2  -8   65.89   17.80 
   2   6  -8   34.10   21.90 
  -2  -6  -8   63.39   17.40 
  -6   2   8   71.69   16.00 
  -2  -6   8   50.49   17.40 
   2   6   8   63.49   10.20 
   2   6   8   67.49   12.10 
  -2  -6   8   56.29   10.10 
  -6   2   8   79.99   25.70 
  -6   2   8   39.20   16.90 
  -2  -6   8   49.20   24.00 
   6  -2   8   79.19   12.00 
  -6   2   8   54.79   12.30 
  -2  -6   8   28.90   12.50 
   4   6  -8   27.00   16.60 
   4   6  -8   14.20    7.00 
  -6   4  -8   25.10   19.70 
   4   6  -8  -21.70   29.50 
  -6   4  -8   46.10   12.70 
  -4  -6  -8   22.40   13.20 
  -4  -6  -8   13.80   11.10 
  -6   4  -8   27.40   11.70 
  -4  -6  -8   54.69   39.50 
  -4  -6  -8    3.50   62.99 
   4   6  -8   37.70   25.60 
  -6   4  -8   22.10   11.10 
  -6   4   8   30.30   24.70 
   4   6   8   19.40    7.60 
  -6   4   8    0.60   12.90 
   6  -4   8   19.40    6.80 
   6  -4   8   19.80    7.40 
   4   6   8  153.08   60.69 
  -6   4   8   24.60    8.80 
  -4  -6   8   20.80   29.20 
  -6   4   8   17.80   12.20 
  -4  -6   8   18.60    8.80 
  -6   6  -8 1107.79  106.89 
  -6  -6  -8  912.41  134.99 
  -6  -6  -8 1313.97  116.49 
  -6   6  -8 1398.66  162.08 
  -6  -6  -8  826.42  171.28 
  -6  -6   8  955.10  108.49 
   6  -6   8  935.21   96.69 
  -6   6   8 1177.48  104.99 
  -6   6   8 1170.08  126.09 
   6  -6   8 1010.00   95.39 
  -6  -6   8  970.30  138.19 
  -6   6   8 1142.79  122.29 
   7   5  -8    2.10    5.70 
  -7  -5  -8   19.20   43.90 
  -5   7  -8    0.10    8.00 
  -7  -5  -8   19.00   18.30 
  -5   7  -8   -9.20   17.20 
  -5   7  -8  -20.30   57.59 
  -5   7  -8    4.10   14.00 
  -7  -5  -8  -48.50   30.10 
   5  -7  -8    0.20    6.60 
  -5   7   8  -10.80   16.80 
   5  -7   8    1.90   11.90 
   5  -7   8    2.10    4.00 
  -5   7   8   -8.30   28.00 
   7   5   8    7.00   10.00 
   7   5   8    8.40    7.20 
   7   5   8   -2.20   26.60 
   5  -7   8    5.20    4.60 
  -5   7   8    6.80   10.20 
  -5   7   8   -3.00   16.20 
  -5   7   8   21.00   27.50 
   3  -7  -8  466.85   40.50 
  -7  -3  -8  493.15   58.59 
  -3   7  -8  323.17   50.89 
  -7  -3  -8  437.36   55.39 
   3  -7  -8  360.36   37.00 
  -3   7  -8  412.86   47.50 
   7   3  -8  413.76   38.80 
   7   3  -8  377.36   54.79 
  -7  -3   8  436.96   51.89 
   3  -7   8  395.76   36.80 
  -3   7   8  408.46   46.10 
   3  -7   8  351.96   41.80 
  -3   7   8  401.06   53.99 
   1  -7  -8    1.20    6.80 
   1  -7  -8   25.60   42.20 
   7   1  -8    1.70    3.20 
  -1   7  -8   -2.50   15.70 
   1  -7  -8    9.90    6.10 
  -1   7  -8   45.50   31.10 
   7   1  -8    4.50    2.50 
  -7  -1  -8    1.00   29.90 
  -1   7  -8    6.70   41.40 
  -7  -1  -8   -1.10    9.20 
   1  -7  -8   12.30    7.10 
  -7  -1  -8    0.60   10.30 
  -7  -1  -8   -7.40   18.50 
   1  -7   8   -1.20   10.40 
  -1   7   8   -2.50   15.10 
  -7  -1   8   -4.80   14.80 
  -7  -1   8    6.10    7.90 
   1  -7   8    4.60    3.10 
  -7  -1   8    3.30   11.00 
  -1   7   8   24.20   37.70 
  -1   7   8    4.60    7.80 
   1  -7   8    9.40    9.20 
   1  -7   8    4.80   12.70 
   7   1   8   32.60   17.20 
   7   1   8   26.90    9.10 
   7   1   8    5.60    2.90 
  -1  -7  -8   37.50   20.50 
   1   7  -8   -4.90   27.00 
  -1  -7  -8  -29.20   49.99 
  -7   1  -8    5.40    9.80 
   1   7  -8    3.00   25.70 
  -1  -7  -8    0.70    7.60 
  -7   1  -8    0.70    8.20 
  -7   1  -8   -1.20   17.40 
  -1  -7   8    3.60   18.80 
  -1  -7   8    2.40   13.80 
  -7   1   8   -2.10    7.70 
   1   7   8    3.60    5.70 
   1   7   8   -0.90    9.50 
  -1  -7   8    0.90    3.70 
  -7   1   8    5.50    7.30 
  -7   1   8   -4.20   10.00 
   1   7   8   13.60   39.70 
   1   7   8    4.40    5.10 
  -7   3  -8  418.36   42.90 
  -3  -7  -8  485.65   92.79 
  -7   3  -8  403.16   46.30 
  -7   3  -8  405.46   48.60 
  -3  -7  -8  430.26   49.50 
  -3  -7  -8  331.57   46.40 
  -7   3   8  371.16   41.00 
  -3  -7   8  364.66   69.79 
  -7   3   8  302.87   47.00 
  -7   3   8  347.27   43.60 
  -7   3   8  393.56   61.09 
   7  -3   8  386.36   38.30 
  -3  -7   8  399.46   41.60 
   5   7  -8    9.70   18.60 
  -7   5  -8    4.30   34.90 
  -5  -7  -8   -9.80   14.20 
   5   7  -8    1.60   22.90 
  -7   5  -8    3.90   10.30 
  -7   5  -8   45.70   16.40 
  -5  -7  -8   28.90   85.39 
  -5  -7  -8    3.20   12.50 
   5   7  -8  -23.70   43.40 
  -5  -7  -8   35.80   56.49 
   7  -5   8    1.90    6.70 
  -5  -7   8   -6.80    7.40 
   7  -5   8    1.10    5.10 
  -7   5   8    3.30    8.90 
   5   7   8    9.60   14.10 
  -5  -7   8   -3.80   37.50 
   5   7   8    0.80   39.70 
  -7   5   8    6.50   14.90 
   5   7   8    6.30    7.20 
  -7   5   8    0.80    7.90 
  -7   5   8    6.20   15.50 
  -7   7  -8   -6.50    9.60 
  -7   7  -8   -9.50   55.69 
  -7  -7  -8  -21.80   78.39 
   7   7  -8  -15.00   53.39 
   7   7  -8    6.30   16.00 
  -7   7  -8    6.90   13.80 
  -7   7  -8    4.30   18.10 
   7  -7   8  -16.30   16.60 
  -7  -7   8    6.10   62.79 
   7   7   8   32.00   44.90 
  -7   7   8    0.70    3.60 
  -7   7   8    5.00   13.20 
   7   7   8    8.40    8.20 
  -7   7   8    5.40   20.50 
  -7   7   8   13.90   20.20 
   7   7   8   15.30   14.10 
  -8  -6  -8   41.60   30.10 
  -8  -6  -8   44.10   33.80 
  -6   8  -8    5.90   19.30 
  -6   8  -8  177.48   82.89 
   8   6  -8   32.10   14.20 
  -8  -6  -8   93.39   55.19 
  -6   8  -8   17.90   11.40 
   6  -8  -8   31.50    9.90 
  -6   8   8   30.10   30.20 
  -6   8   8   17.90   14.80 
  -8  -6   8   23.10   24.30 
  -6   8   8   49.80   26.00 
   6  -8   8   22.60    7.20 
   6  -8   8   57.59   23.60 
  -8  -4  -8  409.46   55.59 
  -4   8  -8  768.82  176.38 
   4  -8  -8  455.45   50.89 
  -8  -4  -8  368.66   52.69 
  -4   8   8  287.37   53.89 
   4  -8   8  408.96   54.29 
  -4   8   8  453.95   80.69 
  -8  -4   8  301.17   76.59 
  -8  -2  -8  435.76   75.89 
  -8  -2  -8  391.46   57.99 
   2  -8   8  477.55   62.69 
  -2   8   8  699.03  106.09 
  -8  -2   8  342.87   66.89 
  -2   8   8  525.25   58.09 
   0   8  -8   45.50   44.40 
   0  -8  -8   85.39   20.30 
   0  -8  -8  319.47  128.79 
   0  -8  -8   72.89   17.10 
   0   8  -8  213.88   83.59 
  -8   0  -8   73.39   20.00 
  -8   0  -8   84.59   26.00 
  -8   0  -8   76.19   32.20 
   0   8  -8  110.79   51.59 
   0  -8   8  107.09   37.30 
   0   8   8   56.69   13.90 
   0  -8   8   64.29   10.20 
   0   8   8   83.49   17.70 
  -8   0   8   97.39   20.70 
   0   8   8  201.08   75.69 
  -8   0   8   66.09   17.30 
  -2  -8  -8  285.47   40.70 
  -2  -8  -8  165.78  142.79 
  -8   2  -8  289.87   42.60 
  -2  -8  -8  307.87   38.80 
  -8   2  -8  345.87   45.10 
  -2  -8   8  258.37   62.89 
  -8   2   8  225.18   32.90 
  -2  -8   8  299.67   33.10 
  -8   2   8  241.98   33.60 
  -8   2   8  309.37   43.10 
   8  -2   8  294.67   29.80 
  -8   4  -8  255.87   30.60 
  -4  -8  -8  366.06  185.08 
  -8   4  -8  292.17   36.40 
  -4  -8  -8  206.88   37.00 
  -8   4   8  179.68   31.90 
  -4  -8   8  129.79   51.79 
  -8   4   8  223.18   37.70 
  -8   4   8  239.88   46.60 
  -4  -8   8  265.47   32.40 
  -8   4   8  258.97   30.60 
  -6  -8  -8  103.79   35.60 
  -6  -8  -8   37.60   21.40 
  -6  -8  -8   40.80  115.29 
  -8   6  -8   19.30   13.30 
  -8   6  -8   21.80   15.30 
  -8   6  -8   26.90   51.19 
   6   8  -8   91.69   32.10 
   6   8  -8   13.60  103.49 
  -8   6   8   28.40   21.90 
  -6  -8   8   26.60   28.50 
   6   8   8   59.09   15.00 
  -8   6   8    7.30   12.80 
   6   8   8  148.19   56.39 
  -8   6   8   10.50   18.10 
  -8   6   8    7.50   16.70 
  -9  -3  -8  206.88   42.60 
   9   3  -8  192.48   19.60 
  -3   9   8  204.78   37.60 
   3  -9   8  138.59   38.10 
  -3   9   8  237.38   65.49 
  -9  -1  -8  226.68   37.10 
   1  -9  -8  217.58   34.10 
  -9  -1  -8  269.37   44.70 
   1  -9   8  230.38   48.40 
  -9  -1   8  141.19   33.30 
  -1   9   8  267.67   37.50 
  -1   9   8  172.18   26.30 
   1  -9   8  168.68   20.20 
   1   9  -8  385.06   88.79 
  -9   1  -8  179.88   39.20 
  -9   1  -8  251.87   40.10 
  -1  -9  -8  221.68   33.20 
  -1  -9   8  194.28   52.29 
  -9   1   8  119.29   25.30 
  -9   1   8  140.19   26.80 
  -1  -9   8  151.28   19.50 
  -9   3  -8  111.69   26.30 
  -3  -9  -8  183.78   37.00 
  -3  -9  -8  149.29   28.60 
  -9   3  -8  144.69   23.00 
  -3  -9  -8    7.40  178.58 
   3   9  -8  -39.50   83.19 
  -9   3  -8   94.69   26.50 
  -3  -9   8   96.19   52.19 
  -9   3   8   84.09   26.90 
  -9   3   8   99.59   20.10 
  -9   3   8   70.19   20.90 
 -10  -2  -8  259.97   53.19 
 -10  -2  -8  314.17   58.89 
   2 -10   8  169.68   23.10 
 -10  -2   8  109.69   33.10 
   2 -10   8  270.37   53.89 
   2 -10   8  165.88   18.00 
  -2  10   8  167.38   27.20 
   0  10  -8  -61.09   43.60 
   0 -10  -8   85.59  111.99 
   0 -10  -8    1.40   11.60 
   0  10  -8   11.70   32.50 
 -10   0  -8   -0.20   20.40 
 -10   0  -8   20.70   15.60 
   0  10  -8   30.30   72.79 
   0 -10   8   -2.40    4.30 
 -10   0   8  -20.10   13.50 
 -10   0   8    0.50   13.00 
   0  10   8    6.20   43.30 
   0  10   8    9.70   55.09 
   0  10   8   -4.30   13.70 
  -2 -10  -8  252.17   35.30 
 -10   2  -8  239.88   31.50 
 -10   2  -8  230.08   40.40 
 -10   2  -8  151.48   36.00 
   2  10  -8   90.99   54.89 
  -2 -10  -8  260.97   40.20 
  -2 -10   8  167.08   22.90 
 -10   2   8  164.98   33.00 
  -2 -10   8  248.48   69.09 
 -10   2   8  127.69   29.80 
  -1   0  -9   -0.90    6.40 
   1   0  -9    1.30    2.40 
   0  -1  -9  -22.50   14.30 
   0  -1  -9    0.10    3.20 
  -1   0  -9    2.80    4.00 
  -1   0  -9    0.00    3.20 
   0  -1  -9    2.30    3.40 
   1   0  -9   -2.10    2.80 
   1   0  -9    8.60    3.40 
   0   1  -9    3.60    3.70 
   0   1  -9   11.70    4.30 
  -1   0  -9    0.00    3.80 
   0   1  -9    0.70    2.90 
   0  -1  -9   -0.20    3.00 
   0  -1   9    5.60    5.20 
   1   0   9    7.70    2.90 
   0  -1   9    0.80    1.70 
   0  -1   9    2.40    4.80 
   0  -1   9   -5.00    3.20 
   1   0   9    4.00    5.40 
   0   1   9    0.40    3.30 
  -1   0   9    4.20    9.30 
   0   1   9    2.20    5.50 
  -1   0   9    1.10    1.90 
  -1   0   9    1.60    4.30 
   0  -1   9    1.90    4.90 
   1   0   9   -1.50    3.80 
   0   1   9    1.40    2.20 
   2   1  -9 1315.97  131.39 
   1  -2  -9 1495.85  134.59 
   1  -2  -9 1305.37  131.39 
  -1   2  -9 1383.66  133.09 
  -2  -1  -9 1316.07  135.69 
  -2  -1  -9 1414.16  152.88 
  -1   2  -9 1524.15  135.99 
   2   1  -9 1625.14  131.79 
   2   1  -9 1406.76  133.49 
  -2  -1  -9 1442.86  136.79 
   1  -2  -9 1395.66  132.59 
  -1   2  -9 1387.66  135.89 
   1  -2  -9 1433.46  144.89 
  -1   2   9 1527.55  137.49 
   1  -2   9 1566.04  140.89 
   1  -2   9 1531.95  132.79 
   2   1   9 1570.84  131.09 
  -2  -1   9 1342.17  133.99 
  -2  -1   9 1485.65  139.69 
   1  -2   9 1573.34  137.39 
  -1   2   9 1666.93  140.99 
  -2  -1   9 1559.14  143.39 
   1  -2   9 1480.65  130.69 
   2   1   9 1477.05  131.49 
  -1   2   9 1472.45  134.69 
  -2  -1   9 1540.45  132.19 
  -1   2   9 1362.36  131.89 
   2  -1  -9 1429.46  128.19 
  -1  -2  -9 1444.56  133.39 
   1   2  -9 1373.66  131.99 
   2  -1  -9 1317.47  130.19 
  -1  -2  -9 1371.36  132.09 
  -1  -2  -9 1263.77  131.59 
  -2   1  -9 1428.16  133.59 
   1   2  -9 1562.94  131.89 
   2  -1  -9 1231.38  127.79 
  -2   1  -9 1346.67  132.59 
  -2   1  -9 1499.75  132.29 
   1   2  -9 1369.66  129.29 
  -1  -2   9 1374.66  130.79 
  -2   1   9 1496.25  142.09 
  -2   1   9 1375.26  128.89 
  -1  -2   9 1279.37  137.49 
   2  -1   9 1626.14  134.99 
  -1  -2   9 1471.45  128.69 
  -1  -2   9 1451.05  134.69 
   2  -1   9 1534.55  138.19 
   2  -1   9 1507.55  127.89 
  -1  -2   9 1632.74  139.49 
  -2   1   9 1404.46  133.99 
   2  -1   9 1644.14  129.79 
   1   2   9 1415.06  129.19 
  -3  -2  -9   26.90   10.90 
   3   2  -9   29.40    8.40 
   3   2  -9   36.00    7.30 
  -3  -2  -9   42.20   28.70 
  -2   3  -9   24.20   10.10 
  -3  -2  -9   46.70   16.40 
  -3  -2  -9   63.79   14.90 
   2  -3  -9   28.40    6.30 
   2  -3  -9   45.20   17.30 
   2  -3  -9   28.40    7.00 
  -2   3  -9   32.30   10.50 
  -2   3  -9   37.30    9.40 
   2  -3  -9   46.50   10.20 
   3   2  -9   46.20    6.80 
  -3  -2   9   37.60   11.00 
  -2   3   9   29.90   12.10 
  -2   3   9   58.59   26.50 
  -3  -2   9   48.20   16.30 
   2  -3   9   50.99   14.20 
   3   2   9   37.80    5.80 
  -2   3   9   43.80   17.00 
  -2   3   9   46.50   11.60 
   2  -3   9   41.90    6.30 
   2  -3   9   54.09   13.80 
   3   2   9   39.30    6.70 
  -2   3   9   34.90    8.20 
  -3  -2   9   30.50   13.80 
  -3  -2   9   43.30    8.50 
   3   2   9   70.79   14.10 
  -3   0  -9    4.00    7.50 
   0  -3  -9    0.00    3.90 
   3   0  -9    0.00    2.40 
   0  -3  -9   -0.30    4.10 
  -3   0  -9    4.90    5.10 
  -3   0  -9   28.90   18.20 
   3   0  -9    0.20    1.60 
   0   3  -9    1.90    3.50 
   0  -3  -9   -4.90   13.80 
   0   3  -9    3.80    5.80 
  -3   0  -9   -1.00    3.90 
   3   0  -9   -0.10    2.90 
  -3   0   9    1.00    2.50 
   0   3   9    4.20   16.80 
   0  -3   9    0.50    1.80 
  -3   0   9    3.40    7.20 
  -3   0   9    4.50    5.50 
   0   3   9    5.70   10.60 
   3   0   9    6.70    3.40 
   0   3   9  -12.50    7.10 
   0  -3   9   -1.10    4.50 
   3   0   9   -1.40    4.10 
  -3   0   9    0.30    7.80 
   3   0   9    6.80    7.40 
   3   0   9    2.40    2.20 
   0   3   9    0.20    2.70 
   0  -3   9    1.50    5.20 
   0  -3   9    2.60    6.30 
   0   3   9   15.00    6.60 
   2   3  -9   36.80    8.40 
  -2  -3  -9   23.60    9.50 
  -3   2  -9   55.49   13.20 
   3  -2  -9   32.90    5.10 
  -3   2  -9   42.50   11.30 
   3  -2  -9   45.50    9.50 
  -2  -3  -9   21.80   11.60 
   3  -2  -9   36.60    6.10 
   2   3  -9   30.50    9.80 
  -3   2  -9   38.10   11.40 
   2   3  -9   26.50   14.40 
  -2  -3  -9   30.50   25.80 
   3  -2   9   55.89    8.20 
   2   3   9   39.50    7.10 
   3  -2   9   38.60    5.60 
   2   3   9   95.29   28.40 
  -3   2   9   36.90   12.80 
  -3   2   9   34.80    8.20 
  -2  -3   9   28.40    9.40 
  -3   2   9   16.60   13.10 
   3  -2   9   43.10    9.40 
  -2  -3   9   19.20    9.80 
  -2  -3   9   20.80   10.70 
  -2  -3   9   41.00    7.50 
  -3   4  -9   12.80    7.60 
  -4  -3  -9   -9.20   57.89 
   4   3  -9   69.79   42.30 
  -3   4  -9   20.40   18.50 
   3  -4  -9   44.90   15.00 
  -4  -3  -9   38.20   13.40 
  -4  -3  -9   24.20   21.10 
   4   3  -9   14.50    6.40 
   3  -4  -9   15.90    4.40 
  -3   4  -9   28.00    9.20 
   4   3  -9   24.20    6.00 
   4   3  -9   30.90    8.30 
   3  -4  -9   21.60    5.00 
   3  -4  -9   16.20    6.00 
  -3   4  -9   22.80   12.90 
  -4  -3  -9   18.20   10.40 
  -3   4   9   20.70   11.70 
   3  -4   9   21.00    6.40 
   3  -4   9   46.50   13.50 
  -3   4   9   15.20    6.40 
  -3   4   9   15.10   10.80 
  -4  -3   9   33.50   14.60 
  -4  -3   9   26.80   11.40 
   4   3   9   56.89   16.30 
   4   3   9   17.60    5.10 
   3  -4   9   25.50    8.10 
  -4  -3   9   19.60    7.70 
  -3   4   9   24.60   17.20 
  -3   4   9   11.40   24.10 
   4   3   9   14.20    4.60 
  -1   4  -9  672.83   74.59 
  -4  -1  -9  803.32   79.99 
   1  -4  -9  708.33   84.79 
   4   1  -9  661.43   62.79 
  -4  -1  -9  690.53   71.19 
   1  -4  -9  716.93   68.09 
   4   1  -9  666.63   64.59 
  -4  -1  -9  601.64   71.49 
  -4  -1  -9  597.14   86.39 
  -1   4  -9  672.43   80.89 
   4   1  -9  785.92   62.79 
   1  -4  -9  629.44   66.69 
  -1   4  -9  641.44   66.69 
  -4  -1   9  593.34   82.49 
  -4  -1   9  809.92   83.19 
  -1   4   9  674.53   66.79 
   1  -4   9  790.32   71.59 
   4   1   9  770.32   63.59 
   1  -4   9  736.63   74.39 
  -4  -1   9  637.84   68.19 
  -4  -1   9  767.72   67.49 
   1  -4   9  756.02   63.89 
  -4  -1   9  579.44   76.09 
  -1   4   9  673.03   70.89 
  -4   1  -9  752.92   71.49 
  -1  -4  -9  694.63   68.69 
  -1  -4  -9  793.22  116.29 
  -1  -4  -9  626.14   67.39 
  -1  -4  -9  703.53   69.29 
   4  -1  -9  695.93   62.09 
   1   4  -9  563.44   82.19 
  -4   1  -9  662.53   67.89 
  -4   1  -9  704.73   71.29 
   1   4  -9  685.13   71.69 
  -4   1   9  663.73   71.79 
  -4   1   9  607.64   67.59 
   1   4   9  659.13   64.49 
  -1  -4   9  673.13   67.39 
   4  -1   9  672.73   63.99 
  -4   1   9  656.23   75.99 
  -1  -4   9  602.54   73.89 
  -1  -4   9  766.92   63.59 
  -1  -4   9  652.73   70.19 
  -4   1   9  700.53   64.59 
  -4   3  -9    3.10    8.20 
  -3  -4  -9   19.20   19.30 
   3   4  -9   15.50    9.10 
  -3  -4  -9   19.00    9.60 
  -3  -4  -9   12.40    8.60 
  -4   3  -9   30.20   11.20 
  -3  -4  -9   -6.50   28.80 
   3   4  -9   12.90    5.80 
   3   4  -9   29.60   31.90 
   3   4  -9   28.30    6.90 
  -4   3  -9   11.00    7.60 
  -3  -4   9    2.70    8.90 
   4  -3   9   21.30    7.60 
  -4   3   9   38.20   21.10 
   3   4   9   55.09   17.60 
   4  -3   9   19.40    3.70 
  -3  -4   9   23.00   16.30 
  -3  -4   9   29.00   12.20 
   3   4   9   20.40    5.70 
  -4   3   9   17.90    6.10 
   4  -3   9   29.40    8.30 
  -4   3   9   36.70   15.40 
   4  -3   9   16.40    3.70 
  -3  -4   9   23.40    7.00 
  -4   3   9   17.40   10.20 
   5   4  -9  499.45   47.00 
  -4   5  -9  407.36   74.69 
   4  -5  -9  505.05   52.69 
   4  -5  -9  479.55   45.10 
   5   4  -9  379.66   69.09 
   5   4  -9  582.34   54.09 
  -5  -4  -9  413.76   55.39 
   4  -5  -9  487.35   43.70 
  -4   5  -9  526.55   54.29 
   5   4  -9  454.55   47.70 
  -5  -4  -9  406.56   57.39 
  -4   5  -9  411.76   56.29 
  -4   5  -9  423.36   52.39 
  -4   5   9  493.85   61.19 
  -5  -4   9  516.55   52.89 
   4  -5   9  516.35   45.70 
   4  -5   9  489.95   43.00 
  -4   5   9  509.45   80.69 
   4  -5   9  470.95   47.50 
  -4   5   9  459.55   50.09 
  -5  -4   9  481.75   69.29 
  -5  -2  -9  881.91   90.49 
   2  -5  -9  830.12   80.99 
  -5  -2  -9  835.22  105.79 
   2  -5  -9  866.91   83.59 
   5   2  -9  899.91   96.09 
   2  -5  -9  987.40  100.99 
  -5  -2  -9  755.72   90.19 
  -5  -2  -9  761.02  109.99 
  -2   5  -9  775.72   96.09 
   5   2  -9  892.01   82.69 
  -2   5  -9  938.31  111.89 
   2  -5  -9  920.11   83.59 
  -2   5   9  806.82   85.09 
  -5  -2   9  973.10   98.39 
  -2   5   9  815.12   90.99 
  -5  -2   9 1021.70   87.59 
   5   2   9  987.70   80.29 
  -5  -2   9  775.82   86.89 
   2  -5   9 1050.69   87.09 
  -5  -2   9  861.71   95.29 
   2  -5   9  968.10   80.59 
   0   5  -9  -10.70   15.00 
   0   5  -9   10.40    6.70 
  -5   0  -9    0.00   14.80 
  -5   0  -9    2.40    6.70 
   0  -5  -9    0.30    4.50 
   0  -5  -9   13.60   27.30 
  -5   0  -9    0.30    6.40 
   0  -5  -9    0.90    4.60 
  -5   0  -9    2.40   14.40 
   0   5  -9   -9.30    9.90 
   5   0  -9   -1.90    3.00 
   0   5  -9   10.00   16.80 
   5   0  -9    5.10    3.70 
   0  -5   9   -0.80    2.20 
   0  -5   9   40.80   19.40 
   0   5   9   11.10   27.00 
   5   0   9   -3.80    4.00 
   0  -5   9    3.30    7.40 
   5   0   9    2.30    1.80 
  -5   0   9    6.30    7.50 
   5   0   9    2.90    3.00 
  -5   0   9    4.90   11.00 
  -5   0   9   -0.30    8.10 
   0   5   9  -17.00   16.20 
  -5   0   9    1.90    4.20 
   0   5   9   14.90   12.70 
  -2  -5  -9  811.62   90.59 
  -2  -5  -9  764.32  143.19 
   2   5  -9 1032.60   99.39 
  -5   2  -9  955.50   94.79 
  -2  -5  -9  893.61  109.49 
  -2  -5  -9  885.11   98.69 
   2   5  -9  886.51   87.49 
  -5   2  -9 1105.39   94.99 
   2   5  -9  910.81   87.09 
  -2  -5  -9  774.02   90.69 
   5  -2  -9  962.00   83.49 
  -5   2  -9 1008.50   91.29 
   2   5  -9  920.71  139.59 
   5  -2   9 1040.60   90.29 
   2   5   9 1006.40   87.59 
  -5   2   9  841.32   92.49 
  -5   2   9  875.61   86.99 
  -2  -5   9  954.80   86.49 
   2   5   9  996.60   86.59 
  -2  -5   9  833.92  102.39 
  -5   2   9  901.01   91.99 
  -4  -5  -9  457.45   55.59 
  -4  -5  -9  305.27  101.69 
  -5   4  -9  492.05   52.99 
  -4  -5  -9  420.26   53.19 
  -5   4  -9  450.35   53.19 
  -5   4  -9  417.16   57.39 
   4   5  -9  454.05   47.20 
   4   5  -9  617.84   61.59 
  -4  -5   9  501.55   50.39 
  -5   4   9  448.26   58.09 
  -4  -5   9  428.56   68.09 
   5  -4   9  514.85   43.20 
  -5   4   9  469.25   72.39 
   5  -4   9  551.14   49.99 
  -5   4   9  415.46   57.39 
  -5   4   9  418.86   48.20 
   5  -4   9  508.95   47.40 
   5  -6  -9   47.90   12.30 
  -5   6  -9   29.80   13.20 
  -6  -5  -9    8.90   25.90 
   6   5  -9   57.39   11.20 
   6   5  -9   52.79   14.50 
  -6  -5  -9   24.80   16.00 
  -6  -5  -9   10.20   42.50 
  -5   6  -9   34.50   16.60 
   6   5  -9   30.60   34.90 
  -5   6  -9   15.90   16.80 
  -5   6  -9   52.59   49.80 
  -5   6   9   37.90   13.70 
  -6  -5   9   31.00   29.40 
   5  -6   9   34.90    7.30 
  -5   6   9   50.89   32.30 
   5  -6   9   36.80    8.40 
  -5   6   9    1.80   25.70 
  -5   6   9   53.69   21.00 
  -6  -5   9   37.10   13.90 
   5  -6   9   55.79   15.90 
   6   3  -9    7.90    8.50 
  -6  -3  -9    4.50   11.00 
  -3   6  -9   -5.40   17.30 
   3  -6  -9    2.80    4.70 
  -3   6  -9   -6.20    8.70 
   6   3  -9    2.20    3.80 
   6   3  -9    3.00    5.10 
  -6  -3  -9   10.90   32.80 
   3  -6  -9    2.60   11.80 
   3  -6  -9   -3.50    2.60 
   6   3  -9    9.70   14.70 
  -3   6  -9   15.60   36.10 
  -6  -3   9    7.80   17.20 
   3  -6   9   -0.20    5.30 
   3  -6   9    0.90    8.00 
  -3   6   9   -4.40   24.70 
   6   3   9   35.90   23.50 
   6   3   9   12.90    5.00 
  -3   6   9    2.20    6.50 
  -3   6   9  -16.90   28.30 
  -3   6   9    3.40   13.50 
   6   3   9    8.50    7.20 
   3  -6   9    2.20    8.70 
  -3   6   9    8.90   12.00 
   6   3   9    8.40    7.80 
   3  -6   9    3.70    2.20 
  -6  -1  -9   27.70   25.00 
  -6  -1  -9   73.39   18.50 
  -1   6  -9   68.39   36.20 
   6   1  -9   47.80    9.40 
   1  -6  -9   56.49   29.70 
  -1   6  -9   41.10   11.80 
   1  -6  -9   38.30    9.70 
   1  -6  -9   45.70   11.70 
  -1   6  -9   43.20   23.60 
  -6  -1  -9   28.10   22.50 
   1  -6  -9   67.59   12.70 
  -1   6  -9   31.70   19.40 
   1  -6   9   51.99   17.70 
  -1   6   9  139.89   54.79 
  -1   6   9   63.99   16.80 
   1  -6   9   50.19   20.80 
  -6  -1   9   52.89   19.30 
   1  -6   9   51.39    7.60 
  -1   6   9  136.59   41.20 
  -1   6   9   55.49   12.80 
  -6  -1   9   66.79   14.80 
  -1  -6  -9   45.60   13.90 
  -1  -6  -9   44.30   15.40 
  -1  -6  -9   38.80   52.99 
   1   6  -9   96.69   39.10 
  -1  -6  -9   47.50   13.40 
   1   6  -9   30.50   25.10 
   6  -1  -9   48.40    7.10 
  -1  -6  -9   86.19   33.70 
  -6   1  -9   65.49   21.70 
  -6   1  -9   59.09   14.40 
   1   6  -9   62.29   12.30 
  -6   1   9   24.10   14.60 
  -1  -6   9   55.79   22.90 
  -1  -6   9   22.10   11.60 
  -6   1   9   44.50   11.50 
  -6   1   9   34.30   12.60 
  -1  -6   9   52.39    8.50 
  -6   1   9   60.49   16.90 
  -3  -6  -9    4.20    7.70 
  -6   3  -9    8.40    8.20 
  -3  -6  -9   -2.80    6.70 
  -6   3  -9    8.90    9.10 
   3   6  -9    2.90    5.30 
  -3  -6  -9    1.50   65.89 
   3   6  -9    2.20   14.50 
   3   6  -9  -22.20   31.20 
  -6   3  -9   -1.90   11.80 
   3   6   9    6.90    4.80 
   6  -3   9    3.70    5.70 
   3   6   9   45.90   38.10 
  -6   3   9    4.80   12.30 
  -3  -6   9    3.80    4.80 
  -6   3   9    1.00    5.30 
  -3  -6   9    0.60   17.80 
  -6   3   9    4.20    8.90 
   3   6   9   11.80    5.00 
   6  -3   9   18.30    6.80 
  -6   3   9   18.70   17.60 
  -5  -6  -9   62.19   24.50 
  -5  -6  -9  -10.00   35.80 
  -5  -6  -9   14.00   56.59 
  -6   5  -9   29.30   13.00 
   5   6  -9   37.70   48.20 
  -6   5  -9   51.49   16.00 
   5   6  -9   45.70   10.60 
   5   6  -9   55.69   20.70 
  -6   5  -9   41.90   31.90 
   6  -5   9   33.70    5.50 
   6  -5   9   39.60    8.70 
  -6   5   9   13.40   20.20 
  -5  -6   9   31.60   31.40 
  -6   5   9   62.19   37.10 
  -6   5   9   40.80   12.80 
   6  -5   9   46.90   11.30 
  -6   5   9   27.00   29.30 
  -6   7  -9  -67.29   54.89 
  -6   7  -9    2.10    9.20 
  -7  -6  -9    9.30   38.40 
   7   6  -9    3.70   12.60 
   7   6  -9   34.00   47.00 
  -7  -6  -9   25.20   54.79 
  -7  -6  -9   26.80   18.80 
  -7  -6  -9   23.70   17.80 
   7   6   9   60.69   41.00 
  -6   7   9   15.70   23.30 
  -7  -6   9  -10.90   38.40 
  -6   7   9   34.00   30.20 
   7   6   9   25.10   10.10 
  -6   7   9   13.30   13.50 
   6  -7   9   10.90    4.80 
  -7  -6   9    6.90   13.40 
  -6   7   9   12.80   19.30 
   7   4  -9  124.39   40.10 
  -7  -4  -9  183.98   35.00 
   4  -7  -9  174.88   16.60 
  -7  -4  -9  204.48   33.60 
   4  -7  -9  156.08   15.60 
   7   4  -9  144.19   19.30 
  -7  -4  -9  115.69   50.79 
  -7  -4   9  200.38   59.29 
   4  -7   9  202.08   29.80 
  -7  -4   9  137.79   30.80 
   4  -7   9  144.69   20.20 
  -4   7   9  303.57   72.69 
  -4   7   9  142.59   25.20 
  -4   7   9  155.38   37.10 
   7   2  -9  542.75   53.39 
   7   2  -9  551.54   51.29 
   2  -7  -9  448.96  101.39 
  -2   7  -9  543.85  112.59 
  -2   7   9  638.84  103.89 
  -2   7   9  636.94   68.79 
  -7   0  -9   -2.80    9.20 
  -7   0  -9  -21.30   22.60 
   0   7  -9   12.80   27.10 
   0  -7  -9    4.70    9.40 
   7   0  -9    0.90    1.90 
   0   7  -9    5.20   29.90 
   0  -7  -9    0.30    6.30 
  -7   0  -9   -5.70    8.80 
   0  -7  -9   -3.10    6.60 
   0   7  -9  -43.40   58.29 
   0  -7  -9   39.90   59.79 
   7   0  -9    2.50    2.70 
   0   7   9    8.80   38.20 
   0   7   9   -3.50    5.50 
   0   7   9    1.40   12.50 
   7   0   9   -6.80   10.60 
  -7   0   9   10.50    8.80 
   0  -7   9   -5.80   14.20 
  -7   0   9    7.60   10.50 
   0  -7   9    1.60   11.20 
   0   7   9   -4.50    5.10 
  -7   2  -9  296.47   34.90 
  -2  -7  -9  264.47   35.30 
   2   7  -9  398.76   62.99 
  -2  -7  -9  156.68   97.79 
  -2  -7  -9  273.17   36.80 
  -7   2  -9  253.27   38.50 
  -7   2  -9  342.17   43.70 
  -7   2   9  232.48   31.70 
  -2  -7   9  204.98   51.49 
   2   7   9  298.47   32.80 
   7  -2   9  282.37   30.40 
   2   7   9  281.67   29.80 
  -2  -7   9  238.98   29.10 
   4   7  -9   56.19   54.89 
  -4  -7  -9   23.10   89.39 
  -7   4  -9  164.48   23.90 
  -7   4  -9  165.78   30.70 
  -4  -7  -9  151.88   29.30 
  -7   4   9  130.39   45.80 
   7  -4   9  161.08   19.50 
  -7   4   9  115.59   36.70 
  -7   4   9  137.09   21.90 
  -7   4   9  156.98   25.00 
  -4  -7   9  140.29   23.90 
  -4  -7   9  189.08   55.29 
  -7   6  -9    5.70   11.20 
  -6  -7  -9   19.60   16.90 
  -7   6  -9   11.90   14.50 
  -7   6  -9   12.30   44.10 
   6   7  -9  -21.40   63.59 
  -6  -7  -9   -0.40   63.99 
  -6  -7  -9   23.40   16.70 
  -7   6  -9   15.50   17.10 
   6   7  -9   25.00   20.20 
  -6  -7  -9   27.90  115.39 
  -7   6   9   10.50   23.60 
  -7   6   9    6.70   16.80 
   6   7   9   29.30   10.70 
  -6  -7   9    0.70   11.70 
  -7   6   9   -6.10   11.00 
   7  -6   9   21.80   11.80 
   6   7   9   35.00   15.30 
   6   7   9   53.59   46.80 
   5  -8  -9  432.06   50.09 
  -8  -5  -9  549.25   59.79 
  -8  -5  -9  567.24   67.39 
  -8  -5  -9  546.45   64.29 
  -5   8   9  347.47   51.49 
  -5   8   9  423.16   79.89 
  -5   8   9  449.16   71.89 
  -5   8   9  383.56   64.09 
   5  -8   9  486.35   58.49 
  -8  -3  -9  -36.80   42.30 
  -3   8  -9    6.10   17.00 
   3  -8  -9    0.70    3.70 
  -8  -3  -9   19.70   16.60 
  -3   8  -9   14.90   64.19 
   8   3  -9   26.90   16.10 
   3  -8  -9   12.10    6.40 
   8   3  -9    7.80    4.50 
  -3   8  -9  -21.50   26.30 
   3  -8  -9   34.10   23.00 
  -8  -3  -9   32.20   19.50 
  -3   8   9  -13.10   40.00 
   8   3   9   48.90   30.90 
   3  -8   9    5.50    3.80 
  -8  -3   9   -0.60   13.90 
  -3   8   9   28.30   20.40 
  -8  -3   9   10.70   28.40 
   3  -8   9    1.50   14.90 
  -3   8   9   20.90   10.40 
  -3   8   9   -0.70   11.60 
  -8  -1  -9  596.84   89.19 
   1  -8  -9  388.16   42.20 
   1  -8  -9  499.05   49.10 
   1  -8  -9  437.26   46.40 
  -8  -1   9  412.86   62.89 
  -8  -1   9  352.56   48.80 
   1  -8   9  359.46   38.60 
   1  -8   9  506.95   63.59 
  -1   8   9  342.57   44.10 
  -8   1  -9  463.15   47.50 
  -1  -8  -9  347.27   45.80 
   1   8  -9  386.26   91.59 
  -8   1  -9  372.76   58.29 
  -1  -8  -9  800.72  199.08 
  -1  -8  -9  409.06   46.60 
  -8   1   9  337.27   43.70 
   1   8   9  363.76   40.40 
  -8   1   9  319.77   43.00 
  -1  -8   9  497.55   70.89 
  -8   1   9  372.06   53.99 
  -1  -8   9  333.37   37.70 
   1   8   9  437.46   45.20 
   3   8  -9   37.60   33.10 
  -3  -8  -9    0.90   12.20 
  -3  -8  -9    4.30   12.30 
   3   8  -9   41.30   41.30 
   3   8  -9    5.40   49.20 
  -8   3  -9   14.10   11.20 
  -3  -8  -9 -156.28  184.68 
  -8   3  -9   16.40   14.50 
  -8   3   9   -0.50   10.40 
  -3  -8   9    4.90    6.10 
  -3  -8   9    5.20   29.20 
   3   8   9   22.00   43.50 
  -8   3   9   -5.40   19.00 
  -8   3   9  -13.30   12.40 
   8  -3   9   17.30    6.30 
  -8   3   9   13.30    9.50 
   3   8   9   38.00   18.40 
   3   8   9   21.90    9.00 
  -5  -8  -9  599.04   72.79 
  -5  -8  -9  341.27  158.98 
  -5  -8  -9  509.65   69.09 
   8  -5   9  647.04   58.89 
   5   8   9  570.44   60.89 
  -4   9  -9  116.99   92.29 
  -4   9  -9   23.80   28.20 
   9   4  -9   65.39   12.30 
   4  -9  -9   59.99   23.50 
  -9  -4  -9   47.30   23.20 
  -9  -4  -9   46.50   26.70 
   9   4  -9   47.90   11.20 
   4  -9   9   25.60   20.90 
  -9  -4   9    4.10   22.80 
   9   4   9   60.99   11.30 
  -4   9   9   52.79   47.90 
  -4   9   9   20.40   20.40 
   9   4   9   93.89   16.50 
  -9  -2  -9   59.19   22.40 
   2  -9  -9   38.10   11.20 
  -2   9  -9   13.60   20.90 
  -9  -2  -9   56.69   24.80 
   2  -9  -9   40.50    9.10 
  -2   9  -9   86.89   42.40 
  -9  -2   9   24.20   26.20 
   2  -9   9   53.39   23.60 
  -2   9   9   39.60   13.00 
  -2   9   9   50.39   18.40 
   2  -9   9   25.60    9.70 
  -2   9   9   89.09   52.69 
   2  -9   9   26.20    5.80 
  -9   0  -9    1.90   15.90 
   0  -9  -9   35.40   92.49 
   0   9  -9    3.40   42.10 
   0   9  -9    5.60   27.20 
   0  -9  -9    5.40    8.50 
   0  -9  -9    5.30   11.30 
  -9   0  -9   16.00   14.60 
   0   9  -9  -39.80   64.79 
  -9   0   9   -9.00   11.50 
   0   9   9  -32.60   53.19 
   0   9   9    5.40    7.10 
   0   9   9    0.70    9.10 
   0  -9   9    2.90    4.10 
  -9   0   9   -3.90   13.50 
   0  -9   9  -13.10   22.70 
  -9   2  -9   46.60   16.30 
  -9   2  -9   36.80   26.90 
  -2  -9  -9   31.50   18.90 
  -2  -9  -9   44.50  165.88 
  -9   2  -9   53.29   22.10 
   2   9  -9  142.79   70.09 
   2   9  -9  -10.00   43.30 
   2   9  -9   91.79   53.29 
  -2  -9  -9   17.80   13.50 
   2   9   9  127.29   36.00 
  -9   2   9   16.40   12.80 
   2   9   9   70.29   17.50 
   2   9   9  130.19   64.39 
   9  -2   9   45.80    9.90 
  -9   2   9   65.69   20.90 
  -9   2   9   17.80   22.60 
  -2  -9   9   30.40    9.30 
  -2  -9   9   17.90   34.20 
   4   9  -9   31.70   35.00 
  -9   4  -9   30.20   19.30 
   4   9  -9   32.90   41.20 
  -9   4  -9   22.90   20.40 
  -4  -9  -9   25.90   27.10 
  -4  -9  -9   83.19  200.68 
  -9   4  -9    6.00   13.20 
  -4  -9  -9   31.40   21.30 
   4   9   9  118.19   71.89 
  -9   4   9   10.80   21.00 
  -9   4   9    6.50   17.20 
  -9   4   9    9.00   16.10 
  -4  -9   9   12.20   47.80 
   4   9   9   89.09   26.70 
  -9   4   9    1.10   10.80 
   4   9   9   30.70   11.40 
   0   0 -10    9.80    5.20 
   0   0 -10    3.30    4.20 
   0   0 -10   12.10    5.10 
   0   0  10   13.90   11.10 
   0   0  10   14.40    4.10 
   0   0  10    3.00    4.70 
  -1  -1 -10   46.30   11.80 
  -1   1 -10   44.70   10.50 
   1   1 -10   46.30   11.30 
  -1  -1 -10   36.20   15.90 
   1   1 -10   40.40    8.10 
  -1   1 -10   36.30   10.00 
  -1   1 -10   65.29   12.60 
   1  -1 -10   46.20    8.50 
   1  -1 -10   41.10    8.30 
   1  -1 -10   40.90   10.20 
  -1  -1 -10   41.60   11.40 
   1   1  10   54.69    8.10 
  -1  -1  10   47.90   11.60 
   1   1  10   73.89   15.10 
   1  -1  10   57.89    7.70 
  -1  -1  10   71.29   16.20 
   1   1  10   68.69   10.90 
  -1  -1  10   33.70   12.20 
   1  -1  10   60.39   16.50 
  -1  -1  10   67.29   22.20 
  -1   1  10   50.29    7.90 
  -1   1  10   77.09   25.50 
   1  -1  10   61.59   16.50 
   1   1  10   40.00   10.40 
   1  -1  10   48.90   10.20 
   1   1  10   95.09   23.30 
  -1  -1  10   43.90    7.30 
   0  -2 -10 1007.30   93.49 
   2   0 -10  957.70   91.49 
   0  -2 -10  876.61   91.29 
   0   2 -10 1061.99   93.69 
   0   2 -10  967.10   90.89 
  -2   0 -10  945.21   94.19 
   2   0 -10  844.42   88.49 
   0   2 -10  935.91   93.89 
  -2   0 -10  847.72   93.49 
  -2   0 -10 1016.10  110.49 
  -2   0 -10 1016.80   94.39 
   0  -2 -10 1001.10  109.09 
   2   0 -10  916.21   89.19 
   0  -2 -10  917.11   90.99 
   0  -2  10 1036.20   89.09 
   0  -2  10  933.51   91.19 
   0   2  10  962.70   89.89 
  -2   0  10  980.90   89.79 
   0  -2  10  954.50   99.39 
   2   0  10 1040.80   89.09 
  -2   0  10  936.51   93.29 
   0   2  10 1086.09   94.99 
   0   2  10 1080.59   93.29 
   2   0  10 1055.79   93.09 
   0  -2  10 1175.18   98.79 
   2   2 -10  125.29   16.50 
  -2  -2 -10  157.08   22.90 
   2   2 -10  149.29   18.10 
   2  -2 -10  127.89   15.90 
  -2  -2 -10  130.29   20.50 
   2  -2 -10  136.79   18.00 
  -2   2 -10  119.89   19.60 
  -2   2 -10  132.99   19.00 
  -2  -2 -10  219.98   53.39 
   2   2 -10  118.89   18.00 
  -2  -2 -10  129.19   19.80 
  -2   2 -10  120.19   19.80 
   2  -2 -10  180.58   26.80 
   2   2  10  151.18   16.50 
   2  -2  10  134.59   22.70 
  -2  -2  10  127.49   22.20 
   2   2  10  167.68   16.50 
  -2   2  10  143.29   31.10 
   2  -2  10  151.98   15.20 
  -2   2  10  145.29   24.90 
  -2  -2  10  137.99   16.50 
  -2  -2  10  122.19   24.20 
  -2  -2  10  128.69   18.90 
  -2   2  10  125.59   16.30 
  -2   2  10  128.99   16.40 
   1  -3 -10   31.30    9.20 
  -3  -1 -10   25.80   13.00 
  -3  -1 -10   49.50   23.90 
  -1   3 -10   26.50    9.70 
   1  -3 -10   26.70   18.40 
   3   1 -10   29.20    5.40 
  -1   3 -10   25.30    8.40 
  -3  -1 -10   17.50    8.50 
  -1   3 -10   24.10   11.00 
   3   1 -10   37.10    9.40 
   1  -3 -10   26.20    6.70 
  -3  -1 -10   21.80    9.50 
   3   1 -10   35.60    7.60 
  -3  -1  10   19.70   15.70 
  -3  -1  10   24.10   13.20 
  -1   3  10   31.10   11.00 
   3   1  10   30.30    5.80 
  -3  -1  10   23.80   16.70 
   1  -3  10   20.50    8.30 
   1  -3  10   29.50   10.20 
  -1   3  10   38.20   30.00 
  -1   3  10   29.30   10.00 
   1  -3  10   27.80    8.30 
   1  -3  10   37.30   14.40 
  -3  -1  10   21.70    8.90 
  -1   3  10   27.50    7.60 
  -3  -1  10   29.50    7.40 
   3   1  10   32.50   10.20 
   3   1  10   34.90    5.10 
   3   1  10   54.69   17.60 
   1  -3  10   20.10    5.20 
  -1   3  10   47.60   19.00 
  -1  -3 -10   58.69   31.70 
   3  -1 -10   28.50    5.10 
   3  -1 -10   25.30    5.90 
  -3   1 -10   31.30   11.10 
  -1  -3 -10   29.70   11.10 
   1   3 -10   31.00   10.90 
  -1  -3 -10   19.00    8.00 
  -1  -3 -10   18.50    8.30 
  -3   1 -10   16.50    9.00 
  -3   1 -10   31.10   10.40 
   3  -1  10   32.40    5.50 
  -3   1  10   14.40   10.50 
  -3   1  10   53.19   22.70 
  -1  -3  10   33.20    9.60 
  -1  -3  10   20.10   10.40 
  -3   1  10   23.60    6.90 
  -1  -3  10   26.70    6.30 
  -3   1  10   27.10   10.90 
   3  -1  10   37.60   11.90 
   1   3  10   25.70    6.90 
   1   3  10   38.10    8.80 
   3  -1  10   39.20    7.40 
  -3   3 -10  437.66   49.10 
  -3  -3 -10  451.85   92.99 
   3  -3 -10  427.26   49.80 
  -3  -3 -10  370.06   46.90 
   3   3 -10  393.36   42.50 
   3   3 -10  416.76   45.60 
  -3  -3 -10  397.06   56.39 
   3   3 -10  439.46   41.90 
   3  -3 -10  388.46   40.20 
  -3   3 -10  445.96   48.50 
  -3  -3 -10  364.96   46.90 
   3   3 -10  445.16   69.49 
   3  -3 -10  423.66   40.10 
  -3   3 -10  440.66   46.60 
   3  -3 -10  517.45   44.20 
  -3  -3  10  411.96   50.39 
  -3   3  10  384.06   52.79 
  -3  -3  10  506.35   44.30 
  -3   3  10  414.56   65.29 
  -3   3  10  390.46   42.80 
  -3  -3  10  414.26   46.90 
  -3   3  10  361.76   41.00 
  -3  -3  10  409.76   54.29 
   3   3  10  494.95   41.90 
   3  -3  10  499.65   45.70 
  -3   3  10  399.26   50.49 
   3  -3  10  473.45   40.10 
   2  -4 -10  112.69   15.50 
  -2   4 -10   69.39   21.70 
  -2   4 -10   91.39   17.60 
   4   2 -10   94.69   14.90 
  -4  -2 -10   79.99   17.80 
  -4  -2 -10   92.99   21.30 
   2  -4 -10  121.29   25.80 
  -4  -2 -10  126.69   32.10 
   4   2 -10  103.79   12.50 
   2  -4 -10   95.99   12.90 
   2  -4 -10  103.79   14.40 
   4   2 -10  101.29   14.00 
  -2   4 -10  105.99   18.30 
  -4  -2  10   99.99   23.90 
  -2   4  10  145.19   16.80 
  -4  -2  10   85.29   22.30 
   2  -4  10  109.79   17.00 
  -2   4  10  198.88   56.29 
   2  -4  10  119.39   20.50 
  -4  -2  10  139.59   17.00 
  -2   4  10  145.99   33.70 
  -2   4  10   80.39   20.10 
   2  -4  10  102.79   11.80 
  -4  -2  10   84.59   17.60 
  -4   0 -10  486.15   53.59 
   4   0 -10  455.95   42.90 
  -4   0 -10  382.86   61.09 
   0   4 -10  414.96   50.99 
   0  -4 -10  399.06   44.70 
   0   4 -10  382.56   43.20 
   0  -4 -10  445.66   46.10 
   4   0 -10  406.36   41.00 
  -4   0 -10  342.47   47.50 
   0  -4 -10  395.66   45.40 
   0  -4 -10  578.84   83.79 
  -4   0 -10  399.96   47.30 
  -4   0  10  371.56   45.70 
   0  -4  10  398.66   51.29 
   4   0  10  490.45   45.90 
   0  -4  10  453.95   41.20 
  -4   0  10  459.95   43.80 
   4   0  10  477.05   40.30 
  -4   0  10  354.86   52.99 
   0   4  10  443.76   45.90 
   0   4  10  434.96   43.60 
  -4   0  10  402.76   50.89 
   0  -4  10  441.26   48.60 
   0  -4  10  493.95   46.00 
  -2  -4 -10   79.39   23.40 
  -2  -4 -10  112.09   19.90 
  -2  -4 -10  106.09   44.90 
   2   4 -10  102.99   15.80 
  -4   2 -10   97.99   19.00 
   4  -2 -10  117.69   13.20 
  -4   2 -10  116.89   20.60 
   2   4 -10  108.39   20.60 
   4  -2 -10  148.99   15.90 
  -2  -4 -10   90.49   17.50 
  -4   2 -10  129.79   22.40 
   2   4 -10   70.59   30.60 
   4  -2  10  122.49   19.30 
   2   4  10  112.19   14.80 
  -4   2  10   85.79   21.30 
  -2  -4  10   97.59   19.80 
   4  -2  10  118.89   11.10 
   4  -2  10  145.29   18.50 
  -2  -4  10  114.19   14.80 
  -2  -4  10  200.08   41.80 
   2   4  10  108.59   14.40 
  -4   2  10   89.19   21.00 
   4  -2  10  116.59   12.30 
  -4   2  10   86.09   27.90 
  -4   2  10   96.79   14.90 
  -2  -4  10  122.39   22.00 
   4  -4 -10  230.08   21.10 
   4   4 -10  167.78   21.40 
   4   4 -10  190.58   26.60 
   4  -4 -10  184.48   26.30 
   4   4 -10  203.48   26.60 
  -4   4 -10  153.28   27.00 
  -4  -4 -10  185.58   73.89 
  -4   4 -10  194.48   29.60 
   4   4 -10  183.08   51.19 
   4  -4 -10  178.18   19.20 
  -4   4  10  155.78   36.90 
   4  -4  10  236.98   27.00 
  -4   4  10  218.68   49.60 
  -4   4  10  177.88   32.60 
  -4   4  10  156.18   23.10 
   4   4  10  195.58   20.10 
   4   4  10  215.98   21.30 
   4  -4  10  204.18   19.70 
   4  -4  10  189.68   18.50 
  -4  -4  10  196.98   39.10 
   4  -4  10  182.28   22.80 
  -4  -4  10  199.18   24.80 
  -4   4  10  159.68   20.20 
   5   3 -10  138.49   17.90 
   5   3 -10  119.39   14.50 
   5   3 -10   97.09   33.50 
  -5  -3 -10   91.29   43.60 
   3  -5 -10  105.09   13.10 
  -3   5 -10  110.49   20.30 
  -3   5 -10   81.59   18.50 
   5   3 -10  125.49   16.40 
  -3   5 -10   61.09   31.20 
  -3   5 -10   85.89   25.90 
  -5  -3 -10  100.39   21.30 
   3  -5 -10  121.59   18.80 
   3  -5 -10   97.69   14.70 
   3  -5 -10  118.29   31.90 
  -3   5  10  113.19   18.00 
   3  -5  10  128.49   21.00 
   3  -5  10  134.19   16.60 
  -5  -3  10  123.39   21.70 
  -3   5  10  168.78   42.40 
  -3   5  10  118.29   44.70 
   3  -5  10  119.99   12.60 
   5   3  10  123.99   12.90 
  -3   5  10  131.59   25.70 
   3  -5  10  100.19   16.30 
  -3   5  10  163.58   29.60 
  -5  -3  10  114.99   29.70 
   1  -5 -10   79.99   14.10 
  -5  -1 -10   80.59   31.20 
  -1   5 -10   75.59   24.20 
   1  -5 -10   78.59   26.90 
   1  -5 -10   93.99   15.40 
  -1   5 -10   64.59   28.40 
  -1   5 -10  109.39   17.00 
  -5  -1 -10   98.39   22.50 
   1  -5 -10   83.89   14.40 
   5   1 -10   83.09    9.00 
  -5  -1 -10  143.19   36.50 
  -5  -1 -10  100.59   19.90 
   5   1 -10   85.49   12.50 
   5   1 -10  117.89   14.00 
  -5  -1  10  104.79   19.50 
  -5  -1  10   50.69   21.60 
  -5  -1  10   74.19   22.30 
  -1   5  10   92.09   17.30 
  -1   5  10   93.09   15.00 
   1  -5  10   98.39   18.40 
  -5  -1  10   90.39   15.30 
   1  -5  10   95.29   11.20 
   1  -5  10  102.79   21.10 
  -5   1 -10  137.79   28.30 
  -1  -5 -10   91.69   20.50 
  -1  -5 -10   88.09   16.50 
  -1  -5 -10  142.39   65.39 
   5  -1 -10  100.99   11.60 
   1   5 -10   72.09   29.20 
   1   5 -10   82.29   23.20 
  -1  -5 -10   76.59   15.80 
  -5   1 -10   88.29   17.60 
  -5   1 -10   69.89   18.30 
   1   5 -10  148.29   36.20 
  -1  -5  10  100.39   12.50 
  -5   1  10   83.69   14.00 
  -1  -5  10  111.99   25.60 
  -1  -5  10   71.99   18.80 
  -1  -5  10   74.49   18.00 
   1   5  10   93.69   13.60 
  -5   1  10   80.09   19.10 
  -5   1  10   65.59   21.80 
   1   5  10   86.79   14.30 
  -5   3 -10  118.29   20.70 
   3   5 -10  105.49   24.30 
  -3  -5 -10  114.29   71.19 
   5  -3 -10  131.09   13.60 
  -5   3 -10  145.29   26.80 
   3   5 -10   42.00   35.10 
  -3  -5 -10  101.69   22.30 
  -5   3 -10   98.39   20.60 
  -3  -5 -10  102.09   20.20 
   3   5 -10  108.89   16.10 
   5  -3 -10  138.89   13.30 
  -5   3  10   84.89   27.50 
  -5   3  10  105.49   23.40 
   5  -3  10  138.49   17.90 
   5  -3  10  127.29   11.50 
  -5   3  10  112.79   16.90 
   3   5  10  122.49   15.70 
   5  -3  10  105.19   20.90 
  -5   3  10   98.19   21.50 
  -5   3  10   99.29   33.30 
   3   5  10  113.19   15.20 
  -3  -5  10  122.19   17.00 
  -3  -5  10   87.09   29.00 
  -5  -5 -10    1.00   50.89 
  -5  -5 -10   27.30   13.20 
   5   5 -10   32.10   33.00 
  -5   5 -10   35.60   14.00 
   5   5 -10   27.00    8.40 
  -5   5 -10   28.20   14.90 
  -5   5 -10   31.80   14.80 
  -5  -5 -10   30.00   14.10 
   5  -5  10   23.70    9.30 
   5  -5  10   27.60    7.80 
  -5   5  10   13.20   22.00 
   5  -5  10   33.30    6.10 
  -5   5  10   32.80   30.10 
  -5  -5  10   19.60   10.10 
  -5  -5  10   16.60   21.30 
  -5   5  10   11.80   13.50 
  -5   5  10   21.30   10.40 
   5   5  10   52.69   10.40 
  -6  -4 -10  254.17   39.10 
   4  -6 -10  291.37   35.80 
   4  -6 -10  306.07   32.40 
  -4   6 -10  207.08   33.20 
  -6  -4 -10  244.38   38.40 
  -4   6 -10  225.78   47.00 
  -4   6 -10  252.37   64.59 
   4  -6  10  235.68   28.80 
  -4   6  10  262.57   41.40 
  -4   6  10  258.37   43.80 
   4  -6  10  259.47   24.10 
  -6  -4  10  253.37   34.70 
   4  -6  10  274.87   27.80 
   4  -6  10  297.97   35.20 
  -6  -4  10  221.98   50.79 
   2  -6 -10  427.26   44.40 
  -6  -2 -10  447.16   55.19 
   2  -6 -10  401.56   41.90 
   2  -6 -10  499.45   45.50 
  -2   6 -10  523.25   85.69 
   6   2 -10  420.26   43.00 
   2  -6 -10  521.55   66.19 
  -6  -2 -10  309.67   68.89 
  -2   6  10  412.76   52.59 
  -6  -2  10  451.85   60.39 
  -2   6  10  358.56   48.40 
  -6  -2  10  385.86   51.29 
   2  -6  10  480.75   47.30 
   2  -6  10  465.25   41.00 
  -6   0 -10   28.60   12.10 
   0   6 -10   46.70   32.90 
   0   6 -10   38.50   22.50 
  -6   0 -10   31.10   14.00 
   0   6 -10   25.40   23.80 
  -6   0 -10   50.19   24.60 
   0  -6 -10   26.30   31.10 
  -6   0 -10   22.20   22.40 
   6   0 -10   26.50    6.70 
   0  -6 -10   25.70   10.90 
   0  -6 -10   33.70   11.20 
   0  -6 -10   15.80    9.70 
   0   6  10  108.59   48.10 
   0  -6  10   20.00   12.40 
   0  -6  10   34.20   12.60 
  -6   0  10   37.20   13.80 
   0   6  10   45.90   11.00 
  -6   0  10   29.90   10.50 
  -6   0  10   32.00   15.70 
   0   6  10   34.50   11.50 
   0  -6  10   30.60    6.80 
  -6   0  10   27.00   16.90 
   0  -6  10   40.10   13.50 
   0   6  10  104.29   29.10 
  -2  -6 -10  419.06   56.99 
  -6   2 -10  509.95   50.29 
   6  -2 -10  417.36   39.90 
  -2  -6 -10  381.16   47.90 
  -6   2 -10  412.66   53.39 
   2   6 -10  490.45   62.79 
   2   6 -10  419.36   45.20 
   2   6  10  457.15   45.20 
  -2  -6  10  410.26   62.69 
  -2  -6  10  480.75   44.40 
  -6   2  10  339.17   70.89 
   2   6  10  446.56   43.60 
  -6   2  10  385.26   45.20 
   6  -2  10  477.55   47.00 
  -6   2  10  439.76   50.29 
  -6   4 -10  252.37   36.60 
  -6   4 -10  283.47   35.80 
  -4  -6 -10  323.87   40.10 
   4   6 -10  363.86   45.50 
   4   6 -10  262.57   30.50 
  -6   4 -10  313.77   39.90 
  -4  -6 -10  196.18   33.70 
  -6   4  10  240.08   39.80 
  -6   4  10  228.38   41.50 
   4   6  10  304.37   30.30 
   6  -4  10  275.37   30.70 
  -6   4  10  223.18   31.00 
  -6   4  10  212.28   51.19 
  -4  -6  10  260.87   31.60 
   6   6 -10   45.00   47.50 
  -6   6 -10   53.79   42.70 
  -6   6 -10   46.50   17.50 
  -6  -6 -10   59.29   20.00 
  -6  -6 -10   41.70   36.90 
  -6  -6 -10   89.59   25.30 
   6   6 -10   65.69   13.30 
  -6  -6  10   82.69   21.20 
  -6   6  10   79.59   35.20 
  -6   6  10   52.69   23.70 
   6  -6  10   57.19    8.10 
   6  -6  10   63.79   15.70 
  -6   6  10   53.09   16.40 
  -5   7 -10   34.70   14.50 
  -5   7 -10   19.30   22.70 
  -7  -5 -10   43.00   19.20 
   7   5 -10   42.80   34.60 
  -7  -5 -10   86.89   23.30 
   5  -7 -10   50.49   14.00 
   7   5 -10   65.39   12.90 
  -5   7 -10   33.90   58.49 
  -7  -5 -10   79.29   64.29 
  -5   7  10   49.40   16.70 
  -5   7  10   71.09   26.40 
   5  -7  10   48.90   15.90 
  -5   7  10   43.50   36.70 
  -7  -5  10   67.49   20.80 
  -7  -5  10   65.99   41.30 
  -5   7  10   57.09   24.70 
   5  -7  10   52.79   10.10 
  -7  -3 -10    5.80   15.00 
  -3   7 -10  -14.70   50.39 
   3  -7 -10   23.30    8.00 
  -3   7 -10   11.70   23.20 
   7   3 -10    0.80   11.20 
   7   3 -10    9.90    6.30 
   3  -7 -10   12.40    4.90 
  -7  -3 -10  -32.40   56.19 
   7   3 -10   31.50    9.00 
  -7  -3 -10   32.80   16.50 
   3  -7 -10   32.80   19.60 
   7   3  10   74.29   29.00 
  -7  -3  10   16.30   23.20 
  -7  -3  10   15.90   12.60 
  -3   7  10   41.30   23.10 
  -3   7  10   12.00   12.50 
  -3   7  10   17.20   10.80 
   3  -7  10   32.30   13.30 
   3  -7  10    9.90    3.30 
  -3   7  10   16.70   40.50 
   3  -7  10    7.70    9.90 
  -1   7 -10    1.00   18.20 
   7   1 -10   14.80    5.30 
   1  -7 -10    4.30    7.20 
  -1   7 -10   21.80   24.70 
  -7  -1 -10   -2.90   11.70 
   7   1 -10   12.40    4.60 
  -1   7 -10  -44.90   39.90 
   1  -7 -10    3.50    6.80 
  -7  -1 -10   14.40   25.00 
   1  -7 -10   15.30    8.60 
   1  -7 -10   49.99   36.90 
  -1   7  10   31.90   19.10 
   1  -7  10   13.90   11.90 
  -7  -1  10    9.70   16.20 
  -1   7  10    4.20    8.30 
  -7  -1  10   18.00   10.90 
  -1   7  10   26.40   40.80 
   1  -7  10   11.60   12.50 
   7   1  10   21.80    5.10 
   1  -7  10    7.60    3.70 
   7   1  10   33.60   16.10 
  -1   7  10    1.60    6.20 
  -7  -1  10    1.30   13.90 
  -7   1 -10   19.80   11.80 
   1   7 -10   28.10   38.00 
  -1  -7 -10   14.70    9.80 
  -7   1 -10   12.90   12.50 
   1   7 -10    8.00   22.90 
  -1  -7 -10   90.89  150.68 
   1   7 -10   -7.40   28.00 
  -7   1 -10    6.70   21.40 
   1   7  10    9.50    6.80 
   7  -1  10   37.80   15.60 
  -7   1  10    8.50   13.10 
  -1  -7  10    8.90   20.70 
   1   7  10    6.30    5.00 
  -1  -7  10    7.00    4.50 
  -7   1  10    6.50    8.10 
   1   7  10   95.59   64.09 
  -7   1  10    0.80   13.40 
  -7   1  10   12.40   11.80 
  -3  -7 -10   17.70   11.80 
   3   7 -10   23.80   22.90 
  -7   3 -10   21.30   12.70 
  -7   3 -10   13.60   14.20 
  -7   3 -10   10.90   17.90 
  -3  -7 -10    8.90   63.99 
  -3  -7 -10   11.80   17.60 
  -7   3  10   19.20   20.50 
   3   7  10  103.59   53.29 
   7  -3  10   10.90    6.20 
  -7   3  10   19.90   13.60 
   3   7  10   18.20    6.00 
  -7   3  10   16.30    8.80 
   7  -3  10   40.80   12.00 
  -7   3  10    6.10   11.70 
  -3  -7  10   19.10   26.90 
  -7   3  10   10.70   14.50 
  -5  -7 -10   47.30   19.80 
  -7   5 -10   63.69   20.70 
   5   7 -10   77.99   27.40 
  -7   5 -10   26.40   14.90 
  -7   5 -10   28.10   15.20 
  -5  -7 -10  102.29   26.50 
   5   7 -10   16.90   55.29 
  -5  -7 -10  111.59  111.39 
  -5  -7  10   54.39   55.09 
  -7   5  10   43.20   22.00 
  -5  -7  10   45.60   14.40 
  -7   5  10   58.09   28.80 
   7  -5  10   53.59   15.70 
  -4   8 -10   -4.70   77.19 
  -8  -4 -10    0.80   15.00 
   4  -8 -10    6.20   14.20 
  -8  -4 -10   26.10   18.40 
  -4   8 -10    1.00    8.40 
   8   4 -10   -2.90    7.20 
   8   4 -10   -4.50    6.50 
   4  -8 -10    2.90    2.70 
   4  -8 -10    1.90    3.30 
   8   4  10    4.40    9.10 
  -8  -4  10    1.10   14.50 
  -4   8  10    2.20   11.30 
  -4   8  10    7.40   14.20 
  -4   8  10   -0.60   44.20 
   4  -8  10    3.40   13.30 
   8   4  10   11.80    8.10 
  -4   8  10   -5.30   42.00 
   2  -8 -10   19.50    7.00 
  -2   8 -10   72.79   68.79 
  -2   8 -10   -5.50   18.10 
  -8  -2 -10   18.00   16.00 
   8   2 -10   23.90    5.60 
   2  -8 -10   20.40    9.90 
   8   2 -10   36.80    7.80 
  -8  -2 -10    5.50   15.80 
   2  -8 -10   36.60   28.00 
   8   2  10   40.70    7.70 
  -2   8  10   19.10   10.50 
   2  -8  10   11.40    4.30 
  -2   8  10   21.50   24.80 
  -2   8  10   21.50   14.20 
  -2   8  10   39.30   46.80 
  -8  -2  10   18.40   14.70 
   0  -8 -10  485.15   48.90 
   0   8 -10  499.55   83.99 
   0  -8 -10  391.26   47.00 
  -8   0 -10  510.35   55.99 
  -8   0 -10  425.36   58.39 
  -8   0  10  347.37   47.90 
   0  -8  10  361.66   39.80 
   0   8  10  381.16   43.70 
   0  -8  10  484.25   65.89 
   2   8 -10   30.20   42.80 
  -2  -8 -10   29.00   66.59 
   2   8 -10   10.70   28.90 
   2   8 -10   97.89   50.59 
  -8   2 -10   29.80   19.20 
  -8   2 -10   13.40   12.20 
  -8   2 -10   16.50   22.80 
   2   8  10   21.70    9.20 
  -8   2  10   -5.50   14.80 
   2   8  10   17.00    7.00 
   8  -2  10   17.50    7.30 
  -2  -8  10   46.50   44.50 
   2   8  10   84.99   57.59 
  -8   2  10   22.30   13.70 
  -2  -8  10   11.80    6.90 
   4   8 -10  -11.00   26.40 
  -4  -8 -10  110.79  143.69 
   4   8 -10  -55.89  103.69 
  -8   4 -10   13.90   12.50 
  -8   4 -10   -5.20   19.50 
  -8   4 -10   -9.30   13.20 
  -4  -8 -10   11.90   13.50 
   4   8 -10   22.30   41.00 
  -4  -8 -10    0.50   14.00 
   8  -4  10    0.20    5.80 
   4   8  10   86.29   58.59 
  -8   4  10   -1.00   13.20 
  -4  -8  10   -3.60   34.10 
  -8   4  10  -18.20   24.90 
   4   8  10    1.90   14.40 
  -4  -8  10   -2.40    6.70 
  -9  -3 -10  310.27   42.20 
   3  -9 -10  250.77   24.90 
   9   3 -10  251.67   22.00 
   3  -9 -10  207.88   22.10 
  -3   9 -10  185.78   51.39 
   3  -9  10  174.78   21.10 
  -3   9  10  191.98   30.90 
  -9  -3  10  128.09   36.20 
   3  -9  10  283.87   45.00 
   3  -9  10  188.78   20.60 
  -3   9  10  246.08   41.50 
  -1   9 -10   52.89   42.60 
  -1   9 -10   26.70   26.00 
  -1   9 -10  163.68   90.69 
  -9  -1 -10   50.39   21.20 
   1  -9 -10   40.90   14.20 
   1  -9 -10   55.29   14.80 
  -9  -1 -10   74.39   27.80 
  -1   9  10  191.28   76.19 
   1  -9  10   47.30   27.20 
  -9  -1  10    3.60   18.00 
  -1   9  10   52.99   18.60 
  -1   9  10   32.30   11.90 
   1  -9  10   30.80    7.50 
  -1  -9 -10  117.09   89.99 
   1   9 -10  157.68   79.49 
  -9   1 -10   36.40   19.10 
  -9   1 -10   61.39   20.50 
  -1  -9 -10   38.60   14.60 
  -1  -9 -10   24.20   15.80 
   1   9 -10   12.40   37.10 
   1   9 -10   78.29   49.50 
   1   9  10   78.69   59.69 
  -9   1  10   35.90   14.90 
   1   9  10   63.49   15.80 
  -1  -9  10   51.69   34.70 
   1   9  10   47.80   11.30 
  -1  -9  10   26.20    7.90 
  -9   1  10   10.90   15.40 
  -3  -9 -10  171.48   31.80 
  -3  -9 -10  249.68  184.28 
   9  -3  10  241.08   23.20 
  -9   3  10  129.89   35.70 
  -3  -9  10  386.46   98.99 
  -9   3  10  162.68   28.50 
  -3  -9  10  159.88   24.10 
  -1   0 -11   -0.40    5.30 
  -1   0 -11    3.40    4.50 
   0  -1 -11   -2.80   12.50 
   1   0 -11    0.60    3.30 
   0  -1 -11    1.70    5.00 
  -1   0 -11    6.00    5.80 
   1   0 -11    3.40    3.50 
   0   1 -11   19.60    6.50 
   0  -1 -11    3.30    5.20 
   0   1 -11   -0.60    3.50 
   0   1 -11   10.30    6.80 
   0  -1 -11   11.20    5.20 
   1   0 -11    0.50    4.40 
   0  -1  11    6.90    7.70 
   0  -1  11    1.30    2.50 
   0  -1  11    7.40    7.00 
  -1   0  11    4.30    3.20 
  -1   0  11   17.30   16.80 
   0  -1  11    4.40    5.00 
   1   0  11    4.90    7.70 
   0  -1  11   12.70   10.90 
   1   0  11    7.80    5.60 
  -1   0  11   -4.50    5.90 
   0   1  11    1.80    2.70 
   0   1  11    2.50    4.50 
   0   1  11    1.80   15.70 
  -1   0  11   -0.90    5.80 
  -1   2 -11  584.84   64.39 
   1  -2 -11  647.04   61.99 
   1  -2 -11  607.04   61.99 
  -1   2 -11  529.35   63.09 
  -1   2 -11  689.43   64.99 
   1  -2 -11  548.55   59.29 
   2   1 -11  623.14   59.39 
   1  -2 -11  609.44   74.59 
   2   1 -11  573.64   59.39 
  -2  -1 -11  572.04   64.09 
  -2  -1 -11  772.82   98.39 
  -2  -1 -11  628.84   65.79 
   2   1 -11  603.64   61.69 
  -2  -1  11  635.14   59.59 
   2   1  11  641.94   58.89 
  -2  -1  11  572.84   62.39 
   1  -2  11  700.33   61.29 
  -1   2  11  597.34   59.59 
  -1   2  11  682.73   69.59 
   2   1  11  702.53   58.79 
   2   1  11  664.33   63.99 
   1  -2  11  648.34   58.29 
  -1   2  11  696.73   65.39 
  -2  -1  11  552.14   69.49 
  -2  -1  11  675.83   69.49 
  -1   2  11  579.04   61.39 
   1  -2  11  722.13   66.59 
  -1  -2 -11  574.64   62.79 
   1   2 -11  610.24   62.99 
   1   2 -11  576.34   59.79 
  -1  -2 -11  577.84   81.69 
   2  -1 -11  554.24   58.19 
  -2   1 -11  566.64   63.49 
  -1  -2 -11  578.94   62.49 
  -2   1 -11  593.94   64.19 
   2  -1 -11  623.54   61.09 
   1   2 -11  702.83   62.29 
   2  -1 -11  611.24   58.49 
  -1  -2  11  743.63   67.39 
   1   2  11  632.54   59.09 
  -1  -2  11  758.42   71.09 
   2  -1  11  605.34   68.79 
   2  -1  11  659.83   57.99 
  -2   1  11  557.24   70.69 
  -1  -2  11  584.74   69.29 
  -1  -2  11  558.54   61.09 
  -2   1  11  756.92   81.79 
   1   2  11  700.93   60.39 
  -1  -2  11  654.13   58.79 
  -2   1  11  612.34   59.19 
   2  -3 -11   25.50   13.70 
   2  -3 -11   15.30    5.60 
   3   2 -11    9.00    5.90 
  -2   3 -11    4.00    8.10 
  -3  -2 -11   13.50    9.00 
  -2   3 -11   11.40    7.00 
  -3  -2 -11   17.90   25.30 
   2  -3 -11   13.40    5.10 
   2  -3 -11   13.30    6.10 
  -3  -2 -11    4.30    7.00 
   3   2 -11    9.10    4.80 
  -2   3 -11   13.10    8.50 
  -3  -2 -11   22.70   15.50 
   3   2  11   15.10    4.90 
  -2   3  11   14.30   14.10 
  -3  -2  11   18.30   13.30 
  -3  -2  11   10.50   11.40 
  -3  -2  11   32.70   10.40 
  -2   3  11   30.50   23.90 
  -2   3  11    7.00    7.50 
   2  -3  11    7.50    7.80 
   3   2  11   28.90   11.80 
  -2   3  11    5.40    7.50 
  -2   3  11   17.10    5.80 
   2  -3  11   10.90    3.60 
  -3  -2  11    8.60    4.80 
   2  -3  11   16.80    7.50 
  -3  -2  11    8.50   10.30 
   3   2  11   40.40   11.60 
   3   0 -11   -0.40    2.30 
   0  -3 -11   -8.20   12.90 
   0   3 -11   -2.40    4.00 
   3   0 -11    0.60    3.60 
   0  -3 -11   14.10    6.30 
   0  -3 -11    2.40    5.20 
  -3   0 -11    2.90   14.30 
   0  -3 -11   -1.10    3.90 
   0   3 -11    4.40    5.40 
  -3   0 -11    6.00    7.00 
  -3   0 -11    4.80    6.50 
   0   3 -11    2.40    6.50 
   3   0 -11   -3.20    2.90 
  -3   0 -11    1.50    9.50 
   0  -3  11    3.70    6.30 
   0   3  11   -2.10    3.90 
  -3   0  11    5.00   10.00 
   3   0  11    0.60    4.20 
   3   0  11   -1.10    5.50 
   0  -3  11   -0.50    2.00 
   3   0  11    2.50    4.00 
  -3   0  11   -1.70    7.20 
   3   0  11    9.70    7.40 
  -3   0  11   -4.40    9.50 
   0  -3  11   -3.50    6.60 
   0   3  11    3.10   12.50 
   0   3  11   -1.40   16.80 
   0   3  11   -5.00    7.10 
   0  -3  11   12.60   16.70 
   3   0  11    2.70    1.90 
   0   3  11    1.10    3.30 
  -3   0  11    2.10    3.10 
   0  -3  11   -3.90    8.00 
   3  -2 -11   12.00    5.50 
  -2  -3 -11   10.60    6.90 
  -3   2 -11   18.00   10.90 
  -2  -3 -11   14.80   11.90 
   3  -2 -11   10.30    4.20 
  -3   2 -11   11.40    7.60 
   3  -2 -11   10.50    3.80 
  -2  -3 -11   41.00   30.80 
   2   3 -11    6.50    5.50 
  -3   2 -11   10.10    8.80 
   2   3 -11   15.10    7.70 
  -3   2  11   15.00   17.70 
   3  -2  11   20.70   10.60 
   2   3  11   11.20    4.70 
  -3   2  11   14.40    5.50 
   3  -2  11   18.90    7.90 
   2   3  11   16.90    5.40 
   3  -2  11   18.30    6.30 
   3  -2  11   11.80    3.70 
   2   3  11   42.10   22.00 
   3  -2  11   16.50    6.90 
  -3   2  11    5.50   12.00 
  -2  -3  11   37.60   13.90 
  -2  -3  11   10.30    9.50 
  -2  -3  11    8.80    4.40 
  -3   2  11    1.90   11.00 
  -3   4 -11   54.39   18.70 
   3  -4 -11    3.60    8.60 
   3  -4 -11    5.40    3.70 
  -4  -3 -11   -2.30   32.90 
   3  -4 -11   20.60    6.80 
   4   3 -11    0.60    4.50 
   4   3 -11    6.30    4.00 
   4   3 -11    7.50    6.20 
   3  -4 -11    6.30    4.00 
  -3   4 -11   15.40   10.30 
  -3   4 -11   19.00   11.90 
  -4  -3 -11   -1.10    8.40 
  -3   4  11    8.70    7.70 
  -3   4  11   13.80   24.60 
   3  -4  11   16.70    8.40 
   4   3  11   65.39   37.30 
  -4  -3  11   12.40    6.50 
  -3   4  11   16.30   20.70 
  -3   4  11    7.20    5.20 
  -4  -3  11    9.30   14.00 
   3  -4  11    6.50    5.50 
   4   3  11   14.20    4.00 
   3  -4  11    5.90    2.80 
   4   3  11   32.60   13.40 
   4   3  11    6.00    5.30 
   3  -4  11    7.50    5.20 
  -1   4 -11  347.17   37.90 
   1  -4 -11  394.06   57.29 
   1  -4 -11  359.56   37.90 
   1  -4 -11  296.97   35.90 
  -4  -1 -11  310.27   40.40 
  -1   4 -11  317.57   43.60 
   4   1 -11  327.67   34.30 
  -1   4 -11  328.37   40.70 
   4   1 -11  369.66   36.10 
  -4  -1 -11  393.56   50.99 
   4   1 -11  303.67   31.80 
   4   1 -11  326.67   32.00 
   1  -4 -11  332.37   35.20 
   1  -4  11  340.77   33.20 
   1  -4  11  405.86   41.40 
  -4  -1  11  296.67   47.50 
  -1   4  11  342.27   36.20 
   4   1  11  391.26   33.10 
  -4  -1  11  320.57   46.80 
  -4  -1  11  280.77   38.20 
   1  -4  11  380.36   44.70 
  -4  -1  11  318.27   45.10 
  -1   4  11  332.07   39.80 
  -4  -1  11  380.86   37.00 
  -1  -4 -11  276.67   65.39 
  -1  -4 -11  315.07   39.40 
  -4   1 -11  395.06   44.80 
   1   4 -11  327.57   42.60 
  -1  -4 -11  287.17   37.10 
   4  -1 -11  329.47   33.10 
  -1  -4 -11  310.17   38.40 
  -4   1 -11  351.96   40.90 
   4  -1 -11  364.46   35.20 
  -4   1 -11  334.87   42.00 
  -1  -4  11  366.36   34.10 
  -4   1  11  323.17   43.80 
   1   4  11  357.96   35.40 
  -1  -4  11  451.95   56.09 
  -1  -4  11  315.77   37.90 
  -4   1  11  330.37   35.40 
   1   4  11  353.16   36.30 
  -4   1  11  255.27   45.90 
  -4   1  11  299.47   40.10 
  -1  -4  11  288.37   43.30 
   4  -1  11  364.96   32.20 
   4  -3 -11    2.60    3.30 
  -3  -4 -11   50.29   62.19 
  -4   3 -11    9.30   11.20 
   4  -3 -11   13.10    5.30 
   3   4 -11    5.40    4.80 
  -3  -4 -11    7.00    7.80 
   3   4 -11    2.40   20.80 
  -4   3 -11    7.10    9.30 
  -3  -4 -11    7.80    9.70 
  -4   3 -11   14.60   10.20 
  -4   3  11   15.30   19.50 
   4  -3  11    4.40    4.90 
   3   4  11    1.70    5.10 
   3   4  11   24.90   26.60 
   4  -3  11   22.20    7.30 
  -4   3  11    4.50    9.50 
  -4   3  11   -3.00   13.80 
  -3  -4  11    2.50    3.90 
  -4   3  11    6.70   10.30 
   4  -3  11    4.20    6.40 
   4  -3  11    7.60    2.80 
   4  -3  11    9.30    3.00 
  -3  -4  11    3.40   13.50 
   3   4  11    8.80    4.10 
  -4   3  11   20.30    7.00 
   5   4 -11  272.77   31.00 
   4  -5 -11  225.68   24.20 
  -5  -4 -11  196.78   32.60 
  -5  -4 -11  208.98   33.40 
  -4   5 -11  207.18   54.39 
   5   4 -11  227.68   25.20 
   5   4 -11  243.68   67.59 
  -5  -4 -11   98.59   63.79 
  -4   5 -11  190.48   31.00 
   4  -5 -11  254.97   33.30 
   4  -5 -11  231.18   22.90 
   4  -5  11  247.28   24.00 
  -5  -4  11  238.68   29.80 
  -4   5  11  221.18   37.90 
   4  -5  11  259.07   31.00 
   4  -5  11  221.68   26.60 
  -4   5  11  205.98   30.30 
   5   4  11  234.28   23.20 
  -4   5  11  175.08   56.49 
  -4   5  11  221.48   28.90 
  -5  -4  11  323.67   59.79 
  -2   5 -11  398.36   49.30 
   5   2 -11  478.85   43.90 
  -5  -2 -11  381.66   52.29 
   5   2 -11  424.76   39.80 
  -5  -2 -11  317.27   48.00 
   2  -5 -11  445.66   43.20 
   2  -5 -11  418.96   59.09 
   2  -5 -11  405.36   42.90 
   5   2 -11  454.65   39.80 
  -2   5 -11  382.56   64.29 
   5   2 -11  395.76   41.80 
  -5  -2  11  372.56   54.29 
   2  -5  11  417.56   45.70 
   2  -5  11  510.75   46.70 
  -5  -2  11  454.85   46.20 
   2  -5  11  413.56   39.60 
  -2   5  11  377.16   49.70 
   5   2  11  440.46   39.20 
  -5  -2  11  317.77   56.99 
   2  -5  11  439.86   50.29 
  -5   0 -11   11.00   19.90 
   5   0 -11    1.20    3.70 
  -5   0 -11    2.00    7.40 
   0  -5 -11   -0.20    5.00 
   0   5 -11    5.80   11.90 
  -5   0 -11    0.20    9.40 
  -5   0 -11   16.30   18.60 
   0  -5 -11   -5.80    6.90 
   5   0 -11    1.60    4.00 
   0  -5 -11    9.50   26.70 
   0  -5 -11    3.40    5.70 
   0   5  11   -1.40    4.20 
   0   5  11   18.90   16.00 
   0  -5  11    1.80   10.80 
   0   5  11   -3.80    4.60 
   5   0  11    4.70    2.30 
  -5   0  11   -2.20    9.70 
   0  -5  11   -3.30    8.00 
   0  -5  11    0.10    2.60 
  -5   0  11    3.40   14.30 
   5   0  11    5.50    9.20 
  -5   0  11   11.10    6.00 
  -5   0  11    0.00    9.80 
   5   0  11    4.60    4.50 
   0   5  11   18.70   30.60 
   0  -5  11    2.60    7.50 
  -2  -5 -11  339.17   46.70 
   2   5 -11  402.96   51.69 
   2   5 -11  278.37   66.99 
  -2  -5 -11  386.56   45.40 
  -5   2 -11  424.86   49.90 
  -2  -5 -11  275.77   85.49 
   5  -2 -11  421.36   38.30 
   2   5 -11  399.56   41.70 
  -5   2 -11  432.06   47.30 
  -5   2  11  344.97   47.40 
  -5   2  11  363.16   48.40 
   2   5  11  447.36   40.70 
   5  -2  11  417.66   45.50 
  -5   2  11  381.26   42.00 
   2   5  11  427.66   40.90 
  -2  -5  11  433.36   40.80 
  -2  -5  11  394.66   55.89 
   4   5 -11  268.17   36.00 
  -5   4 -11  255.77   36.20 
  -4  -5 -11  171.18   31.60 
  -4  -5 -11  222.28   33.80 
  -5   4 -11  208.28   34.30 
  -5   4 -11  225.78   33.60 
   5  -4 -11  240.88   23.70 
  -5   4  11  228.48   52.49 
   4   5  11  249.88   26.10 
   5  -4  11  255.97   30.20 
  -5   4  11  186.78   36.60 
  -5   4  11  209.18   28.90 
  -4  -5  11  253.97   29.60 
   5  -4  11  259.17   28.10 
   5  -4  11  266.57   21.90 
   5  -4  11  242.48   22.40 
   4   5  11  234.88   24.60 
  -4  -5  11  197.48   45.00 
  -6  -5 -11   36.40   15.20 
   6   5 -11   14.40    7.30 
  -5   6 -11    2.20   17.60 
   5  -6 -11   12.40    9.50 
  -6  -5 -11   33.20   16.40 
  -6  -5 -11   39.00   59.59 
  -5   6 -11   38.60   38.10 
   6   5 -11   14.60   11.60 
  -5   6 -11    5.30    9.70 
   6   5  11   51.19   29.90 
   6   5  11   33.80   12.40 
   5  -6  11   21.10    5.40 
   5  -6  11   24.70   10.10 
  -5   6  11   34.50   14.50 
  -6  -5  11   17.70   10.70 
  -5   6  11   -5.40   32.50 
  -5   6  11   28.40   18.90 
  -5   6  11   -3.30    9.70 
   6   5  11   40.50   10.00 
   3  -6 -11    1.70    4.90 
   6   3 -11    2.40    7.10 
  -3   6 -11   11.60   18.40 
  -6  -3 -11   -7.10   11.80 
   6   3 -11    2.00    6.10 
   3  -6 -11    3.20    3.90 
  -6  -3 -11    7.90   13.30 
  -3   6 -11    0.10    7.60 
  -3   6 -11   10.00   33.40 
  -6  -3  11    5.70    8.00 
   3  -6  11    8.20    8.80 
  -3   6  11    3.20   18.30 
   6   3  11    8.60    8.70 
  -3   6  11   10.80   11.60 
   6   3  11    2.80   16.90 
   3  -6  11    6.30    3.00 
   6   3  11   12.50    8.30 
   3  -6  11   -4.50    5.70 
   3  -6  11    3.50   10.20 
  -3   6  11   10.30   33.90 
   3  -6  11   -1.70    5.20 
  -3   6  11    8.60    7.60 
   1  -6 -11   24.70    9.30 
  -6  -1 -11   13.60   12.70 
   1  -6 -11   14.40   18.00 
  -1   6 -11   18.40   20.50 
   6   1 -11   15.00    6.50 
  -6  -1 -11   18.30   14.50 
   1  -6 -11   10.40    7.40 
   6   1 -11   19.80    6.60 
   1  -6 -11   21.20    8.50 
  -1   6 -11   -7.40   26.30 
  -1   6  11   43.90   11.70 
   1  -6  11   19.70   10.40 
  -6  -1  11   24.90   17.70 
   1  -6  11   13.20   13.20 
  -6  -1  11   13.40    8.90 
   1  -6  11   31.50   13.30 
  -1   6  11   43.00   48.20 
   1  -6  11   17.50    4.70 
   6   1  11   37.20   17.80 
  -1   6  11   54.09   23.70 
   6  -1 -11   18.40    5.50 
   1   6 -11  -20.20   22.50 
   1   6 -11   18.10   19.90 
  -1  -6 -11   24.90   10.70 
  -1  -6 -11   32.30   52.49 
  -6   1 -11    7.60   10.40 
   6  -1 -11   28.10    6.60 
  -6   1 -11   19.40   10.80 
  -1  -6 -11   12.80    8.70 
   1   6 -11   62.59   33.50 
  -6   1  11   44.20   12.40 
   1   6  11   61.89   26.60 
   1   6  11  103.19   45.30 
  -1  -6  11   39.30   32.10 
   1   6  11   13.80    6.70 
   1   6  11   11.70    5.70 
  -1  -6  11   17.00    5.90 
  -6   1  11   13.70   14.70 
   6  -3 -11    2.40    2.40 
   3   6 -11  -20.20   34.10 
   6  -3 -11    2.60    2.10 
  -6   3 -11   16.50   13.40 
  -3  -6 -11    1.50    9.30 
  -3  -6 -11   -5.70    7.60 
  -3  -6 -11  -30.70   42.60 
   3   6 -11   10.20   14.60 
  -6   3 -11    5.30   15.80 
  -6   3 -11  -11.80    9.50 
  -6   3  11   11.80   20.40 
  -3  -6  11    1.80    4.70 
   6  -3  11    2.60    5.70 
   6  -3  11    1.50    6.30 
   3   6  11   17.40   34.60 
  -6   3  11    2.60   10.40 
   3   6  11   -2.10    3.40 
  -6   3  11    5.90    6.70 
   3   6  11    3.00    3.60 
  -6   5 -11    1.30   13.20 
  -5  -6 -11   37.60   63.49 
  -6   5 -11    3.80   10.70 
   5   6 -11   14.70   16.60 
  -5  -6 -11   17.60   12.40 
   5   6 -11    4.50   40.10 
  -5  -6 -11    5.90   12.90 
  -6   5  11   18.90   30.20 
   5   6  11  103.29   44.20 
   6  -5  11    9.10    7.40 
  -5  -6  11   16.10    9.70 
  -6   5  11   17.30   16.80 
  -6   5  11   10.40   10.50 
   5   6  11   41.20   14.30 
   5   6  11   18.80    7.10 
  -5  -6  11    4.70   35.80 
  -4   7 -11   73.89   21.30 
  -7  -4 -11   21.60   41.00 
  -4   7 -11   56.29   27.80 
   4  -7 -11  103.69   11.90 
  -7  -4 -11   77.09   25.30 
   4  -7 -11  150.78   27.20 
  -7  -4 -11  109.29   28.30 
   7   4 -11   82.59   31.00 
  -4   7 -11  158.58   68.79 
  -4   7  11  146.79   35.50 
   4  -7  11  105.39   10.50 
   4  -7  11  114.49   16.00 
  -4   7  11  115.79   31.80 
  -4   7  11  139.39   36.90 
  -7  -4  11  100.49   36.20 
   4  -7  11   94.49   10.30 
  -4   7  11  124.99   53.29 
   4  -7  11  117.19   23.60 
  -7  -4  11   62.99   21.20 
   2  -7 -11  132.39   19.90 
   7   2 -11  131.59   19.70 
   2  -7 -11  126.99   17.70 
   2  -7 -11  240.18   48.10 
  -7  -2 -11  171.88   30.40 
   2  -7 -11  182.38   21.50 
  -2   7 -11  188.28   68.79 
  -7  -2 -11  135.39   31.80 
  -2   7 -11  109.09   42.20 
  -7  -2 -11   63.49   40.60 
  -7  -2  11  137.39   25.30 
  -2   7  11  141.19   24.90 
   2  -7  11  168.18   31.00 
  -7  -2  11  165.48   52.29 
   2  -7  11  140.09   15.50 
  -2   7  11  126.39   30.60 
   0   7 -11   -6.10   37.30 
   0  -7 -11    7.50    8.90 
   0  -7 -11    5.50   39.70 
  -7   0 -11   24.40   15.80 
   0   7 -11    1.10   24.20 
   0  -7 -11    0.90    7.40 
   7   0 -11    2.50    4.00 
  -7   0 -11    5.80   21.90 
  -7   0 -11   -6.70   10.60 
  -7   0  11    7.80    9.40 
  -7   0  11   -3.60   13.10 
   7   0  11   -0.10   10.00 
   0   7  11   17.80   44.30 
   0  -7  11   -4.10   12.70 
   0  -7  11    3.10    3.50 
   7   0  11   -5.20    3.70 
   7   0  11    8.60    6.50 
  -7   0  11    0.20   14.50 
   0   7  11   -2.20    5.90 
   2   7 -11  297.47   73.89 
  -7   2 -11  148.69   29.40 
  -2  -7 -11   74.59   68.49 
   2   7 -11   73.19   48.00 
  -2  -7 -11  123.69   23.40 
   2   7 -11  143.19   41.90 
  -7   2 -11  151.88   26.80 
  -7   2  11  125.19   27.70 
   2   7  11  129.69   19.00 
  -2  -7  11  125.69   18.30 
   7  -2  11  151.28   20.70 
  -7   2  11   93.19   26.80 
  -2  -7  11  141.89   42.60 
  -7   2  11  109.89   22.90 
   2   7  11  133.89   16.90 
  -4  -7 -11    0.10  106.59 
  -7   4 -11   86.99   24.50 
  -4  -7 -11   71.19   20.20 
   4   7 -11  153.88   37.10 
   4   7 -11   40.60   94.29 
  -4  -7 -11  127.49   24.50 
  -4  -7  11   94.39   17.20 
  -4  -7  11   89.59   62.19 
  -7   4  11  104.29   19.70 
  -7   4  11   79.89   36.40 
  -7   4  11   52.59   21.00 
   7  -4  11  107.09   16.20 
  -8  -3 -11   18.20   16.70 
   3  -8 -11    0.80    5.00 
   8   3 -11    8.40    4.60 
   3  -8 -11    2.40   20.70 
   8   3 -11    8.50    5.70 
   3  -8 -11    7.80    7.20 
  -3   8 -11  -16.80   27.10 
  -3   8 -11  -57.29   66.19 
   8   3 -11    3.70    6.40 
  -8  -3 -11    8.90   18.30 
   8   3  11    6.70   10.00 
  -3   8  11   30.40   29.70 
  -3   8  11   20.00   43.50 
   3  -8  11    2.10    2.80 
   8   3  11    8.80    8.90 
  -3   8  11   -0.80    9.30 
  -3   8  11    3.40   11.80 
   3  -8  11  -10.40   13.40 
  -8  -3  11    6.60   14.20 
  -1   8 -11  441.46  112.39 
  -1   8 -11  120.29   41.70 
   1  -8 -11  186.98   26.60 
  -1   8 -11  112.59   49.10 
  -8  -1 -11  234.48   40.00 
   8   1 -11  203.78   20.30 
   1  -8 -11  224.18   27.90 
  -8  -1 -11  189.78   33.70 
  -1   8  11  160.78   24.70 
   1  -8  11  222.38   40.90 
  -1   8  11  179.68   29.30 
  -8  -1  11  119.19   29.90 
  -1   8  11  241.78  128.79 
   1  -8  11  179.18   21.00 
  -8   1 -11  206.88   31.40 
  -1  -8 -11  135.39  101.89 
   1   8 -11  411.56  101.29 
  -1  -8 -11  196.08   29.40 
  -8   1 -11  188.68   36.60 
  -1  -8 -11  155.58   27.00 
   1   8 -11  157.58   50.49 
  -8   1  11  150.08   27.50 
  -1  -8  11  218.08   54.59 
   1   8  11  173.88   27.40 
   1   8  11  171.58   22.50 
  -3  -8 -11   -5.90   92.69 
  -3  -8 -11    1.50   10.90 
  -3  -8 -11    4.60   12.30 
   3   8 -11    2.50   28.60 
   3   8 -11   42.40   47.00 
   3   8 -11   19.20   56.39 
  -8   3 -11   11.80   16.40 
  -8   3 -11  -15.00   12.40 
  -3  -8  11   12.00   32.10 
  -8   3  11   12.10   22.70 
  -8   3  11   -0.10    9.40 
  -3  -8  11    9.00    6.90 
  -8   3  11    2.60   11.60 
   3   8  11    2.50    6.30 
   3   8  11  -13.40   51.59 
   0   9 -11  -68.19   68.89 
   0  -9 -11    3.60   73.99 
   0   9 -11   -5.20   29.90 
   0   9 -11  -30.20   66.79 
   0  -9 -11   -1.10   11.20 
  -9   0 -11   15.80   20.30 
   0  -9 -11    0.20    9.50 
   0   9  11    4.50    9.10 
   0  -9  11    3.90   26.20 
  -9   0  11  -11.60   14.00 
   0   9  11    6.30    7.30 
   0   9  11    8.40   58.99 
  -9   0  11  -20.60   15.70 
   0  -9  11   -0.80    7.30 
   0   0 -12 2851.81  281.77 
   0   0 -12 2958.10  279.87 
   0   0  12 3244.38  282.27 
   0   0  12 3101.99  277.67 
   0   0  12 3608.54  303.07 
  -1  -1 -12   17.70    8.60 
   1  -1 -12   11.30    5.30 
  -1  -1 -12    1.90    5.00 
   1  -1 -12    2.80    4.90 
  -1  -1 -12    6.70    6.30 
   1  -1 -12    6.90    4.60 
  -1  -1 -12   13.10   35.00 
  -1   1 -12   13.00    7.40 
   1   1 -12   14.10    6.10 
  -1   1 -12    3.20    6.30 
   1   1 -12    9.60    6.60 
  -1   1 -12   15.70    7.80 
   1   1 -12   14.70    5.90 
   1  -1  12   10.00    7.50 
  -1   1  12   18.80   12.40 
  -1  -1  12   -2.20   13.40 
   1   1  12   23.80   10.30 
   1   1  12   21.10   13.90 
  -1   1  12   22.50   11.30 
  -1  -1  12    7.50    8.70 
   1   1  12    8.30    6.70 
   1   1  12   14.30    5.40 
  -1  -1  12    6.00    6.60 
   1  -1  12    9.00    3.60 
  -1   1  12    9.20    4.20 
   1  -1  12   11.80    6.80 
   1  -1  12   19.90   16.50 
  -1  -1  12   26.60   12.00 
   1  -1  12   20.30    8.70 
   2   0 -12   17.30    7.40 
   0  -2 -12   32.60   10.40 
   0  -2 -12   33.50    9.30 
   0   2 -12   32.40    9.60 
   0   2 -12   16.90    8.30 
   2   0 -12   29.40    7.80 
   2   0 -12   23.50    6.70 
   0  -2 -12   34.60   22.10 
   0   2 -12   16.00    8.70 
   0  -2 -12   29.60    9.80 
  -2   0 -12   18.70   11.00 
  -2   0 -12   27.60   10.30 
  -2   0 -12   27.70   10.60 
   0  -2  12   26.60    8.50 
   0  -2  12   32.70   12.40 
  -2   0  12   27.80   13.20 
   0   2  12   27.20    8.60 
  -2   0  12   23.50   10.50 
   0   2  12   34.30   11.20 
   2   0  12   50.39   15.50 
   2   0  12   33.50    6.20 
   0  -2  12   47.30   13.40 
   0  -2  12   25.70    6.10 
  -2   0  12   25.10    6.70 
   0   2  12   52.19   15.30 
   0   2  12   28.70    7.10 
   0   2  12   78.09   34.10 
   2   0  12   51.99   11.70 
   0  -2  12   25.60   15.40 
  -2   0  12   22.90   15.10 
   2  -2 -12  523.65   58.29 
  -2   2 -12  636.54   64.19 
   2   2 -12  556.24   62.19 
   2   2 -12  692.03   61.19 
  -2  -2 -12  600.24   88.19 
   2   2 -12  531.75   59.19 
  -2   2 -12  546.05   65.09 
  -2  -2 -12  569.44   64.19 
   2  -2 -12  624.04   61.29 
   2  -2 -12  621.14   59.09 
  -2  -2 -12  695.93   81.89 
  -2   2 -12  600.84   65.39 
  -2  -2  12  595.34   67.89 
   2   2  12  652.33   58.99 
  -2  -2  12  742.73   75.29 
  -2  -2  12  665.53   59.69 
   2   2  12  696.93   58.79 
  -2   2  12  577.44   68.59 
  -2   2  12  700.43   81.49 
   2  -2  12  670.53   64.89 
  -2  -2  12  582.04   71.29 
   2  -2  12  642.04   69.19 
  -2   2  12  590.64   59.49 
   2  -2  12  661.53   58.19 
  -3  -1 -12  441.36   56.49 
   3   1 -12  476.95   51.69 
   3   1 -12  546.25   53.79 
   1  -3 -12  493.25   53.69 
   1  -3 -12  492.05   52.69 
  -3  -1 -12  566.24   81.59 
   1  -3 -12  560.74   71.39 
   1  -3 -12  563.14   54.99 
  -1   3 -12  487.85   58.69 
   3   1 -12  483.15   50.09 
  -1   3 -12  566.64   58.69 
  -3  -1 -12  423.56   55.99 
  -3  -1  12  575.64   67.69 
   1  -3  12  630.24   50.79 
   3   1  12  634.14   49.70 
  -3  -1  12  476.95   62.79 
  -1   3  12  542.95   56.99 
  -1   3  12  489.65   55.89 
  -3  -1  12  547.85   63.99 
  -1   3  12  509.45   52.29 
  -3  -1  12  561.34   52.79 
   3   1  12  584.34   50.89 
   1  -3  12  609.04   58.79 
  -1  -3 -12  517.85   56.89 
  -3   1 -12  469.65   58.39 
  -3   1 -12  468.85   57.69 
   1   3 -12  487.35   57.89 
  -3   1 -12  586.44   61.09 
  -1  -3 -12  574.64   84.19 
   1   3 -12  586.24   57.99 
   3  -1 -12  526.95   53.69 
  -1  -3  12  654.43   65.49 
  -3   1  12  471.75   63.59 
  -1  -3  12  558.74   52.09 
   3  -1  12  627.64   64.49 
   1   3  12  607.44   54.19 
  -3   1  12  528.65   53.09 
  -3   1  12  516.75   67.79 
  -1  -3  12  511.95   63.79 
   1   3  12  564.94   52.99 
  -3   1  12  446.06   57.99 
   3  -1  12  578.24   50.99 
  -1  -3  12  568.54   59.09 
   3   3 -12  584.14   53.99 
   3   3 -12  507.25   49.60 
   3  -3 -12  447.66   48.20 
  -3  -3 -12  443.16   54.79 
   3  -3 -12  449.06   47.90 
  -3  -3 -12  456.85   55.49 
  -3   3 -12  506.75   61.99 
   3  -3 -12  541.25   51.39 
  -3  -3 -12  666.43  111.89 
  -3   3 -12  491.15   58.39 
  -3   3  12  504.35   76.89 
   3  -3  12  558.34   57.89 
  -3   3  12  451.55   52.39 
   3   3  12  549.85   48.50 
  -3  -3  12  433.96   62.39 
   3   3  12  545.95   50.69 
  -3  -3  12  560.14   51.59 
  -3  -3  12  536.15   67.39 
   3  -3  12  574.14   54.19 
   3  -3  12  551.14   48.00 
  -4  -2 -12  481.05   85.39 
   2  -4 -12  519.15   53.29 
  -2   4 -12  425.36   76.79 
  -4  -2 -12  435.96   57.79 
   2  -4 -12  497.95   50.69 
   4   2 -12  539.25   54.59 
  -4  -2 -12  492.55   58.59 
   4   2 -12  531.85   51.99 
   2  -4 -12  526.65   52.39 
   4   2 -12  586.44   50.69 
  -2   4 -12  477.25   63.29 
   2  -4 -12  565.94   68.69 
  -4  -2  12  525.45   69.39 
   2  -4  12  575.34   60.99 
   2  -4  12  584.14   49.90 
  -2   4  12  523.75   57.39 
   2  -4  12  580.94   56.49 
   4   2  12  594.24   49.99 
  -4  -2  12  566.24   54.29 
  -4  -2  12  497.35   64.99 
  -2   4  12  447.36   52.49 
   0   4 -12   -2.90    8.50 
   0   4 -12    6.80    7.90 
   4   0 -12   12.10    3.30 
   0  -4 -12   -6.00    4.90 
   4   0 -12   13.10    3.10 
   4   0 -12    2.90    4.30 
  -4   0 -12    8.50    8.60 
   0  -4 -12   11.20   23.60 
   0  -4 -12    2.80    5.40 
   4   0  12    6.00    1.70 
   4   0  12    6.10    3.00 
   0   4  12    7.90    4.90 
   0   4  12   54.79   39.60 
   0  -4  12   13.30    8.80 
  -4   0  12    7.50   13.10 
   0  -4  12    6.40    8.30 
   0   4  12   13.50    6.50 
   0  -4  12    5.70   10.20 
   4   0  12   10.90    4.00 
   4   0  12    1.40    7.30 
  -4   0  12   11.00   12.50 
   0  -4  12   19.70   13.90 
   0   4  12    2.30   13.00 
   0  -4  12    4.40    3.20 
   4   0  12    4.70    5.40 
  -4   2 -12  565.44   62.99 
   4  -2 -12  548.55   53.79 
   4  -2 -12  648.54   56.59 
  -4   2 -12  561.04   64.19 
   2   4 -12  515.35   61.79 
  -4   2 -12  675.13   81.29 
  -2  -4 -12  497.95   59.99 
  -2  -4 -12  547.25  100.49 
  -4   2  12  523.65   66.09 
   2   4  12  607.64   55.49 
  -2  -4  12  577.44   55.69 
   2   4  12  559.34   55.09 
  -2  -4  12  726.53   88.69 
   4  -2  12  632.64   53.09 
  -4   2  12  503.05   56.39 
   4  -4 -12  575.84   51.59 
  -4   4 -12  514.05   63.09 
  -4   4 -12  452.45   58.99 
  -4  -4 -12  424.76   57.89 
   4   4 -12  451.95   88.49 
  -4  -4 -12  424.96   57.49 
  -4  -4 -12  560.84  124.99 
   4   4 -12  545.35   57.79 
   4   4 -12  509.45   51.59 
   4  -4 -12  499.55   49.50 
   4   4  12  575.04   50.29 
  -4   4  12  493.05   54.29 
  -4  -4  12  580.44   55.29 
   4  -4  12  583.94   48.90 
  -4   4  12  476.75   62.99 
   4   4  12  614.04   51.39 
  -4  -4  12  551.64   70.99 
  -4   4  12  572.44   85.89 
   4  -4  12  590.44   58.39 
   4  -4  12  507.45   57.69 
   5   3 -12  202.28   23.70 
   3  -5 -12  140.69   18.40 
  -3   5 -12  150.68   27.40 
   3  -5 -12  143.29   18.90 
  -5  -3 -12  142.29   27.10 
  -3   5 -12  142.59   32.70 
  -5  -3 -12   85.49   42.70 
  -5  -3 -12  184.78   28.80 
   3  -5 -12  185.08   19.50 
   5   3 -12  139.89   17.80 
   3  -5 -12  170.68   31.20 
   5   3  12  147.29   17.00 
  -3   5  12  163.98   28.10 
  -3   5  12  187.48   57.29 
  -3   5  12  129.49   21.60 
  -3   5  12  142.09   28.40 
  -5  -3  12  148.49   22.70 
  -5  -3  12  169.28   36.20 
   3  -5  12  168.38   16.60 
  -1   5 -12   -5.30   14.40 
  -5  -1 -12    7.90    9.10 
  -1   5 -12    1.00    8.60 
  -5  -1 -12   -7.50   25.50 
   5   1 -12   -0.80    4.40 
   1  -5 -12   -0.40    5.20 
  -5  -1 -12    9.40    9.20 
   1  -5 -12    5.70    6.10 
   1  -5 -12   10.80   22.00 
   5   1 -12    0.10    4.70 
  -5  -1  12    2.90   17.10 
  -1   5  12   -5.10   29.50 
   5   1  12    0.40    1.80 
  -5  -1  12    2.40   11.80 
   1  -5  12    1.90    2.70 
   1  -5  12   -2.80    6.30 
  -1   5  12   22.40   17.90 
   1  -5  12    1.10   13.50 
   1  -5  12   -1.00    8.60 
  -5  -1  12   -1.30    6.20 
  -1   5  12    0.00    4.70 
   5   1  12   -8.60    9.50 
  -1   5  12    0.20    7.50 
  -1  -5 -12   13.90    7.70 
  -1  -5 -12   -2.80    5.90 
  -1  -5 -12  -35.80   42.20 
   5  -1 -12   17.50    6.20 
   1   5 -12    3.00   10.70 
  -5   1 -12   -4.40    8.90 
   5  -1 -12   -2.10    3.90 
   5  -1  12    1.30    4.90 
   1   5  12    3.20    4.10 
   1   5  12    8.90   16.50 
  -5   1  12    0.10    5.60 
   1   5  12    2.70    4.10 
   5  -1  12    4.50    8.40 
  -5   1  12   -4.20   10.70 
   1   5  12   -1.00   29.30 
   5  -1  12    2.20    1.90 
  -1  -5  12    1.10   16.40 
  -1  -5  12   -0.40    3.00 
  -5   1  12    5.20   13.50 
  -3  -5 -12  132.89   35.80 
  -3  -5 -12   57.59   53.89 
   5  -3 -12  197.28   19.20 
   3   5 -12  141.09   20.50 
   3   5 -12  154.98   29.10 
   3   5 -12  150.88   60.59 
  -3  -5 -12  110.09   23.70 
  -5   3 -12  179.48   28.30 
   5  -3 -12  146.59   17.30 
   3   5  12  163.88   19.10 
  -5   3  12  159.18   21.90 
  -5   3  12  189.68   47.80 
   3   5  12  169.18   18.70 
  -3  -5  12  173.08   21.20 
  -5   3  12  122.19   27.10 
  -5   3  12  171.38   30.20 
   5  -3  12  183.78   24.60 
  -3  -5  12  209.18   55.79 
  -5  -5 -12    6.70   11.00 
  -5  -5 -12    0.10   10.70 
   5   5 -12   17.10    7.80 
  -5   5 -12   12.00   11.30 
   5   5 -12   -1.60   33.40 
  -5  -5 -12   -8.20   62.89 
  -5   5 -12    6.20   15.60 
   5  -5 -12    4.80    4.40 
  -5   5  12  -23.00   32.00 
  -5   5  12   -6.20    7.70 
   5  -5  12    6.50    1.70 
   5  -5  12   10.30    8.80 
   5   5  12    8.70    5.10 
  -5  -5  12   -6.30   18.90 
  -5  -5  12    6.90    8.80 
  -5   5  12    9.60   13.90 
   5   5  12   52.59   33.80 
  -4   6 -12  -15.90   18.90 
   6   4 -12    9.10    5.60 
  -6  -4 -12   -2.30   11.00 
  -6  -4 -12   29.70   46.50 
   4  -6 -12   14.80   11.70 
   4  -6 -12    4.50    4.00 
   6   4 -12    4.30    7.70 
  -6  -4 -12    8.50   13.70 
  -4   6 -12  -12.40    9.20 
   4  -6 -12    3.40    5.40 
   6   4 -12   22.80   25.30 
  -4   6  12  -15.80   36.60 
   4  -6  12    7.80    3.30 
  -4   6  12    3.20   13.50 
   6   4  12   16.40    9.20 
  -6  -4  12   -1.40   21.30 
   6   4  12   -0.40   22.20 
  -6  -4  12    7.20    8.90 
   4  -6  12   13.50   10.90 
   4  -6  12   10.00   10.00 
  -4   6  12   -1.30    9.70 
   4  -6  12    5.70    4.90 
  -4   6  12    2.00   14.00 
   2  -6 -12   15.30    7.30 
   2  -6 -12   14.40    6.60 
  -2   6 -12   -2.60   20.20 
  -2   6 -12    6.50   34.10 
   6   2 -12   17.80    7.30 
   6   2 -12   10.00    2.90 
  -6  -2 -12    6.50   11.90 
   6   2 -12   11.30    7.00 
  -6  -2 -12    9.50   14.40 
  -6  -2 -12   11.00   29.10 
  -2   6 -12    8.00   11.20 
   2  -6 -12    6.40    6.00 
   2  -6 -12    2.40   17.80 
  -2   6  12   41.00   23.50 
   2  -6  12   17.60    4.50 
   2  -6  12   12.20    8.70 
   2  -6  12   37.40   13.30 
  -2   6  12    6.80    8.10 
   6   2  12   58.29   21.90 
   2  -6  12   10.70    8.30 
   2  -6  12   13.00   12.40 
  -2   6  12   -2.80   36.80 
  -6  -2  12    5.10   15.60 
  -6  -2  12    8.30    9.00 
  -2   6  12    7.00   10.70 
  -6   0 -12 1431.06  123.99 
  -6   0 -12 1211.48  131.19 
   6   0 -12 1254.87  112.09 
   0  -6 -12 1061.79  115.29 
   0  -6 -12 1182.58  117.69 
   0  -6  12 1416.66  131.19 
   0  -6  12 1271.47  111.99 
  -6   0  12 1194.58  117.59 
  -6   0  12 1189.68  127.59 
   0   6  12 1198.28  117.29 
   0   6  12 1212.08  117.39 
   2   6 -12   22.70   19.20 
   2   6 -12   -1.10   32.30 
   6  -2 -12   20.50    6.80 
   6  -2 -12    8.70    4.60 
  -2  -6 -12   31.30   53.99 
  -2  -6 -12    5.70    7.80 
  -2  -6 -12    5.30    9.10 
  -6   2 -12   14.20   12.50 
  -6   2 -12    5.60   13.50 
  -2  -6  12   10.10    5.90 
  -6   2  12   12.40   16.40 
   2   6  12    9.50    5.30 
  -6   2  12    8.10    7.70 
  -2  -6  12    5.30   16.90 
   2   6  12   14.10    6.90 
   2   6  12   58.79   41.80 
   6  -2  12   35.60   13.00 
   6  -2  12   28.10   16.00 
  -6   2  12   20.00   13.70 
  -4  -6 -12   -0.20   10.50 
   4   6 -12    2.80   13.10 
  -4  -6 -12  -18.00   57.09 
  -6   4 -12  -10.60   12.10 
  -4  -6 -12    6.70   10.00 
   4   6 -12  -12.40   44.90 
  -6   4 -12   12.70   11.20 
   6  -4  12    2.20    6.80 
   4   6  12    0.40    2.90 
  -4  -6  12  -13.30   20.40 
  -6   4  12    4.10   13.50 
  -6   4  12   13.30    9.80 
   4   6  12   -2.00    4.00 
  -4  -6  12    6.20    6.70 
   4   6  12   -3.40   28.10 
  -6   4  12   -4.30   26.90 
  -6  -6 -12  543.75   65.39 
   6   6 -12  344.67  100.49 
  -6  -6 -12  547.65  160.58 
  -6   6 -12  424.66   62.79 
  -6  -6  12  537.95   61.19 
  -6  -6  12  518.55   89.89 
   6  -6  12  568.74   51.89 
  -6   6  12  577.44   74.59 
  -6   6  12  545.75   89.69 
   6  -6  12  644.04   59.69 
  -6   6  12  588.84   62.69 
   5  -7 -12    0.50    9.70 
   7   5 -12    8.40    9.30 
  -7  -5 -12   -2.80   13.20 
  -5   7 -12   11.60   21.10 
   7   5 -12    6.10   11.40 
  -5   7 -12    3.10   11.30 
  -7  -5 -12  -12.40   15.00 
  -5   7  12   -1.90   12.60 
   5  -7  12    2.40   10.20 
  -5   7  12   -0.60   36.10 
   3  -7 -12  295.17   31.50 
   3  -7 -12  241.48   31.70 
  -3   7 -12  208.08   51.49 
  -7  -3 -12  282.17   44.20 
  -7  -3 -12  286.67   40.90 
  -3   7 -12  192.18   74.89 
  -3   7  12  240.78   35.20 
   3  -7  12  264.37   31.70 
  -7  -3  12  250.77   38.00 
   3  -7  12  285.97   26.90 
  -3   7  12  291.47   43.50 
  -7  -3  12  298.17   79.19 
   3  -7  12  318.67   41.30 
  -3   7  12  437.96   88.69 
   1  -7 -12    9.30    8.00 
   7   1 -12   15.70    6.90 
  -7  -1 -12   11.50   15.60 
  -7  -1 -12   16.50   14.10 
   7   1 -12   31.10    7.90 
   1  -7 -12   -0.20   22.40 
  -1   7 -12   39.00   44.80 
   1  -7 -12   25.80   10.40 
  -1   7 -12   14.30   27.60 
  -7  -1  12    9.80   11.70 
   1  -7  12   14.90   14.80 
  -7  -1  12  -13.20   17.70 
   1  -7  12   12.90    4.70 
  -1   7  12   75.59   30.60 
  -1   7  12   16.00   47.00 
  -7  -1  12    5.20   17.80 
  -1   7  12   14.10    7.70 
  -7   1 -12   11.60   15.00 
   1   7 -12    1.40   33.30 
   7  -1 -12   18.50    5.10 
  -1  -7 -12   27.50   12.60 
  -7   1 -12   23.60   14.90 
   1   7 -12    7.20   26.70 
   1   7 -12  -12.80   33.70 
  -1  -7 -12    1.20   37.70 
  -7   1  12   10.50    9.50 
   1   7  12   60.09   64.89 
  -7   1  12   -0.40   17.90 
  -1  -7  12   12.90    5.50 
  -1  -7  12   12.50   20.60 
   7  -1  12   18.20   11.10 
   1   7  12   25.00    9.40 
   1   7  12   16.00    6.90 
  -7   3 -12  276.77   36.30 
  -3  -7 -12  211.88   34.40 
   3   7 -12  109.09   68.29 
   3   7 -12  236.18   47.90 
  -3  -7 -12  206.18   31.80 
  -7   3 -12  283.17   41.90 
   3   7  12  254.07   28.10 
   7  -3  12  291.07   30.40 
  -7   3  12  190.78   35.00 
   3   7  12  252.77   26.10 
  -7   3  12  238.08   32.00 
  -3  -7  12  258.17   28.80 
  -7   3  12  166.58   43.20 
  -3  -7  12  191.98   49.99 
  -5  -7 -12  -34.90   89.09 
  -5  -7 -12    1.20   13.80 
  -5  -7 -12   -2.50   11.70 
  -7   5 -12    0.80   14.50 
  -7   5 -12    6.40   12.60 
   5   7 -12  -52.29  108.19 
   5   7 -12    4.90   20.70 
  -7   5  12    6.20   33.00 
   7  -5  12   -1.10    7.50 
   5   7  12   13.70   39.30 
   5   7  12    2.20   11.50 
  -2   8 -12   96.19   43.40 
  -2   8 -12  303.87   94.79 
   8   2 -12  127.89   16.40 
  -8  -2 -12  168.78   30.90 
  -2   8  12  294.87   86.09 
  -8  -2  12   72.09   23.90 
   2  -8  12  116.49   14.00 
  -2   8  12   93.49   19.50 
   2  -8  12  159.08   33.50 
  -2   8  12  129.89   28.60 
   0   8 -12  137.99   66.89 
   0  -8 -12   45.10   49.60 
   0   8 -12   28.10   32.50 
  -8   0 -12   21.40   20.10 
   8   0 -12   31.60    5.00 
   0   8 -12   49.50   36.10 
   0  -8 -12   46.50   14.90 
   0  -8  12   26.90    6.90 
   0   8  12  147.69   66.59 
   0   8  12   22.00    9.10 
  -8   0  12   30.80   14.90 
  -8   0  12    8.10   19.30 
   0  -8  12   56.99   27.40 
   0   8  12   27.30   11.70 
  -8   2 -12  162.58   27.80 
  -2  -8 -12  109.09   24.40 
  -2  -8 -12  197.08  207.58 
   2   8 -12   58.19   52.79 
  -2  -8 -12   80.39   21.10 
  -2  -8  12  123.39   42.90 
   2   8  12  115.19   18.30 
  -8   2  12   84.19   22.00 
  -2  -8  12  115.09   16.20 
   1   0 -13   -2.40    4.00 
   0   1 -13   -1.50    4.50 
  -1   0 -13    2.80    6.30 
   0  -1 -13   -4.00    5.20 
   1   0 -13    0.20    5.00 
  -1   0 -13   -2.70    5.50 
   0  -1 -13    4.70    4.90 
   1   0 -13    5.00    6.10 
   0   1 -13    9.50    6.90 
   0  -1  13    8.00    9.50 
   0   1  13   -1.00    2.70 
  -1   0  13   -2.50   10.10 
   1   0  13   -1.50   16.50 
   0  -1  13   -2.40   12.40 
   0  -1  13   -1.60    7.90 
   0  -1  13    1.20    2.60 
  -1   0  13    5.40    3.40 
  -1   0  13   15.30   15.60 
   1   0  13   -1.60    7.80 
   1   0  13   14.70    9.20 
   1   0  13   -6.90    6.70 
   1   0  13   -1.00    2.60 
   0   1  13    9.60   10.70 
   1  -2 -13   80.49   13.80 
   2   1 -13  105.19   13.90 
  -2  -1 -13   65.49   19.20 
  -2  -1 -13   88.09   33.80 
   2   1 -13   93.39   15.20 
   1  -2 -13   89.19   15.90 
   1  -2 -13   92.49   15.80 
  -1   2 -13   89.59   17.40 
  -1   2 -13   81.29   23.10 
   1  -2 -13   85.49   29.30 
  -2  -1 -13   87.79   20.40 
  -1   2  13   72.99   13.40 
   1  -2  13   76.69   21.90 
  -1   2  13  100.39   17.40 
  -2  -1  13  116.29   24.20 
   2   1  13  100.19   18.70 
  -2  -1  13   87.99   14.20 
  -2  -1  13  110.29   25.20 
   2   1  13   87.29   11.90 
  -1   2  13   80.59   15.60 
   1  -2  13  100.79   11.90 
   2   1  13   90.99   11.90 
   1  -2  13  102.69   18.90 
   1  -2  13   96.79   16.40 
  -1   2  13  145.79   38.30 
  -1  -2 -13  181.28   55.39 
  -1  -2 -13   71.39   19.30 
  -1  -2 -13   78.09   15.20 
  -2   1 -13   81.59   19.10 
   2  -1 -13   81.69   14.60 
   1   2 -13   99.29   16.00 
   2  -1 -13   83.69   17.60 
   2  -1 -13   72.79   12.60 
   1   2  13  108.39   14.00 
   1   2  13  100.29   19.90 
  -1  -2  13   79.69   25.00 
  -1  -2  13  120.49   22.60 
  -2   1  13   70.79   23.90 
   2  -1  13  101.79   12.80 
   2  -1  13  103.99   19.00 
   2  -1  13   84.29   23.50 
  -1  -2  13  108.79   25.90 
  -2   1  13  138.99   33.80 
   2  -1  13  127.29   16.70 
  -3  -2 -13   11.20   13.10 
   3   2 -13   41.10   12.90 
  -3  -2 -13    0.10   35.10 
   2  -3 -13   28.00    8.60 
   3   2 -13   17.70    6.10 
  -2   3 -13   17.90   13.30 
   2  -3 -13    9.90   17.00 
  -3  -2 -13    9.40   10.00 
   2  -3 -13   13.80    6.20 
   2  -3 -13   13.90    6.10 
  -2   3  13    9.40    6.00 
   3   2  13   38.80   21.60 
   2  -3  13   24.00    8.90 
  -3  -2  13   16.60   16.30 
   2  -3  13   25.60   10.00 
   2  -3  13   14.60    4.70 
   2  -3  13   16.50    9.10 
  -3  -2  13   24.30   18.60 
   3   2  13   21.00    5.10 
  -2   3  13   27.70   28.10 
  -3  -2  13   18.20    6.70 
  -2   3  13    9.80    6.70 
   2  -3  13   21.80   13.30 
   3   0 -13    3.30    3.50 
   3   0 -13    2.50    7.50 
  -3   0 -13    4.30    8.40 
   0  -3 -13    0.20    5.10 
   0  -3 -13    7.90   40.70 
   3   0 -13    0.60    4.50 
   0   3 -13    3.90    6.90 
  -3   0 -13    1.40    6.90 
   0   3 -13   -0.30    8.40 
   0   3  13  -11.50   16.60 
  -3   0  13    3.00   12.20 
   3   0  13    7.10    6.90 
   0  -3  13    1.10    3.00 
   3   0  13    2.60    5.20 
  -3   0  13    1.10    3.90 
   0   3  13    0.20    9.20 
   3   0  13    4.40    3.50 
   0  -3  13   -0.10    7.50 
   3   0  13    1.30    2.10 
   3   0  13    1.80    8.50 
   0  -3  13    4.10    9.40 
   0   3  13    0.10    4.40 
  -3   0  13   -1.10   10.70 
   0  -3  13   11.20   14.50 
   0   3  13   -3.00    2.80 
   3  -2 -13    5.30    4.80 
   3  -2 -13    6.30    5.70 
  -2  -3 -13    6.60    7.90 
   2   3 -13   11.90    8.40 
   2   3 -13   14.90    7.70 
   3  -2 -13   15.00    4.90 
  -2  -3 -13   13.60    7.30 
  -3   2 -13    9.20    9.00 
  -3   2 -13   10.00    9.40 
   3  -2  13    8.90    6.50 
   3  -2  13   16.50    4.90 
   2   3  13   34.20   23.00 
  -2  -3  13   28.70   15.10 
   3  -2  13    5.90   10.30 
  -2  -3  13   15.80   14.70 
  -3   2  13    1.60   17.60 
   2   3  13   24.00   14.90 
  -3   2  13    1.80   12.30 
   2   3  13   14.20    5.60 
   2   3  13   13.20    5.20 
  -3   2  13   11.40    6.00 
  -2  -3  13   12.20    4.90 
   3  -4 -13   -4.40    4.80 
  -4  -3 -13    8.90   10.00 
  -3   4 -13    0.60    9.80 
   3  -4 -13    4.40    4.10 
  -4  -3 -13  -19.90   34.80 
   4   3 -13   -3.10    4.80 
   3  -4 -13    3.50    4.40 
   4   3 -13    4.20    4.30 
  -3   4 -13    3.70   12.90 
  -4  -3 -13    8.40   10.20 
   3  -4 -13    1.80   12.80 
   3  -4  13    1.50    5.30 
   3  -4  13    8.70    9.30 
   4   3  13    5.20    3.20 
  -3   4  13    2.60    5.20 
  -3   4  13   27.30   29.50 
  -4  -3  13    2.60    5.20 
   4   3  13   30.40   33.10 
   4   3  13    2.60    3.00 
  -4  -3  13   15.40   16.10 
   3  -4  13    2.50    2.80 
   3  -4  13   19.70   11.70 
   3  -4  13    2.20    7.60 
  -4  -3  13    8.30   19.30 
  -3   4  13   30.80   14.50 
   4   1 -13  104.79   14.30 
   1  -4 -13  105.29   18.00 
  -4  -1 -13  107.39   22.10 
  -4  -1 -13  141.39   24.50 
  -1   4 -13  128.09   28.90 
   1  -4 -13  188.48   46.80 
   4   1 -13  129.59   14.50 
  -4  -1 -13  110.89   40.00 
   1  -4  13  138.59   15.50 
  -1   4  13  126.49   18.00 
  -4  -1  13  135.79   34.10 
  -4  -1  13  123.39   18.30 
  -1   4  13  138.59   27.00 
   1  -4  13  152.58   23.00 
   4   1  13  148.99   13.30 
   4   1  13  142.59   15.10 
  -4  -1  13  187.38   40.90 
   1  -4  13  142.29   27.50 
  -1  -4 -13  123.89   21.40 
  -1  -4 -13  117.49   19.90 
  -4   1 -13  183.58   26.60 
   1   4 -13  177.78   25.90 
   4  -1 -13  138.99   18.60 
  -4   1 -13  103.39   26.50 
   4  -1 -13  129.09   16.90 
   1   4 -13  113.59   26.70 
  -1  -4 -13  218.68   90.39 
   1   4  13  126.89   17.50 
  -4   1  13   98.79   29.60 
  -1  -4  13  108.89   29.50 
   4  -1  13  149.59   15.50 
  -1  -4  13  137.89   16.90 
   4  -1  13  157.58   13.40 
  -4   1  13  121.39   28.80 
   1   4  13  138.59   18.60 
  -1  -4  13  151.48   28.10 
   4  -1  13  146.69   27.00 
  -4   1  13  130.09   18.50 
  -1  -4  13  197.78   33.30 
   4  -3 -13    4.10    5.00 
  -3  -4 -13    0.10    9.00 
   3   4 -13    8.40    5.70 
  -4   3 -13    0.80   10.50 
  -4   3 -13   -1.90    9.80 
   3   4 -13   -1.30    8.80 
  -3  -4 -13    5.10    8.00 
  -3  -4 -13   11.30   40.90 
   4  -3  13    4.00    7.00 
  -3  -4  13    3.90    4.30 
   3   4  13    5.60    3.70 
   4  -3  13    7.90    3.20 
   3   4  13   20.30   22.90 
  -3  -4  13    0.70   29.50 
  -4   3  13    6.80    6.00 
   4  -3  13   11.10    8.90 
   3   4  13    2.00    3.10 
   4  -3  13    3.20    2.70 
  -3  -4  13    3.10   13.60 
  -4   3  13   11.30   11.60 
  -4   5 -13   88.79   27.70 
   5   4 -13  109.69   20.20 
   4  -5 -13   85.99   13.50 
  -4   5 -13   71.49   21.30 
   5   4 -13   87.59   14.60 
   4  -5 -13   88.69   12.50 
  -5  -4 -13   64.49   20.40 
  -5  -4 -13   87.09   21.60 
   4  -5  13  106.29   20.80 
   5   4  13   97.39   11.40 
   4  -5  13  108.29   11.20 
  -4   5  13   64.09   45.40 
   4  -5  13  115.59   13.30 
  -5  -4  13   83.49   18.60 
  -4   5  13   65.79   22.60 
   2  -5 -13   47.20   23.00 
   2  -5 -13   47.80   11.20 
   2  -5 -13   38.60   10.40 
  -2   5 -13   28.10   15.10 
  -5  -2 -13   26.50   14.60 
  -5  -2 -13   41.80   15.30 
   5   2 -13   58.09    7.90 
   5   2 -13   40.70    7.90 
   5   2 -13   65.49   15.70 
  -2   5 -13   41.30   21.40 
  -2   5  13  144.09   63.69 
  -5  -2  13   31.60   22.50 
  -2   5  13   42.50   14.40 
  -5  -2  13   10.20   27.00 
   2  -5  13   71.19   20.20 
   2  -5  13   55.79    7.80 
   5   2  13   53.89    7.20 
   2  -5  13   55.69   19.20 
  -2   5  13   54.59   12.40 
  -2   5  13   62.59   20.50 
  -5  -2  13   41.00   11.80 
   0   5 -13    7.40    9.80 
   5   0 -13    7.30    5.60 
   0  -5 -13    0.80    6.20 
   0   5 -13    2.10   15.70 
  -5   0 -13    4.90    9.50 
   0  -5 -13   32.20   32.80 
   5   0 -13   -4.00    4.40 
  -5   0 -13   -6.00    8.80 
   0   5  13  -15.60   32.00 
   0   5  13    0.40    5.90 
   0  -5  13    1.30    2.70 
   0   5  13   -2.30    4.40 
  -5   0  13   -0.30    6.10 
   5   0  13    0.10    9.80 
   0  -5  13   14.20   25.60 
   5   0  13    2.50    8.30 
   0   5  13    8.50   17.80 
   0  -5  13   -0.50    8.90 
  -5   0  13    9.90   16.00 
  -2  -5 -13   49.60   15.20 
  -2  -5 -13   43.70   16.30 
   5  -2 -13   47.60    9.30 
  -5   2 -13   25.40   14.50 
  -2  -5 -13   11.10   80.19 
   5  -2 -13   59.69   10.50 
  -2  -5  13   67.09   29.60 
   5  -2  13   57.79   17.70 
  -5   2  13   37.80   17.40 
   5  -2  13   50.29    6.70 
  -2  -5  13   43.00    9.70 
   5  -2  13   77.29   16.30 
   2   5  13   50.89    9.80 
  -5   2  13   32.70   11.20 
  -5   2  13   73.89   28.80 
  -5   4 -13   87.59   24.20 
   5  -4 -13   95.59   12.20 
  -4  -5 -13   60.89   19.20 
  -4  -5 -13   17.00   63.99 
   4   5 -13   72.69   19.90 
   5  -4 -13   95.69   12.40 
   4   5 -13   29.80   40.20 
  -5   4 -13   70.09   22.00 
   4   5 -13  111.09   16.20 
  -4  -5 -13   66.49   19.90 
  -4  -5  13  104.69   16.90 
  -5   4  13   91.09   17.60 
  -5   4  13   84.59   25.10 
  -4  -5  13   77.39   38.30 
   4   5  13  102.19   13.00 
   5  -4  13   98.29    9.60 
  -5   4  13   36.80   33.90 
   5  -4  13   99.09   18.70 
   6   5 -13   14.30    8.90 
   6   5 -13   10.30   12.10 
  -6  -5 -13  -15.70   53.69 
  -5   6 -13   25.70   21.50 
  -5   6 -13   15.90   14.20 
   5  -6 -13   16.60    7.70 
  -6  -5 -13   12.70   14.50 
   6   5 -13  -12.50   36.80 
   6   5  13   35.30   39.20 
  -5   6  13   -4.80   10.70 
  -5   6  13    3.30   46.70 
   5  -6  13   11.70    4.70 
  -6  -5  13   14.50   28.30 
  -5   6  13   18.80   17.40 
  -6  -5  13    8.90   12.20 
   5  -6  13   20.50   12.30 
  -3   6 -13   -5.20   22.10 
  -3   6 -13   -4.10   10.80 
   3  -6 -13    4.50    6.00 
   3  -6 -13    2.50   16.80 
  -6  -3 -13  -18.00   41.30 
   3  -6 -13    8.90    5.40 
  -6  -3 -13   18.50   14.70 
  -6  -3 -13   13.50   13.40 
   3  -6 -13    2.90    5.30 
   3  -6  13    6.10    7.70 
  -3   6  13   10.70   17.70 
   3  -6  13    8.60    3.60 
  -3   6  13    3.20    8.10 
  -6  -3  13    3.20   23.20 
  -3   6  13    4.50   10.30 
  -6  -3  13    7.70    9.70 
   6   3  13   31.50   23.70 
   3  -6  13   30.60   15.90 
  -3   6  13   31.00   39.60 
  -6  -3  13  -13.90   18.80 
  -1   6 -13    7.20   21.60 
  -6  -1 -13   15.90   32.00 
  -6  -1 -13   23.20   15.60 
   1  -6 -13    7.40    6.70 
   1  -6 -13    9.60    7.90 
   1  -6 -13    2.20   25.00 
  -6  -1 -13   -0.40   20.60 
   6   1 -13   15.70    7.00 
   6   1 -13   15.40    6.80 
   1  -6  13    9.30   14.70 
  -6  -1  13   20.70   20.30 
   6   1  13   34.50   17.00 
  -6  -1  13    9.90   14.90 
  -1   6  13   15.70    9.80 
  -1   6  13   29.60   43.30 
   1  -6  13   20.60   11.40 
   6   1  13   10.40    3.00 
  -1   6  13   63.49   26.60 
   6   1  13   32.10    8.60 
  -1   6  13   11.80    7.20 
   1  -6  13    5.60    3.90 
  -1  -6 -13    5.90    7.70 
  -6   1 -13   30.10   14.20 
   1   6 -13    6.90   16.60 
  -1  -6 -13   12.10   35.30 
   6  -1 -13   11.40    5.80 
  -6   1 -13   -8.50   12.90 
   6  -1 -13   16.60    6.20 
  -1  -6  13   10.40    5.20 
  -1  -6  13   -6.20   14.40 
   1   6  13    7.90    5.00 
   1   6  13   35.80   46.50 
   1   6  13    9.90    6.80 
  -6   1  13   -2.30   16.50 
   6  -1  13   18.40    3.50 
   6  -1  13   11.20   10.10 
  -6   1  13   16.90    9.40 
  -6   1  13   24.20   16.30 
   6  -1  13   19.90   13.00 
   3   6 -13   11.90   43.30 
  -6   3 -13    8.60   12.30 
  -3  -6 -13   70.29   89.69 
  -3  -6 -13   -0.40    9.40 
  -6   3 -13    2.60   11.40 
  -3  -6 -13   11.70   10.20 
   3   6 -13   11.90   14.80 
   6  -3 -13    5.40    4.40 
   3   6  13    4.70    3.60 
  -6   3  13    8.70    7.90 
   6  -3  13    4.20    8.30 
   3   6  13   19.40   30.00 
  -6   3  13   36.90   29.00 
  -3  -6  13    4.60    5.20 
  -3  -6  13    8.30   22.20 
   3   6  13    5.90    4.40 
  -6   3  13    2.30   11.10 
   5   6 -13   -2.00   15.00 
  -5  -6 -13   20.20   14.40 
  -5  -6 -13  -14.30   68.59 
  -6   5 -13    4.20   16.20 
  -5  -6 -13    4.80   13.20 
  -6   5 -13    2.90   18.10 
   5   6  13   22.40    7.60 
  -6   5  13    8.50   34.70 
   5   6  13   96.89   43.70 
   6  -5  13   10.80    9.30 
  -6   5  13    8.50   17.20 
  -5  -6  13   18.00    9.70 
  -6   5  13    5.50   10.40 
  -4   7  13   85.49   50.69 
   4  -7  13  121.79   30.60 
   2  -7 -13   84.89   16.50 
  -2   7 -13   67.19   20.20 
  -2   7 -13  101.49   40.20 
  -7  -2 -13  137.09   29.70 
   2  -7 -13  203.58   54.69 
   2  -7 -13  119.29   18.50 
  -7  -2 -13  102.79   29.00 
  -2   7  13  222.28   69.19 
  -2   7  13   90.69   22.70 
  -2   7  13   89.49   17.80 
  -7  -2  13   90.29   21.40 
   2  -7  13  114.29   29.30 
   2  -7  13   94.19   15.40 
   0   7 -13   13.20   27.20 
   0  -7 -13   -3.60    7.90 
  -7   0 -13    0.40   12.70 
   7   0 -13   -0.50    5.90 
   7   0 -13    1.90    4.90 
   0  -7 -13    9.90   42.40 
  -7   0 -13    0.30   14.40 
   0   7  13    3.00    5.60 
   7   0  13    7.60    5.70 
   0   7  13   -4.10    6.40 
   7   0  13    2.60    6.30 
   0  -7  13   -0.20    3.40 
  -7   0  13   -1.00    9.00 
   0  -7  13    3.90   20.30 
   0   7  13   -7.90   44.20 
  -7   0  13   24.00   20.20 
   2   7 -13   75.89   32.00 
  -2  -7 -13   90.39   22.00 
   7  -2 -13  134.59   11.90 
  -2  -7 -13   84.19   20.20 
  -2  -7 -13   71.19   76.59 
  -7   2 -13  122.59   30.60 
   7  -2 -13  107.29   12.10 
  -7   2 -13  115.49   29.70 
  -2  -7  13   88.49   46.50 
   7  -2  13  146.89   22.20 
  -7   2  13   62.79   27.90 
   2   7  13  100.39   17.10 
  -2  -7  13  107.99   16.00 
   2   7  13  115.79   15.60 
  -4  -7 -13  113.69   28.70 
   4   7 -13   33.70   62.59 
   7  -4  13   90.59   18.30 
  -4  -7  13  112.39   56.89 
   1  -8 -13   71.59   16.80 
   1  -8  13   35.10   26.10 
  -1   8  13  101.89   66.59 
  -1  -8 -13   52.09   16.90 
   1   8 -13   52.49   42.60 
   8  -1  13   89.49   20.70 
  -1  -8  13  108.49   61.99 
   0   0 -14  147.79   23.00 
   0   0 -14  213.78   27.20 
   0   0  14  234.58   51.19 
   0   0  14  195.28   21.00 
   1  -1 -14   75.69   13.50 
   1   1 -14   75.49   17.30 
  -1   1 -14   70.79   18.80 
   1  -1 -14   80.69   15.90 
  -1  -1 -14   87.99   19.10 
  -1  -1 -14   59.69   15.40 
   1   1 -14   77.59   14.10 
  -1   1 -14   71.79   17.30 
  -1   1  14  107.99   13.60 
  -1   1  14   49.80   22.10 
  -1  -1  14   58.59   23.80 
  -1   1  14   97.29   26.70 
  -1  -1  14  124.69   25.80 
  -1  -1  14  126.49   24.90 
   1   1  14  159.68   36.10 
   1   1  14  105.39   12.70 
   1  -1  14   84.19   11.90 
   1  -1  14  121.29   30.80 
  -1  -1  14   93.09   12.40 
   1   1  14  102.49   13.50 
   1  -1  14  105.69   21.30 
  -2   0 -14  413.16   50.59 
   2   0 -14  379.66   43.40 
   2   0 -14  395.16   46.40 
   0   2 -14  422.86   48.40 
   0  -2 -14  454.05   69.49 
   0  -2 -14  410.56   47.60 
   0  -2 -14  358.46   45.10 
   0   2 -14  439.96   50.89 
  -2   0  14  466.15   44.40 
   0  -2  14  461.75   43.20 
   0   2  14  469.35   49.50 
   2   0  14  469.55   45.10 
   0   2  14  525.95   47.30 
   0   2  14  440.96   43.90 
   0  -2  14  490.75   58.89 
   2   0  14  465.25   60.69 
  -2   0  14  522.05   61.59 
   2  -2 -14   48.70   10.20 
  -2   2 -14   18.50   13.30 
   2   2 -14   41.20   10.60 
  -2   2 -14   40.20   15.60 
  -2  -2 -14   53.99   15.00 
  -2  -2 -14   37.60   28.10 
  -2  -2 -14   26.50   10.40 
   2   2 -14   36.30   11.90 
  -2   2  14   27.00   18.70 
   2   2  14   57.19    8.90 
  -2  -2  14   32.70   15.80 
   2   2  14   54.59    8.70 
  -2  -2  14   49.30    9.40 
  -2  -2  14   58.99   20.40 
   2  -2  14   30.90   16.40 
  -2   2  14   45.70   14.10 
  -2   2  14   51.59   10.20 
   2   2  14  104.49   27.30 
   2  -2  14   49.60   13.50 
   2  -2  14   54.89    8.10 
  -2   2  14   94.59   32.80 
   1  -3 -14  125.49   23.20 
   1  -3 -14  100.59   17.20 
  -3  -1 -14   85.99   30.30 
  -1   3 -14   90.29   24.30 
  -3  -1 -14  117.99   21.90 
   3   1 -14   97.09   14.90 
   1  -3 -14  145.79   41.30 
  -3  -1 -14  184.28   57.39 
   3   1  14  149.39   14.60 
   3   1  14  135.29   15.20 
  -1   3  14  102.09   20.40 
   1  -3  14  165.78   24.20 
   1  -3  14  105.09   25.40 
  -3  -1  14  126.09   32.80 
   1  -3  14  129.39   14.80 
  -1   3  14  118.39   16.60 
  -3  -1  14  125.59   34.00 
  -3  -1  14  129.59   17.30 
  -1   3  14  114.39   21.90 
   3  -1 -14  156.48   16.20 
   3  -1 -14  133.69   20.20 
   1   3 -14  113.79   21.80 
   1   3 -14  121.09   21.40 
  -1  -3 -14  105.39   18.50 
  -3   1 -14   85.59   22.20 
  -1  -3 -14  122.89   20.50 
  -1  -3 -14  100.29   39.80 
  -3   1 -14  109.39   22.70 
  -1  -3  14  168.58   32.50 
  -3   1  14   87.09   26.70 
   1   3  14  132.59   17.30 
   1   3  14  118.69   16.40 
  -1  -3  14  209.38   39.70 
   3  -1  14  144.19   29.10 
  -3   1  14  112.19   34.60 
  -1  -3  14  131.89   16.10 
   3  -1  14  131.79   15.10 
   3  -1  14  173.38   25.20 
  -3   1  14  120.89   16.90 
  -1  -3  14  125.49   28.70 
   3  -3 -14  485.75   47.80 
   3  -3 -14  421.06   44.50 
   3   3 -14  388.56   49.99 
  -3  -3 -14  574.04  146.89 
   3   3 -14  475.35   48.70 
  -3   3 -14  459.95   56.59 
  -3   3 -14  428.16   56.49 
   3  -3  14  543.05   53.39 
   3   3  14  494.55   45.10 
  -3  -3  14  493.05   66.39 
  -3   3  14  410.26   54.09 
  -3   3  14  488.15   79.99 
  -3  -3  14  429.66   61.69 
   3   3  14  491.45   44.20 
   3  -3  14  439.56   54.39 
  -3   3  14  420.76   47.50 
   3  -3  14  508.95   44.30 
  -4  -2 -14    9.10    9.70 
  -2   4 -14   18.30   17.60 
   2  -4 -14   21.30    8.80 
   4   2 -14   11.10    5.10 
  -2   4 -14   18.50   13.60 
   4   2 -14   18.20    5.50 
   4   2 -14   12.40    7.70 
   2  -4 -14    7.70   17.70 
   2  -4 -14   18.90    7.60 
  -4  -2 -14   35.00   39.90 
  -4  -2  14   30.80   23.40 
  -4  -2  14    9.40   17.60 
   2  -4  14   15.30    9.00 
  -2   4  14   71.99   42.50 
   4   2  14   21.60    4.50 
   4   2  14   15.20    4.50 
  -2   4  14   13.00    9.90 
   2  -4  14   20.20    7.40 
  -4  -2  14   14.40    7.90 
  -2   4  14    9.90    9.80 
   0   4 -14  591.74   71.09 
   4   0 -14  562.44   51.19 
  -4   0 -14  468.65   61.19 
   0  -4 -14  516.15   57.99 
   4   0  14  628.54   52.99 
   0   4  14  569.04   57.89 
  -4   0  14  468.55   67.49 
   0   4  14  554.64   59.99 
   0  -4  14  553.64   68.29 
   0  -4  14  661.63   65.79 
  -4   0  14  583.84   56.89 
   4  -2 -14   21.00    6.80 
  -2  -4 -14   16.30    8.60 
  -4   2 -14   18.70   12.80 
   2   4 -14   18.50   11.10 
   4  -2 -14   18.30    6.90 
  -4   2 -14    6.20   11.50 
  -2  -4 -14    0.80   31.60 
  -4   2  14   25.90    8.30 
   2   4  14   18.10    6.10 
   4  -2  14   17.30    8.80 
  -4   2  14   11.70   22.80 
   2   4  14   90.09   37.90 
   4  -2  14   26.40   13.60 
  -2  -4  14   17.20   18.10 
   4  -2  14   17.10    4.70 
  -2  -4  14   10.80   13.80 
  -4  -4 -14    2.80   11.60 
  -4  -4 -14   33.20   54.79 
   4   4 -14    3.60    5.60 
   4  -4 -14   12.60    5.50 
  -4   4 -14  -11.10   22.90 
   4  -4 -14    5.50    5.60 
   4   4 -14    2.90    8.10 
  -4   4 -14    2.10   11.70 
  -4   4  14    8.80   32.00 
   4   4  14    9.20   25.70 
   4  -4  14    0.90    3.60 
  -4  -4  14   39.10   34.90 
   4   4  14   -0.10    2.90 
  -4  -4  14    2.20    6.30 
  -4   4  14   -8.70    5.80 
   4   4  14    2.00    3.20 
  -4   4  14   -8.80   14.10 
   4  -4  14   -0.70    7.50 
  -4   4  14   34.20   15.50 
   4  -4  14    2.60    2.70 
  -4  -4  14   -1.30   17.20 
  -3   5 -14   -3.10   12.50 
   5   3 -14   18.10    6.60 
  -3   5 -14   -8.80   18.20 
   3  -5 -14   30.50    8.20 
   3  -5 -14   20.50   20.80 
   5   3 -14   17.40    6.20 
  -5  -3 -14   16.70   13.60 
  -5  -3 -14   36.10   46.30 
  -5  -3 -14    8.60   11.70 
   5   3 -14   28.80   10.50 
   3  -5 -14   23.40    7.20 
   3  -5  14   20.80    5.20 
   3  -5  14   12.60   12.20 
  -3   5  14   12.30    9.80 
   3  -5  14   24.80   14.40 
  -3   5  14   23.10   13.70 
  -3   5  14   44.20   44.00 
   5   3  14   64.59   25.80 
   5   3  14   20.70    5.00 
  -5  -3  14   14.60    8.90 
  -3   5  14   16.20    8.60 
  -5  -3  14    4.40   23.90 
   3  -5  14   36.80    9.60 
  -1   5 -14   18.30   19.90 
   1  -5 -14    9.30   31.40 
  -1   5 -14   14.70   11.90 
   1  -5 -14    7.90    7.90 
  -5  -1 -14   15.00   12.30 
   1  -5 -14   12.30    7.40 
   5   1 -14   12.00    7.50 
  -5  -1 -14    2.50   11.20 
  -5  -1 -14  -14.10   31.30 
  -1   5  14    9.60    6.70 
   5   1  14   42.00   16.60 
  -5  -1  14    7.00   20.70 
   1  -5  14   27.60   17.00 
  -5  -1  14   17.70    7.70 
   1  -5  14   17.00   10.90 
   1  -5  14   18.90   12.90 
  -1   5  14   11.70    8.40 
  -1   5  14   35.60   42.30 
   1  -5  14   15.50    4.90 
  -5  -1  14   32.10   22.70 
   5   1  14   17.20    4.70 
   1   5 -14   20.90   13.40 
  -5   1 -14   -1.60   10.70 
   5  -1 -14   16.40    6.40 
   1   5 -14    7.60   13.80 
   5  -1 -14   20.40    6.90 
  -1  -5 -14    9.40    8.10 
  -1  -5 -14    3.70    8.90 
  -1  -5 -14    1.00   59.59 
  -5   1 -14    5.20   12.80 
   1   5  14   10.20    5.40 
   1   5  14   13.30    7.40 
   1   5  14  104.29   69.89 
   5  -1  14   19.80   12.50 
   5  -1  14   22.40   11.30 
   5  -1  14   15.10    3.70 
   5  -1  14   37.30    9.10 
  -5   1  14   27.90   20.70 
  -1  -5  14   16.20   17.30 
  -5   1  14   -1.70   11.30 
  -1  -5  14   18.90   14.80 
  -3  -5 -14   26.30   12.80 
  -5   3 -14    5.90   13.40 
  -3  -5 -14   41.70   53.09 
   5  -3 -14   18.40   11.00 
   3   5 -14   18.30   13.20 
   5  -3 -14   15.60    6.60 
   5  -3  14   26.00   12.30 
  -3  -5  14   10.50   20.30 
  -5   3  14   23.10   10.40 
  -5   3  14    9.00   13.00 
   5  -3  14   23.30    4.60 
   3   5  14   25.00    6.80 
  -5   3  14    9.30   25.00 
  -3  -5  14   21.80    7.70 
  -3  -5  14   32.00   21.90 
   3   5  14   24.30    6.20 
  -5  -5 -14   78.69  144.09 
  -5   5 -14    1.80   24.20 
   5   5 -14   20.10   13.80 
  -5  -5 -14   20.90   14.00 
   5  -5 -14    7.70    5.40 
  -5  -5 -14   -0.20   12.40 
   5  -5 -14    7.40    5.00 
   5   5 -14    2.70    7.60 
  -5   5 -14    9.90   19.30 
  -5  -5  14  -17.50   26.10 
   5  -5  14   -6.30   14.80 
  -5  -5  14    7.70    9.70 
  -5   5  14    3.20    9.30 
   5   5  14   19.20    6.40 
   5   5  14   32.70   34.80 
  -5   5  14    9.90   43.40 
   5   5  14    3.00    2.90 
   6   4 -14  233.08   27.30 
   4  -6 -14  205.68   25.60 
  -4   6 -14  239.08   47.40 
   4  -6 -14  279.77   40.90 
   4  -6 -14  210.98   25.50 
   6   4 -14  256.77   26.20 
  -6  -4 -14  178.88   37.80 
  -6  -4 -14  227.98   53.79 
   4  -6  14  233.58   22.70 
  -6  -4  14  231.78   33.20 
  -4   6  14  148.69   54.89 
  -4   6  14  183.98   31.10 
   4  -6  14  261.97   25.70 
  -4   6  14  236.68   63.39 
   4  -6  14  238.08   34.60 
  -6  -2 -14  177.48   34.20 
  -2   6 -14  134.59   29.40 
  -6  -2 -14  185.88   32.50 
  -2   6 -14  125.89   38.30 
   2  -6 -14  209.58   24.50 
   2  -6 -14  156.68   22.10 
  -6  -2  14  127.99   33.80 
   6   2  14  182.38   17.70 
   2  -6  14  205.18   19.60 
  -2   6  14  170.48   29.40 
   2  -6  14  218.58   34.50 
  -2   6  14  266.17   49.80 
  -6  -2  14  184.98   27.90 
  -2   6  14  131.79   23.80 
  -6  -2  14  109.09   47.30 
   6   0 -14   86.59   13.40 
   0  -6 -14   71.39   45.30 
  -6   0 -14   69.59   20.20 
   0  -6 -14   58.39   15.70 
  -6   0 -14   60.29   23.50 
   0   6 -14   45.20   24.70 
   6   0 -14   65.69   13.00 
   0  -6 -14   57.29   14.50 
   0   6 -14   42.30   18.60 
   0   6  14   84.29   15.40 
  -6   0  14   58.89   14.90 
   0   6  14   69.59   12.80 
   0  -6  14   89.09   26.00 
   0  -6  14   63.99   21.90 
  -6   0  14   32.80   23.70 
   6   0  14   68.79    8.00 
   0  -6  14   71.09   11.30 
   6  -2 -14  197.08   21.60 
   2   6 -14  124.19   33.80 
  -2  -6 -14  152.18   26.50 
  -6   2 -14  221.88   38.60 
  -2  -6 -14  165.78   94.39 
  -6   2 -14  207.38   33.60 
  -2  -6  14  184.18   22.30 
  -2  -6  14  196.98   46.70 
   6  -2  14  208.68   18.20 
   2   6  14  178.38   22.60 
   2   6  14  208.38   22.40 
  -6   2  14  159.38   26.20 
  -6   4 -14  228.58   37.90 
  -4  -6 -14  205.98   32.10 
   4   6 -14  220.28   53.49 
  -4  -6 -14  161.48   30.80 
  -6   4  14  201.38   73.29 
   4   6  14  249.18   25.50 
   6  -4  14  254.77   31.10 
  -4  -6  14  212.38   28.20 
  -4  -6  14  140.69   54.69 
   7   1 -14   35.50   11.00 
  -7  -1 -14   39.80   19.00 
   1  -7 -14    2.70   46.80 
  -1   7 -14   10.00   13.20 
  -7  -1 -14   31.50   29.90 
   1  -7 -14   36.70   13.20 
  -1   7  14   41.90   13.60 
  -7  -1  14   31.00   15.00 
  -7  -1  14   10.30   24.30 
  -1   7  14  190.18   78.69 
   1  -7  14   33.20    7.10 
   1  -7  14   46.80   20.90 
  -1  -7 -14    0.20   60.29 
  -7   1 -14   36.40   21.00 
   7  -1 -14   38.60    9.00 
  -1  -7 -14   33.20   12.70 
  -7   1 -14   34.50   18.00 
   1   7 -14   33.70   32.80 
   7  -1 -14   59.19   10.30 
   1   7  14  138.79   53.59 
   1   7  14   33.50   10.40 
  -7   1  14   18.40   21.00 
  -1  -7  14   31.30   22.10 
   1   7  14   36.90   10.70 
  -1  -7  14   38.50    9.00 
  -7   1  14   42.50   14.20 
   7  -1  14   78.99   21.30 
   0  -1 -15    2.00    5.60 
  -1   0 -15    2.70    7.40 
   0   1 -15    0.30    6.30 
   1   0 -15   -2.00    5.70 
   1   0 -15   15.00    6.70 
   0  -1 -15    4.60    7.20 
  -1   0 -15    2.60    6.60 
   0   1 -15   -4.70    7.40 
   1   0  15   -1.00    3.00 
   1   0  15    0.20   12.30 
  -1   0  15    8.10   18.10 
   0  -1  15    7.80    9.00 
   0  -1  15    9.60   11.50 
   0   1  15    5.80   17.50 
   1   0  15   -4.60   10.40 
  -1   0  15   -3.40   15.10 
   0   1  15    5.30    3.90 
   0   1  15   -3.70    4.70 
   0   1  15   -2.10   13.00 
   0  -1  15   10.10   12.80 
   1   0  15   12.40   16.50 
  -1   0  15    5.00   17.10 
   0  -1  15   -1.60    2.80 
  -1   0  15    1.80    3.60 
  -1   2 -15  249.78   38.90 
   1  -2 -15  211.88   28.30 
   2   1 -15  228.78   31.30 
   1  -2 -15  225.48   30.00 
  -1   2 -15  218.28   36.60 
  -2  -1 -15  230.58   36.00 
   2   1 -15  198.78   27.40 
  -2  -1  15  278.77   49.90 
  -1   2  15  245.38   37.90 
   1  -2  15  262.97   41.50 
   2   1  15  280.57   27.20 
  -1   2  15  301.07   30.70 
   2   1  15  303.07   26.90 
  -2  -1  15  291.57   29.80 
  -1  -2 -15  293.77   63.09 
  -2   1 -15  195.18   33.50 
   1   2 -15  229.18   33.90 
   2  -1 -15  248.48   28.40 
   1   2 -15  234.98   31.20 
  -1  -2 -15  245.78   33.60 
  -2   1 -15  227.18   37.20 
  -1  -2 -15  201.78   30.00 
   1   2  15  274.37   28.00 
  -1  -2  15  311.17   42.50 
   1   2  15  269.07   36.60 
  -2   1  15  290.67   48.70 
   1   2  15  306.17   29.10 
   2  -1  15  295.27   27.30 
  -1  -2  15  270.87   27.90 
  -2   1  15  260.27   47.00 
  -2   1  15  256.17   29.90 
   2  -1  15  256.97   42.90 
   2  -3 -15    6.40    6.20 
  -3  -2 -15  -10.60   28.50 
  -2   3 -15   -2.10   12.00 
   3   2 -15    2.60    7.40 
   3   2 -15   -2.70    4.70 
  -2   3 -15   19.00   12.90 
  -3  -2 -15   -0.90    9.80 
  -3  -2 -15    4.90    9.00 
   2  -3 -15    1.00    5.10 
  -3  -2  15    0.60   16.30 
   3   2  15    2.30    3.00 
   2  -3  15   11.50    9.60 
  -3  -2  15    1.10    4.70 
  -2   3  15   -0.70    5.00 
   2  -3  15   -0.10   12.70 
   3   2  15    9.20    4.30 
  -2   3  15    8.30   41.40 
   3   2  15    8.50   27.70 
  -3  -2  15    6.50   18.00 
   2  -3  15    7.30    8.10 
   2  -3  15    4.00    3.40 
  -2   3  15   -0.40    7.30 
   0  -3 -15    0.80   25.50 
  -3   0 -15   -3.50    8.90 
   3   0 -15    0.10    5.50 
   0   3 -15   -1.60   11.60 
   3   0 -15    2.10    4.70 
   0  -3 -15    3.50    6.10 
   0  -3 -15   -4.60    6.90 
   0  -3  15    2.10   10.40 
   0   3  15    3.80    4.10 
   0  -3  15    1.20    9.80 
   3   0  15   -6.60   15.50 
   0  -3  15    6.70   12.00 
   3   0  15    1.40    6.80 
   3   0  15   -0.10    2.90 
  -3   0  15   -4.90   17.60 
  -3   0  15    2.30   16.00 
   0   3  15    0.00   11.10 
  -3   0  15    5.40    5.50 
   0  -3  15    8.10    4.00 
   3   0  15   11.30   11.00 
   0   3  15    6.00   23.80 
   3   0  15    0.30    2.50 
   0   3  15    3.90    5.20 
   3  -2 -15   -2.00    5.60 
  -2  -3 -15   17.00    9.70 
   3  -2 -15    9.40    5.10 
  -3   2 -15    9.70   13.50 
   2   3 -15   -5.10    8.70 
  -2  -3 -15    0.70    8.10 
   2   3 -15   -0.90    6.40 
  -3   2 -15    0.80   12.20 
  -2  -3 -15   24.40   43.00 
  -2  -3  15   -3.70   14.50 
   3  -2  15   12.40    8.20 
   2   3  15   53.59   43.30 
   3  -2  15    6.20   12.90 
   3  -2  15    4.80    3.60 
  -2  -3  15   -0.30    3.90 
  -3   2  15    2.40    4.70 
  -2  -3  15    2.20   17.70 
   2   3  15    8.10    5.00 
   2   3  15    3.60    4.00 
  -3   2  15   -0.40   20.30 
  -4  -3 -15   13.00   11.10 
   4   3 -15    9.00    5.80 
   4   3 -15    7.80    5.80 
   3  -4 -15    5.30    6.20 
  -3   4 -15    5.40   13.10 
  -3   4 -15   10.70   18.60 
   4   3 -15   -1.70    8.30 
  -4  -3 -15   18.50   10.80 
   4   3  15   23.50   22.40 
   4   3  15    4.10    3.10 
  -3   4  15    8.80    7.10 
   4   3  15    6.30    3.40 
  -4  -3  15    1.60    6.30 
   3  -4  15    4.70    6.60 
  -4  -3  15    5.60   37.60 
   3  -4  15   -1.40    6.00 
   3  -4  15    3.00   11.40 
   1  -4 -15  129.09   21.20 
   4   1 -15  159.98   22.50 
  -1   4 -15  104.19   28.80 
   1  -4 -15  132.59   39.40 
  -4  -1 -15   95.19   35.30 
  -4  -1 -15  158.78   28.20 
   1  -4 -15  147.99   22.20 
  -1   4 -15  152.28   29.60 
   4   1 -15  170.08   18.50 
  -1   4  15  152.88   23.80 
   1  -4  15  175.68   27.50 
  -1   4  15  144.89   20.30 
   1  -4  15  170.28   33.30 
  -4  -1  15  165.08   21.90 
   4   1  15  180.98   16.00 
   4   1  15  179.08   17.90 
   1  -4  15  162.28   18.20 
  -4  -1  15  217.98   58.89 
  -1   4  15  146.59   30.00 
   4  -1 -15  171.38   21.80 
  -1  -4 -15  153.48   73.59 
  -1  -4 -15  121.79   22.40 
  -1  -4 -15  136.69   22.80 
  -4   1 -15  132.59   29.40 
   1   4 -15  160.78   28.30 
  -4   1 -15  129.09   31.20 
   1   4 -15  160.68   30.60 
  -4   1  15  138.19   21.10 
   4  -1  15  190.38   15.60 
   1   4  15  165.98   20.10 
  -1  -4  15  155.68   35.30 
  -4   1  15  112.59   36.50 
  -1  -4  15  157.68   18.90 
   1   4  15  172.18   22.00 
   4  -1  15  184.58   33.00 
  -4   1  15  141.29   36.60 
   3   4 -15    6.50    7.00 
  -4   3 -15    4.40   13.40 
  -3  -4 -15    6.30   16.20 
   3   4 -15    3.00    8.40 
  -3  -4 -15   -1.80    8.80 
  -3  -4 -15   28.40   53.39 
   3   4 -15   -0.50   10.70 
  -4   3 -15   15.70   15.60 
   3   4  15    6.60    3.90 
  -3  -4  15   10.50   26.10 
  -4   3  15   -2.00   15.30 
  -4   3  15    7.20   27.20 
   4  -3  15   10.60    3.80 
  -4   3  15   14.70   12.10 
   3   4  15    2.80    3.60 
   4  -3  15    6.50    3.80 
  -3  -4  15    6.00    5.60 
  -4   3  15    3.40    6.90 
   4  -3  15    3.00   10.60 
   4  -3  15   13.20    9.70 
   3   4  15   11.80   26.50 
  -3  -4  15    6.80   27.70 
   5   4 -15  121.19   19.30 
  -5  -4 -15   87.19   70.89 
   5   4 -15  123.89   24.40 
  -4   5 -15  113.89   34.10 
   5   4 -15  155.38   18.70 
   4  -5 -15  115.19   17.10 
  -5  -4 -15   95.09   25.30 
   5   4  15  117.09   14.10 
  -5  -4  15  149.39   21.90 
   4  -5  15  132.29   14.50 
   4  -5  15  143.59   15.90 
  -5  -4  15  118.29   45.50 
  -4   5  15  112.89   21.70 
  -5  -4  15  123.59   38.00 
  -4   5  15   85.69   51.39 
   5   2 -15  207.28   20.10 
  -2   5 -15  169.18   33.60 
   5   2 -15  214.48   26.40 
  -5  -2 -15  101.99   52.89 
   2  -5 -15  158.88   23.00 
   5   2 -15  165.58   19.70 
   2  -5 -15  216.38   25.10 
   2  -5 -15  209.28   49.30 
  -5  -2 -15  182.18   30.70 
  -2   5 -15  115.09   35.90 
  -5  -2 -15  149.39   31.60 
   2  -5  15  201.78   28.40 
  -5  -2  15  174.78   25.90 
   5   2  15  195.98   19.20 
  -5  -2  15  117.19   39.00 
  -2   5  15  142.89   31.00 
   2  -5  15  202.58   20.30 
   2  -5  15  231.88   37.10 
  -5  -2  15  171.98   41.70 
  -2   5  15  163.98   28.80 
  -2   5  15  178.58   24.40 
  -5   0 -15   -7.20   11.80 
   0  -5 -15   18.20   35.00 
   0   5 -15    6.90   12.80 
  -5   0 -15    8.30   12.90 
   0  -5 -15    0.70    7.20 
   0   5 -15   -0.30   15.70 
   5   0 -15    0.80    5.90 
   0  -5 -15   13.80    8.80 
   5   0  15   -4.10   11.70 
   0  -5  15    5.70   12.00 
   0   5  15   21.90   39.70 
   0   5  15    0.10    5.20 
  -5   0  15  -22.80   34.20 
   0  -5  15    5.60   13.90 
   0  -5  15    6.10    4.00 
   0   5  15    2.40    5.90 
  -5   0  15  -13.50   15.90 
  -5   0  15    1.10    6.20 
  -2  -5 -15  208.38   98.39 
   2   5 -15  165.58   36.70 
  -5   2 -15  178.08   35.90 
  -5   2 -15  223.38   35.00 
   2   5 -15  155.08   33.10 
  -2  -5 -15  148.69   25.90 
  -2  -5 -15  131.79   25.70 
   5  -2 -15  210.08   23.00 
   2   5  15  178.38   21.10 
   5  -2  15  206.18   18.60 
  -2  -5  15  183.18   41.40 
  -2  -5  15  209.98   22.50 
   2   5  15  169.28   23.10 
  -5   2  15  153.88   23.80 
  -5   2  15  126.29   41.20 
   5  -4 -15  111.69   16.90 
   4   5 -15   62.79   30.30 
  -4  -5 -15   98.09   23.70 
   5  -4 -15  124.59   16.00 
  -5   4 -15  113.89   35.30 
  -4  -5 -15   74.09   21.60 
  -5   4 -15  119.19   30.90 
  -5   4  15   89.09   21.10 
   5  -4  15  123.69   24.20 
   5  -4  15  138.69   13.00 
  -4  -5  15  133.89   20.00 
  -4  -5  15  205.58   55.09 
   4   5  15  119.29   14.40 
  -5   4  15  117.19   50.69 
   4   5  15  136.69   15.60 
  -5   4  15   62.79   30.30 
   1  -6 -15   23.10   39.40 
  -1   6 -15   -7.30   24.10 
   1  -6 -15    3.40    8.50 
   6   1 -15   16.30    8.10 
  -6  -1 -15    5.20   15.00 
   1  -6 -15    5.30    7.20 
  -1   6 -15   10.60   15.20 
  -6  -1 -15   35.10   19.40 
  -6  -1  15    6.00    8.70 
  -1   6  15   34.80   53.99 
   6   1  15    4.50    2.70 
  -1   6  15    8.10    9.00 
   1  -6  15   21.10   18.80 
  -6  -1  15    3.30   23.90 
   1   6 -15    2.40   15.10 
   6  -1 -15    3.30    6.70 
   6  -1 -15    3.70    6.10 
  -1  -6 -15    9.30    9.00 
  -6   1 -15   -2.40   27.10 
  -1  -6 -15  -27.90   74.89 
  -6   1 -15   -8.10   14.00 
  -1  -6 -15   12.50   10.50 
  -1  -6  15  -11.60   19.00 
   6  -1  15    7.30    2.70 
   6  -1  15   17.00   14.10 
  -1  -6  15    4.70    4.70 
  -6   1  15   14.10   22.90 
  -1  -6  15   16.60   18.90 
   1   6  15   31.40   57.79 
  -6   1  15   -1.80    8.90 
   1   6  15    4.30    6.10 
   0   0 -16  299.07   39.30 
   0   0 -16  352.26   42.70 
   0   0  16  511.75   76.89 
   0   0  16  377.96   36.90 
   1   1 -16   -2.40    7.40 
  -1   1 -16   -0.40    9.70 
  -1  -1 -16   13.40    9.20 
   1   1 -16    5.80    6.20 
  -1   1 -16   -3.80    7.60 
  -1  -1 -16    7.90   12.10 
   1  -1 -16    2.00    5.80 
   1  -1  16    3.80    4.40 
  -1   1  16   -0.70   16.70 
   1  -1  16    5.20   10.20 
   1   1  16   14.70   15.10 
  -1   1  16   -7.50   19.00 
   1   1  16    5.90    4.70 
  -1  -1  16   -4.20   12.20 
   1   1  16   -9.60   23.50 
   1  -1  16   13.60   22.50 
  -1  -1  16    3.00   22.10 
   1  -1  16    5.20   12.60 
   1   1  16    5.00    3.90 
  -1   1  16    7.70    5.10 
  -1  -1  16    3.20    4.40 
   1   1  16   11.40   15.90 
  -2   0 -16   19.00   10.70 
   0   2 -16   19.70   12.60 
   0   2 -16   22.20   12.40 
   0  -2 -16   16.30   10.50 
  -2   0 -16   30.10   13.80 
   0  -2 -16   21.80    9.00 
   2   0 -16   28.10    8.20 
   0  -2  16   28.80    7.40 
   2   0  16   38.70   26.30 
   0   2  16   28.80    8.00 
   2   0  16   37.60    7.20 
   0  -2  16   18.40   18.10 
  -2   0  16   44.10   35.40 
   2   0  16   36.20    7.80 
   2   0  16   62.59   22.00 
   0  -2  16   51.89   21.10 
   0   2  16   37.60   22.60 
  -2   0  16   25.50    7.80 
  -2   0  16   55.89   44.30 
  -2   2 -16  175.18   32.40 
  -2  -2 -16  133.09   24.90 
  -2  -2 -16  313.67  111.09 
   2   2 -16  153.28   26.60 
  -2  -2 -16  174.78   27.20 
   2  -2 -16  161.88   22.00 
   2  -2 -16  174.48   24.30 
   2  -2  16  189.48   35.60 
  -2   2  16  345.77   85.89 
  -2   2  16  168.78   22.20 
   2   2  16  192.18   20.60 
  -2   2  16  207.08   28.90 
  -2  -2  16  216.78   22.80 
  -2  -2  16  124.79   33.30 
   2  -2  16  206.68   20.60 
   2   2  16  177.28   20.70 
  -2  -2  16  209.28   40.70 
  -1   3 -16   18.00   13.10 
   1  -3 -16   35.90   10.40 
   3   1 -16   35.80    9.10 
  -3  -1 -16   24.10   20.40 
   1  -3 -16   28.10   10.00 
   3   1 -16   31.90   12.20 
  -3  -1 -16   19.20   14.10 
  -1   3 -16   32.00   17.60 
   1  -3  16   33.10   13.80 
  -1   3  16  120.69   49.10 
   1  -3  16   37.80   15.70 
   3   1  16   83.89   24.40 
  -1   3  16   35.90   12.00 
  -3  -1  16   34.70   22.70 
  -3  -1  16   40.70   10.00 
  -1   3  16   40.10    9.90 
   3   1  16   47.80    7.30 
  -3  -1  16   66.99   36.80 
  -1  -3 -16   29.00   11.70 
  -1  -3 -16   35.70   11.50 
   3  -1 -16   39.60   11.20 
  -3   1 -16   23.70   22.80 
  -1  -3 -16   53.99   39.00 
   1   3 -16   29.90   13.70 
  -3   1 -16   27.50   16.60 
  -1  -3  16   42.30   31.20 
   1   3  16   58.89   10.50 
   1   3  16   93.19   32.70 
  -1  -3  16   41.40    9.20 
  -1  -3  16   28.00   18.70 
  -3   1  16   19.70   23.20 
   3  -1  16   56.49   22.30 
   1   3  16   52.59   10.80 
   3  -1  16   48.50    7.10 
  -3   1  16   31.00    9.70 
   3  -1  16   46.20    8.10 
   3  -3 -16   45.80   11.60 
  -3   3 -16   35.50   19.80 
   3   3 -16   32.80   11.00 
  -3  -3 -16   28.60   12.40 
  -3   3 -16   44.30   19.00 
  -3  -3 -16   23.10   12.70 
  -3  -3 -16   -6.50   47.20 
   3   3 -16   22.60   13.60 
   3   3  16   36.90    7.20 
  -3   3  16   33.80   10.80 
   3   3  16   42.90    7.60 
   3  -3  16   43.00   14.30 
   3  -3  16   47.00    7.90 
  -3   3  16   33.70   23.70 
  -3   3  16   52.59   33.20 
   3  -3  16   54.09   17.10 
  -3   3  16   28.60   14.90 
  -3  -3  16   66.29   26.60 
  -3  -3  16   35.10    9.30 
  -3  -3  16   37.80   21.70 
  -2   4 -16   79.79   26.50 
   4   2 -16  111.59   15.50 
  -4  -2 -16   86.69   23.90 
   4   2 -16  111.09   16.10 
   4   2 -16  132.79   21.60 
  -2   4 -16   88.49   25.60 
  -4  -2 -16  119.09   55.79 
  -4  -2 -16  109.19   25.80 
   2  -4 -16  113.69   18.60 
  -4  -2  16  136.49   38.60 
  -4  -2  16   91.19   33.00 
   2  -4  16  153.98   15.50 
   2  -4  16  149.29   23.60 
   4   2  16  147.89   15.00 
  -4  -2  16  119.99   19.00 
  -2   4  16  110.39   23.00 
  -2   4  16  109.19   18.40 
  -2   4  16  182.78   57.99 
   4   0 -16   59.29    9.60 
  -4   0 -16   31.10   16.70 
   0  -4 -16   40.40   14.10 
   0  -4 -16   34.40   11.80 
   4   0 -16   52.19    8.00 
   0  -4 -16  103.69   59.69 
   0   4 -16   30.80   18.40 
   4   0 -16   47.60   11.90 
  -4   0 -16   35.00   18.20 
   0   4 -16   59.99   19.70 
   0   4  16   56.59   13.30 
   0  -4  16  122.19   39.20 
  -4   0  16   25.40   24.50 
   4   0  16   68.49   29.80 
  -4   0  16   36.50   11.10 
   0   4  16   46.40   10.80 
   0  -4  16  100.09   26.40 
   4   0  16   57.19    6.70 
   0   4  16  118.79   43.10 
   4   0  16   55.79    8.60 
   0  -4  16   65.09    9.90 
  -4   0  16   65.19   28.80 
  -4   2 -16  105.19   26.70 
   2   4 -16  114.99   24.70 
  -4   2 -16   73.89   24.00 
   2   4 -16  108.29   26.80 
  -2  -4 -16   95.69   22.20 
   4  -2 -16  113.59   18.60 
  -2  -4 -16   68.49   55.99 
   2   4  16  129.09   16.60 
   4  -2  16  143.39   15.20 
  -2  -4  16  138.59   17.30 
  -4   2  16  139.49   46.50 
  -4   2  16  102.49   26.60 
   2   4  16  146.19   16.70 
  -4   2  16  116.19   19.30 
   4  -2  16  149.19   30.80 
  -4   2  16  122.79   54.59 
   4  -2  16  141.29   12.90 
  -2  -4  16  100.09   29.30 
  -4  -4  16   46.30   27.40 
   4  -4  16   75.79   23.30 
  -5  -1 -16  -19.40   12.60 
  -5  -1 -16    4.90   15.70 
   1  -5 -16    1.90   28.90 
   1  -5 -16    4.60    8.10 
   1  -5 -16   -1.90    7.00 
  -1   5 -16   18.50   16.80 
  -5  -1  16   17.40   25.70 
   1  -5  16    9.00   15.10 
  -1   5  16   -0.60    7.30 
   1  -5  16    6.30   12.00 
   1  -5  16    4.30    3.80 
  -1   5  16  -37.00   41.80 
  -1   5  16   -0.10   18.90 
   5   1  16    2.00    2.80 
  -5  -1  16   -0.10   12.20 
   5  -1 -16    8.40    6.70 
  -5   1 -16    3.20   14.90 
  -1  -5 -16    3.90    8.00 
  -1  -5 -16  -22.60   68.49 
  -5   1 -16    1.10   14.50 
  -1  -5  16   -5.20   21.90 
   5  -1  16   -3.40   13.80 
   1   5  16    2.70    5.30 
   5  -1  16   -1.40    2.60 
  -1  -5  16    5.20   18.20 
  -5   1  16   -2.60    6.80 
  -5   1  16   -5.00   25.50 
  -1  -5  16   -1.50    3.50 
   1   5  16   34.70   45.00 
  -1   0 -17    4.70    8.60 
  -1   0 -17    2.10    8.50 
   0   1 -17    1.60   10.10 
   0   1 -17   -4.80    7.80 
   0  -1 -17    8.30    7.00 
   1   0 -17   -3.40    6.30 
   1   0 -17    1.00    7.40 
   0  -1 -17    3.10    8.60 
   0  -1  17   -1.00   19.00 
   0  -1  17    2.20    3.60 
   1   0  17  -14.40   13.70 
  -1   0  17   12.70   19.10 
   0   1  17    9.00   23.80 
   0   1  17    1.50    5.70 
   0   1  17    0.40    3.70 
   0   1  17   21.20   20.40 
   1   0  17    3.40    4.40 
   0  -1  17   12.40   16.80 
   1   0  17   -0.40    3.40 
  -1   0  17    2.00   20.60 
  -1   0  17    1.10    4.20 
   1   0  17   -3.50   13.10 
   1  -2 -17  129.29   23.20 
   1  -2 -17  123.49   21.20 
   2   1 -17  120.09   24.40 
  -2  -1 -17  136.49   25.20 
  -2  -1 -17  162.48   28.40 
  -1   2 -17  109.59   27.10 
   2   1 -17  134.89   21.40 
   1  -2  17  159.98   37.20 
  -1   2  17  166.48   20.90 
  -1   2  17  193.78   25.30 
  -2  -1  17  179.38   21.20 
  -2  -1  17  187.08   47.00 
   1  -2  17  214.98   32.20 
   2   1  17  229.98   53.29 
   2   1  17  181.98   19.70 
   2   1  17  194.68   19.20 
  -1   2  17  127.59   48.00 
   1  -2  17  178.48   19.40 
  -2  -1  17  190.38   41.50 
   2  -1 -17  145.69   23.20 
   2  -1 -17  159.48   21.30 
   1   2 -17  144.19   27.70 
  -1  -2 -17  126.59   23.10 
  -1  -2 -17  140.89   25.90 
   2  -1  17  178.98   19.40 
   1   2  17  162.58   20.00 
   2  -1  17  137.29   35.60 
  -2   1  17  215.28   48.70 
  -1  -2  17  177.38   40.30 
  -2   1  17  158.98   21.00 
   1   2  17  199.38   21.20 
  -1  -2  17  185.48   20.40 
  -2   3 -17    3.70   14.50 
   2  -3 -17   -2.50    6.90 
   2  -3 -17    5.50    7.70 
   3   2 -17   -0.80    9.30 
  -3  -2 -17   22.20   48.40 
  -3  -2 -17    6.50   10.40 
   3   2 -17    9.40    7.10 
   3   2  17   16.70   13.90 
  -2   3  17   23.10   12.70 
   3   2  17   43.30   28.30 
   2  -3  17    2.50    4.00 
  -3  -2  17   -2.10   21.50 
   2  -3  17    9.30   12.50 
   3   2  17   11.30    4.70 
  -2   3  17  -18.30   35.00 
   3   2  17   11.10    4.30 
  -2   3  17   22.00   27.40 
   2  -3  17    4.50   15.60 
   2  -3  17    9.50   12.30 
   0   3 -17    1.10   10.40 
   0   3 -17   -4.10   14.40 
   3   0 -17    3.30    5.70 
   0  -3 -17   -7.50    7.10 
   0  -3 -17    9.90    8.40 
  -3   0 -17   -2.20   11.40 
  -3   0 -17   -1.30   12.40 
   3   0 -17   -1.80    7.90 
   3   0  17   -0.40    2.80 
   3   0  17    0.60    9.60 
   0   3  17   67.99   57.79 
   0  -3  17    0.30    3.90 
   0   3  17   -1.50    5.70 
   0   3  17    0.20    4.60 
   3   0  17   -5.60   18.80 
   3   0  17   14.40   13.20 
   0  -3  17    7.90   15.50 
   0  -3  17   -5.60   12.50 
  -3   0  17   10.40   24.40 
  -3   0  17    5.10    6.00 
   3   0  17   -1.70    3.40 
  -3   0  17    2.20   19.30 
  -2  -3 -17    1.40    9.50 
   2   3 -17   -1.90   11.40 
  -3   2 -17   -3.30   13.60 
  -2  -3 -17   18.50   42.20 
  -3   2 -17    7.10   15.30 
   3  -2 -17   -0.10    7.00 
  -3   2  17    1.30   10.70 
  -2  -3  17    9.80    9.50 
  -2  -3  17    2.40   19.50 
   2   3  17   18.90   25.80 
   3  -2  17    0.90   17.10 
   2   3  17   11.30    5.50 
  -3   2  17    1.90   23.30 
   2   3  17   12.70    5.60 
   3  -2  17   23.50    9.90 
  -3   2  17   -8.30   30.30 
  -2  -3  17   21.70   20.10 
  -4  -1 -17   55.39   20.60 
  -4  -1 -17   92.79   23.00 
   1  -4 -17   69.69   37.00 
   4   1 -17   84.99   11.80 
   1  -4 -17   50.39   15.00 
   1  -4 -17   66.39   15.60 
  -1   4 -17   58.89   22.50 
   4   1 -17   54.19   14.70 
  -1   4 -17   58.79   24.80 
  -1   4  17   88.99   14.50 
  -1   4  17   86.89   17.70 
   4   1  17  100.59   11.50 
  -4  -1  17   75.49   29.70 
   1  -4  17   88.29   12.10 
   1  -4  17  141.19   48.50 
   4   1  17   98.79   10.30 
   1  -4  17   55.79   18.30 
  -1   4  17   58.79   19.50 
  -4  -1  17   47.20   29.60 
  -4  -1  17   82.29   16.60 
  -4   1 -17   48.40   21.60 
   1   4 -17   68.79   21.00 
   1   4 -17   75.49   24.70 
   4  -1 -17   83.59   16.60 
  -1  -4 -17   59.09   16.40 
  -1  -4 -17  140.19   64.89 
  -4   1  17   52.19   34.40 
  -1  -4  17  100.49   33.60 
   1   4  17   89.69   14.20 
   4  -1  17   99.79    9.80 
   4  -1  17  103.09   32.90 
   1   4  17   95.59   15.00 
  -4   1  17   71.19   17.70 
  -1  -4  17  171.98   46.00 
   4  -1  17  105.39   12.30 
   0   0 -18   31.90   12.00 
   0   0  18   83.39   27.00 
   0   0  18   41.30    9.90 
   0   0  18   43.00   31.50 
  -1  -1 -18   10.40   13.70 
  -1   1 -18   10.60   13.30 
   1  -1 -18   12.60    8.40 
  -1  -1 -18   10.30    9.40 
   1   1 -18    2.30    9.70 
   1   1  18   15.30    7.40 
   1  -1  18   12.00   19.20 
   1  -1  18   31.70   26.80 
  -1   1  18    7.60    6.20 
  -1  -1  18   -1.90   22.30 
  -1   1  18    6.60   14.10 
  -1   1  18   30.70   29.50 
   1   1  18   14.60    6.10 
  -1  -1  18   22.20   19.80 
   1   1  18   22.90   22.80 
   1  -1  18   12.20    5.30 
   1   1  18   11.90   31.60 
   2   0 -18  118.69   20.60 
  -2   0 -18  109.59   26.50 
   0  -2 -18  118.09   21.80 
   2   0 -18  113.09   23.20 
  -2   0  18  150.08   19.80 
   2   0  18  171.18   19.00 
   2   0  18  161.28   43.00 
   0   2  18  178.78   21.60 
   2   0  18  181.28   18.20 
   0   2  18  142.29   19.50 
   0  -2  18  192.78   34.80 
   0   2  18  181.88   52.59 
  -2   0  18  220.78   49.00 
   0  -2  18  149.49   42.60 
   0   0   0    0.00    0.00 
  
_computing_structure_solution     'SHELXT 2018/2 (Sheldrick, 2018)' 
;
_shelx_hkl_checksum              22383
loop_
_space_group_symop_operation_xyz
'x, y, z'
'-x, -y, z'
'-y, x, z'
'y, -x, z'
'-x, y, -z+1/2'
'x, -y, -z+1/2'
'y, x, -z+1/2'
'-y, -x, -z+1/2'
'x+1/2, y+1/2, z+1/2'
'-x+1/2, -y+1/2, z+1/2'
'-y+1/2, x+1/2, z+1/2'
'y+1/2, -x+1/2, z+1/2'
'-x+1/2, y+1/2, -z+1'
'x+1/2, -y+1/2, -z+1'
'y+1/2, x+1/2, -z+1'
'-y+1/2, -x+1/2, -z+1'
'-x, -y, -z'
'x, y, -z'
'y, -x, -z'
'-y, x, -z'
'x, -y, z-1/2'
'-x, y, z-1/2'
'-y, -x, z-1/2'
'y, x, z-1/2'
'-x+1/2, -y+1/2, -z+1/2'
'x+1/2, y+1/2, -z+1/2'
'y+1/2, -x+1/2, -z+1/2'
'-y+1/2, x+1/2, -z+1/2'
'x+1/2, -y+1/2, z'
'-x+1/2, y+1/2, z'
'-y+1/2, -x+1/2, z'
'y+1/2, x+1/2, z'
loop_
_atom_site_label
_atom_site_type_symbol
_atom_site_fract_x
_atom_site_fract_y
_atom_site_fract_z
_atom_site_U_iso_or_equiv
_atom_site_adp_type
_atom_site_occupancy
_atom_site_site_symmetry_order
_atom_site_calc_flag
_atom_site_refinement_flags_posn
_atom_site_refinement_flags_adp
_atom_site_refinement_flags_occupancy
_atom_site_disorder_assembly
_atom_site_disorder_group
Cs1 Cs 0.33610(14) 0.16390(14) 0.500000 0.0206(10) Uani 1 4 d S T P . .
Cs2 Cs 0.500000 0.500000 0.250000 0.0326(12) Uani 1 8 d S T P . .
Mn1 Mn 0.000000 0.500000 0.750000 0.0152(15) Uani 1 8 d S T P . .
Cl1 Cl 0.1432(5) 0.3568(5) 0.6547(5) 0.0315(16) Uani 1 2 d S T P . .
Cl2 Cl 0.500000 0.500000 0.500000 0.033(3) Uani 1 8 d S T P . .
loop_
_atom_site_aniso_label
_atom_site_aniso_U_11
_atom_site_aniso_U_22
_atom_site_aniso_U_33
_atom_site_aniso_U_23
_atom_site_aniso_U_13
_atom_site_aniso_U_12
Cs1 0.0116(12) 0.0116(12) 0.0385(15) 0.000 0.000 0.0033(6)
Cs2 0.0238(15) 0.0238(15) 0.050(2) 0.000 0.000 0.000
Mn1 0.010(2) 0.010(2) 0.026(3) 0.000 0.000 0.000
Cl1 0.027(2) 0.027(2) 0.041(3) -0.0088(18) 0.0088(18) 0.011(2)
Cl2 0.018(4) 0.018(4) 0.063(7) 0.000 0.000 0.000
loop_
_atom_type_symbol
_atom_type_description
_atom_type_scat_dispersion_real
_atom_type_scat_dispersion_imag
_atom_type_scat_source
Cl Cl 0.1484 0.1585 'International Tables Vol C Tables 4.2.6.8 and 6.1.1.4'
Cs Cs -0.3680 2.1192 'International Tables Vol C Tables 4.2.6.8 and 6.1.1.4'
Mn Mn 0.3368 0.7283 'International Tables Vol C Tables 4.2.6.8 and 6.1.1.4'
loop_
_geom_angle_atom_site_label_1
_geom_angle_atom_site_label_2
_geom_angle_atom_site_label_3
_geom_angle
_geom_angle_site_symmetry_1
_geom_angle_site_symmetry_3
_geom_angle_publ_flag
Cl1 Cs1 Cl1 85.2(3) 18_556 . ?
Cl1 Cs1 Cl2 76.13(4) 18_556 13_545 ?
Cl1 Cs1 Cl2 76.13(4) . 13_545 ?
Cl1 Cs1 Cl2 76.13(4) 18_556 . ?
Cl1 Cs1 Cl2 76.13(4) . . ?
Cl2 Cs1 Cl2 141.99(6) 13_545 . ?
Cl1 Cs1 Cl1 90.11(18) 18_556 19_556 ?
Cl1 Cs1 Cl1 149.03(8) . 19_556 ?
Cl2 Cs1 Cl1 73.02(9) 13_545 19_556 ?
Cl2 Cs1 Cl1 132.23(10) . 19_556 ?
Cl1 Cs1 Cl1 149.03(8) 18_556 3_655 ?
Cl1 Cs1 Cl1 90.11(18) . 3_655 ?
Cl2 Cs1 Cl1 132.23(10) 13_545 3_655 ?
Cl2 Cs1 Cl1 73.02(9) . 3_655 ?
Cl1 Cs1 Cl1 108.58(15) 19_556 3_655 ?
Cl1 Cs1 Cl1 90.11(18) 18_556 20_656 ?
Cl1 Cs1 Cl1 149.03(8) . 20_656 ?
Cl2 Cs1 Cl1 132.23(10) 13_545 20_656 ?
Cl2 Cs1 Cl1 73.02(9) . 20_656 ?
Cl1 Cs1 Cl1 61.31(18) 19_556 20_656 ?
Cl1 Cs1 Cl1 78.38(18) 3_655 20_656 ?
Cl1 Cs1 Cl1 149.03(8) 18_556 4 ?
Cl1 Cs1 Cl1 90.11(18) . 4 ?
Cl2 Cs1 Cl1 73.02(9) 13_545 4 ?
Cl2 Cs1 Cl1 132.23(10) . 4 ?
Cl1 Cs1 Cl1 78.38(18) 19_556 4 ?
Cl1 Cs1 Cl1 61.31(18) 3_655 4 ?
Cl1 Cs1 Cl1 108.58(15) 20_656 4 ?
Cl1 Cs1 Cs1 137.39(13) 18_556 17_656 ?
Cl1 Cs1 Cs1 137.39(13) . 17_656 ?
Cl2 Cs1 Cs1 109.00(3) 13_545 17_656 ?
Cl2 Cs1 Cs1 109.00(3) . 17_656 ?
Cl1 Cs1 Cs1 54.29(7) 19_556 17_656 ?
Cl1 Cs1 Cs1 54.29(7) 3_655 17_656 ?
Cl1 Cs1 Cs1 54.29(7) 20_656 17_656 ?
Cl1 Cs1 Cs1 54.29(7) 4 17_656 ?
Cl1 Cs1 Mn1 162.36(14) 18_556 25_556 ?
Cl1 Cs1 Mn1 77.15(13) . 25_556 ?
Cl2 Cs1 Mn1 99.299(7) 13_545 25_556 ?
Cl2 Cs1 Mn1 99.299(7) . 25_556 ?
Cl1 Cs1 Mn1 105.01(9) 19_556 25_556 ?
Cl1 Cs1 Mn1 33.04(10) 3_655 25_556 ?
Cl1 Cs1 Mn1 105.01(9) 20_656 25_556 ?
Cl1 Cs1 Mn1 33.04(10) 4 25_556 ?
Cs1 Cs1 Mn1 60.25(2) 17_656 25_556 ?
Cl1 Cs1 Mn1 77.15(13) 18_556 9_544 ?
Cl1 Cs1 Mn1 162.36(14) . 9_544 ?
Cl2 Cs1 Mn1 99.299(7) 13_545 9_544 ?
Cl2 Cs1 Mn1 99.299(7) . 9_544 ?
Cl1 Cs1 Mn1 33.04(9) 19_556 9_544 ?
Cl1 Cs1 Mn1 105.01(9) 3_655 9_544 ?
Cl1 Cs1 Mn1 33.04(9) 20_656 9_544 ?
Cl1 Cs1 Mn1 105.01(9) 4 9_544 ?
Cs1 Cs1 Mn1 60.25(2) 17_656 9_544 ?
Mn1 Cs1 Mn1 120.50(4) 25_556 9_544 ?
Cl1 Cs1 Cs1 48.58(11) 18_556 19_566 ?
Cl1 Cs1 Cs1 48.58(11) . 19_566 ?
Cl2 Cs1 Cs1 96.99(6) 13_545 19_566 ?
Cl2 Cs1 Cs1 45.0 . 19_566 ?
Cl1 Cs1 Cs1 138.43(8) 19_556 19_566 ?
Cl1 Cs1 Cs1 107.53(7) 3_655 19_566 ?
Cl1 Cs1 Cs1 107.53(7) 20_656 19_566 ?
Cl1 Cs1 Cs1 138.43(8) 4 19_566 ?
Cs1 Cs1 Cs1 154.00(3) 17_656 19_566 ?
Mn1 Cs1 Cs1 116.490(11) 25_556 19_566 ?
Mn1 Cs1 Cs1 116.490(11) 9_544 19_566 ?
Cl2 Cs2 Cl2 180.0 5_655 . ?
Cl2 Cs2 Cl1 111.90(10) 5_655 17_666 ?
Cl2 Cs2 Cl1 68.10(10) . 17_666 ?
Cl2 Cs2 Cl1 68.10(10) 5_655 10_554 ?
Cl2 Cs2 Cl1 111.90(10) . 10_554 ?
Cl1 Cs2 Cl1 137.24(19) 17_666 10_554 ?
Cl2 Cs2 Cl1 68.10(10) 5_655 11_554 ?
Cl2 Cs2 Cl1 111.90(10) . 11_554 ?
Cl1 Cs2 Cl1 139.58(19) 17_666 11_554 ?
Cl1 Cs2 Cl1 82.00(7) 10_554 11_554 ?
Cl2 Cs2 Cl1 111.90(10) 5_655 19_566 ?
Cl2 Cs2 Cl1 68.10(10) . 19_566 ?
Cl1 Cs2 Cl1 82.00(7) 17_666 19_566 ?
Cl1 Cs2 Cl1 139.58(19) 10_554 19_566 ?
Cl1 Cs2 Cl1 62.9(2) 11_554 19_566 ?
Cl2 Cs2 Cl1 111.90(10) 5_655 18_556 ?
Cl2 Cs2 Cl1 68.10(10) . 18_556 ?
Cl1 Cs2 Cl1 136.19(19) 17_666 18_556 ?
Cl1 Cs2 Cl1 62.9(2) 10_554 18_556 ?
Cl1 Cs2 Cl1 61.12(18) 11_554 18_556 ?
Cl1 Cs2 Cl1 82.00(7) 19_566 18_556 ?
Cl2 Cs2 Cl1 68.10(10) 5_655 9_554 ?
Cl2 Cs2 Cl1 111.90(10) . 9_554 ?
Cl1 Cs2 Cl1 62.9(2) 17_666 9_554 ?
Cl1 Cs2 Cl1 136.19(19) 10_554 9_554 ?
Cl1 Cs2 Cl1 82.00(7) 11_554 9_554 ?
Cl1 Cs2 Cl1 61.12(18) 19_566 9_554 ?
Cl1 Cs2 Cl1 137.24(19) 18_556 9_554 ?
Cl2 Cs2 Cl1 111.90(10) 5_655 20_656 ?
Cl2 Cs2 Cl1 68.10(10) . 20_656 ?
Cl1 Cs2 Cl1 82.00(7) 17_666 20_656 ?
Cl1 Cs2 Cl1 61.12(18) 10_554 20_656 ?
Cl1 Cs2 Cl1 137.24(19) 11_554 20_656 ?
Cl1 Cs2 Cl1 136.19(19) 19_566 20_656 ?
Cl1 Cs2 Cl1 82.00(7) 18_556 20_656 ?
Cl1 Cs2 Cl1 139.58(19) 9_554 20_656 ?
Cl2 Cs2 Cl1 68.10(10) 5_655 12_554 ?
Cl2 Cs2 Cl1 111.90(10) . 12_554 ?
Cl1 Cs2 Cl1 61.12(18) 17_666 12_554 ?
Cl1 Cs2 Cl1 82.00(7) 10_554 12_554 ?
Cl1 Cs2 Cl1 136.19(19) 11_554 12_554 ?
Cl1 Cs2 Cl1 137.24(19) 19_566 12_554 ?
Cl1 Cs2 Cl1 139.58(19) 18_556 12_554 ?
Cl1 Cs2 Cl1 82.00(7) 9_554 12_554 ?
Cl1 Cs2 Cl1 62.9(2) 20_656 12_554 ?
Cl2 Cs2 Cs1 137.321(5) 5_655 . ?
Cl2 Cs2 Cs1 42.679(5) . . ?
Cl1 Cs2 Cs1 101.08(10) 17_666 . ?
Cl1 Cs2 Cs1 69.32(10) 10_554 . ?
Cl1 Cs2 Cs1 103.23(9) 11_554 . ?
Cl1 Cs2 Cs1 98.50(9) 19_566 . ?
Cl1 Cs2 Cs1 42.22(9) 18_556 . ?
Cl1 Cs2 Cs1 154.36(9) 9_554 . ?
Cl1 Cs2 Cs1 45.87(10) 20_656 . ?
Cl1 Cs2 Cs1 108.64(10) 12_554 . ?
Cl2 Cs2 Cs1 137.321(5) 5_655 17_666 ?
Cl2 Cs2 Cs1 42.679(5) . 17_666 ?
Cl1 Cs2 Cs1 42.22(9) 17_666 17_666 ?
Cl1 Cs2 Cs1 154.36(9) 10_554 17_666 ?
Cl1 Cs2 Cs1 108.64(10) 11_554 17_666 ?
Cl1 Cs2 Cs1 45.87(10) 19_566 17_666 ?
Cl1 Cs2 Cs1 101.08(10) 18_556 17_666 ?
Cl1 Cs2 Cs1 69.32(10) 9_554 17_666 ?
Cl1 Cs2 Cs1 98.50(9) 20_656 17_666 ?
Cl1 Cs2 Cs1 103.23(9) 12_554 17_666 ?
Cs1 Cs2 Cs1 85.359(10) . 17_666 ?
Cl1 Mn1 Cl1 111.6(2) 28_556 2_565 ?
Cl1 Mn1 Cl1 105.3(4) 28_556 27_456 ?
Cl1 Mn1 Cl1 111.6(2) 2_565 27_456 ?
Cl1 Mn1 Cl1 111.6(2) 28_556 . ?
Cl1 Mn1 Cl1 105.3(4) 2_565 . ?
Cl1 Mn1 Cl1 111.6(2) 27_456 . ?
Cl1 Mn1 Cs1 157.11(19) 28_556 3 ?
Cl1 Mn1 Cs1 58.21(15) 2_565 3 ?
Cl1 Mn1 Cs1 97.61(19) 27_456 3 ?
Cl1 Mn1 Cs1 58.21(15) . 3 ?
Cl1 Mn1 Cs1 58.21(15) 28_556 9_455 ?
Cl1 Mn1 Cs1 97.61(19) 2_565 9_455 ?
Cl1 Mn1 Cs1 58.21(15) 27_456 9_455 ?
Cl1 Mn1 Cs1 157.11(19) . 9_455 ?
Cs1 Mn1 Cs1 138.92(3) 3 9_455 ?
Cl1 Mn1 Cs1 58.21(15) 28_556 25_556 ?
Cl1 Mn1 Cs1 157.11(19) 2_565 25_556 ?
Cl1 Mn1 Cs1 58.21(15) 27_456 25_556 ?
Cl1 Mn1 Cs1 97.61(19) . 25_556 ?
Cs1 Mn1 Cs1 138.92(3) 3 25_556 ?
Cs1 Mn1 Cs1 59.50(4) 9_455 25_556 ?
Cl1 Mn1 Cs1 97.61(19) 28_556 19_566 ?
Cl1 Mn1 Cs1 58.21(15) 2_565 19_566 ?
Cl1 Mn1 Cs1 157.11(19) 27_456 19_566 ?
Cl1 Mn1 Cs1 58.21(15) . 19_566 ?
Cs1 Mn1 Cs1 59.50(4) 3 19_566 ?
Cs1 Mn1 Cs1 138.92(3) 9_455 19_566 ?
Cs1 Mn1 Cs1 138.92(3) 25_556 19_566 ?
Mn1 Cl1 Cs1 174.8(3) . . ?
Mn1 Cl1 Cs1 88.75(18) . 3 ?
Cs1 Cl1 Cs1 86.99(14) . 3 ?
Mn1 Cl1 Cs1 88.75(18) . 19_566 ?
Cs1 Cl1 Cs1 86.99(14) . 19_566 ?
Cs1 Cl1 Cs1 71.42(15) 3 19_566 ?
Mn1 Cl1 Cs2 93.64(13) . 17_666 ?
Cs1 Cl1 Cs2 89.09(11) . 17_666 ?
Cs1 Cl1 Cs2 156.87(17) 3 17_666 ?
Cs1 Cl1 Cs2 85.62(4) 19_566 17_666 ?
Mn1 Cl1 Cs2 93.64(13) . 9_445 ?
Cs1 Cl1 Cs2 89.09(11) . 9_445 ?
Cs1 Cl1 Cs2 85.62(4) 3 9_445 ?
Cs1 Cl1 Cs2 156.87(17) 19_566 9_445 ?
Cs2 Cl1 Cs2 117.1(2) 17_666 9_445 ?
Cs1 Cl2 Cs1 180.0 . 17_666 ?
Cs1 Cl2 Cs1 90.0 . 19_566 ?
Cs1 Cl2 Cs1 90.0 17_666 19_566 ?
Cs1 Cl2 Cs1 90.0 . 3_655 ?
Cs1 Cl2 Cs1 90.0 17_666 3_655 ?
Cs1 Cl2 Cs1 180.0 19_566 3_655 ?
Cs1 Cl2 Cs2 90.0 . 17_666 ?
Cs1 Cl2 Cs2 90.0 17_666 17_666 ?
Cs1 Cl2 Cs2 90.0 19_566 17_666 ?
Cs1 Cl2 Cs2 90.0 3_655 17_666 ?
Cs1 Cl2 Cs2 90.0 . . ?
Cs1 Cl2 Cs2 90.0 17_666 . ?
Cs1 Cl2 Cs2 90.0 19_566 . ?
Cs1 Cl2 Cs2 90.0 3_655 . ?
Cs2 Cl2 Cs2 180.0 17_666 . ?
loop_
_geom_bond_atom_site_label_1
_geom_bond_atom_site_label_2
_geom_bond_distance
_geom_bond_site_symmetry_2
_geom_bond_publ_flag
Cs1 Cl1 3.401(6) 18_556 ?
Cs1 Cl1 3.401(6) . ?
Cs1 Cl2 3.4309(6) 13_545 ?
Cs1 Cl2 3.4309(6) . ?
Cs1 Cl1 3.644(6) 19_556 ?
Cs1 Cl1 3.644(6) 3_655 ?
Cs1 Cl1 3.644(6) 20_656 ?
Cs1 Cl1 3.644(6) 4 ?
Cs1 Cs1 4.253(4) 17_656 ?
Cs1 Mn1 4.2856(9) 25_556 ?
Cs1 Mn1 4.2856(9) 9_544 ?
Cs1 Cs1 4.8520(8) 19_566 ?
Cs2 Cl2 3.7207(3) 5_655 ?
Cs2 Cl2 3.7207(3) . ?
Cs2 Cl1 3.802(4) 17_666 ?
Cs2 Cl1 3.802(4) 10_554 ?
Cs2 Cl1 3.802(4) 11_554 ?
Cs2 Cl1 3.802(4) 19_566 ?
Cs2 Cl1 3.802(4) 18_556 ?
Cs2 Cl1 3.802(4) 9_554 ?
Cs2 Cl1 3.802(4) 20_656 ?
Cs2 Cl1 3.802(4) 12_554 ?
Mn1 Cl1 2.337(6) 28_556 ?
Mn1 Cl1 2.337(6) 2_565 ?
Mn1 Cl1 2.337(6) 27_456 ?
Mn1 Cl1 2.337(6) . ?
