#------------------------------------------------------------------------------
#$Date: 2021-07-04 04:31:05 +0300 (Sun, 04 Jul 2021) $
#$Revision: 266955 $
#$URL: file:///home/coder/svn-repositories/cod/cif/4/51/88/4518825.cif $
#------------------------------------------------------------------------------
#
# This file is available in the Crystallography Open Database (COD),
# http://www.crystallography.net/
#
# All data on this site have been placed in the public domain by the
# contributors.
#
data_4518825
loop_
_publ_author_name
'Xu, Hao'
'Tan, Yun-Xuan'
'Xie, Pei-Pei'
'Ding, Rui'
'Liao, Qi'
'Zhang, Jian-Wei'
'Li, Qing-Hua'
'Wang, Yu-Hui'
'Hong, Xin'
'Lin, Guo-Qiang'
'Tian, Ping'
_publ_section_title
;
 Rhodium(III)-Catalyzed Asymmetric Reductive Cyclization of
 Cyclohexadienone-Containing 1,6-Dienes via an Anti-Michael/Michael
 Cascade Process
;
_journal_issue                   13
_journal_name_full               'ACS Catalysis'
_journal_page_first              8015
_journal_page_last               8022
_journal_paper_doi               10.1021/acscatal.1c02431
_journal_volume                  11
_journal_year                    2021
_chemical_absolute_configuration ad
_chemical_formula_sum            'C17 H18 O3'
_chemical_formula_weight         270.31
_space_group_crystal_system      monoclinic
_space_group_IT_number           4
_space_group_name_Hall           'P 2yb'
_space_group_name_H-M_alt        'P 1 21 1'
_atom_sites_solution_hydrogens   mixed
_cell_angle_alpha                90
_cell_angle_beta                 91.797(2)
_cell_angle_gamma                90
_cell_formula_units_Z            2
_cell_length_a                   7.7829(3)
_cell_length_b                   6.2561(3)
_cell_length_c                   14.2118(6)
_cell_measurement_reflns_used    5914
_cell_measurement_temperature    270.(2)
_cell_measurement_theta_max      68.3048
_cell_measurement_theta_min      3.1111
_cell_volume                     691.64(5)
_computing_cell_refinement       'SAINT V8.38A (Bruker AXS Inc., 2017)'
_computing_data_reduction        'SAINT V8.38A (Bruker AXS Inc., 2017)'
_computing_molecular_graphics    'shelXle (C.B. Huebschle, rev 924)'
_computing_structure_refinement  'SHELXL-2018/3 (Sheldrick, 2018)'
_computing_structure_solution    'SHELXT 2014/5 (Sheldrick, 2014)'
_diffrn_ambient_temperature      270.(2)
_diffrn_detector_area_resol_mean 7.3910
_diffrn_measured_fraction_theta_full 0.980
_diffrn_measured_fraction_theta_max 0.980
_diffrn_measurement_device_type  'd8 venture'
_diffrn_radiation_type           'cu k\a'
_diffrn_radiation_wavelength     1.54178
_diffrn_reflns_av_R_equivalents  0.0350
_diffrn_reflns_av_unetI/netI     0.0403
_diffrn_reflns_limit_h_max       9
_diffrn_reflns_limit_h_min       -9
_diffrn_reflns_limit_k_max       6
_diffrn_reflns_limit_k_min       -7
_diffrn_reflns_limit_l_max       17
_diffrn_reflns_limit_l_min       -17
_diffrn_reflns_number            5602
_diffrn_reflns_theta_full        68.21
_diffrn_reflns_theta_max         68.21
_diffrn_reflns_theta_min         3.11
_exptl_absorpt_coefficient_mu    0.709
_exptl_absorpt_correction_T_max  0.98
_exptl_absorpt_correction_T_min  0.85
_exptl_absorpt_correction_type   multi-scan
_exptl_absorpt_process_details
;
SADABS-2016/2 - Bruker AXS area detector scaling and absorption correction
;
_exptl_crystal_colour            'clear light colourless'
_exptl_crystal_density_diffrn    1.298
_exptl_crystal_density_method    'not measured'
_exptl_crystal_description       block
_exptl_crystal_F_000             288
_exptl_crystal_size_max          0.150
_exptl_crystal_size_mid          0.130
_exptl_crystal_size_min          0.030
_refine_diff_density_max         0.093
_refine_diff_density_min         -0.104
_refine_ls_abs_structure_details
;

Flack x determined using 727 quotients [(I+)-(I-)]/[(I+)+(I-)]
(Parsons, Flack and Wagner, Acta Cryst. B69 (2013) 249-259).
;
_refine_ls_abs_structure_Flack   0.02(15)
_refine_ls_extinction_method     none
_refine_ls_goodness_of_fit_ref   1.082
_refine_ls_hydrogen_treatment    mixed
_refine_ls_matrix_type           full
_refine_ls_number_parameters     186
_refine_ls_number_reflns         2224
_refine_ls_number_restraints     1
_refine_ls_restrained_S_all      1.082
_refine_ls_R_factor_all          0.0373
_refine_ls_R_factor_gt           0.0337
_refine_ls_shift/su_max          0.000
_refine_ls_shift/su_mean         0.000
_refine_ls_structure_factor_coef Fsqd
_refine_ls_weighting_details
'w=1/[\s^2^(Fo^2^)+(0.0437P)^2^+0.0261P] where P=(Fo^2^+2Fc^2^)/3'
_refine_ls_weighting_scheme      calc
_refine_ls_wR_factor_gt          0.0874
_refine_ls_wR_factor_ref         0.0903
_reflns_number_gt                2017
_reflns_number_total             2224
_reflns_threshold_expression     'I > 2\s(I)'
_cod_data_source_file            cs1c02431_si_003.cif
_cod_data_source_block           20191204RD
_cod_depositor_comments
;
The following automatic conversions were performed:

data item '_exptl_absorpt_correction_type' value 'Multi-Scan' was
changed to 'multi-scan' in accordance with the
/home/data/users/saulius/crontab/automatic-downloads/rss-feeds/ACS/lib/dictionaries/cif_core.dic
dictionary named 'cif_core.dic' version 2.4.2 last updated on
2011-04-26.

Automatic conversion script
Id: cif_fix_values 7556 2019-12-06 15:28:31Z antanas 

 Adding full bibliography for 4518820--4518825.cif.
;
_cod_database_code               4518825
_shelx_res_file
;

TITL 20191204RD_0m_a.res in P2(1)
    20191204RD_0m.res
    created by SHELXL-2018/3 at 12:00:04 on 06-Dec-2019
CELL 1.54178 7.7829 6.2561 14.2118 90.000 91.797 90.000
ZERR 2.00 0.0003 0.0003 0.0006 0.000 0.002 0.000
LATT -1
SYMM -x, y+1/2, -z
SFAC C H O
UNIT 34 36 6
LIST 4
TEMP -2.940
SIZE 0.030 0.130 0.150
ACTA
L.S. 4
FMAP 2
PLAN -4 0 0.00
HTAB
BOND $H
CONF
WGHT    0.043700    0.026100
FVAR       1.51973
O1    3    0.196024    0.470165    0.898237    11.00000    0.06469    0.06618 =
         0.05680    0.00613    0.00244    0.00042
O2    3    0.742362    0.758799    0.783473    11.00000    0.05517    0.08245 =
         0.10342    0.00525   -0.00374   -0.00311
O3    3    0.470735    0.304668    0.799143    11.00000    0.07067    0.05683 =
         0.06005    0.01349    0.00919    0.00895
H18   2    0.403552    0.339037    0.840321    11.00000    0.08667
C1    1    0.111946    0.838496    0.928615    11.00000    0.07737    0.07870 =
         0.07778   -0.01160    0.00680    0.01208
AFIX 137
H9    2    0.007961    0.825835    0.890882    11.00000   -1.50000
H1    2    0.151583    0.983748    0.927339    11.00000   -1.50000
H10   2    0.090028    0.798158    0.992298    11.00000   -1.50000
AFIX   0
C2    1    0.249118    0.691804    0.889378    11.00000    0.06092    0.05873 =
         0.06082   -0.00187   -0.00029    0.00186
C3    1    0.269097    0.724724    0.782822    11.00000    0.05415    0.05182 =
         0.06094    0.00600   -0.00239    0.00629
AFIX  13
H3    2    0.231388    0.868419    0.764070    11.00000   -1.20000
AFIX   0
C4    1    0.450217    0.678372    0.746798    11.00000    0.05392    0.05467 =
         0.05808    0.01232   -0.00049    0.00107
AFIX  13
H13   2    0.464148    0.762774    0.689449    11.00000   -1.20000
AFIX   0
C5    1    0.448534    0.437945    0.717890    11.00000    0.05717    0.05082 =
         0.05374    0.00802    0.00271    0.00097
C6    1    0.589903    0.378487    0.651004    11.00000    0.05869    0.05678 =
         0.05755    0.00148    0.00359   -0.00224
C7    1    0.606089    0.484030    0.566017    11.00000    0.07822    0.07578 =
         0.06935    0.01209    0.01467    0.00816
AFIX  43
H16   2    0.528818    0.591700    0.548980    11.00000   -1.20000
AFIX   0
C8    1    0.736926    0.430171    0.506065    11.00000    0.08382    0.09603 =
         0.06770    0.00967    0.01907   -0.00920
AFIX  43
H17   2    0.746071    0.502297    0.449221    11.00000   -1.20000
AFIX   0
C9    1    0.851857    0.273499    0.529275    11.00000    0.06376    0.09087 =
         0.07797   -0.01217    0.01601   -0.00644
AFIX  43
H2    2    0.941228    0.241101    0.489752    11.00000   -1.20000
AFIX   0
C10   1    0.075305    0.433810    0.820731    11.00000    0.05611    0.06721 =
         0.06556    0.00258    0.00117   -0.00531
AFIX  23
H7    2   -0.037093    0.489813    0.835098    11.00000   -1.20000
H8    2    0.064600    0.282216    0.807473    11.00000   -1.20000
AFIX   0
C11   1    0.148948    0.551840    0.736732    11.00000    0.05101    0.06960 =
         0.05872    0.00509   -0.00487    0.00190
AFIX  13
H6    2    0.057117    0.618429    0.698153    11.00000   -1.20000
AFIX   0
C12   1    0.266365    0.415648    0.675874    11.00000    0.06162    0.06750 =
         0.05643   -0.00051    0.00069   -0.00187
AFIX  23
H4    2    0.230398    0.267223    0.676651    11.00000   -1.20000
H5    2    0.261633    0.465892    0.611274    11.00000   -1.20000
AFIX   0
C13   1    0.412766    0.714907    0.947666    11.00000    0.07678    0.06832 =
         0.06101   -0.00169   -0.00831    0.00056
AFIX  43
H11   2    0.404718    0.712392    1.012808    11.00000   -1.20000
AFIX   0
C14   1    0.566810    0.738469    0.912997    11.00000    0.06765    0.07042 =
         0.07248   -0.00357   -0.01714   -0.00025
AFIX  43
H12   2    0.659497    0.761699    0.954635    11.00000   -1.20000
AFIX   0
C15   1    0.598746    0.729879    0.812780    11.00000    0.05235    0.04791 =
         0.08152    0.00611   -0.00440    0.00077
C16   1    0.705083    0.218650    0.672725    11.00000    0.06792    0.05871 =
         0.07107    0.00183    0.00598    0.00425
AFIX  43
H15   2    0.696960    0.145178    0.729298    11.00000   -1.20000
AFIX   0
C17   1    0.833667    0.165044    0.611383    11.00000    0.06750    0.07325 =
         0.09201   -0.00723    0.00877    0.00915
AFIX  43
H14   2    0.908412    0.053445    0.626628    11.00000   -1.20000
REM #####
AFIX   0
HKLF 4 1 1 0 0 0 1 0 0 0 1




REM  20191204RD_0m_a.res in P2(1)
REM wR2 = 0.090348, GooF = S = 1.08213, Restrained GooF = 1.08186 for all data
REM R1 = 0.033719 for 2017 Fo > 4sig(Fo) and 0.037271 for all 2224 data
REM 186 parameters refined using 1 restraints

END

WGHT      0.0437      0.0261

REM Instructions for potential hydrogen bonds
HTAB O3 O1
EQIV $1 x-1, y, z
HTAB C1 O2_$1
HTAB C10 O2_$1

REM Highest difference peak  0.093,  deepest hole -0.104,  1-sigma level  0.025
Q1    1   0.7250  0.5441  0.5556  11.00000  0.05    0.09
Q2    1  -0.0108  0.8671  0.8803  11.00000  0.05    0.09
Q3    1   0.5870  0.2176  0.6497  11.00000  0.05    0.09
Q4    1   0.2916  0.7438  0.8371  11.00000  0.05    0.08
;
_shelx_res_checksum              69163
_shelx_hkl_file
;
   1   0   0 3664.73  178.38
  -2   0   0  951.50   42.30
  -3   0   0 1630.64   72.49
  -4   0   0  175.38    9.00
   4   0   0  173.08    8.60
  -5   0   0   15.50    2.10
  -5   0   0   15.70    1.90
   5   0   0   15.00    1.80
   5   0   0   16.30    2.70
  -6   0   0  531.95   25.50
  -6   0   0  494.15   25.50
  -6   0   0  523.15   24.80
   6   0   0  554.54   24.60
   6   0   0  493.95   26.20
   7   0   0  259.57   13.20
  -8   0   0   -0.70    0.90
   8   0   0    0.60    1.30
  -9   0   0   15.60    2.20
   9   0   0   16.90    1.60
   9  -1   0    0.20    0.80
  -9   1   0    0.50    0.80
   8  -1   0   32.90    2.80
  -8   1   0   20.00    3.30
   7  -1   0   74.59    4.70
  -7   1   0   55.19    5.90
  -7   1   0   64.09    4.90
   6  -1   0   55.99    4.00
  -6   1   0   56.09    4.70
  -6   1   0   46.90    3.90
   5  -1   0  212.78   11.10
  -5   1   0  203.28   11.20
   4  -1   0  116.79    6.50
   4  -1   0  116.09    6.20
  -4   1   0  119.99    6.70
  -4   1   0  116.09    6.40
  -3   1   0   52.29    3.30
  -2   1   0 1558.34   69.09
   1  -1   0 3547.75  178.48
  -1   1   0 3539.05  178.18
   0  -1   0    0.30    0.50
   0   1   0    1.00    0.40
  -1  -1   0 3507.75  162.48
   1   1   0 3348.26  163.28
  -2  -1   0 1584.64   70.29
  -3  -1   0   50.19    3.30
  -4  -1   0  118.99    6.40
  -4  -1   0  118.39    6.80
   4   1   0  117.39    6.20
  -5  -1   0  198.98   10.70
  -5  -1   0  207.68   10.90
   5   1   0  180.18   10.00
   5   1   0  215.78   11.90
  -6  -1   0   52.29    4.10
  -6  -1   0   51.29    4.60
   6   1   0   49.00    3.70
  -7  -1   0   70.99    5.10
   7   1   0   69.89    4.70
  -8  -1   0   25.40    3.40
   8   1   0   32.70    2.70
   9   1   0    1.80    1.60
   9  -2   0    0.60    0.50
  -9   2   0    0.50    0.60
   8  -2   0    7.30    1.30
  -8   2   0    6.20    1.40
   7  -2   0   81.59    5.30
  -7   2   0   84.59    5.80
   6  -2   0  107.79    6.40
  -6   2   0  113.09    6.90
   5  -2   0   56.49    3.80
  -5   2   0   55.79    4.00
  -5   2   0   55.79    4.50
   4  -2   0  106.29    5.70
  -4   2   0   98.09    5.90
  -4   2   0  113.09    6.50
   3  -2   0    9.60    1.30
  -3   2   0    7.80    1.90
  -2   2   0   94.39    5.20
   1  -2   0 1599.74   71.09
  -1   2   0 1587.74   70.69
  -1  -2   0 1565.84   70.59
   1   2   0 1603.04   70.59
  -2  -2   0   95.59    5.40
   3   2   0   11.60   14.80
  -4  -2   0  106.89    6.60
  -4  -2   0  107.49    6.00
   4   2   0  107.09    7.30
   4   2   0  109.09    5.90
  -5  -2   0   55.09    4.00
  -5  -2   0   58.59    4.60
   5   2   0   57.99    5.70
  -6  -2   0  109.49    6.70
   6   2   0  107.39    6.20
  -7  -2   0   81.39    5.50
   7   2   0   80.29    5.10
   8   2   0    8.80    1.80
   8  -3   0    3.00    1.00
  -8   3   0    2.50    1.40
   7  -3   0    6.90    1.40
  -7   3   0    9.20    2.00
   6  -3   0   26.40    2.70
  -6   3   0   28.70    3.10
   5  -3   0   70.79    4.70
   5  -3   0   80.79    4.90
  -5   3   0   81.69    5.30
  -5   3   0   86.09    6.20
   4  -3   0   65.69    4.40
   4  -3   0   64.49    4.10
  -4   3   0   72.19    5.00
   3  -3   0   99.89    5.30
  -3   3   0  101.59    6.00
  -3   3   0   89.79    5.40
   2  -3   0  594.74   28.10
  -2   3   0  645.84   28.70
   1  -3   0  132.59    7.60
  -1   3   0  129.19    7.00
   0  -3   0    0.60    0.90
   0   3   0    0.50    0.50
   0   3   0    0.20    0.50
  -1  -3   0  122.79    7.00
   1   3   0  120.49    6.70
  -2  -3   0  629.04   28.90
   2   3   0  598.74   29.00
  -3  -3   0  105.09    6.60
   3   3   0  106.69    7.10
  -4  -3   0   68.89    5.00
  -5  -3   0   83.79    6.10
   5   3   0   85.79    5.10
   6   3   0   29.60    2.60
   7  -4   0   13.20    1.70
  -7   4   0   11.00    2.00
   6  -4   0   96.29    5.70
  -6   4   0   98.39    6.10
   5  -4   0   28.30    2.60
   5  -4   0   23.10    2.30
  -5   4   0   23.50    2.60
   4  -4   0   40.90    4.20
   4  -4   0   46.30    3.30
  -4   4   0   38.60    4.10
  -4   4   0   40.80    3.40
   3  -4   0   21.00    2.40
   3  -4   0   26.20    2.20
  -3   4   0   17.80    2.50
  -3   4   0   22.90    2.50
   2  -4   0  205.18   10.40
  -2   4   0  194.88   10.70
   1  -4   0  150.48    8.20
  -1   4   0  159.28    8.50
   0  -4   0 1679.33   70.89
   0  -4   0 1447.66   69.49
   0   4   0 1546.65   68.79
   0   4   0 1547.35   69.79
  -1  -4   0  173.78    9.40
   1   4   0  145.99    8.30
   1   4   0  155.08    8.60
  -2  -4   0  204.48   11.20
   2   4   0  197.18   10.30
   2   4   0  195.48   11.20
  -3  -4   0   21.00    3.00
   3   4   0   19.50    3.20
  -4  -4   0   41.00    4.30
   5  -5   0   68.59    4.30
   4  -5   0   58.29    4.10
   3  -5   0   58.99    4.20
   2  -5   0   18.30    2.20
  -2   5   0   18.50    2.90
   1  -5   0  137.39    7.70
  -1   5   0  133.79    8.20
   0  -5   0   -0.10    0.80
   0  -5   0   -1.40    1.30
  -1  -5   0  144.19    9.20
  -1  -5   0  139.89    7.70
  -2  -5   0   16.50    2.80
  -2  -5   0   23.40    3.30
  -3  -5   0   50.69    5.10
   5  -6   0    0.80    0.60
   4  -6   0    5.10    1.10
   3  -6   0   27.60    2.60
   2  -6   0   15.40    2.00
   1  -6   0    9.70    1.90
   0  -6   0   30.70    2.70
  -1  -6   0   11.70    1.90
  -2  -6   0   16.50    1.80
   3  -7   0    0.90    0.60
   2  -7   0    3.30    0.80
   0  -7   0   -0.20    0.60
  -1  -7   0   28.60    2.10
  -1  -7   1    1.00    0.70
   0  -7   1   42.30    2.90
   1  -7   1    4.70    1.20
   2  -7   1    1.50    0.70
   3  -7   1    3.90    0.90
  -2  -6   1   12.20    1.70
  -1  -6   1    4.90    1.30
   0  -6   1    4.00    1.10
   1  -6   1   13.50    2.40
   2  -6   1   36.00    3.00
   3  -6   1   21.20    2.30
   4  -6   1    1.60    0.90
   5  -6   1    0.80    0.60
  -2  -5   1   46.80    3.70
  -2  -5   1   50.89    4.60
  -1  -5   1   86.09    5.40
   0  -5   1   42.90    3.70
   1  -5   1  133.19    7.50
  -2   5  -1   28.10    3.90
  -2   5  -1   16.90    2.30
   2  -5   1   23.30    2.60
  -3   5  -1    7.30    1.60
   3  -5   1   11.00    1.90
  -4   5  -1   27.10    3.00
   4  -5   1   34.50    3.00
  -5   5  -1    7.00    1.60
   5  -5   1    7.80    1.30
   3   4  -1   18.90    3.40
  -3  -4   1   18.70    2.90
   2   4  -1   27.60    2.30
   2   4  -1   28.00    3.20
  -2  -4   1   30.10    3.10
   1   4  -1   30.70    2.50
   1   4  -1   37.10    3.10
  -1  -4   1   34.90    3.30
   0   4  -1  107.19    5.30
   0   4  -1  105.69    6.00
   0  -4   1  115.29    7.00
   0  -4   1  101.39    6.00
  -1   4  -1  156.88    8.40
   1  -4   1  157.18    8.40
  -2   4  -1   23.10    2.50
   2  -4   1   24.80    2.50
  -3   4  -1   36.40    3.00
  -3   4  -1   35.10    3.50
   3  -4   1   42.60    3.00
   3  -4   1   42.20    3.30
  -4   4  -1    0.80    1.00
  -4   4  -1    1.30    1.20
   4  -4   1    0.00    0.80
   4  -4   1   -0.10    0.80
  -5   4  -1  222.48   11.30
   5  -4   1  218.78   10.90
   5  -4   1  194.88   10.70
  -6   4  -1    4.90    1.40
   6  -4   1    3.80    1.10
  -7   4  -1   15.30    2.10
   7  -4   1   16.70    1.80
  -4  -3   1  114.49    6.80
   3   3  -1    8.10    2.10
  -3  -3   1   10.90    1.80
   2   3  -1   71.99    5.10
  -2  -3   1   77.59    4.80
   1   3  -1 1416.36   67.19
   1   3  -1 1590.04   66.69
  -1  -3   1 1492.15   67.39
   0   3  -1 1682.93   74.99
   0   3  -1 1735.43   75.09
   0  -3   1 1654.43   75.79
  -1   3  -1  676.43   30.80
  -2   3  -1  704.63   31.70
   2  -3   1  660.33   30.80
  -3   3  -1   53.59    3.90
  -3   3  -1   63.49    4.20
   3  -3   1   67.99    3.80
  -4   3  -1   93.29    6.10
  -4   3  -1   92.89    5.60
   4  -3   1   94.69    5.30
   4  -3   1   88.69    5.50
  -5   3  -1   28.70    2.90
  -5   3  -1   24.00    3.30
   5  -3   1   22.20    2.60
   5  -3   1   31.50    2.60
  -6   3  -1  398.06   19.70
   6  -3   1  398.96   19.20
  -7   3  -1   14.80    2.40
   7  -3   1   15.70    2.00
  -8   3  -1    0.80    1.00
   8  -3   1    1.60    0.90
   7   2  -1   32.40    2.80
  -7  -2   1   37.20    3.40
   6   2  -1  232.38   11.80
  -6  -2   1  242.98   12.50
   5   2  -1   60.49    5.70
   5   2  -1   52.19    3.70
  -5  -2   1   60.29    4.40
  -5  -2   1   61.69    4.10
   4   2  -1   90.09    5.30
  -4  -2   1   99.79    5.80
  -4  -2   1  104.89    5.70
  -3  -2   1  179.18    9.10
  -3  -2   1  183.88    9.30
  -2  -2   1  477.55   22.00
  -1  -2   1  256.57   12.20
   0   2  -1 1237.58   55.49
   0  -2   1 1268.97   55.99
  -1   2  -1 7455.15  341.77
   1  -2   1 6746.02  340.37
  -2   2  -1  280.57   13.30
  -3   2  -1  504.45   22.60
  -3   2  -1  469.45   24.00
   3  -2   1  491.25   22.40
  -4   2  -1   29.00    2.60
  -4   2  -1   30.40    2.80
   4  -2   1   28.20    2.30
  -5   2  -1   30.00    2.90
  -5   2  -1   33.30    3.40
   5  -2   1   33.00    2.70
  -6   2  -1  229.58   13.60
  -6   2  -1  235.58   12.30
   6  -2   1  228.68   11.80
  -7   2  -1   21.80    2.80
   7  -2   1   19.30    2.30
  -8   2  -1   20.80    2.40
   8  -2   1   17.30    2.00
  -9   2  -1    1.80    0.90
   8   1  -1    3.00    1.10
  -8  -1   1    4.00    1.70
   7   1  -1    0.30    0.80
  -7  -1   1    2.50    1.20
   6   1  -1   95.49    5.80
  -6  -1   1  105.29    6.30
   5   1  -1  128.59    7.10
  -5  -1   1  140.59    7.80
   4   1  -1  298.27   15.00
  -4  -1   1  331.97   15.60
  -4  -1   1  334.17   15.40
  -3  -1   1  333.37   15.80
  -3  -1   1  341.37   15.70
  -2  -1   1  408.06   18.60
   1   1  -1  821.52   36.30
  -1  -1   1  820.02   36.40
   0   1  -1 8314.07  378.26
   0  -1   1 8489.75  378.86
   1  -1   1 2593.04  114.19
  -2   1  -1 1019.20   45.10
   2  -1   1 1001.30   44.70
  -3   1  -1  432.56   19.90
   3  -1   1  422.66   19.60
  -4   1  -1  151.88    8.20
  -4   1  -1  152.98    7.80
   4  -1   1  145.89    7.60
   4  -1   1  151.78    7.90
  -5   1  -1    6.70    1.50
  -5   1  -1    9.00    1.80
   5  -1   1    5.70    1.30
   5  -1   1    4.50    1.40
  -6   1  -1  379.76   18.90
   6  -1   1  393.46   18.70
  -7   1  -1   81.39    7.10
  -7   1  -1   99.29    6.20
   7  -1   1   94.49    5.90
  -8   1  -1   62.39    4.80
   8  -1   1   56.49    4.10
  -9   1  -1    0.90    0.70
   9  -1   1    0.70    0.80
   9   0  -1   -0.10    0.70
  -9   0   1    1.20    0.80
   8   0  -1   34.10    3.00
  -8   0   1   31.70    3.10
   7   0  -1  161.58    8.80
  -7   0   1  162.28    9.30
   6   0  -1   15.10    2.10
   6   0  -1   15.10    4.00
  -6   0   1   16.30    2.60
  -6   0   1   11.60    2.20
  -6   0   1   13.80    2.20
   5   0  -1  139.29    7.70
  -5   0   1  154.08    8.50
  -5   0   1  154.68    8.10
   4   0  -1  180.28    8.90
  -4   0   1  180.18   10.00
  -3   0   1  226.58   10.90
  -2   0   1  153.98    7.30
   1   0  -1 1002.30   43.10
  -1   0   1  950.30   43.10
   0   0  -1  233.08   11.30
   0   0  -1  262.07   11.30
   0   0   1  268.17   11.30
  -1   0  -1  775.02   34.10
   1   0   1  762.12   34.20
   1   0   1  774.52   34.20
  -2   0  -1 3059.89  173.78
   2   0   1 3198.58  176.38
  -3   0  -1   -0.20    0.50
   3   0   1    0.00    0.70
  -4   0  -1   77.19    4.80
  -4   0  -1   77.19    4.70
   4   0   1   83.49    5.20
  -5   0  -1  424.16   20.20
  -5   0  -1  410.86   19.70
   5   0   1  403.96   20.60
   5   0   1  415.66   19.50
  -6   0  -1  282.17   15.90
  -6   0  -1  312.57   15.00
   6   0   1  282.77   16.40
   6   0   1  303.97   14.70
  -7   0  -1    6.70    1.80
  -7   0  -1    3.70    2.20
   7   0   1    5.30    1.60
  -8   0  -1   77.69    5.30
   8   0   1   63.29    5.20
  -9   0  -1   32.10    3.50
   9   0   1   42.20    2.80
   9  -1  -1    5.70    1.10
  -9   1   1    2.70    1.00
   8  -1  -1    3.40    1.10
  -8   1   1    3.70    1.60
   7  -1  -1    0.50    1.00
  -7   1   1    1.70    1.10
   6  -1  -1  102.99    6.10
  -6   1   1  108.49    6.50
  -6   1   1   98.59    6.90
   5  -1  -1  136.39    8.20
  -5   1   1  149.09    9.00
  -5   1   1  139.19    8.20
   4  -1  -1  303.97   14.90
  -4   1   1  323.77   15.10
  -4   1   1  322.57   15.50
   3  -1  -1  312.37   14.50
  -3   1   1  310.57   14.80
   2  -1  -1  397.06   18.00
  -2   1   1  404.06   18.40
   1  -1  -1  849.32   37.30
   1  -1  -1  822.92   36.80
  -1   1   1  827.12   36.80
  -1   1   1  836.02   37.10
   0   1   1 8465.55  382.46
  -1  -1  -1 2767.52  135.09
   1   1   1 2720.43  136.29
  -2  -1  -1 1020.80   46.50
   2   1   1 1051.89   46.60
  -3  -1  -1  443.26   21.10
   3   1   1  453.25   21.30
  -4  -1  -1  165.88    8.90
  -4  -1  -1  159.88    8.20
   4   1   1  157.88    9.20
   4   1   1  157.48    8.20
  -5  -1  -1    8.40    2.00
  -5  -1  -1    5.60    1.30
   5   1   1    5.30    1.90
   5   1   1    8.30    1.50
  -6  -1  -1  351.16   19.10
  -6  -1  -1  370.46   18.20
   6   1   1  382.76   17.90
  -7  -1  -1  101.89    6.50
   7   1   1   95.79    6.10
  -8  -1  -1   49.40    4.10
   8   1   1   56.69    3.70
   9   1   1    1.40    1.00
   9  -2  -1    2.60    0.80
  -9   2   1    3.00    1.00
   8  -2  -1   46.70    3.40
  -8   2   1   45.50    3.70
   7  -2  -1   37.80    3.10
  -7   2   1   34.50    3.40
   6  -2  -1  236.48   11.60
  -6   2   1  201.58   15.00
  -6   2   1  230.98   12.00
   5  -2  -1   61.19    4.00
  -5   2   1   59.19    4.20
  -5   2   1   61.59    4.70
   4  -2  -1   95.49    4.80
   4  -2  -1   94.09    5.20
  -4   2   1   87.39    5.30
  -4   2   1   98.59    5.90
   3  -2  -1  165.48    8.50
   3  -2  -1  169.58    7.90
   3  -2  -1  173.28    7.90
  -3   2   1  185.58    9.10
  -2   2   1  486.65   22.50
   1  -2  -1  263.07   12.90
  -1   2   1  270.67   12.60
  -1   2   1  263.37   11.90
   0  -2  -1 1247.18   56.49
   0   2   1 1271.17   55.89
  -2  -2  -1  290.17   14.10
   2   2   1  286.07   14.20
  -3  -2  -1  552.14   26.20
   3   2   1  562.14   26.70
  -4  -2  -1   27.90    2.40
  -4  -2  -1   30.20    3.00
   4   2   1   28.40    3.50
  -5  -2  -1   30.50    2.70
   5   2   1   27.80    2.50
   5   2   1   35.10    5.00
  -6  -2  -1  214.58   12.70
  -6  -2  -1  229.28   11.70
   6   2   1  218.38   11.30
  -7  -2  -1   20.30    2.60
   7   2   1   20.10    2.30
   8   2   1   15.20    1.90
   8  -3  -1    1.40    0.80
  -8   3   1    1.10    0.90
   7  -3  -1    1.00    0.80
  -7   3   1    0.60    1.10
  -7   3   1    0.80    1.50
   6  -3  -1  130.29    7.30
  -6   3   1  128.19    7.60
   5  -3  -1   55.39    3.90
   5  -3  -1   62.99    4.10
  -5   3   1   63.89    5.20
  -5   3   1   58.59    4.20
   4  -3  -1  125.39    6.50
   4  -3  -1  116.19    6.50
  -4   3   1  110.09    6.50
  -4   3   1  115.69    8.80
   3  -3  -1    8.70    1.40
  -3   3   1    6.30    1.40
  -3   3   1    9.60    1.50
   2  -3  -1   74.19    4.30
  -2   3   1   85.89    5.10
   1  -3  -1 1603.24   72.79
  -1   3   1 1624.74   72.19
   0  -3  -1 1707.03   74.79
   0   3   1 1661.03   73.79
   0   3   1 1615.64   74.09
  -1  -3  -1  668.53   30.90
   1   3   1  652.73   30.50
  -2  -3  -1  731.43   33.40
   2   3   1  692.83   33.30
  -3  -3  -1   71.69    5.10
   3   3   1   62.79    5.30
  -4  -3  -1   94.99    6.50
   4   3   1   89.09    7.50
  -5  -3  -1   24.80    3.40
   5   3   1   26.30    2.50
   6   3   1  373.26   17.90
   7   3   1   18.30    2.30
  -7   4   1    6.30    1.60
   6  -4  -1   17.20    2.00
  -6   4   1   12.60    2.80
   5  -4  -1   90.99    5.30
   5  -4  -1   82.29    5.00
  -5   4   1   77.79    5.30
   4  -4  -1   47.70    3.40
   4  -4  -1   45.40    3.80
  -4   4   1   41.30    4.30
  -4   4   1   43.30    3.50
   3  -4  -1   15.90    2.00
   3  -4  -1   15.80    1.90
  -3   4   1   15.70    2.00
  -3   4   1   12.80    2.20
   2  -4  -1   34.40    2.90
  -2   4   1   31.90    3.20
   1  -4  -1   31.50    2.80
   1  -4  -1   39.30    3.80
  -1   4   1   35.70    3.20
   0  -4  -1  100.79    5.80
   0  -4  -1  105.29    6.90
   0   4   1  106.59    6.20
   0   4   1   97.79    5.40
  -1  -4  -1  159.28    9.50
   1   4   1  157.88    8.60
   1   4   1  160.08    8.80
   2   4   1   14.20    2.40
  -3  -4  -1   46.60    4.50
   3   4   1   49.80    5.00
  -4  -4  -1   -0.10    1.40
   5   4   1  210.98   10.60
   5  -5  -1   10.20    1.50
   4  -5  -1    4.00    1.20
   3  -5  -1   40.90    3.40
   2  -5  -1   51.99    3.70
  -2   5   1   41.80    4.40
   1  -5  -1   90.69    5.40
  -1   5   1   79.59    6.00
   0  -5  -1   41.40    3.40
   0  -5  -1   37.80    4.40
   0   5   1   37.50    4.00
  -1  -5  -1  129.59    7.40
  -1  -5  -1  134.99    8.70
   1   5   1  118.59    7.80
  -2  -5  -1   28.00    3.80
  -2  -5  -1   25.40    2.70
  -3  -5  -1    9.90    2.80
   5  -6  -1   18.10    1.60
   4  -6  -1   31.00    2.50
   3  -6  -1   36.90    2.90
   2  -6  -1   13.00    1.80
   1  -6  -1    5.10    1.60
   0  -6  -1    4.40    1.30
  -1  -6  -1    9.60    1.60
  -2  -6  -1   36.90    2.70
   3  -7  -1    7.80    1.10
   2  -7  -1   13.30    1.50
   1  -7  -1    0.40    0.70
   0  -7  -1   37.60    2.60
  -1  -7  -1    4.90    1.00
  -1  -7   2   33.60    2.30
   0  -7   2   34.70    2.50
   1  -7   2   14.40    1.60
   2  -7   2    2.60    0.80
   3  -7   2    0.20    0.50
  -2  -6   2   73.49    4.40
  -1  -6   2   25.30    2.40
   1  -6   2   54.99    4.10
   2  -6   2   29.60    2.70
   3  -6   2    8.50    1.40
   4  -6   2   25.00    2.20
   5  -6   2    1.50    0.60
  -2  -5   2   27.40    2.70
  -1  -5   2  120.99    8.30
   0  -5   2  221.08   12.40
   1  -5   2  204.08   10.70
   2  -5   2   77.49    5.20
  -3   5  -2    1.80    1.00
   3  -5   2    0.60    1.00
  -4   5  -2   34.80    3.40
   4  -5   2   40.00    3.50
  -5   5  -2   46.40    3.70
   5  -5   2   48.10    3.40
  -6   5  -2   27.70    2.60
   3   4  -2   55.89    5.40
  -3  -4   2   49.30    4.00
   2   4  -2   77.19    5.80
  -2  -4   2   83.49    5.30
  -2  -4   2   75.69    6.30
   1   4  -2  134.69    7.70
   1   4  -2  143.89    6.90
  -1  -4   2  125.89    7.30
  -1  -4   2  138.09    7.90
   0   4  -2    8.80    1.20
   0  -4   2   10.00    1.70
  -1   4  -2  103.39    5.80
  -2   4  -2  100.99    6.30
   2  -4   2  120.69    6.60
  -3   4  -2  204.98   11.10
  -3   4  -2  189.48   10.40
   3  -4   2  207.88   10.60
   3  -4   2  205.78   10.10
  -4   4  -2    6.50    1.80
  -4   4  -2    9.20    1.90
   4  -4   2    8.60    1.80
   4  -4   2    5.50    1.20
  -5   4  -2   13.70    2.30
   5  -4   2   14.60    2.00
   5  -4   2   12.80    1.90
  -6   4  -2   45.80    3.80
   6  -4   2   43.80    3.30
  -7   4  -2    1.10    1.00
   7  -4   2    1.80    0.80
  -3  -3   2   61.89    4.20
  -2  -3   2   28.20    3.80
   1   3  -2  512.95   22.40
  -1  -3   2  479.75   23.10
   0   3  -2  691.83   29.20
   0   3  -2  628.24   29.30
   0   3  -2  617.64   29.10
   0  -3   2  652.93   29.90
  -1   3  -2  319.67   15.00
  -2   3  -2  286.27   13.50
   2  -3   2  270.37   13.10
  -3   3  -2   37.80    3.10
   3  -3   2   36.20    2.60
  -4   3  -2   77.09    4.90
  -4   3  -2   78.19    5.80
   4  -3   2   74.29    4.50
   4  -3   2   68.89    5.40
  -5   3  -2   82.59    6.40
  -5   3  -2   98.49    5.90
   5  -3   2   90.29    5.30
   5  -3   2   79.59    5.20
  -6   3  -2   70.59    5.20
   6  -3   2   74.59    4.80
   7  -3   2   30.00    3.20
  -8   3  -2    7.00    1.70
   8  -3   2    6.30    1.20
   7   2  -2   13.00    2.10
   6   2  -2  232.78   11.80
  -6  -2   2  246.38   12.60
   5   2  -2    2.20    1.00
  -5  -2   2    4.20    1.30
  -4  -2   2 1085.79   46.80
  -4  -2   2  979.20   46.30
  -3  -2   2  660.23   30.50
  -3  -2   2  689.23   30.80
   2   2  -2  578.04   26.30
  -2  -2   2  598.34   26.60
   1   2  -2 1199.98   54.19
   1   2  -2 1306.57   54.29
  -1  -2   2 1182.88   54.69
   0   2  -2  486.45   22.50
   0   2  -2  507.45   22.60
   0  -2   2  516.85   23.00
  -1   2  -2 1046.50   46.50
  -2   2  -2  731.83   33.10
  -3   2  -2 1048.00   46.90
   3  -2   2  985.40   45.50
  -4   2  -2  251.47   12.50
  -4   2  -2  249.88   12.90
   4  -2   2  255.47   12.30
  -5   2  -2   15.60    2.60
  -5   2  -2   11.20    2.00
   5  -2   2   15.90    2.10
  -6   2  -2   33.50    4.00
  -6   2  -2   34.40    4.30
   6  -2   2   40.20    4.30
  -7   2  -2    5.90    1.80
   7  -2   2    4.90    1.30
  -8   2  -2    0.60    1.10
   8  -2   2    1.70    1.00
   8   1  -2   26.10    2.30
  -8  -1   2   18.20    2.60
   7   1  -2   54.89    3.70
  -7  -1   2   49.50    4.10
   6   1  -2  314.97   15.50
  -6  -1   2  325.37   16.00
   5   1  -2  122.79    6.80
  -5  -1   2  128.39    7.20
  -5  -1   2  130.69    7.10
  -4  -1   2  126.19    6.60
  -4  -1   2  119.39    6.50
  -4  -1   2  124.99    6.70
  -3  -1   2  871.91   39.50
  -3  -1   2  897.61   39.60
   2   1  -2  614.24   28.10
  -2  -1   2  625.64   28.00
  -2  -1   2  645.94   28.00
   1   1  -2  549.85   24.40
  -1  -1   2  557.94   24.60
   0   1  -2 8508.25  395.06
   0  -1   2 8631.14  394.96
  -1   1  -2 7410.76  350.46
   1  -1   2 7188.58  352.36
  -2   1  -2 1936.11   85.49
   2  -1   2 1926.81   85.19
  -3   1  -2   30.60    2.40
   3  -1   2   31.90    2.20
  -4   1  -2   27.80    2.40
  -4   1  -2   29.80    2.60
   4  -1   2   28.20    2.20
   4  -1   2   29.20    2.40
  -5   1  -2   95.49    5.60
  -5   1  -2   91.29    6.00
   5  -1   2   84.19    5.60
   5  -1   2   86.39    5.20
  -6   1  -2  193.68   10.40
  -6   1  -2  179.28   11.00
   6  -1   2  193.48   10.00
  -7   1  -2  276.77   14.40
   7  -1   2  277.17   14.00
  -8   1  -2    5.40    1.50
   8  -1   2    6.50    1.40
  -9   1  -2   13.40    1.70
   9  -1   2   16.00    1.60
   9   0  -2    7.70    1.30
   8   0  -2    0.10    1.90
   8   0  -2    0.00    0.70
  -8   0   2    0.70    1.00
   7   0  -2   21.30    2.40
  -7   0   2   26.40    2.90
   6   0  -2   15.80    2.00
  -6   0   2   16.90    2.80
  -6   0   2   16.20    2.10
  -6   0   2   15.80    2.60
   5   0  -2  300.47   15.60
  -5   0   2  347.37   16.40
  -5   0   2  341.47   16.00
   4   0  -2  322.17   15.10
  -4   0   2  326.97   15.90
  -4   0   2  326.07   15.30
  -4   0   2  313.27   14.90
  -3   0   2   82.39    4.50
  -2   0   2 1187.88   52.69
   1   0  -2  773.62   34.10
   1   0  -2  812.72   34.40
   1   0  -2  745.33   34.30
  -1   0   2  761.82   34.30
   0   0  -2 3464.15  168.48
   0   0   2 3397.46  168.48
  -1   0  -2 9993.20  464.25
   1   0   2 9999.00  465.55
  -2   0  -2  447.46   20.20
   2   0   2  440.26   20.30
  -3   0  -2  204.58   10.00
   3   0   2  204.38   10.20
  -4   0  -2 1265.77   56.69
  -4   0  -2 1285.07   56.99
   4   0   2 1252.57   56.49
   4   0   2 1252.37   57.29
  -5   0  -2   60.39    4.60
   5   0   2   57.59    4.80
  -6   0  -2   86.79    5.60
  -6   0  -2   79.29    6.50
   6   0   2   87.69    5.40
  -7   0  -2   10.80    2.00
  -7   0  -2    8.30    2.60
   7   0   2    9.50    1.80
  -8   0  -2    0.20    1.10
   8   0   2    0.10    0.90
  -9   0  -2    0.10    0.80
   9   0   2    0.70    0.70
   9  -1  -2    6.90    1.10
  -9   1   2    7.30    1.40
   8  -1  -2   25.60    2.40
  -8   1   2   20.40    2.50
   7  -1  -2   54.39    4.00
  -7   1   2   59.49    4.50
   6  -1  -2  336.27   15.80
   6  -1  -2  298.07   16.20
  -6   1   2  332.57   16.20
  -6   1   2  331.07   16.90
   5  -1  -2  115.79    7.40
  -5   1   2  132.29    7.60
   4  -1  -2  113.69    6.20
  -4   1   2  125.19    6.80
  -4   1   2  117.99    6.40
   3  -1  -2  850.61   38.70
  -3   1   2  872.81   39.00
   2  -1  -2  636.74   28.50
  -2   1   2  632.54   28.70
   1  -1  -2  543.25   24.60
   1  -1  -2  560.24   24.90
  -1   1   2  559.64   24.60
  -1   1   2  535.35   24.70
   0   1   2 8284.37  392.76
   0   1   2 8768.12  394.96
  -1  -1  -2 7079.49  330.17
   1   1   2 6951.30  331.27
  -2  -1  -2 1886.91   86.69
   2   1   2 2012.10   86.79
  -3  -1  -2   31.00    2.80
   3   1   2   34.10    3.00
  -4  -1  -2   33.60    2.60
  -4  -1  -2   33.80    3.10
   4   1   2   32.70    3.40
  -5  -1  -2   89.39    6.40
   5   1   2   94.89    5.50
   5   1   2   84.89    6.50
  -6  -1  -2  184.48   11.60
  -6  -1  -2  195.78   10.40
   6   1   2  200.68   10.30
  -7  -1  -2  231.38   15.10
  -7  -1  -2  274.37   13.90
   7   1   2  285.27   13.60
  -8  -1  -2    9.60    1.90
   8   1   2   10.00    1.60
   9   1   2   14.20    1.50
  -9   2   2    3.90    1.00
   8  -2  -2   18.80    2.00
  -8   2   2   13.80    2.00
   7  -2  -2    8.70    1.60
  -7   2   2    7.70    1.70
   6  -2  -2  242.08   12.20
  -6   2   2  243.38   12.50
  -6   2   2  233.18   13.60
   5  -2  -2    1.30    0.90
  -5   2   2    1.30    1.10
  -5   2   2    1.00    1.20
   4  -2  -2  969.80   43.00
  -4   2   2 1005.60   43.90
  -4   2   2  889.11   43.10
   3  -2  -2  591.84   29.40
   3  -2  -2  671.23   29.00
  -3   2   2  674.53   30.00
   2  -2  -2  655.03   30.10
  -2   2   2  650.43   29.90
   1  -2  -2 1156.08   53.79
   1  -2  -2 1225.48   54.59
  -1   2   2 1228.18   54.19
  -1   2   2 1239.08   53.69
   0  -2  -2  504.15   24.00
   0   2   2  526.65   23.40
  -1  -2  -2 1100.09   49.70
  -2  -2  -2  770.82   35.60
   2   2   2  773.42   35.60
  -3  -2  -2 1067.59   49.10
   3   2   2 1075.59   49.30
  -4  -2  -2  268.37   13.00
  -4  -2  -2  263.87   14.10
   4   2   2  259.47   14.40
  -5  -2  -2   14.60    2.70
  -5  -2  -2   15.70    2.00
   5   2   2   12.50    2.00
   5   2   2   17.40    3.50
  -6  -2  -2   39.60    3.40
  -6  -2  -2   36.20    4.50
   6   2   2   35.80    3.30
  -7  -2  -2    7.90    1.90
   7   2   2    6.10    1.50
   8   2   2    2.50    1.00
   8  -3  -2   17.30    1.80
  -8   3   2   17.60    1.90
   7  -3  -2    1.10    0.90
  -7   3   2    1.30    1.00
  -7   3   2    2.00    1.40
   6  -3  -2   28.20    2.70
  -6   3   2   27.90    2.80
   5  -3  -2   77.49    4.70
   5  -3  -2   64.49    4.30
  -5   3   2   77.49    5.90
  -5   3   2   72.29    4.80
   4  -3  -2   98.69    5.50
  -4   3   2  100.39    6.50
  -4   3   2   88.99    5.60
   3  -3  -2   55.89    3.60
  -3   3   2   53.39    3.70
  -3   3   2   63.89    4.50
   2  -3  -2   38.80    3.40
   2  -3  -2   28.90    2.30
  -2   3   2   37.30    3.10
   1  -3  -2  530.85   24.50
  -1   3   2  489.25   22.90
   0  -3  -2  641.64   29.80
   0   3   2  601.74   29.40
   0   3   2  651.93   29.20
  -1  -3  -2  238.18   12.50
   1   3   2  239.18   12.10
  -2  -3  -2  304.97   15.30
   2   3   2  287.77   15.10
  -3  -3  -2   35.20    3.60
   3   3   2   33.40    3.70
  -4  -3  -2   76.59    6.00
   4   3   2   79.09    6.60
  -5  -3  -2   90.69    7.00
   5   3   2   92.69    5.60
   6   3   2   68.39    4.60
   7   3   2   34.60    2.90
  -7   4   2    5.70    1.70
   6  -4  -2    2.10    1.00
  -6   4   2    2.60    1.30
   5  -4  -2   34.60    2.70
   5  -4  -2   39.00    3.00
  -5   4   2   27.00    2.80
   4  -4  -2   84.89    5.30
   4  -4  -2   89.49    5.30
  -4   4   2   91.09    5.70
  -4   4   2   88.79    6.70
   3  -4  -2   50.09    3.60
  -3   4   2   48.30    4.40
   2  -4  -2   84.09    5.20
  -2   4   2   84.09    5.80
   1  -4  -2  141.29    8.80
  -1   4   2  137.39    8.20
   0  -4  -2    7.10    1.40
   0  -4  -2   11.50    2.40
   0   4   2    8.70    1.60
   0   4   2   11.10    1.40
  -1  -4  -2  117.39    7.60
  -1  -4  -2  110.59    6.10
   1   4   2  110.09    6.80
   1   4   2  109.29    6.70
  -2  -4  -2  131.39    7.50
  -2  -4  -2  120.39    8.10
   2   4   2  120.39    7.90
  -3  -4  -2  213.78   12.70
   3   4   2  228.88   14.10
  -4  -4  -2    9.20    2.60
  -5  -4  -2   11.00    3.20
   5   4   2    9.50    1.60
   6   4   2   42.90    3.20
   5  -5  -2   20.00    2.00
   4  -5  -2   28.00    2.60
   3  -5  -2   78.69    5.10
   2  -5  -2   26.60    2.60
  -2   5   2   18.70    4.20
   1  -5  -2  128.89    8.60
   1  -5  -2  121.79    6.90
  -1   5   2  111.79    7.80
   0  -5  -2  211.38   12.00
   0  -5  -2  223.48   12.90
   0   5   2  213.88   12.10
  -1  -5  -2  193.08   12.00
  -1  -5  -2  229.48   11.80
   1   5   2  172.58   11.00
  -2  -5  -2   84.99    8.10
  -2  -5  -2   82.99    4.80
   2   5   2   68.39    6.60
  -3  -5  -2   -1.70    1.80
   5  -6  -2    3.50    0.80
   4  -6  -2   11.50    1.60
   3  -6  -2    2.30    1.00
   2  -6  -2   76.69    4.80
   1  -6  -2   27.90    3.10
  -1  -6  -2   43.60    5.70
  -1  -6  -2   53.29    3.50
  -2  -6  -2   25.70    2.20
   3  -7  -2   10.00    1.20
   1  -7  -2   37.00    2.60
   0  -7  -2   30.60    2.20
  -1  -7  -2   14.00    1.40
  -1  -7   3   14.10    1.50
   0  -7   3    5.00    1.00
   1  -7   3    0.00    0.60
   2  -7   3   14.30    1.60
   3  -7   3    7.30    1.10
  -2  -6   3   28.80    2.40
  -1  -6   3    1.90    1.00
   0  -6   3   32.70    2.90
   1  -6   3   26.80    2.70
   2  -6   3    7.30    1.50
   3  -6   3    3.20    1.10
   4  -6   3    3.20    1.00
   5  -6   3    0.50    0.70
   6   5  -3    3.80    1.80
  -2  -5   3  163.38    8.70
  -1  -5   3   66.69    4.60
   0  -5   3   23.40    2.60
   1  -5   3   58.69    4.30
   2  -5   3   72.79    5.00
  -3   5  -3   19.00    2.50
   3  -5   3   28.30    2.80
  -4   5  -3    2.50    1.40
   4  -5   3    1.80    1.20
  -5   5  -3   46.70    3.80
   5  -5   3   58.79    3.70
  -6   5  -3   14.80    1.90
   3   4  -3   74.49    7.40
   2   4  -3    2.00    1.50
  -2  -4   3    1.10    1.20
   1   4  -3  179.68    9.80
  -1  -4   3  182.98    9.50
  -1   4  -3  131.09    6.90
   1  -4   3  136.99    7.50
  -2   4  -3   69.99    4.70
   2  -4   3   79.89    5.00
  -3   4  -3  106.69    6.70
   3  -4   3  106.99    5.90
   3  -4   3  110.79    6.50
  -4   4  -3    2.70    2.20
  -4   4  -3    3.10    1.40
   4  -4   3    3.90    1.20
   4  -4   3    5.20    1.40
  -5   4  -3   39.30    3.60
   5  -4   3   34.70    3.00
   5  -4   3   35.00    2.90
  -6   4  -3   75.49    6.40
   6  -4   3   84.29    4.90
  -7   4  -3    9.40    1.60
   7  -4   3    9.80    1.60
   8   3  -3    5.50    1.90
  -3  -3   3  187.98   10.00
  -2  -3   3  229.88   11.10
   0   3  -3  415.86   18.50
   0   3  -3  405.26   18.80
  -1   3  -3  167.38    8.20
  -2   3  -3  750.22   34.60
   2  -3   3  772.72   34.60
  -3   3  -3   96.29    5.90
   3  -3   3   95.89    5.80
   3  -3   3  103.89    5.50
  -4   3  -3   20.60    2.40
  -4   3  -3   19.90    2.60
   4  -3   3   19.10    2.00
   4  -3   3   17.30    2.20
  -5   3  -3   20.90    2.50
  -5   3  -3   14.00    2.50
   5  -3   3   18.10    2.40
   5  -3   3   17.50    2.10
  -6   3  -3   58.79    4.50
   6  -3   3   51.59    3.80
  -7   3  -3    5.40    1.60
   7  -3   3    2.10    1.00
  -8   3  -3   10.40    1.80
   8  -3   3   10.50    1.40
   8   2  -3   39.70    3.90
  -5  -2   3  153.08    8.50
  -4  -2   3  243.98   12.20
  -3  -2   3   48.20    2.50
  -2  -2   3  689.83   31.10
   1   2  -3  529.45   22.10
  -1  -2   3  408.06   21.30
   0   2  -3  358.86   15.40
   0   2  -3  359.66   14.90
   0  -2   3  282.57   15.60
  -1   2  -3  293.27   12.80
  -1   2  -3  268.27   12.90
  -2   2  -3  441.16   20.30
  -3   2  -3  191.88    9.60
   3  -2   3  180.18    9.10
  -4   2  -3   26.10    2.60
  -4   2  -3   22.50    2.30
   4  -2   3   22.40    2.10
  -5   2  -3    4.60    1.40
  -5   2  -3    5.70    1.60
   5  -2   3    8.30    1.50
  -6   2  -3   65.39    5.70
  -6   2  -3   72.99    5.00
   6  -2   3   68.29    4.60
  -7   2  -3  163.88    9.10
   7  -2   3  149.29    8.50
  -8   2  -3    4.70    1.30
   8  -2   3    9.00    1.60
   8   1  -3    9.60    2.80
   7   1  -3   25.80    2.50
  -7  -1   3   32.10    3.10
   6   1  -3   51.69    3.70
  -6  -1   3   63.39    4.40
   5   1  -3  171.68    9.00
  -5  -1   3  191.58    9.60
  -4  -1   3  105.39    5.50
  -4  -1   3  110.29    6.10
  -4  -1   3  113.19    6.00
  -3  -1   3 1117.99   49.80
   2   1  -3 1133.19   47.10
  -2  -1   3  978.90   46.60
   1   1  -3   63.09    3.60
   0   1  -3   69.19    3.70
   0  -1   3   74.79    3.30
   0  -1   3   70.69    3.70
  -1   1  -3 1875.31   83.39
  -1   1  -3 1939.31   83.59
   1  -1   3 2016.30   83.49
   1  -1   3 1735.43   83.49
  -2   1  -3 3061.79  129.69
   2  -1   3 3014.10  129.49
   2  -1   3 2739.93  129.89
  -3   1  -3 1299.07   57.29
   3  -1   3 1256.57   56.89
  -4   1  -3   32.70    2.60
  -4   1  -3   30.90    2.80
   4  -1   3   28.50    2.30
   4  -1   3   28.30    2.50
  -5   1  -3  154.28    8.20
  -5   1  -3  150.48    9.80
   5  -1   3  140.69    8.20
   5  -1   3  147.39    7.90
  -6   1  -3   10.30    1.90
   6  -1   3   13.70    2.10
  -7   1  -3   21.20    3.70
  -7   1  -3   19.10    2.60
   7  -1   3   25.10    2.60
  -8   1  -3   13.80    2.20
   8  -1   3   13.10    1.90
  -9   1  -3   38.10    2.90
   9  -1   3   42.60    2.70
   8   0  -3    0.80    0.90
   8   0  -3   -3.60    1.70
  -8   0   3    0.50    1.20
   7   0  -3  192.78    9.70
   7   0  -3  176.58   10.60
  -7   0   3  191.98   10.40
   6   0  -3   62.89    4.10
  -6   0   3   60.89    4.90
  -6   0   3   60.69    4.40
   5   0  -3   12.20    1.70
  -5   0   3   10.50    1.70
  -5   0   3   15.70    2.30
  -5   0   3   12.20    1.90
   4   0  -3  973.30   43.70
  -4   0   3 1035.70   44.10
  -4   0   3  920.61   43.70
  -3   0   3 2632.64  111.09
  -3   0   3 2389.86  110.79
   2   0  -3  336.47   15.70
  -2   0   3  333.47   15.30
   1   0  -3  131.39    6.50
   1   0  -3  134.29    6.10
  -1   0   3  123.49    6.40
  -1   0   3  140.49    6.30
   0   0  -3  988.20   45.30
   0   0  -3 1020.60   45.40
   0   0   3 1057.79   45.40
  -1   0  -3  323.47   14.90
   1   0   3  318.57   14.70
   2   0   3  508.15   23.20
   3   0   3 1155.38   51.99
  -4   0  -3   41.20    2.90
   4   0   3   34.70    2.80
   4   0   3   44.30    3.40
  -5   0  -3    0.00    0.70
  -5   0  -3   -0.30    1.00
   5   0   3    0.00    0.70
   5   0   3   -0.60    1.30
  -6   0  -3  265.47   15.50
  -6   0  -3  286.07   14.20
   6   0   3  279.87   14.00
  -7   0  -3   15.30    2.40
   7   0   3   11.80    2.10
  -8   0  -3   23.60    2.70
   8   0   3   25.90    2.50
  -9   0  -3    0.20    0.70
   9   0   3    0.70    0.70
   8  -1  -3    8.20    1.40
  -8   1   3    5.80    1.40
   7  -1  -3   37.40    3.10
  -7   1   3   33.40    3.30
   6  -1  -3   58.49    4.50
   6  -1  -3   64.79    4.20
  -6   1   3   64.39    4.60
  -6   1   3   68.59    5.30
   5  -1  -3  186.08    9.30
   5  -1  -3  171.98    9.50
  -5   1   3  187.18   10.10
  -5   1   3  183.88    9.60
   4  -1  -3   98.29    5.30
  -4   1   3  105.29    5.90
  -4   1   3   91.79    5.40
   3  -1  -3 1045.40   47.80
   3  -1  -3 1073.39   48.00
  -3   1   3 1084.59   48.10
   2  -1  -3  970.60   43.10
   2  -1  -3  936.51   43.00
  -2   1   3  982.40   43.20
   1  -1  -3   63.29    3.70
   1  -1  -3   63.49    3.50
  -1   1   3   63.29    3.60
  -1   1   3   66.49    3.50
   0  -1  -3   71.09    4.00
   0  -1  -3   75.79    4.20
   0   1   3   67.59    3.80
  -1  -1  -3 1947.51   87.59
  -1  -1  -3 1924.91   87.59
   1   1   3 2043.10   87.39
  -2  -1  -3 3118.69  137.99
  -2  -1  -3 3043.50  137.99
   2   1   3 3181.48  137.89
  -3  -1  -3 1347.57   60.19
   3   1   3 1310.57   60.09
  -4  -1  -3   32.10    2.50
  -4  -1  -3   32.10    3.30
   4   1   3   32.10    3.30
  -5  -1  -3  157.58    8.30
  -5  -1  -3  150.68    9.40
   5   1   3  154.28    8.30
   5   1   3  144.19    9.40
  -6  -1  -3   16.30    2.40
  -6  -1  -3   15.20    3.30
   6   1   3   14.10    2.30
  -7  -1  -3   22.80    2.70
  -7  -1  -3   25.10    4.80
   7   1   3   24.10    2.70
  -8  -1  -3    7.80    1.50
   9   1   3   42.20    2.70
   8  -2  -3   36.40    2.80
  -8   2   3   31.60    2.90
   7  -2  -3   25.00    2.60
  -7   2   3   25.30    2.80
   6  -2  -3    5.90    2.10
  -6   2   3    9.00    1.80
  -6   2   3   16.30    2.20
  -6   2   3   16.00    2.90
   5  -2  -3  140.49    7.50
  -5   2   3  132.89    7.60
  -5   2   3  142.09    8.50
   4  -2  -3  219.88   10.70
  -4   2   3  211.48   10.80
  -4   2   3  217.38   11.40
   3  -2  -3   48.50    3.30
   3  -2  -3   49.70    3.20
   3  -2  -3   43.90    3.00
  -3   2   3   55.59    3.80
   2  -2  -3  710.33   32.00
   2  -2  -3  659.83   31.40
  -2   2   3  714.13   31.90
   1  -2  -3  512.65   24.70
   1  -2  -3  533.55   24.00
  -1   2   3  533.55   23.70
  -1   2   3  513.65   24.10
   0  -2  -3  353.46   17.10
   0  -2  -3  344.77   16.80
   0  -2  -3  348.67   16.80
   0   2   3  379.06   16.60
  -1  -2  -3  278.97   13.90
  -1  -2  -3  275.37   14.10
   1   2   3  300.87   13.90
  -2  -2  -3  447.26   22.00
   2   2   3  472.85   22.00
  -3  -2  -3  203.68   11.00
   3   2   3  197.38   11.10
  -4  -2  -3   30.00    3.30
  -4  -2  -3   25.10    2.40
   4   2   3   24.70    3.40
  -5  -2  -3    6.60    1.80
  -5  -2  -3   10.00    1.80
   5   2   3    9.60    1.80
  -6  -2  -3   73.49    6.50
   6   2   3   74.09    5.00
  -7  -2  -3  163.68    9.10
   7   2   3  167.28    9.00
   8   2   3    7.00    1.30
  -8   3   3    5.00    1.60
   7  -3  -3   14.20    2.40
  -7   3   3   17.90    2.50
  -7   3   3   14.90    2.10
   6  -3  -3    2.10    1.00
  -6   3   3    2.60    1.30
   5  -3  -3  247.98   12.10
   5  -3  -3  253.17   12.40
  -5   3   3  254.87   13.90
  -5   3   3  234.08   12.40
   4  -3  -3   51.19    3.50
   4  -3  -3   50.69    3.50
  -4   3   3   53.59    4.50
  -4   3   3   51.19    3.60
   3  -3  -3  205.68    9.80
   3  -3  -3  171.88   10.50
  -3   3   3  207.38   10.80
   2  -3  -3  263.77   13.70
  -2   3   3  254.47   13.30
   1  -3  -3   73.09    5.10
  -1   3   3   75.39    4.70
  -1   3   3   65.29    3.80
   0  -3  -3  391.76   19.00
   0   3   3  373.46   17.90
  -1  -3  -3  166.98    9.20
   1   3   3  152.98    8.60
  -2  -3  -3  768.32   36.20
  -3  -3  -3  110.99    7.40
   3   3   3  102.19    7.30
  -4  -3  -3   20.90    3.10
   4   3   3   15.20    3.60
  -5  -3  -3   13.90    2.90
  -6  -3  -3   50.79    6.50
   6   3   3   54.19    3.90
   7   3   3    2.90    1.10
  -7   4   3   17.20    2.30
   5  -4  -3   34.70    2.80
   4  -4  -3   27.50    2.60
  -4   4   3   30.70    3.80
   3  -4  -3   79.69    5.10
  -3   4   3   83.89    6.20
   2  -4  -3    0.40    0.90
   2  -4  -3    0.90    1.40
  -2   4   3    0.90    1.20
   1  -4  -3  211.38   11.80
   1  -4  -3  196.68   10.20
  -1   4   3  197.88   11.10
   0  -4  -3  275.27   15.00
   0  -4  -3  303.37   14.60
   0   4   3  268.07   13.50
   0   4   3  264.27   14.20
  -1  -4  -3  141.89    8.90
  -1  -4  -3  137.39    7.30
   1   4   3  141.79    8.10
   1   4   3  136.19    8.10
  -2  -4  -3   74.89    4.50
  -2  -4  -3   79.19    6.20
   2   4   3   79.39    5.90
  -3  -4  -3  126.19    8.80
  -4  -4  -3    4.40    2.70
  -5  -4  -3   36.00    5.30
   5   4   3   33.40    3.00
   6   4   3   96.79    5.70
  -6   5   3    2.50    1.10
   5  -5  -3    3.00    1.10
   4  -5  -3    2.80    1.20
   3  -5  -3   77.29    5.00
   2  -5  -3  174.38    9.00
  -2   5   3  153.68   10.10
   1  -5  -3   61.49    6.50
   1  -5  -3   68.69    4.40
  -1   5   3   61.49    5.50
   0  -5  -3   14.40    2.80
   0  -5  -3   21.10    2.30
   0   5   3   22.30    3.20
  -1  -5  -3   63.69    4.10
  -1  -5  -3   66.09    6.20
   1   5   3   51.29    5.00
  -2  -5  -3   81.09    4.60
  -2  -5  -3   78.69    6.70
   2   5   3   65.59    6.00
  -3  -5  -3   17.20    3.20
   5  -6  -3    3.90    0.90
  -5   6   3    3.50    1.10
   4  -6  -3   11.30    1.60
   3  -6  -3   11.80    1.70
   2  -6  -3   27.80    2.50
   1  -6  -3    2.50    1.00
   0  -6  -3   41.50    3.10
  -1  -6  -3   26.40    2.40
  -2  -6  -3    8.20    1.30
   3  -7  -3    2.10    0.70
   2  -7  -3   14.20    1.50
   1  -7  -3   14.50    1.50
   0  -7  -3    5.80    1.00
  -1  -7  -3    0.90    0.60
  -1  -7   4    0.40    0.80
   0  -7   4   22.30    1.90
   1  -7   4    7.30    1.20
   2  -7   4   -0.30    0.50
  -2  -6   4    9.60    1.50
  -1  -6   4   38.90    3.10
   0  -6   4   16.00    2.30
   1  -6   4    4.80    1.30
  -2   6  -4   46.60    3.60
   2  -6   4   50.39    3.70
  -3   6  -4    5.60    1.70
   3  -6   4    5.60    1.40
   4  -6   4    1.70    0.80
   5  -6   4    0.30    0.40
   6   5  -4    2.20    1.50
   5   5  -4   24.70    3.10
   4   5  -4   34.40    3.80
   3   5  -4    0.20    2.00
  -2  -5   4  152.88    8.30
  -1  -5   4  108.09    6.40
   0  -5   4  119.49    7.00
   1  -5   4  108.09    6.60
   2  -5   4    2.60    1.30
  -3   5  -4    4.20    1.30
   3  -5   4    3.30    1.30
  -4   5  -4    9.30    1.70
   4  -5   4   15.10    2.10
  -5   5  -4   22.60    2.50
   5  -5   4   23.70    2.20
  -6   5  -4    6.00    1.30
   7   4  -4   21.10    2.90
  -2  -4   4  365.46   17.60
   1   4  -4  119.19    7.80
   1   4  -4  138.89    7.40
  -1  -4   4  144.49    7.50
   0  -4   4   79.69    5.00
   1  -4   4   64.09    4.40
  -2   4  -4   20.40    2.40
   2  -4   4   19.80    2.40
  -3   4  -4   74.29    5.40
   3  -4   4   76.19    5.60
   3  -4   4   80.79    4.60
  -4   4  -4  120.69    7.00
  -4   4  -4  100.29    7.70
   4  -4   4  112.89    6.70
  -5   4  -4   20.30    2.70
   5  -4   4   22.40    3.00
   5  -4   4   18.70    2.10
  -6   4  -4   22.40    2.60
   6  -4   4   20.00    2.10
   7  -4   4    2.30    0.80
   8   3  -4    4.00    1.70
   0   3  -4  125.49    7.40
   0   3  -4  104.79    5.90
  -1   3  -4    9.70    1.20
  -2   3  -4  474.05   22.00
  -3   3  -4  704.13   34.40
   3  -3   4  778.32   34.00
   3  -3   4  763.92   34.70
  -4   3  -4   23.90    2.60
  -4   3  -4   23.30    2.90
   4  -3   4   28.50    2.40
   4  -3   4   23.50    2.60
  -5   3  -4   13.90    2.50
  -5   3  -4   14.40    3.40
   5  -3   4   16.50    2.50
  -6   3  -4   23.90    2.90
   6  -3   4   19.80    2.20
  -7   3  -4    0.50    1.00
   7  -3   4    0.30    0.60
  -8   3  -4    3.20    1.00
   8  -3   4    5.20    1.00
   8   2  -4    0.40    1.30
  -3  -2   4  198.18    9.70
  -2  -2   4  440.96   20.40
  -1  -2   4   76.79    4.40
   0   2  -4  253.47   11.80
   0  -2   4  241.68   12.10
  -1   2  -4  183.28    9.20
  -1   2  -4  199.88    9.10
  -2   2  -4  102.69    5.50
  -3   2  -4  227.78   11.00
   3  -2   4  209.28    9.90
   3  -2   4  212.78   10.50
  -4   2  -4  198.78   10.20
  -4   2  -4  189.68   10.50
   4  -2   4  198.28    9.90
  -5   2  -4   16.30    2.70
  -5   2  -4   20.60    2.40
   5  -2   4   19.50    2.20
  -6   2  -4   18.60    2.40
   6  -2   4   18.40    2.20
  -7   2  -4   73.19    5.10
   7  -2   4   70.89    4.70
  -8   2  -4    3.20    1.10
   8  -2   4    1.90    0.90
   8   1  -4    1.00    1.40
   7   1  -4   19.00    2.30
  -7  -1   4   21.20    2.50
   6   1  -4   33.50    2.60
  -6  -1   4   30.70    3.00
   5   1  -4   32.90    2.60
  -5  -1   4   38.00    3.00
  -4  -1   4  287.77   13.70
  -4  -1   4  295.47   14.10
  -4  -1   4  278.67   13.60
  -3  -1   4  584.34   28.70
  -3  -1   4  646.74   28.60
  -3  -1   4  677.43   29.10
  -2  -1   4 2867.81  130.29
  -2  -1   4 3035.90  129.79
   1   1  -4  587.34   28.40
  -1  -1   4  596.24   26.80
   0   1  -4  156.48    7.60
   0  -1   4  155.98    7.60
   0  -1   4  156.68    7.70
   0  -1   4  152.38    7.10
  -1   1  -4  153.08    7.60
   1  -1   4  157.68    7.40
   1  -1   4  147.79    7.70
  -2   1  -4 1808.12   77.99
  -2   1  -4 1792.72   78.29
   2  -1   4 1769.42   77.79
   2  -1   4 1657.43   78.29
  -3   1  -4 2537.75  108.79
   3  -1   4 2490.75  108.49
   3  -1   4 2322.77  108.39
  -4   1  -4  234.28   11.90
  -4   1  -4  249.38   12.40
   4  -1   4  238.98   11.80
   4  -1   4  236.58   11.90
  -5   1  -4   53.19    3.90
   5  -1   4   53.89    3.60
   5  -1   4   46.00    4.00
  -6   1  -4   92.09    9.30
  -6   1  -4  106.99    6.50
   6  -1   4  104.79    6.20
  -7   1  -4   24.50    4.20
  -7   1  -4   26.70    3.00
   7  -1   4   24.90    2.70
  -8   1  -4    8.90    1.70
   8  -1   4    9.40    1.50
   8   0  -4    2.40    1.20
   8   0  -4    1.00    1.00
   8   0  -4    1.80    1.70
  -8   0   4    1.40    0.90
   7   0  -4  165.98    9.80
   7   0  -4  150.88    8.40
  -7   0   4  162.18    9.10
   6   0  -4   20.40    2.10
  -6   0   4   21.90    2.50
  -6   0   4   17.50    2.80
   5   0  -4   39.40    3.00
  -5   0   4   50.79    3.70
  -5   0   4   43.00    3.10
  -5   0   4   49.20    3.60
   4   0  -4  659.23   31.70
  -4   0   4  733.73   32.20
  -4   0   4  713.43   32.10
  -3   0   4   25.00    1.80
  -3   0   4   17.30    1.70
   2   0  -4    6.00    1.20
  -2   0   4    9.40    1.10
  -2   0   4    7.90    1.00
   1   0  -4 3764.42  168.18
   1   0  -4 3790.22  168.58
   1   0  -4 3920.61  168.98
   0   0  -4  269.27   12.90
   0   0  -4  265.77   12.80
   0   0   4  287.87   12.80
  -1   0  -4  568.34   25.90
  -1   0  -4  556.74   25.80
   1   0   4  570.24   25.60
  -2   0  -4  387.16   19.60
  -2   0  -4  408.96   18.80
   2   0   4  381.56   18.20
   3   0   4   45.90    3.30
  -4   0  -4  120.99    6.60
   4   0   4  119.39    6.50
   4   0   4  120.79    7.10
  -5   0  -4  289.97   15.90
  -5   0  -4  304.47   14.60
   5   0   4  283.77   15.30
   5   0   4  293.27   14.40
  -6   0  -4   19.60    2.40
  -6   0  -4   10.00    2.30
   6   0   4   16.60    2.20
  -7   0  -4    1.50    2.70
  -7   0  -4    2.20    1.30
   7   0   4    2.70    1.10
  -8   0  -4   29.70    2.90
   8   0   4   37.50    3.00
  -9   0  -4    5.10    1.10
   9   0   4    5.80    1.10
   8  -1  -4    0.90    0.70
  -8   1   4    0.90    0.90
   7  -1  -4   21.50    2.40
  -7   1   4   19.70    2.50
   6  -1  -4   33.50    3.10
   6  -1  -4   31.60    2.80
  -6   1   4   31.60    2.60
  -6   1   4   34.20    3.10
  -6   1   4   32.10    3.70
  -6   1   4   31.60    2.80
   5  -1  -4   37.80    3.10
   5  -1  -4   37.50    2.80
  -5   1   4   37.70    2.90
  -5   1   4   33.80    3.00
  -5   1   4   39.20    3.40
   4  -1  -4  240.88   12.40
   4  -1  -4  276.17   13.20
  -4   1   4  279.67   13.20
  -4   1   4  249.48   12.70
   3  -1  -4  651.53   28.30
   3  -1  -4  563.44   29.00
  -3   1   4  634.34   28.50
   2  -1  -4 3172.58  134.19
   2  -1  -4 3025.60  134.09
   2  -1  -4 2866.01  134.19
  -2   1   4 3081.79  134.29
   1  -1  -4  675.43   30.80
   1  -1  -4  694.93   30.80
   1  -1  -4  689.43   30.90
  -1   1   4  662.73   30.70
  -1   1   4  678.63   30.70
   0  -1  -4  169.28    8.30
   0  -1  -4  157.78    8.40
   0  -1  -4  170.18    8.50
   0   1   4  170.48    8.20
  -1  -1  -4  180.08    9.00
  -1  -1  -4  164.88    8.80
  -1  -1  -4  172.48    9.60
   1   1   4  164.78    8.50
  -2  -1  -4 1784.92   81.09
   2   1   4 1837.02   80.89
  -3  -1  -4 2564.44  114.09
   3   1   4 2542.15  113.89
  -4  -1  -4  220.58   12.80
  -4  -1  -4  247.38   11.70
   4   1   4  239.58   12.80
  -5  -1  -4   53.99    5.00
  -5  -1  -4   51.99    3.80
   5   1   4   55.79    4.00
   5   1   4   54.89    4.90
  -6  -1  -4  103.29    9.70
  -6  -1  -4  101.29    6.50
   6   1   4  116.79    6.70
  -7  -1  -4   21.30    2.60
  -7  -1  -4   16.40    3.60
   7   1   4   25.30    2.70
  -8  -1  -4    8.10    1.50
   8   1   4   10.30    1.60
   8  -2  -4    0.60    0.80
  -8   2   4   -0.40    0.90
   7  -2  -4   14.70    1.90
  -7   2   4   11.40    2.00
   6  -2  -4   57.39    3.90
  -6   2   4   50.49    3.90
  -6   2   4   46.40    3.90
  -6   2   4   51.89    5.30
   5  -2  -4   33.70    2.70
  -5   2   4   26.40    2.60
  -5   2   4   29.90    3.30
   4  -2  -4    2.30    1.00
   4  -2  -4    5.60    1.20
  -4   2   4    3.40    1.30
  -4   2   4    3.30    1.00
   3  -2  -4  247.28   11.50
   3  -2  -4  219.38   11.20
  -3   2   4  232.68   12.00
   2  -2  -4  550.64   23.20
   2  -2  -4  452.35   22.50
   2  -2  -4  506.75   23.40
   2  -2  -4  467.25   22.90
   1  -2  -4   84.09    5.20
   1  -2  -4   92.49    5.60
   1  -2  -4   85.39    5.00
  -1   2   4   95.39    5.30
  -1   2   4   91.89    4.90
   0  -2  -4  252.37   13.00
   0  -2  -4  259.47   13.10
   0  -2  -4  266.67   12.80
   0   2   4  266.57   12.60
  -1  -2  -4  193.68   10.10
  -1  -2  -4  191.58    9.90
   1   2   4  194.98    9.70
   1   2   4  171.78    9.00
  -2  -2  -4   99.39    6.40
  -2  -2  -4  102.09    6.30
  -2  -2  -4   88.79    5.70
   2   2   4  120.49    6.50
  -3  -2  -4  224.98   12.30
   3   2   4  219.98   12.10
  -4  -2  -4  206.48   11.80
  -4  -2  -4  193.38   10.10
   4   2   4  202.48   11.80
  -5  -2  -4   21.50    3.60
  -5  -2  -4   20.10    2.30
  -6  -2  -4   20.60    2.30
  -6  -2  -4   10.70    2.60
   6   2   4   18.40    2.50
  -7  -2  -4   59.09    5.10
   7   2   4   77.49    4.80
   8   2   4    2.40    1.00
  -7   3   4   10.40    1.90
  -7   3   4    5.90    1.60
   6  -3  -4   17.80    2.20
  -6   3   4   16.30    2.30
  -6   3   4   19.80    2.50
   5  -3  -4  169.18    8.80
  -5   3   4  155.08    8.80
  -5   3   4  171.08   10.20
   4  -3  -4   70.79    4.30
   4  -3  -4   71.89    4.40
  -4   3   4   75.09    5.60
  -4   3   4   63.69    5.50
   3  -3  -4  225.98   11.20
   3  -3  -4  220.78   11.20
  -3   3   4  238.28   12.40
   2  -3  -4  115.49    7.30
  -2   3   4  113.09    7.00
   1  -3  -4  704.53   33.50
   1  -3  -4  767.12   34.50
  -1   3   4  695.73   33.20
  -1   3   4  760.62   34.00
   0  -3  -4  116.99    7.20
   0   3   4  113.39    6.30
  -1  -3  -4    6.70    1.70
   1   3   4   10.30    1.30
   1   3   4    6.60    1.50
  -2  -3  -4  528.95   26.00
   2   3   4  528.85   25.60
  -3  -3  -4  846.72   40.10
   3   3   4  830.72   39.90
  -4  -3  -4   25.70    3.70
  -5  -3  -4   13.40    2.90
  -6  -3  -4   12.50    3.40
   6   3   4   22.50    2.50
   7   3   4    0.10    0.70
   8   3   4    1.50    1.00
  -7   4   4   27.10    3.10
  -6   4   4   60.39    4.60
   5  -4  -4   22.00    2.20
   4  -4  -4  180.88    9.60
  -4   4   4  195.28   11.60
   3  -4  -4   43.70    3.40
  -3   4   4   42.70    4.40
   2  -4  -4  411.16   21.00
   2  -4  -4  401.66   19.30
  -2   4   4  403.06   20.60
   1  -4  -4  159.98    8.70
   1  -4  -4  166.08   10.20
  -1   4   4  178.48   10.50
   0  -4  -4   86.29    5.00
   0  -4  -4   89.79    6.50
   0   4   4   82.69    5.80
   0   4   4   83.79    5.20
  -1  -4  -4   73.29    5.80
  -1  -4  -4   67.79    4.20
   1   4   4   65.79    4.90
   1   4   4   67.99    4.30
  -2  -4  -4   22.10    3.30
  -2  -4  -4   21.60    2.20
   2   4   4   19.90    3.10
  -3  -4  -4   93.29    7.40
  -4  -4  -4  115.59    8.80
  -5  -4  -4   22.00    4.40
   6   4   4   20.70    2.20
  -6   5   4    2.90    1.30
   5  -5  -4   30.40    2.50
  -5   5   4   29.70    3.10
   4  -5  -4   46.40    3.40
   3  -5  -4   -0.40    0.80
   2  -5  -4  161.38    8.70
   1  -5  -4  112.89    6.40
   1  -5  -4  109.99    8.20
  -1   5   4  108.19    7.90
   0  -5  -4  118.99    8.80
   0  -5  -4  126.99    6.90
  -1  -5  -4  119.69    6.30
  -1  -5  -4  108.49    8.20
   1   5   4  100.39    7.60
  -2  -5  -4    2.80    1.00
  -2  -5  -4    1.60    1.70
  -3  -5  -4    2.80    1.90
   5   5   4   21.40    2.30
   5  -6  -4    1.30    0.90
  -4   6   4    5.80    1.60
   3  -6  -4   22.40    2.10
  -3   6   4   13.80    2.40
   2  -6  -4    8.70    1.50
  -2   6   4    9.30    1.80
   1  -6  -4   38.00    3.10
  -1   6   4   45.50    3.70
   0  -6  -4   19.60    2.10
  -1  -6  -4    4.20    1.10
  -2  -6  -4   52.89    3.30
   2  -7  -4    0.20    0.50
   1  -7  -4    0.40    0.60
   0  -7  -4   19.10    1.70
  -1  -7  -4    5.40    1.00
  -1  -7   5    5.70    0.90
   0  -7   5    6.90    1.10
   1  -7   5    2.90    0.80
   2  -7   5    0.10    0.50
  -2  -6   5   -0.10    0.80
  -1  -6   5   43.70    3.30
   0  -6   5    1.30    1.00
   1  -6   5   34.50    3.00
  -2   6  -5   28.50    2.70
   2  -6   5   35.00    3.00
  -3   6  -5    9.60    2.00
   3  -6   5    8.40    1.40
  -4   6  -5    6.10    1.40
   4  -6   5    5.30    1.10
   5   5  -5    3.90    1.80
   4   5  -5    5.10    1.90
   3   5  -5   11.40    2.30
  -2  -5   5   53.59    3.90
  -1  -5   5   68.99    4.70
   0  -5   5   92.19    5.90
   1  -5   5   49.30    4.00
   2  -5   5   12.30    2.00
  -3   5  -5    8.30    1.80
   3  -5   5    5.80    1.60
  -4   5  -5   31.20    3.40
   4  -5   5   34.60    3.00
  -5   5  -5   20.90    2.40
   5  -5   5   20.10    2.30
  -6   5  -5    2.10    0.90
   7   4  -5    5.40    1.80
   6   4  -5   21.60    3.20
   2   4  -5  125.29    7.50
  -2  -4   5  130.29    7.20
   1   4  -5  166.98    8.80
  -1  -4   5  164.18    8.90
   0  -4   5  125.39    7.20
   1  -4   5  169.48    9.20
   2  -4   5   49.60    3.90
   3  -4   5   30.00    3.00
  -4   4  -5  276.87   13.80
   4  -4   5  255.27   13.50
  -5   4  -5   14.40    2.30
   5  -4   5   13.60    1.80
   5  -4   5   13.10    1.90
  -6   4  -5   25.70    2.70
   6  -4   5   24.10    2.20
  -7   4  -5    4.30    1.20
   7   3  -5   15.70    3.00
   1   3  -5  494.05   23.70
  -1  -3   5  520.55   24.10
  -1  -3   5  511.45   23.50
   0   3  -5    7.10    1.30
  -2   3  -5   62.89    4.00
   2  -3   5   67.89    4.50
  -3   3  -5   32.20    3.00
   3  -3   5   34.90    2.60
   3  -3   5   32.70    3.10
  -4   3  -5  232.88   11.90
  -4   3  -5  224.38   12.20
   4  -3   5  235.08   11.30
   4  -3   5  209.48   11.50
  -5   3  -5    4.90    1.50
   5  -3   5    5.40    1.30
   5  -3   5    5.70    1.50
  -6   3  -5   11.40    2.20
   6  -3   5    9.50    1.50
  -7   3  -5    4.60    1.30
   7  -3   5    7.80    1.40
  -8   3  -5    3.90    1.00
   8  -3   5    3.80    1.00
   8   2  -5    0.20    1.20
   7   2  -5   13.00    2.80
  -2  -2   5  351.66   53.09
   1   2  -5  250.07   12.20
   0   2  -5  772.42   35.60
   0   2  -5  819.12   35.80
   0  -2   5  771.62   36.00
  -1   2  -5  242.28   11.70
  -1   2  -5  248.68   11.80
   1  -2   5  234.28   12.10
   1  -2   5  241.48   11.70
  -2   2  -5  950.10   42.00
  -2   2  -5  927.51   42.10
   2  -2   5  918.31   42.10
  -3   2  -5   44.30    3.40
   3  -2   5   52.79    2.90
   3  -2   5   44.30    3.10
  -4   2  -5  153.78    8.10
  -4   2  -5  136.99    8.30
   4  -2   5  137.99    8.00
   4  -2   5  155.58    7.80
  -5   2  -5   72.09    5.10
   5  -2   5   75.29    4.80
  -6   2  -5    3.00    1.30
   6  -2   5    4.20    1.20
  -7   2  -5   21.60    2.60
   7  -2   5   20.50    2.40
  -8   2  -5    7.00    1.50
   8  -2   5    5.10    1.00
   8   1  -5   -0.20    1.50
   7   1  -5   55.29    4.90
  -5  -1   5  100.89    6.10
  -4  -1   5   66.99    4.40
  -4  -1   5   66.49    3.90
  -3  -1   5   16.40    1.40
  -3  -1   5   17.90    1.70
  -2  -1   5  165.68    7.60
  -2  -1   5  167.58    8.30
   1   1  -5 1816.72   78.99
  -1  -1   5 1735.13   78.89
   0   1  -5 2411.66  109.39
   0   1  -5 2659.93  109.39
   0  -1   5 2470.75  109.39
   0  -1   5 2418.96  108.69
   0  -1   5 2395.56  109.39
  -1   1  -5   21.90    2.00
   1  -1   5   23.30    2.10
  -2   1  -5   12.70    1.80
  -2   1  -5   11.80    2.10
   2  -1   5   12.60    1.70
   3  -1   5  149.99    9.50
   3  -1   5  188.08    8.80
  -4   1  -5  301.07   14.40
   4  -1   5  283.57   14.30
   4  -1   5  297.97   14.20
  -5   1  -5   16.80    2.20
   5  -1   5   22.90    2.20
  -6   1  -5  121.99    9.40
  -6   1  -5  136.09    7.80
   6  -1   5  130.39    7.40
  -7   1  -5   23.80    2.80
   7  -1   5   24.40    2.50
  -8   1  -5    2.80    1.30
   8  -1   5    3.60    1.10
   8   0  -5    1.50    1.10
   8   0  -5    0.10    1.70
   7   0  -5   51.09    4.50
   7   0  -5   55.19    3.70
  -7   0   5   51.39    4.10
   6   0  -5   27.30    2.30
   6   0  -5   20.20    2.90
  -6   0   5   26.30    3.40
  -6   0   5   22.80    2.70
   5   0  -5    6.70    1.70
   5   0  -5    6.50    1.30
  -5   0   5    9.20    1.30
  -5   0   5    6.20    1.30
  -5   0   5    7.60    1.60
  -5   0   5    7.40    1.70
  -4   0   5   70.99    4.50
  -4   0   5   82.39    4.50
  -4   0   5   74.69    4.60
  -4   0   5   73.09    4.40
   3   0  -5  202.58   10.30
  -3   0   5  206.18   10.00
  -3   0   5  195.48    9.80
   2   0  -5 1017.30   43.40
  -2   0   5  964.60   42.60
  -2   0   5  878.81   42.70
   1   0  -5  430.16   18.60
   1   0  -5  401.36   18.60
   1   0  -5  407.06   18.50
  -1   0   5  392.46   18.10
  -1   0   5  398.66   18.50
  -1   0   5  357.16   18.20
   0   0  -5  311.67   14.20
   0   0  -5  272.47   14.30
   0   0  -5  296.87   14.30
   0   0   5  303.97   14.20
   0   0   5  321.27   14.20
  -1   0  -5    2.50    1.00
  -1   0  -5    2.40    0.80
  -1   0  -5    3.00    0.90
   1   0   5    2.50    0.80
   1   0   5    2.50    0.80
  -2   0  -5  171.88    9.00
  -2   0  -5  181.18    9.00
   2   0   5  146.29    8.40
   2   0   5  177.88    8.60
  -3   0  -5 1023.60   47.10
  -3   0  -5 1080.69   47.30
  -3   0  -5 1030.80   46.20
  -3   0  -5 1030.10   46.50
   3   0   5 1088.69   46.70
   3   0   5  917.11   46.30
  -4   0  -5  284.17   13.80
  -4   0  -5  289.87   15.10
   4   0   5  275.07   13.70
   4   0   5  283.67   14.40
  -5   0  -5   23.30    2.40
  -5   0  -5   20.20    3.10
   5   0   5   13.70    3.50
   5   0   5   21.60    2.30
  -6   0  -5   67.19    6.10
  -6   0  -5   53.39    5.00
   6   0   5   59.29    4.60
  -7   0  -5   -0.60    0.80
  -7   0  -5    1.40    1.70
   7   0   5    1.10    0.90
  -8   0  -5   23.90    2.50
   8   0   5   25.90    2.40
   7  -1  -5   55.89    3.80
  -7   1   5   53.09    4.20
   6  -1  -5   15.80    2.00
   6  -1  -5   17.00    2.00
   6  -1  -5   10.40    2.00
  -6   1   5   16.50    1.90
  -6   1   5   16.90    2.30
  -6   1   5   11.60    2.50
  -6   1   5   19.90    2.20
   5  -1  -5   90.29    5.40
   5  -1  -5   95.69    5.90
  -5   1   5   94.89    5.60
  -5   1   5   97.39    6.30
  -5   1   5   90.49    5.60
   4  -1  -5   64.09    4.00
   4  -1  -5   48.90    3.40
  -4   1   5   60.69    4.10
  -4   1   5   57.19    3.70
  -4   1   5   52.39    3.60
   3  -1  -5   13.50    1.50
   3  -1  -5   15.00    1.60
   3  -1  -5   19.30    1.90
  -3   1   5   15.20    2.10
  -3   1   5   15.70    1.70
   2  -1  -5  167.78    8.30
   2  -1  -5  164.98    8.20
  -2   1   5  149.79    8.50
  -2   1   5  164.58    8.30
   1  -1  -5 1934.21   84.29
   1  -1  -5 1904.51   84.39
  -1   1   5 1863.11   84.19
  -1   1   5 1883.71   84.29
   0  -1  -5 2706.43  117.39
   0  -1  -5 2764.52  117.19
   0   1   5 2587.44  116.99
   0   1   5 2516.85  116.69
  -1  -1  -5   22.40    2.70
   1   1   5   23.90    2.20
   1   1   5   22.80    1.80
  -2  -1  -5   10.80    1.70
  -2  -1  -5   12.80    2.00
  -2  -1  -5   14.90    2.20
   2   1   5   12.80    1.40
   2   1   5   10.80    1.80
  -3  -1  -5  172.88    9.50
  -3  -1  -5  185.08   10.30
   3   1   5  188.78   10.00
  -4  -1  -5  311.57   14.40
  -4  -1  -5  296.07   17.30
   4   1   5  278.77   15.40
  -5  -1  -5   22.10    2.40
  -5  -1  -5   22.50    3.40
   5   1   5   25.40    2.50
  -6  -1  -5  135.99    9.80
  -6  -1  -5  134.79    7.90
   6   1   5  136.29    7.80
  -7  -1  -5   21.70    2.60
   7   1   5   23.00    2.50
  -8  -1  -5    3.40    1.40
   8   1   5    4.80    1.10
   7  -2  -5   15.00    1.90
  -7   2   5   12.00    2.50
   6  -2  -5    5.70    1.50
  -6   2   5    4.10    1.30
  -6   2   5    6.00    1.50
   5  -2  -5   16.90    2.00
  -5   2   5   15.90    2.00
  -5   2   5   16.00    2.10
  -5   2   5   11.60    2.00
   4  -2  -5   68.39    4.30
   4  -2  -5   64.99    4.00
   4  -2  -5   61.09    4.00
  -4   2   5   65.09    4.80
  -4   2   5   59.99    4.00
   3  -2  -5  335.57   16.50
   3  -2  -5  368.16   16.90
   3  -2  -5  345.27   16.50
  -3   2   5  359.16   17.40
   2  -2  -5  305.27   15.50
   2  -2  -5  311.17   15.30
  -2   2   5  305.67   15.20
   1  -2  -5  285.17   14.40
   1  -2  -5  294.57   14.00
  -1   2   5  277.77   14.10
  -1   2   5  287.37   13.80
   0  -2  -5  818.92   37.70
   0   2   5  735.23   36.70
   0   2   5  896.11   37.20
  -1  -2  -5  249.97   12.50
  -1  -2  -5  246.08   12.70
  -1  -2  -5  238.18   11.90
   1   2   5  215.68   11.40
   1   2   5  260.67   12.20
  -2  -2  -5  984.60   43.00
  -2  -2  -5  886.31   42.00
  -2  -2  -5  910.11   42.60
   2   2   5  854.91   41.20
   2   2   5  977.20   42.60
  -3  -2  -5   52.69    4.60
   3   2   5   49.50    4.40
  -4  -2  -5  157.78   10.00
  -4  -2  -5  153.98    8.30
   4   2   5  157.08    9.90
  -5  -2  -5   76.89    6.60
  -5  -2  -5   73.59    4.70
  -6  -2  -5    5.50    1.40
  -6  -2  -5    4.40    2.30
   6   2   5    6.90    1.80
  -7  -2  -5   15.00    2.00
   7   2   5   18.80    2.40
   8   2   5    8.60    1.60
  -7   3   5   13.10    2.00
  -7   3   5   14.10    1.70
  -6   3   5    2.80    1.30
   5  -3  -5   25.60    2.40
   5  -3  -5   30.10    2.60
  -5   3   5   23.80    3.40
  -5   3   5   28.20    3.00
   4  -3  -5  215.08   11.00
  -4   3   5  232.68   12.70
   3  -3  -5   90.69    5.20
   2  -3  -5   84.49    5.90
   2  -3  -5   76.49    4.70
  -2   3   5   82.89    5.70
   1  -3  -5  552.64   25.60
   1  -3  -5  520.05   25.20
   1  -3  -5  572.34   26.50
  -1   3   5  573.24   26.00
  -1   3   5  501.95   25.20
   0  -3  -5    6.60    1.80
   0  -3  -5    4.40    1.70
   0   3   5    8.30    1.60
   0   3   5    5.80    1.30
  -1  -3  -5  125.99    7.20
  -1  -3  -5  132.19    8.20
  -1  -3  -5  135.59    7.80
   1   3   5  119.89    6.70
   1   3   5  132.89    7.60
  -2  -3  -5   67.39    5.80
   2   3   5   71.49    5.30
  -3  -3  -5   41.50    4.50
   3   3   5   34.30    4.30
  -4  -3  -5  253.17   15.00
  -5  -3  -5    5.50    2.30
   6   3   5   11.60    2.10
   7   3   5    6.50    1.40
  -7   4   5    7.50    1.20
  -6   4   5   29.30    3.00
   5  -4  -5    8.20    1.50
  -5   4   5    5.70    1.60
   4  -4  -5   50.09    3.60
   3  -4  -5  124.89    6.90
  -3   4   5  114.79    8.20
   2  -4  -5  148.59    7.90
   2  -4  -5  140.59    9.40
  -2   4   5  145.09    9.30
   1  -4  -5  188.88   11.30
   1  -4  -5  184.68    9.50
  -1   4   5  180.78   10.70
   0  -4  -5  132.49    8.60
   0  -4  -5  130.29    6.90
   0   4   5  129.09    8.10
   0   4   5  129.09    7.10
   0   4   5  113.99    7.30
  -1  -4  -5  160.18    8.30
  -1  -4  -5  169.98   10.50
   1   4   5  155.08    8.40
   1   4   5  169.38    9.60
  -2  -4  -5   48.80    3.30
  -2  -4  -5   45.70    4.90
  -3  -4  -5   38.70    4.70
  -4  -4  -5  271.77   16.20
   6   4   5   25.00    2.40
   7   4   5    4.00    1.40
  -6   5   5   38.70    3.20
   5  -5  -5    5.20    1.20
  -5   5   5    5.80    1.80
   4  -5  -5    4.50    1.30
  -4   5   5    6.60    1.90
   3  -5  -5   15.20    2.10
   2  -5  -5   59.79    4.10
   1  -5  -5   72.29    4.60
   1  -5  -5   61.59    6.10
  -1   5   5   73.19    5.10
   0  -5  -5   87.39    7.30
   0  -5  -5   90.89    5.50
   0   5   5   89.99    7.30
   0   5   5   98.09    6.00
  -1  -5  -5   43.30    5.10
  -1  -5  -5   49.70    3.40
  -2  -5  -5   12.00    2.70
  -2  -5  -5   15.00    1.90
  -3  -5  -5    7.40    2.90
   5   5   5   19.90    2.50
   5  -6  -5    7.50    1.00
   4  -6  -5   -0.70    0.50
  -4   6   5   -0.20    0.70
   3  -6  -5   12.00    1.60
  -3   6   5   14.90    2.40
   2  -6  -5   -0.70    0.60
  -2   6   5   -0.10    1.20
   1  -6  -5   49.30    3.40
  -1   6   5   45.30    4.40
   0  -6  -5    2.40    1.00
  -1  -6  -5   34.90    2.70
  -2  -6  -5   27.30    2.60
   2  -7  -5    5.70    1.00
   1  -7  -5    3.70    0.80
   0  -7  -5    6.90    1.10
  -1  -7  -5    2.30    0.60
  -1  -7   6    1.20    0.90
   0  -7   6    7.80    1.10
   1  -7   6    3.10    0.80
  -2  -6   6   20.60    2.00
  -1  -6   6    4.50    1.20
   0  -6   6   36.90    3.10
  -2   6  -6    0.20    0.90
   2  -6   6    1.60    1.00
  -3   6  -6    5.30    1.30
   3  -6   6    2.60    1.00
  -4   6  -6   -0.40    0.90
   4  -6   6    0.10    0.50
   6   5  -6   13.30    1.60
   5   5  -6   20.20    2.90
   4   5  -6    8.50    2.50
   3   5  -6   11.30    4.10
   3   5  -6   19.40    2.50
  -2  -5   6    9.00    1.70
  -1  -5   6   83.69    5.50
   0  -5   6  163.38    9.10
   1  -5   6   84.09    5.60
   2  -5   6   61.89    4.60
  -3   5  -6    2.00    1.20
   3  -5   6    4.40    1.50
  -4   5  -6   20.40    2.50
   4  -5   6   20.40    2.30
  -5   5  -6    0.10    0.90
   5  -5   6    0.10    0.70
  -6   5  -6   -0.20    0.60
   7   4  -6    6.80    2.20
   6   4  -6   36.60    3.80
   5   4  -6   25.80    3.30
   4   4  -6   78.79    5.90
   3   4  -6   76.79    5.60
   2   4  -6   27.00    3.00
  -2  -4   6   36.70    3.10
   1   4  -6  166.88    8.80
  -1  -4   6  160.58    9.00
   0  -4   6   58.39    4.30
   1  -4   6   63.29    4.60
   2  -4   6   29.30    3.00
   3  -4   6   50.89    4.10
  -4   4  -6   24.70    2.90
   4  -4   6   24.30    2.80
  -5   4  -6   57.89    4.40
   5  -4   6   55.09    3.90
  -6   4  -6    1.60    1.00
   6  -4   6   -0.70    1.00
  -7   4  -6    2.30    0.90
   8   3  -6    8.60    1.20
   7   3  -6    7.00    1.80
   6   3  -6   48.00    4.70
   2   3  -6  302.47   15.20
  -2  -3   6  303.57   14.60
  -2  -3   6  300.87   15.10
   1   3  -6  249.08   13.00
  -1  -3   6  270.07   12.90
  -1  -3   6  265.97   13.40
   0   3  -6  213.08   10.30
   0  -3   6  197.68   10.90
   0  -3   6  199.78   10.30
   2  -3   6  183.68    9.80
   3  -3   6   33.80    2.70
   3  -3   6   36.30    3.30
  -4   3  -6  101.39    6.00
   4  -3   6   80.69    5.80
   4  -3   6   89.79    5.20
  -5   3  -6   33.00    3.20
   5  -3   6   30.70    2.70
   5  -3   6   27.60    2.80
  -6   3  -6    1.00    1.10
   6  -3   6    1.80    1.10
  -7   3  -6    3.50    1.20
   7  -3   6    4.40    1.00
   8   2  -6    2.20    1.00
   8   2  -6    0.10    1.70
   7   2  -6   29.80    3.70
   6   2  -6  164.78   10.80
  -3  -2   6  162.28    8.70
  -3  -2   6  168.08    8.70
   2   2  -6  242.68   12.60
  -2  -2   6  255.77   12.30
   1   2  -6  173.78    9.30
  -1  -2   6  191.88    9.30
   0   2  -6  566.14   27.60
   0  -2   6  612.24   28.10
   0  -2   6  631.14   27.70
  -1   2  -6   58.69    3.70
   1  -2   6   56.19    3.70
   1  -2   6   51.99    4.00
  -2   2  -6  118.59    6.90
   2  -2   6  119.89    7.30
   2  -2   6  136.69    6.90
   3  -2   6   11.50    1.60
   3  -2   6   10.50    1.50
  -4   2  -6  292.07   14.30
   4  -2   6  268.87   14.20
   4  -2   6  298.37   14.00
  -5   2  -6   20.10    2.50
   5  -2   6   22.70    2.30
  -6   2  -6   22.50    2.80
  -6   2  -6   25.50    4.40
   6  -2   6   24.80    2.40
  -7   2  -6   26.50    2.70
   7  -2   6   25.40    2.30
  -8   2  -6    1.00    0.80
   8  -2   6    0.20    0.60
   8   1  -6   14.40    2.40
   8   1  -6   15.10    2.00
   7   1  -6   64.09    5.30
   6   1  -6   25.00    3.40
   5   1  -6   14.10    2.70
  -4  -1   6  232.48   11.30
  -4  -1   6  236.68   11.40
  -4  -1   6  238.18   11.80
   3   1  -6  298.77   15.10
  -3  -1   6  284.97   14.40
  -3  -1   6  308.57   14.60
  -3  -1   6  320.47   14.30
   2   1  -6  743.43   40.60
  -2  -1   6  875.41   38.30
  -2  -1   6  907.91   39.10
   1   1  -6  247.78   12.20
   0   1  -6  728.63   33.10
   0   1  -6  752.82   33.00
   0  -1   6  681.73   32.40
   0  -1   6  751.32   33.30
  -1   1  -6   83.69    5.10
   1  -1   6   95.09    5.10
   1  -1   6   89.39    4.90
   1  -1   6   82.89    5.10
  -2   1  -6  337.67   17.50
   2  -1   6  381.96   17.20
   2  -1   6  347.17   17.60
   2  -1   6  386.36   17.20
  -3   1  -6  220.38   12.10
  -3   1  -6  226.88   11.70
   3  -1   6  220.88   11.60
   3  -1   6  250.57   11.70
   3  -1   6  251.87   11.50
   3  -1   6  236.98   12.20
  -4   1  -6  204.38   10.50
   4  -1   6  198.28   10.20
   4  -1   6  208.18   10.60
  -5   1  -6   31.20    3.00
  -5   1  -6   37.60    4.40
   5  -1   6   32.40    2.80
  -6   1  -6   38.70    5.00
  -6   1  -6   47.40    3.80
   6  -1   6   46.10    3.60
  -7   1  -6    6.60    1.50
   7  -1   6    4.70    1.20
  -8   1  -6    2.10    1.10
   8  -1   6    2.60    0.90
   8   0  -6    2.60    1.40
   8   0  -6    3.20    2.30
   7   0  -6    2.20    1.20
   7   0  -6    1.00    1.30
   6   0  -6    1.10    1.10
   6   0  -6   -0.40    0.70
  -6   0   6   -0.40    0.70
   5   0  -6   46.40    3.90
   5   0  -6   42.10    3.10
  -5   0   6   47.40    3.60
  -5   0   6   47.20    3.80
  -5   0   6   43.20    3.20
  -5   0   6   48.70    3.10
   4   0  -6    9.20    1.80
   4   0  -6    8.20    1.20
  -4   0   6   10.40    1.40
  -4   0   6    7.50    1.30
  -4   0   6    7.20    1.30
  -4   0   6    5.80    1.30
   3   0  -6   98.19    5.60
  -3   0   6   86.89    5.10
  -3   0   6   88.99    5.00
  -3   0   6   90.89    5.30
   2   0  -6    8.50    1.50
  -2   0   6   12.00    1.40
  -2   0   6   10.90    1.30
  -2   0   6    9.20    1.20
   1   0  -6  367.46   16.70
  -1   0   6  367.96   16.60
  -1   0   6  345.07   17.10
   0   0  -6  185.88    9.40
   0   0  -6  189.78    9.40
   0   0   6  186.88    9.20
   0   0   6  184.88    9.40
  -1   0  -6  152.38    7.80
   1   0   6  144.89    7.60
   1   0   6  139.99    7.40
  -2   0  -6   18.10    1.90
  -2   0  -6   15.80    2.20
  -2   0  -6   19.70    2.30
   2   0   6   12.90    1.70
   2   0   6   18.40    2.00
  -3   0  -6 1129.49   58.79
  -3   0  -6 1326.97   59.69
  -3   0  -6 1339.17   58.59
  -3   0  -6 1432.46   59.99
   3   0   6 1166.58   58.79
   3   0   6 1393.36   59.19
   3   0   6 1375.36   58.59
  -4   0  -6  158.88    9.90
  -4   0  -6  166.08    8.60
   4   0   6  169.28    8.60
   4   0   6  160.38    9.20
  -5   0  -6   86.29    5.50
  -5   0  -6   77.79    6.70
   5   0   6   90.49    5.40
  -6   0  -6   49.10    5.50
  -6   0  -6   55.79    4.20
   6   0   6   51.79    4.00
  -7   0  -6    6.10    1.50
   7   0   6    5.90    1.60
  -8   0  -6    0.90    0.90
   8   0   6   -0.20    0.80
   6  -1  -6   25.60    2.50
   6  -1  -6   24.30    3.00
   6  -1  -6   26.10    2.40
  -6   1   6   26.40    2.40
  -6   1   6   29.80    2.70
  -6   1   6   21.50    2.60
   5  -1  -6   11.10    2.00
   5  -1  -6   11.90    1.70
   5  -1  -6   10.70    1.50
  -5   1   6   13.60    2.40
  -5   1   6   10.50    1.80
  -5   1   6   13.30    1.70
  -5   1   6    8.80    1.60
   4  -1  -6  229.78   10.80
   4  -1  -6  181.48   10.40
   4  -1  -6  227.58   11.20
  -4   1   6  224.98   11.00
  -4   1   6  213.18   10.80
  -4   1   6  219.68   11.30
   3  -1  -6  286.07   14.10
   3  -1  -6  309.37   14.60
  -3   1   6  291.97   14.20
  -3   1   6  292.17   14.30
  -3   1   6  302.07   14.60
   2  -1  -6  951.50   40.30
   2  -1  -6  835.42   39.80
   2  -1  -6  881.01   40.00
  -2   1   6  873.81   40.20
   1  -1  -6  235.88   11.60
  -1   1   6  234.68   11.40
  -1   1   6  224.78   11.50
   0  -1  -6  725.93   34.90
   0   1   6  774.62   33.80
   0   1   6  715.13   33.40
  -1  -1  -6   97.39    5.70
   1   1   6   91.99    5.20
   1   1   6   74.29    4.60
  -2  -1  -6  392.76   18.60
  -2  -1  -6  406.56   18.80
  -2  -1  -6  367.96   17.90
   2   1   6  332.67   17.50
   2   1   6  382.36   18.20
  -3  -1  -6  266.97   13.70
  -3  -1  -6  260.67   12.90
  -3  -1  -6  253.97   13.50
   3   1   6  223.88   12.20
   3   1   6  263.27   13.20
  -4  -1  -6  216.58   10.90
  -4  -1  -6  216.98   12.50
   4   1   6  216.48   12.10
  -5  -1  -6   35.40    4.30
  -5  -1  -6   36.40    3.10
   5   1   6   33.90    3.10
  -6  -1  -6   47.70    3.70
  -6  -1  -6   44.60    5.30
   6   1   6   46.80    3.80
  -7  -1  -6    9.90    1.80
   7   1   6    9.60    1.80
  -8  -1  -6    1.60    1.10
   8   1   6    2.70    1.00
  -7   2   6    2.40    1.10
   6  -2  -6  183.18    9.10
  -6   2   6  175.38    8.80
  -6   2   6  151.88    9.00
   5  -2  -6   39.60    3.10
  -5   2   6   37.90    3.90
  -5   2   6   35.40    3.10
  -5   2   6   43.80    3.50
   4  -2  -6   14.30    2.30
   4  -2  -6   15.00    1.70
   4  -2  -6   10.10    1.90
   4  -2  -6   13.40    1.80
  -4   2   6   13.20    2.30
  -4   2   6   19.10    4.10
  -4   2   6   10.00    1.70
   3  -2  -6  164.58    8.80
   3  -2  -6  159.18    8.40
  -3   2   6  162.68    8.70
  -3   2   6  174.58    9.30
   2  -2  -6  273.47   13.50
   2  -2  -6  254.87   12.70
   2  -2  -6  275.67   13.40
  -2   2   6  245.88   12.80
  -2   2   6  267.47   13.40
   1  -2  -6  182.28    9.30
   1  -2  -6  184.38   10.10
   1  -2  -6  196.88    9.80
  -1   2   6  178.08    9.60
  -1   2   6  197.38    9.90
  -1   2   6  169.88    9.20
   0  -2  -6  626.94   28.80
   0  -2  -6  614.34   29.60
   0  -2  -6  662.83   29.40
   0   2   6  588.74   28.50
   0   2   6  635.44   29.00
  -1  -2  -6   63.19    4.70
  -1  -2  -6   63.09    4.80
  -1  -2  -6   61.79    4.10
   1   2   6   63.99    4.40
  -2  -2  -6  135.89    8.40
  -2  -2  -6  135.19    8.20
  -2  -2  -6  129.69    7.50
   2   2   6  140.79    8.00
   2   2   6  128.69    6.90
  -3  -2  -6    8.80    2.20
   3   2   6   15.60    2.70
  -4  -2  -6  316.87   17.50
  -5  -2  -6   11.10    4.40
  -6  -2  -6   22.00    4.40
   6   2   6   24.70    2.80
   7   2   6   27.70    2.70
   8   2   6    0.60    0.70
  -7   3   6   14.60    2.30
  -7   3   6   12.60    1.60
  -6   3   6   49.20    4.00
   5  -3  -6    5.00    1.30
  -5   3   6    3.60    1.30
   4  -3  -6   16.00    2.00
  -4   3   6   18.20    2.40
  -4   3   6   20.90    3.20
   3  -3  -6   66.39    4.30
  -3   3   6   73.39    5.60
   2  -3  -6  322.17   15.50
   2  -3  -6  345.97   17.50
   2  -3  -6  309.77   16.20
   2  -3  -6  316.27   15.80
  -2   3   6  339.57   16.90
   1  -3  -6  280.97   14.90
   1  -3  -6  280.47   14.30
   1  -3  -6  265.07   13.30
   1  -3  -6  269.57   13.70
  -1   3   6  302.37   14.70
  -1   3   6  275.57   14.40
  -1   3   6  276.47   13.80
   0  -3  -6  196.28   11.00
   0  -3  -6  222.98   11.80
   0  -3  -6  202.68   10.00
   0  -3  -6  204.78   10.50
   0   3   6  200.58   10.20
   0   3   6  186.08   10.50
  -1  -3  -6  220.08   11.20
  -1  -3  -6  241.88   12.00
  -1  -3  -6  241.88   13.20
  -1  -3  -6  233.88   12.60
   1   3   6  211.18   12.10
   1   3   6  218.48   11.30
   1   3   6  250.77   11.20
  -2  -3  -6  174.78    9.30
  -2  -3  -6  199.28   11.50
   2   3   6  191.18   10.80
  -3  -3  -6   45.40    4.80
  -4  -3  -6   88.69    7.50
  -5  -3  -6   30.70    4.50
   6   3   6    0.60    1.00
   7   3   6    6.00    1.30
  -7   4   6    4.70    0.90
  -6   4   6   45.80    3.70
   5  -4  -6   25.40    2.30
  -5   4   6   26.20    3.00
   4  -4  -6   81.39    5.10
  -4   4   6   83.09    5.90
   3  -4  -6   82.59    5.10
  -3   4   6   87.39    5.80
  -3   4   6   70.99    6.50
   2  -4  -6   42.60    4.10
   2  -4  -6   35.60    4.40
  -2   4   6   44.80    3.70
  -2   4   6   40.70    4.50
   1  -4  -6  151.78   10.40
   1  -4  -6  177.28    8.90
  -1   4   6  176.18    9.40
  -1   4   6  167.88   10.30
   0  -4  -6   58.29    3.70
   0  -4  -6   54.99    5.20
   0   4   6   48.20    4.60
   0   4   6   59.29    5.00
  -1  -4  -6   65.09    5.80
  -1  -4  -6   65.29    4.00
   1   4   6   56.29    3.70
   1   4   6   63.99    4.10
   1   4   6   52.99    5.30
  -2  -4  -6   30.90    2.60
  -2  -4  -6   26.00    3.90
  -3  -4  -6   49.40    5.60
  -4  -4  -6   22.10    3.70
   6   4   6    0.50    1.00
  -6   5   6   15.40    1.60
   5  -5  -6   26.90    2.20
  -5   5   6   30.50    3.00
   4  -5  -6   15.20    1.90
  -4   5   6   16.20    2.40
   3  -5  -6   25.10    2.80
  -3   5   6   23.50    2.90
   2  -5  -6    9.10    1.60
  -2   5   6   12.10    2.40
   1  -5  -6   77.19    7.00
   1  -5  -6   87.79    5.30
  -1   5   6   87.79    5.70
   0  -5  -6  158.08    8.10
   0  -5  -6  129.79   10.00
   0   5   6  160.78    8.60
  -1  -5  -6   86.39    5.10
  -1  -5  -6   79.29    7.20
  -2  -5  -6   57.49    3.70
  -2  -5  -6   56.49    5.80
   5   5   6    1.00    1.10
   4  -6  -6    0.70    0.70
  -4   6   6    4.20    1.30
   3  -6  -6   24.00    2.20
  -3   6   6   25.20    2.60
   2  -6  -6   21.30    2.10
  -2   6   6   20.30    2.40
   1  -6  -6    4.20    1.10
  -1   6   6    4.00    1.20
  -1   6   6    4.20    1.40
   0  -6  -6   35.70    2.70
  -1  -6  -6    6.60    1.30
  -2  -6  -6    1.20    0.80
   1  -7  -6    1.20    0.60
   0  -7  -6    8.40    1.20
  -2  -6   7   11.00    1.60
  -1  -6   7   27.10    2.50
   0  -6   7   13.30    1.90
   1  -6   7   10.40    1.70
  -2   6  -7    2.60    1.00
   2  -6   7    3.30    1.10
  -3   6  -7   11.70    1.50
   3  -6   7   14.80    1.70
   4  -6   7    0.40    0.60
   5   5  -7    1.50    0.90
   4   5  -7   -0.50    1.50
   4   5  -7    4.10    1.30
  -2  -5   7  113.59    6.60
  -1  -5   7   46.00    3.70
   0  -5   7   31.50    3.10
   1  -5   7   74.29    5.10
   2  -5   7    3.40    1.70
  -3   5  -7    6.50    1.60
   3  -5   7    8.20    1.70
  -4   5  -7   42.00    3.40
   4  -5   7   42.30    3.20
  -5   5  -7   32.30    3.30
   5  -5   7   36.90    2.40
   7   4  -7    0.00    0.60
   6   4  -7    0.00    1.10
   5   4  -7   13.70    2.70
   4   4  -7   42.60    4.00
   2   4  -7   39.50    3.50
   2   4  -7   43.00    3.30
  -2  -4   7   41.00    3.50
  -1  -4   7  103.69    7.80
   0  -4   7   24.20    3.50
   1  -4   7   72.59    5.10
   2  -4   7  219.58   11.70
   3  -4   7   11.50    1.90
  -4   4  -7   50.19    4.10
  -5   4  -7   49.99    4.50
   5  -4   7   46.80    4.00
  -6   4  -7    1.50    0.90
   7   3  -7    6.60    2.00
   6   3  -7  101.19    7.10
   5   3  -7   45.50    8.20
   4   3  -7  140.99    8.80
   3   3  -7   84.49    5.70
  -3  -3   7   70.49    4.70
  -3  -3   7   77.29    5.30
  -3  -3   7   73.89    5.10
   2   3  -7    8.50    1.80
  -2  -3   7    9.90    2.00
  -2  -3   7   10.00    2.00
   1   3  -7   44.50    3.30
   1   3  -7   47.70    3.60
  -1  -3   7   50.59    4.30
  -1  -3   7   49.90    4.00
   0   3  -7   52.29    3.90
   0   3  -7   57.09    3.70
   0  -3   7   57.39    4.40
   0  -3   7   54.49    3.90
   3  -3   7  150.88    8.50
  -4   3  -7   16.20    2.50
   4  -3   7   19.00    2.00
   4  -3   7   17.20    2.40
  -5   3  -7   76.49    5.20
   5  -3   7   68.49    4.40
  -6   3  -7    2.60    1.30
   6  -3   7    3.70    1.00
  -7   3  -7    5.60    1.40
   7  -3   7    3.40    0.90
   8   2  -7    0.50    0.80
   7   2  -7   40.70    4.20
   6   2  -7   39.00    4.30
   5   2  -7   29.20    3.70
   3   2  -7   13.90    2.40
  -3  -2   7   14.00    1.80
  -3  -2   7   16.50    2.00
   2   2  -7  112.69    6.60
  -2  -2   7  104.39    6.50
  -2  -2   7  116.89    6.20
   1   2  -7  278.37   14.90
   1   2  -7  326.87   15.50
  -1  -2   7  338.37   15.20
  -1  -2   7  319.97   15.70
   0   2  -7 1389.76   63.19
   0   2  -7 1303.67   60.89
   0  -2   7 1424.16   61.19
   0  -2   7 1341.67   61.69
  -1   2  -7  259.07   12.70
  -1   2  -7  268.17   13.10
   1  -2   7  260.37   13.50
   1  -2   7  263.07   12.90
  -2   2  -7    1.20    1.20
   2  -2   7    1.00    1.00
   2  -2   7    2.80    1.10
   3  -2   7   46.40    3.20
  -4   2  -7  168.38    9.00
   4  -2   7  153.08    8.80
   4  -2   7  162.88    8.50
  -5   2  -7   76.69    5.30
   5  -2   7   80.29    5.00
  -6   2  -7   54.79    6.00
  -6   2  -7   60.09    4.60
   6  -2   7   59.89    4.00
  -7   2  -7    3.90    1.30
   7  -2   7    4.00    1.10
  -8   2  -7    4.20    1.10
   8  -2   7    4.70    1.00
   8   1  -7    4.30    1.70
   7   1  -7    2.90    1.60
   6   1  -7  105.19    7.30
   5   1  -7  160.78    9.70
  -4  -1   7  182.78    9.60
  -4  -1   7  205.28   10.20
   3   1  -7  142.39    8.40
  -3  -1   7  152.08    7.60
  -3  -1   7  152.68    8.10
   2   1  -7  126.59    7.40
  -2  -1   7  132.19    6.80
  -2  -1   7  137.19    7.30
   1   1  -7   23.00    3.00
   1   1  -7   25.20    2.40
  -1  -1   7   25.20    2.30
  -1  -1   7   27.40    2.10
   0   1  -7  748.43   34.60
   0   1  -7  751.22   34.20
   0   1  -7  772.42   34.40
   0  -1   7  730.63   34.70
   0  -1   7  747.63   34.60
   0  -1   7  786.72   34.70
  -1   1  -7  104.09    6.10
  -1   1  -7  103.59    5.60
  -1   1  -7   89.49    5.90
   1  -1   7  106.59    5.70
   1  -1   7  108.49    6.00
   1  -1   7  102.49    6.00
  -2   1  -7   91.09    6.80
  -2   1  -7  101.69    5.90
   2  -1   7  114.09    6.40
   2  -1   7  101.69    5.50
   2  -1   7  108.99    6.00
   2  -1   7   99.69    5.70
  -3   1  -7   44.80    3.50
  -3   1  -7   39.60    3.80
   3  -1   7   47.50    3.20
   3  -1   7   46.90    3.40
   3  -1   7   58.39    4.60
   3  -1   7   48.90    3.90
  -4   1  -7   57.39    5.20
  -4   1  -7   52.79    3.90
   4  -1   7   56.99    4.40
   4  -1   7   57.29    3.80
  -5   1  -7   42.90    3.60
   5  -1   7   44.00    3.30
  -6   1  -7    4.00    2.20
  -6   1  -7    3.60    1.30
   6  -1   7    3.80    1.20
  -7   1  -7   18.20    2.30
   7  -1   7   22.10    2.30
  -8   1  -7    2.40    0.90
   8  -1   7    3.10    0.90
   8   0  -7   -1.00    0.90
   7   0  -7    2.80    1.70
   7   0  -7    5.60    1.80
   6   0  -7   38.80    3.90
   6   0  -7   45.40    3.50
   5   0  -7    0.70    1.00
  -5   0   7    1.20    1.90
  -5   0   7    1.00    0.80
  -5   0   7    0.50    0.80
   4   0  -7  428.76   20.00
  -4   0   7  424.66   18.90
  -4   0   7  379.66   19.20
  -4   0   7  390.06   19.30
   3   0  -7   20.00    2.00
   3   0  -7   20.00    2.30
  -3   0   7   19.30    1.90
  -3   0   7   18.10    1.90
  -3   0   7   20.30    1.80
   2   0  -7  162.48    8.50
   2   0  -7  168.88    8.90
  -2   0   7  173.48    8.70
  -2   0   7  168.78    8.30
  -2   0   7  166.68    8.40
   1   0  -7  864.81   38.70
   1   0  -7  785.22   36.40
   1   0  -7  797.62   36.40
  -1   0   7  786.52   36.30
  -1   0   7  791.02   37.00
  -1   0   7  781.42   37.40
  -1   0   7  844.82   36.30
   0   0  -7 1985.90   87.29
   0   0  -7 2027.00   87.39
   0   0  -7 1861.21   86.79
   0   0   7 2008.90   87.39
   0   0   7 1958.70   86.59
   0   0   7 1895.11   86.99
  -1   0  -7  189.88    9.50
  -1   0  -7  167.88    8.90
  -1   0  -7  183.08    9.50
   1   0   7  182.28    8.70
   1   0   7  151.98    8.90
   1   0   7  190.78    9.30
  -2   0  -7  170.98    9.00
  -2   0  -7  158.08    8.30
  -2   0  -7  158.58    8.80
   2   0   7  168.58    8.50
   2   0   7  140.79    8.20
   2   0   7  135.89   10.10
  -3   0  -7  100.09    5.50
  -3   0  -7   86.59    5.80
  -3   0  -7  102.69    6.70
  -3   0  -7  104.29    6.70
   3   0   7   97.19    5.60
   3   0   7  107.89    6.20
   3   0   7   91.09    5.90
  -4   0  -7    1.30    0.90
  -4   0  -7   -0.40    0.70
   4   0   7    1.50    1.00
   4   0   7    0.60    1.30
  -5   0  -7   50.59    3.90
  -5   0  -7   52.99    5.40
   5   0   7   49.90    3.80
  -6   0  -7   66.49    6.50
  -6   0  -7   67.69    4.90
   6   0   7   76.19    4.80
   7   0   7    6.40    1.60
  -8   0  -7    8.20    1.30
   8   0   7   10.70    1.60
   7  -1  -7   -1.40    0.90
   6  -1  -7   93.49    6.20
   6  -1  -7   90.69    5.50
  -6   1   7   86.09    5.20
  -6   1   7   99.39    6.10
   5  -1  -7  152.28    8.80
   5  -1  -7  157.78    8.30
  -5   1   7  156.38    8.00
  -5   1   7  140.99    9.00
  -5   1   7  161.48    8.60
   4  -1  -7  185.48    9.30
   4  -1  -7  177.48    9.70
   4  -1  -7  159.48    9.00
  -4   1   7  176.58    9.80
  -4   1   7  197.78    9.60
  -4   1   7  182.48    9.10
   3  -1  -7  146.79    8.00
   3  -1  -7  141.99    7.50
  -3   1   7  144.19    7.70
  -3   1   7  138.79    7.30
  -3   1   7  142.69    7.90
   2  -1  -7  140.19    7.40
   2  -1  -7  131.99    6.90
   2  -1  -7  121.69    6.90
  -2   1   7  128.19    6.70
  -2   1   7  133.59    7.10
  -2   1   7  131.59    7.20
   1  -1  -7   37.60    5.40
   1  -1  -7   26.60    2.30
   1  -1  -7   28.30    2.60
  -1   1   7   25.00    2.50
  -1   1   7   27.70    2.40
  -1   1   7   26.30    2.10
  -1   1   7   23.90    2.20
   0  -1  -7  785.22   35.50
   0  -1  -7  677.33   36.30
   0  -1  -7  789.42   35.70
   0   1   7  784.02   35.40
   0   1   7  807.12   34.60
   0   1   7  764.32   34.90
  -1  -1  -7  102.39    5.90
  -1  -1  -7  103.49    6.50
  -1  -1  -7  111.19    6.50
   1   1   7  107.29    5.50
   1   1   7   99.39    6.10
   1   1   7   95.89    5.70
  -2  -1  -7  117.19    7.20
  -2  -1  -7  114.19    7.10
  -2  -1  -7  110.99    6.50
   2   1   7  106.19    6.60
   2   1   7  101.59    6.10
   2   1   7  118.39    5.90
  -3  -1  -7   53.39    4.00
  -3  -1  -7   54.39    4.60
  -3  -1  -7   50.49    4.60
  -3  -1  -7   50.19    3.50
   3   1   7   51.09    4.20
   3   1   7   39.80    3.40
   3   1   7   50.89    3.60
  -4  -1  -7   52.09    3.70
  -4  -1  -7   51.29    4.90
  -5  -1  -7   47.10    3.60
  -5  -1  -7   48.60    6.30
   5   1   7   47.00    3.80
  -6  -1  -7    4.70    1.30
  -6  -1  -7    5.50    2.20
   6   1   7    4.20    1.30
  -7  -1  -7   19.30    2.30
   7   1   7   18.10    2.20
   8   1   7    2.70    1.00
  -7   2   7   44.80    3.10
  -6   2   7   35.80    2.90
  -6   2   7   39.70    3.40
   5  -2  -7   29.10    2.60
  -5   2   7   25.20    3.50
  -5   2   7   32.30    3.00
   4  -2  -7  114.59    6.70
   4  -2  -7  124.69    7.40
   4  -2  -7  128.49    6.90
  -4   2   7  132.89    7.40
  -4   2   7  130.19    8.00
   3  -2  -7   15.60    1.80
   3  -2  -7   13.10    2.00
  -3   2   7   15.00    1.90
  -3   2   7   11.30    2.00
   2  -2  -7  113.99    6.30
   2  -2  -7  113.59    6.90
   2  -2  -7  101.29    6.00
   2  -2  -7  126.69    6.90
  -2   2   7  105.59    6.30
  -2   2   7  116.79    7.00
   1  -2  -7  354.26   17.30
   1  -2  -7  337.97   16.30
   1  -2  -7  367.26   17.00
  -1   2   7  323.07   17.30
  -1   2   7  353.36   17.00
  -1   2   7  310.57   16.30
   0  -2  -7 1408.56   63.69
   0  -2  -7 1459.45   63.39
   0  -2  -7 1440.76   62.79
   0   2   7 1412.26   63.09
   0   2   7 1348.77   62.49
   0   2   7 1299.57   62.09
  -1  -2  -7  298.57   15.10
  -1  -2  -7  278.37   14.00
  -1  -2  -7  292.67   14.70
   1   2   7  244.88   13.40
   1   2   7  292.67   14.30
   1   2   7  278.87   13.20
  -2  -2  -7    1.30    1.10
  -2  -2  -7    1.00    1.10
   2   2   7    4.30    1.50
   2   2   7    3.20    1.00
   2   2   7    1.70    0.90
  -3  -2  -7   41.60    4.40
   3   2   7   45.90    4.40
  -4  -2  -7  177.28   11.40
  -5  -2  -7   86.29    7.50
  -6  -2  -7   53.69    6.30
   6   2   7   64.19    4.40
   7   2   7    2.10    0.90
   8   2   7    4.40    0.90
  -7   3   7    8.00    1.30
  -6   3   7  110.59    6.80
  -6   3   7  109.49    6.70
   5  -3  -7   56.29    3.80
  -5   3   7   61.79    5.60
   4  -3  -7  119.79    7.10
  -4   3   7  145.29    8.10
  -4   3   7  133.89    8.80
   3  -3  -7   79.59    4.80
  -3   3   7   80.49    5.40
  -3   3   7   75.09    6.10
   2  -3  -7    8.50    1.80
   2  -3  -7   12.30    2.60
   2  -3  -7   10.80    1.70
   2  -3  -7   10.00    1.70
  -2   3   7    7.40    1.70
  -2   3   7   11.20    2.40
   1  -3  -7   48.70    3.70
   1  -3  -7   45.00    4.10
   1  -3  -7   49.60    4.60
   1  -3  -7   49.60    3.40
  -1   3   7   38.30    3.80
  -1   3   7   54.19    3.80
  -1   3   7   53.69    4.50
   0  -3  -7   55.69    4.10
   0  -3  -7   58.09    4.60
   0  -3  -7   60.79    5.10
   0  -3  -7   56.69    3.60
   0   3   7   47.10    4.10
   0   3   7   53.09    3.50
   0   3   7   59.69    3.90
  -1  -3  -7   21.30    3.20
  -1  -3  -7   19.60    2.40
  -1  -3  -7   19.20    2.80
  -1  -3  -7   19.20    2.00
   1   3   7   21.10    3.10
   1   3   7   16.70    1.80
   1   3   7   19.60    2.00
  -2  -3  -7  121.99    6.70
  -2  -3  -7  130.99    8.80
   2   3   7  121.39    8.20
  -3  -3  -7  173.48   11.40
  -4  -3  -7   10.80    2.70
  -5  -3  -7   65.89    7.30
   6   3   7    3.90    1.30
   7   3   7    5.70    1.40
  -7   4   7    0.60    0.90
  -6   4   7    1.00    0.90
  -6   4   7    1.80    0.90
   5  -4  -7   13.30    1.70
  -5   4   7   10.60    1.90
   4  -4  -7   44.20    3.50
  -4   4   7   51.39    4.30
   3  -4  -7   60.09    4.30
  -3   4   7   67.59    5.00
   2  -4  -7   39.40    5.10
   2  -4  -7   51.49    3.70
  -2   4   7   54.89    4.30
  -2   4   7   45.20    5.00
   1  -4  -7   90.49    7.60
   1  -4  -7  111.89    6.20
  -1   4   7  109.49    7.80
  -1   4   7  117.09    6.80
   0  -4  -7   28.10    4.00
   0  -4  -7   23.60    3.70
   0   4   7   24.90    2.40
   0   4   7   26.80    3.60
   0   4   7   27.20    2.70
  -1  -4  -7   73.09    4.70
  -1  -4  -7   61.29    5.90
   1   4   7   70.49    5.90
   1   4   7   60.09    3.90
   1   4   7   62.79    4.30
  -2  -4  -7  208.18   13.40
  -2  -4  -7  219.88   10.80
  -3  -4  -7    8.20    2.40
  -4  -4  -7   54.89    5.90
   6   4   7    2.00    1.10
   5  -5  -7    1.90    0.80
  -5   5   7    1.30    1.00
  -5   5   7    0.40    0.80
   4  -5  -7    4.40    1.10
  -4   5   7    1.70    1.10
   3  -5  -7    6.70    1.30
  -3   5   7    8.60    1.90
   2  -5  -7  138.69    8.00
  -2   5   7  139.19    8.30
   1  -5  -7   42.20    5.10
   1  -5  -7   43.60    3.40
  -1   5   7   47.50    3.80
   0  -5  -7   28.90    2.60
   0  -5  -7   26.00    4.00
   0   5   7   29.40    2.90
   0   5   7   26.30    2.60
  -1  -5  -7   67.59    6.80
  -1  -5  -7   76.99    4.60
  -2  -5  -7    1.40    2.20
  -2  -5  -7    1.20    0.80
   5   5   7   34.10    2.60
   4  -6  -7   10.70    1.30
  -4   6   7    9.20    1.30
   3  -6  -7    4.00    1.00
  -3   6   7    3.40    1.60
  -3   6   7    4.20    1.20
   2  -6  -7   14.60    1.70
  -2   6   7   10.40    1.40
  -2   6   7   11.20    1.90
   1  -6  -7   25.60    2.30
  -1   6   7   21.40    2.40
  -1   6   7   22.50    3.20
   0  -6  -7   10.80    1.50
  -1  -6  -7    8.80    1.40
  -2  -6  -7    3.20    1.20
  -2  -6   8   11.20    1.40
  -1  -6   8    3.30    1.00
   0  -6   8    9.40    1.60
   1  -6   8   17.20    2.00
  -2   6  -8    1.50    0.90
   2  -6   8    2.80    0.90
  -3   6  -8    1.40    0.80
   3  -6   8    2.70    0.90
   5   5  -8    3.10    1.20
   4   5  -8    4.90    1.30
  -2  -5   8    0.30    1.00
  -1  -5   8   46.20    3.70
   0  -5   8   13.00    2.10
   1  -5   8   49.50    4.00
   2  -5   8   39.80    3.40
  -3   5  -8   20.10    2.50
   3  -5   8   25.60    2.60
  -4   5  -8   23.80    2.40
   4  -5   8   19.70    2.60
  -5   5  -8    2.80    1.00
   5  -5   8    4.60    0.90
   6   4  -8   24.30    2.20
   6   4  -8   20.30    2.80
   5   4  -8   28.80    2.60
   5   4  -8   17.60    3.20
   4   4  -8   30.70    3.50
   4   4  -8   31.40    2.90
   3   4  -8  149.29   11.90
   3   4  -8  170.58    8.90
   2   4  -8   63.89    5.00
   2   4  -8   63.49    4.30
  -2  -4   8   67.99    4.70
  -1  -4   8   37.80    3.50
   0  -4   8   51.39    4.20
   1  -4   8  129.19    7.70
   2  -4   8   34.80    3.50
   3  -4   8   20.40    2.50
  -4   4  -8   24.70    2.90
   4  -4   8   26.80    2.70
  -5   4  -8   11.60    2.00
   5  -4   8   17.80    2.50
   7   3  -8    5.40    1.30
   7   3  -8    6.80    1.90
   6   3  -8   37.30    4.00
   5   3  -8   14.20    2.70
   4   3  -8  109.09    7.30
   3   3  -8    3.20    1.50
  -3  -3   8    3.90    1.40
  -3  -3   8    2.40    1.20
  -3  -3   8    4.00    1.80
   2   3  -8   63.39    4.70
   2   3  -8   57.99    4.10
  -2  -3   8   67.99    5.00
  -2  -3   8   67.39    4.40
   1   3  -8   47.90    3.80
   1   3  -8   47.70    3.40
  -1  -3   8   46.80    4.10
  -1  -3   8   48.90    3.60
   0   3  -8   86.99    5.70
   0   3  -8   93.19    5.30
   0  -3   8   95.19    5.70
   0  -3   8   88.29    6.20
   3  -3   8   27.30    3.00
  -4   3  -8    4.10    1.50
   4  -3   8    4.20    1.30
  -5   3  -8    3.00    1.30
   5  -3   8    3.00    1.20
   5  -3   8   -0.20    1.00
  -6   3  -8    5.80    1.50
  -7   3  -8    3.40    1.00
   8   2  -8    3.70    0.90
   7   2  -8    1.60    1.30
   7   2  -8    4.50    1.30
   6   2  -8   11.40    2.30
   5   2  -8   22.70    3.40
   4   2  -8    8.20    2.10
  -4  -2   8    9.70    2.00
   3   2  -8   73.79    5.30
  -3  -2   8   74.19    5.00
  -3  -2   8   72.09    4.60
   2   2  -8    0.30    1.00
   2   2  -8    0.40    0.90
  -2  -2   8   -0.60    0.60
  -2  -2   8    1.00    0.80
   1   2  -8   13.50    1.70
   1   2  -8   19.40    2.20
  -1  -2   8   13.70    1.80
  -1  -2   8   15.20    2.10
   0   2  -8  327.77   16.00
   0   2  -8  306.17   15.40
   0  -2   8  309.77   16.20
   0  -2   8  348.97   15.70
  -1   2  -8  158.98    8.40
  -1   2  -8  152.08    8.80
   1  -2   8  170.08    9.30
   1  -2   8  165.58    9.50
  -2   2  -8   56.29    4.00
  -2   2  -8   54.69    4.30
   2  -2   8   52.19    4.40
   2  -2   8   54.69    3.90
   3  -2   8   69.99    5.00
  -4   2  -8    6.40    1.70
   4  -2   8    6.80    1.90
   4  -2   8    7.70    1.40
  -5   2  -8   42.10    5.00
  -5   2  -8   43.50    3.60
   5  -2   8   40.00    3.30
   5  -2   8   39.80    3.20
  -6   2  -8    4.30    1.50
   6  -2   8    5.50    1.40
  -7   2  -8    6.00    1.40
   8   1  -8    1.70    0.90
   7   1  -8    8.90    2.20
   7   1  -8    9.80    1.80
   6   1  -8   14.70    2.80
   6   1  -8   17.80    2.40
   4   1  -8  435.96   21.00
  -4  -1   8  410.86   20.40
  -4  -1   8  417.26   19.70
   3   1  -8   65.59    4.30
   3   1  -8   69.79    4.90
  -3  -1   8   69.19    4.60
  -3  -1   8   67.19    4.20
   2   1  -8  272.57   13.70
   2   1  -8  261.57   13.20
  -2  -1   8  267.57   13.60
  -2  -1   8  280.67   13.10
   1   1  -8   98.89    5.90
   1   1  -8   97.09    5.50
  -1  -1   8   91.89    5.30
  -1  -1   8   99.39    5.90
   0   1  -8   43.10    3.20
   0   1  -8   38.10    3.30
   0   1  -8   39.30    2.90
   0  -1   8   39.50    2.90
   0  -1   8   38.90    3.70
   0  -1   8   42.20    3.30
  -1   1  -8  260.07   12.60
  -1   1  -8  237.58   12.40
  -1   1  -8  210.38   11.80
   1  -1   8  241.68   14.70
   1  -1   8  257.37   12.00
   1  -1   8  245.48   12.40
  -2   1  -8  221.38   11.60
  -2   1  -8  191.38   11.20
  -2   1  -8  190.58   10.60
   2  -1   8  213.68   10.60
   2  -1   8  205.98   10.20
   2  -1   8  225.28   11.10
   2  -1   8  219.98   11.30
  -3   1  -8   37.10    3.30
  -3   1  -8   41.40    3.80
  -3   1  -8   43.80    4.20
   3  -1   8   43.50    3.80
   3  -1   8   38.60    3.20
   3  -1   8   39.90    3.00
   3  -1   8   49.10    3.80
  -4   1  -8   17.20    3.20
  -4   1  -8   22.60    2.30
   4  -1   8   21.50    2.20
  -5   1  -8   29.10    2.90
  -5   1  -8   29.30    4.20
   5  -1   8   27.50    2.60
  -6   1  -8   45.60    3.80
  -6   1  -8   49.70    5.90
   6  -1   8   47.70    3.60
  -7   1  -8    0.10    0.90
   7  -1   8   -0.70    0.70
  -8   1  -8    0.90    0.80
   8  -1   8    1.90    0.70
   8   0  -8    9.70    2.00
   7   0  -8    5.20    1.20
   7   0  -8    2.80    2.00
   6   0  -8  114.39    7.40
   6   0  -8  110.89    6.70
   5   0  -8    9.50    2.20
   5   0  -8    9.30    1.80
  -5   0   8    8.60    1.40
  -5   0   8    9.40    1.80
   4   0  -8   47.10    4.10
   4   0  -8   55.39    3.80
  -4   0   8   48.80    3.70
  -4   0   8   50.19    3.40
   3   0  -8  626.04   30.50
   3   0  -8  641.64   30.00
  -3   0   8  669.93   30.40
  -3   0   8  656.53   30.10
  -3   0   8  655.93   29.70
   2   0  -8   26.90    2.40
   2   0  -8   29.50    2.80
  -2   0   8   28.60    2.30
  -2   0   8   28.90    2.50
  -2   0   8   29.60    2.30
   1   0  -8  211.58   10.90
   1   0  -8  238.28   11.50
   1   0  -8  226.88   10.90
  -1   0   8  209.88   11.10
  -1   0   8  216.48   10.80
  -1   0   8  228.88   10.80
  -1   0   8  209.98   11.60
   0   0  -8  283.97   13.60
   0   0  -8  252.17   12.90
   0   0  -8  273.77   13.40
   0   0   8  280.57   14.00
   0   0   8  255.67   12.60
   0   0   8  246.78   13.00
  -1   0  -8  221.68   11.00
  -1   0  -8  218.68   11.60
  -1   0  -8  217.48   11.60
   1   0   8  228.58   11.20
   1   0   8  219.08   11.40
   1   0   8  204.88   10.60
  -2   0  -8  678.23   31.00
  -2   0  -8  660.03   31.00
  -2   0  -8  636.64   30.10
   2   0   8  667.53   30.40
   2   0   8  652.43   30.40
   2   0   8  601.54   29.60
  -3   0  -8   49.60    5.10
  -3   0  -8   60.99    3.90
  -3   0  -8   64.19    5.20
  -3   0  -8   57.49    4.90
   3   0   8   57.79    4.50
   3   0   8   63.49    4.50
   3   0   8   60.39    4.00
  -4   0  -8    0.20    1.30
  -4   0  -8    1.60    1.00
   4   0   8    0.00    0.90
  -5   0  -8   18.00    2.90
  -5   0  -8   30.70    4.10
   5   0   8   25.10    2.60
  -6   0  -8    3.90    1.20
  -6   0  -8    1.30    2.10
   6   0   8    3.40    1.10
  -7   0  -8   -0.30    0.90
   7   0   8   -0.30    0.60
   8   0   8    2.70    0.80
   7  -1  -8    5.30    1.50
   6  -1  -8   16.10    2.10
   6  -1  -8   13.20    2.40
  -6   1   8   15.50    2.20
  -6   1   8   13.50    1.70
   5  -1  -8  191.68   10.80
   5  -1  -8  203.68   10.20
  -5   1   8  186.68    9.80
  -5   1   8  194.38   12.70
  -5   1   8  199.18   10.40
   4  -1  -8  402.26   19.00
   4  -1  -8  369.56   18.60
   4  -1  -8  402.16   19.60
  -4   1   8  420.46   18.70
  -4   1   8  380.26   19.50
  -4   1   8  406.26   19.30
   3  -1  -8   68.39    4.70
   3  -1  -8   63.59    4.10
   3  -1  -8   67.49    4.30
  -3   1   8   61.59    4.50
  -3   1   8   66.39    4.10
  -3   1   8   66.89    4.40
   2  -1  -8  261.07   14.00
   2  -1  -8  268.87   13.20
   2  -1  -8  287.57   13.90
  -2   1   8  263.07   13.40
  -2   1   8  272.27   13.00
  -2   1   8  268.37   13.60
   1  -1  -8   98.19    5.60
   1  -1  -8   98.69    6.00
   1  -1  -8   97.09    6.10
  -1   1   8   92.29    6.10
  -1   1   8   96.79    5.30
  -1   1   8   98.39    5.60
  -1   1   8   94.19    5.80
   0  -1  -8   41.70    3.60
   0  -1  -8   40.80    3.10
   0  -1  -8   39.90    3.60
   0   1   8   45.80    3.20
   0   1   8   39.10    3.40
   0   1   8   37.00    2.80
  -1  -1  -8  261.17   13.40
  -1  -1  -8  273.27   13.70
  -1  -1  -8  264.57   12.80
   1   1   8  232.48   12.10
   1   1   8  243.88   12.50
   1   1   8  246.48   13.00
  -2  -1  -8  231.88   12.30
  -2  -1  -8  230.48   12.40
  -2  -1  -8  227.58   11.50
   2   1   8  193.78   11.10
   2   1   8  219.98   10.80
   2   1   8  216.58   11.70
  -3  -1  -8   46.80    4.40
  -3  -1  -8   40.60    3.60
  -3  -1  -8   47.00    4.50
   3   1   8   35.80    3.10
   3   1   8   41.80    4.00
   3   1   8   39.40    3.40
  -4  -1  -8   23.20    3.50
  -4  -1  -8   17.70    2.20
  -5  -1  -8   20.80    3.80
   5   1   8   28.20    2.90
  -6  -1  -8   44.80    5.40
   6   1   8   50.19    3.80
   7   1   8    1.00    0.80
   8   1   8    1.20    0.70
  -7   2   8    2.30    1.00
  -6   2   8   15.70    2.20
  -6   2   8   15.40    1.90
   5  -2  -8   20.70    2.30
   5  -2  -8   12.80    2.40
   5  -2  -8   17.70    2.10
  -5   2   8   23.00    2.30
  -5   2   8   18.50    2.30
   4  -2  -8    9.30    2.10
   4  -2  -8    9.90    1.70
   4  -2  -8   12.70    2.00
  -4   2   8    5.70    1.70
  -4   2   8    8.80    1.70
  -4   2   8    8.30    1.50
   3  -2  -8   67.49    5.00
   3  -2  -8   71.59    4.60
   3  -2  -8   61.79    4.30
  -3   2   8   74.29    4.80
  -3   2   8   72.49    4.40
  -3   2   8   71.79    5.30
   2  -2  -8   -0.40    0.80
   2  -2  -8    0.90    0.80
   2  -2  -8   -0.20    0.80
   2  -2  -8    5.00    1.30
  -2   2   8   -0.60    0.70
  -2   2   8   -0.20    0.80
  -2   2   8    1.40    0.80
   1  -2  -8   17.60    2.30
   1  -2  -8   16.10    2.00
   1  -2  -8   13.30    1.80
   1  -2  -8   15.70    2.40
  -1   2   8   17.00    2.00
  -1   2   8   17.00    1.90
  -1   2   8   18.00    2.50
  -1   2   8   18.30    2.50
   0  -2  -8  333.37   16.40
   0  -2  -8  322.07   15.90
   0  -2  -8  346.17   17.50
   0  -2  -8  346.17   17.20
   0   2   8  342.67   15.80
   0   2   8  321.67   16.80
   0   2   8  333.17   16.20
  -1  -2  -8  176.18   10.20
  -1  -2  -8  176.78    8.80
   1   2   8  170.48    8.60
   1   2   8  173.58    9.80
   1   2   8  161.48    8.90
  -2  -2  -8   55.49    4.30
  -2  -2  -8   57.09    5.00
  -2  -2  -8   55.49    5.20
  -2  -2  -8   55.29    3.80
   2   2   8   56.29    3.50
   2   2   8   54.29    3.80
   2   2   8   50.59    5.10
  -3  -2  -8   82.49    6.90
  -4  -2  -8    5.60    2.80
  -5  -2  -8   39.70    5.10
   6   2   8    5.90    1.50
   7   2   8    7.40    1.30
  -7   3   8    4.50    0.90
  -6   3   8   33.00    4.00
  -6   3   8   36.60    2.80
   5  -3  -8   19.10    2.00
  -5   3   8   17.80    2.20
   4  -3  -8   93.39    5.80
  -4   3   8  107.99    6.60
   3  -3  -8    2.70    1.30
   3  -3  -8    0.10    1.40
   3  -3  -8    5.50    1.40
  -3   3   8    1.30    1.50
  -3   3   8    2.40    1.10
   2  -3  -8   60.49    7.00
   2  -3  -8   58.99    5.20
   2  -3  -8   66.59    4.60
   2  -3  -8   68.99    4.30
  -2   3   8   63.99    5.50
  -2   3   8   67.29    4.70
   1  -3  -8   53.39    3.60
   1  -3  -8   53.29    4.60
   1  -3  -8   46.20    4.80
   1  -3  -8   53.19    4.00
  -1   3   8   51.79    3.60
  -1   3   8   55.89    4.80
  -1   3   8   53.19    3.90
   0  -3  -8   93.89    7.10
   0  -3  -8   93.19    5.50
   0  -3  -8   94.29    6.80
   0  -3  -8   92.29    6.00
   0   3   8   90.89    5.30
   0   3   8   94.29    6.60
   0   3   8  101.09    6.90
   0   3   8   96.09    5.80
  -1  -3  -8   39.10    4.30
  -1  -3  -8   48.90    3.40
  -1  -3  -8   45.00    4.70
  -1  -3  -8   47.50    4.00
   1   3   8   50.29    3.20
   1   3   8   55.89    6.30
   1   3   8   44.20    3.40
  -2  -3  -8  267.67   15.30
  -2  -3  -8  261.97   12.80
   2   3   8  253.77   14.40
  -3  -3  -8   28.10    5.90
  -4  -3  -8    2.20    2.00
   6   3   8    6.80    1.50
   7   3   8    5.80    1.00
  -6   4   8   22.30    2.10
  -6   4   8   25.10    2.70
   5  -4  -8   29.30    2.40
  -5   4   8   27.30    3.00
  -5   4   8   27.90    2.60
   4  -4  -8   35.40    3.00
  -4   4   8   37.40    3.50
   3  -4  -8  193.48    9.60
  -3   4   8  162.68   12.50
   2  -4  -8   74.09    4.70
   2  -4  -8   57.19    5.80
  -2   4   8   73.39    5.20
   1  -4  -8   35.00    4.50
   1  -4  -8   40.00    3.20
  -1   4   8   38.00    5.50
  -1   4   8   38.40    3.50
  -1   4   8   37.00    4.50
   0  -4  -8   50.19    5.30
   0  -4  -8   51.49    3.60
   0   4   8   47.50    5.00
   0   4   8   47.90    3.80
   0   4   8   44.30    3.30
  -1  -4  -8  113.09    8.80
  -1  -4  -8  124.79    6.60
   1   4   8  111.79    6.70
   1   4   8  112.19    6.20
   1   4   8  112.59    8.30
  -2  -4  -8   36.10    4.90
  -2  -4  -8   36.90    2.90
  -3  -4  -8   15.50    3.50
   6   4   8   -0.30    0.70
   5  -5  -8    6.90    1.00
  -5   5   8    6.20    1.70
   4  -5  -8    6.00    1.20
  -4   5   8    4.70    1.10
  -4   5   8    2.60    1.10
   3  -5  -8   25.50    2.50
  -3   5   8   25.10    2.80
  -3   5   8   25.90    2.50
   2  -5  -8    1.50    1.00
  -2   5   8    0.10    0.90
  -2   5   8    1.80    1.00
   1  -5  -8   46.10    3.50
   1  -5  -8   44.20    6.70
  -1   5   8   48.90    3.50
  -1   5   8   45.80    3.80
   0  -5  -8    9.50    1.60
   0   5   8   13.20    1.80
   0   5   8   13.20    2.20
  -1  -5  -8   39.90    6.30
  -1  -5  -8   50.69    3.50
  -2  -5  -8   38.40    2.80
   5   5   8    1.50    0.80
   3  -6  -8   13.40    1.50
  -3   6   8   10.50    1.40
   2  -6  -8   12.20    1.70
  -2   6   8    8.60    1.20
   1  -6  -8    3.20    1.00
  -1   6   8    3.30    1.20
   0  -6  -8   11.60    1.70
  -1  -6  -8   14.80    1.60
  -1  -6   9    6.10    1.10
   0  -6   9    1.60    0.90
   1  -6   9    4.20    1.10
  -2   6  -9    2.50    0.90
   2  -6   9    3.80    0.90
  -2  -5   9    5.90    1.60
  -1  -5   9   50.79    3.80
   0  -5   9    1.70    1.00
   1  -5   9   31.90    3.10
   2  -5   9    4.60    1.40
  -3   5  -9   11.10    1.80
   3  -5   9   15.00    1.90
  -4   5  -9    4.00    1.10
   4  -5   9    6.00    1.10
   6   4  -9    2.80    0.90
   5   4  -9    6.50    1.40
   5   4  -9    5.30    1.70
   4   4  -9   32.70    2.90
   4   4  -9   31.50    3.50
   3   4  -9   43.90    4.20
   3   4  -9   52.19    3.70
   2   4  -9   20.10    3.30
   2   4  -9   19.90    2.30
  -2  -4   9   23.10    2.70
  -1  -4   9   23.10    2.70
   0  -4   9   48.80    4.10
   1  -4   9   19.80    2.70
   2  -4   9  301.77   15.30
   3  -4   9   39.30    3.50
  -4   4  -9    5.70    1.50
   4  -4   9    9.00    1.60
  -5   4  -9    2.80    1.10
   5  -4   9    2.90    1.00
  -6   4  -9    2.40    0.90
   7   3  -9    4.60    1.10
   6   3  -9   25.00    3.10
   6   3  -9   21.30    2.40
   5   3  -9   36.10    3.90
   5   3  -9   36.90    3.30
   4   3  -9   34.60    3.90
   4   3  -9   37.20    3.30
   3   3  -9  112.29    6.40
   3   3  -9  108.09    7.00
  -3  -3   9   96.99    6.60
  -3  -3   9   91.09    7.40
   2   3  -9   45.70    3.50
   2   3  -9   50.19    4.10
  -2  -3   9   46.00    4.20
  -2  -3   9   45.00    3.70
   1   3  -9   39.30    3.60
   1   3  -9   41.90    3.20
  -1  -3   9   38.50    3.80
  -1  -3   9   38.50    3.30
   0   3  -9   65.09    7.00
   0   3  -9   77.59    4.80
   0  -3   9   79.49    5.20
   0  -3   9   80.69    5.80
  -1   3  -9   76.49    5.70
   1  -3   9   80.79    5.20
   3  -3   9  171.58    9.50
  -4   3  -9   41.20    5.60
  -4   3  -9   36.30    3.40
   4  -3   9   40.30    3.50
  -5   3  -9    2.00    1.50
   5  -3   9    0.80    1.20
  -6   3  -9    8.10    1.70
   7   2  -9    5.70    1.50
   7   2  -9   11.20    1.70
   6   2  -9   13.40    2.40
   5   2  -9  278.57   15.40
   5   2  -9  291.87   14.60
   4   2  -9  194.38   11.30
   4   2  -9  204.98   10.60
  -4  -2   9  179.78   10.00
  -4  -2   9  205.88   10.80
   3   2  -9   33.60    3.00
   3   2  -9   35.00    3.50
  -3  -2   9   33.30    2.90
  -3  -2   9   33.60    3.30
   2   2  -9    0.70    0.90
   2   2  -9    1.20    1.10
  -2  -2   9    0.00    0.70
  -2  -2   9    0.20    0.70
   1   2  -9   79.29    5.00
   1   2  -9   88.39    5.70
  -1  -2   9   85.49    5.20
  -1  -2   9   82.99    5.70
   0   2  -9   82.99    5.50
   0  -2   9   78.79    5.00
   0  -2   9   81.29    5.70
  -1   2  -9  150.78    8.20
  -1   2  -9  151.98    8.80
  -1   2  -9  146.59    8.80
   1  -2   9  154.58    9.00
   1  -2   9  156.08    8.30
  -2   2  -9  119.99    7.70
  -2   2  -9  125.59    8.20
   2  -2   9  137.29    8.20
   2  -2   9  128.19    7.30
  -3   2  -9  108.39    7.80
  -4   2  -9   53.09    4.00
  -4   2  -9   49.00    5.40
   4  -2   9   51.49    3.50
   4  -2   9   43.80    3.80
  -5   2  -9   11.20    2.10
  -5   2  -9    7.40    2.80
   5  -2   9   10.50    1.70
   5  -2   9   11.40    1.70
  -6   2  -9   25.50    2.60
   6  -2   9   26.50    2.30
  -7   2  -9    2.20    1.00
   7  -2   9    4.10    1.00
   8   1  -9    1.90    1.00
   7   1  -9   14.20    2.40
   7   1  -9   19.40    2.20
   6   1  -9    7.50    2.20
   6   1  -9   11.60    2.10
   5   1  -9    6.80    2.00
   5   1  -9    9.00    1.80
  -5  -1   9    0.50    1.10
   4   1  -9  175.08   10.50
   4   1  -9  192.68   10.00
  -4  -1   9  171.58    9.40
  -4  -1   9  196.68   10.20
   3   1  -9  399.26   19.70
   3   1  -9  392.86   19.00
  -3  -1   9  407.56   18.70
  -3  -1   9  376.66   20.90
   2   1  -9   20.60    2.50
   2   1  -9   20.50    2.20
  -2  -1   9   21.80    2.50
  -2  -1   9   22.10    2.10
   1   1  -9   61.99    4.60
   1   1  -9   59.49    4.10
  -1  -1   9   70.89    5.30
  -1  -1   9   64.39    4.50
   0   1  -9   19.00    2.30
   0   1  -9   19.10    2.50
   0   1  -9   20.90    2.10
   0  -1   9   19.10    1.70
   0  -1   9   21.00    2.20
   0  -1   9   18.50    2.30
  -1   1  -9   19.30    2.40
  -1   1  -9   20.30    2.60
  -1   1  -9   15.00    2.00
   1  -1   9   18.70    2.30
   1  -1   9   19.40    2.20
   1  -1   9   19.20    2.50
  -2   1  -9  110.49    7.30
  -2   1  -9  110.39    7.20
   2  -1   9  108.69    6.90
   2  -1   9  114.19    6.40
   2  -1   9  104.49    5.90
   2  -1   9  113.19    6.90
  -3   1  -9  182.58   13.30
  -3   1  -9  196.58   11.10
  -3   1  -9  216.58   12.40
   3  -1   9  236.68   12.00
   3  -1   9  203.38   10.90
   3  -1   9  209.78   11.80
   3  -1   9  226.78   10.70
  -4   1  -9   45.30    3.60
   4  -1   9   46.80    3.40
  -5   1  -9   33.10    4.60
  -5   1  -9   34.10    3.10
   5  -1   9   31.00    2.80
  -6   1  -9    9.20    2.00
   6  -1   9    9.30    1.80
  -7   1  -9   17.80    2.10
   7  -1   9   18.10    1.90
   7   0  -9    0.10    1.20
   7   0  -9    0.70    0.90
   6   0  -9   17.60    2.80
   6   0  -9   18.20    2.30
   5   0  -9    7.90    2.10
   5   0  -9    4.70    1.50
  -5   0   9    5.70    1.50
  -5   0   9    6.80    1.30
   4   0  -9  234.78   12.80
   4   0  -9  241.78   12.20
  -4   0   9  238.98   12.40
  -4   0   9  232.58   11.70
   3   0  -9   16.30    2.00
   3   0  -9   12.20    2.20
  -3   0   9   12.70    1.80
  -3   0   9   13.90    1.70
   2   0  -9   67.39    4.30
   2   0  -9   62.39    4.70
  -2   0   9   70.39    4.60
  -2   0   9   61.29    4.00
  -2   0   9   66.89    4.10
   1   0  -9   -0.10    0.80
   1   0  -9    0.10    1.00
   1   0  -9    0.90    0.90
  -1   0   9   -0.40    0.60
  -1   0   9    1.10    1.20
  -1   0   9    0.50    0.70
  -1   0   9    0.60    0.60
   0   0  -9  116.09    6.60
   0   0  -9  122.89    7.20
   0   0  -9  113.69    7.00
   0   0   9  113.49    7.20
   0   0   9  119.09    6.30
   0   0   9  110.59    6.70
  -1   0  -9  174.98    9.30
  -1   0  -9  181.28   10.00
  -1   0  -9  185.48   10.10
   1   0   9  172.48    9.00
   1   0   9  174.68    9.50
   1   0   9  162.68    9.70
  -2   0  -9  999.50   47.40
  -2   0  -9 1070.49   48.50
  -2   0  -9 1056.99   48.30
   2   0   9 1033.70   47.80
   2   0   9 1037.90   47.70
   2   0   9 1031.40   48.10
  -3   0  -9   71.69    5.70
  -3   0  -9   66.49    4.90
  -3   0  -9   66.59    5.70
  -3   0  -9   65.59    4.30
   3   0   9   70.59    5.00
   3   0   9   66.19    5.10
   3   0   9   63.69    4.40
  -4   0  -9  107.49    8.10
  -4   0  -9  108.79    6.30
   4   0   9  106.79    6.30
  -5   0  -9    2.30    1.90
  -5   0  -9   -0.20    1.00
   5   0   9   -0.50    0.70
  -6   0  -9   14.00    2.10
   6   0   9   17.70    2.10
  -7   0  -9   -0.10    1.00
   7   0   9    0.30    0.70
   7  -1  -9   16.10    2.10
   6  -1  -9    6.60    1.90
   6  -1  -9    9.00    1.60
  -6   1   9    9.50    1.80
  -6   1   9   10.60    1.60
   5  -1  -9    9.70    1.90
   5  -1  -9    8.30    2.10
  -5   1   9    9.30    1.50
  -5   1   9    8.40    1.60
   4  -1  -9  166.48    9.90
   4  -1  -9  185.18    9.40
  -4   1   9  187.58    9.70
  -4   1   9  173.08    9.00
  -4   1   9  157.48    9.80
   3  -1  -9  396.76   19.20
   3  -1  -9  332.67   18.00
   3  -1  -9  398.26   18.50
  -3   1   9  391.26   18.70
  -3   1   9  373.46   18.80
  -3   1   9  403.96   18.10
   2  -1  -9   22.00    2.70
   2  -1  -9   20.70    2.20
   2  -1  -9   20.10    2.20
   2  -1  -9   17.70    2.50
  -2   1   9   22.30    2.10
  -2   1   9   23.00    2.40
  -2   1   9   20.30    2.50
   1  -1  -9   70.19    5.00
   1  -1  -9   62.99    4.80
   1  -1  -9   63.49    4.50
  -1   1   9   65.39    4.40
  -1   1   9   65.19    4.50
  -1   1   9   62.59    4.90
   0  -1  -9   20.20    2.30
   0  -1  -9   19.30    2.50
   0  -1  -9   18.70    2.50
   0  -1  -9   18.90    2.00
   0   1   9   18.30    2.00
   0   1   9   19.50    2.60
   0   1   9   24.30    2.40
  -1  -1  -9   20.50    2.40
  -1  -1  -9   19.50    2.70
  -1  -1  -9   18.30    2.90
   1   1   9   19.00    2.00
   1   1   9   18.50    2.20
   1   1   9   21.80    2.70
  -2  -1  -9  118.39    7.90
  -2  -1  -9  125.69    7.90
  -2  -1  -9  110.69    7.00
   2   1   9  107.79    6.70
   2   1   9  112.59    6.30
   2   1   9  112.89    7.30
  -3  -1  -9  226.68   13.30
  -3  -1  -9  234.58   12.10
  -3  -1  -9  213.48   12.90
   3   1   9  221.48   11.20
   3   1   9  216.48   11.70
  -4  -1  -9   60.39    7.20
  -5  -1  -9   33.50    4.70
   5   1   9   39.20    3.30
   6   1   9   11.00    1.90
   7   1   9   17.80    2.00
  -6   2   9   24.80    2.60
  -6   2   9   20.10    2.10
   5  -2  -9  238.28   13.60
   5  -2  -9  257.07   12.90
  -5   2   9  268.67   12.80
  -5   2   9  271.17   13.50
   4  -2  -9  184.48   10.90
   4  -2  -9  217.98   11.00
   4  -2  -9  180.58    9.90
  -4   2   9  178.48   11.20
  -4   2   9  193.68   10.00
  -4   2   9  216.78   10.80
   3  -2  -9   32.40    3.50
   3  -2  -9   31.10    2.80
   3  -2  -9   33.10    3.00
  -3   2   9   32.70    2.80
  -3   2   9   35.90    3.80
  -3   2   9   34.80    3.20
   2  -2  -9    0.70    1.00
   2  -2  -9   -0.60    0.80
   2  -2  -9    1.30    1.00
   2  -2  -9   -0.70    0.90
  -2   2   9    1.20    1.10
  -2   2   9    0.80    0.80
  -2   2   9    5.10    1.30
   1  -2  -9   89.09    6.20
   1  -2  -9   89.79    5.50
   1  -2  -9   87.49    5.20
   1  -2  -9   72.49    7.80
  -1   2   9   85.99    6.10
  -1   2   9   83.99    5.60
  -1   2   9   85.79    5.00
   0  -2  -9   83.99    5.10
   0  -2  -9   83.89    5.50
   0  -2  -9   85.09    6.40
   0  -2  -9   90.89    6.30
   0   2   9   86.09    5.40
   0   2   9   79.89    4.90
   0   2   9   76.69    7.20
  -1  -2  -9  163.48    9.10
  -1  -2  -9  157.48   10.10
  -1  -2  -9  169.88   11.10
  -1  -2  -9  169.48    8.50
   1   2   9  158.98    8.80
   1   2   9  149.49    8.20
   1   2   9  151.58    9.50
  -2  -2  -9  135.49    7.30
  -2  -2  -9  133.49    8.90
  -2  -2  -9  135.19    8.10
  -2  -2  -9  128.79    9.10
   2   2   9  131.79    7.10
   2   2   9  133.59    7.60
  -3  -2  -9  137.09    9.70
  -4  -2  -9   61.09    6.20
  -5  -2  -9    6.70    2.50
   6   2   9   27.60    2.70
   7   2   9    2.30    1.00
  -6   3   9   19.60    2.30
  -6   3   9   18.00    1.90
   5  -3  -9   30.00    2.50
  -5   3   9   34.00    2.80
  -5   3   9   35.40    3.30
   4  -3  -9   36.30    3.00
  -4   3   9   37.10    3.60
  -4   3   9   35.30    3.10
   3  -3  -9  110.69    6.30
   3  -3  -9   90.59    6.90
  -3   3   9  106.29   10.10
  -3   3   9  110.29    6.80
  -3   3   9  109.59    6.30
   2  -3  -9   45.40    4.60
   2  -3  -9   46.00    4.50
   2  -3  -9   47.70    3.90
   2  -3  -9   50.99    3.80
  -2   3   9   50.59    4.10
  -2   3   9   61.79    5.20
  -2   3   9   51.49    3.70
   1  -3  -9   29.90    4.50
   1  -3  -9   41.10    4.20
   1  -3  -9   40.40    3.60
   1  -3  -9   38.20    4.30
  -1   3   9   47.30    3.30
  -1   3   9   42.10    4.40
  -1   3   9   46.80    3.70
   0  -3  -9   81.09    5.00
   0  -3  -9   72.29    6.00
   0  -3  -9   80.49    5.50
   0  -3  -9   70.69    6.40
   0   3   9   78.29    4.70
   0   3   9   82.09    6.30
   0   3   9   85.19    5.30
  -1  -3  -9   70.09    6.40
  -1  -3  -9   81.09    6.30
  -1  -3  -9   73.49    5.40
  -1  -3  -9   82.29    6.20
   1   3   9   68.89    4.80
   1   3   9   71.49    4.50
  -2  -3  -9    5.20    1.30
   2   3   9    1.30    1.70
  -3  -3  -9  170.78   11.60
   6   3   9    5.90    1.20
  -6   4   9    4.50    0.90
   5  -4  -9    9.60    1.40
  -5   4   9    7.10    1.40
  -5   4   9    9.90    1.60
   4  -4  -9   30.20    2.70
  -4   4   9   30.90    2.70
  -4   4   9   29.80    3.10
  -3   4   9   54.49    4.10
  -3   4   9   62.59    4.80
   2  -4  -9   23.10    4.00
   2  -4  -9   24.50    2.60
  -2   4   9   25.40    4.80
  -2   4   9   25.00    2.60
   1  -4  -9   25.10    2.50
   1  -4  -9   17.70    3.50
  -1   4   9   22.80    2.70
  -1   4   9   22.00    2.40
   0  -4  -9   43.10    5.10
   0  -4  -9   52.29    3.70
   0   4   9   53.29    4.10
   0   4   9   51.29    3.50
  -1  -4  -9   23.80    2.40
  -1  -4  -9   29.30    4.90
   1   4   9   18.40    2.10
   1   4   9   23.30    2.80
  -2  -4  -9  295.67   14.00
  -2  -4  -9  276.27   16.90
  -3  -4  -9   36.80    5.30
   5   4   9    3.30    1.20
   6   4   9    1.80    0.70
   5  -5  -9    0.10    0.50
  -5   5   9   -0.60    0.50
   4  -5  -9   -0.10    0.70
  -4   5   9    0.00    0.70
  -4   5   9    0.60    1.00
   3  -5  -9   12.10    1.70
  -3   5   9   12.70    1.80
  -3   5   9   14.30    2.10
   2  -5  -9    4.70    1.20
  -2   5   9    6.30    1.30
  -2   5   9    4.70    1.40
   1  -5  -9   47.80    3.50
  -1   5   9   47.00    3.80
  -1   5   9   49.80    3.50
   0  -5  -9    2.10    0.90
   0   5   9    0.80    1.70
   0   5   9    2.10    1.20
  -1  -5  -9   26.80    2.40
  -2  -5  -9    4.80    1.10
   2  -6  -9    5.90    1.00
  -2   6   9    4.00    1.00
   1  -6  -9    4.30    0.90
   0  -6  -9    1.30    0.60
  -1  -6  -9    2.50    0.80
  -1  -6  10    9.90    1.20
   0  -6  10   19.00    1.70
  -1   6 -10    4.50    1.10
   1  -6  10    5.80    1.10
  -2  -5  10   18.50    2.00
  -1  -5  10    9.10    1.70
   0  -5  10   -0.50    0.80
   1  -5  10   18.70    2.30
   2  -5  10    7.40    1.30
  -3   5 -10   16.90    2.00
   3  -5  10   19.30    2.00
  -4   5 -10    1.00    0.80
   4  -5  10    2.20    0.80
   5   4 -10    4.10    1.20
   5   4 -10    3.00    1.50
   4   4 -10    7.00    1.90
   4   4 -10    4.70    1.20
   3   4 -10   38.00    3.10
   3   4 -10   34.00    3.80
   2   4 -10   99.19    5.80
   2   4 -10   90.59    6.60
  -2  -4  10   96.79    5.90
  -1  -4  10   12.90    2.30
   0  -4  10   27.60    3.10
   1  -4  10  131.19    7.80
   2  -4  10   33.20    3.30
   3  -4  10   31.70    2.90
  -4   4 -10    0.70    0.90
   4  -4  10    0.60    0.90
  -5   4 -10    3.00    1.10
   5  -4  10    4.90    1.10
   6   3 -10    9.90    1.90
   6   3 -10   15.80    1.90
   5   3 -10    8.80    2.20
   5   3 -10   10.60    1.90
   4   3 -10   17.20    2.90
   4   3 -10   14.80    2.20
   3   3 -10   16.00    3.40
   3   3 -10   30.80    2.80
  -3  -3  10   27.40    4.60
  -3  -3  10   23.10    2.60
   2   3 -10   29.00    2.80
   2   3 -10   30.40    3.30
  -2  -3  10   29.10    2.90
  -2  -3  10   26.40    3.20
   1   3 -10   47.00    3.70
   1   3 -10   47.40    4.30
  -1  -3  10   50.69    4.50
   0   3 -10    7.30    1.60
   0   3 -10    6.40    1.80
   0  -3  10    4.40    1.50
   0  -3  10    3.90    1.70
  -2   3 -10  185.98   14.70
  -3   3 -10    4.10    2.90
   3  -3  10    1.10    1.10
  -4   3 -10    5.20    1.50
   4  -3  10    9.10    1.60
  -5   3 -10    2.10    1.10
   5  -3  10    3.90    1.30
  -6   3 -10    0.30    0.80
   7   2 -10    0.40    1.20
   7   2 -10    0.90    0.90
   6   2 -10    2.70    2.30
   6   2 -10    4.60    1.50
   5   2 -10    3.20    1.30
   5   2 -10    2.80    1.50
   4   2 -10   75.59    5.10
   4   2 -10   80.59    5.90
  -4  -2  10   69.29    5.30
  -4  -2  10   70.19    4.70
   3   2 -10   79.79    5.90
  -3  -2  10   73.99    5.00
  -3  -2  10   77.39    5.60
   2   2 -10   32.70    3.40
   2   2 -10   34.40    3.00
  -2  -2  10   27.90    3.20
  -2  -2  10   30.60    2.80
   1   2 -10   68.29    5.10
   1   2 -10   62.59    4.40
  -1  -2  10   63.79    4.50
  -1  -2  10   70.19    5.20
   0   2 -10   51.09    4.20
   0   2 -10   40.90    3.50
   0  -2  10   51.09    3.70
   0  -2  10   49.00    4.30
  -1   2 -10   13.90    2.50
  -1   2 -10   11.40    1.90
  -1   2 -10   14.10    2.50
   1  -2  10    9.50    1.70
   1  -2  10   13.30    2.40
  -2   2 -10    2.90    1.50
  -2   2 -10    2.00    1.70
  -2   2 -10    2.90    1.30
   2  -2  10    4.80    1.70
   2  -2  10    3.80    1.40
  -3   2 -10  162.78   10.50
  -4   2 -10   22.30    3.70
  -4   2 -10   28.10    2.80
   4  -2  10   30.60    2.80
  -5   2 -10   18.30    2.40
   5  -2  10   17.10    2.30
  -6   2 -10    2.90    1.10
   6  -2  10    4.20    1.10
  -7   2 -10    1.50    0.80
   7   1 -10    3.10    1.50
   7   1 -10    2.70    1.10
   6   1 -10   18.80    2.90
   6   1 -10   11.70    2.40
   4   1 -10  190.48   11.20
   4   1 -10  202.28   10.50
  -4  -1  10  185.68   10.10
  -4  -1  10  200.68   10.80
   3   1 -10  296.37   16.00
   3   1 -10  318.97   15.40
  -3  -1  10  310.47   15.90
  -3  -1  10  306.17   15.00
   2   1 -10   50.39    3.80
   2   1 -10   46.80    4.20
  -2  -1  10   55.89    4.30
  -2  -1  10   51.19    3.70
   1   1 -10   33.40    3.90
   1   1 -10   31.50    2.90
  -1  -1  10   31.60    2.80
  -1  -1  10   31.20    3.10
   0   1 -10    6.20    1.50
   0   1 -10    6.10    1.80
   0  -1  10    6.80    1.50
   0  -1  10    5.80    1.50
  -1   1 -10  150.98    9.40
  -1   1 -10  163.48    8.90
  -1   1 -10  172.18    9.80
   1  -1  10  154.68    9.60
   1  -1  10  158.78    9.40
   1  -1  10  178.48    8.90
  -2   1 -10  284.17   15.90
  -2   1 -10  279.67   14.90
  -2   1 -10  287.87   15.70
   2  -1  10  313.87   15.70
   2  -1  10  314.07   14.80
  -3   1 -10  157.78    9.00
  -3   1 -10  163.98    8.70
  -3   1 -10  142.79   10.00
  -3   1 -10  150.58    9.70
   3  -1  10  165.78    9.60
   3  -1  10  159.68    8.30
   3  -1  10  162.08    8.80
  -4   1 -10   42.90    3.50
  -4   1 -10   40.10    5.00
   4  -1  10   43.90    3.30
  -5   1 -10    4.90    2.30
  -5   1 -10    5.80    1.40
   5  -1  10    5.80    1.30
  -6   1 -10   16.00    2.10
   6  -1  10   18.00    2.00
  -7   1 -10    0.90    0.90
   7  -1  10    0.10    0.70
   7   0 -10    1.50    1.90
   7   0 -10    3.00    1.40
   6   0 -10   -0.20    0.90
   6   0 -10    0.60    1.10
   5   0 -10    5.00    1.80
   5   0 -10    6.00    1.60
  -5   0  10    3.80    1.40
  -5   0  10    4.00    1.10
   4   0 -10  245.88   12.70
   4   0 -10  247.28   13.30
  -4   0  10  219.28   13.00
  -4   0  10  247.08   12.80
   3   0 -10   29.90    2.90
   3   0 -10   35.70    3.60
  -3   0  10   28.20    3.00
  -3   0  10   35.00    2.80
   2   0 -10   93.99    5.80
   2   0 -10   93.89    6.40
  -2   0  10   94.59    5.50
  -2   0  10   95.09    6.10
   1   0 -10    0.20    0.80
   1   0 -10   -1.20    0.80
  -1   0  10    1.60    0.90
  -1   0  10    0.60    0.80
  -1   0  10    0.90    0.70
   0   0 -10  214.28   10.90
   0   0 -10  200.78   11.50
   0   0 -10  183.38   11.00
   0   0  10  206.48   11.10
   0   0  10  218.48   12.60
   0   0  10  214.88   10.50
  -1   0 -10   13.70    2.40
  -1   0 -10   13.50    2.50
  -1   0 -10   16.40    2.50
   1   0  10   13.60    2.10
   1   0  10   17.00    2.00
   1   0  10   17.20    2.70
  -2   0 -10   98.39    6.90
  -2   0 -10   90.59    6.90
  -2   0 -10   95.49    6.10
   2   0  10   99.59    6.40
   2   0  10   87.79    5.60
  -3   0 -10  197.48   10.80
  -3   0 -10  193.38   11.70
  -3   0 -10  187.88   11.90
  -3   0 -10  192.68   10.00
   3   0  10  198.38   11.00
   3   0  10  190.18   10.10
  -4   0 -10   73.39    6.70
  -4   0 -10   72.49    4.90
   4   0  10   78.69    4.90
  -5   0 -10   -1.40    1.90
  -5   0 -10   -0.70    1.00
   5   0  10   -0.70    0.70
  -6   0 -10    0.00    1.10
   6   0  10    0.00    0.70
   7   0  10   21.70    2.00
   6  -1 -10   14.20    2.00
  -6   1  10   11.70    2.00
  -6   1  10    9.70    1.50
   5  -1 -10   20.20    2.40
   5  -1 -10   15.40    2.60
  -5   1  10   20.70    2.50
  -5   1  10   18.70    2.10
   4  -1 -10  184.48   11.00
   4  -1 -10  199.88   10.40
  -4   1  10  188.28   10.00
  -4   1  10  206.48   10.70
   3  -1 -10  301.07   15.80
   3  -1 -10  309.37   15.00
  -3   1  10  308.87   15.20
  -3   1  10  271.57   15.20
  -3   1  10  304.87   14.60
   2  -1 -10   52.39    4.50
   2  -1 -10   55.69    4.00
   2  -1 -10   49.80    3.70
  -2   1  10   49.60    3.50
  -2   1  10   54.79    4.10
  -2   1  10   48.80    4.10
   1  -1 -10   34.50    3.10
   1  -1 -10   31.30    2.80
   1  -1 -10   32.60    3.40
   1  -1 -10   23.80    3.00
  -1   1  10   29.90    3.80
  -1   1  10   31.80    3.10
  -1   1  10   30.10    3.00
  -1   1  10   34.00    2.70
   0  -1 -10    5.90    1.50
   0  -1 -10    5.10    2.20
   0  -1 -10    7.20    1.80
   0  -1 -10    7.10    1.50
   0   1  10    3.60    1.50
   0   1  10    8.20    2.00
   0   1  10    7.70    1.50
  -1  -1 -10  159.88    9.30
  -1  -1 -10  180.68   10.30
  -1  -1 -10  157.58   10.10
   1   1  10  164.98    9.90
   1   1  10  161.58   10.50
   1   1  10  168.68    8.70
  -2  -1 -10  308.57   16.60
  -2  -1 -10  306.17   15.60
  -2  -1 -10  309.47   16.80
   2   1  10  288.17   14.80
   2   1  10  303.97   15.50
  -3  -1 -10  164.08   10.70
  -3  -1 -10  173.28    9.60
  -3  -1 -10  164.98   10.50
   3   1  10  156.68    8.50
   3   1  10  152.48    9.10
  -4  -1 -10   42.60    5.00
  -5  -1 -10    6.10    2.70
   5   1  10    8.80    1.80
   6   1  10   17.90    2.10
   7   1  10    0.60    0.70
  -6   2  10    1.60    0.90
  -6   2  10    2.50    1.20
   5  -2 -10    3.30    1.80
   5  -2 -10    1.80    1.60
  -5   2  10    3.30    1.20
  -5   2  10    3.70    1.10
   4  -2 -10   72.49    5.50
   4  -2 -10   70.39    4.80
   4  -2 -10   65.79    4.50
  -4   2  10   75.49    4.60
  -4   2  10   66.99    4.90
   3  -2 -10   67.79    4.80
   3  -2 -10   77.39    5.70
   3  -2 -10   66.99    4.60
  -3   2  10   75.29    5.20
  -3   2  10   59.39    5.60
  -3   2  10   76.09    7.00
   2  -2 -10   35.90    3.30
   2  -2 -10   32.60    3.00
   2  -2 -10   27.20    3.30
   2  -2 -10   29.20    3.40
  -2   2  10   26.00    3.60
  -2   2  10   27.20    2.50
  -2   2  10   29.60    3.00
   1  -2 -10   66.49    4.40
   1  -2 -10   71.49    4.90
   1  -2 -10   68.19    5.50
   1  -2 -10   52.99    5.10
  -1   2  10   64.79    5.30
  -1   2  10   66.89    4.30
  -1   2  10   71.39    4.80
   0  -2 -10   44.80    4.70
   0  -2 -10   52.29    3.80
   0  -2 -10   52.89    4.80
   0  -2 -10   49.50    4.10
   0   2  10   54.99    3.60
   0   2  10   50.29    4.60
   0   2  10   46.80    3.90
  -1  -2 -10   15.50    2.10
  -1  -2 -10   10.60    2.60
  -1  -2 -10   12.40    2.20
  -1  -2 -10   14.50    3.00
   1   2  10   14.70    2.10
   1   2  10   14.90    1.90
  -2  -2 -10    4.10    2.00
  -2  -2 -10    4.30    1.50
  -2  -2 -10    3.90    1.90
   2   2  10    3.20    1.20
   2   2  10    3.50    1.20
  -3  -2 -10  178.88   11.90
  -4  -2 -10   32.40    4.70
   5   2  10   19.80    2.70
   6   2  10    4.00    1.10
   7   2  10    1.90    0.70
  -6   3  10   10.90    1.50
  -6   3  10   14.10    2.80
  -5   3  10    9.50    1.50
  -5   3  10   12.70    2.20
   4  -3 -10   12.70    1.80
  -4   3  10   13.00    1.90
  -4   3  10    8.80    1.80
   3  -3 -10   29.40    2.70
   3  -3 -10   26.10    2.90
  -3   3  10   28.90    3.70
  -3   3  10   30.00    2.70
   2  -3 -10   29.50    3.80
   2  -3 -10   29.10    4.20
   2  -3 -10   26.90    3.00
   2  -3 -10   36.90    3.00
  -2   3  10   32.10    2.90
  -2   3  10   34.50    3.30
   1  -3 -10   49.70    4.90
   1  -3 -10   43.10    4.20
   1  -3 -10   49.99    3.70
  -1   3  10   45.20    5.00
  -1   3  10   50.89    4.00
   0  -3 -10    9.60    1.70
   0  -3 -10    3.50    1.90
   0  -3 -10    5.80    1.50
   0   3  10    9.70    1.90
   0   3  10    9.00    2.40
   0   3  10    9.00    1.60
  -1  -3 -10   37.30    3.10
  -1  -3 -10   33.80    4.40
  -1  -3 -10   38.20    4.80
  -1  -3 -10   38.50    3.80
   1   3  10   36.30    3.40
   1   3  10   34.30    2.80
  -2  -3 -10  212.78   10.50
  -2  -3 -10  189.78   12.90
  -3  -3 -10    1.50    1.90
   5   3  10    1.50    1.30
   6   3  10    0.90    0.90
  -5   4  10    4.40    1.30
   4  -4 -10    8.50    1.50
  -4   4  10    5.00    1.20
  -4   4  10    6.60    1.70
   3  -4 -10   39.20    3.10
  -3   4  10   38.50    3.50
  -3   4  10   35.40    3.00
   2  -4 -10  107.89    6.30
  -2   4  10  104.59    6.70
  -2   4  10  106.29    6.20
   1  -4 -10    8.30    1.50
   1  -4 -10    7.20    2.80
  -1   4  10   12.00    2.10
  -1   4  10   12.30    1.80
   0  -4 -10   27.10    2.60
   0  -4 -10   24.10    4.80
   0   4  10   29.90    3.00
   0   4  10   27.60    2.60
  -1  -4 -10  113.29    9.20
  -1  -4 -10  123.99    7.80
   1   4  10  114.79    8.90
   1   4  10  128.49    6.70
  -2  -4 -10   27.40    2.50
   5   4  10    2.10    1.00
   4  -5 -10   10.90    1.40
  -4   5  10   10.30    2.00
  -4   5  10   11.40    1.40
   3  -5 -10   20.60    2.30
  -3   5  10   22.20    2.10
  -3   5  10   24.30    2.50
   2  -5 -10   19.60    2.10
  -2   5  10   21.30    2.40
  -2   5  10   19.70    2.10
   1  -5 -10    6.60    1.30
  -1   5  10    7.90    1.70
  -1   5  10    7.30    1.30
   0  -5 -10   -0.10    0.60
  -1  -5 -10   18.90    1.90
   1  -6 -10    9.50    1.20
   0  -6 -10   14.60    1.40
  -2  -5  11    5.20    1.10
  -1  -5  11    4.90    1.20
   0  -5  11   13.40    2.00
   1  -5  11    9.70    1.60
   2  -5  11   25.10    2.30
   3  -5  11   16.10    1.60
   5   4 -11    9.30    1.30
   4   4 -11    5.00    1.90
   4   4 -11    4.20    1.80
   3   4 -11    1.50    1.90
   3   4 -11    2.30    1.20
   2   4 -11    0.30    1.20
  -2  -4  11    3.90    1.30
  -1  -4  11   15.20    2.30
   0  -4  11    1.90    1.30
   1  -4  11   22.40    2.70
   2  -4  11   44.90    3.60
  -3   4 -11   20.60    2.30
   3  -4  11   19.10    2.10
  -4   4 -11    0.50    0.80
   4  -4  11    1.40    0.90
   6   3 -11    0.20    0.70
   5   3 -11   13.10    2.00
   5   3 -11    8.20    2.30
   4   3 -11   16.70    2.80
   4   3 -11   21.20    2.80
   3   3 -11    2.60    1.20
   3   3 -11   -0.20    1.30
  -3  -3  11    3.00    1.20
  -3  -3  11    1.80    1.40
  -3  -3  11    1.10    1.00
   2   3 -11    1.00    1.00
   2   3 -11    0.90    1.40
  -2  -3  11    0.70    1.00
  -2  -3  11    1.50    0.90
   1   3 -11   25.00    3.40
   1   3 -11   24.00    2.50
  -1  -3  11   25.30    3.20
  -1  -3  11   20.90    2.60
   0   3 -11    6.60    2.20
   0   3 -11    6.90    1.40
   0  -3  11    7.20    1.70
   0  -3  11    5.40    1.80
   3  -3  11    8.80    1.60
  -4   3 -11    1.10    0.90
   4  -3  11    1.30    1.10
  -5   3 -11    5.40    1.20
   5  -3  11    9.70    1.50
   6   2 -11    3.20    1.10
   6   2 -11    2.70    1.50
   5   2 -11    9.00    2.70
   5   2 -11    6.40    2.10
   4   2 -11   63.69    4.60
   4   2 -11   63.39    5.20
  -4  -2  11   53.79    4.00
  -4  -2  11   57.19    4.60
   3   2 -11  111.09    7.50
   3   2 -11  118.29    6.80
  -3  -2  11  106.39    6.60
  -3  -2  11  112.59    7.30
   2   2 -11  110.29    7.60
   2   2 -11  122.69    7.00
  -2  -2  11  113.49    6.90
  -2  -2  11  124.39    7.80
   1   2 -11    0.00    1.30
   1   2 -11    0.50    1.10
  -1  -2  11    1.80    1.20
  -1  -2  11    2.20    0.90
   0   2 -11   66.59    5.30
   0   2 -11   66.09    4.70
   0  -2  11   66.49    4.70
   0  -2  11   66.89    5.40
  -1   2 -11   16.30    2.30
  -1   2 -11   15.80    2.90
   1  -2  11   19.60    2.90
   1  -2  11   10.80    2.70
  -2   2 -11   18.30    2.80
  -2   2 -11   13.40    3.20
  -2   2 -11   12.90    2.70
   2  -2  11   10.60    1.80
  -3   2 -11   43.40    5.40
  -4   2 -11   90.49    5.60
   4  -2  11   84.19    5.40
  -5   2 -11    6.30    1.30
  -6   2 -11    6.50    1.30
   7   1 -11    0.90    0.80
   6   1 -11   22.70    2.40
   6   1 -11   17.90    3.00
   5   1 -11    2.90    1.30
   5   1 -11    5.50    1.70
  -5  -1  11    1.90    1.30
  -5  -1  11    0.30    1.10
   4   1 -11   33.20    3.10
  -4  -1  11   34.90    3.60
  -4  -1  11   27.40    2.80
   3   1 -11   62.79    5.30
   3   1 -11   68.29    4.80
  -3  -1  11   67.89    4.50
  -3  -1  11   66.79    5.10
   2   1 -11   25.80    2.80
   2   1 -11   26.20    3.40
  -2  -1  11   24.50    3.00
  -2  -1  11   26.80    2.70
   1   1 -11   45.80    4.30
   1   1 -11   44.60    3.70
  -1  -1  11   47.30    4.20
  -1  -1  11   46.00    3.60
   0   1 -11   31.10    3.00
   0   1 -11   30.60    3.50
   0  -1  11   30.00    2.90
   0  -1  11   30.40    3.30
  -1   1 -11   28.60    3.70
  -1   1 -11   43.30    3.60
  -1   1 -11   38.00    4.10
   1  -1  11   34.40    3.20
   1  -1  11   40.50    3.80
  -2   1 -11  346.77   18.80
  -2   1 -11  336.67   17.60
  -2   1 -11  343.27   18.50
   2  -1  11  362.76   17.40
   2  -1  11  371.86   18.40
  -3   1 -11  236.88   14.30
  -3   1 -11  239.48   13.80
  -3   1 -11  243.08   12.40
  -3   1 -11  226.08   12.80
   3  -1  11  265.07   12.70
   3  -1  11  251.47   13.60
  -4   1 -11   44.00    3.70
  -4   1 -11   56.09    6.60
   4  -1  11   52.19    3.50
  -5   1 -11   14.00    2.00
   5  -1  11   13.20    1.80
  -6   1 -11   15.80    2.00
   6  -1  11   17.10    1.90
   7   0 -11    1.90    0.90
   6   0 -11    2.00    1.40
   6   0 -11    0.20    0.90
   5   0 -11    0.90    1.00
   5   0 -11    1.60    1.30
  -5   0  11    0.70    1.10
  -5   0  11    0.60    0.90
   4   0 -11   45.30    4.50
   4   0 -11   58.89    4.20
  -4   0  11   46.80    3.60
  -4   0  11   53.59    4.30
   3   0 -11   81.99    6.00
   3   0 -11   75.69    6.60
  -3   0  11   71.89    5.40
   2   0 -11  599.24   29.70
   2   0 -11  601.44   28.80
  -2   0  11  641.84   29.40
  -2   0  11  600.74   28.40
   1   0 -11    0.20    1.10
   1   0 -11    0.40    0.90
  -1   0  11    0.50    0.80
  -1   0  11    1.00    0.80
   0   0 -11   52.69    6.30
   0   0 -11   62.79    5.30
   0   0 -11   64.49    4.60
   0   0  11   61.39    5.60
   0   0  11   63.69    4.90
   0   0  11   61.49    4.30
  -1   0 -11    1.10    1.30
  -1   0 -11    1.40    1.10
  -1   0 -11    1.90    1.60
   1   0  11    1.60    1.00
   1   0  11    0.50    1.00
  -2   0 -11   22.90    2.80
  -2   0 -11   19.50    3.50
  -2   0 -11   17.60    3.10
   2   0  11   19.80    2.40
   2   0  11   18.70    2.80
  -3   0 -11  126.19    9.00
  -3   0 -11  111.29    9.00
  -3   0 -11  143.79    8.40
   3   0  11  146.79    8.50
   3   0  11  129.19    7.60
   3   0  11  139.19    7.50
  -4   0 -11   79.49    7.30
   4   0  11   93.49    5.40
   5   0  11   92.69    6.10
   6   0  11    7.40    1.40
   6  -1 -11   19.50    2.20
   6  -1 -11   11.20    2.30
  -6   1  11   15.00    1.80
  -6   1  11   21.20    3.10
   5  -1 -11    5.00    2.00
   5  -1 -11    4.50    1.40
  -5   1  11    6.40    1.30
  -5   1  11    3.20    1.10
   4  -1 -11   34.80    3.10
   4  -1 -11   26.50    4.70
  -4   1  11   30.10    2.70
  -4   1  11   34.20    4.00
   3  -1 -11   68.59    5.50
   3  -1 -11   65.59    4.70
  -3   1  11   67.19    4.50
  -3   1  11   71.09    5.10
   2  -1 -11   27.00    3.50
   2  -1 -11   26.30    2.90
  -2   1  11   29.50    3.70
  -2   1  11   30.20    3.10
  -2   1  11   26.60    2.60
   1  -1 -11   47.50    4.60
   1  -1 -11   43.50    3.80
  -1   1  11   52.19    3.60
  -1   1  11   43.20    4.10
  -1   1  11   48.50    4.10
   0  -1 -11   25.90    3.30
   0  -1 -11   29.80    3.00
   0  -1 -11   31.90    3.70
   0   1  11   30.40    2.70
   0   1  11   26.70    3.30
   0   1  11   27.90    3.10
  -1  -1 -11   34.90    4.20
  -1  -1 -11   38.30    4.30
  -1  -1 -11   35.00    3.50
   1   1  11   42.00    3.30
   1   1  11   44.70    3.90
  -2  -1 -11  352.36   17.70
  -2  -1 -11  311.07   18.70
  -2  -1 -11  342.47   18.80
   2   1  11  360.06   16.90
   2   1  11  361.56   17.80
  -3  -1 -11  241.28   14.10
  -3  -1 -11  210.58   14.10
  -3  -1 -11  253.47   13.10
   3   1  11  256.07   13.00
   3   1  11  227.18   12.00
  -4  -1 -11   39.10    7.20
   5   1  11   17.80    2.70
   6   1  11   20.20    2.00
  -6   2  11    3.40    1.00
  -6   2  11    5.20    1.40
   5  -2 -11    8.20    1.60
   5  -2 -11    6.80    2.20
  -5   2  11    7.40    1.40
  -5   2  11    9.80    2.00
   4  -2 -11   49.40    5.00
   4  -2 -11   59.89    4.40
  -4   2  11   69.79    4.80
  -4   2  11   61.69    4.10
   3  -2 -11  113.49    6.80
   3  -2 -11  100.19    7.50
   3  -2 -11  115.89    6.60
  -3   2  11  120.29    7.20
  -3   2  11  107.89    6.40
   2  -2 -11  119.09    7.20
   2  -2 -11  105.89    7.90
   2  -2 -11  119.59    6.90
  -2   2  11  125.59    6.80
  -2   2  11  128.09    7.50
  -2   2  11  108.49    8.20
   1  -2 -11    2.20    1.30
   1  -2 -11    2.00    1.70
   1  -2 -11    1.90    1.00
   1  -2 -11    1.60    1.60
  -1   2  11    1.50    1.10
  -1   2  11    2.30    1.00
  -1   2  11    5.10    2.10
   0  -2 -11   72.39    5.30
   0  -2 -11   72.79    4.80
   0  -2 -11   64.49    6.00
   0  -2 -11   65.69    5.90
   0   2  11   69.79    5.90
   0   2  11   78.99    4.80
   0   2  11   77.19    5.40
  -1  -2 -11   18.50    4.20
  -1  -2 -11   18.20    3.60
  -1  -2 -11   18.60    4.10
   1   2  11   21.90    2.30
   1   2  11   25.00    2.80
  -2  -2 -11   18.40    3.70
  -2  -2 -11   13.60    3.00
  -2  -2 -11   22.00    2.90
   2   2  11   22.90    2.80
   2   2  11   16.10    2.10
  -3  -2 -11   42.20    5.30
   5   2  11   10.20    1.70
   6   2  11    6.70    1.70
  -6   3  11    0.00    0.50
  -5   3  11   11.70    1.60
  -5   3  11    9.40    1.70
   4  -3 -11   17.50    2.10
  -4   3  11   18.50    2.10
  -4   3  11   19.60    2.50
   3  -3 -11    3.00    1.40
   3  -3 -11    1.00    1.80
   3  -3 -11    2.60    1.10
  -3   3  11    0.50    1.00
  -3   3  11    1.60    1.10
   2  -3 -11    1.50    1.20
   2  -3 -11    1.40    1.70
   2  -3 -11    3.10    1.20
  -2   3  11    2.20    1.20
  -2   3  11    0.40    0.90
   1  -3 -11   28.00    2.70
   1  -3 -11   26.40    3.00
   1  -3 -11   22.70    4.00
   1  -3 -11   24.10    3.70
  -1   3  11   25.70    2.90
  -1   3  11   27.50    2.60
   0  -3 -11    5.50    1.60
   0  -3 -11    7.10    1.60
   0  -3 -11    5.70    2.50
   0  -3 -11    5.10    2.00
   0   3  11   11.10    1.70
   0   3  11    9.30    2.10
  -1  -3 -11   77.89    7.30
  -1  -3 -11   74.19    5.60
  -1  -3 -11   77.39    4.90
  -1  -3 -11   66.59    6.50
   1   3  11   71.49    6.50
   1   3  11   75.69    4.60
  -2  -3 -11  115.79   11.50
   5   3  11    7.90    1.60
  -5   4  11   10.50    1.40
   4  -4 -11    7.60    1.20
  -4   4  11    5.90    1.30
  -4   4  11    4.90    1.30
   3  -4 -11    3.70    1.20
  -3   4  11    3.50    1.20
  -3   4  11    2.40    1.40
   2  -4 -11    4.20    1.20
  -2   4  11    2.30    1.50
  -2   4  11    2.20    1.30
   1  -4 -11   16.60    2.10
  -1   4  11   16.90    2.20
  -1   4  11   16.30    2.30
   0  -4 -11    1.00    0.90
   0   4  11    2.10    1.30
   0   4  11    3.00    1.40
  -1  -4 -11   18.70    2.10
   3  -5 -11    4.00    0.90
  -3   5  11    3.00    0.90
   2  -5 -11    5.30    1.10
  -2   5  11    5.00    1.40
  -2   5  11    7.00    1.40
   1  -5 -11    4.20    1.00
  -1   5  11    4.10    1.90
  -1   5  11    2.60    1.10
   0  -5 -11   12.60    1.70
  -2  -5  12    4.50    1.40
  -1  -5  12    1.40    0.80
   0  -5  12    6.50    1.20
   1  -5  12    0.50    0.70
  -2   5 -12    1.70    0.80
   2  -5  12    1.90    0.80
   4   4 -12    4.60    1.60
   3   4 -12    5.80    1.50
  -2  -4  12    5.60    1.60
  -1  -4  12    9.00    1.50
   0  -4  12    8.90    1.60
   1  -4  12    6.70    1.70
   2  -4  12   24.60    2.40
  -3   4 -12    4.90    1.30
   3  -4  12    9.00    1.50
  -4   4 -12    7.40    1.30
   4  -4  12    9.10    1.30
   5   3 -12   12.30    2.40
   4   3 -12    5.10    1.70
   4   3 -12    6.00    1.50
   3   3 -12    5.80    1.90
   3   3 -12    5.90    1.50
  -3  -3  12    6.70    1.50
   2   3 -12   10.90    2.40
   2   3 -12   16.70    2.20
  -2  -3  12   11.90    2.30
  -2  -3  12   11.50    1.80
   1   3 -12   18.70    2.50
   1   3 -12   20.00    3.20
  -1  -3  12   19.80    2.80
  -1  -3  12   17.00    2.30
   0   3 -12    7.90    2.50
   0   3 -12    7.90    1.80
   0  -3  12    5.50    1.50
   2  -3  12   14.20    2.20
  -3   3 -12    3.10    1.10
   3  -3  12    4.90    1.30
  -4   3 -12   29.70    2.80
   4  -3  12   34.40    2.60
  -5   3 -12    5.40    1.20
   6   2 -12   12.90    1.70
   6   2 -12    8.00    1.70
   5   2 -12    1.60    1.30
   5   2 -12    2.40    1.00
   4   2 -12   12.40    2.70
   4   2 -12   15.20    2.10
  -4  -2  12   11.20    1.80
  -4  -2  12   10.90    2.80
   3   2 -12   11.30    2.50
   3   2 -12   17.60    2.30
  -3  -2  12   17.70    2.20
  -3  -2  12   19.60    2.70
   2   2 -12   68.19    4.70
   2   2 -12   56.89    6.10
  -2  -2  12   63.69    5.50
  -2  -2  12   60.19    4.50
   1   2 -12   57.89    4.20
   1   2 -12   46.80    4.60
  -1  -2  12   42.90    3.80
  -1  -2  12   54.39    4.70
   0   2 -12   43.40    4.50
   0   2 -12   36.10    3.40
   0  -2  12   45.50    4.30
  -1   2 -12   17.50    2.50
  -1   2 -12   24.00    3.50
   1  -2  12   23.00    2.50
   1  -2  12   24.10    3.10
  -2   2 -12   32.50    4.20
  -2   2 -12   31.90    3.50
   2  -2  12   35.30    3.30
   2  -2  12   36.50    3.80
  -3   2 -12   18.80    2.30
  -4   2 -12    2.10    1.10
   4  -2  12    1.30    1.00
  -5   2 -12    1.50    1.20
   6   1 -12    0.20    1.10
   6   1 -12   -0.30    0.80
   5   1 -12   11.00    2.40
   5   1 -12   16.00    2.30
  -5  -1  12   10.50    1.70
   4   1 -12    2.60    1.50
   4   1 -12    3.80    1.30
  -4  -1  12    7.60    1.80
  -4  -1  12    4.80    1.40
   3   1 -12   32.80    5.00
   3   1 -12   50.59    3.90
  -3  -1  12   45.90    4.70
  -3  -1  12   50.29    3.70
   2   1 -12   79.29    5.40
   2   1 -12   75.39    6.00
  -2  -1  12   73.99    5.80
  -2  -1  12   77.49    5.20
   1   1 -12   15.80    3.10
   1   1 -12   18.60    2.70
  -1  -1  12   15.50    2.30
  -1  -1  12   15.50    2.90
   0   1 -12  165.68   10.40
   0  -1  12  166.48    9.20
   0  -1  12  168.58   10.10
  -1   1 -12    5.60    1.60
  -1   1 -12    6.20    2.10
   1  -1  12    5.30    1.60
   1  -1  12    4.40    1.20
  -2   1 -12    9.90    3.30
  -2   1 -12    8.80    2.30
  -2   1 -12    5.60    1.50
   2  -1  12    5.40    1.30
   2  -1  12    5.30    1.70
  -3   1 -12   19.80    2.20
  -3   1 -12   15.20    4.10
  -3   1 -12   16.70    3.30
  -3   1 -12   15.50    2.50
  -4   1 -12   19.10    2.40
  -5   1 -12    9.00    1.80
   6   0 -12    0.10    1.20
   6   0 -12    0.00    0.80
   5   0 -12    0.50    1.30
   5   0 -12    1.40    1.10
  -5   0  12    0.90    1.30
  -5   0  12    1.10    0.90
   4   0 -12    0.90    1.00
   4   0 -12    1.70    1.50
  -4   0  12    0.40    0.90
  -4   0  12    0.00    0.80
   3   0 -12   83.19    5.60
   3   0 -12   81.59    6.40
  -3   0  12   81.69    5.20
  -3   0  12   82.79    5.90
   2   0 -12  198.48   12.20
   2   0 -12  221.48   11.40
  -2   0  12  198.58   10.80
  -2   0  12  214.88   11.80
   1   0 -12    5.50    2.40
   1   0 -12    6.80    2.00
  -1   0  12    6.80    1.90
  -1   0  12   10.30    2.50
   0   0 -12   11.60    2.70
   0   0 -12    7.50    1.90
   0   0  12    8.90    1.70
   0   0  12   11.50    2.40
  -1   0 -12   51.49    5.80
  -1   0 -12   55.69    5.50
  -1   0 -12   54.49    5.30
   1   0  12   44.00    5.10
   1   0  12   64.39    5.10
  -2   0 -12  121.49    8.60
  -2   0 -12  116.39    9.00
  -2   0 -12  122.59    7.70
   2   0  12  133.39    7.40
   2   0  12  124.89    8.10
  -3   0 -12    9.40    2.50
  -3   0 -12   10.20    2.10
  -3   0 -12   13.40    3.10
   3   0  12   15.20    2.70
   3   0  12   14.40    2.10
   3   0  12   13.60    1.90
   4   0  12   16.50    2.70
   5   0  12   -0.30    0.80
   6   0  12    7.10    1.20
   6  -1 -12    1.40    0.90
  -6   1  12   -0.90    0.90
   5  -1 -12    8.50    1.50
   5  -1 -12    6.10    2.40
  -5   1  12   10.00    2.00
  -5   1  12   12.90    1.70
   4  -1 -12    4.60    1.80
   4  -1 -12    7.40    1.70
  -4   1  12    8.00    1.90
  -4   1  12    3.40    1.10
   3  -1 -12   44.30    6.00
   3  -1 -12   48.10    3.90
  -3   1  12   47.60    3.60
  -3   1  12   49.20    5.10
   2  -1 -12   80.59    5.50
   2  -1 -12   71.09    6.10
  -2   1  12   75.99    5.00
  -2   1  12   78.79    5.70
   1  -1 -12   14.10    2.40
   1  -1 -12   15.10    3.20
  -1   1  12   11.20    1.80
  -1   1  12   16.30    2.50
   0  -1 -12  160.58   11.00
   0  -1 -12  169.58   10.10
   0   1  12  200.28   10.40
   0   1  12  182.68   10.40
  -1  -1 -12    6.50    2.50
  -1  -1 -12    5.70    2.40
  -1  -1 -12    7.90    1.90
   1   1  12    5.40    1.60
   1   1  12    6.60    1.60
  -2  -1 -12    6.90    1.80
  -2  -1 -12    6.70    2.30
  -2  -1 -12    5.70    2.70
   2   1  12   12.50    2.50
   2   1  12   11.60    1.90
  -3  -1 -12   13.00    4.70
  -3  -1 -12   19.10    2.80
   3   1  12   15.30    2.10
   3   1  12   17.00    2.80
   4   1  12   23.40    2.50
   5   1  12   11.60    1.70
   6   1  12    6.50    1.10
  -6   2  12    9.90    1.30
   5  -2 -12    0.50    1.40
  -5   2  12    2.40    1.10
  -5   2  12    2.00    0.90
   4  -2 -12    8.30    2.20
   4  -2 -12   11.20    1.80
  -4   2  12   15.60    1.90
  -4   2  12   16.40    2.30
   3  -2 -12   19.80    2.40
  -3   2  12   16.80    2.60
  -3   2  12   18.90    2.30
   2  -2 -12   61.49    4.80
   2  -2 -12   56.39    6.90
  -2   2  12   69.39    6.00
  -2   2  12   64.59    4.40
   1  -2 -12   47.80    4.20
   1  -2 -12   43.60    4.90
  -1   2  12   54.09    4.40
  -1   2  12   49.40    3.70
   0  -2 -12   39.20    5.10
   0  -2 -12   43.70    4.90
   0  -2 -12   42.10    4.00
   0   2  12   43.50    3.40
   0   2  12   47.90    4.10
  -1  -2 -12   26.40    3.10
  -1  -2 -12   17.00    3.40
  -1  -2 -12   26.90    4.30
   1   2  12   27.00    2.60
   1   2  12   25.30    3.00
  -2  -2 -12   38.60    4.80
  -2  -2 -12   37.00    3.80
  -2  -2 -12   25.60    4.60
   2   2  12   40.90    3.80
   2   2  12   33.50    3.20
   5   2  12    1.40    0.90
  -5   3  12   11.60    1.50
  -5   3  12   13.90    2.70
  -4   3  12    4.50    1.10
  -4   3  12    7.50    1.80
   3  -3 -12    4.00    1.10
   3  -3 -12    2.60    1.30
   3  -3 -12    6.00    2.50
  -3   3  12    4.90    1.40
  -3   3  12    3.90    1.30
   2  -3 -12   11.50    2.10
   2  -3 -12   14.30    2.10
  -2   3  12   13.10    2.20
  -2   3  12    9.60    1.60
   1  -3 -12   23.80    3.20
   1  -3 -12   19.40    2.60
   1  -3 -12   14.60    3.10
  -1   3  12   17.20    2.20
  -1   3  12   24.20    2.80
   0  -3 -12    9.60    2.70
   0  -3 -12    3.40    3.60
   0  -3 -12    6.20    1.70
   0   3  12    5.30    1.50
   0   3  12    7.50    1.40
  -1  -3 -12    0.90    1.60
  -1  -3 -12    0.20    1.10
   1   3  12    1.80    1.10
   1   3  12    0.90    1.20
   5   3  12    5.60    1.10
  -4   4  12    5.60    1.10
  -4   4  12    3.80    1.20
   3  -4 -12   10.00    1.60
  -3   4  12    9.40    1.90
  -3   4  12    7.20    1.40
   2  -4 -12    5.70    1.20
  -2   4  12    7.20    1.70
  -2   4  12    7.10    1.40
   1  -4 -12    8.10    1.40
  -1   4  12   14.00    1.80
  -1   4  12   10.50    2.10
   0  -4 -12   12.50    1.70
   0   4  12    8.80    1.90
   0   4  12   10.10    1.60
   2  -5 -12    2.70    0.80
  -2   5  12    2.80    0.80
   1  -5 -12    1.40    0.60
  -2  -4  13    3.20    1.00
  -1  -4  13    0.60    0.80
   0  -4  13    4.40    1.30
   1  -4  13    7.40    1.50
  -2   4 -13   12.90    2.30
   2  -4  13   13.10    1.70
  -3   4 -13    1.00    0.80
   3  -4  13    0.60    0.70
   5   3 -13    2.20    0.80
   4   3 -13    4.60    1.70
   4   3 -13    2.90    1.10
   3   3 -13    0.30    1.20
   3   3 -13   -0.30    0.70
  -3  -3  13    1.20    1.00
   2   3 -13   10.10    2.50
   2   3 -13   10.40    1.70
   1   3 -13   13.10    2.10
   1   3 -13    7.60    2.40
   2  -3  13    4.80    1.40
  -3   3 -13   -0.80    0.70
   3  -3  13    0.80    1.00
  -4   3 -13    0.10    0.70
   4  -3  13    0.70    0.70
   5   2 -13    1.10    1.20
   5   2 -13    1.20    0.90
   4   2 -13   25.60    2.60
   4   2 -13   22.20    3.10
  -4  -2  13   17.20    2.20
  -4  -2  13   13.90    3.00
   3   2 -13    8.20    2.30
  -3  -2  13    5.70    1.90
  -3  -2  13    4.60    1.20
   2   2 -13    9.20    2.40
   2   2 -13    7.50    1.70
  -2  -2  13    8.10    2.10
  -2  -2  13    5.40    1.40
   1   2 -13   90.49    6.90
   1   2 -13  101.79    6.30
  -1  -2  13  102.99    7.10
  -1  -2  13   92.29    6.10
   0   2 -13   23.30    3.40
   0   2 -13   26.90    2.90
   0  -2  13   22.10    2.70
   0  -2  13   22.80    3.30
  -1   2 -13   37.40    3.60
  -1   2 -13   32.50    4.40
   1  -2  13   34.00    3.30
   1  -2  13   34.40    3.80
  -2   2 -13    4.20    1.80
  -3   2 -13   17.10    2.10
  -4   2 -13   -0.20    1.00
   4  -2  13    2.30    1.00
   6   1 -13    0.60    0.80
   5   1 -13    0.40    0.80
   5   1 -13    0.10    1.20
   4   1 -13   10.60    1.90
   4   1 -13    8.70    2.30
  -4  -1  13    8.60    2.10
  -4  -1  13    4.90    1.20
   3   1 -13    6.70    2.00
   3   1 -13    9.10    1.70
  -3  -1  13    9.20    1.50
  -3  -1  13    6.90    1.60
   2   1 -13  258.57   13.00
   2   1 -13  232.28   13.80
  -2  -1  13  242.98   12.70
  -2  -1  13  250.17   13.70
   1   1 -13   43.30    5.70
   1   1 -13   50.29    4.20
  -1  -1  13   47.70    3.90
  -1  -1  13   57.99    5.30
   0   1 -13   32.00    3.40
   0  -1  13   33.00    3.20
  -1   1 -13   64.79    4.80
  -1   1 -13   57.39    5.50
   1  -1  13   59.69    5.20
   1  -1  13   63.69    4.60
  -2   1 -13   23.00    2.90
  -2   1 -13   22.80    3.80
  -2   1 -13   15.00    2.10
   2  -1  13   23.30    2.60
   2  -1  13   22.60    3.10
  -3   1 -13    0.10    1.00
   4  -1  13    5.20    1.40
   6   0 -13    1.00    0.90
   5   0 -13   12.60    2.00
   5   0 -13    9.80    2.30
  -5   0  13   12.40    2.30
  -5   0  13    9.00    1.50
   4   0 -13    2.30    1.50
   4   0 -13    1.50    1.70
  -4   0  13    2.60    1.40
  -4   0  13    1.90    1.00
   3   0 -13    6.30    2.10
   3   0 -13    6.90    1.70
  -3   0  13    7.80    2.00
  -3   0  13    5.40    1.40
   2   0 -13   41.90    4.60
   2   0 -13   47.90    4.00
  -2   0  13   44.80    3.60
  -2   0  13   44.60    4.20
   1   0 -13   24.50    3.00
   1   0 -13   25.90    3.80
  -1   0  13   27.10    3.30
  -1   0  13   31.00    2.90
   0   0 -13   89.39    6.30
   0   0 -13   91.59    7.20
   0   0  13   96.49    6.00
   0   0  13   96.79    6.80
  -1   0 -13   64.49    9.50
  -1   0 -13   76.19    5.50
   1   0  13   69.29    4.90
  -2   0 -13    5.90    2.40
  -2   0 -13    5.20    1.80
   2   0  13    5.60    1.50
   2   0  13    4.50    1.80
   3   0  13    5.30    2.00
   3   0  13    5.50    1.70
   4   0  13    2.30    1.10
   5   0  13   11.10    1.60
   5  -1 -13   -0.20    0.90
   5  -1 -13    1.60    1.50
  -5   1  13    0.30    0.90
  -5   1  13    0.20    0.70
   4  -1 -13   10.50    1.90
   4  -1 -13    7.70    2.10
  -4   1  13    7.30    1.30
  -4   1  13    9.00    1.90
   3  -1 -13    6.30    2.00
   3  -1 -13    9.10    1.90
  -3   1  13   10.80    1.80
  -3   1  13   14.60    2.60
   2  -1 -13  249.68   13.20
  -2   1  13  251.37   13.50
  -2   1  13  246.18   12.60
   1  -1 -13   54.69    4.50
   1  -1 -13   43.70    5.60
  -1   1  13   52.09    3.90
  -1   1  13   64.09    5.30
   0  -1 -13   34.60    3.60
   0   1  13   32.70    3.10
  -1  -1 -13   66.49    6.10
  -1  -1 -13   67.89    5.20
   1   1  13   68.09    5.40
   1   1  13   69.09    4.80
  -2  -1 -13   24.50    3.90
  -2  -1 -13   28.60    3.20
   2   1  13   25.60    2.70
   2   1  13   20.20    2.90
   3   1  13   23.90    2.50
   3   1  13   26.50    2.60
   4   1  13    2.60    1.10
   5   1  13   14.20    1.70
   5  -2 -13    0.10    1.80
  -5   2  13    1.60    1.00
  -5   2  13    0.60    0.80
   4  -2 -13   22.40    2.40
   4  -2 -13   19.50    3.10
  -4   2  13   25.60    2.70
  -4   2  13   21.80    2.10
   3  -2 -13    5.50    2.00
   3  -2 -13    5.50    1.30
  -3   2  13    6.90    1.50
   2  -2 -13    5.30    1.40
   2  -2 -13    4.80    2.00
  -2   2  13    8.50    2.10
  -2   2  13    7.10    1.60
   1  -2 -13   86.29    7.40
   1  -2 -13   97.89    6.70
  -1   2  13  117.29    7.00
  -1   2  13  101.29    6.10
   0  -2 -13   22.50    3.10
   0  -2 -13   25.20    3.90
   0   2  13   25.40    3.00
   0   2  13   25.20    2.60
  -1  -2 -13   35.20    4.60
  -1  -2 -13   39.20    3.90
   1   2  13   43.30    3.80
   1   2  13   36.70    3.20
  -2  -2 -13    5.00    1.60
  -2  -2 -13    3.50    1.80
   2   2  13    5.90    1.60
   2   2  13    8.40    2.10
   4   2  13    1.50    1.00
   5   2  13   -0.40    0.60
  -5   3  13    1.90    0.70
  -4   3  13    2.90    0.90
  -4   3  13    6.00    1.30
   3  -3 -13   -1.10    1.30
   3  -3 -13    0.40    2.80
  -3   3  13   -0.10    0.70
  -3   3  13    0.30    0.90
   2  -3 -13   10.10    1.90
   2  -3 -13    9.60    2.50
  -2   3  13   13.00    2.30
  -2   3  13   12.00    1.80
   1  -3 -13    8.00    2.40
   1  -3 -13    8.30    1.70
  -1   3  13   12.80    2.20
  -1   3  13    8.30    1.50
   0  -3 -13    4.00    1.90
   0  -3 -13    3.80    1.80
   0   3  13    2.40    1.10
   0   3  13    4.00    1.50
   1   3  13    1.70    1.10
   1   3  13    3.10    1.40
   4   3  13    0.40    0.70
  -3   4  13    3.10    0.90
  -3   4  13    2.90    1.50
  -2   4  13    2.10    1.00
  -2   4  13    1.20    1.10
  -1   4  13    1.40    0.90
  -1   4  13   -0.30    0.90
   0   4  13    3.70    1.30
  -2  -4  14    2.80    0.80
  -1  -4  14    2.40    0.80
   0  -4  14   12.90    1.60
   1  -4  14    1.90    0.90
   4   3 -14    0.90    1.00
   3   3 -14    0.80    0.70
  -3  -3  14    0.30    0.90
   2   3 -14    1.80    1.20
   2   3 -14    2.70    2.50
  -2  -3  14    4.00    1.20
   1   3 -14   16.00    2.10
   1  -3  14   40.00    3.30
  -2   3 -14    4.00    1.30
   2  -3  14    5.60    1.30
  -3   3 -14   14.30    1.70
   3  -3  14   18.40    1.80
   5   2 -14    2.20    0.80
   4   2 -14    0.90    1.10
   4   2 -14    0.20    0.80
  -4  -2  14   -0.30    1.80
   3   2 -14    9.00    1.70
   3   2 -14    5.70    1.90
  -3  -2  14    6.10    1.50
  -3  -2  14    5.00    1.10
   2   2 -14   10.70    1.90
   2   2 -14    7.80    2.90
  -2  -2  14    9.50    2.20
  -2  -2  14    8.30    1.50
   1   2 -14   44.30    3.60
   1   2 -14   37.90    4.20
  -1  -2  14   41.80    4.10
  -1  -2  14   38.80    3.70
   0   2 -14   18.70    2.50
   0   2 -14   12.80    3.10
   0  -2  14   19.00    2.90
   0  -2  14   24.00    3.10
  -1   2 -14   16.50    2.40
  -1   2 -14   13.60    3.00
   1  -2  14   12.20    1.90
   1  -2  14   10.40    2.20
  -2   2 -14    5.30    1.30
  -3   2 -14    3.00    1.20
   3  -2  14    2.80    1.10
   4  -2  14   23.30    1.90
   5   1 -14    0.50    1.30
   5   1 -14    4.90    1.20
   4   1 -14   28.60    2.80
   4   1 -14   23.80    3.20
  -4  -1  14   22.90    2.20
  -4  -1  14   23.50    3.20
   3   1 -14    9.10    1.90
   3   1 -14    2.80    1.80
  -3  -1  14    4.60    1.60
  -3  -1  14    7.20    1.40
   2   1 -14    6.60    2.00
   2   1 -14    6.90    1.50
  -2  -1  14    3.80    1.40
  -2  -1  14    2.70    0.90
   1   1 -14   48.70    4.10
   1   1 -14   50.19    5.00
  -1  -1  14   46.80    3.90
  -1  -1  14   50.19    4.60
   0   1 -14   19.00    2.60
   0   1 -14   17.60    3.20
   0  -1  14   18.10    2.50
   0  -1  14   19.00    2.90
  -1   1 -14   59.99    5.80
  -1   1 -14   71.69    5.10
   1  -1  14   73.69    5.70
  -2   1 -14    0.60    1.20
  -2   1 -14    1.00    1.90
   2  -1  14    0.40    1.10
   2  -1  14    0.50    0.80
   4  -1  14    0.40    1.20
   5   0 -14    1.50    1.10
   5   0 -14    0.80    1.50
  -5   0  14    0.80    0.90
   4   0 -14    7.30    2.20
   4   0 -14    5.90    1.40
  -4   0  14    6.90    1.30
  -4   0  14   10.90    2.00
   3   0 -14   35.80    4.20
   3   0 -14   42.30    3.60
  -3   0  14   38.30    3.70
  -3   0  14   39.80    3.20
   2   0 -14    5.90    2.10
   2   0 -14    4.80    1.50
  -2   0  14    4.30    1.50
  -2   0  14    6.20    1.60
   1   0 -14   22.60    2.90
   1   0 -14   23.20    3.60
  -1   0  14   23.90    3.10
  -1   0  14   24.90    2.70
   0   0 -14   10.20    2.20
   0   0 -14   10.30    2.90
   0   0  14    9.20    1.70
   0   0  14    9.80    2.30
  -1   0 -14   28.10    4.00
  -1   0 -14   26.70    3.10
   1   0  14   29.30    2.90
   1   0  14   29.10    3.40
  -2   0 -14   24.80    4.10
  -2   0 -14   24.60    4.50
   2   0  14   28.80    3.20
   2   0  14   21.70    3.00
   4   0  14    9.70    2.20
   5  -1 -14    5.50    1.30
  -5   1  14    3.00    0.90
   4  -1 -14   22.20    3.10
   4  -1 -14   28.00    2.70
  -4   1  14   26.10    2.70
  -4   1  14   21.20    2.20
   3  -1 -14    6.70    2.20
   3  -1 -14    9.40    1.80
  -3   1  14    9.50    2.10
  -3   1  14    6.50    1.40
   2  -1 -14    6.00    1.70
   2  -1 -14    6.80    2.20
  -2   1  14    5.00    1.50
  -2   1  14    6.50    1.40
   1  -1 -14   47.00    5.20
   1  -1 -14   51.49    4.40
  -1   1  14   55.09    4.60
  -1   1  14   50.79    3.90
   0  -1 -14   19.40    2.90
   0  -1 -14   23.60    4.10
   0   1  14   22.60    2.60
   0   1  14   23.20    3.00
  -1  -1 -14   73.89    5.50
  -1  -1 -14   68.99    6.30
   1   1  14   73.29    5.50
   1   1  14   71.79    4.80
  -2  -1 -14    1.00    1.70
  -2  -1 -14    1.40    1.60
   2   1  14    0.40    2.10
   2   1  14    1.30    1.10
   3   1  14    1.60    1.20
   4   1  14    0.50    0.80
  -5   2  14    2.70    0.80
   4  -2 -14    2.40    1.10
  -4   2  14    0.30    0.90
  -4   2  14    0.30    0.70
   3  -2 -14    5.60    2.10
   3  -2 -14    8.20    1.70
  -3   2  14    6.20    1.50
  -3   2  14    6.40    1.20
   2  -2 -14    7.50    2.80
   2  -2 -14    9.20    1.80
  -2   2  14    8.80    1.80
  -2   2  14   10.00    1.70
   1  -2 -14   37.60    4.40
   1  -2 -14   46.30    4.20
  -1   2  14   41.40    3.80
  -1   2  14   43.80    3.50
   0  -2 -14   12.80    3.00
   0  -2 -14   12.60    2.90
   0   2  14   21.60    2.80
   0   2  14   20.30    2.30
  -1  -2 -14   16.60    3.50
  -1  -2 -14   15.50    2.60
   1   2  14    9.10    2.00
   1   2  14   16.20    2.00
   2   2  14    6.50    2.30
   3   2  14    3.30    1.40
   4   2  14   21.80    1.80
  -4   3  14    0.80    0.70
   3  -3 -14   -1.20    1.70
  -3   3  14    0.30    0.80
  -3   3  14   -0.20    0.50
   2  -3 -14    2.20    1.60
   2  -3 -14    1.60    2.00
  -2   3  14    2.70    1.10
  -2   3  14    2.40    0.90
   1  -3 -14   15.60    2.40
   1  -3 -14   13.10    2.80
  -1   3  14   15.50    1.90
  -1   3  14   17.90    2.40
   0  -3 -14    9.80    1.80
   0  -3 -14    9.50    2.50
   0   3  14   13.20    1.70
   0   3  14   11.30    2.00
   1   3  14   32.60    3.00
  -2   4  14    2.30    0.90
  -1   4  14    1.30    1.10
  -1  -3  15    2.70    0.90
   0  -3  15    0.80    0.90
  -1   3 -15    4.80    1.20
   1  -3  15    7.40    1.30
   2  -3  15    1.30    0.80
   4   2 -15   16.20    1.80
   3   2 -15    1.00    1.60
   3   2 -15    3.20    1.10
  -3  -2  15    1.50    0.80
  -3  -2  15    1.60    1.00
   2   2 -15    2.90    1.60
   2   2 -15    6.70    1.50
  -2  -2  15    7.00    1.20
  -2  -2  15    4.00    1.40
   1   2 -15    4.40    1.30
   1   2 -15    2.40    1.70
  -1  -2  15    2.30    0.80
  -1  -2  15    3.00    1.20
   0   2 -15   22.20    2.90
   0  -2  15   21.60    2.90
   0  -2  15   20.40    2.30
  -1   2 -15    5.00    1.70
  -1   2 -15    4.90    1.30
   3  -2  15   12.40    1.50
   4   1 -15    1.90    1.40
   4   1 -15    3.60    1.10
  -4  -1  15    2.40    1.10
   3   1 -15    7.70    1.60
   3   1 -15    4.20    1.80
  -3  -1  15    4.50    1.20
  -3  -1  15    7.30    1.70
   2   1 -15    3.40    1.70
   2   1 -15    5.40    1.50
  -2  -1  15    2.60    0.90
  -2  -1  15    4.00    1.40
   1   1 -15   24.40    4.20
   1   1 -15   22.00    2.60
  -1  -1  15   23.90    2.50
  -1  -1  15   22.50    3.30
   0   1 -15    2.10    1.80
   0   1 -15    2.40    1.30
   0  -1  15    0.70    0.70
   0  -1  15    1.00    1.10
  -1   1 -15   19.10    2.50
  -1   1 -15   11.10    2.50
   1  -1  15   17.40    2.20
   1  -1  15   16.50    2.60
   4   0 -15    4.80    1.70
   4   0 -15    3.40    1.60
  -4   0  15    3.10    0.80
   3   0 -15    3.60    1.80
   3   0 -15    2.80    1.30
  -3   0  15    3.40    1.10
  -3   0  15    3.80    1.50
   2   0 -15    2.40    1.10
   2   0 -15    2.20    2.00
  -2   0  15    2.70    1.10
  -2   0  15    6.20    1.90
   1   0 -15    5.10    2.20
   1   0 -15    6.20    1.80
  -1   0  15    4.10    1.20
  -1   0  15    5.10    1.70
   0   0 -15    3.40    1.90
   0   0 -15    5.60    1.50
   0   0  15    9.90    1.90
   0   0  15    6.40    2.00
  -1   0 -15   16.40    4.20
  -1   0 -15   19.80    2.60
   1   0  15   22.10    2.50
   1   0  15   31.80    4.30
  -2   0 -15   11.80    2.20
  -2   0 -15    8.00    2.30
   2   0  15   12.60    2.10
   2   0  15   10.40    1.60
   4  -1 -15    3.50    1.10
  -4   1  15    2.60    0.90
   3  -1 -15    4.20    1.90
   3  -1 -15    4.70    1.30
  -3   1  15    5.20    1.30
  -3   1  15    7.50    1.40
   2  -1 -15    1.60    1.80
   2  -1 -15    4.40    1.30
  -2   1  15    1.90    1.20
  -2   1  15    3.10    1.00
   1  -1 -15   24.70    2.90
   1  -1 -15   27.60    4.70
  -1   1  15   26.30    4.30
  -1   1  15   24.70    2.50
   0  -1 -15    1.00    1.60
   0  -1 -15    1.60    1.10
   0   1  15    0.50    0.90
   0   1  15    0.90    1.30
  -1  -1 -15   18.40    3.60
  -1  -1 -15   20.00    2.70
   1   1  15   20.10    2.30
   1   1  15   18.30    2.50
  -2  -1 -15   38.20    3.50
   2   1  15   43.50    3.40
   2   1  15   32.10    3.60
  -4   2  15   15.70    1.60
   3  -2 -15    1.20    0.90
  -3   2  15    2.40    1.20
  -3   2  15    2.70    1.00
   2  -2 -15    4.70    1.30
   2  -2 -15    3.50    1.70
  -2   2  15    5.00    1.50
  -2   2  15    7.00    1.40
   1  -2 -15    2.40    1.10
   1  -2 -15    3.10    1.80
  -1   2  15    4.90    1.60
  -1   2  15    5.20    1.20
   0  -2 -15   19.60    2.60
   0  -2 -15   19.90    3.50
   0   2  15   20.60    2.60
   0   2  15   18.50    2.10
  -1  -2 -15    3.00    1.90
  -1  -2 -15    4.00    1.30
   1   2  15    3.00    1.60
   1   2  15    4.00    1.30
   2   2  15    5.00    1.70
   2  -3 -15    3.00    1.50
  -2   3  15    3.80    1.00
  -1   3  15    1.90    0.90
   0   3  15    0.70    0.90
   2   2 -16    2.10    1.00
  -2  -2  16    0.60    1.00
   1   2 -16    0.30    1.30
   3   1 -16    0.40    0.80
  -3  -1  16    0.20    0.60
   2   1 -16    3.40    1.30
   2   1 -16    1.60    1.60
  -2  -1  16    1.50    1.20
  -2  -1  16    1.40    0.80
   1   1 -16    9.20    1.90
   1   1 -16    4.00    2.40
  -1  -1  16    7.80    1.60
   0   1 -16    6.50    1.70
   0   1 -16    6.60    2.20
   0  -1  16    3.50    1.10
   0  -1  16    7.10    1.70
  -1   1 -16    4.30    1.30
   1  -1  16    1.60    0.80
   3   0 -16    0.40    0.80
   3   0 -16    0.30    1.70
  -3   0  16   -0.20    0.60
   2   0 -16    4.70    1.80
   2   0 -16    3.40    1.30
  -2   0  16    4.40    1.40
  -2   0  16    2.70    1.00
   1   0 -16    0.60    1.00
   1   0 -16    0.00    1.30
  -1   0  16    0.80    0.90
  -1   0  16    0.50    0.90
   0   0 -16    0.10    0.80
   0   0 -16    1.10    1.40
   0   0  16   -0.50    0.70
   0   0  16   -0.10    0.90
  -1   0 -16    2.10    2.00
  -1   0 -16    1.30    1.00
   1   0  16    0.40    0.70
   3  -1 -16    0.50    0.80
  -3   1  16   -0.30    0.50
   2  -1 -16    1.00    1.10
   2  -1 -16    1.60    1.80
  -2   1  16    2.20    1.10
  -2   1  16    1.80    0.90
   1  -1 -16    7.20    1.70
   1  -1 -16    6.20    2.00
  -1   1  16    8.60    1.80
  -1   1  16    4.80    1.00
   0  -1 -16    4.40    1.30
   0  -1 -16    4.60    1.90
   0   1  16    5.80    1.90
   0   1  16    3.70    1.00
  -1  -1 -16    2.40    1.20
  -1  -1 -16    5.60    2.20
   1   1  16    3.60    1.00
   2  -2 -16    0.30    0.80
  -2   2  16    0.60    0.60
   1  -2 -16    2.00    0.90
  -1   2  16    0.10    0.60
   0  -2 -16    0.90    1.00
   0  -2 -16   -0.10    1.60
   0   2  16    1.10    0.80
   1   0 -17   14.60    1.80
  -1   0  17   14.30    1.60
   0   0 -17    5.00    1.20
   0   0  17    4.60    1.00
   0   0   0    0.00    0.00

_computing_structure_solution     'SHELXT 2014/5 (Sheldrick, 2014)'
;
_shelx_hkl_checksum              91481
loop_
_space_group_symop_operation_xyz
'x, y, z'
'-x, y+1/2, -z'
loop_
_atom_site_type_symbol
_atom_site_label
_atom_site_fract_x
_atom_site_fract_y
_atom_site_fract_z
_atom_site_U_iso_or_equiv
_atom_site_adp_type
_atom_site_calc_flag
_atom_site_refinement_flags_adp
_atom_site_refinement_flags_occupancy
_atom_site_refinement_flags_posn
_atom_site_occupancy
_atom_site_disorder_assembly
_atom_site_disorder_group
O O1 0.1960(2) 0.4702(3) 0.89824(11) 0.0625(5) Uani d . . . 1 . .
O O2 0.7424(2) 0.7588(4) 0.78347(15) 0.0805(6) Uani d . . . 1 . .
O O3 0.4707(3) 0.3047(3) 0.79914(13) 0.0624(5) Uani d . . . 1 . .
H H18 0.404(5) 0.339(6) 0.840(2) 0.087(11) Uiso d . . . 1 . .
C C1 0.1119(4) 0.8385(6) 0.9286(2) 0.0779(8) Uani d . . . 1 . .
H H9 0.007961 0.825835 0.890882 0.117 Uiso calc U . R 1 . .
H H1 0.151583 0.983748 0.927339 0.117 Uiso calc U . R 1 . .
H H10 0.090028 0.798158 0.992298 0.117 Uiso calc U . R 1 . .
C C2 0.2491(3) 0.6918(5) 0.88938(17) 0.0602(6) Uani d . . . 1 . .
C C3 0.2691(3) 0.7247(4) 0.78282(16) 0.0557(6) Uani d . . . 1 . .
H H3 0.231388 0.868419 0.76407 0.067 Uiso calc U . R 1 . .
C C4 0.4502(3) 0.6784(4) 0.74680(16) 0.0556(6) Uani d . . . 1 . .
H H13 0.464148 0.762774 0.689449 0.067 Uiso calc U . R 1 . .
C C5 0.4485(3) 0.4379(4) 0.71789(15) 0.0539(6) Uani d . . . 1 . .
C C6 0.5899(3) 0.3785(5) 0.65100(16) 0.0576(6) Uani d . . . 1 . .
C C7 0.6061(4) 0.4840(6) 0.56602(18) 0.0742(8) Uani d . . . 1 . .
H H16 0.528818 0.5917 0.54898 0.089 Uiso calc U . R 1 . .
C C8 0.7369(4) 0.4302(6) 0.5061(2) 0.0822(9) Uani d . . . 1 . .
H H17 0.746071 0.502297 0.449221 0.099 Uiso calc U . R 1 . .
C C9 0.8519(4) 0.2735(6) 0.5293(2) 0.0772(9) Uani d . . . 1 . .
H H2 0.941228 0.241101 0.489752 0.093 Uiso calc U . R 1 . .
C C10 0.0753(3) 0.4338(5) 0.82073(17) 0.0630(7) Uani d . . . 1 . .
H H7 -0.037093 0.489813 0.835098 0.076 Uiso calc U . R 1 . .
H H8 0.0646 0.282216 0.807473 0.076 Uiso calc U . R 1 . .
C C11 0.1489(3) 0.5518(5) 0.73673(16) 0.0599(6) Uani d . . . 1 . .
H H6 0.057117 0.618429 0.698153 0.072 Uiso calc U . R 1 . .
C C12 0.2664(3) 0.4156(5) 0.67587(16) 0.0619(7) Uani d . . . 1 . .
H H4 0.230398 0.267223 0.676651 0.074 Uiso calc U . R 1 . .
H H5 0.261633 0.465892 0.611274 0.074 Uiso calc U . R 1 . .
C C13 0.4128(4) 0.7149(5) 0.94767(18) 0.0689(7) Uani d . . . 1 . .
H H11 0.404718 0.712392 1.012808 0.083 Uiso calc U . R 1 . .
C C14 0.5668(4) 0.7385(5) 0.91300(19) 0.0706(7) Uani d . . . 1 . .
H H12 0.659497 0.761699 0.954635 0.085 Uiso calc U . R 1 . .
C C15 0.5987(3) 0.7299(4) 0.81278(19) 0.0607(6) Uani d . . . 1 . .
C C16 0.7051(3) 0.2187(5) 0.67272(19) 0.0658(6) Uani d . . . 1 . .
H H15 0.69696 0.145178 0.729298 0.079 Uiso calc U . R 1 . .
C C17 0.8337(4) 0.1650(6) 0.6114(2) 0.0775(8) Uani d . . . 1 . .
H H14 0.908412 0.053445 0.626628 0.093 Uiso calc U . R 1 . .
loop_
_atom_site_aniso_label
_atom_site_aniso_U_11
_atom_site_aniso_U_22
_atom_site_aniso_U_33
_atom_site_aniso_U_12
_atom_site_aniso_U_13
_atom_site_aniso_U_23
O1 0.0647(10) 0.0662(12) 0.0568(9) 0.0004(9) 0.0024(8) 0.0061(8)
O2 0.0552(11) 0.0824(16) 0.1034(14) -0.0031(10) -0.0037(10) 0.0053(12)
O3 0.0707(11) 0.0568(11) 0.0601(9) 0.0089(9) 0.0092(8) 0.0135(8)
C1 0.0774(19) 0.079(2) 0.0778(16) 0.0121(17) 0.0068(14) -0.0116(15)
C2 0.0609(14) 0.0587(17) 0.0608(13) 0.0019(13) -0.0003(11) -0.0019(12)
C3 0.0541(12) 0.0518(14) 0.0609(12) 0.0063(12) -0.0024(10) 0.0060(11)
C4 0.0539(12) 0.0547(16) 0.0581(12) 0.0011(12) -0.0005(10) 0.0123(11)
C5 0.0572(13) 0.0508(15) 0.0537(11) 0.0010(11) 0.0027(10) 0.0080(10)
C6 0.0587(13) 0.0568(15) 0.0575(12) -0.0022(12) 0.0036(11) 0.0015(11)
C7 0.0782(18) 0.076(2) 0.0694(15) 0.0082(16) 0.0147(14) 0.0121(14)
C8 0.0838(19) 0.096(3) 0.0677(15) -0.009(2) 0.0191(15) 0.0097(17)
C9 0.0638(16) 0.091(2) 0.0780(17) -0.0064(17) 0.0160(13) -0.0122(17)
C10 0.0561(13) 0.0672(18) 0.0656(13) -0.0053(13) 0.0012(11) 0.0026(13)
C11 0.0510(13) 0.0696(17) 0.0587(12) 0.0019(12) -0.0049(10) 0.0051(13)
C12 0.0616(14) 0.0675(18) 0.0564(12) -0.0019(13) 0.0007(11) -0.0005(12)
C13 0.0768(17) 0.0683(17) 0.0610(13) 0.0006(16) -0.0083(12) -0.0017(14)
C14 0.0677(17) 0.0704(19) 0.0725(16) -0.0003(16) -0.0171(13) -0.0036(15)
C15 0.0524(14) 0.0479(14) 0.0815(15) 0.0008(12) -0.0044(11) 0.0061(13)
C16 0.0679(15) 0.0587(16) 0.0711(14) 0.0042(14) 0.0060(12) 0.0018(13)
C17 0.0675(17) 0.073(2) 0.0920(19) 0.0092(16) 0.0088(14) -0.0072(16)
loop_
_atom_type_symbol
_atom_type_description
_atom_type_scat_dispersion_real
_atom_type_scat_dispersion_imag
_atom_type_scat_source
C C 0.0181 0.0091 'International Tables Vol C Tables 4.2.6.8 and 6.1.1.4'
H H 0.0000 0.0000 'International Tables Vol C Tables 4.2.6.8 and 6.1.1.4'
O O 0.0492 0.0322 'International Tables Vol C Tables 4.2.6.8 and 6.1.1.4'
loop_
_geom_angle_atom_site_label_1
_geom_angle_atom_site_label_2
_geom_angle_atom_site_label_3
_geom_angle_site_symmetry_1
_geom_angle_site_symmetry_3
_geom_angle
_geom_angle_publ_flag
C10 O1 C2 . . 105.32(19) ?
C5 O3 H18 . . 111.(3) ?
C2 C1 H9 . . 109.5 ?
C2 C1 H1 . . 109.5 ?
H9 C1 H1 . . 109.5 ?
C2 C1 H10 . . 109.5 ?
H9 C1 H10 . . 109.5 ?
H1 C1 H10 . . 109.5 ?
O1 C2 C13 . . 106.4(2) ?
O1 C2 C1 . . 109.7(2) ?
C13 C2 C1 . . 109.3(2) ?
O1 C2 C3 . . 104.5(2) ?
C13 C2 C3 . . 114.7(2) ?
C1 C2 C3 . . 111.8(2) ?
C2 C3 C4 . . 115.00(19) ?
C2 C3 C11 . . 104.0(2) ?
C4 C3 C11 . . 105.8(2) ?
C2 C3 H3 . . 110.6 ?
C4 C3 H3 . . 110.6 ?
C11 C3 H3 . . 110.6 ?
C15 C4 C3 . . 116.5(2) ?
C15 C4 C5 . . 111.8(2) ?
C3 C4 C5 . . 105.6(2) ?
C15 C4 H13 . . 107.5 ?
C3 C4 H13 . . 107.5 ?
C5 C4 H13 . . 107.5 ?
O3 C5 C6 . . 106.9(2) ?
O3 C5 C12 . . 110.5(2) ?
C6 C5 C12 . . 114.44(19) ?
O3 C5 C4 . . 110.48(18) ?
C6 C5 C4 . . 113.6(2) ?
C12 C5 C4 . . 101.0(2) ?
C16 C6 C7 . . 117.8(2) ?
C16 C6 C5 . . 121.2(2) ?
C7 C6 C5 . . 121.0(2) ?
C6 C7 C8 . . 120.5(3) ?
C6 C7 H16 . . 119.8 ?
C8 C7 H16 . . 119.8 ?
C9 C8 C7 . . 121.0(3) ?
C9 C8 H17 . . 119.5 ?
C7 C8 H17 . . 119.5 ?
C8 C9 C17 . . 118.8(3) ?
C8 C9 H2 . . 120.6 ?
C17 C9 H2 . . 120.6 ?
O1 C10 C11 . . 105.6(2) ?
O1 C10 H7 . . 110.6 ?
C11 C10 H7 . . 110.6 ?
O1 C10 H8 . . 110.6 ?
C11 C10 H8 . . 110.6 ?
H7 C10 H8 . . 108.8 ?
C10 C11 C12 . . 114.6(2) ?
C10 C11 C3 . . 103.96(18) ?
C12 C11 C3 . . 105.17(19) ?
C10 C11 H6 . . 110.9 ?
C12 C11 H6 . . 110.9 ?
C3 C11 H6 . . 110.9 ?
C5 C12 C11 . . 106.9(2) ?
C5 C12 H4 . . 110.3 ?
C11 C12 H4 . . 110.3 ?
C5 C12 H5 . . 110.3 ?
C11 C12 H5 . . 110.3 ?
H4 C12 H5 . . 108.6 ?
C14 C13 C2 . . 124.7(2) ?
C14 C13 H11 . . 117.7 ?
C2 C13 H11 . . 117.7 ?
C13 C14 C15 . . 123.2(2) ?
C13 C14 H12 . . 118.4 ?
C15 C14 H12 . . 118.4 ?
O2 C15 C14 . . 121.1(2) ?
O2 C15 C4 . . 121.0(2) ?
C14 C15 C4 . . 117.9(2) ?
C6 C16 C17 . . 120.9(3) ?
C6 C16 H15 . . 119.6 ?
C17 C16 H15 . . 119.6 ?
C9 C17 C16 . . 120.9(3) ?
C9 C17 H14 . . 119.5 ?
C16 C17 H14 . . 119.5 ?
loop_
_geom_bond_atom_site_label_1
_geom_bond_atom_site_label_2
_geom_bond_site_symmetry_2
_geom_bond_distance
_geom_bond_publ_flag
O1 C10 . 1.443(3) ?
O1 C2 . 1.453(4) ?
O2 C15 . 1.219(3) ?
O3 C5 . 1.430(3) ?
O3 H18 . 0.83(4) ?
C1 C2 . 1.527(4) ?
C1 H9 . 0.96 ?
C1 H1 . 0.96 ?
C1 H10 . 0.96 ?
C2 C13 . 1.504(3) ?
C2 C3 . 1.541(3) ?
C3 C4 . 1.542(3) ?
C3 C11 . 1.560(4) ?
C3 H3 . 0.98 ?
C4 C15 . 1.500(3) ?
C4 C5 . 1.559(4) ?
C4 H13 . 0.98 ?
C5 C6 . 1.523(3) ?
C5 C12 . 1.527(3) ?
C6 C16 . 1.372(4) ?
C6 C7 . 1.386(4) ?
C7 C8 . 1.390(4) ?
C7 H16 . 0.93 ?
C8 C9 . 1.361(5) ?
C8 H17 . 0.93 ?
C9 C17 . 1.361(4) ?
C9 H2 . 0.93 ?
C10 C11 . 1.530(3) ?
C10 H7 . 0.97 ?
C10 H8 . 0.97 ?
C11 C12 . 1.536(4) ?
C11 H6 . 0.98 ?
C12 H4 . 0.97 ?
C12 H5 . 0.97 ?
C13 C14 . 1.319(4) ?
C13 H11 . 0.93 ?
C14 C15 . 1.454(4) ?
C14 H12 . 0.93 ?
C16 C17 . 1.389(4) ?
C16 H15 . 0.93 ?
C17 H14 . 0.93 ?
loop_
_geom_torsion_atom_site_label_1
_geom_torsion_atom_site_label_2
_geom_torsion_atom_site_label_3
_geom_torsion_atom_site_label_4
_geom_torsion_site_symmetry_1
_geom_torsion_site_symmetry_2
_geom_torsion_site_symmetry_3
_geom_torsion_site_symmetry_4
_geom_torsion
_geom_torsion_publ_flag
C10 O1 C2 C13 . . . . -162.1(2) ?
C10 O1 C2 C1 . . . . 79.7(2) ?
C10 O1 C2 C3 . . . . -40.3(2) ?
O1 C2 C3 C4 . . . . -90.6(3) ?
C13 C2 C3 C4 . . . . 25.5(4) ?
C1 C2 C3 C4 . . . . 150.8(3) ?
O1 C2 C3 C11 . . . . 24.6(2) ?
C13 C2 C3 C11 . . . . 140.7(2) ?
C1 C2 C3 C11 . . . . -94.0(3) ?
C2 C3 C4 C15 . . . . -33.7(3) ?
C11 C3 C4 C15 . . . . -147.9(2) ?
C2 C3 C4 C5 . . . . 91.1(3) ?
C11 C3 C4 C5 . . . . -23.1(2) ?
C15 C4 C5 O3 . . . . 48.1(3) ?
C3 C4 C5 O3 . . . . -79.5(2) ?
C15 C4 C5 C6 . . . . -71.9(3) ?
C3 C4 C5 C6 . . . . 160.40(18) ?
C15 C4 C5 C12 . . . . 165.0(2) ?
C3 C4 C5 C12 . . . . 37.4(2) ?
O3 C5 C6 C16 . . . . 1.8(3) ?
C12 C5 C6 C16 . . . . -120.8(3) ?
C4 C5 C6 C16 . . . . 123.9(3) ?
O3 C5 C6 C7 . . . . -178.4(3) ?
C12 C5 C6 C7 . . . . 59.0(4) ?
C4 C5 C6 C7 . . . . -56.3(3) ?
C16 C6 C7 C8 . . . . -0.9(5) ?
C5 C6 C7 C8 . . . . 179.2(3) ?
C6 C7 C8 C9 . . . . -0.1(5) ?
C7 C8 C9 C17 . . . . 2.0(5) ?
C2 O1 C10 C11 . . . . 39.8(3) ?
O1 C10 C11 C12 . . . . 91.4(3) ?
O1 C10 C11 C3 . . . . -22.8(3) ?
C2 C3 C11 C10 . . . . -1.3(3) ?
C4 C3 C11 C10 . . . . 120.3(2) ?
C2 C3 C11 C12 . . . . -122.0(2) ?
C4 C3 C11 C12 . . . . -0.4(2) ?
O3 C5 C12 C11 . . . . 78.8(3) ?
C6 C5 C12 C11 . . . . -160.5(2) ?
C4 C5 C12 C11 . . . . -38.1(2) ?
C10 C11 C12 C5 . . . . -89.0(3) ?
C3 C11 C12 C5 . . . . 24.5(3) ?
O1 C2 C13 C14 . . . . 107.9(3) ?
C1 C2 C13 C14 . . . . -133.6(3) ?
C3 C2 C13 C14 . . . . -7.1(5) ?
C2 C13 C14 C15 . . . . -4.5(5) ?
C13 C14 C15 O2 . . . . 177.8(3) ?
C13 C14 C15 C4 . . . . -3.8(5) ?
C3 C4 C15 O2 . . . . -158.5(3) ?
C5 C4 C15 O2 . . . . 80.0(3) ?
C3 C4 C15 C14 . . . . 23.2(4) ?
C5 C4 C15 C14 . . . . -98.4(3) ?
C7 C6 C16 C17 . . . . 0.1(4) ?
C5 C6 C16 C17 . . . . 179.9(3) ?
C8 C9 C17 C16 . . . . -2.8(5) ?
C6 C16 C17 C9 . . . . 1.8(5) ?
