#------------------------------------------------------------------------------
#$Date: 2021-07-30 00:16:07 +0300 (Fri, 30 Jul 2021) $
#$Revision: 267817 $
#$URL: file:///home/coder/svn-repositories/cod/cif/4/51/89/4518923.cif $
#------------------------------------------------------------------------------
#
# This file is available in the Crystallography Open Database (COD),
# http://www.crystallography.net/
#
# All data on this site have been placed in the public domain by the
# contributors.
#
data_4518923
loop_
_publ_author_name
'Xing, Wenhao'
'Liang, Fei'
'Tang, Chunlan'
'Uykur, Ece'
'Lin, Zheshuai'
'Yao, Jiyong'
'Yin, Wenlong'
'Kang, Bin'
_publ_section_title
;
 Highly Distorted [HgS<sub>4</sub>] Motif-Driven Structural Symmetry
 Degradation and Strengthened Second-Harmonic Generation Response in the
 Defect Diamond-Like Chalcogenide
 Hg<sub>3</sub>P<sub>2</sub>S<sub>8</sub>.
;
_journal_name_full               'ACS applied materials &amp; interfaces'
_journal_paper_doi               10.1021/acsami.1c06933
_journal_year                    2021
_chemical_formula_moiety         '0.25(Hg12 P8 S32)'
_chemical_formula_sum            'Hg3 P2 S8'
_chemical_formula_weight         920.19
_space_group_crystal_system      orthorhombic
_space_group_IT_number           41
_space_group_name_Hall           'A 2 -2ab'
_space_group_name_H-M_alt        'A e a 2'
_atom_sites_solution_primary     dual
_audit_creation_date             2020-06-19
_audit_creation_method
;
Olex2 1.2
(compiled 2018.05.29 svn.r3508 for OlexSys, GUI svn.r5506)
;
_cell_angle_alpha                90
_cell_angle_beta                 90
_cell_angle_gamma                90
_cell_formula_units_Z            4
_cell_length_a                   16.3786(8)
_cell_length_b                   8.1613(4)
_cell_length_c                   9.2723(5)
_cell_measurement_reflns_used    5190
_cell_measurement_temperature    149.99(10)
_cell_measurement_theta_max      26.3580
_cell_measurement_theta_min      3.5600
_cell_volume                     1239.43(11)
_computing_cell_refinement       'CrysAlisPro 1.171.39.44a (Rigaku OD, 2018)'
_computing_data_collection       'CrysAlisPro 1.171.39.44a (Rigaku OD, 2018)'
_computing_data_reduction        'CrysAlisPro 1.171.39.44a (Rigaku OD, 2018)'
_computing_molecular_graphics    'Olex2 (Dolomanov et al., 2009)'
_computing_publication_material  'Olex2 (Dolomanov et al., 2009)'
_computing_structure_refinement  'ShelXL (Sheldrick, 2015)'
_computing_structure_solution    'ShelXT (Sheldrick, 2015)'
_diffrn_ambient_environment      N~2~
_diffrn_ambient_temperature      149.99(10)
_diffrn_detector                 'CCD plate'
_diffrn_detector_type            HyPix
_diffrn_measured_fraction_theta_full 0.998
_diffrn_measured_fraction_theta_max 0.999
_diffrn_measurement_details
;
List of Runs (angles in degrees, time in seconds):

  # Type    Start    End  Width  t~exp~   \w     \q     \k     \f   Frames
--------------------------------------------------------------------------
  1  \w    -28.00  51.00   0.50    9.00    --   -8.37  74.00  21.00  158
  2  \w    -13.00  54.00   0.50    9.00    --   -8.37  57.00  60.00  134
  3  \w    -20.00  63.00   0.50    9.00    --   -8.37  19.00   0.00  166
  4  \w    -24.00   7.00   0.50    9.00    --   -8.37 -99.00-150.00   62
  5  \w      8.00  42.00   0.50    9.00    --    9.46 -99.00-180.00   68
  6  \w     -6.00  24.00   0.50    9.00    --    9.46 -99.00 -30.00   60
  7  \w    -22.00  17.00   0.50    9.00    --   -8.37 -99.00 120.00   78
  8  \w    -80.00   5.00   0.50    9.00    --   -8.37 -74.00-106.00  170
;
_diffrn_measurement_device       'four-circle diffractometer'
_diffrn_measurement_device_type  'XtaLAB Synergy, Dualflex, HyPix'
_diffrn_measurement_method       '\w scans'
_diffrn_orient_matrix_type
'CrysAlisPro convention (1999,Acta A55,543-557)'
_diffrn_orient_matrix_UB_11      -0.0554873000
_diffrn_orient_matrix_UB_12      -0.0284781000
_diffrn_orient_matrix_UB_13      -0.0261854000
_diffrn_orient_matrix_UB_21      -0.0066795000
_diffrn_orient_matrix_UB_22      -0.0719889000
_diffrn_orient_matrix_UB_23      0.0240144000
_diffrn_orient_matrix_UB_31      -0.0522250000
_diffrn_orient_matrix_UB_32      0.0395422000
_diffrn_orient_matrix_UB_33      0.0247481000
_diffrn_radiation_monochromator  mirror
_diffrn_radiation_probe          x-ray
_diffrn_radiation_type           MoK\a
_diffrn_radiation_wavelength     0.71073
_diffrn_reflns_av_R_equivalents  0.0392
_diffrn_reflns_av_unetI/netI     0.0229
_diffrn_reflns_Laue_measured_fraction_full 0.998
_diffrn_reflns_Laue_measured_fraction_max 0.999
_diffrn_reflns_limit_h_max       20
_diffrn_reflns_limit_h_min       -20
_diffrn_reflns_limit_k_max       10
_diffrn_reflns_limit_k_min       -10
_diffrn_reflns_limit_l_max       11
_diffrn_reflns_limit_l_min       -11
_diffrn_reflns_number            7688
_diffrn_reflns_point_group_measured_fraction_full 0.991
_diffrn_reflns_point_group_measured_fraction_max 0.988
_diffrn_reflns_theta_full        25.242
_diffrn_reflns_theta_max         26.370
_diffrn_reflns_theta_min         3.551
_diffrn_source                   'micro-focus sealed X-ray tube'
_diffrn_source_type              'PhotonJet (Mo) X-ray Source'
_exptl_absorpt_coefficient_mu    38.623
_exptl_absorpt_correction_T_max  1.00000
_exptl_absorpt_correction_T_min  0.53111
_exptl_absorpt_correction_type   multi-scan
_exptl_absorpt_process_details
;
CrysAlisPro 1.171.39.44a (Rigaku Oxford Diffraction, 2018)
Empirical absorption correction using spherical harmonics,
 implemented in SCALE3 ABSPACK scaling algorithm.
;
_exptl_crystal_colour            'clear yellowish yellow'
_exptl_crystal_colour_lustre     clear
_exptl_crystal_colour_modifier   yellowish
_exptl_crystal_colour_primary    yellow
_exptl_crystal_density_diffrn    4.931
_exptl_crystal_description       block
_exptl_crystal_F_000             1592
_exptl_crystal_size_max          0.03
_exptl_crystal_size_mid          0.03
_exptl_crystal_size_min          0.02
_refine_diff_density_max         0.742
_refine_diff_density_min         -0.610
_refine_diff_density_rms         0.161
_refine_ls_abs_structure_details
;
 Flack x determined using 532 quotients [(I+)-(I-)]/[(I+)+(I-)]
 (Parsons, Flack and Wagner, Acta Cryst. B69 (2013) 249-259).
;
_refine_ls_abs_structure_Flack   0.011(7)
_refine_ls_extinction_coef       0.00057(3)
_refine_ls_extinction_expression Fc^*^=kFc[1+0.001xFc^2^\l^3^/sin(2\q)]^-1/4^
_refine_ls_extinction_method     'SHELXL-2014/7 (Sheldrick 2014'
_refine_ls_goodness_of_fit_ref   1.055
_refine_ls_hydrogen_treatment    undef
_refine_ls_matrix_type           full
_refine_ls_number_parameters     61
_refine_ls_number_reflns         1260
_refine_ls_number_restraints     1
_refine_ls_restrained_S_all      1.055
_refine_ls_R_factor_all          0.0153
_refine_ls_R_factor_gt           0.0145
_refine_ls_shift/su_max          0.000
_refine_ls_shift/su_mean         0.000
_refine_ls_structure_factor_coef Fsqd
_refine_ls_weighting_details
'w=1/[\s^2^(Fo^2^)+(0.0169P)^2^] where P=(Fo^2^+2Fc^2^)/3'
_refine_ls_weighting_scheme      calc
_refine_ls_wR_factor_gt          0.0353
_refine_ls_wR_factor_ref         0.0356
_reflns_Friedel_coverage         0.856
_reflns_Friedel_fraction_full    0.983
_reflns_Friedel_fraction_max     0.976
_reflns_number_gt                1207
_reflns_number_total             1260
_reflns_threshold_expression     'I > 2\s(I)'
_cod_data_source_file            am1c06933_si_002.cif
_cod_data_source_block           Hg3P2S8
_cod_original_sg_symbol_Hall     'A 2 -2ac'
_cod_database_code               4518923
_shelx_shelxl_version_number     2014/7
_chemical_oxdiff_formula         HgPS
_shelx_space_group_comment
;
The symmetry employed for this shelxl refinement is uniquely defined
by the following loop, which should always be used as a source of
symmetry information in preference to the above space-group names.
They are only intended as comments.
;
_shelx_estimated_absorpt_t_max   0.512
_shelx_estimated_absorpt_t_min   0.390
_reflns_odcompleteness_completeness 83.41
_reflns_odcompleteness_iscentric 1
_reflns_odcompleteness_theta     28.22
_olex2_refinement_description
;
;
_shelx_res_file
;
    hy_7065.res created by SHELXL-2014/7

TITL hy_7065_b.res in Aba2
REM Old TITL hy_7065 in Cmce
REM SHELXT solution in Aba2
REM R1 0.048, Rweak 0.001, Alpha 0.037, Orientation a'=c, b'=-b, c'=a
REM Flack x = 0.022 ( 0.007 ) from Parsons' quotients
REM Formula found by SHELXT: P2 S8 Hg3
CELL 0.71073 16.3786 8.1613 9.2723 90 90 90
ZERR 4 0.0008 0.0004 0.0005 0 0 0
LATT -5
SYMM -X,-Y,+Z
SYMM 0.5+X,0.5-Y,+Z
SYMM 0.5-X,0.5+Y,+Z
SFAC Hg P S
UNIT 12 8 32

L.S. 10
PLAN  20
SIZE 0.03 0.03 0.02
LIST 6
fmap 2
acta
REM <olex2.extras>
REM <HklSrc "%.\\hy_7065.hkl">
REM </olex2.extras>

WGHT    0.016900
EXTI    0.000574
FVAR       0.11089
HG1   1    0.500000    0.500000    0.298230    10.50000    0.01156    0.00873 =
         0.01897    0.00000    0.00000    0.00449
HG2   1    0.255084    0.501918    0.702079    11.00000    0.01054    0.01135 =
         0.01357    0.00126   -0.00072   -0.00252
P1    2    0.371255    0.765356    0.469461    11.00000    0.00602    0.00643 =
         0.00656    0.00025    0.00004   -0.00004
S2    3    0.389629    0.562367    0.592084    11.00000    0.00758    0.00934 =
         0.01189    0.00451   -0.00038    0.00227
S4    3    0.256160    0.758601    0.377719    11.00000    0.00725    0.00729 =
         0.00797   -0.00025   -0.00108   -0.00084
S3    3    0.378260    0.987368    0.572763    11.00000    0.00683    0.00668 =
         0.01085   -0.00337   -0.00011   -0.00075
S1    3    0.466419    0.783374    0.326665    11.00000    0.00920    0.00731 =
         0.00939    0.00161    0.00457    0.00015
HKLF 4

REM  hy_7065_b.res in Aba2
REM R1 =  0.0145 for    1207 Fo > 4sig(Fo)  and  0.0153 for all    1260 data
REM     61 parameters refined using      1 restraints

END

WGHT      0.0169      0.0000

REM Highest difference peak  0.742,  deepest hole -0.610,  1-sigma level  0.161
Q1    1   0.5000  0.5000  0.5380  10.50000  0.05    0.74
Q2    1   0.4774  1.0032  0.5439  11.00000  0.05    0.64
Q3    1   0.5158  0.4990  0.1519  11.00000  0.05    0.64
Q4    1   0.2677  0.5079  0.4521  11.00000  0.05    0.61
Q5    1   0.2809  0.4397  0.6798  11.00000  0.05    0.60
Q6    1   0.2855  0.5248  0.7432  11.00000  0.05    0.55
Q7    1   0.2154  0.4827  0.6477  11.00000  0.05    0.54
Q8    1   0.4685  0.9984  0.3476  11.00000  0.05    0.54
Q9    1   0.3232  1.0164  0.6251  11.00000  0.05    0.53
Q10   1   0.2671  0.4982  0.8546  11.00000  0.05    0.52
Q11   1   0.3381  0.5036  0.6364  11.00000  0.05    0.52
Q12   1   0.2713  0.9999  0.4662  11.00000  0.05    0.52
Q13   1   0.4625  1.0048  0.2881  11.00000  0.05    0.50
Q14   1   0.3219  0.5036  0.7764  11.00000  0.05    0.48
Q15   1   0.2272  0.4410  0.7444  11.00000  0.05    0.47
Q16   1   0.5304  0.5141  0.2583  11.00000  0.05    0.47
Q17   1   0.5334  0.5548  0.3311  11.00000  0.05    0.46
Q18   1   0.2895  0.4892  0.6430  11.00000  0.05    0.46
Q19   1   0.1669  0.5016  0.7643  11.00000  0.05    0.46
Q20   1   0.2201  0.5737  0.6678  11.00000  0.05    0.45
;
_shelx_res_checksum              49995
_shelx_hkl_file
;
   3   0   0   -0.13    0.39
  -3   0   0   -0.30    0.43
  -3   0   0    0.13    0.41
  -4   0   0 5399.63  157.38
   4   0   0 5057.45  157.01
   5   0   0    0.41    0.77
  -5   0   0    0.25    0.70
  -6   0   0 1546.15   54.86
   6   0   0 1581.83   54.70
   6   0   0 1673.05   54.44
   7   0   0   -0.14    0.98
  -7   0   0   -0.18    1.12
   7   0   0    0.33    1.02
   7   0   0   -0.14    0.94
   8   0   0 9564.71  316.06
   8   0   0 9643.03  316.04
   8   0   0 9825.83  316.56
  -8   0   0 9484.51  316.92
  -9   0   0   -0.25    1.35
   9   0   0    1.24    1.43
   9   0   0    0.37    1.30
 -10   0   0  665.01   26.91
  10   0   0  704.95   26.01
 -11   0   0   -0.60    1.78
  11   0   0   -0.44    1.61
 -11   0   0   -0.76    1.72
 -12   0   0 1993.35   69.78
  12   0   0 1887.41   67.03
 -12   0   0 1945.08   68.69
  12   0   0 2062.42   68.22
 -13   0   0    1.50    2.12
 -13   0   0    0.73    2.42
  13   0   0   -0.25    1.70
  13   0   0    0.39    1.41
 -14   0   0 1011.56   39.29
  14   0   0 1063.45   37.49
  14   0   0  978.77   36.07
 -14   0   0  972.92   38.22
 -15   0   0    1.25    2.72
  15   0   0   -0.59    1.54
 -15   0   0    1.80    2.62
  15   0   0    1.12    2.17
 -16   0   0 2948.64  103.05
  16   0   0 2794.83   99.54
 -16   0   0 3023.05  104.25
  17   0   0    1.59    2.63
 -17   0   0   -0.46    3.08
 -17   0   0    0.41    2.93
  17   0   0    1.57    1.80
 -18   0   0  184.37   12.22
  18   0   0  172.99    8.55
 -19   0   0   -0.50    3.44
  19   0   0    1.26    1.72
  20   0   0  566.55   21.00
 -20   0   0  851.02   30.38
   0   0   2 3757.50  118.50
   0   0   2 3705.25  118.26
   0   0   2 3691.75  116.83
  -1   0  -2    0.42    0.71
   1   0   2    0.36    0.85
  -1   0   2    0.06    0.38
   1   0   2    0.63    0.88
  -1   0   2   -0.12    0.73
  -1   0   2    0.69    0.87
  -1   0  -2   -0.13    0.36
  -2   0   2 2477.19   82.08
  -2   0   2 2413.70   81.29
  -2   0  -2 2479.71   81.08
  -2   0  -2 2476.86   82.31
  -2   0   2 2524.42   81.92
  -2   0   2 2403.26   80.93
  -3   0  -2   -0.14    0.78
  -3   0   2   -0.12    0.84
  -3   0   2    0.51    0.51
  -3   0   2    0.20    0.59
  -3   0   2    0.83    0.94
   4   0  -2 7060.76  237.28
   4   0   2 7291.51  235.95
  -4   0   2 7985.52  237.69
  -4   0   2 7722.45  237.40
  -4   0  -2 6950.55  236.16
  -4   0   2 7372.76  236.86
  -4   0  -2 6672.66  237.54
   4   0   2 7085.89  237.38
   5   0   2   -0.06    0.52
   5   0  -2   -0.12    0.48
  -5   0  -2    0.08    0.57
   5   0  -2   -0.14    0.80
  -5   0  -2    1.20    0.92
  -5   0   2   -0.11    0.73
   5   0  -2    0.28    0.86
   5   0  -2    1.30    0.93
  -5   0   2    0.70    1.04
   5   0   2    0.37    0.80
  -6   0  -2 2224.12   75.74
   6   0  -2 2220.11   76.66
  -6   0   2 2143.28   75.05
   6   0  -2 2232.99   76.41
   6   0  -2 2382.52   75.29
  -6   0   2 2314.26   76.02
  -6   0  -2 2365.28   76.47
   6   0   2 2270.11   76.15
  -6   0   2 2195.65   75.95
   6   0  -2 2442.67   76.99
  -6   0   2 2352.58   76.73
   7   0  -2   -0.09    0.66
   7   0  -2    1.21    1.10
   7   0   2    0.24    0.81
   7   0  -2   -0.14    0.91
  -7   0  -2   -0.13    0.86
  -7   0   2    0.65    0.78
  -7   0   2   -0.11    0.81
  -7   0  -2   -0.38    0.90
  -7   0  -2   -0.25    1.19
  -7   0   2    0.27    0.68
   7   0  -2    1.17    1.12
  -8   0   2 2099.26   73.63
   8   0  -2 2371.72   73.98
  -8   0  -2 2292.53   77.07
  -8   0   2 2070.35   74.42
   8   0  -2 2250.52   74.44
   8   0   2 2151.21   73.93
  -8   0   2 2087.91   73.85
  -8   0  -2 2269.22   74.34
  -8   0  -2 2175.70   74.47
   8   0  -2 2449.02   75.70
   8   0  -2 2288.30   75.18
  -9   0  -2    0.17    1.22
   9   0   2   -0.69    0.90
  -9   0  -2    0.62    1.45
   9   0  -2    0.19    1.09
  -9   0  -2    0.38    0.94
  -9   0   2    0.43    1.05
  -9   0   2   -0.17    1.12
  -9   0   2    0.39    0.84
   9   0  -2    0.13    0.96
   9   0  -2    0.43    1.34
 -10   0   2  947.17   31.14
 -10   0  -2  716.06   32.40
 -10   0   2  891.86   32.31
 -10   0  -2  723.44   30.52
  10   0  -2  798.75   31.47
  10   0   2  823.27   28.88
  10   0  -2  747.88   30.58
 -10   0   2  960.94   29.10
 -10   0   2  979.78   30.93
  10   0  -2  790.90   29.97
  11   0  -2    0.81    1.84
  11   0   2   -0.25    0.66
 -11   0   2    1.21    1.52
  11   0  -2   -0.21    1.35
  11   0   2    0.06    0.58
 -11   0  -2   -0.37    1.90
  11   0   2    1.79    1.90
 -11   0   2    0.06    0.69
 -11   0   2    0.78    1.37
 -12   0   2 2970.09   97.56
  12   0  -2 3125.22  102.50
 -12   0   2 3018.69   97.59
  12   0   2 3151.66  102.13
 -12   0   2 3020.16  100.94
  12   0  -2 2742.87  100.45
 -12   0  -2 2709.30  103.64
 -13   0  -2   -0.84    2.30
 -13   0  -2    1.72    2.74
  13   0  -2   -0.32    2.03
  13   0  -2   -0.22    1.54
  13   0   2    2.61    2.02
 -13   0   2    0.96    1.69
  14   0   2  957.89   34.60
 -14   0   2  929.75   33.62
 -14   0  -2  845.91   36.43
  14   0  -2  910.62   34.96
 -14   0  -2  864.37   33.97
  14   0  -2  834.39   32.44
 -15   0   2   -0.28    2.17
 -15   0  -2   -0.49    3.00
 -15   0   2    0.39    2.61
  15   0   2    0.65    2.69
  15   0  -2    0.38    2.65
  15   0  -2    1.31    1.77
 -16   0   2  703.47   31.31
 -16   0   2  718.97   29.68
  16   0  -2  778.58   28.54
  16   0   2  721.79   30.32
 -16   0  -2  758.74   33.36
 -17   0   2    0.46    3.22
 -17   0  -2   -0.55    3.63
  17   0  -2    3.50    3.65
  17   0   2    1.80    3.28
 -17   0   2    0.32    2.45
  17   0  -2    0.21    1.67
  18   0  -2  140.16    8.48
 -18   0   2  332.58   15.39
 -18   0  -2  147.60   12.21
  18   0  -2  173.53   12.03
 -19   0   2    0.52    3.74
  19   0  -2   -0.51    1.85
  19   0   2   -0.41    1.93
  19   0  -2   -0.96    3.40
  19   0   2   -0.19    2.00
 -19   0  -2    2.40    3.92
 -19   0   2   -0.34    2.83
  20   0   2  922.61   34.38
 -20   0   2 1034.12   40.94
  20   0  -2 1036.54   40.45
 -20   0  -2  995.68   41.76
   0   0   4  293.00   10.84
   0   0   4  323.08   13.32
   0   0   4  323.23   13.53
  -1   0   4    0.20    0.63
   1   0   4    0.46    1.37
  -1   0   4   -0.24    1.37
   1   0   4    1.42    1.55
   1   0  -4   -0.30    0.90
   1   0   4    0.33    0.46
  -1   0   4   -0.23    1.44
  -2   0   4 6382.54  209.40
  -2   0   4 6132.18  207.35
  -2   0  -4 6626.14  207.68
  -2   0   4 6464.47  209.24
   2   0   4 6003.02  209.22
   2   0   4 6257.40  207.49
  -3   0   4    0.15    0.91
  -3   0   4    0.47    1.20
  -3   0   4   -0.11    0.90
  -3   0  -4    0.54    0.86
  -3   0  -4   -0.28    1.42
  -3   0   4    3.16    1.70
   4   0  -4 1084.29   40.01
  -4   0   4 1057.76   39.00
  -4   0  -4 1151.11   37.65
  -4   0  -4 1194.62   40.29
  -4   0   4 1054.96   37.14
  -4   0   4 1095.75   39.06
   4   0   4 1036.68   39.13
  -4   0   4  985.28   37.79
  -5   0   4    0.24    1.61
   5   0  -4    1.04    1.37
   5   0   4    1.01    1.80
  -5   0   4   -1.17    1.04
   5   0  -4    0.29    1.42
  -5   0  -4   -0.32    1.12
  -5   0  -4    0.82    1.39
  -5   0   4   -0.19    1.13
   5   0   4    2.69    1.75
  -5   0   4   -0.46    1.55
   6   0  -4 3787.73  124.28
   6   0   4 3793.79  127.68
   6   0   4 3829.28  128.07
  -6   0  -4 4011.33  128.48
   6   0  -4 4060.96  128.84
  -6   0   4 3873.42  127.46
  -6   0   4 3861.45  127.58
  -6   0   4 3613.93  125.77
  -6   0   4 3563.92  126.84
   7   0  -4    0.30    1.57
   7   0  -4    0.90    0.56
  -7   0   4    0.70    1.35
  -7   0   4    0.49    1.64
   7   0  -4    0.53    1.14
   7   0   4    0.25    1.64
  -7   0  -4   -0.55    1.55
  -7   0   4    0.22    1.51
  -8   0  -4  491.58   22.38
   8   0  -4  512.93   21.72
   8   0  -4  556.58   20.31
  -8   0   4  457.13   20.59
  -8   0  -4  522.13   21.38
  -8   0   4  549.68   21.38
  -8   0   4  529.86   20.61
   8   0   4  509.68   20.90
   9   0  -4   -0.30    1.69
  -9   0   4   -0.85    1.55
   9   0   4    0.48    1.83
  -9   0   4    0.28    1.69
   9   0  -4   -0.43    1.51
  -9   0  -4   -0.28    1.83
  -9   0  -4    1.20    2.24
  -9   0   4    1.60    2.32
  10   0  -4 3475.15  112.70
 -10   0   4 3255.69  111.76
  10   0  -4 3324.88  113.72
 -10   0  -4 3173.91  115.66
 -10   0  -4 3438.22  113.43
 -10   0   4 3507.03  113.57
 -10   0   4 3053.19  113.30
 -10   0   4 3387.26  112.13
  10   0   4 3308.96  112.53
 -11   0   4    0.42    1.62
 -11   0   4   -0.67    2.09
  11   0  -4    0.52    2.01
 -11   0  -4    0.45    2.49
 -11   0  -4   -0.27    1.87
  11   0  -4    0.29    1.89
  11   0   4    0.71    1.75
 -11   0   4   -0.61    1.79
 -12   0   4  651.56   29.65
  12   0  -4  952.74   30.41
 -12   0   4  724.46   27.73
 -12   0  -4  831.54   33.08
 -12   0   4  663.29   28.01
  12   0   4  710.15   28.12
 -12   0  -4  836.83   29.20
 -13   0  -4   -1.04    3.21
 -13   0   4   -0.48    1.95
 -13   0   4    0.16    1.51
  13   0  -4    0.94    2.33
 -13   0   4    1.54    2.27
  13   0   4    1.18    1.52
 -14   0   4  928.17   36.66
 -14   0   4  868.09   38.56
  14   0   4  931.81   34.97
 -14   0   4  984.13   34.99
 -15   0   4   -0.44    2.67
 -15   0  -4   -0.58    3.82
  15   0   4   -0.11    1.20
  15   0   4    0.93    2.65
  15   0  -4    0.37    2.64
  15   0   4    0.94    1.27
 -15   0   4    1.32    2.36
 -15   0   4   -0.12    1.35
  16   0  -4  452.83   18.88
  16   0   4  315.78   12.69
  16   0  -4  394.04   16.91
 -16   0  -4  398.24   21.15
  16   0   4  350.22   12.86
 -16   0   4  351.30   13.12
  16   0   4  391.40   16.97
 -16   0   4  402.00   13.24
 -16   0   4  366.86   18.80
 -17   0  -4    1.30    4.01
  17   0   4   -1.53    3.17
  17   0  -4   -1.25    3.29
  17   0  -4    0.60    2.53
  18   0   4 1359.10   49.79
 -18   0  -4 1350.55   55.79
  18   0  -4 1304.72   49.41
 -19   0  -4    0.70    5.17
  19   0  -4    0.46    4.06
   0   0   6  642.27   23.23
   0   0   6  635.63   24.40
   0   0   6  665.92   26.77
   0   0   6  690.19   27.25
   1   0   6    2.36    1.45
  -1   0   6    0.43    1.06
   1   0  -6    0.76    1.63
  -1   0   6    2.65    2.28
  -1   0   6    0.19    1.40
   1   0   6    0.68    2.00
  -1   0  -6   -0.44    2.10
  -1   0   6    0.70    2.29
   1   0  -6    0.88    2.07
   1   0   6    1.42    2.29
   1   0   6    0.10    0.84
   2   0  -6 4591.95  157.42
  -2   0   6 4734.80  156.37
  -2   0   6 5110.12  160.09
  -2   0  -6 4520.18  160.78
  -2   0   6 4468.95  156.63
  -2   0   6 5121.83  159.65
  -3   0   6    1.39    2.27
   3   0  -6   -0.20    1.34
  -3   0   6    0.94    1.30
  -3   0  -6    0.69    1.92
  -3   0  -6   -0.43    2.08
  -3   0   6   -1.98    2.30
   4   0  -6 1826.99   67.23
  -4   0  -6 1960.13   63.48
  -4   0   6 1890.01   65.67
  -4   0  -6 1758.16   66.67
   4   0   6 1823.06   65.76
  -4   0   6 1695.37   62.90
  -4   0  -6 1829.48   65.85
  -4   0   6 1779.28   62.27
   4   0  -6 1841.18   62.65
  -4   0   6 1919.77   65.52
  -5   0   6    0.68    2.36
  -5   0   6   -0.34    2.30
   5   0   6   -1.09    2.54
   5   0  -6    2.30    2.21
  -5   0  -6    0.64    1.45
   5   0  -6    0.46    1.19
  -5   0   6    0.94    1.54
  -5   0   6   -0.33    1.43
  -5   0  -6    0.43    2.32
   5   0  -6    1.59    2.35
   5   0   6    2.85    2.55
   6   0  -6 3702.54  137.50
  -6   0   6 4308.04  137.59
  -6   0  -6 3802.03  138.20
  -6   0  -6 4108.17  135.02
  -6   0   6 4345.82  137.52
   6   0   6 4300.52  137.92
   6   0  -6 3768.62  138.65
   6   0  -6 3948.48  133.00
  -6   0   6 3935.69  134.02
  -6   0   6 3943.12  135.43
   6   0   6 4322.20  137.99
  -7   0  -6    1.90    1.82
   7   0   6    0.37    2.47
  -7   0   6   -0.34    2.27
   7   0   6    0.75    2.64
  -7   0  -6    0.43    2.50
  -7   0   6   -0.28    1.92
  -7   0   6   -0.34    2.40
   7   0  -6    1.64    2.72
   7   0  -6    0.09    0.90
   7   0  -6    0.47    2.70
  -7   0   6    0.19    1.42
  -8   0  -6  369.27   20.26
  -8   0   6  505.13   20.10
   8   0   6  542.65   21.59
  -8   0   6  520.09   20.62
  -8   0   6  531.88   20.89
  -8   0  -6  376.39   20.74
   8   0  -6  381.44   20.77
  -8   0  -6  402.04   18.23
   8   0   6  541.14   21.29
   8   0  -6  364.79   19.96
   9   0  -6    2.53    2.61
  -9   0  -6    1.01    2.91
   9   0   6   -0.72    2.45
  -9   0  -6   -0.43    2.71
  -9   0   6   -0.97    2.54
  -9   0   6   -0.36    2.74
   9   0   6   -0.39    2.66
  -9   0   6   -0.67    2.15
  -9   0  -6    0.54    1.94
   9   0  -6   -0.48    2.89
 -10   0  -6 2996.55  104.34
  10   0  -6 2959.87  103.96
  10   0   6 2824.67  102.58
 -10   0   6 2956.77  102.04
 -10   0   6 2641.12  102.15
 -10   0   6 3058.27  103.15
  10   0  -6 2945.70  104.78
 -10   0  -6 2973.46  105.78
  10   0   6 2902.84  103.27
  11   0   6   -0.36    2.80
  11   0  -6   -0.47    3.18
 -11   0   6   -0.38    2.44
 -11   0  -6   -0.43    2.91
 -11   0  -6    2.13    2.40
 -11   0   6   -0.38    2.76
  11   0  -6    0.86    2.62
 -11   0   6   -0.32    2.43
 -11   0  -6   -0.56    3.46
  11   0   6   -0.40    2.90
  12   0  -6  615.48   30.32
  12   0   6  766.01   30.93
 -12   0  -6  691.64   30.44
  12   0  -6  686.64   30.58
 -12   0   6  779.13   29.47
 -12   0   6  847.46   31.16
  12   0   6  777.51   30.23
 -12   0  -6  771.50   29.57
 -12   0  -6  657.11   32.26
 -12   0   6  763.64   28.51
 -12   0   6  700.10   30.35
 -13   0  -6    1.87    3.56
 -13   0   6    2.60    3.17
  13   0  -6   -0.89    2.91
 -13   0   6    1.51    2.32
  13   0   6    1.21    3.20
 -13   0  -6   -1.20    3.17
  13   0   6   -0.35    2.60
  13   0  -6    1.31    2.74
 -13   0   6    0.27    2.11
 -14   0  -6 1803.37   72.76
 -14   0   6 1740.32   69.51
  14   0   6 1981.96   69.50
 -14   0   6 1992.25   67.38
  14   0   6 1920.99   68.09
  14   0  -6 1751.24   69.13
 -14   0   6 2053.42   67.59
  15   0  -6    0.74    3.23
  15   0   6   -2.83    3.38
  15   0   6    2.78    2.34
  15   0  -6   -0.86    2.97
 -15   0   6    1.99    3.55
 -15   0  -6   -0.69    4.08
 -15   0   6   -0.29    2.48
 -16   0  -6  136.51   13.25
  16   0  -6  174.51   11.40
  16   0  -6  128.88   10.61
  16   0   6  241.64   12.74
  16   0   6  219.55   10.14
 -16   0   6  223.47   11.16
 -16   0   6  207.85   13.48
 -17   0  -6   -0.77    4.59
 -17   0   6   -1.10    3.74
 -17   0   6    1.50    2.97
  17   0  -6    0.83    3.12
  17   0   6    1.58    3.57
  17   0  -6   -0.41    3.37
   0   0  -8 2439.46   93.67
   0   0  -8 2398.64   97.32
   0   0   8 3048.74   96.84
   0   0   8 2645.40   91.93
   0   0   8 3061.71   96.24
   1   0   8    0.26    2.05
   1   0   8   -0.47    3.21
  -1   0   8    3.73    3.33
   1   0  -8    0.63    3.20
   1   0  -8   -0.71    2.36
   1   0   8    2.22    3.20
  -1   0   8    0.44    2.92
  -1   0  -8    4.88    2.94
  -1   0   8    0.25    1.85
  -1   0  -8   -1.25    3.22
  -2   0   8 1020.89   37.60
  -2   0   8  917.87   33.88
  -2   0  -8  780.33   38.22
   2   0   8  997.92   34.47
  -2   0   8 1069.42   38.49
  -2   0   8  948.43   33.48
  -2   0  -8  774.45   35.79
   2   0  -8  774.73   34.42
  -3   0   8   -0.87    2.95
  -3   0   8   -0.50    1.82
  -3   0   8    0.71    1.79
  -3   0  -8    2.28    2.90
  -3   0   8   -0.20    1.53
  -3   0   8   -0.92    2.94
  -3   0  -8    2.46    3.38
  -4   0   8  756.51   29.05
   4   0   8  784.69   33.43
  -4   0   8  850.43   33.82
  -4   0  -8 1028.38   37.81
   4   0   8  811.42   33.91
   4   0  -8 1010.73   38.12
  -4   0   8  723.96   30.02
  -4   0   8  672.47   29.63
  -4   0   8  795.61   33.10
  -4   0  -8 1000.28   35.35
   5   0   8    1.93    3.52
  -5   0   8    0.45    3.04
   5   0  -8    0.95    1.85
  -5   0  -8    1.00    3.00
   5   0   8    0.47    3.37
  -5   0   8   -0.88    3.26
  -5   0   8    0.39    1.75
  -5   0  -8    1.21    3.33
   5   0  -8   -0.65    3.28
  -5   0   8    0.58    2.19
  -5   0   8    0.79    1.89
  -6   0  -8 1069.04   45.76
  -6   0   8 1071.08   41.45
   6   0   8 1250.25   45.12
   6   0  -8  962.61   45.54
   6   0  -8 1005.69   39.59
  -6   0   8 1228.80   44.59
  -6   0   8 1190.27   40.07
  -6   0   8 1223.95   44.45
   6   0   8 1217.19   45.05
  -6   0  -8 1016.27   44.27
  -7   0   8    0.44    3.24
  -7   0   8   -0.68    2.55
   7   0   8   -0.47    3.22
  -7   0  -8    2.24    3.18
   7   0  -8    0.66    4.06
  -7   0   8   -1.74    3.17
  -7   0  -8   -0.60    3.25
  -7   0   8    1.88    2.10
   7   0   8   -0.48    3.34
  -7   0  -8    1.80    2.43
   7   0  -8    0.64    1.43
   8   0   8 1750.12   58.60
  -8   0   8 1789.43   57.83
  -8   0   8 1698.51   57.33
  -8   0  -8 1626.80   54.98
   8   0  -8 1538.52   50.74
  -8   0   8 1562.95   55.58
  -8   0   8 1672.73   53.37
   8   0  -8 1374.23   59.06
   8   0   8 1753.10   58.55
   8   0  -8 1284.23   50.60
  -8   0  -8 1360.07   58.02
  -8   0  -8 1391.88   58.44
   9   0   8    0.48    3.90
  -9   0  -8    2.40    3.97
  -9   0   8    0.45    3.22
  -9   0   8   -4.27    3.47
  -9   0   8   -1.18    3.13
   9   0  -8    3.99    3.51
  -9   0  -8   -0.97    2.55
  10   0  -8  655.96   33.19
 -10   0   8  691.52   30.39
  10   0   8  747.90   31.93
 -10   0  -8  708.83   32.99
 -10   0  -8  730.18   29.42
 -10   0   8  781.65   31.21
 -10   0   8  821.40   32.26
  11   0   8   -0.48    3.78
 -11   0   8   -0.44    3.14
 -11   0  -8    1.03    2.76
 -11   0  -8   -1.19    3.89
 -11   0   8    0.85    3.20
  11   0  -8   -1.32    4.09
  12   0   8  229.97   15.72
 -12   0  -8  419.36   20.25
 -12   0   8  262.12   15.44
 -12   0  -8  474.55   17.54
 -12   0   8  211.80   15.31
  12   0  -8  398.88   20.47
 -12   0  -8  366.52   20.54
 -13   0  -8   -2.23    5.06
 -13   0  -8   -1.09    3.04
  13   0  -8   -1.26    4.70
  13   0   8   -0.47    3.63
 -13   0  -8    1.70    4.05
 -13   0   8   -2.96    3.86
 -14   0  -8  880.07   41.41
  14   0   8  914.29   37.46
 -14   0   8  838.69   37.75
 -14   0   8  901.84   35.08
   0   0 -10 2150.84   82.75
   0   0 -10 2083.94   77.11
  -1   0 -10    2.09    3.98
   1   0 -10   -1.39    3.30
   1   0 -10   -0.84    4.44
  -1   0 -10   -0.83    4.47
  -2   0 -10  344.33   21.62
   2   0 -10  327.59   17.04
  -2   0 -10  319.83   18.47
   3   0 -10    2.37    3.15
  -3   0  10   -1.32    2.13
  -3   0 -10    4.62    3.83
  -3   0 -10    0.82    4.99
  -4   0  10 1621.61   53.56
  -4   0 -10 1480.14   62.56
   4   0 -10 1441.94   55.33
   4   0 -10 1497.03   63.11
  -4   0 -10 1444.62   59.17
  -5   0 -10   -0.63    4.07
   5   0 -10   -0.32    2.62
  -5   0 -10    0.81    4.83
  -5   0  10    1.53    2.14
   5   0 -10    6.88    5.23
  -6   0 -10  321.16   19.16
  -6   0  10  284.86   13.54
   6   0 -10  402.41   23.14
  -6   0 -10  374.23   21.91
  -7   0 -10    2.03    4.48
   7   0 -10    0.23    2.15
   7   0 -10    1.73    4.93
  -7   0 -10    1.58    5.39
  -8   0 -10 1720.21   68.37
  -8   0 -10 1770.16   67.25
   8   0 -10 1763.01   69.86
   8   0 -10 1665.19   57.49
  -9   0 -10   -2.34    5.31
  -9   0 -10    0.73    4.80
   9   0 -10    0.86    4.99
 -10   0 -10  128.87   12.45
 -10   0 -10  136.76   12.93
  10   0 -10  134.55   13.30
   0  -1   1    1.19    0.66
   0   1   1    1.06    0.56
   0  -1  -1    0.28    0.34
   0  -1   1    0.28    0.62
   0  -1  -1    0.42    0.53
  -1  -1   1  722.56   24.52
  -1  -1   1  725.55   24.89
   1  -1  -1  733.07   23.98
   1   1   1  660.64   24.76
  -1   1   1  678.37   23.93
  -1   1  -1  709.15   24.40
   1  -1   1  714.52   24.54
   2   1   1  368.28   14.31
  -2  -1   1  366.09   13.52
  -2   1  -1  368.72   13.23
   2  -1  -1  383.03   13.44
  -2   1  -1  370.92   13.59
  -3   1   1 1180.92   39.94
   3  -1  -1 1189.88   39.97
  -3   1   1 1236.58   39.43
  -3   1  -1 1212.77   39.52
  -3   1  -1 1197.23   40.26
   3   1   1 1188.91   41.10
   3   1  -1 1205.16   40.39
  -3   1  -1 1141.54   39.85
  -3  -1   1 1062.14   39.69
   4   1   1   31.43    2.97
  -4  -1   1   28.92    2.31
  -4   1  -1   35.27    2.42
  -4   1   1   33.71    2.43
   4  -1  -1   34.98    2.45
   4  -1   1   31.83    1.88
  -4  -1   1   28.37    2.03
  -4  -1   1   31.17    1.61
   4  -1   1   29.88    2.06
  -4   1   1   30.14    2.11
   4  -1   1   32.08    2.56
   4   1  -1   34.27    2.64
  -4   1   1   33.53    1.81
   5  -1   1  486.30   17.08
   5   1   1  460.76   17.07
  -5  -1  -1  475.73   19.40
   5   1   1  458.29   17.65
  -5  -1   1  457.60   17.03
  -5   1  -1  507.21   17.51
  -5  -1   1  456.95   17.97
  -5   1   1  507.22   17.28
   5  -1   1  502.21   16.80
   5   1  -1  502.33   18.29
   5  -1  -1  511.58   18.11
   5   1   1  483.46   17.77
   5  -1   1  486.89   18.22
  -5   1   1  473.19   17.89
  -5   1   1  495.61   16.94
  -5   1   1  478.03   16.58
   5   1  -1  515.55   18.37
   5   1  -1  473.71   17.39
  -5   1   1  446.71   17.49
   6   1  -1  130.68    7.15
  -6   1   1  139.17    6.00
  -6   1  -1  139.53    7.14
   6   1  -1  135.98    7.02
  -6  -1  -1  135.15    7.86
   6  -1  -1  156.09    7.24
   6   1  -1  145.85    7.13
   6   1  -1  133.76    5.99
   6   1   1  130.03    5.74
   6  -1   1  141.60    5.75
  -6   1   1  142.01    5.82
  -6   1   1  146.88    6.94
  -6   1   1  138.24    6.20
   6   1  -1  137.25    5.74
  -6  -1   1  146.23    7.13
   6  -1  -1  142.43    5.47
  -6   1   1  136.39    6.82
   6  -1   1  147.91    5.66
   6   1   1  139.73    6.27
   6   1   1  146.52    6.72
  -6  -1   1  125.92    5.67
  -6   1  -1  141.47    6.06
   7  -1  -1 1438.07   49.80
  -7   1   1 1435.61   47.73
   7  -1   1 1367.94   47.61
  -7   1   1 1408.36   48.18
  -7  -1  -1 1442.35   51.40
  -7  -1   1 1348.64   49.70
   7   1   1 1337.56   47.68
  -7  -1   1 1414.79   47.70
   7   1   1 1470.24   49.27
   7  -1   1 1384.72   47.66
   7  -1  -1 1507.68   47.53
  -7   1  -1 1457.73   48.87
  -7   1  -1 1553.48   50.39
   7   1  -1 1515.44   50.07
   7   1   1 1391.32   48.22
   7   1  -1 1488.79   48.11
  -7   1   1 1338.89   48.38
   7   1  -1 1511.36   48.19
  -7   1   1 1310.82   49.30
   7   1  -1 1371.75   50.04
  -7   1  -1 1496.26   48.07
   7   1  -1 1581.72   50.14
  -8  -1   1   37.01    3.66
   8   1  -1   45.03    2.60
  -8   1   1   40.44    3.09
   8   1   1   41.61    4.21
   8  -1   1   44.63    2.34
   8   1   1   39.35    2.59
  -8   1  -1   40.91    3.86
  -8   1   1   50.67    2.73
   8   1  -1   43.60    2.88
   8   1  -1   41.02    3.71
  -8   1  -1   45.87    2.60
   8   1   1   50.06    3.69
  -8   1   1   43.21    3.64
   8   1  -1   45.74    3.97
   8   1  -1   50.74    3.98
  -8   1   1   42.76    2.34
   8   1   1   46.01    2.46
   8  -1  -1   44.66    2.36
  -8  -1   1   42.05    2.34
  -8  -1  -1   39.77    4.40
  -8   1  -1   39.82    3.19
   9   1   1  231.70   10.10
   9   1  -1  211.46    8.96
  -9  -1   1  211.66    7.83
  -9   1  -1  215.79    8.12
   9   1  -1  241.64   10.80
   9   1  -1  206.20    8.06
  -9  -1   1  203.12   10.47
   9   1  -1  211.20   10.51
  -9  -1  -1  197.56   11.36
   9   1   1  209.87    8.12
  -9   1  -1  213.75   10.69
  -9   1   1  212.63   10.11
   9   1   1  213.45   11.14
  -9   1   1  213.43    8.06
   9  -1   1  198.53    7.68
   9   1  -1  201.30   10.09
   9  -1   1  209.32   10.35
  -9   1   1  211.77    7.79
   9   1   1  204.12    7.84
   9  -1  -1  216.61    8.05
  -9   1   1  211.35    9.46
 -10  -1  -1  220.99   12.49
 -10   1   1  230.10   10.53
 -10   1   1  214.79    8.24
  10   1  -1  231.09    9.89
  10   1  -1  231.07   11.15
 -10   1   1  214.08   10.89
 -10   1  -1  224.86   11.50
  10   1   1  224.25    8.27
  10   1  -1  224.99   11.29
 -10   1   1  228.90    8.15
 -10  -1   1  214.97   11.39
 -10  -1   1  242.92    8.30
  10  -1  -1  234.52    8.75
  10  -1   1  248.18   11.48
 -10   1  -1  245.91    8.58
  10   1   1  231.70   12.03
  10   1   1  224.39    8.34
  10   1  -1  244.38   11.49
  10   1   1  237.55   10.93
 -11  -1  -1 1120.77   45.06
  11   1  -1 1182.85   43.22
 -11   1   1 1214.68   43.21
  11   1   1 1265.41   42.70
 -11   1   1 1212.28   42.64
  11   1  -1 1070.42   43.00
  11   1   1 1343.44   45.10
 -11  -1   1 1194.97   43.86
 -11   1  -1 1107.12   43.55
  11   1   1 1328.68   43.20
  11   1  -1 1209.14   43.40
  11  -1   1 1324.42   43.79
  11  -1  -1 1116.68   39.93
  11   1  -1 1180.12   41.66
 -12   1  -1    3.99    1.84
 -12  -1  -1    0.42    2.48
  12  -1   1   -0.56    1.94
  12   1   1    0.23    1.64
 -12   1   1    2.25    1.84
  12  -1  -1    1.60    0.81
  12   1   1   -0.35    2.24
  12   1  -1    0.85    1.80
 -12   1   1    2.60    1.95
  12   1  -1    0.55    2.06
 -12  -1   1    0.32    2.06
  12   1   1    0.49    1.74
 -12   1  -1    1.94    2.30
  12   1  -1    3.41    2.42
 -13  -1   1  135.15    9.46
 -13   1  -1  159.45    9.05
 -13   1   1  156.83    9.16
  13  -1   1  155.68    6.75
  13  -1  -1  161.18    6.53
 -13  -1  -1  167.57   11.24
  13   1   1  167.29    8.98
  13   1  -1  199.15   10.16
  13   1   1  175.29    9.29
  13   1   1  170.57   10.43
  13   1  -1  184.72   10.01
 -13   1   1  165.37    9.65
 -13   1  -1  150.24    9.79
  13  -1   1  174.97    9.80
 -13  -1   1  160.74   10.07
  14  -1  -1   19.66    1.55
 -14   1   1   20.87    3.37
  14  -1   1   17.08    1.76
 -14  -1   1   16.79    3.44
 -14   1  -1   15.13    3.16
  14   1   1   28.64    4.53
  14  -1   1   14.56    3.25
 -14   1  -1   20.14    3.95
 -14  -1  -1   20.94    4.54
  14   1  -1   25.87    3.87
  14   1   1   14.97    3.00
 -14  -1   1   16.37    3.81
 -14   1   1   19.03    3.35
  14  -1   1   20.19    1.86
  14   1  -1   19.20    3.65
 -15   1  -1 1281.31   44.85
 -15   1  -1 1247.83   46.07
  15   1  -1 1397.79   45.48
 -15  -1  -1 1336.50   48.31
 -15   1   1 1260.56   44.82
 -15  -1   1 1258.95   45.88
  15  -1   1 1263.62   44.89
  15  -1  -1 1401.62   46.79
  15  -1   1 1140.95   40.18
  15   1   1 1285.83   44.26
 -15   1   1 1121.25   44.67
  15  -1   1 1101.19   40.03
 -16  -1   1   14.94    3.82
 -16   1   1   16.51    3.70
 -16   1  -1   19.40    4.45
 -16   1   1   15.92    3.88
  16   1   1   14.73    3.32
  16  -1  -1   11.53    3.68
 -16   1  -1   12.41    3.33
 -16  -1  -1   17.30    4.68
  16  -1   1   15.60    3.63
  17   1   1   75.07    6.28
 -17   1  -1   65.32    6.34
 -17   1  -1   71.23    7.27
 -17  -1   1   84.64    7.62
 -17  -1  -1   78.50    8.45
  17  -1  -1   75.88    7.52
 -17   1   1   65.92    6.80
 -17   1   1   67.02    6.47
 -18   1  -1   30.87    5.47
 -18   1  -1   21.70    4.32
  18   1   1   29.56    4.38
 -18  -1  -1   29.20    6.10
 -18   1   1   31.17    4.98
 -18   1   1   25.61    4.42
 -18  -1   1   25.56    5.03
  18  -1  -1   33.00    5.52
  18   1   1   20.07    3.82
 -19   1   1  819.38   30.35
  19   1   1  696.62   27.98
 -19   1  -1  636.23   29.22
 -19  -1  -1  665.09   31.72
 -19   1  -1  659.03   30.68
  19   1  -1  587.60   26.92
  19  -1  -1  722.42   31.45
 -19   1   1  726.53   30.65
  19   1   1  791.67   29.09
 -19  -1   1  825.47   31.46
  20   1  -1   50.47    5.18
 -20  -1  -1   70.75    8.70
 -20  -1   1   67.33    7.33
 -20   1   1   63.18    7.48
 -20   1  -1   68.08    7.71
  20  -1  -1   85.48    8.72
 -20   1  -1   69.68    7.41
  20   1   1   55.02    5.50
   0   1   3    0.44    1.35
   0  -1   3    2.87    1.46
   0   1   3    2.96    1.05
   0  -1   3    1.64    1.30
   0   1  -3    0.39    0.61
   0  -1  -3    0.84    0.79
   1  -1   3  935.01   32.74
  -1   1   3  866.30   32.89
  -1  -1   3  912.28   32.66
  -1  -1  -3  891.17   31.29
   1   1   3  940.19   32.12
  -1  -1   3  945.43   32.66
  -1   1   3  931.83   31.22
   1  -1   3  857.09   32.20
  -1   1  -3  885.65   32.48
   1  -1  -3  878.04   31.39
  -1   1   3  931.10   32.39
   1   1   3  912.27   33.04
   1   1  -3  906.83   30.96
   1  -1   3  905.78   30.60
   1   1   3  809.67   31.10
  -2   1  -3    8.64    1.79
  -2  -1   3    5.72    1.65
  -2   1   3    8.33    1.66
  -2   1  -3    6.80    1.70
  -2  -1  -3    8.12    1.31
   2  -1   3    8.14    1.04
  -2   1   3   10.51    1.15
  -2  -1  -3    8.96    1.88
   2   1   3    6.82    1.60
   2   1  -3    6.49    1.25
  -2  -1   3    9.51    0.88
   2  -1  -3    6.61    1.11
  -2   1   3    5.39    1.63
  -2  -1   3    7.83    1.70
  -3  -1   3  624.81   24.47
  -3   1  -3  683.47   25.04
  -3   1   3  615.06   24.87
  -3   1   3  681.33   23.65
  -3  -1   3  669.49   24.70
  -3  -1  -3  702.77   23.96
  -3   1  -3  686.40   22.70
  -3   1  -3  687.44   24.65
  -3  -1  -3  704.81   25.68
   3  -1  -3  652.84   22.58
   3   1   3  677.90   24.97
  -3   1   3  665.73   24.20
  -3  -1   3  636.34   23.92
  -3  -1   3  593.63   22.24
  -4   1   3   68.20    4.29
   4   1   3   63.19    4.83
  -4   1  -3   55.93    3.07
   4   1   3   66.43    4.82
   4  -1   3   59.70    4.48
   4   1  -3   63.98    3.18
  -4  -1   3   66.88    4.52
  -4   1   3   63.46    4.78
  -4  -1  -3   55.45    4.57
  -4   1   3   61.11    3.85
  -4  -1   3   65.80    4.72
  -4   1  -3   54.17    4.28
  -4  -1   3   50.33    3.94
   4  -1   3   62.32    4.24
  -5   1  -3  662.05   23.07
  -5   1   3  684.16   24.04
   5  -1  -3  607.61   25.37
  -5   1   3  673.85   24.23
  -5  -1   3  629.71   24.60
  -5  -1  -3  673.92   25.50
  -5  -1   3  675.28   24.73
   5   1  -3  666.39   23.03
   5   1   3  683.70   25.31
   5  -1   3  687.55   25.02
   5  -1   3  653.74   24.41
  -5   1  -3  623.36   24.69
   5   1  -3  685.55   23.47
  -5  -1   3  683.55   25.28
  -5   1  -3  646.43   22.24
   5   1   3  675.23   25.84
  -5   1   3  694.97   25.22
  -5   1   3  639.12   24.14
   5   1   3  606.44   22.85
   5   1  -3  624.10   24.84
   6  -1   3  234.32   10.50
  -6   1  -3  236.63   10.92
  -6  -1   3  254.49   11.52
  -6  -1  -3  218.90   11.13
  -6   1   3  242.37   10.40
   6   1   3  228.50    9.36
  -6   1   3  254.48   10.65
   6   1  -3  235.54   11.06
  -6   1   3  243.35   10.98
   6   1  -3  243.38    9.85
   6   1  -3  241.37    9.75
   6  -1  -3  210.34   11.21
   6   1  -3  219.31   11.40
   6  -1   3  245.50   11.05
   6  -1  -3  224.19   10.41
  -6   1  -3  233.90    8.91
   6   1   3  228.38   10.99
  -6  -1   3  237.94   10.67
   6   1   3  260.37   12.20
   7  -1   3  516.62   19.12
   7   1   3  531.22   21.25
  -7  -1   3  533.58   20.21
  -7   1  -3  477.08   19.24
  -7  -1   3  531.37   19.29
   7   1  -3  440.50   19.22
   7   1   3  495.02   19.48
  -7   1   3  532.37   18.93
  -7   1  -3  461.07   17.38
   7  -1  -3  449.22   18.79
   7   1  -3  490.64   18.27
   7   1  -3  434.69   18.08
   7  -1   3  520.91   19.58
   7   1   3  503.45   17.92
   7  -1  -3  461.51   18.76
   7   1  -3  447.02   20.03
  -7   1   3  520.33   19.33
   8  -1   3   15.71    2.27
   8  -1  -3   16.02    2.30
   8   1  -3   17.69    2.75
  -8   1  -3   16.27    2.37
  -8  -1   3   20.12    2.25
  -8  -1   3   16.72    1.79
   8   1   3   17.78    2.63
  -8   1  -3   14.87    1.74
   8  -1  -3   18.90    2.55
  -8   1   3   16.12    2.36
   8   1  -3   18.28    2.31
   8   1   3   15.42    1.94
   8   1  -3   19.32    2.31
  -8   1  -3   18.04    3.15
  -8   1   3   14.46    2.16
   8  -1   3   16.92    2.20
   8   1  -3   14.99    2.43
   9   1  -3  959.36   36.18
  -9   1   3  954.77   36.08
  -9  -1   3  998.30   35.23
  -9  -1   3  976.12   34.80
  -9  -1   3  957.16   37.19
   9  -1   3  943.79   35.22
   9   1  -3  996.39   35.63
  -9   1  -3  988.70   36.05
  -9   1  -3  973.08   34.92
  -9  -1  -3  979.32   39.07
   9   1   3 1074.09   35.39
   9   1  -3 1049.34   36.06
  -9   1  -3  964.97   38.21
  -9   1   3 1042.00   35.87
  -9   1   3 1041.07   35.83
   9  -1   3  990.25   35.89
   9  -1  -3 1004.76   36.67
   9  -1  -3 1004.41   35.74
   9   1   3 1016.33   36.09
   9   1  -3 1097.67   37.50
 -10  -1   3    8.60    1.72
 -10   1   3   11.25    2.38
  10  -1   3   10.21    2.12
  10   1  -3    9.88    2.00
 -10  -1   3   10.23    2.71
 -10   1  -3    7.00    2.71
 -10   1   3   14.06    2.29
 -10   1  -3   13.03    2.46
 -10  -1   3    9.87    1.76
  10  -1  -3   12.84    2.58
  10   1   3   10.86    1.97
 -10   1   3   12.99    2.16
  10  -1  -3   11.16    2.08
 -10   1   3    9.98    2.48
  10   1   3   15.28    2.32
  10   1  -3   15.46    3.02
 -10  -1  -3   13.72    3.41
  10   1  -3   12.50    2.41
  10   1  -3   13.52    2.36
 -10   1  -3   10.43    1.86
  10  -1   3    9.53    1.82
 -11  -1   3  614.44   24.17
 -11   1   3  650.82   22.72
 -11  -1   3  703.00   24.17
  11   1  -3  670.28   25.04
 -11   1  -3  667.42   24.90
  11   1   3  709.22   24.97
 -11  -1  -3  660.13   29.07
  11  -1   3  665.76   24.10
  11   1   3  669.78   24.78
  11   1  -3  772.80   27.38
  11  -1  -3  653.02   24.80
  11  -1   3  669.24   26.74
  11  -1  -3  745.98   27.07
 -11   1   3  640.36   25.92
 -11   1   3  591.48   26.34
  11   1  -3  729.75   26.48
 -11   1   3  691.36   24.48
 -11   1  -3  646.44   28.00
 -11  -1   3  628.44   26.82
  11   1   3  628.74   23.98
  11   1  -3  634.93   25.02
  11  -1   3  663.05   25.03
  11   1   3  700.20   28.50
  12  -1   3   39.53    2.96
 -12   1  -3   41.54    3.53
 -12   1   3   34.27    4.32
  12  -1  -3   37.89    3.45
  12   1   3   39.06    3.31
  12   1  -3   48.71    4.86
 -12  -1   3   37.54    4.67
  12   1  -3   35.76    3.42
  12   1   3   34.74    3.47
  12   1   3   35.39    2.88
  12   1   3   35.80    5.20
 -12  -1  -3   29.96    5.25
 -12  -1   3   41.85    3.02
 -12   1  -3   35.70    5.03
 -12   1   3   41.07    3.21
  12  -1   3   41.68    3.68
  12   1  -3   41.45    4.49
  12  -1  -3   49.96    5.11
  12   1  -3   36.72    3.57
  12  -1   3   42.48    4.71
 -12   1   3   38.00    3.09
 -12   1   3   39.67    2.52
 -12   1   3   36.18    4.08
  13   1  -3  745.27   26.73
  13  -1  -3  710.11   27.02
  13   1   3  595.27   22.54
  13   1  -3  656.47   24.61
 -13   1   3  645.32   22.82
  13   1   3  643.16   23.36
 -13   1  -3  646.57   24.69
 -13   1  -3  654.75   23.67
 -13  -1  -3  622.48   28.87
 -13   1   3  625.11   25.52
  13  -1   3  627.57   22.57
  13  -1   3  634.41   26.31
 -13  -1   3  665.01   22.79
  13  -1   3  645.78   24.14
 -13   1  -3  609.21   27.79
 -13  -1   3  623.33   26.90
 -13   1   3  605.29   22.53
  13  -1  -3  625.16   23.88
 -13   1   3  618.15   26.47
 -13   1   3  670.62   23.04
  13   1  -3  598.87   23.45
  14  -1  -3   54.82    5.78
 -14  -1  -3   53.99    7.00
 -14   1   3   50.63    3.07
  14  -1  -3   50.30    4.02
 -14  -1   3   57.62    3.09
 -14   1  -3   53.03    4.71
  14   1   3   51.73    2.92
  14  -1   3   55.76    5.71
  14   1  -3   61.00    4.76
 -14   1   3   44.73    2.93
 -14   1   3   46.66    4.99
  14  -1   3   46.64    2.73
 -14   1   3   53.97    3.43
 -14  -1   3   37.86    5.36
  14   1  -3   46.07    5.17
  14   1  -3   67.47    6.02
 -14   1  -3   46.94    6.18
  14  -1   3   50.53    4.08
 -15   1   3  221.48   11.66
 -15  -1   3  219.74    7.73
  15   1  -3  178.84   11.27
 -15   1   3  211.96    7.55
 -15   1   3  251.03    9.55
  15  -1   3  233.11   12.50
 -15   1  -3  218.27   11.20
 -15   1  -3  212.91   13.54
  15   1  -3  236.20   12.52
  15  -1  -3  219.33   12.83
 -15   1   3  189.89    7.50
 -15  -1  -3  188.49   13.92
  15   1   3  234.72   12.04
  15   1  -3  231.63   10.80
  15  -1   3  229.11   10.01
 -16   1   3   35.05    3.07
  16  -1   3   28.30    3.14
 -16   1  -3   25.92    5.58
 -16  -1  -3   31.64    6.31
  16  -1  -3   35.93    5.19
 -16   1  -3   34.03    4.31
  16   1  -3   31.09    4.38
  16   1   3   29.93    4.63
  16   1  -3   27.11    4.61
 -17  -1  -3  685.90   32.57
  17   1  -3  632.25   27.81
  17   1  -3  752.15   29.75
  17  -1  -3  772.71   30.64
 -17   1  -3  653.69   28.11
 -17   1  -3  628.02   30.69
 -17   1   3  758.48   25.71
  17  -1   3  672.67   25.41
  18   1  -3   50.74    6.14
 -18  -1  -3   48.10    7.39
 -18   1   3   42.72    6.05
  18  -1  -3   53.85    6.68
 -18   1  -3   38.65    6.51
  18   1  -3   38.21    4.88
  18  -1   3   39.97    3.30
 -19   1  -3  455.75   23.37
 -19  -1  -3  440.17   23.99
  19   1  -3  521.90   22.12
  19  -1   3  391.98   15.67
  19   1  -3  439.42   19.34
  19  -1  -3  511.43   22.98
 -19   1   3  486.28   22.42
   0  -1   5    1.47    1.74
   0  -1  -5   -0.23    1.29
   0   1   5    1.00    1.93
   0  -1   5    0.44    1.03
   0   1   5    0.58    1.65
   0  -1   5    0.29    1.60
   0   1  -5    0.19    0.79
  -1   1   5  543.05   21.88
   1   1   5  513.90   22.48
   1  -1  -5  548.15   20.75
   1  -1   5  474.70   19.40
  -1  -1   5  542.04   21.99
   1  -1   5  454.41   21.29
   1   1   5  512.17   21.85
  -1   1  -5  577.83   18.50
  -1  -1  -5  516.99   21.30
  -1  -1   5  503.64   21.77
   1  -1   5  500.25   21.70
  -1   1   5  522.23   22.49
  -1  -1  -5  537.62   20.43
  -1   1   5  490.32   19.22
   1   1  -5  585.35   19.44
   2   1  -5   12.59    1.87
  -2   1   5   13.67    1.84
  -2  -1   5   10.75    2.65
  -2  -1  -5   13.44    2.14
  -2   1  -5   14.59    2.89
   2  -1   5   15.42    2.06
  -2   1   5   15.41    2.76
   2  -1  -5    9.92    1.88
   2   1   5   13.47    2.69
  -2  -1   5   13.10    2.62
  -2   1   5   13.13    2.99
   3  -1   5  319.13   12.93
  -3   1   5  350.69   15.86
  -3   1   5  325.05   13.41
  -3  -1  -5  308.52   13.75
   3   1  -5  346.67   13.51
  -3  -1   5  329.13   15.10
  -3   1  -5  294.95   15.66
  -3  -1   5  330.17   12.34
  -3  -1   5  347.09   15.48
  -3  -1  -5  313.56   16.19
   3  -1  -5  303.01   13.03
  -3   1   5  352.34   15.16
   4  -1   5   26.19    3.62
  -4  -1   5   29.20    2.31
   4  -1   5   25.89    3.53
  -4   1   5   29.02    2.90
   4   1  -5   25.37    2.89
   4   1   5   29.50    4.25
   4  -1  -5   26.75    2.35
  -4  -1  -5   25.37    4.11
  -4   1  -5   25.96    4.05
  -4   1   5   31.51    3.95
  -4  -1   5   29.27    3.76
  -4   1   5   28.24    2.97
  -4  -1   5   23.43    2.94
  -4   1   5   26.58    3.50
  -4  -1  -5   26.60    2.99
  -4  -1   5   25.61    3.56
  -5   1  -5 1032.40   35.14
   5   1  -5 1044.26   36.25
   5  -1   5 1041.19   37.59
   5   1   5 1063.77   38.55
  -5  -1   5 1051.79   37.62
   5  -1  -5  922.92   33.84
  -5   1   5 1069.67   38.17
  -5  -1   5 1046.18   37.73
   5  -1   5 1013.42   37.85
  -5  -1  -5  988.68   38.78
   5   1   5  967.22   33.11
  -5   1   5 1001.08   36.95
  -5   1   5 1047.36   35.84
  -5  -1   5  938.39   36.24
  -5  -1  -5 1006.97   36.34
  -5   1  -5  909.00   37.97
  -5   1   5  991.90   36.09
  -5  -1   5 1039.16   34.55
  -6   1   5  126.15    8.11
   6   1  -5  142.48    7.50
  -6  -1   5  113.41    7.23
  -6  -1   5  131.59    8.05
  -6   1  -5  119.44    6.20
  -6   1   5  116.82    7.15
   6   1   5  115.18    4.63
   6  -1   5  110.15    7.63
  -6   1  -5  112.38    8.22
  -6  -1  -5  121.19    7.27
  -6  -1  -5  118.04    8.58
   6  -1   5  128.87    8.31
  -6  -1   5  118.90    8.06
  -6   1   5  119.73    6.77
  -6   1  -5  107.96    7.99
  -6   1   5  126.28    7.66
   6   1   5  133.33    8.54
   6   1  -5  114.72    8.38
  -7   1   5  166.60    8.73
  -7  -1   5  184.64   10.08
  -7   1  -5  170.76   10.84
   7   1  -5  214.87    8.57
   7   1   5  160.46    6.61
  -7   1  -5  176.87   10.59
  -7   1   5  175.83    9.48
  -7  -1   5  179.11   10.40
  -7  -1  -5  178.10   11.01
   7   1  -5  192.24    9.68
  -7   1  -5  178.43    8.36
  -7  -1  -5  169.19   11.00
   7  -1   5  172.46   10.15
  -7  -1   5  161.43    9.44
  -7  -1  -5  185.34    9.66
   7   1   5  173.35   10.31
  -7   1   5  181.15    9.84
   7   1  -5  184.15   10.93
  -7   1   5  175.18   10.02
   7  -1   5  165.77    9.67
  -8  -1  -5   67.96    6.78
   8   1  -5   72.30    4.46
   8   1   5   67.85    3.37
  -8   1  -5   65.34    6.08
   8  -1   5   63.45    5.75
  -8   1   5   67.26    5.55
  -8  -1   5   78.71    6.48
  -8  -1  -5   66.62    6.31
  -8   1  -5   66.97    4.69
  -8  -1   5   73.52    5.88
  -8   1   5   74.40    5.23
  -8  -1   5   66.64    5.72
   8   1  -5   62.44    6.23
   8  -1   5   68.83    5.81
   8   1  -5   85.90    6.08
  -8   1   5   76.15    5.90
   8   1   5   75.69    6.14
  -8   1   5   72.27    5.83
  -8   1  -5   75.45    6.96
   9   1  -5  820.61   33.98
   9  -1   5  881.88   33.10
  -9  -1   5  866.05   33.59
  -9  -1  -5  823.11   33.55
  -9  -1   5  755.74   32.46
   9   1  -5  825.60   29.96
  -9   1   5  833.06   32.20
  -9  -1   5  871.39   32.47
   9   1  -5  914.31   32.86
  -9   1  -5  896.50   31.19
   9   1  -5  920.66   31.19
  -9  -1  -5  807.17   34.96
  -9   1  -5  839.86   34.75
   9   1   5  870.98   32.95
  -9   1   5  825.42   31.96
  -9   1   5  770.31   32.22
  -9   1  -5  852.69   33.47
   9  -1   5  783.15   32.29
 -10   1   5   11.58    3.00
 -10   1   5   10.87    2.92
  10   1   5   15.54    3.16
 -10   1  -5    8.49    3.23
 -10  -1   5   15.99    3.86
 -10  -1   5   10.90    3.12
  10   1  -5    8.27    3.01
 -10   1  -5   10.71    2.38
 -10   1  -5   13.27    3.11
 -10   1   5   10.76    2.86
  10   1  -5   12.02    1.94
 -10  -1   5   10.44    2.71
  10   1  -5   13.66    2.50
  10  -1   5   10.60    2.92
 -10  -1  -5    8.21    3.47
  10  -1   5   12.83    3.09
 -11   1   5   17.63    3.35
 -11   1  -5    5.71    2.62
 -11  -1   5   20.22    2.95
 -11   1   5   12.32    2.77
  11   1  -5    4.64    3.01
  11  -1   5   16.52    3.23
  11   1   5   18.38    3.49
  11   1  -5   29.37    3.42
 -11   1  -5   12.53    4.02
 -11  -1  -5   12.55    4.26
  11  -1  -5   16.82    3.30
  11  -1   5   11.89    2.68
 -11   1   5   12.50    3.11
  11   1  -5    7.96    1.71
 -11   1   5   14.53    3.08
 -11  -1   5   14.82    3.52
 -11  -1   5   24.38    2.80
  12   1   5    4.47    2.51
 -12  -1  -5    3.47    3.42
  12  -1   5    7.09    2.52
 -12   1  -5    7.63    2.80
 -12   1   5   10.20    3.00
 -12  -1   5    4.06    2.63
 -12   1   5    4.68    2.38
  12   1  -5    6.32    1.54
 -12   1  -5    7.27    3.36
 -12  -1   5    6.54    1.98
 -12  -1   5    7.61    2.19
  12  -1  -5   11.67    3.24
  12  -1   5   10.25    2.89
 -12   1   5    6.41    2.76
 -12   1   5   10.85    2.96
  12   1  -5   10.54    2.63
  12   1  -5    3.00    3.03
 -13   1   5 1051.68   37.72
 -13  -1   5 1026.74   40.80
  13   1  -5 1060.81   38.43
 -13  -1   5 1039.78   36.98
 -13   1   5  947.14   39.66
  13   1  -5  926.80   40.06
  13  -1  -5 1058.38   39.54
  13   1   5 1057.21   38.46
 -13   1   5 1061.36   38.83
 -13   1  -5 1016.48   38.90
 -13   1  -5  955.89   41.97
 -13  -1   5 1062.01   37.33
  13  -1   5 1036.03   37.53
  13  -1   5 1025.61   38.62
 -13  -1  -5 1014.86   43.34
  13   1  -5 1014.40   35.50
 -14   1  -5   57.43    5.54
  14  -1  -5   61.79    6.08
 -14   1   5   61.15    5.67
 -14   1   5   65.15    5.09
  14   1  -5   45.26    5.96
  14   1   5   61.02    5.38
 -14  -1   5   67.57    7.14
 -14  -1  -5   51.85    7.27
  14   1  -5   62.54    5.68
 -14   1  -5   60.48    7.50
  14  -1   5   59.88    5.56
 -14   1   5   47.80    5.89
 -14  -1   5   62.00    4.71
  14  -1   5   65.87    4.83
 -14  -1   5   58.10    4.59
 -15   1  -5   25.29    3.90
  15  -1   5   27.58    4.16
  15   1  -5   27.49    4.74
 -15  -1  -5   25.17    6.04
 -15   1  -5   22.27    5.44
 -15   1   5   35.71    5.25
  15   1   5   31.18    3.99
 -15  -1   5   32.22    3.52
 -15   1   5   34.04    3.52
 -15   1   5   34.07    4.77
 -15  -1   5   30.32    3.31
  15   1  -5   39.54    4.68
  15  -1   5   37.30    3.54
 -15   1   5   35.41    3.74
  15  -1  -5   34.52    5.10
 -15  -1   5   41.23    5.92
  16   1  -5   33.25    5.29
 -16   1  -5   39.15    6.75
  16  -1  -5   43.64    5.73
  16  -1   5   29.57    3.15
  16  -1   5   32.70    4.39
 -16   1   5   30.27    5.18
 -16  -1  -5   27.04    6.31
  16   1  -5   35.38    4.93
  16   1   5   32.28    3.07
 -16   1   5   33.00    4.73
 -16   1   5   38.98    3.51
 -17  -1  -5  786.53   35.61
  17  -1  -5  848.55   31.70
 -17   1   5  728.67   31.59
 -17   1  -5  772.32   34.30
  17   1   5  664.87   25.20
  17  -1   5  715.79   28.12
  17  -1   5  686.57   25.28
  17   1   5  716.85   25.71
  17   1  -5  831.27   30.35
 -17   1   5  719.14   29.27
  17   1  -5  707.93   30.19
 -18   1   5   13.18    4.63
 -18  -1  -5   14.00    5.93
 -18   1  -5    8.34    5.51
  18   1   5   11.96    4.08
  18   1  -5    9.70    3.81
  18  -1  -5   10.18    4.36
  18   1  -5    8.76    3.99
 -18   1   5   15.86    3.76
   0  -1   7    0.79    2.57
   0   1   7    1.00    1.82
   0   1   7   -1.57    2.92
   0  -1  -7    1.11    3.05
   0   1   7    0.70    1.12
   0  -1   7    1.02    1.44
   0   1   7    0.44    2.64
   0  -1   7    0.81    2.41
   0   1  -7    2.17    3.19
   1   1   7  365.72   15.88
   1  -1  -7  323.36   19.15
   1   1  -7  326.01   18.94
  -1  -1   7  384.99   18.16
   1  -1   7  373.10   15.30
   1   1   7  391.19   18.34
  -1  -1  -7  329.62   19.26
  -1   1   7  382.14   17.99
  -1   1   7  402.78   18.94
   1   1   7  372.52   13.86
  -1   1  -7  340.88   19.23
  -1  -1  -7  341.35   17.09
   1  -1   7  410.93   18.55
  -1   1   7  353.39   15.67
  -1  -1   7  342.73   15.02
  -1   1   7  379.84   14.71
  -1  -1   7  394.94   18.33
  -1   1  -7  345.01   17.14
   1   1   7  368.12   18.55
   1   1  -7  309.02   17.82
  -2   1  -7  117.91    9.79
   2  -1   7  103.51    6.33
  -2  -1   7  103.85    8.35
  -2  -1  -7  112.34    8.24
  -2  -1   7   93.71    6.11
   2   1   7  102.83    4.79
   2   1   7  112.32    8.50
  -2   1   7  114.66    8.80
  -2  -1   7  117.63    8.64
  -2  -1  -7  109.12    9.58
   2   1  -7  102.76    8.70
  -2   1   7  100.29    6.03
  -2   1  -7   97.69    7.79
  -2   1   7  111.05    8.31
  -3   1  -7  312.72   17.30
  -3   1   7  263.09   12.65
   3   1   7  280.63   10.43
  -3  -1   7  287.28   11.77
  -3  -1   7  304.53   15.56
   3  -1   7  279.93   15.15
   3  -1  -7  331.54   13.90
  -3  -1   7  333.18   16.10
   3  -1   7  278.99   12.71
  -3   1   7  292.11   15.10
  -3  -1  -7  306.07   17.37
  -3  -1  -7  319.13   15.77
  -3   1   7  321.37   16.20
  -3   1  -7  311.72   15.77
  -4   1   7   24.99    4.43
  -4   1   7   27.74    4.21
  -4  -1   7   25.19    4.36
   4  -1  -7   27.65    5.11
  -4   1   7   24.53    3.20
   4  -1   7   27.77    4.71
  -4   1  -7   25.84    5.15
  -4  -1  -7   31.83    4.84
   4   1   7   25.44    4.63
   4  -1  -7   21.21    2.91
  -4  -1  -7   34.92    3.98
   4  -1   7   25.37    4.45
   4   1  -7   18.97    4.57
  -4  -1  -7   26.30    4.86
  -4  -1   7   31.06    4.61
  -4   1   7   28.04    3.25
  -4   1  -7   22.94    4.43
  -4  -1   7   26.10    2.57
   5   1  -7  460.17   22.72
  -5  -1  -7  521.71   20.47
   5  -1   7  468.29   21.82
  -5   1   7  464.41   21.65
   5   1   7  469.43   22.06
  -5   1   7  425.57   19.21
   5  -1  -7  496.43   18.59
  -5  -1   7  452.90   21.35
  -5  -1   7  451.59   21.37
   5  -1   7  458.47   21.48
  -5   1   7  464.66   18.91
  -5  -1   7  445.05   17.63
  -5   1  -7  499.70   23.62
   5   1  -7  517.38   24.32
  -5  -1  -7  505.94   23.98
  -5   1   7  445.59   20.98
   5   1   7  458.02   22.05
   5  -1  -7  483.24   24.03
  -5  -1  -7  470.26   22.30
  -5   1  -7  527.37   23.05
  -6  -1  -7   12.02    3.98
  -6  -1   7   15.53    3.79
   6  -1   7   15.40    3.86
  -6  -1   7   20.21    4.29
  -6   1  -7   12.13    4.00
   6  -1  -7   19.40    5.00
   6  -1   7   10.78    3.78
  -6   1   7   20.22    3.31
   6   1  -7   17.39    4.53
  -6   1   7   12.90    3.52
  -6  -1  -7   19.54    4.46
   6   1   7   16.07    4.13
   6  -1  -7   16.57    1.93
   6   1   7   17.16    4.16
  -6   1   7   13.29    2.58
  -6  -1   7   16.37    2.30
  -6   1   7   16.30    4.02
  -6  -1  -7   13.17    2.89
  -6   1   7   10.85    2.56
   6   1  -7   11.18    4.02
  -7  -1   7  225.88   12.46
  -7  -1   7  218.12   12.67
  -7   1   7  217.12   12.22
  -7  -1  -7  200.00   10.95
  -7  -1   7  199.24   11.24
   7   1  -7  165.16   12.67
  -7   1   7  219.26   12.44
   7   1  -7  168.86   12.45
   7   1   7  203.56   12.79
  -7  -1  -7  194.78   13.20
   7  -1  -7  168.39   12.96
  -7   1   7  203.68   10.06
   7  -1   7  223.04   12.89
  -7   1  -7  154.39   12.03
  -7  -1  -7  166.74   12.35
   7   1   7  227.55   12.97
   7  -1   7  219.82   12.47
  -7   1   7  188.68   10.74
  -7   1  -7  189.71    9.90
   8  -1   7   46.83    5.77
   8   1   7   49.23    5.86
  -8  -1   7   38.11    4.85
  -8   1  -7   36.69    5.48
  -8  -1   7   48.89    6.02
   8   1  -7   50.10    6.62
   8   1  -7   53.82    3.95
   8   1  -7   43.91    6.21
  -8  -1  -7   43.95    4.97
  -8   1   7   35.50    5.13
   8   1   7   48.75    6.12
  -8  -1  -7   42.06    6.19
  -8   1   7   37.95    4.54
  -8   1   7   42.94    4.18
  -8   1   7   34.48    5.16
  -8   1  -7   46.38    4.34
   8  -1  -7   45.42    6.53
  -8  -1   7   41.26    5.47
   8  -1   7   40.41    5.63
  -9   1  -7  379.30   22.22
   9   1  -7  414.27   22.60
  -9   1   7  488.08   19.79
   9   1   7  498.97   23.10
   9   1  -7  381.57   22.21
  -9   1  -7  457.02   22.74
   9  -1   7  506.62   22.67
  -9  -1   7  534.07   22.24
  -9   1  -7  493.16   19.62
   9   1   7  473.34   22.26
  -9  -1  -7  476.96   20.90
   9  -1  -7  412.10   23.11
  -9  -1   7  544.97   23.22
  -9  -1  -7  427.75   22.80
  -9   1   7  499.43   21.72
  -9  -1   7  488.75   21.74
   9   1  -7  455.64   17.87
  -9   1   7  528.75   22.08
  -9   1   7  467.65   20.95
   9  -1   7  533.68   22.53
 -10   1   7   83.39    7.27
  10  -1  -7   80.39    8.67
  10   1  -7   89.25    4.73
 -10  -1  -7  106.86    9.28
 -10   1  -7  100.77    6.66
 -10  -1   7   85.76    7.59
 -10  -1   7   95.24    7.70
 -10   1   7   99.29    7.87
 -10   1  -7   78.11    8.03
 -10  -1  -7   99.55    7.67
  10   1  -7   94.42    8.99
  10  -1   7   98.82    8.32
  10   1  -7   88.25    8.73
  10  -1   7   93.65    8.02
  10   1   7   88.83    8.40
 -10  -1   7   93.77    8.36
 -10   1  -7   78.34    8.42
  10   1   7   87.29    7.86
 -10   1   7  101.33    7.86
  11   1   7  285.42   14.93
 -11  -1  -7  289.07   17.46
 -11   1  -7  300.59   15.97
 -11   1   7  224.11   13.50
  11   1  -7  226.18    9.08
 -11  -1   7  304.90   15.81
  11   1  -7  284.67   16.18
 -11  -1   7  291.53   14.43
 -11   1  -7  274.50   16.57
 -11   1  -7  328.37   13.31
  11  -1   7  287.16   15.07
 -11  -1  -7  362.54   15.35
  11   1  -7  291.31   16.44
  11   1  -7  222.84    8.99
  11   1   7  300.02   16.02
 -11   1   7  290.74   14.26
 -11   1   7  315.92   14.97
 -11  -1   7  258.30   14.61
  11  -1   7  284.45   14.77
  12   1   7   16.27    5.07
 -12  -1   7   21.39    3.79
 -12  -1  -7   20.54    6.02
  12   1  -7   16.66    5.00
 -12   1   7   20.20    4.20
 -12  -1   7   18.68    4.19
  12   1   7   16.05    3.81
  12   1  -7   17.48    4.99
 -12   1  -7   15.79    4.70
 -12  -1   7   25.66    5.42
 -12   1  -7   23.83    3.72
 -12  -1  -7   19.35    4.23
  12  -1   7   22.40    4.74
 -12   1   7   14.81    3.74
  12  -1   7   17.55    4.39
 -12   1  -7   23.06    4.68
 -12   1   7   23.56    4.83
 -13  -1   7  529.82   22.28
  13   1  -7  515.67   25.36
 -13   1  -7  573.52   25.43
 -13   1   7  542.43   23.05
  13   1  -7  527.18   25.79
 -13   1   7  437.00   23.35
  13  -1   7  532.35   23.96
 -13   1   7  571.71   24.20
 -13  -1  -7  593.55   24.39
 -13   1  -7  596.69   22.64
 -13  -1  -7  544.61   27.98
 -13   1   7  512.01   22.73
 -13   1  -7  546.76   27.33
 -13  -1   7  513.74   21.15
  13   1   7  497.79   23.45
  13  -1   7  517.80   22.66
  14  -1   7   36.64    4.88
 -14   1   7   35.66    4.98
 -14   1   7   35.46    5.65
 -14   1  -7   29.00    6.52
 -14   1  -7   45.93    4.87
 -14  -1  -7   48.20    5.95
  14   1  -7   43.03    6.54
  14   1  -7   39.32    6.55
 -14  -1   7   36.24    4.12
 -14   1  -7   34.62    5.64
  14   1   7   39.94    5.43
 -14  -1  -7   41.66    7.71
  14  -1   7   42.65    5.65
 -15   1  -7  159.01    9.54
 -15   1  -7  128.48   12.29
 -15  -1  -7  162.57   10.79
  15   1  -7  124.44   11.01
 -15   1  -7  140.16   10.59
 -15   1   7  178.78   10.52
 -15   1   7  156.01   11.48
  15   1   7  173.92   10.70
  15   1  -7  117.72   10.28
 -15  -1   7  170.64    8.93
  15  -1   7  168.99    9.77
 -15  -1  -7  120.41   12.57
  15  -1   7  182.77   11.17
 -16   1   7    0.38    3.18
 -16   1   7   -0.52    3.87
 -16  -1  -7    5.64    4.25
 -16   1  -7    5.28    3.29
 -16  -1  -7   -0.82    5.22
  16  -1   7   -0.79    3.36
  16   1   7    2.92    2.39
  16   1  -7   -1.10    3.79
 -16   1  -7   -0.75    4.89
   0   1  -9   -0.46    2.94
   0  -1   9    0.52    2.01
   0   1   9    0.62    2.58
   0  -1  -9    1.33    2.90
   0   1  -9    2.16    3.88
   0   1   9   -0.17    1.49
   0  -1  -9   -0.75    4.11
   1   1  -9  274.52   17.83
   1  -1   9  237.29   12.23
   1   1   9  239.27   10.38
  -1   1   9  240.17   11.27
  -1  -1   9  215.46   11.87
  -1  -1  -9  264.40   15.02
  -1   1  -9  281.38   17.98
  -1  -1  -9  301.63   18.76
   1  -1  -9  278.60   18.26
   1   1   9  239.72   12.75
   1  -1  -9  310.67   15.15
   1   1  -9  314.72   15.47
  -1   1  -9  301.15   15.79
  -2   1  -9   53.97    7.79
  -2  -1  -9   48.80    7.62
  -2  -1   9   48.52    4.68
  -2   1  -9   44.99    6.23
   2  -1   9   42.95    4.53
   2  -1  -9   48.76    5.65
  -2  -1  -9   41.56    6.17
  -2   1   9   49.34    4.36
   2   1  -9   51.26    5.98
  -3   1  -9  209.66   15.27
  -3  -1  -9  192.59   13.28
   3  -1  -9  197.08   11.60
  -3   1   9  207.09   10.58
  -3   1   9  225.21   10.89
  -3  -1   9  187.23   10.35
  -3   1  -9  226.50   14.04
  -3  -1   9  206.97    9.41
   3   1  -9  215.53   12.22
  -3  -1  -9  210.20   15.58
  -4   1  -9   13.60    4.37
  -4   1   9   13.38    3.24
   4  -1  -9   16.24    5.73
   4   1  -9   16.61    3.56
  -4  -1  -9   12.26    4.48
   4   1  -9   22.66    5.75
  -4   1  -9   15.36    5.12
  -4   1   9   17.72    3.15
  -4  -1   9   16.73    2.51
  -4  -1  -9   13.93    5.14
  -5  -1  -9   56.82    7.56
  -5  -1  -9   87.00    9.90
   5   1  -9   70.88    9.18
  -5  -1   9  106.86    5.55
   5  -1  -9   65.85    8.88
  -5   1   9   91.63    6.70
  -5   1   9   88.30    6.03
   5  -1  -9   65.82    5.71
   5   1  -9   70.20    6.42
  -5   1  -9   56.94    7.45
  -5   1  -9   91.78    9.96
  -6  -1  -9   73.69    8.34
   6   1  -9   71.22    8.99
  -6   1  -9   74.57    8.49
  -6   1  -9   73.06    8.81
  -6   1   9   70.00    6.14
   6  -1  -9   63.02    4.90
   6  -1  -9   74.66    9.28
  -6  -1  -9   82.07    9.81
  -6   1   9   68.27    5.44
  -6  -1   9   64.17    4.53
   6   1  -9   72.72    8.82
  -7  -1  -9  441.28   23.46
  -7   1   9  406.62   19.47
   7   1  -9  435.60   24.46
  -7  -1  -9  512.22   20.91
  -7  -1   9  413.98   17.04
   7  -1  -9  442.41   16.20
  -7   1   9  411.32   18.16
   7  -1  -9  448.25   25.05
   7   1  -9  452.41   24.01
  -7   1  -9  426.16   22.97
  -7  -1  -9  473.21   24.88
  -7   1  -9  416.36   23.68
   8  -1  -9   41.23    7.59
   8   1  -9   42.84    7.29
   8   1  -9   44.38    4.15
  -8   1   9   41.60    5.67
  -8  -1  -9   48.88    7.88
  -8   1  -9   45.09    7.13
  -8   1  -9   51.66    7.82
  -8   1   9   46.24    4.83
  -8  -1  -9   58.53    6.12
   8   1  -9   40.80    7.30
  -8  -1  -9   52.61    7.73
   9   1  -9  197.48    8.41
  -9  -1  -9  161.84   13.33
  -9   1  -9  167.81   13.49
   9   1  -9  163.51   13.31
   9   1  -9  152.29   13.25
   9   1  -9  159.64    7.89
  -9  -1  -9  208.65   11.80
  -9   1   9  143.91    9.12
  -9   1  -9  151.55   12.83
  -9  -1  -9  176.52   13.86
  -9   1   9  145.73   10.45
   9  -1  -9  148.60   13.61
 -10   1  -9   43.49    7.45
 -10  -1  -9   29.57    6.62
 -10   1   9   32.23    5.15
  10   1  -9   35.98    7.18
 -10  -1  -9   29.42    6.74
  10  -1  -9   34.57    6.89
  10   1  -9   34.89    6.95
  10   1  -9   32.08    2.31
  10   1  -9   28.53    2.32
 -10  -1  -9   33.24    5.21
  11   1  -9  264.26   17.69
 -11  -1  -9  291.83   15.15
  11   1  -9  255.70   17.75
 -11   1  -9  286.55   17.76
 -11  -1  -9  278.67   18.79
 -11   1   9  244.31   14.84
 -12   1  -9    7.88    4.86
 -12  -1  -9   10.71    4.24
 -12   1   9   11.95    4.16
  12   1  -9    9.06    5.21
  12   1  -9   17.70    6.10
   0  -1 -11    2.26    3.99
   0   1 -11   -0.56    3.48
   0   1 -11    2.82    5.05
   0  -1 -11    3.83    5.91
  -1  -1 -11   48.29    7.30
  -1  -1 -11   48.43    9.25
  -1   1 -11   44.66    7.01
   1  -1 -11   60.67    9.88
   1  -1 -11   67.99    7.63
   1   1 -11   56.55    7.36
  -1   1 -11   55.07    9.43
   1   1 -11   61.33    9.69
  -2   1 -11   18.51    6.91
   2   1 -11   12.96    4.10
  -2   1 -11   11.68    4.83
   2  -1 -11   11.17    4.42
  -2  -1 -11    7.49    4.67
  -2  -1 -11    5.64    5.91
   3   1 -11  273.15   15.52
   3  -1 -11  269.12   20.15
   3  -1 -11  269.37   15.15
   3   1 -11  294.64   20.69
  -3  -1 -11  272.93   20.06
  -3   1 -11  254.88   17.08
  -3  -1 -11  282.27   17.86
  -3   1 -11  285.87   20.36
   4   1 -11   22.86    7.56
  -4  -1 -11   13.74    5.11
  -4   1  11   17.27    3.84
  -4   1 -11   26.43    7.37
   4   1 -11   20.05    4.42
  -4   1 -11   21.83    5.95
   4  -1 -11   28.41    4.95
  -4  -1 -11   22.15    7.05
   4  -1 -11    5.84    5.87
   5   1 -11  115.22    8.72
   5  -1 -11  125.07   13.81
  -5   1 -11  115.86   11.33
  -5  -1 -11  115.06   12.74
  -5   1  11   83.51    7.42
   5   1 -11  115.43   13.07
  -5   1 -11  102.64   12.16
   5  -1 -11  124.35    8.40
  -5  -1 -11  121.13   11.75
  -6   1 -11   22.13    6.27
   6   1 -11   31.84    4.81
  -6   1  11   29.45    4.84
  -6  -1 -11   31.33    7.47
  -6   1 -11   38.32    8.42
   6  -1 -11   29.26    8.52
   6   1 -11   33.27    8.49
  -6  -1 -11   34.24    8.57
   0  -2   0 5761.53  189.29
  -1  -2   0    2.63    0.86
   1   2   0    3.75    1.06
   1  -2   0    4.17    0.98
  -2   2   0  666.43   23.58
  -2  -2   0  688.11   23.52
  -2   2   0  617.87   23.42
   2   2   0  675.05   24.08
  -2   2   0  653.74   22.28
   2  -2   0  678.03   23.16
  -3   2   0    1.85    0.87
   3   2   0    0.83    1.09
  -3   2   0    1.38    0.43
   3  -2   0    1.47    0.81
  -3  -2   0    1.41    0.88
  -4   2   0 3515.82  118.13
   4  -2   0 3542.62  118.01
  -4  -2   0 3448.39  119.80
   4  -2   0 3521.37  118.28
  -4  -2   0 3717.63  118.12
   4  -2   0 3631.07  118.67
  -5  -2   0   10.13    2.17
   5  -2   0   12.61    1.71
   5  -2   0   12.47    1.79
   5   2   0   13.61    1.67
  -5   2   0   16.65    1.72
  -5  -2   0   10.48    1.41
   5  -2   0   11.05    1.50
  -6  -2   0  652.73   23.09
  -6   2   0  660.50   23.19
   6  -2   0  692.19   24.50
   6   2   0  621.82   23.24
   6  -2   0  632.67   23.05
   6   2   0  720.15   24.87
  -6  -2   0  607.53   25.42
   6  -2   0  632.91   24.14
   7   2   0   72.33    5.62
   7   2   0   69.01    4.06
  -7  -2   0   75.48    4.00
   7  -2   0   70.04    3.89
   7   2   0   78.82    5.15
  -7   2   0   71.28    4.00
   7  -2   0   72.33    4.89
  -7  -2   0   68.55    5.62
  -8  -2   0 4883.49  154.37
  -8  -2   0 4329.96  157.68
   8   2   0 4463.68  154.41
   8   2   0 4794.35  156.48
   8   2   0 4820.14  157.77
   8  -2   0 4645.67  154.28
   8  -2   0 4828.54  156.54
  -8   2   0 4704.09  154.35
   9  -2   0   27.44    3.39
  -9   2   0   26.07    2.92
  -9   2   0   25.56    2.19
   9  -2   0   24.42    2.09
  -9  -2   0   28.74    4.01
   9   2   0   32.37    3.48
   9   2   0   25.52    3.63
  -9  -2   0   30.65    2.35
   9   2   0   24.59    2.32
  -9   2   0   25.78    3.31
   9   2   0   29.44    2.39
  10   2   0   18.54    2.02
  10   2   0   29.70    2.67
  10   2   0   25.51    3.40
 -10  -2   0   18.92    3.48
 -10   2   0   31.37    3.25
  10  -2   0   20.22    3.08
  10  -2   0   20.08    3.15
 -10   2   0   23.20    2.01
 -10   2   0   25.40    3.03
 -11   2   0    1.47    1.65
  11   2   0   -0.67    2.17
 -11   2   0   -0.25    1.50
  11   2   0    0.34    1.40
  11   2   0    0.55    1.95
 -11  -2   0    0.40    2.18
  11   2   0   -0.09    0.78
  11  -2   0   -1.22    1.83
  11  -2   0   -0.80    1.87
 -12  -2   0 2703.55   99.82
  12   2   0 2787.18   93.85
  12   2   0 2743.17   94.01
 -12   2   0 2903.41   94.02
 -12   2   0 2719.72   97.22
 -12   2   0 2838.85   97.43
 -12   2   0 2855.10   94.19
  12  -2   0 3004.64   98.82
  12  -2   0 2951.11   97.92
  12   2   0 2966.15   96.07
  12   2   0 3018.94   98.20
  12   2   0 2937.68   99.19
 -13  -2   0    0.45    2.65
 -13   2   0    3.42    2.13
  13   2   0    8.60    3.04
  13   2   0    2.54    2.54
 -13   2   0    3.01    2.00
  13  -2   0    3.23    2.60
  13   2   0    6.05    2.09
  13  -2   0    6.77    2.87
  14   2   0  171.79    9.93
  14   2   0  162.51    8.37
 -14  -2   0  139.85   10.61
 -14   2   0  158.60    9.54
 -14   2   0  128.20    8.97
  14   2   0  169.86   10.51
  14  -2   0  165.78   10.46
  15   2   0    8.56    3.19
  15   2   0   11.47    3.75
 -15   2   0   11.62    3.05
 -15   2   0   11.27    3.09
 -15  -2   0    9.88    3.73
  15  -2   0   10.32    3.40
  15   2   0    9.76    2.53
  16   2   0 2170.21   73.19
 -16   2   0 1913.21   72.57
  16   2   0 2116.41   70.84
 -16  -2   0 2064.41   75.52
  16  -2   0 2115.38   74.47
 -16   2   0 1987.07   72.58
  16   2   0 2117.96   74.25
  16   2   0 1865.27   72.95
 -17  -2   0    7.59    4.38
  17   2   0    8.88    3.93
 -17   2   0    9.27    3.52
 -17   2   0   13.48    3.77
  17   2   0   12.58    2.81
  17   2   0    5.77    3.36
  18   2   0   22.23    4.88
 -18   2   0   23.59    4.60
 -18   2   0   20.85    4.54
  18   2   0   19.36    4.22
 -18  -2   0   21.41    5.63
 -19   2   0    0.43    3.49
 -19  -2   0    1.73    4.02
  19   2   0    0.40    2.96
 -19   2   0   -1.32    3.42
 -20  -2   0 1082.56   43.01
  20   2   0  964.53   39.27
 -20   2   0 1062.17   40.75
 -20   2   0  965.93   40.30
   0  -2  -2 6587.25  192.52
   0   2   2 5861.46  193.18
   0  -2   2 5801.07  193.24
   0  -2   2 5607.02  190.78
   0   2  -2 6410.48  193.91
  -1   2   2   36.89    2.92
   1   2   2   40.46    3.45
   1  -2   2   43.60    3.38
  -1   2   2   40.41    2.80
  -1  -2  -2   45.15    3.04
  -1  -2   2   42.10    3.58
  -1   2  -2   48.91    3.57
  -1  -2   2   43.94    3.37
   2   2   2 3360.28  110.17
  -2   2   2 3355.95  108.39
  -2   2  -2 3214.14  109.18
  -2   2  -2 3119.70  109.42
  -2  -2   2 3343.80  109.32
  -2  -2   2 3470.88  110.20
  -2   2  -2 3039.70  110.00
  -2   2   2 3243.51  109.53
  -2   2   2 3265.17  108.30
  -3   2  -2   39.72    3.68
  -3   2   2   44.50    3.50
  -3   2   2   44.66    2.98
   3   2   2   45.82    4.02
   3  -2   2   49.35    3.45
  -3  -2   2   49.24    3.54
  -3   2  -2   38.61    3.09
  -3   2   2   46.17    2.77
  -4   2   2 4174.18  136.01
   4   2  -2 4229.84  137.66
   4  -2   2 3996.18  137.46
   4  -2   2 4083.39  137.09
  -4   2  -2 4002.74  138.41
   4   2  -2 4037.40  137.97
  -4  -2   2 4161.59  137.52
  -4   2   2 4153.56  137.85
   4  -2   2 4238.68  137.80
  -4   2  -2 4157.95  137.11
   4   2   2 4331.34  139.38
  -5   2   2   10.22    1.46
   5  -2   2   11.64    1.65
   5   2  -2   13.09    2.11
   5  -2   2   10.20    1.66
   5   2   2    9.91    2.08
  -5  -2   2   13.57    1.97
   5   2  -2   15.61    2.11
  -5   2  -2   14.32    1.74
  -5   2   2    9.38    1.74
   5  -2  -2   12.92    1.87
   5   2   2    9.84    1.84
   5   2   2   13.41    2.76
   5  -2   2   12.46    2.03
  -5   2  -2   10.17    2.02
   5   2  -2   14.29    2.22
   6   2  -2 3152.15  102.40
  -6   2   2 3058.64  102.73
  -6   2   2 3077.14  101.95
  -6   2  -2 3104.25  102.49
   6  -2   2 2956.08  101.43
   6   2  -2 2946.48  102.35
  -6  -2   2 3093.63  101.53
   6  -2  -2 3199.88  102.15
   6   2   2 2944.98  102.68
   6   2   2 2873.52  101.55
   6   2   2 2971.17  103.86
   6  -2   2 3089.35  102.51
   6   2  -2 3258.07  102.88
   6  -2   2 2911.71  100.83
  -6   2   2 3034.75  100.55
  -7   2   2   16.60    2.59
  -7  -2   2   15.79    2.08
   7  -2   2   17.08    2.10
   7   2  -2   16.35    2.38
   7   2   2   17.94    2.21
   7   2   2   16.23    2.53
   7  -2  -2   17.49    2.38
   7   2  -2   19.62    2.80
   7   2   2   17.48    2.33
   7   2  -2   16.93    2.50
  -7   2  -2   19.79    2.57
  -7   2   2   17.58    2.22
   7  -2   2   17.19    1.85
  -7   2   2   15.75    1.63
   7  -2   2   19.23    2.77
  -7   2   2   13.95    2.27
   8   2   2 3727.53  132.60
   8   2   2 3763.79  131.98
  -8   2  -2 4294.46  132.92
  -8  -2  -2 4417.15  137.15
   8   2   2 3913.46  133.19
  -8  -2   2 3969.39  131.90
   8  -2   2 3949.82  131.85
  -8   2   2 3726.37  133.15
  -8   2   2 4095.36  133.17
  -8   2   2 3935.76  132.19
   8   2  -2 4669.81  134.52
   8   2  -2 4145.46  132.90
  -8   2   2 3826.12  130.85
   8  -2   2 3850.82  131.25
   8  -2   2 3992.98  133.79
   8   2  -2 4557.53  134.21
  -8   2   2 3876.96  130.87
  -9   2  -2   16.45    2.87
   9   2   2   12.15    2.18
  -9   2   2   10.64    2.36
  -9   2   2   10.96    1.58
  -9   2   2   13.77    1.49
   9   2  -2   10.43    2.41
  -9   2   2   13.79    2.24
  -9   2   2    9.21    2.22
   9   2  -2   15.09    2.70
   9  -2   2   12.14    1.73
   9   2   2   15.22    2.45
  -9  -2  -2   12.32    3.13
   9  -2   2   13.22    1.58
   9   2   2    9.36    1.74
   9   2  -2   12.84    2.14
  -9  -2   2   11.23    1.74
  -9   2  -2   14.07    2.12
  -9   2   2   15.73    2.02
 -10   2   2 1688.83   65.78
 -10   2   2 1868.47   64.01
 -10  -2   2 1948.60   64.09
  10   2  -2 1962.63   66.80
 -10  -2   2 1843.79   66.11
 -10  -2  -2 1946.95   69.90
 -10   2   2 1958.23   64.31
 -10   2   2 1959.07   65.04
 -10   2  -2 1839.62   64.70
  10   2   2 1948.66   65.71
  10   2  -2 2130.71   67.48
  10   2   2 1813.01   64.17
  10   2  -2 1851.92   64.85
  10   2   2 1878.09   65.17
  10   2   2 1973.59   68.66
  10  -2   2 1904.85   64.03
  10  -2   2 1908.66   63.51
 -10   2   2 1850.40   66.52
 -10   2  -2 1920.03   67.60
  11   2  -2   26.70    3.84
 -11  -2   2   31.35    2.59
  11   2   2   29.70    2.60
  11  -2   2   33.74    2.62
 -11   2  -2   29.05    2.80
 -11  -2   2   31.03    3.88
 -11   2   2   31.91    2.63
  11   2   2   38.33    3.95
  11   2   2   32.44    4.73
  11   2  -2   32.24    4.16
 -11   2  -2   31.28    4.17
 -11   2   2   31.24    2.82
  11   2   2   34.63    3.22
 -11   2   2   33.84    4.04
  11  -2   2   29.07    2.21
 -11  -2  -2   24.65    4.61
  11   2  -2   24.64    2.77
 -11   2   2   30.70    2.86
  12  -2   2 2365.56   76.53
  12   2  -2 2444.42   80.98
  12   2  -2 2201.11   79.78
 -12   2   2 2440.01   76.78
  12   2   2 2286.57   76.78
 -12   2  -2 2012.43   80.33
 -12   2  -2 2069.38   78.44
  12   2   2 2289.16   77.41
 -12   2   2 2449.07   77.30
  12   2   2 2503.71   82.61
  12  -2   2 2222.21   75.82
 -12   2   2 2429.33   77.85
  12   2  -2 1962.62   80.50
  12   2  -2 2129.88   77.20
  12   2   2 2452.23   79.41
 -12  -2  -2 2064.13   82.92
 -12  -2   2 2327.58   80.14
  12  -2   2 2540.66   80.83
 -12   2   2 2277.19   80.20
 -12  -2   2 2374.87   76.73
 -12   2  -2 2185.81   77.17
  13   2  -2   28.37    4.32
 -13   2  -2   20.07    2.20
  13   2  -2   21.81    4.11
  13   2  -2   25.32    3.67
  13   2   2   14.86    3.03
 -13   2   2   19.51    2.67
 -13  -2  -2   20.88    4.65
  13   2   2   21.53    4.42
 -13   2  -2   18.82    2.98
  13   2   2   15.65    1.82
 -13  -2   2   21.80    3.62
 -13   2   2   18.17    1.87
 -13   2   2   14.11    1.95
  13  -2   2   16.80    1.32
 -13  -2   2   19.57    1.88
  13  -2   2   18.56    1.75
 -13   2  -2   18.30    3.63
  13  -2   2   15.61    3.47
  13   2  -2   15.95    2.16
  13   2   2   20.40    2.23
 -13   2   2   14.44    3.19
  14   2  -2 1794.61   58.36
  14   2   2 1548.60   53.27
 -14   2   2 1629.28   53.16
  14   2   2 1683.31   57.22
 -14   2  -2 1672.93   59.49
 -14  -2  -2 1835.05   62.82
 -14  -2   2 1509.16   57.72
  14   2   2 1590.96   56.79
 -14   2   2 1591.91   53.37
 -14   2  -2 1798.05   54.00
 -14   2  -2 1782.50   57.36
 -14   2   2 1570.89   55.86
  14   2  -2 1594.35   53.45
  14  -2   2 1434.90   52.83
  14   2  -2 1672.81   59.27
  14   2   2 1486.95   53.43
  14  -2   2 1746.47   58.75
 -14  -2   2 1613.75   53.29
 -14   2   2 1458.71   57.49
  14   2  -2 2036.91   60.08
  14   2   2 1733.35   60.57
  15   2   2   12.00    4.18
  15   2  -2   13.45    3.89
 -15   2  -2   12.17    3.12
 -15  -2  -2   10.03    4.41
  15   2  -2   12.36    3.22
 -15   2  -2   12.90    4.07
 -15   2   2    9.13    2.50
  15   2   2   10.75    3.10
 -15  -2   2    7.70    3.10
  15  -2  -2   10.62    3.45
 -15   2   2    8.04    3.07
  15  -2   2    6.60    3.56
  15   2   2    9.66    2.94
  16   2   2 1697.26   60.95
 -16   2   2 1549.52   62.17
 -16   2   2 1716.38   60.22
  16   2   2 1727.82   61.16
 -16  -2  -2 1782.47   66.60
 -16   2  -2 1656.57   60.94
 -16  -2   2 1636.32   62.03
  16  -2  -2 1957.38   64.25
  16   2  -2 1630.35   62.31
 -16   2  -2 1693.01   63.40
  16   2   2 1724.35   64.26
  16   2  -2 1848.64   62.37
  17   2  -2    9.61    3.32
 -17   2  -2    8.48    3.81
 -17   2   2   14.77    3.98
 -17   2  -2    5.47    2.98
 -17  -2  -2    7.67    4.68
 -17  -2   2   10.33    3.46
  17  -2  -2   14.78    4.37
 -17   2   2    8.64    2.84
  17   2  -2    8.99    3.27
  17   2   2   13.92    3.57
 -18  -2  -2  664.63   32.43
 -18   2  -2  652.73   30.05
 -18   2   2  750.91   27.66
 -18   2   2  629.30   29.15
 -18  -2   2  749.50   29.73
 -18   2  -2  635.18   28.12
  18  -2  -2  756.76   31.10
  18   2  -2  601.59   28.30
  18   2   2  758.25   28.56
  18   2  -2  719.55   28.93
  19   2  -2   -0.40    3.08
 -19  -2   2    2.52    3.33
 -19   2  -2    1.57    3.61
 -19   2   2   -0.48    3.53
 -19   2  -2    1.55    2.98
 -19  -2  -2   -1.36    4.56
  19  -2  -2    2.60    4.07
   0  -2  -4  760.04   32.34
   0   2   4  968.19   34.69
   0  -2  -4  815.12   31.54
   0  -2   4 1012.76   34.16
   0  -2   4  869.37   32.93
   0   2   4  954.56   32.40
   1   2   4    2.03    1.50
  -1   2   4    2.28    1.82
  -1   2   4    3.16    1.48
  -1   2  -4    2.21    1.55
   1   2  -4    3.95    1.40
  -1  -2  -4    4.16    1.74
   1  -2  -4    5.24    1.76
  -1  -2   4    0.26    1.60
   1  -2   4    4.01    2.02
  -1  -2   4    4.23    2.01
  -1  -2  -4    2.15    1.38
   1   2   4    4.27    2.15
  -2  -2  -4 3856.82  142.48
  -2  -2  -4 3996.49  140.78
   2  -2  -4 3842.43  140.50
  -2  -2   4 4561.84  142.03
  -2   2   4 4271.58  140.21
   2   2  -4 4306.73  140.63
   2  -2   4 4195.50  139.08
  -2  -2   4 4500.41  142.85
  -2  -2   4 4306.13  138.03
  -2  -2   4 4470.52  142.79
   2   2   4 4325.42  142.12
  -2   2   4 4249.70  143.44
  -2   2  -4 3899.95  141.88
  -3   2   4   31.64    2.46
   3   2   4   33.74    3.81
  -3   2  -4   18.58    3.19
   3  -2   4   28.56    2.05
   3   2  -4   30.26    3.01
  -3  -2   4   26.67    3.18
  -3  -2   4   33.61    3.86
  -3  -2  -4   29.10    3.07
  -3  -2   4   35.01    3.81
   3  -2  -4   25.73    2.50
  -3   2   4   29.80    3.84
   3  -2   4   29.70    3.43
  -3   2   4   28.61    3.25
  -3   2  -4   27.62    3.48
  -4  -2   4 3905.89  127.56
   4   2   4 3780.55  129.30
   4  -2  -4 3643.27  124.92
   4   2   4 3891.64  128.86
   4  -2   4 3889.19  127.73
  -4   2   4 3936.28  129.14
  -4   2   4 3815.60  127.29
  -4   2  -4 3902.59  128.03
  -4  -2  -4 3862.66  127.41
  -4   2   4 3840.63  126.85
   4  -2   4 3854.54  127.82
   4   2  -4 3966.12  127.14
  -4  -2   4 3946.69  128.83
  -4   2  -4 3635.89  128.74
  -4   2   4 3598.71  124.90
  -5  -2   4   41.18    3.90
   5   2  -4   43.03    3.92
   5  -2   4   44.59    4.14
  -5   2   4   38.91    4.44
  -5   2  -4   41.88    4.09
  -5   2   4   46.80    3.91
  -5  -2   4   43.97    4.54
   5   2   4   35.51    4.39
   5   2   4   48.68    4.87
  -5   2  -4   33.69    4.10
   5  -2   4   45.88    4.13
  -5   2   4   40.93    3.79
  -6   2   4 3807.41  122.82
   6  -2   4 3653.40  123.18
  -6   2   4 3742.87  124.28
   6   2  -4 3589.95  123.23
   6   2   4 3626.91  124.46
  -6  -2   4 3797.29  124.63
  -6   2  -4 3595.85  120.24
  -6  -2   4 3682.46  122.95
   6   2  -4 3632.96  120.32
   6  -2   4 3692.82  122.93
  -6   2  -4 3269.26  123.71
   6   2   4 3811.16  125.14
  -6   2   4 3715.59  122.61
   7   2   4   42.95    4.98
   7  -2   4   36.14    3.97
  -7  -2   4   39.10    3.87
   7   2  -4   38.82    3.70
   7   2   4   42.42    4.88
  -7   2   4   40.72    4.48
  -7   2  -4   44.08    4.46
  -7   2  -4   41.58    2.70
  -7  -2  -4   35.48    4.84
  -7  -2   4   38.66    4.52
  -7   2   4   39.59    3.89
   7   2  -4   32.87    4.64
   7  -2   4   46.09    4.11
  -7   2   4   43.54    3.80
   7   2  -4   40.29    2.79
   8   2  -4  359.99   15.91
  -8  -2  -4  330.86   19.61
  -8   2  -4  343.66   17.74
  -8  -2   4  543.28   18.55
  -8   2   4  557.33   19.91
   8   2   4  543.43   17.19
   8  -2   4  517.56   18.60
  -8   2  -4  371.11   15.66
   8   2  -4  373.46   17.16
   8   2   4  524.85   20.04
   8   2  -4  318.95   18.73
  -8   2   4  548.43   19.00
  -8   2   4  474.36   18.47
  -8   2   4  551.99   18.31
   8  -2   4  524.61   18.47
   8   2   4  581.93   21.77
   9   2  -4   12.57    3.54
   9   2   4   18.48    3.46
  -9   2   4   17.69    3.26
   9  -2   4   16.66    2.72
  -9   2  -4   19.99    3.86
   9   2   4   19.04    3.85
  -9   2   4   19.56    3.10
   9   2  -4   14.94    2.60
  -9  -2  -4   19.71    4.18
  -9   2  -4   14.77    1.86
  -9   2  -4   18.52    3.01
  -9   2   4   21.09    2.89
   9  -2   4   15.32    2.67
   9  -2  -4   20.21    3.12
   9   2  -4   15.94    2.30
  -9  -2   4   19.05    1.78
   9   2   4   16.79    2.27
  -9  -2   4   17.28    2.94
 -10  -2   4 3719.28  119.10
 -10   2   4 3709.27  120.13
 -10   2   4 3403.69  120.29
  10   2  -4 3365.67  119.19
  10   2   4 3533.46  120.42
  10   2   4 3628.09  118.29
  10   2  -4 3644.86  118.47
 -10   2   4 3945.54  119.02
 -10   2  -4 3404.76  117.47
 -10  -2  -4 3380.65  124.05
  10  -2  -4 3652.95  120.45
  10  -2   4 3521.98  119.14
 -10   2   4 3571.23  120.21
  10   2  -4 3173.46  121.87
 -10  -2   4 3478.41  116.78
  10  -2   4 3664.82  119.13
 -10   2  -4 3391.07  122.40
 -10   2  -4 3268.76  119.98
 -11   2   4   15.86    2.70
 -11  -2   4   15.05    2.71
  11   2  -4   12.80    3.89
  11  -2   4   14.00    2.60
 -11   2  -4   15.50    2.14
  11   2   4   17.37    2.57
 -11   2   4   13.59    3.11
  11   2  -4   14.64    2.89
 -11   2   4   14.47    2.69
  11  -2   4   14.51    2.65
  11  -2  -4   14.31    3.26
  11   2  -4   19.94    2.77
 -11   2  -4   15.86    4.02
  11   2   4   12.74    3.18
 -11   2  -4   13.41    2.97
 -11   2   4   16.12    3.04
 -11  -2  -4   22.46    4.82
 -11   2   4   14.74    3.08
 -11  -2   4   12.79    1.73
  12   2  -4 1387.14   48.41
 -12   2   4 1341.56   46.03
 -12  -2  -4 1207.21   51.08
 -12  -2   4 1331.70   45.37
 -12   2   4 1373.43   45.67
  12   2   4 1378.73   45.70
 -12   2   4 1191.01   47.67
 -12   2  -4 1223.87   46.34
  12   2  -4 1268.51   45.89
  12   2  -4 1222.59   46.07
  12  -2   4 1240.91   45.18
  12   2  -4 1157.02   48.69
 -12   2   4 1228.13   47.09
  12  -2  -4 1274.45   47.61
 -12   2  -4 1197.10   49.27
  12  -2   4 1288.73   45.55
  12   2   4 1288.57   46.53
 -12   2   4 1322.28   46.11
 -13   2  -4    1.36    2.04
  13  -2   4    3.17    1.95
  13  -2   4    4.09    1.83
  13   2  -4    3.16    2.23
 -13   2   4    2.09    1.84
  13   2  -4   -0.26    1.98
  13   2  -4    0.46    2.91
 -13  -2   4    2.21    1.82
 -13   2  -4    2.98    3.21
 -13   2   4    4.19    3.01
 -13  -2  -4    4.95    4.11
 -13   2   4    5.45    1.95
  13   2   4    4.04    3.68
  13   2   4    0.99    1.99
  13   2   4    3.05    1.99
  13  -2  -4    5.12    3.10
 -13   2   4    2.42    2.61
  14   2   4 2124.46   67.86
  14   2  -4 1911.41   68.02
  14   2  -4 1989.53   68.70
 -14   2  -4 1872.52   67.69
 -14   2   4 1846.08   70.17
 -14   2  -4 1753.14   67.17
 -14   2   4 2102.36   67.04
 -14   2  -4 1787.24   71.89
  14   2  -4 1701.69   67.55
  14  -2   4 1943.60   66.41
  14  -2  -4 1993.72   70.45
 -14  -2  -4 1904.96   74.33
 -14  -2   4 2133.48   66.76
  14   2   4 1844.63   66.42
  14   2   4 1942.37   67.53
  14   2  -4 1780.21   70.86
  14  -2   4 2059.57   67.28
 -14   2   4 2052.22   70.10
 -14   2   4 2118.16   67.28
  15  -2   4    1.58    1.52
 -15   2   4    2.99    3.02
  15   2   4    2.14    1.60
  15   2  -4    4.17    3.27
  15   2   4    2.48    2.00
  15  -2   4    1.94    1.86
  15   2  -4    2.39    2.06
  15   2  -4    5.09    2.40
 -15   2  -4    6.98    3.79
  15   2   4    2.19    2.30
 -15   2  -4    1.00    2.08
 -15  -2  -4    4.76    4.27
 -15   2   4    2.68    1.83
 -15   2   4    5.75    1.85
 -15  -2   4    2.85    1.58
  15  -2  -4    2.07    3.31
  15   2  -4    3.14    2.66
 -15   2  -4    4.35    2.19
 -15   2   4    5.25    2.97
 -16   2  -4  100.38    7.19
 -16   2   4  235.89    7.98
 -16   2  -4   84.81    9.66
  16  -2   4  223.22    7.57
 -16   2   4  212.87   11.47
 -16   2   4  204.40   11.96
 -16   2  -4  100.75    7.90
  16   2   4  194.50    7.55
  16   2   4  218.58    8.50
  16  -2  -4  109.95    9.62
  16   2  -4  104.61    7.21
  16   2  -4  131.60    9.28
  16  -2   4  220.63    8.59
  16   2  -4  113.85    8.17
  16   2  -4  113.80    9.90
 -16  -2  -4  108.71   11.68
  17  -2   4    5.91    1.18
  17   2   4    5.23    1.42
 -17  -2  -4   10.31    5.55
 -17   2  -4    4.10    4.24
  17   2  -4    2.76    3.58
  17  -2   4    7.53    1.98
  17   2  -4    5.28    2.65
 -17   2  -4    3.88    2.79
  17  -2  -4    8.78    3.98
  17   2  -4    6.18    3.28
 -17   2   4    6.80    3.71
 -18   2  -4 1393.26   57.63
 -18   2  -4 1469.67   53.45
  18  -2  -4 1543.14   56.49
  18   2  -4 1546.88   54.85
 -18  -2  -4 1410.95   59.79
  18   2  -4 1291.14   54.80
 -18   2   4 1535.74   55.38
  18   2  -4 1514.70   52.76
   0   2   6  747.33   26.26
   0   2  -6  449.17   22.86
   0   2  -6  481.59   19.54
   0  -2  -6  407.84   23.55
   0  -2   6  760.47   25.47
   0   2  -6  413.20   23.29
   1  -2  -6    5.06    2.95
  -1  -2   6   10.39    3.12
   1   2   6   21.26    3.97
  -1   2  -6    7.34    2.79
   1   2  -6    8.81    3.07
  -1   2  -6    7.08    1.40
  -1   2   6    9.45    2.96
   1  -2  -6    9.14    2.52
  -1   2   6    8.58    3.34
  -1  -2  -6    6.16    2.01
   1   2  -6    9.20    1.90
  -1   2   6   12.75    2.49
   1   2   6   14.48    3.40
  -1   2  -6   10.85    3.38
  -1  -2  -6   10.03    3.34
   1   2  -6   11.90    3.41
   1  -2   6    8.42    2.93
  -1  -2   6    9.80    2.91
  -2   2  -6 3233.85   96.23
  -2   2  -6 2959.22  101.56
  -2   2   6 2781.24  100.19
  -2   2   6 2960.89  102.03
   2  -2   6 2637.29   96.89
   2  -2  -6 3004.07   99.39
  -2  -2   6 2680.72   95.69
  -2  -2  -6 3025.61  101.30
  -2  -2  -6 3088.44   99.35
   2   2  -6 3360.98   98.24
  -2  -2   6 2919.96  101.05
  -2   2   6 2581.10   98.15
  -2  -2  -6 2883.74  103.11
  -2  -2   6 2833.12  100.49
   2   2   6 2926.75   99.87
  -2   2  -6 2894.75  102.60
   2   2  -6 2837.50  101.76
  -3   2  -6   23.26    3.97
   3  -2  -6   27.46    3.15
  -3   2   6   33.19    5.00
  -3  -2   6   23.21    4.01
  -3  -2   6   28.92    4.37
   3   2   6   25.38    3.72
  -3   2  -6   22.93    1.73
   3   2  -6   25.62    4.48
  -3   2   6   23.57    3.72
  -3  -2  -6   27.96    4.22
  -3  -2  -6   25.40    3.44
  -3   2   6   18.83    2.82
   3  -2   6   25.70    2.61
  -3  -2   6   23.92    1.83
   3  -2   6   21.51    3.78
  -3   2  -6   31.79    4.84
   3   2  -6   35.65    3.42
  -3  -2  -6   23.81    4.69
   4  -2  -6  706.75   24.33
  -4   2  -6  800.19   21.69
   4   2   6  539.56   26.91
  -4   2   6  549.27   26.79
   4   2  -6  854.62   25.99
  -4  -2  -6  751.69   28.79
  -4  -2   6  565.70   26.30
  -4  -2   6  526.02   22.00
  -4   2   6  500.76   24.06
  -4  -2  -6  783.89   26.30
  -4   2   6  532.97   24.31
  -4  -2   6  529.27   26.14
  -4  -2  -6  704.64   29.37
   4  -2   6  548.16   25.81
   4  -2   6  515.90   26.17
   4   2   6  568.77   26.13
  -4   2   6  517.27   25.27
  -4   2  -6  732.28   29.15
   4   2  -6  747.57   29.47
   5   2   6    2.16    2.59
  -5   2   6    4.89    2.84
   5  -2   6    4.45    2.63
  -5  -2   6    3.95    2.69
  -5   2   6    2.62    1.70
   5   2   6    5.73    3.02
  -5   2   6    1.89    2.26
  -5  -2  -6    2.30    2.38
   5  -2  -6    1.49    1.12
  -5   2   6    3.94    2.00
  -5  -2  -6    1.17    1.91
  -5   2   6    4.29    2.16
  -5   2  -6    2.32    2.49
   5   2  -6    2.42    2.71
   5  -2   6    0.40    2.39
  -5  -2   6    2.60    2.40
   5   2  -6    3.81    2.08
  -6   2   6 2129.30   79.73
   6   2  -6 2149.62   83.19
   6   2  -6 2647.45   80.92
  -6   2  -6 2327.59   83.39
   6  -2   6 2440.93   82.85
   6   2   6 2396.37   83.25
  -6  -2  -6 2436.57   81.00
  -6   2   6 2131.57   79.48
  -6   2   6 2379.97   82.67
  -6  -2   6 2390.05   82.18
  -6   2   6 2403.19   79.95
  -6  -2   6 2419.28   82.81
   6  -2   6 2277.87   81.51
  -6   2   6 2382.48   81.07
   6   2  -6 2100.60   83.06
   6   2   6 2328.07   82.69
  -6  -2  -6 2075.30   82.97
  -7   2   6    2.12    2.40
  -7  -2   6    3.06    2.61
   7  -2   6    2.63    2.41
   7  -2   6    2.37    2.53
  -7   2  -6    4.10    2.73
   7   2  -6    5.47    3.34
  -7   2   6    1.70    1.91
   7   2   6    3.83    1.17
  -7   2   6    5.36    2.23
  -7  -2  -6    2.62    2.31
  -7  -2   6    6.20    3.33
   7   2   6    4.30    3.40
  -7   2  -6    2.25    3.02
  -7   2   6    5.74    2.44
  -7  -2   6    2.19    2.76
   7  -2   6    5.63    3.24
   7   2  -6    3.85    3.15
   7   2   6    1.29    2.85
   7   2  -6    4.66    2.49
  -7   2   6    2.78    2.56
  -8   2  -6  279.73   17.19
  -8  -2   6  428.29   17.26
  -8   2   6  389.61   18.27
   8   2  -6  340.20   15.58
   8   2  -6  331.58   16.42
  -8   2   6  380.24   16.85
   8  -2   6  448.54   17.92
  -8   2  -6  313.16   14.15
  -8  -2  -6  321.71   16.69
  -8  -2   6  432.46   19.29
  -8   2   6  420.54   16.76
   8   2   6  420.58   19.05
   8   2  -6  262.27   17.19
  -8   2   6  444.53   17.61
   8   2   6  397.12   13.64
   8  -2   6  416.69   17.75
   8   2  -6  266.68   17.56
   8   2   6  428.43   19.58
  -8   2  -6  260.88   17.24
   9   2  -6    9.46    3.61
  -9  -2   6   11.09    4.04
   9  -2   6   12.68    3.37
  -9   2   6   10.19    3.43
  -9   2   6    8.17    2.90
   9  -2   6    5.71    3.08
  -9   2  -6    8.17    3.40
   9   2  -6    4.61    2.82
   9   2  -6    6.76    3.46
  -9   2   6    6.71    2.64
   9   2   6    9.75    1.59
   9   2  -6    7.48    2.39
  -9   2  -6    8.47    1.97
  -9  -2  -6    6.46    2.80
  -9  -2   6    8.34    2.86
  -9   2   6   10.30    2.88
   9   2   6    7.96    3.42
  -9   2  -6    6.11    3.23
 -10   2  -6 2302.23   71.78
 -10  -2  -6 1963.23   78.15
  10   2   6 2110.31   70.36
 -10  -2   6 2132.12   73.64
  10  -2   6 2016.27   73.86
  10   2  -6 1968.31   75.91
  10   2  -6 2288.88   75.20
 -10   2   6 1832.63   73.98
  10   2  -6 2194.85   72.64
 -10  -2  -6 2347.96   75.59
 -10   2  -6 2012.38   75.49
 -10   2   6 2164.75   74.08
  10  -2   6 2011.31   74.07
 -10   2   6 2020.66   73.31
  10   2  -6 1911.88   76.64
  10   2   6 2098.33   75.45
 -10   2   6 2143.08   74.94
 -10   2  -6 1994.04   77.17
 -11   2   6   24.13    3.97
  11  -2   6   23.30    3.87
 -11   2  -6   30.40    3.17
 -11  -2   6   23.41    3.62
  11  -2   6   26.65    4.17
  11   2   6   24.49    2.35
 -11   2  -6   24.01    5.05
  11   2  -6   23.29    4.22
 -11   2   6   18.66    3.90
 -11  -2  -6   25.77    5.73
  11   2  -6   23.98    3.38
  11   2  -6   27.49    4.90
 -11   2   6   24.55    3.93
 -11   2  -6   28.33    4.80
 -11  -2   6   20.66    2.44
  11   2   6   17.80    3.94
  11   2  -6   21.00    4.77
 -12  -2  -6  642.79   28.43
  12   2  -6  672.12   21.46
 -12   2  -6  659.74   27.29
 -12  -2   6  471.72   21.09
 -12   2   6  378.62   21.62
 -12   2  -6  724.50   21.43
  12  -2   6  422.53   21.01
 -12   2   6  439.58   21.35
 -12   2   6  488.84   21.70
 -12  -2   6  432.50   18.92
  12  -2   6  440.44   21.44
 -12   2  -6  667.58   25.06
  12   2   6  459.67   22.16
  12   2  -6  637.16   25.19
  12   2  -6  599.83   26.10
  13   2  -6    4.42    4.04
 -13   2  -6    7.96    4.01
  13   2   6    6.95    3.13
 -13   2  -6    5.26    3.15
 -13   2   6    3.17    2.60
 -13   2   6    8.51    3.46
  13   2  -6    2.48    1.95
 -13  -2  -6    5.73    4.49
  13  -2   6    6.26    2.97
 -13   2  -6    1.70    2.12
  13  -2   6    2.08    2.71
  13   2  -6    4.89    3.22
  13   2   6    7.82    2.84
  13   2  -6    3.75    2.38
 -13  -2   6    7.14    2.70
 -13   2   6    4.73    3.01
 -13  -2   6    7.72    1.98
 -13   2   6    6.46    3.10
 -14   2   6 1178.33   44.24
 -14   2  -6 1077.72   45.07
 -14  -2   6 1370.43   44.06
 -14   2  -6 1221.03   43.12
  14   2  -6 1058.43   41.85
  14   2  -6 1013.71   45.27
  14   2  -6 1148.57   43.52
  14   2   6 1173.45   43.70
 -14   2   6 1343.27   44.74
 -14   2   6 1158.52   46.42
 -14  -2  -6 1128.36   50.42
 -14   2   6 1478.98   45.57
  14  -2   6 1313.51   44.22
  14   2   6 1255.41   45.30
 -14   2   6 1268.69   45.83
  14  -2   6 1254.52   44.91
 -14  -2   6 1220.02   41.68
  14   2  -6 1004.59   46.88
 -14   2  -6 1026.88   48.05
  15   2   6    4.61    2.53
  15  -2   6    3.83    2.89
  15   2  -6    2.10    2.96
  15   2  -6    2.72    2.02
 -15   2  -6    2.62    4.24
  15   2  -6    5.59    3.51
 -15   2   6    2.83    3.44
 -15  -2  -6    3.13    4.61
 -15   2   6    1.17    2.57
  15   2  -6    2.90    2.74
 -15   2  -6    3.00    2.50
  15   2   6    2.81    2.49
 -15   2  -6    0.77    2.90
 -15   2   6    2.42    2.94
  15  -2   6    4.41    2.45
 -16   2  -6  140.03   12.78
  16   2   6  167.81    8.85
 -16  -2  -6  184.26   15.31
  16  -2   6  181.17    9.19
 -16   2   6  167.85   11.66
 -16   2  -6  178.19    9.54
  16   2  -6  146.57   10.32
  16   2  -6  178.96   10.15
  16   2   6  169.16    9.91
  16  -2   6  181.99   10.32
 -16   2   6  199.60   11.89
 -16   2  -6  155.43   10.34
  16   2  -6  141.71   11.76
  16   2  -6  165.93    7.82
  17   2   6    9.33    2.46
  17   2  -6   12.99    3.51
  17   2  -6   16.63    5.04
 -17   2  -6   11.34    5.13
 -17   2   6    7.13    4.04
 -17  -2  -6   12.57    6.06
  17   2  -6   13.33    3.73
 -17   2   6   10.69    4.00
   0   2   8 2157.57   75.24
   0   2  -8 2071.19   76.43
   0  -2  -8 2145.20   74.49
   0  -2   8 1885.48   70.20
   0   2   8 2251.96   76.95
   0   2   8 2028.27   72.07
   0  -2   8 2271.91   76.09
   0   2  -8 1986.71   77.51
   0  -2  -8 2042.52   78.12
   0   2   8 2019.99   69.80
   1   2   8    4.41    1.55
   1   2  -8    2.27    3.23
  -1  -2   8    8.30    3.81
  -1   2   8    4.03    3.27
  -1   2   8    3.37    1.84
  -1  -2  -8    4.07    3.08
  -1   2  -8    0.55    3.44
  -1  -2  -8    1.33    3.52
   1  -2  -8    3.58    3.03
   1  -2   8    2.16    1.79
   1   2  -8    5.90    3.80
  -1   2   8    3.32    2.64
   1   2   8    5.21    3.46
   1  -2  -8    3.38    4.05
   1   2   8    5.94    3.59
  -1   2   8    5.34    3.73
  -1  -2   8    2.80    1.71
  -1   2  -8    2.60    3.28
   1  -2   8    1.46    3.14
  -1  -2   8    1.44    3.05
   2   2   8 1748.48   63.04
  -2  -2  -8 1812.24   62.87
  -2   2  -8 1733.62   65.27
  -2   2   8 1809.93   63.96
  -2   2   8 1674.13   57.98
  -2  -2   8 1431.67   57.39
   2  -2   8 1630.89   57.83
  -2  -2   8 1822.62   62.97
   2   2   8 1647.09   56.27
  -2  -2   8 1561.28   55.92
  -2  -2   8 1777.92   62.48
   2   2  -8 1769.60   64.45
  -2  -2  -8 1854.24   66.36
   2  -2   8 1812.01   62.92
  -2   2   8 1726.97   61.92
  -3   2  -8    7.67    4.13
  -3  -2   8    5.87    3.51
   3  -2   8    6.02    3.63
  -3   2   8    4.30    3.21
   3   2   8    5.10    1.31
  -3   2   8    6.63    2.44
   3   2  -8    2.94    3.58
   3   2   8    5.95    3.46
  -3  -2  -8    7.61    3.50
   3  -2   8    6.24    2.15
  -3  -2   8    4.36    1.34
  -3   2   8    5.78    3.84
  -3  -2  -8    7.89    3.94
  -3  -2   8    5.22    3.65
  -4   2   8 1306.26   49.49
  -4  -2   8 1356.71   49.07
  -4  -2  -8 1289.39   51.47
   4  -2  -8 1231.04   45.15
  -4   2  -8 1207.59   50.57
   4  -2   8 1341.48   48.87
  -4   2   8 1215.35   45.02
  -4  -2  -8 1361.46   46.92
  -4   2   8 1269.80   45.28
   4   2   8 1200.65   41.69
  -4  -2   8 1180.71   42.17
  -4  -2   8 1294.05   48.66
  -4  -2  -8 1219.95   49.14
   4  -2  -8 1259.40   51.70
   4  -2   8 1335.83   49.36
   4   2  -8 1166.95   50.59
  -4   2   8 1271.37   47.85
  -4   2  -8 1187.39   48.49
   4   2   8 1319.26   49.98
   5   2   8    0.51    0.56
  -5   2  -8    2.51    3.63
   5  -2   8   -0.91    3.15
  -5  -2  -8    1.96    3.65
  -5   2   8   -1.23    2.90
  -5   2  -8    3.14    3.04
   5   2  -8    3.95    3.62
  -5  -2   8    0.49    3.14
  -5   2   8    0.29    2.24
  -5  -2  -8    0.57    3.39
   5  -2  -8    0.42    1.87
  -5  -2  -8   -1.08    2.48
   5   2   8    1.61    3.52
  -5   2   8   -0.27    2.35
  -5   2   8   -0.51    3.51
  -5  -2   8   -0.11    1.17
   5  -2   8    2.02    3.39
  -5  -2   8   -0.95    3.34
   6  -2  -8 1670.19   56.27
  -6  -2  -8 1723.88   64.32
  -6   2  -8 1627.21   64.27
  -6  -2  -8 1845.97   61.10
   6  -2   8 1725.47   63.11
  -6  -2   8 1746.81   62.58
  -6   2   8 1540.58   59.10
   6   2  -8 1656.32   64.54
  -6   2   8 1549.68   58.59
   6  -2   8 1685.80   62.05
  -6   2   8 1611.98   60.78
   6   2  -8 1601.24   64.69
   6   2   8 1689.21   63.33
  -6   2   8 1683.40   62.76
  -6   2  -8 1635.33   63.16
   7   2  -8   25.37    5.63
  -7   2   8   24.71    4.22
  -7  -2  -8   33.65    6.00
   7   2  -8   34.92    6.33
  -7  -2  -8   30.35    4.70
  -7   2   8   28.14    4.72
   7   2   8   28.89    5.76
  -7   2   8   31.44    5.73
  -7   2   8   31.79    4.13
  -7  -2   8   28.19    5.57
   7  -2   8   29.22    5.81
  -7   2  -8   26.36    5.75
   7  -2   8   30.06    5.17
  -8   2  -8 1867.11   75.23
   8   2  -8 1888.60   75.67
  -8  -2   8 2145.75   73.90
   8  -2   8 2080.08   74.62
  -8   2   8 1841.60   71.07
   8   2  -8 1925.78   76.13
  -8  -2  -8 2218.83   72.93
  -8   2   8 1995.49   70.49
  -8   2   8 1975.04   72.39
   8  -2   8 2012.45   73.27
  -8  -2  -8 2002.46   76.40
   8   2   8 2050.52   74.51
  -8   2   8 2087.01   73.82
   9  -2   8    8.07    4.21
  -9  -2   8    4.21    3.40
   9  -2   8    4.18    3.24
  -9   2  -8    2.44    4.00
   9   2  -8    7.22    4.30
  -9   2   8    2.66    2.84
  -9  -2  -8    1.37    4.05
   9   2   8    7.15    4.01
  -9   2   8    2.28    3.29
  -9   2   8    3.28    3.70
   9   2  -8    5.28    2.78
  -9  -2  -8    2.85    2.98
  -9   2   8    3.63    2.69
   9   2  -8    5.91    4.24
 -10   2  -8  635.95   31.22
 -10  -2   8  665.44   27.98
  10  -2   8  630.49   28.21
 -10   2  -8  677.84   30.95
  10   2  -8  635.78   31.24
 -10  -2  -8  737.74   29.35
 -10   2   8  592.78   27.88
 -10   2   8  673.86   28.56
  10  -2   8  632.84   28.84
 -10   2   8  626.29   28.69
  10   2  -8  627.53   31.47
  11  -2   8    7.14    4.16
 -11   2  -8   12.72    4.94
 -11   2   8    2.16    3.23
  11   2  -8    8.93    2.51
 -11   2  -8    6.86    4.23
 -11  -2  -8   15.26    4.53
  11   2  -8    5.67    3.96
  11   2  -8    6.71    4.74
 -11   2   8    2.78    3.55
  12   2  -8 1102.74   37.84
 -12   2  -8 1019.93   43.74
 -12   2  -8  990.57   45.19
  12   2  -8  955.05   44.15
 -12  -2  -8 1149.79   42.62
 -12   2   8 1019.35   42.02
  12   2  -8  972.18   44.72
 -12   2   8 1202.80   42.48
 -13   2  -8    6.46    4.51
  13   2  -8    4.52    1.58
  13   2  -8    6.76    4.49
 -13   2   8   10.19    3.96
 -13  -2  -8    5.76    5.39
 -13  -2  -8    5.07    3.82
 -13   2  -8   10.16    4.79
  13   2  -8    8.71    4.69
  14   2  -8  702.20   34.52
 -14   2  -8  828.38   34.17
 -14  -2  -8  893.07   33.57
 -14   2   8  652.63   31.67
 -14   2  -8  734.23   35.70
 -14   2   8  728.26   31.37
 -14  -2  -8  873.78   39.03
  14   2  -8  746.37   34.18
   0   2  10 1701.17   58.90
   0  -2 -10 1869.76   65.63
   0   2 -10 1806.37   70.40
   0  -2 -10 1787.39   70.19
   0   2 -10 1806.52   65.50
  -1  -2 -10    2.55    4.67
   1  -2 -10    5.94    3.61
  -1   2 -10    5.08    4.08
  -1   2 -10    1.72    4.52
  -1  -2 -10    5.11    4.01
   1   2 -10    8.66    5.27
  -1   2  10    5.16    2.25
   1   2  10    8.38    1.99
   1  -2  10    5.17    2.79
   1  -2 -10    8.63    5.18
   1   2 -10    3.60    3.63
  -2  -2 -10  383.75   21.22
   2  -2 -10  333.09   18.67
  -2   2 -10  338.84   22.88
  -2   2  10  402.12   16.78
   2   2  10  443.53   14.91
   2  -2  10  415.39   17.26
  -2  -2 -10  348.85   22.99
   2   2 -10  331.94   19.12
  -2   2 -10  321.59   19.99
   3   2 -10    7.91    4.11
  -3   2 -10    6.09    4.55
  -3   2 -10   20.22    6.54
  -3   2  10    9.13    2.80
  -3  -2 -10    8.13    4.77
   3  -2 -10    5.70    3.14
  -3  -2 -10   10.91    5.57
   4   2 -10 1205.34   52.31
  -4  -2 -10 1182.00   49.26
  -4   2  10 1190.19   43.71
  -4   2 -10 1220.33   52.04
   4  -2 -10 1155.31   44.37
   4   2 -10 1194.00   46.10
  -4   2 -10 1177.54   48.85
  -5   2 -10    3.25    4.95
   5   2 -10    2.06    3.22
  -5   2 -10    1.31    4.03
   5   2 -10    2.54    4.73
  -5  -2 -10    1.37    4.29
  -5   2  10    0.96    2.58
   6  -2 -10  232.53   10.79
  -6  -2 -10  244.68   16.92
  -6   2 -10  210.65   15.84
  -6   2 -10  243.03   17.75
   6   2 -10  262.36   18.37
   6   2 -10  242.80   17.51
  -6   2  10  275.99   13.57
   6   2 -10  261.34   13.81
   7   2 -10   15.32    3.74
  -7   2 -10   15.15    5.62
  -7   2  10   13.73    3.58
  -7  -2 -10   20.92    6.45
   7   2 -10   15.87    6.41
  -7   2 -10   21.82    6.51
   7   2 -10    8.31    5.89
  -8  -2 -10 1372.46   57.67
   8   2 -10 1318.88   57.44
   8   2 -10 1324.86   57.93
  -8   2 -10 1354.78   57.31
  -8   2 -10 1260.17   55.79
  -8   2  10 1353.26   51.65
   8   2 -10 1418.30   50.63
  -9  -2 -10    1.42    3.77
  -9   2 -10   -1.48    4.78
  -9  -2 -10    1.61    4.98
   9   2 -10   -3.24    5.66
  -9   2  10   -1.27    3.40
  -9   2 -10   -1.54    5.22
   9   2 -10    4.15    4.97
   0  -3  -1    0.70    1.08
   0   3   1    0.18    1.06
   0   3  -1    3.48    0.84
   0  -3   1   -0.17    1.06
   0   3  -1   -0.11    0.79
   1  -3  -1 1125.17   38.70
  -1  -3  -1 1166.16   38.75
   1  -3   1 1095.66   38.54
  -1  -3   1 1142.32   38.66
   1   3   1 1071.15   38.84
  -1   3   1 1023.22   38.29
   1  -3  -1 1030.95   37.27
  -1   3  -1 1137.34   37.12
   1  -3   1 1117.40   37.56
   1   3  -1 1042.12   37.06
  -2   3   1  118.27    6.67
  -2  -3   1  133.37    6.74
   2   3   1  126.57    7.12
  -2  -3  -1  129.27    6.69
  -2  -3  -1  116.49    7.40
  -2   3  -1  121.13    6.82
   2  -3  -1  122.22    5.62
  -2   3  -1  138.75    7.07
   2  -3   1  120.89    5.66
  -2   3  -1  124.72    5.75
   2  -3   1  126.44    6.16
   2   3  -1  125.95    5.26
  -3  -3  -1 1173.64   41.50
  -3   3   1 1201.24   41.76
  -3  -3   1 1216.00   41.51
  -3   3  -1 1112.12   41.69
   3   3   1 1194.27   42.55
   3  -3   1 1203.52   40.45
  -3   3  -1 1157.05   41.37
   3  -3   1 1168.92   41.07
  -3   3   1 1224.32   40.24
   3   3  -1 1156.71   39.25
   4  -3  -1   44.03    3.57
   4  -3   1   35.95    3.19
  -4   3  -1   44.23    3.67
   4   3   1   42.91    4.09
   4  -3  -1   44.99    3.41
  -4   3   1   33.72    3.23
  -4   3   1   39.48    2.69
  -4   3  -1   46.20    3.27
  -4  -3   1   44.11    3.50
   4  -3   1   42.60    3.49
  -4  -3  -1   43.64    3.51
   4  -3   1   38.04    2.95
   5  -3  -1  484.34   19.29
   5   3   1  525.41   21.20
  -5   3   1  512.90   19.55
  -5   3  -1  487.08   16.86
  -5  -3  -1  533.10   19.53
   5  -3  -1  487.61   19.25
  -5   3   1  542.01   18.37
  -5   3  -1  494.80   19.61
   5  -3   1  520.80   19.11
   5   3  -1  482.82   19.67
  -5   3  -1  460.26   18.34
   5   3   1  485.03   19.43
   5  -3   1  521.02   19.66
   5  -3   1  512.79   19.22
  -5  -3   1  516.46   19.26
  -6  -3   1   24.29    2.56
   6   3   1   24.16    2.74
  -6   3  -1   22.94    2.73
  -6   3   1   21.93    2.55
   6   3  -1   20.72    3.13
   6  -3  -1   22.92    2.60
  -6  -3  -1   21.68    2.56
   6  -3   1   24.33    2.61
   6  -3  -1   22.19    2.72
   6   3  -1   19.33    2.52
   6  -3   1   23.44    2.62
   6  -3   1   23.92    2.93
  -6   3  -1   23.71    2.00
   7   3  -1 1231.58   45.47
  -7  -3  -1 1363.78   45.30
   7  -3   1 1273.03   44.91
  -7  -3   1 1261.67   44.89
  -7   3  -1 1271.47   45.42
  -7  -3   1 1133.05   46.32
   7  -3   1 1351.71   46.08
   7   3  -1 1387.87   46.96
   7   3  -1 1312.56   47.07
   7  -3  -1 1279.44   45.75
   7   3   1 1223.72   45.23
   7  -3   1 1305.75   46.11
  -7   3   1 1247.96   45.13
  -7   3  -1 1351.75   43.43
  -8  -3  -1   42.76    5.25
   8  -3   1   53.40    3.83
  -8   3   1   56.34    4.00
   8   3   1   48.98    3.94
   8   3  -1   48.26    4.80
  -8  -3   1   53.09    3.79
  -8  -3   1   46.62    4.81
   8   3  -1   48.79    4.64
   8   3  -1   42.22    3.86
   8  -3  -1   55.30    4.47
  -8   3  -1   47.66    3.93
   8  -3   1   54.18    4.49
   8   3  -1   47.32    2.27
   8  -3   1   56.56    4.73
   9  -3   1  145.90    7.51
   9   3   1  161.20   10.20
   9   3   1  154.00    7.97
  -9  -3   1  147.85    7.54
   9   3  -1  164.46    9.81
  -9   3  -1  160.88    8.14
  -9  -3  -1  171.41   11.08
  -9   3   1  148.61    7.76
  -9  -3   1  168.35   10.04
   9   3   1  159.61    9.00
   9   3  -1  166.13    8.36
   9   3  -1  169.05    9.48
   9  -3  -1  190.52    9.64
   9  -3   1  155.53    8.99
   9   3  -1  168.30    6.27
   9  -3   1  170.40    9.30
  -9   3   1  140.68    8.95
 -10  -3   1  143.13    6.92
  10   3   1  150.66    9.80
  10   3   1  138.04    7.25
 -10  -3   1  126.90    9.08
 -10   3  -1  138.83    7.20
 -10   3   1  134.38    6.97
  10   3  -1  155.55    9.07
  10   3   1  127.82    8.12
  10   3  -1  126.94    7.18
  10   3  -1  151.73    9.31
  10  -3  -1  143.89    8.64
  10  -3   1  133.98    6.84
  10  -3   1  141.56    8.69
  10   3  -1  136.80    5.74
 -10   3   1  136.56    8.70
 -10  -3  -1  132.47    9.98
  11   3  -1  795.89   32.46
 -11   3   1  845.98   29.41
  11   3   1  806.68   29.55
 -11  -3   1  736.19   32.49
  11   3  -1  858.46   32.08
  11   3   1  833.62   31.53
 -11   3  -1  787.21   30.01
  11   3  -1  762.81   30.00
  11   3   1  849.32   33.54
 -11  -3   1  860.09   29.26
  11  -3  -1  886.64   32.25
  11  -3   1  870.12   32.20
  11  -3   1  805.50   29.08
 -11  -3  -1  765.52   34.20
 -11   3   1  756.81   31.82
 -11   3   1  772.24   29.91
  12  -3   1   61.51    4.05
 -12  -3  -1   75.58    7.73
 -12   3  -1   70.43    5.46
 -12   3   1   66.54    4.29
  12   3   1   65.68    4.45
 -12  -3   1   64.10    6.63
 -12   3   1   66.15    5.51
  12   3   1   72.10    5.86
  12   3   1   63.07    4.81
  12   3   1   69.32    6.97
 -12   3  -1   61.06    4.62
  12   3  -1   66.78    4.71
  12  -3  -1   70.74    6.28
  12   3  -1   79.24    6.75
  12  -3   1   65.10    6.02
 -12   3   1   65.89    4.88
 -12  -3   1   64.97    4.18
  12   3  -1   82.60    6.60
 -12   3   1   52.62    5.65
 -12   3  -1   60.82    5.68
 -12   3   1   64.39    4.91
  13  -3   1  124.98    6.09
 -13   3   1  135.07    6.42
  13   3   1  126.71    6.48
 -13  -3   1  125.19    9.54
  13   3  -1  112.90    8.65
 -13   3  -1   97.78    7.33
  13   3   1  145.78   10.07
  13   3  -1  112.11    8.47
  13   3   1  146.13    8.78
  13   3   1  137.68    7.13
 -13   3   1  145.35    7.19
  13   3  -1  117.07    9.47
 -13   3   1  133.04    8.43
 -13   3  -1  105.67    6.37
  13   3  -1  106.43    6.37
  13  -3  -1  131.65    9.11
  13  -3   1  154.74    9.62
  13  -3   1  153.44    9.17
 -13   3   1  120.54    7.33
 -13  -3   1  145.34    6.53
  13   3   1  139.36    7.39
 -13   3   1  123.17    8.84
 -13  -3  -1   96.48    9.41
 -13   3  -1  111.67    8.26
  14   3  -1    0.49    2.92
 -14   3   1    1.19    1.53
  14   3   1   -0.13    1.31
 -14   3   1    2.12    1.34
  14   3  -1    0.29    1.35
 -14   3  -1    3.24    2.77
  14   3   1    0.45    3.30
 -14   3   1    1.50    1.94
 -14   3   1    2.41    2.34
  14   3  -1    1.86    2.88
  14   3   1    1.00    2.56
  14  -3  -1   -1.20    2.50
 -14  -3  -1    5.12    3.68
 -14  -3   1    0.46    2.82
 -14   3  -1    1.15    1.35
 -14   3  -1    1.53    2.47
  14   3  -1    1.99    2.90
  14   3   1    0.47    1.44
  14  -3   1    2.03    2.80
  14  -3   1    3.18    2.71
  14   3   1    1.11    1.87
  15   3  -1  907.22   34.25
 -15  -3  -1  889.19   36.75
  15   3   1  762.63   28.21
 -15   3   1  805.46   28.41
 -15  -3   1  813.50   34.49
 -15   3  -1  865.56   32.56
  15   3   1  866.38   32.91
  15   3   1  758.57   28.26
 -15   3   1  765.79   30.95
  15   3  -1  847.02   35.00
  15  -3  -1  972.06   34.71
  15   3   1  884.26   35.00
  15  -3   1  915.53   34.46
 -15   3  -1  824.78   33.01
  15   3   1  875.47   30.97
 -15   3  -1  870.48   28.58
  15   3  -1  782.78   28.21
 -15   3   1  780.26   32.55
 -16  -3  -1   31.57    6.31
  16   3  -1   34.21    5.26
 -16   3  -1   28.70    4.62
 -16   3   1   29.80    4.29
 -16   3   1   36.59    5.13
 -16   3  -1   27.13    4.29
 -16  -3   1   36.50    5.69
  16   3  -1   31.27    5.48
  16  -3  -1   36.10    5.51
  16  -3   1   38.87    5.74
  16   3   1   40.82    4.23
 -17  -3  -1   39.21    6.76
 -17   3   1   43.33    4.75
  17   3  -1   32.64    5.72
 -17  -3   1   55.16    6.84
 -17   3   1   43.15    5.89
  17   3  -1   37.03    5.75
 -17   3  -1   30.78    4.91
 -17   3  -1   27.74    4.85
  17  -3   1   56.63    7.01
  17   3   1   50.84    4.72
  18   3  -1   26.56    5.32
 -18   3  -1   22.31    4.57
 -18   3   1   29.33    5.23
 -18   3  -1   25.77    4.79
 -18   3   1   33.40    4.64
 -18  -3  -1   35.60    6.75
 -18  -3   1   21.15    5.42
  18  -3   1   35.10    6.10
  18   3   1   34.53    4.33
  18   3  -1   18.84    4.70
 -19  -3  -1  553.86   28.10
 -19   3  -1  514.04   24.64
 -19  -3   1  563.94   26.62
 -19   3   1  499.19   24.70
 -19   3  -1  513.49   24.10
  19   3  -1  531.64   25.62
  19  -3   1  601.86   26.95
  19   3   1  613.58   22.85
   0   3  -3   -0.29    1.54
   0   3   3   -0.23    1.43
   0  -3  -3    1.00    1.32
   0  -3   3    1.86    0.49
   0  -3   3    0.24    1.39
   1   3   3  869.59   31.20
  -1   3   3  873.06   30.37
   1  -3   3  867.32   30.92
  -1  -3  -3  769.74   31.26
  -1  -3   3  904.39   31.08
   1  -3  -3  754.29   30.07
  -1  -3  -3  762.48   29.57
   1  -3   3  817.92   27.72
  -1   3  -3  767.93   31.06
  -2   3   3  205.77    9.54
   2  -3  -3  189.89    9.18
  -2  -3   3  223.70   10.40
  -2   3   3  200.00    9.23
  -2  -3  -3  194.65    9.59
   2  -3   3  207.78   10.44
   2  -3   3  193.08    8.09
   2   3   3  206.34   10.62
  -2   3  -3  204.00   10.41
   2  -3   3  221.56    9.53
  -3   3   3  913.20   31.90
   3   3   3  951.59   34.32
  -3   3   3  923.06   32.02
  -3   3  -3  885.63   34.68
   3  -3   3  848.30   29.38
   3  -3   3  946.57   33.35
  -3   3   3  935.54   33.80
  -3   3  -3  930.99   33.29
  -3  -3   3  876.87   30.22
   3  -3   3  969.16   32.53
  -3  -3   3  967.96   33.33
   4  -3   3   18.65    2.80
  -4   3   3   20.22    2.22
  -4   3   3   18.18    2.82
   4  -3   3   17.56    2.76
  -4  -3   3   21.59    3.09
   4   3   3   16.76    2.99
  -4   3   3   15.72    2.18
   4   3   3   18.48    3.24
  -4   3   3   16.90    3.13
  -4  -3   3   20.59    1.32
  -4   3  -3   19.91    2.75
  -4   3  -3   16.98    3.04
   4  -3   3   16.45    2.56
  -5  -3   3  950.12   33.93
  -5   3   3  890.08   32.77
   5  -3   3  917.43   33.83
   5   3  -3 1034.58   34.50
  -5   3  -3  903.40   35.28
  -5   3   3  901.45   34.46
   5   3   3  943.69   35.63
   5  -3   3  918.33   33.64
  -5   3   3  869.61   31.86
   5   3   3  864.00   35.17
  -5   3   3  895.02   35.32
   5  -3   3  907.98   33.76
  -5   3  -3  950.27   33.65
   6   3   3  333.42   15.95
  -6  -3   3  334.19   14.22
  -6   3   3  312.48   12.29
   6   3  -3  336.95   14.80
  -6   3   3  325.98   13.52
  -6   3  -3  319.47   15.42
   6  -3   3  322.18   13.97
   6   3   3  287.10   15.08
  -6   3   3  317.71   13.23
  -6   3   3  350.74   15.98
   6  -3   3  311.31   14.29
   6  -3   3  325.87   14.30
  -6   3   3  316.38   14.66
  -6   3  -3  316.66   13.72
  -7   3   3  345.51   15.46
  -7   3   3  350.13   14.01
  -7   3  -3  330.26   14.38
  -7   3   3  342.71   12.97
   7   3  -3  354.22   15.79
   7  -3   3  334.22   14.92
  -7   3   3  357.77   15.30
   7   3   3  348.17   16.99
  -7  -3   3  376.56   15.16
  -7   3  -3  316.62   15.88
   7   3   3  336.49   16.41
  -7   3   3  378.61   16.83
   7  -3   3  340.36   14.66
   7  -3   3  363.51   15.72
  -8   3   3   64.86    3.42
  -8  -3  -3   55.81    6.46
   8   3  -3   60.71    5.29
  -8  -3   3   65.78    4.84
  -8   3   3   60.05    4.94
  -8   3  -3   62.01    2.76
   8   3   3   70.01    5.99
   8  -3  -3   63.43    5.28
  -8   3   3   66.57    5.93
  -8   3  -3   59.09    5.36
   8  -3   3   57.47    4.52
   8   3  -3   63.65    6.42
  -8   3   3   66.58    5.23
   8  -3   3   60.36    5.35
   8   3   3   63.18    6.22
   8  -3   3   56.05    4.63
  -8   3   3   59.59    4.04
  -9  -3   3  668.47   25.51
   9  -3   3  651.79   25.47
  -9   3   3  681.10   23.40
   9   3  -3  652.36   26.94
   9   3   3  735.08   26.32
   9   3   3  707.03   27.52
  -9  -3  -3  624.37   29.49
  -9   3   3  679.58   27.27
   9  -3   3  668.89   25.07
  -9   3  -3  617.47   26.24
   9   3  -3  596.70   28.37
  -9   3   3  643.82   26.73
   9   3   3  672.07   28.61
   9  -3   3  704.85   27.17
  -9   3   3  729.39   24.54
   9   3  -3  611.49   26.51
  -9   3   3  676.28   26.14
  10  -3   3   85.29    5.25
 -10   3   3  103.14    6.38
 -10  -3   3   97.36    5.92
  10   3  -3  103.99    7.28
  10   3  -3   80.16    6.54
 -10  -3  -3   82.20    8.44
  10   3   3   94.71    6.22
  10   3   3   88.14    6.71
 -10   3   3   89.65    6.64
  10   3  -3   82.37    7.81
 -10   3  -3   81.49    6.29
 -10   3   3   99.14    5.01
 -10   3   3   79.82    6.57
  10  -3   3   91.92    5.77
  10  -3   3   96.64    7.04
 -10   3   3   82.73    4.18
  11  -3   3  539.22   21.43
  11   3  -3  616.92   24.17
 -11   3   3  506.40   22.90
  11   3  -3  654.15   24.86
  11   3   3  557.32   22.49
  11   3   3  564.41   23.19
 -11   3   3  551.91   22.79
 -11  -3   3  545.59   21.49
  11  -3   3  538.27   20.87
 -11   3   3  609.22   20.43
 -11  -3  -3  568.22   27.17
  11   3  -3  553.33   25.58
 -11   3  -3  586.65   22.97
 -11   3   3  512.76   23.51
 -11   3   3  571.51   22.07
  11  -3   3  582.82   24.03
 -11   3   3  537.67   19.79
  12   3  -3    3.67    2.86
 -12   3   3    4.21    1.96
 -12  -3   3    5.76    2.07
 -12   3  -3    1.73    2.60
  12   3   3    9.13    3.73
 -12   3  -3    3.58    2.19
 -12   3   3    5.60    2.54
 -12   3  -3    7.07    2.19
 -12   3   3    5.71    1.30
  12   3   3    4.38    2.31
  12   3  -3    6.63    2.74
 -12  -3  -3    4.79    3.70
  12   3   3    6.63    2.40
  12  -3   3    6.06    1.65
 -12   3   3    8.35    2.47
  12   3  -3    3.92    3.42
  12  -3   3    6.09    2.16
 -12   3   3    6.26    2.97
  13   3  -3  525.64   21.85
 -13  -3   3  491.82   18.78
 -13   3  -3  498.36   19.81
 -13  -3  -3  505.12   25.27
  13   3   3  534.39   23.96
 -13   3   3  459.99   17.53
 -13   3   3  445.53   18.84
  13   3  -3  571.22   22.84
  13   3   3  476.16   20.24
  13   3  -3  468.85   23.04
 -13   3   3  484.84   19.65
 -13   3   3  459.22   21.52
 -13   3  -3  496.41   19.81
  13   3  -3  472.34   19.85
  13  -3   3  451.63   18.55
  13   3   3  477.80   20.01
 -13   3  -3  531.90   23.37
 -14   3   3   78.43    5.05
  14   3   3   76.06    5.55
 -14   3   3   76.95    4.32
  14   3   3   68.42    4.88
 -14   3   3   76.19    5.27
  14   3   3   79.58    6.24
  14   3  -3   76.98    6.71
 -14   3  -3   84.28    6.06
  14   3  -3   74.28    5.58
  14  -3   3   70.63    4.65
  14   3  -3   61.28    7.17
 -14  -3  -3   89.31    9.40
 -14   3   3   73.55    6.81
 -14  -3   3   80.25    4.91
 -14   3  -3   73.15    5.50
 -14   3  -3   71.74    7.47
 -15  -3   3  202.01    9.18
 -15   3   3  203.03    9.30
  15   3   3  182.69    9.15
 -15   3   3  197.86    8.75
 -15  -3  -3  246.52   16.19
 -15   3   3  195.05    9.55
  15   3   3  213.92   11.44
 -15   3  -3  230.48   11.33
  15  -3   3  194.02    8.93
  15   3  -3  230.80   10.49
  15   3  -3  243.82   12.59
  15  -3  -3  246.38   13.59
  15   3  -3  239.79   14.01
 -15   3   3  194.20   12.39
 -15   3  -3  229.30   13.89
  15   3   3  210.07   10.06
 -15   3  -3  255.62   10.73
  16  -3   3   42.48    3.08
 -16   3   3   55.48    3.58
  16  -3  -3   67.30    7.05
 -16   3  -3   60.79    4.41
  16   3  -3   47.04    5.60
 -16   3  -3   51.34    6.73
 -16   3   3   53.39    3.49
  16   3  -3   43.80    3.75
  16   3   3   45.57    5.25
 -16  -3  -3   46.75    7.94
  16   3   3   50.47    3.60
  16   3  -3   47.21    6.30
  16   3   3   45.77    3.79
 -16   3   3   51.86    6.31
 -16   3  -3   52.76    5.33
 -17  -3  -3  440.43   23.98
  17   3  -3  405.78   19.15
  17   3   3  536.50   19.69
 -17   3   3  439.23   20.53
 -17   3  -3  391.17   18.17
  17   3  -3  303.45   14.25
  17   3   3  434.48   14.85
 -17   3  -3  414.73   20.96
  17  -3  -3  446.94   21.12
  17   3   3  438.03   14.99
  17   3  -3  461.92   19.65
  17   3  -3  379.86   20.47
  17   3   3  517.31   19.59
 -17   3   3  502.87   21.36
  18   3  -3   23.23    5.37
  18   3  -3   27.27    5.01
 -18   3   3   22.76    5.07
 -18   3  -3   21.33    5.03
 -18   3  -3   25.73    4.36
 -18  -3  -3   30.49    7.51
  18  -3  -3   36.48    6.11
  18   3  -3   27.84    5.13
   0   3   5    1.71    2.16
   0  -3   5    0.31    1.88
   0   3  -5    0.38    2.25
   0   3   5    0.26    1.84
   0  -3  -5   -0.48    1.45
   1   3   5  769.82   29.96
  -1  -3  -5  769.99   29.24
   1  -3   5  823.03   30.62
   1  -3  -5  748.13   29.94
   1   3  -5  869.61   29.21
   1   3   5  785.49   32.26
  -1   3   5  741.35   31.78
  -1   3   5  742.88   28.92
  -1  -3   5  801.33   30.44
  -1   3  -5  755.72   32.16
   1   3  -5  722.71   31.92
  -1   3   5  752.44   29.08
   1   3  -5  722.90   31.23
  -1   3  -5  734.65   30.95
   2   3   5  183.55   10.53
  -2  -3   5  196.20   10.74
   2  -3  -5  173.06    9.71
   2   3  -5  211.45    9.99
  -2   3   5  195.80   12.00
   2  -3   5  195.01    8.03
  -2   3   5  186.58    9.71
  -2  -3   5  198.41   11.29
   2  -3   5  208.41   11.21
  -2   3  -5  182.09   11.96
  -2  -3  -5  181.10    9.88
   2   3  -5  194.35   11.82
  -2   3   5  198.45    9.57
  -2   3  -5  184.26   11.10
  -3   3   5  333.33   13.44
  -3  -3  -5  251.55   15.50
  -3  -3   5  365.41   15.57
   3   3   5  344.55   15.78
   3  -3  -5  262.98   13.13
   3   3  -5  310.64   13.99
  -3   3   5  361.96   17.11
  -3  -3  -5  261.66   13.80
   3  -3   5  356.04   12.11
  -3   3   5  330.30   14.01
  -3  -3   5  370.69   16.53
   3  -3   5  360.44   15.73
  -3   3  -5  262.53   15.85
   3   3  -5  274.52   15.80
  -3   3  -5  263.03   14.82
   4  -3  -5   32.35    3.00
  -4   3   5   41.37    4.41
   4  -3   5   36.86    4.44
  -4  -3   5   38.04    4.39
  -4   3   5   35.81    3.13
  -4   3  -5   26.94    4.50
   4   3  -5   29.75    4.73
   4   3  -5   40.07    4.06
   4   3   5   33.03    4.43
   4   3   5   43.12    5.27
  -4  -3  -5   37.21    5.07
  -4   3   5   34.55    3.69
  -4  -3  -5   39.28    4.17
  -4   3   5   41.29    4.10
  -4  -3   5   39.67    4.96
   4  -3   5   36.62    4.41
   4   3  -5   41.61    5.16
  -4   3   5   35.54    4.93
  -4   3  -5   39.72    4.81
   5   3   5  808.41   31.47
   5   3   5  776.13   31.92
  -5   3  -5  680.55   29.94
  -5  -3   5  822.01   30.31
   5  -3   5  816.71   30.49
   5   3  -5  763.54   29.36
  -5   3   5  799.89   31.90
  -5   3   5  759.90   28.84
  -5   3   5  790.41   29.63
  -5  -3  -5  669.70   29.29
  -5  -3   5  808.92   31.56
  -5   3   5  790.30   29.25
   5  -3   5  784.17   29.92
  -5   3  -5  636.54   30.76
   5   3  -5  628.52   30.70
  -5   3   5  795.74   26.98
  -6   3   5  181.31    9.60
  -6   3   5  198.31   10.18
  -6  -3   5  183.66   10.45
   6  -3   5  200.08   10.87
  -6   3  -5  183.43   10.78
   6   3   5  179.29   11.56
  -6   3   5  187.82   11.63
   6   3  -5  202.87   10.49
  -6  -3  -5  200.82   10.83
  -6  -3   5  194.10   11.73
  -6   3   5  202.23   10.22
   6   3   5  192.30   11.74
   6  -3   5  189.80   10.43
  -6   3  -5  164.71   11.26
   6   3  -5  158.08   11.08
  -6   3   5  184.67    7.53
   7   3   5  190.46   12.33
  -7  -3   5  209.47   11.27
   7  -3   5  209.40   11.45
  -7   3   5  198.57   12.13
   7   3  -5  273.27   12.11
   7   3  -5  241.14   11.82
  -7   3   5  197.31   10.46
   7   3   5  203.14   12.39
  -7   3   5  229.13   11.32
   7  -3   5  196.41   11.00
   7   3  -5  182.18   12.74
  -7   3  -5  210.53   12.59
   7   3  -5  213.96   12.68
  -7   3   5  196.78   10.53
   8  -3   5    6.36    2.77
   8   3  -5    8.85    3.47
  -8  -3   5   10.64    2.87
   8  -3   5    7.07    2.67
  -8   3   5    9.40    2.71
   8   3   5   12.21    3.97
   8   3  -5   14.36    3.46
   8   3   5   17.71    3.72
   8   3  -5    7.98    3.18
  -8   3   5   11.47    2.71
  -8   3  -5   11.24    3.28
  -8   3   5    9.60    3.08
   8   3  -5   11.79    2.91
   8   3   5    8.44    2.68
  -8   3   5   15.22    3.22
  -9  -3  -5  819.86   37.06
  -9  -3   5  876.46   32.96
   9  -3   5  820.64   32.96
   9   3   5  801.04   33.12
   9   3   5  857.81   34.90
   9   3  -5 1015.69   34.16
  -9   3   5  846.32   34.42
   9   3  -5 1010.15   34.82
   9   3   5  832.09   31.37
   9   3   5  907.88   36.31
   9   3  -5  992.59   30.57
  -9   3   5  919.97   33.76
   9  -3   5  810.05   32.73
   9   3  -5  861.06   36.69
  -9  -3   5  819.02   28.99
  -9   3  -5  875.12   34.70
  -9   3   5  857.81   32.29
   9   3  -5  807.31   34.52
  -9   3   5  787.94   33.44
  10   3   5   87.53    6.71
  10   3   5   89.87    5.60
 -10  -3   5   89.47    6.46
  10  -3   5   89.72    6.54
 -10   3   5   92.65    7.11
  10   3  -5  100.96    7.10
 -10   3   5   96.55    7.62
 -10  -3  -5   85.22    9.04
 -10   3   5   80.75    6.64
 -10   3  -5   89.35    4.92
  10   3  -5   99.12    7.48
 -10   3  -5  102.21    4.55
  10   3  -5   86.88    5.05
 -10   3   5   91.39    6.94
  10  -3   5   85.04    6.40
  10   3   5   85.58    7.49
  10   3  -5   74.35    8.15
 -10   3   5  102.01    6.52
 -10  -3   5   82.85    3.64
  10  -3   5   75.75    6.87
 -10   3  -5   86.00    7.35
  10   3  -5   84.45    7.41
  10   3   5   99.26    8.80
  11   3   5    5.21    2.47
 -11   3   5    1.76    2.45
 -11   3   5    5.76    2.87
 -11   3   5    1.97    2.10
 -11   3  -5    2.08    2.79
 -11   3   5    2.47    2.37
 -11   3  -5    0.92    1.39
  11   3  -5    0.39    2.99
  11  -3   5    1.89    2.20
  11   3   5    2.02    1.77
 -11  -3  -5    6.51    4.32
  11   3  -5    1.59    2.30
 -11   3  -5    4.58    1.34
  11   3   5    2.72    2.81
  11   3  -5   12.85    3.99
 -11   3  -5    3.44    3.03
  11   3  -5    0.41    2.67
 -11  -3   5    2.67    2.32
  11   3  -5    6.63    2.00
  11  -3   5    3.39    2.47
 -11   3   5    5.18    2.98
 -12   3  -5   59.77    6.07
 -12   3   5   53.72    5.41
  12   3   5   57.21    5.16
  12   3   5   53.86    5.94
 -12   3   5   58.59    5.77
  12   3  -5   56.80    5.57
 -12  -3  -5   63.48    8.15
  12  -3   5   57.36    5.03
  12   3  -5   37.94    6.18
 -12   3   5   49.25    5.57
  12   3   5   53.77    4.49
 -12   3  -5   61.17    3.74
 -12  -3   5   66.58    5.26
  12   3  -5   57.02    4.45
 -12   3   5   58.17    5.00
  12  -3   5   54.21    4.92
 -12   3   5   50.57    5.73
  12   3  -5   49.81    5.68
 -12   3  -5   56.51    7.10
  13   3   5  626.66   23.47
  13   3   5  557.20   23.80
 -13   3  -5  576.35   25.34
  13   3  -5  545.32   25.50
 -13   3   5  576.30   25.85
 -13  -3   5  636.76   23.98
 -13  -3  -5  582.02   29.80
  13   3  -5  586.20   24.96
  13  -3   5  586.28   23.79
 -13   3  -5  619.89   22.02
 -13   3   5  624.44   24.89
  13   3  -5  609.43   23.44
 -13   3   5  700.53   24.07
  13  -3   5  563.41   23.64
 -13   3   5  605.47   26.11
  13   3  -5  559.19   27.78
 -13   3   5  621.43   24.64
  13   3   5  582.68   25.28
 -13   3  -5  552.36   27.78
  14   3   5   69.98    5.55
  14  -3   5   78.23    5.66
 -14  -3   5   91.65    6.02
 -14   3  -5   72.30    6.58
  14   3  -5   78.95    6.86
 -14  -3  -5   88.90    9.89
  14   3   5   87.40    5.91
 -14   3   5   77.89    7.47
 -14   3  -5   73.63    5.24
  14   3  -5   83.05    6.75
 -14   3  -5   78.93    4.93
 -14   3   5   83.23    6.26
  14   3  -5   72.10    5.69
  14  -3   5   72.56    5.69
 -14   3   5   90.73    7.88
  14   3  -5   75.70    8.57
  14   3   5   90.27    6.97
 -14   3   5   77.35    6.08
 -14   3  -5   70.99    8.38
  15   3   5   44.83    4.31
  15  -3   5   40.68    4.11
 -15  -3  -5   41.19    7.77
 -15   3  -5   45.53    5.27
  15   3  -5   43.32    5.29
  15   3  -5   49.31    5.29
  15   3  -5   50.36    7.13
 -15   3  -5   53.30    4.50
 -15   3  -5   49.62    7.24
 -15   3   5   38.31    5.70
 -15   3  -5   53.30    4.13
 -15   3   5   48.63    4.68
  15   3  -5   59.00    5.27
  15  -3   5   50.02    4.47
  15   3   5   51.59    5.33
 -15   3   5   41.43    6.04
 -16   3   5    7.90    2.63
  16  -3   5    5.33    2.25
  16  -3   5    8.17    2.41
  16   3  -5    8.71    4.60
 -16   3  -5    5.10    4.71
  16   3   5    7.36    2.70
  16   3  -5    8.41    3.12
 -16   3   5    7.99    3.93
 -16   3  -5    7.03    2.72
 -16   3  -5    6.95    3.16
 -16  -3  -5   11.88    5.97
  16   3   5    6.59    2.40
  16   3  -5    7.02    3.02
  16  -3  -5    9.82    4.52
  16   3  -5   11.79    3.33
 -16   3   5    5.94    3.94
 -17   3  -5  686.48   32.92
 -17  -3  -5  732.71   35.51
 -17   3   5  564.87   29.41
 -17   3  -5  718.21   27.48
  17  -3  -5  831.67   32.46
  17   3  -5  793.85   28.97
 -17   3   5  656.60   30.20
  17   3  -5  675.63   31.77
   0   3   7    0.53    3.23
   0  -3   7    2.27    2.88
   0   3   7    0.61    2.17
   0   3  -7    2.05    3.31
   0   3  -7    1.32    1.63
   0   3   7    2.19    2.94
   0  -3  -7    1.25    2.62
   0   3  -7    2.35    3.09
   0  -3   7    0.35    1.49
  -1   3   7  405.17   18.53
  -1  -3   7  386.18   17.58
   1  -3   7  383.63   17.65
   1   3   7  392.99   19.57
  -1   3   7  401.39   19.78
  -1  -3  -7  288.87   16.92
   1   3  -7  352.40   14.75
  -1   3  -7  330.03   13.91
  -1   3   7  367.74   16.14
   1  -3   7  379.27   18.03
  -1   3  -7  270.48   17.23
  -1   3  -7  293.23   18.36
   1   3  -7  290.18   18.43
   1   3   7  376.95   16.80
   1   3  -7  288.20   17.78
   2   3  -7   57.52    4.65
  -2   3   7   53.31    6.04
  -2  -3  -7   48.66    6.17
  -2  -3   7   64.08    6.07
  -2   3   7   45.76    6.40
  -2   3  -7   48.51    3.52
  -2  -3  -7   52.70    5.23
  -2   3   7   42.02    4.57
  -2   3  -7   35.97    5.94
  -2  -3   7   49.70    2.21
  -2  -3   7   50.84    6.10
   2  -3   7   49.82    5.84
  -2   3  -7   47.10    6.15
   2   3  -7   40.34    6.12
   2   3   7   50.48    5.46
  -3   3   7  309.26   15.69
   3  -3   7  350.80   17.44
   3   3  -7  406.71   16.13
  -3   3   7  338.68   18.76
  -3   3  -7  367.54   13.72
  -3  -3  -7  390.38   17.26
  -3   3   7  346.23   17.53
  -3  -3   7  349.63   18.36
   3  -3   7  342.74   17.67
  -3  -3   7  352.54   17.33
  -3  -3  -7  358.33   18.87
  -3   3  -7  351.39   18.63
  -3   3  -7  345.90   19.54
   3   3  -7  331.79   19.21
   3   3   7  357.93   17.51
  -4   3   7    3.08    3.37
  -4  -3   7    7.47    3.45
   4   3   7   10.53    4.01
   4  -3   7    4.46    3.06
  -4  -3   7    3.34    2.62
   4  -3   7   11.62    3.57
   4   3   7    9.47    3.61
   4   3  -7    6.32    3.61
  -4   3   7    5.32    3.07
   4   3  -7   11.10    2.85
  -4   3  -7    5.58    1.25
  -4   3  -7    9.59    3.65
  -4  -3  -7    7.52    3.66
   4  -3  -7    6.78    2.17
  -4  -3  -7    9.94    2.98
  -4   3   7    4.98    2.30
  -4   3  -7    5.75    3.77
   4   3  -7    1.76    3.29
  -4   3   7    6.75    2.88
  -5   3  -7  500.84   23.59
   5   3   7  495.08   24.15
  -5   3   7  479.58   23.77
  -5  -3   7  494.65   22.13
   5   3  -7  562.21   21.55
  -5   3  -7  525.83   17.48
  -5  -3  -7  498.88   22.01
  -5   3   7  432.74   20.45
  -5   3   7  488.30   20.96
  -5  -3   7  513.65   23.89
   5  -3  -7  501.84   19.20
  -5  -3  -7  458.37   24.09
   5  -3   7  478.52   22.53
   5  -3   7  505.49   22.49
  -5   3  -7  479.35   24.53
   5   3  -7  460.63   24.44
   5   3   7  474.31   22.79
  -5   3   7  458.54   21.81
   6  -3   7   13.72    4.09
   6   3   7   19.31    4.76
  -6   3   7   18.27    3.42
  -6  -3   7   16.29    3.96
  -6   3   7   21.38    4.70
   6   3   7   14.74    4.21
  -6   3  -7   16.39    1.19
  -6   3   7   20.76    4.02
   6   3  -7   18.97    3.78
  -6  -3  -7   12.42    4.53
   6  -3   7   19.73    3.86
  -6   3   7   13.35    2.94
  -6  -3  -7   18.79    3.81
  -6   3  -7   15.93    4.53
   6   3  -7   23.02    5.34
  -6  -3   7   17.59    4.74
  -6   3   7   17.85    3.48
  -7  -3  -7  183.68   14.03
  -7   3   7  240.27   14.17
   7  -3   7  230.14   12.92
   7   3   7  240.26   14.60
  -7   3   7  209.08   11.69
   7   3  -7  230.15   12.38
  -7  -3   7  243.88   12.95
  -7   3   7  210.95   11.51
  -7  -3  -7  185.81   12.20
   7   3  -7  173.34   13.51
  -7  -3   7  282.07   15.15
  -7   3   7  251.37   12.31
   7  -3   7  229.57   13.18
   7   3  -7  201.61   14.56
  -7   3   7  228.55   12.51
   7   3   7  246.11   14.24
  -7   3  -7  188.18   13.63
  -8   3  -7  105.74    9.58
   8   3   7  120.02    9.84
  -8  -3  -7  103.99   10.09
   8  -3   7  100.78    8.26
   8   3  -7  114.79    8.25
  -8   3   7   95.85    7.41
   8   3   7  105.57    5.59
  -8  -3   7  101.51    7.96
  -8  -3  -7  111.70    8.50
   8   3  -7  120.45    8.12
  -8   3   7  117.80    7.89
  -8   3   7  115.69    9.28
   8  -3   7  104.29    8.36
  -8   3   7   93.15    7.62
   8   3  -7   85.18    9.52
   8   3  -7  100.82    9.68
  -9   3  -7  291.62   17.69
   9   3   7  367.98   18.64
   9   3  -7  354.62   16.21
  -9  -3   7  361.13   16.61
   9  -3   7  355.68   16.95
  -9   3   7  286.83   15.53
   9   3  -7  379.37   16.98
   9   3   7  314.61   12.67
  -9   3   7  343.77   17.61
  -9  -3  -7  326.01   16.96
  -9   3   7  339.52   15.90
   9   3  -7  259.84   17.39
   9  -3   7  331.30   16.73
  -9   3   7  320.41   15.81
   9   3  -7  268.49   18.15
  -9   3  -7  299.33   18.14
  10  -3   7   55.78    6.13
  10   3  -7   64.14    5.91
 -10   3   7   44.18    5.50
  10   3  -7   37.22    6.75
 -10   3  -7   39.38    6.36
  10   3   7   51.68    3.46
 -10  -3   7   45.06    5.46
 -10  -3  -7   62.12    6.73
  10  -3   7   50.35    5.74
  10   3   7   50.84    6.66
 -10   3   7   48.17    5.54
 -10   3   7   48.14    6.29
 -10   3  -7   51.09    6.77
  10   3  -7   42.07    6.41
  11   3   7  147.57   11.03
  11   3  -7  171.01   12.22
  11  -3   7  119.19    9.27
 -11  -3   7  141.55    9.49
 -11   3   7  132.18    9.81
 -11   3  -7  177.59   12.05
 -11  -3  -7  180.62   11.63
 -11   3   7  157.40   10.76
  11   3  -7  207.75   10.47
  11  -3   7  139.59    9.91
 -11   3   7  151.25    9.69
 -11  -3   7  134.73    6.51
  11   3   7  139.27    9.91
  11   3  -7  207.90   14.17
 -11   3  -7  184.06   13.23
 -12   3  -7    2.59    3.87
  12   3  -7    2.81    3.73
  12  -3   7    1.89    3.26
 -12   3   7    2.35    3.01
 -12  -3   7    3.70    3.07
  12  -3   7    2.93    3.08
  12   3  -7    0.67    4.20
 -12   3  -7   -0.66    3.70
 -12   3   7   -0.44    3.25
 -12  -3  -7    3.09    4.48
  12   3  -7    3.11    2.84
  12   3   7    2.28    2.86
 -12  -3  -7    3.76    3.89
 -12   3   7    2.09    3.25
  12   3   7    6.06    3.92
 -12   3   7    2.09    3.05
 -12  -3   7    1.62    1.30
 -13   3   7  499.11   23.86
  13   3  -7  646.10   23.50
 -13  -3  -7  594.72   30.09
 -13  -3   7  566.13   23.38
  13  -3   7  526.22   23.42
 -13   3  -7  595.97   26.31
  13   3  -7  547.93   26.28
  13   3   7  502.51   23.44
 -13   3   7  470.83   24.15
 -13  -3  -7  697.89   27.07
  13  -3   7  494.16   23.52
 -13   3   7  509.46   24.40
  13   3   7  555.66   25.00
  13   3  -7  559.83   27.93
 -13   3   7  543.85   24.01
 -13   3  -7  584.53   28.28
 -14   3   7   19.77    4.52
  14   3   7   23.08    4.22
  14  -3   7   18.09    3.97
  14   3  -7   13.65    5.58
 -14   3  -7   14.08    5.70
 -14   3  -7   21.12    5.17
  14   3  -7   26.79    5.41
 -14   3   7   21.11    4.85
  14   3  -7   15.02    3.32
  14  -3   7   16.07    3.93
  14   3   7   20.94    4.71
 -14  -3  -7   18.40    6.76
 -14  -3  -7   25.08    5.76
 -14   3   7   15.05    4.43
 -15   3   7  126.90    8.75
  15  -3   7  123.61    8.52
  15   3   7  115.86    8.05
 -15  -3  -7  128.27   13.27
 -15   3  -7  101.19    9.15
  15   3  -7  105.85    9.54
 -15   3   7  126.60   10.16
 -15  -3  -7  144.39   10.81
 -15   3   7  130.24    9.91
  15   3   7  128.25    9.27
 -15   3  -7  102.16   11.25
  15   3  -7  113.12   11.10
   0   3   9    0.42    1.89
   0   3  -9    0.66    3.58
   0  -3  -9    2.01    3.16
   0  -3   9    0.67    2.02
   0   3  -9    0.79    4.05
  -1   3  -9  195.60   15.30
   1   3  -9  176.24   14.85
  -1   3  -9  199.04   14.44
  -1  -3  -9  199.12   13.38
   1  -3  -9  219.17   12.87
   1   3   9  194.23    9.27
  -1   3   9  191.43    9.83
  -1  -3   9  176.74    9.55
   1  -3   9  181.38    9.47
  -1  -3   9  196.06    7.68
   1   3  -9  211.54   14.85
   2   3   9   12.63    2.35
   2   3  -9   14.47    2.86
  -2   3   9    8.70    2.51
   2   3  -9   10.35    5.00
  -2   3  -9   12.12    5.01
  -2  -3  -9   16.17    4.83
   2  -3  -9   14.35    3.98
  -2  -3   9   13.34    2.92
   2  -3   9   15.41    2.76
  -2  -3   9   14.19    1.48
  -2   3  -9    7.01    4.38
   3   3  -9  204.55   15.35
  -3   3  -9  215.99   16.40
  -3  -3  -9  195.96   14.27
   3  -3  -9  188.03   11.83
   3   3  -9  225.21   11.07
   3   3   9  239.64    9.76
  -3   3   9  249.00   11.78
  -3  -3   9  213.25   10.83
   4   3   9   31.31    2.67
   4   3  -9   36.18    4.31
  -4   3   9   37.46    4.33
   4   3  -9   23.20    6.22
  -4  -3  -9   24.90    5.71
  -4   3  -9   22.85    6.53
   4   3  -9   24.15    6.46
   5   3  -9   69.57    9.11
   5  -3  -9   59.19    4.97
   5   3  -9   67.60    5.98
   5   3   9   77.76    3.84
  -5   3   9   69.98    6.19
  -5   3  -9   52.13    7.44
  -5  -3  -9   61.90    8.33
  -5  -3  -9   66.09    6.96
  -5   3  -9   43.47    7.83
  -6   3  -9    2.22    4.28
   6   3  -9    7.67    5.16
  -6   3  -9    1.26    3.83
   6   3  -9   -1.92    3.06
  -6   3   9    1.41    2.78
  -6  -3  -9    4.05    3.96
  -6  -3  -9   -1.39    4.68
  -7   3  -9  340.77   20.90
  -7  -3  -9  353.95   21.09
   7   3  -9  323.06   20.74
  -7   3   9  311.86   16.48
   7   3  -9  349.45   21.47
  -7  -3  -9  397.41   18.85
  -7   3  -9  341.93   20.14
   8   3  -9    8.37    5.44
  -8   3  -9    8.15    4.45
   8   3  -9    2.31    4.48
  -8   3   9    8.30    3.57
  -8  -3  -9    9.82    5.69
  -8  -3  -9   10.74    4.18
  -8   3  -9   15.80    5.99
  -9  -3  -9  147.52   13.51
  -9  -3  -9  174.58   11.65
  -9   3  -9  127.22   11.96
   9   3  -9  129.40   12.60
   9   3  -9  190.86   10.81
  -9   3   9  110.45    9.18
   9   3  -9  149.94   13.35
 -10   3  -9    9.15    5.14
  10   3  -9    9.92    5.57
  10   3  -9   11.05    6.01
 -10   3   9    3.50    3.56
 -10  -3  -9   19.64    6.77
  10   3  -9    8.15    3.32
 -10  -3  -9   13.77    4.91
 -11   3  -9  305.48   18.69
  11   3  -9  255.41   17.97
 -11   3   9  249.60   15.22
 -11  -3  -9  338.73   17.46
 -11  -3  -9  306.08   20.45
  11   3  -9  264.77   18.89
   0   3 -11   -2.98    6.05
   0   3 -11   -0.63    4.39
   0  -3 -11   -0.58    4.12
  -1   3 -11   32.64    8.42
   1   3 -11   35.83    8.60
   1   3 -11   43.07    7.24
  -1   3 -11   33.90    7.21
  -1  -3 -11   55.01    7.73
   1  -3 -11   43.52    6.68
  -2   3 -11   29.85    8.27
   2   3 -11   19.83    5.47
  -2   3 -11   25.56    6.65
  -2  -3 -11   33.93    6.96
   2  -3 -11   31.52    5.68
   0  -4   0 9999.00  319.74
   0   4   0 9508.53  318.59
  -1  -4   0  122.85    7.20
   1  -4   0  131.57    7.36
   1   4   0  127.77    7.60
  -1   4   0  135.07    6.52
  -1   4   0  138.14    6.89
   2   4   0  798.37   30.20
  -2  -4   0  818.37   29.55
   2  -4   0  777.87   27.37
  -2   4   0  808.92   28.46
  -2   4   0  764.72   28.91
  -3  -4   0   39.43    3.63
  -3   4   0   42.83    3.97
   3   4   0   41.60    4.17
   3  -4   0   41.12    2.57
  -3   4   0   39.76    3.30
   4  -4   0 4805.14  157.36
  -4  -4   0 4866.06  157.37
   4  -4   0 4749.30  156.68
   4   4   0 4557.11  158.57
  -4   4   0 4559.41  157.68
   5  -4   0   29.57    3.22
  -5  -4   0   32.41    3.37
  -5   4   0   24.72    3.16
   5  -4   0   27.63    2.92
   6  -4   0  766.17   28.81
  -6  -4   0  795.61   28.77
  -6   4   0  755.66   29.11
  -6  -4   0  695.50   30.49
  -6   4   0  810.61   26.75
  -6   4   0  762.57   27.75
   6  -4   0  768.16   28.53
  -6   4   0  700.09   29.42
   7  -4   0   37.93    3.72
  -7  -4   0   43.48    3.85
  -7   4   0   38.10    3.83
  -7  -4   0   29.50    4.30
  -7   4   0   39.00    2.65
   7  -4   0   35.46    3.64
  -7   4   0   27.57    2.70
  -7   4   0   34.93    4.04
  -8  -4   0 6571.45  210.68
   8   4   0 6152.65  213.28
   8  -4   0 6327.00  210.68
  -8  -4   0 5723.56  213.71
  -8   4   0 6561.38  208.77
   8  -4   0 6196.25  211.24
  -8   4   0 6455.15  208.22
  -8   4   0 6395.03  211.17
  -8   4   0 6036.45  212.25
   9   4   0   61.67    6.22
  -9   4   0   67.90    5.26
   9  -4   0   61.82    4.84
  -9  -4   0   65.31    6.72
  -9   4   0   70.71    4.02
   9  -4   0   65.26    5.50
  -9  -4   0   65.16    4.86
  -9   4   0   66.15    5.98
  10  -4   0  686.14   26.08
 -10  -4   0  709.20   26.10
  10   4   0  655.30   28.79
 -10   4   0  684.02   26.35
 -10  -4   0  614.84   29.37
  10   4   0  761.61   28.47
  10  -4   0  729.21   27.72
 -10   4   0  598.79   27.64
  11  -4   0   19.79    2.71
 -11   4   0   17.24    2.87
  11   4   0   22.16    3.87
  11   4   0   18.25    4.06
 -11  -4   0   17.17    4.26
  11  -4   0   26.61    4.14
 -11  -4   0   19.93    2.90
  11   4   0   19.21    2.11
 -11   4   0   20.93    3.85
 -12  -4   0 1958.14   67.35
 -12   4   0 1869.19   67.57
  12   4   0 2107.31   70.54
  12  -4   0 2020.20   70.37
  12   4   0 1982.76   71.64
  12   4   0 2005.73   66.18
 -13   4   0   23.28    3.08
 -13   4   0   20.36    3.63
  13   4   0   35.33    5.40
  13   4   0   22.96    4.29
 -13  -4   0   18.78    4.52
  13  -4   0   31.06    4.71
  13   4   0   29.42    2.69
 -14   4   0  465.55   18.56
 -14  -4   0  436.93   23.42
 -14   4   0  446.91   20.65
  14   4   0  530.83   22.15
  14  -4   0  491.67   22.12
  14   4   0  498.64   22.90
  14   4   0  491.16   18.13
 -14   4   0  438.07   20.33
  15   4   0   70.20    7.51
 -15  -4   0   60.83    7.77
 -15   4   0   59.30    6.01
 -15   4   0   68.49    5.03
  15   4   0   62.79    4.82
  15  -4   0   67.03    7.04
  15   4   0   67.03    4.37
 -15   4   0   54.54    5.66
 -16   4   0 2314.58   85.79
 -16  -4   0 2401.83   90.49
 -16   4   0 2364.00   86.68
  16   4   0 2510.91   83.10
 -16   4   0 2537.57   83.14
  16   4   0 2303.93   82.77
  16  -4   0 2628.89   88.85
  16   4   0 2587.80   83.10
  17   4   0    3.02    1.23
 -17   4   0    3.15    2.77
 -17   4   0    3.76    3.28
 -17  -4   0    3.18    3.81
  17   4   0    3.80    1.25
 -18  -4   0  237.57   15.89
 -18   4   0  226.68   13.64
 -18   4   0  198.66   12.24
  18   4   0  230.17   15.54
  18  -4   0  250.93   15.15
   0  -4   2 2797.54   93.13
   0  -4  -2 2533.39   92.91
   0  -4  -2 2618.96   91.68
   0   4  -2 2612.11   94.20
   0   4  -2 2778.60   90.26
   0   4   2 2761.32   93.08
   0  -4   2 2820.99   90.98
   1   4  -2    0.71    1.74
  -1   4  -2    3.08    1.79
   1  -4   2   -0.49    1.57
  -1  -4   2    1.46    1.38
   1   4   2    1.84    1.72
  -1   4   2    0.23    1.63
   1  -4  -2    3.46    1.37
   1   4  -2    3.16    0.84
   1  -4   2    1.49    1.26
   2   4   2 1644.35   60.46
  -2   4   2 1664.01   59.29
   2  -4  -2 1726.49   58.39
   2  -4   2 1723.99   57.63
   2   4  -2 1756.99   56.86
  -2   4  -2 1692.02   60.63
   2  -4   2 1681.13   58.63
  -2  -4   2 1654.82   59.75
  -3  -4   2   19.16    2.85
  -3   4  -2   15.58    2.72
   3   4   2   24.34    3.49
  -3   4   2   21.35    2.68
  -3   4  -2   18.67    3.05
   3  -4  -2   16.08    1.98
   3  -4   2   17.52    1.96
  -3   4   2   17.99    2.90
   3  -4   2   20.63    2.59
  -4   4   2 4832.43  161.40
   4  -4   2 4936.19  160.77
   4   4   2 4995.35  162.53
  -4   4   2 5095.29  160.12
  -4  -4   2 4969.00  160.74
  -4   4   2 4938.08  159.34
   4  -4   2 4783.61  159.03
  -4   4  -2 4171.44  160.00
   4  -4   2 4970.13  160.29
  -4   4  -2 4416.17  161.33
   5  -4   2   60.18    4.88
  -5  -4   2   66.40    4.98
   5   4   2   64.62    5.89
  -5   4  -2   58.66    5.24
   5   4  -2   53.95    5.16
  -5   4   2   63.66    4.33
  -5   4   2   59.57    5.12
  -5   4   2   62.69    4.13
   5  -4   2   62.06    4.28
  -5   4  -2   47.22    4.26
   5  -4   2   64.83    4.91
  -6   4   2 1380.99   50.51
  -6  -4   2 1375.78   49.80
   6   4   2 1382.48   52.22
  -6   4  -2 1373.43   50.81
   6  -4   2 1431.38   49.94
   6   4  -2 1400.81   51.35
  -6   4   2 1469.97   48.83
   6  -4   2 1394.06   49.18
  -6   4   2 1361.25   49.80
   6  -4   2 1433.64   50.27
  -6   4  -2 1420.47   49.21
   7  -4   2   66.07    5.07
  -7  -4   2   57.10    4.83
   7   4   2   63.12    6.32
  -7   4  -2   76.14    5.85
   7   4  -2   88.03    6.65
  -7   4   2   66.48    4.50
   7  -4   2   62.07    4.86
  -7   4   2   64.62    5.34
  -7   4   2   56.60    5.32
  -7  -4  -2   75.72    7.29
   7  -4   2   65.42    5.38
  -7   4   2   56.86    5.11
  -7   4  -2   79.13    4.80
  -8   4   2 1735.07   62.09
   8  -4   2 1715.74   61.44
  -8  -4   2 1797.21   61.55
   8   4   2 1758.20   64.44
  -8   4  -2 1696.83   62.25
   8   4  -2 1750.74   63.51
  -8  -4  -2 1644.87   65.79
   8   4  -2 1988.60   64.19
  -8   4   2 1854.49   60.91
   8  -4  -2 1732.12   62.26
   8  -4   2 1772.86   61.87
  -8   4   2 1752.69   62.20
  -8   4   2 1594.78   62.60
   8  -4   2 1799.58   62.67
  -8   4  -2 1816.05   60.28
  -9   4  -2   34.87    2.89
  -9  -4   2   35.37    3.77
   9   4  -2   33.52    5.27
   9   4  -2   35.41    4.64
  -9   4  -2   25.12    3.59
  -9   4   2   43.05    4.22
   9   4  -2   47.62    5.15
  -9   4   2   42.75    3.66
  -9  -4  -2   26.07    4.97
   9  -4   2   40.56    3.88
   9  -4  -2   31.86    4.03
   9  -4   2   40.70    4.33
   9  -4   2   40.02    4.60
  -9   4   2   37.43    4.60
  -9   4   2   42.90    2.70
  10  -4   2  826.34   30.80
 -10   4   2  833.26   31.39
 -10  -4   2  867.53   30.89
  10   4  -2  748.26   32.79
 -10  -4  -2  713.18   34.99
  10   4  -2  838.16   32.93
 -10   4  -2  717.15   31.88
  10  -4  -2  774.00   31.96
  10   4  -2  689.53   34.19
  10  -4   2  889.28   32.48
  10  -4   2  857.11   32.58
 -10   4   2  889.29   28.12
 -10   4   2  788.00   32.95
  11   4  -2   10.46    3.82
  11   4   2   14.42    3.27
  11  -4   2   13.62    2.49
 -11  -4   2   19.11    2.79
  11   4   2   11.89    4.06
  11   4  -2   12.96    3.42
  11   4   2   24.59    3.88
  11   4  -2    8.45    3.39
 -11  -4  -2   19.68    4.52
  11  -4  -2   13.16    3.13
  11  -4   2   18.31    3.48
 -11   4   2   16.16    2.79
 -11   4  -2   13.19    3.21
  11  -4   2   13.39    3.30
 -11   4   2   14.77    3.38
  12  -4   2 2329.06   79.89
  12   4   2 2494.84   85.11
 -12   4   2 2368.64   80.56
  12   4  -2 2212.80   83.41
 -12  -4   2 2405.48   80.02
 -12  -4  -2 2061.60   85.92
  12   4  -2 2354.94   83.06
  12   4   2 2542.13   82.52
 -12   4  -2 2099.70   81.15
  12  -4  -2 2216.05   82.58
  12   4  -2 2070.26   85.07
  12   4   2 2419.18   81.98
  12  -4   2 2687.52   83.85
 -12   4   2 2515.80   82.40
  12  -4   2 2480.86   83.10
 -12   4   2 2188.78   83.08
 -13   4  -2    9.10    2.62
  13   4  -2    7.58    4.27
  13  -4   2   10.09    2.38
 -13   4   2   14.54    2.81
 -13  -4   2   11.05    2.50
 -13   4   2   10.21    2.25
  13   4   2   12.31    4.51
  13   4   2    9.69    3.20
  13   4  -2    8.55    3.61
 -13  -4  -2   10.99    4.93
 -13   4   2   12.77    2.97
  13  -4  -2   11.49    3.45
  13  -4   2   15.33    4.11
  13   4   2   13.10    3.04
 -13   4   2   10.80    3.59
 -14  -4   2  654.34   22.69
  14   4  -2  545.33   25.71
  14  -4   2  569.68   22.23
 -14   4   2  628.64   22.94
 -14   4  -2  544.49   23.82
 -14  -4  -2  558.14   28.85
 -14   4   2  521.93   24.47
  14   4   2  660.03   25.23
  14   4   2  615.15   23.97
 -14   4   2  633.76   23.87
  14  -4  -2  561.46   25.62
  14   4  -2  515.02   27.23
  14  -4   2  719.38   27.33
 -14   4  -2  541.94   23.12
 -14   4   2  600.50   26.60
 -14   4   2  557.76   22.47
 -14   4  -2  542.13   25.75
  15   4  -2    6.00    4.43
  15  -4   2    3.88    1.83
 -15  -4   2    1.24    1.79
 -15   4   2    1.75    1.96
 -15   4  -2    4.99    2.20
 -15   4  -2    4.57    3.30
 -15   4   2    3.23    2.06
 -15   4   2    3.15    3.14
 -15   4  -2    7.49    2.91
  15   4  -2    8.00    3.80
  15   4   2    4.31    3.00
 -15  -4  -2    2.77    4.59
  15   4   2    1.71    2.24
  15  -4  -2    1.79    3.12
  15  -4   2    3.57    3.30
 -15   4   2    3.21    2.35
 -15   4   2    1.86    3.39
 -16   4   2  604.69   24.10
 -16   4   2  627.98   23.26
  16   4   2  578.15   23.29
  16   4   2  617.32   23.96
 -16  -4  -2  709.19   32.28
  16  -4   2  574.99   22.53
 -16   4   2  593.07   26.81
 -16   4  -2  691.32   26.74
  16   4  -2  736.47   28.59
  16  -4  -2  707.23   28.74
  16   4  -2  674.59   30.24
  16  -4   2  660.95   28.28
 -16   4  -2  662.42   24.09
  16   4   2  646.09   24.89
  16   4  -2  612.07   23.78
 -16   4   2  596.72   27.78
 -16   4  -2  622.89   27.77
  17   4  -2    4.94    4.21
  17   4   2    4.44    1.91
 -17   4  -2    2.40    3.39
 -17   4   2    5.41    3.79
 -17   4  -2    8.29    3.72
 -17  -4  -2    5.84    4.84
  17  -4   2    3.45    3.83
  17   4   2    4.48    1.88
  17   4  -2    4.16    1.93
  17   4   2    2.68    2.71
 -18   4  -2  192.52   13.35
 -18  -4  -2  188.71   15.75
 -18   4   2  277.04   15.00
 -18   4  -2  192.46   12.44
  18  -4   2  298.87   15.95
  18   4  -2  178.75   14.11
  18   4   2  284.97   12.46
   0   4   4  546.90   23.08
   0  -4   4  601.58   23.71
   0   4   4  578.52   25.18
   0   4  -4  529.40   24.42
   0  -4   4  569.54   21.36
  -1   4   4    4.25    2.63
  -1   4   4    2.59    2.00
   1   4   4    3.67    2.17
   1   4  -4    3.30    2.27
  -1  -4   4    1.83    1.95
   1  -4   4    0.92    1.78
   1   4   4    0.62    2.10
  -1   4   4    2.47    2.11
   1  -4   4    2.76    2.35
  -1   4  -4    5.29    2.54
   1  -4   4    3.32    0.80
  -1   4  -4    6.91    2.81
   1   4   4    3.78    2.35
   1   4  -4    3.23    2.22
  -1  -4   4    4.63    1.52
   1  -4   4    4.76    1.64
  -2   4   4 4333.31  143.30
  -2   4   4 4217.29  141.06
  -2  -4   4 4397.53  142.12
  -2  -4  -4 4126.42  143.56
  -2   4  -4 4098.22  144.49
   2  -4   4 4264.47  142.65
   2  -4   4 4034.30  138.05
   2   4   4 4257.80  142.59
   2   4  -4 4147.65  143.88
  -2   4   4 4336.46  144.41
  -2   4  -4 4074.89  142.67
  -2  -4   4 4259.85  138.73
   2  -4   4 4259.65  140.28
  -3   4   4   48.53    5.25
   3   4   4   46.35    5.13
  -3   4   4   42.48    4.04
  -3  -4   4   51.74    4.99
  -3  -4  -4   36.81    5.03
   3  -4   4   47.23    2.23
  -3  -4  -4   51.45    4.70
  -3   4   4   50.96    4.30
  -3   4  -4   42.00    5.63
  -3   4   4   44.41    4.30
   3  -4   4   43.00    4.78
   3  -4   4   49.37    3.16
   3   4  -4   49.25    5.68
  -3   4   4   41.94    5.27
  -3  -4   4   44.59    2.92
  -3   4  -4   46.11    4.94
   3  -4   4   45.42    4.19
  -4   4   4  479.97   22.03
   4   4   4  461.03   21.54
  -4   4   4  482.82   19.80
  -4  -4   4  518.11   21.37
   4  -4   4  507.46   21.49
   4   4   4  466.83   21.95
  -4   4   4  457.43   19.91
  -4  -4  -4  603.57   21.97
  -4   4  -4  583.30   24.38
   4   4  -4  586.04   24.24
  -4   4   4  497.99   20.59
   4  -4   4  501.20   21.63
   4  -4   4  518.51   18.94
   4   4   4  475.95   22.72
  -4   4   4  478.44   22.99
   4   4  -4  539.06   23.69
  -4  -4   4  476.29   17.62
   4  -4   4  485.65   20.39
  -4   4  -4  600.20   22.30
   5  -4   4   11.86    3.01
  -5   4   4   17.56    3.80
   5   4  -4   14.40    3.52
  -5   4   4   13.88    3.07
   5   4   4    9.64    2.92
  -5  -4   4   15.97    3.10
   5  -4   4   12.79    3.05
  -5   4  -4   13.07    3.00
   5   4   4    9.79    3.29
  -5   4   4   13.11    2.19
  -5   4   4   13.43    2.43
  -5   4   4   15.13    2.79
   5  -4   4   14.11    2.17
  -5  -4   4   12.29    1.03
   5   4   4   15.55    3.50
   5  -4   4   10.24    2.84
  -5   4  -4   13.00    3.26
   5   4  -4    9.46    2.98
  -6   4   4 2963.58  108.60
   6   4   4 3032.91  108.35
   6   4   4 3188.12  109.89
  -6  -4   4 3191.23  107.86
  -6   4   4 3025.99  105.51
   6   4  -4 3738.36  109.65
   6   4  -4 3704.83  109.26
  -6   4   4 2972.37  106.50
  -6   4  -4 3085.31  110.35
   6   4  -4 3039.39  110.13
   6  -4   4 3029.80  107.92
   6   4   4 3170.44  110.15
  -6   4   4 3138.24  107.52
  -6   4   4 3255.36  110.67
   6  -4   4 3059.34  107.85
   6  -4   4 3116.33  107.69
  -6   4  -4 3281.69  108.08
  -7   4  -4   13.84    3.60
   7   4  -4   20.55    4.10
   7  -4   4   11.70    2.87
   7  -4   4   12.40    2.82
  -7   4   4   12.03    3.15
   7   4   4   10.66    3.01
  -7  -4   4   11.43    2.79
  -7   4   4   10.89    3.69
   7   4   4   12.67    3.58
  -7   4  -4   17.17    3.13
   7   4  -4   17.68    3.45
  -7   4   4   14.81    2.72
  -7   4   4   10.55    2.00
  -7   4   4    9.74    2.45
   7   4  -4   18.06    3.87
   7   4   4   12.64    3.71
   7   4  -4   16.06    1.26
  -7   4   4   10.79    2.86
   7  -4   4   12.96    3.00
   8   4   4  543.12   23.37
  -8   4  -4  597.58   23.04
   8  -4   4  529.59   22.72
  -8  -4   4  556.89   22.72
  -8   4   4  540.43   21.59
   8   4  -4  632.04   24.66
  -8  -4  -4  576.26   27.04
   8   4  -4  602.73   24.06
  -8   4   4  537.13   22.04
   8   4   4  571.79   25.33
  -8   4   4  564.28   23.81
   8   4   4  581.81   24.96
  -8   4   4  540.11   24.86
   8  -4   4  532.48   22.67
  -8   4  -4  542.80   24.57
   8   4  -4  508.84   24.25
   8   4  -4  590.05   19.68
  -8   4   4  530.03   22.91
   8   4  -4  472.92   25.02
   8  -4   4  530.82   23.23
  -8   4   4  537.93   20.33
  -9   4  -4    0.80    2.48
   9  -4   4    2.94    2.09
   9   4  -4    1.23    2.49
   9   4  -4    0.53    3.05
  -9   4   4   -0.34    2.43
   9   4   4    1.92    2.34
   9  -4   4    1.41    1.99
  -9  -4   4    1.10    2.09
  -9   4   4    3.39    2.09
   9   4   4    3.29    3.24
  -9   4   4    1.70    1.20
  -9  -4  -4    1.81    3.19
   9   4  -4    2.62    2.64
   9   4   4    4.52    2.87
  -9   4   4    0.26    1.88
  -9   4   4    1.67    3.02
   9   4  -4    1.17    1.30
  -9   4   4    0.99    2.25
   9  -4   4    0.69    2.47
  10   4   4 2483.34   84.46
 -10   4   4 2245.25   80.95
  10  -4   4 2247.04   80.02
 -10  -4   4 2384.51   80.18
 -10   4   4 2232.77   76.79
 -10  -4  -4 2362.38   86.26
  10   4  -4 2737.07   83.22
 -10   4   4 2166.17   79.79
  10   4   4 2336.78   82.41
 -10   4   4 2446.60   82.74
  10  -4   4 2206.01   79.62
  10   4   4 2169.23   80.44
  10   4  -4 2584.00   78.19
 -10   4  -4 2354.58   82.25
 -10   4   4 2328.22   81.18
  10   4  -4 2205.22   82.00
  10   4  -4 2144.01   84.19
 -10   4   4 2084.44   81.33
  10  -4   4 2420.96   82.09
 -10   4   4 2344.47   78.70
 -11   4   4   37.58    2.06
  11   4   4   50.72    6.50
 -11   4   4   46.75    5.05
  11   4   4   44.75    4.75
  11  -4   4   43.25    4.42
 -11   4   4   41.23    2.20
 -11  -4   4   43.11    4.35
  11   4  -4   52.09    5.79
 -11  -4  -4   54.57    7.31
  11   4  -4   42.38    6.30
  11   4   4   47.50    4.64
  11   4   4   48.06    5.43
 -11   4   4   43.13    5.25
 -11   4   4   46.09    4.60
  11  -4   4   41.14    4.09
  11   4  -4   54.97    4.08
 -11   4  -4   40.57    5.08
  11   4  -4   48.76    5.62
 -11   4   4   44.88    3.83
  11  -4   4   46.80    5.44
 -11   4   4   34.57    5.03
 -12   4   4  364.92   18.40
  12   4  -4  541.68   21.68
 -12  -4  -4  522.09   25.15
  12   4   4  396.62   19.60
 -12   4   4  393.66   19.35
  12   4   4  422.65   18.50
  12   4   4  370.06   18.11
  12  -4   4  407.52   18.01
  12   4  -4  571.58   18.56
 -12   4   4  435.91   16.68
  12   4  -4  450.72   22.69
 -12   4  -4  506.46   20.65
  12   4  -4  471.98   20.45
 -12   4   4  363.74   19.74
 -12  -4   4  408.18   17.94
 -13   4   4   18.64    2.27
  13   4  -4   15.95    4.89
 -13   4   4   16.63    3.84
 -13   4   4   26.95    3.82
  13   4   4   19.12    3.22
  13  -4   4   17.48    2.92
 -13  -4   4   24.21    3.27
 -13   4  -4   28.80    3.51
 -13   4  -4   29.99    5.57
 -13   4  -4   22.67    4.08
  13   4  -4   29.05    4.48
  13   4   4   15.73    3.37
  13   4  -4   31.47    4.95
  13   4   4   22.72    4.09
 -13   4  -4   21.94    1.27
 -13  -4  -4   27.69    5.96
 -13   4   4   14.29    3.55
  13   4  -4   20.65    3.35
 -13   4   4   17.76    4.43
 -14  -4  -4 1220.46   50.02
 -14   4   4 1086.41   42.01
 -14  -4   4 1127.97   41.53
  14   4  -4 1303.75   45.52
  14  -4   4 1046.25   41.19
  14   4   4 1066.71   43.01
 -14   4   4 1055.47   42.49
 -14   4   4  903.44   43.04
 -14   4  -4 1234.17   42.25
  14   4   4 1076.68   42.23
 -14   4  -4 1264.54   38.72
  14   4  -4 1416.44   43.14
  14   4  -4 1086.27   46.89
 -14   4   4 1057.94   44.73
 -14   4  -4 1224.14   43.65
  14   4   4 1021.10   41.64
  14   4  -4 1124.36   43.36
 -14   4  -4 1244.17   47.43
  15   4   4    0.32    2.58
  15  -4   4    3.05    1.98
  15   4  -4    2.47    3.88
 -15   4   4    3.08    2.46
  15   4   4    0.50    2.12
 -15   4  -4    1.16    4.38
 -15   4   4    0.86    3.26
 -15   4  -4    2.25    2.52
  15   4   4    2.45    2.77
  15   4  -4    1.27    3.78
 -15  -4  -4   -0.76    4.97
 -15   4  -4    1.96    2.81
  15  -4  -4    5.31    3.82
  15   4  -4    0.34    2.48
  15   4  -4    1.39    2.40
 -15   4   4    1.44    3.77
 -16   4  -4  293.85   14.02
  16   4   4  285.47   13.58
  16  -4   4  251.38   11.90
  16   4  -4  260.93   13.63
  16   4  -4  312.10   15.70
 -16   4   4  249.26   12.44
  16   4   4  255.50   12.39
 -16  -4  -4  283.45   19.17
  16   4   4  274.63   13.76
 -16   4  -4  265.62   13.36
  16  -4  -4  344.52   17.40
  16   4  -4  323.17   14.43
  16  -4   4  276.16   15.69
  16   4  -4  266.16   17.01
 -16   4   4  271.03   15.89
 -16   4  -4  287.76   17.27
 -17   4  -4   75.46    8.76
  17   4  -4   66.76    7.06
 -17   4  -4   72.58    6.23
 -17  -4  -4   73.74   10.20
  17  -4  -4   80.48    8.61
  17   4  -4   78.36    6.77
  17  -4   4   91.80    8.54
  17   4  -4   64.27    9.00
 -17   4   4   74.88    8.36
   0  -4   6  722.53   27.43
   0  -4  -6  600.22   26.92
   0   4   6  678.96   29.18
   0  -4  -6  613.11   25.56
   0  -4   6  678.72   28.12
   0   4  -6  570.40   28.69
   0   4  -6  568.36   27.71
   0   4   6  632.93   25.86
   1   4  -6    2.29    2.89
   1  -4   6    2.97    3.00
  -1   4  -6    1.72    3.08
  -1  -4   6    1.50    2.65
   1  -4   6   -0.38    2.58
   1   4  -6    1.51    2.65
  -1   4  -6   -1.45    2.65
  -1   4   6    3.82    2.12
   1   4   6    3.40    2.46
   1   4  -6    1.60    2.19
  -1  -4  -6   -0.89    2.96
   1   4   6    5.17    3.20
   1  -4   6    2.02    1.22
  -1  -4  -6    2.50    2.40
   1  -4   6    2.54    0.84
  -1   4   6    4.67    2.90
  -2  -4   6 3893.09  123.43
  -2  -4  -6 3495.54  124.49
   2   4  -6 4050.93  121.64
  -2   4   6 3624.82  125.60
   2  -4   6 3385.30  118.13
  -2  -4  -6 3527.53  121.85
  -2   4   6 3635.25  120.99
  -2   4   6 3543.70  121.27
   2  -4   6 3792.07  124.14
  -2   4  -6 3250.33  125.40
   2   4   6 3820.29  123.09
   2   4  -6 3205.24  124.63
  -2   4  -6 3373.02  124.07
  -3   4   6   50.78    4.55
   3   4   6   63.13    6.29
  -3  -4   6   54.49    5.66
  -3  -4  -6   51.74    6.46
  -3   4  -6   44.83    6.51
   3   4  -6   59.88    5.32
  -3   4   6   51.03    6.47
  -3  -4  -6   42.32    4.99
   3  -4   6   50.91    3.24
  -3   4   6   46.22    4.72
  -3  -4   6   50.01    6.24
   3  -4   6   56.51    6.13
   3   4  -6   51.86    6.57
   3  -4   6   52.84    5.78
  -3   4  -6   53.84    6.07
  -4   4   6 1017.77   37.48
   4   4   6 1052.44   40.95
  -4   4   6 1049.09   40.03
  -4  -4   6 1092.17   40.33
   4  -4   6 1082.35   40.45
  -4  -4  -6 1022.80   42.51
   4   4  -6 1093.90   39.20
   4   4   6 1079.90   42.57
  -4   4   6 1076.83   42.61
  -4  -4  -6 1044.92   39.74
  -4   4   6 1010.36   38.67
  -4  -4   6 1062.91   41.71
  -4   4   6 1016.46   38.90
   4  -4   6 1037.68   40.61
  -4   4  -6  970.24   42.48
   4   4  -6 1034.22   42.97
   4   4  -6  896.24   41.79
  -4   4  -6 1012.33   41.01
  -4   4   6 1039.87   41.23
   4   4   6 1006.92   40.68
  -5   4   6   36.35    3.38
  -5   4  -6   48.91    5.78
  -5   4   6   41.44    5.11
  -5  -4   6   39.00    4.99
  -5   4   6   30.39    4.97
   5  -4   6   30.00    4.64
   5   4  -6   46.09    6.49
  -5   4  -6   44.43    6.33
   5   4  -6   40.25    5.90
   5   4  -6   49.86    5.02
   5   4   6   34.75    5.25
  -5  -4  -6   41.20    6.10
  -5  -4  -6   42.13    4.97
  -5   4   6   39.86    4.44
   5   4   6   29.90    4.78
   5  -4   6   40.19    5.30
  -5   4   6   31.27    4.34
   5   4   6   35.79    5.58
  -5   4   6   38.89    6.08
   6   4   6 3216.93  114.25
  -6   4  -6 3276.72  114.55
   6  -4   6 3415.07  114.03
  -6  -4  -6 3091.12  116.96
  -6   4   6 3234.92  112.84
   6   4   6 3387.73  116.35
  -6   4   6 3375.97  116.36
   6   4  -6 3463.76  113.28
  -6   4   6 3073.00  111.98
  -6  -4  -6 3389.21  114.15
   6   4   6 3470.74  115.80
  -6   4   6 3267.96  112.63
   6  -4   6 3380.12  114.27
  -6   4  -6 2983.76  115.80
   6   4  -6 2900.18  115.66
  -6  -4   6 3505.82  113.71
  -6   4   6 3281.25  114.89
  -6   4   6 3360.01  109.70
  -7   4   6   58.68    6.41
   7   4   6   60.01    6.34
  -7   4  -6   49.72    6.10
  -7  -4   6   65.61    6.22
   7  -4   6   65.51    6.44
  -7  -4  -6   55.73    7.44
   7   4   6   74.06    7.42
   7   4   6   57.71    6.75
  -7   4   6   51.60    6.57
   7   4  -6   62.22    6.12
  -7   4   6   57.09    5.38
  -7  -4  -6   60.84    6.36
  -7   4   6   51.40    5.44
   7  -4   6   65.60    6.41
  -7   4  -6   51.69    6.81
   7   4  -6   55.51    6.99
   7  -4   6   69.12    6.25
  -7   4   6   55.78    3.29
  -7   4   6   59.19    5.78
   8   4   6  506.09   23.16
  -8   4   6  468.94   21.66
   8   4   6  474.85   21.46
  -8  -4   6  477.68   20.52
   8  -4   6  468.13   20.85
   8   4   6  479.76   22.58
   8   4  -6  479.51   21.41
  -8   4   6  509.18   22.84
   8   4  -6  443.01   20.48
  -8   4   6  442.76   19.58
  -8  -4  -6  418.33   21.01
  -8   4   6  480.98   20.48
   8  -4   6  465.27   20.91
   8   4  -6  357.29   22.37
  -8   4  -6  392.84   21.81
   8   4  -6  362.54   21.41
   8  -4   6  478.77   20.93
  -8   4   6  461.22   19.80
   9  -4   6   19.21    4.33
  -9   4   6   26.03    4.77
   9   4   6   25.19    4.61
  -9  -4   6   34.59    4.57
   9  -4   6   27.63    4.59
   9   4  -6   36.69    6.38
  -9   4   6   25.01    4.04
   9   4   6   25.20    5.13
   9   4  -6   39.65    5.34
  -9   4   6   29.89    5.27
  -9   4  -6   31.15    5.33
   9   4  -6   27.44    5.23
   9   4  -6   39.54    5.54
  -9   4   6   27.74    4.13
  -9  -4  -6   36.38    5.34
 -10   4   6 2077.55   78.13
  10   4   6 2173.49   77.83
 -10  -4   6 2252.60   76.93
  10  -4   6 2096.46   76.95
  10   4   6 2295.19   79.99
 -10   4   6 2309.11   79.47
  10   4   6 2225.08   75.01
  10  -4   6 2063.85   77.05
  10   4  -6 1997.06   81.31
 -10   4   6 2138.32   75.78
 -10   4  -6 2088.24   79.18
  10   4  -6 1983.89   79.08
 -11   4   6   25.21    4.67
  11  -4   6   31.46    4.64
  11   4   6   29.52    4.78
  11   4   6   34.00    5.72
  11  -4   6   32.56    4.66
 -11  -4   6   28.23    4.35
 -11   4   6   32.15    5.61
 -11   4   6   25.74    4.14
  11   4  -6   18.73    5.51
  11   4   6   29.99    3.62
 -11   4   6   24.01    4.28
 -11  -4  -6   22.90    6.02
  11   4  -6   32.93    5.27
 -11   4  -6   26.29    4.94
  11   4  -6   27.38    5.09
  12   4   6  507.29   22.47
  12  -4   6  520.25   22.14
 -12  -4   6  550.34   22.17
  12   4   6  561.55   24.59
 -12   4   6  520.85   23.47
 -12  -4  -6  456.93   26.67
  12   4  -6  545.87   23.48
 -12   4   6  421.04   22.15
  12   4   6  564.93   20.74
  12  -4   6  522.49   22.38
 -12   4   6  507.94   23.67
 -12   4   6  605.46   22.07
  12   4  -6  434.65   25.38
 -12   4   6  507.03   23.04
 -12   4  -6  466.25   23.58
 -12   4  -6  433.00   24.71
  12   4  -6  461.04   23.94
 -13   4   6   26.72    4.92
  13  -4   6   30.72    4.12
  13  -4   6   21.37    4.13
 -13   4   6   30.26    4.66
  13   4   6   24.74    4.19
 -13  -4   6   28.68    4.01
  13   4  -6   24.71    6.14
 -13   4  -6   15.67    5.32
 -13   4   6   24.67    4.89
  13   4  -6   24.95    4.81
 -13  -4  -6   23.92    6.80
 -13   4  -6   21.15    4.67
  13   4  -6   18.27    4.44
 -13   4   6   21.43    4.75
  13   4   6   35.19    5.75
 -14   4   6 1685.40   60.91
  14   4   6 1589.36   60.11
  14   4   6 1740.68   62.35
 -14   4  -6 1632.12   62.52
  14   4  -6 1573.85   62.68
  14  -4   6 1705.24   60.08
  14   4  -6 1903.67   62.61
 -14  -4  -6 1735.65   68.63
 -14   4   6 1430.61   61.41
  14   4  -6 1823.10   58.24
  14  -4   6 1635.77   59.99
 -14   4   6 1628.65   62.63
  14   4  -6 1619.59   65.83
 -14   4  -6 1712.29   66.23
 -15   4  -6    5.38    3.92
  15   4  -6    2.86    3.49
 -15   4   6    2.35    3.15
  15   4   6    0.31    2.70
  15  -4   6    3.14    2.56
  15   4  -6    3.49    4.98
 -15   4  -6   12.68    5.78
 -15   4   6    3.37    3.63
 -15   4  -6    2.16    2.20
  15   4  -6    3.12    3.20
 -15  -4  -6    5.13    5.12
  15   4  -6    5.65    2.41
  15   4   6    4.43    3.55
 -15   4   6    8.01    4.64
   0  -4  -8 1617.83   62.63
   0  -4   8 1550.83   57.63
   0   4  -8 1542.54   65.51
   0   4  -8 1569.99   64.58
   1   4  -8   33.72    3.98
  -1   4  -8   37.72    3.68
   1   4  -8   37.15    6.56
  -1   4  -8   40.24    6.55
  -1  -4   8   28.33    3.12
   1  -4   8   31.85    3.17
  -1  -4  -8   29.38    5.41
   1  -4  -8   27.29    4.98
  -1   4  -8   30.79    6.21
   1   4  -8   33.73    6.60
  -1   4   8   41.62    4.85
   1   4   8   44.09    5.25
  -2   4  -8  718.26   34.29
  -2  -4  -8  757.68   34.17
   2  -4  -8  692.31   31.28
   2   4  -8  840.31   30.44
  -2   4  -8  810.36   28.80
  -2  -4  -8  765.13   31.80
   2  -4   8  806.79   28.50
  -2   4  -8  661.21   34.98
   2   4   8  948.65   33.45
   2   4  -8  679.64   34.54
   3   4   8   23.43    4.77
   3   4  -8   31.91    4.22
  -3   4  -8   32.73    3.13
   3   4  -8   31.64    6.22
  -3   4  -8   34.76    6.16
  -3  -4  -8   31.20    6.00
  -3  -4  -8   27.82    4.72
  -3   4  -8   25.40    6.20
   3  -4  -8   27.28    4.14
  -4   4  -8  726.05   33.60
  -4  -4  -8  710.42   33.97
   4   4  -8  861.44   30.66
  -4   4  -8  803.62   27.32
  -4  -4  -8  747.44   31.67
  -4   4  -8  704.23   34.94
   4   4  -8  701.32   35.00
   4   4  -8  749.49   35.42
   4   4   8  668.59   31.41
   5   4  -8    2.14    3.93
  -5   4   8    6.47    3.55
   5   4  -8   10.52    3.37
  -5   4  -8   10.01    1.78
  -5   4  -8    9.14    4.40
  -5  -4  -8    7.19    4.46
  -5  -4  -8   12.00    3.64
  -5   4  -8   11.15    5.04
   5   4  -8   10.76    4.70
  -6  -4  -8  715.25   34.84
   6   4  -8  850.68   31.51
  -6   4  -8  761.34   26.41
  -6  -4  -8  782.61   32.51
  -6   4  -8  727.62   35.26
   6   4  -8  681.69   34.91
  -6   4   8  817.16   32.28
  -7   4  -8   15.14    1.24
  -7   4   8   29.72    5.18
  -7   4   8   24.61    4.33
   7   4  -8   30.30    4.91
  -7  -4  -8   14.18    5.37
  -7  -4  -8   20.74    4.74
  -7   4  -8   22.65    5.80
   7   4  -8   16.28    5.47
  -8   4  -8 1024.46   46.62
  -8  -4  -8 1081.72   47.85
   8   4  -8  985.56   46.59
  -8   4   8 1093.56   42.64
   8   4  -8 1334.35   44.89
  -8  -4  -8 1123.14   44.32
  -8   4   8 1186.46   43.47
   8   4  -8  906.10   46.37
   8   4   8 1220.26   45.27
   9   4   8   25.35    5.16
  -9   4   8   23.55    4.56
   9   4  -8   17.00    5.87
  -9   4   8   18.33    4.18
  -9  -4  -8   20.70    6.16
  -9  -4  -8   25.10    5.02
   9   4  -8   33.41    5.69
  -9   4   8   16.90    4.81
  -9   4  -8   24.72    5.97
   9   4  -8   23.03    6.10
 -10   4   8  732.24   31.89
  10   4   8  772.42   31.66
 -10   4  -8  671.64   33.05
  10   4  -8  843.51   31.52
  10   4  -8  636.97   32.81
 -10  -4  -8  631.41   34.11
 -10   4   8  676.23   29.86
 -10  -4  -8  762.64   31.68
 -10   4   8  823.04   30.39
  10   4  -8  627.33   33.84
 -10   4  -8  626.41   32.72
 -11   4   8   21.81    5.08
  11   4   8   25.78    5.52
 -11   4  -8   31.50    6.95
  11   4  -8   30.90    7.14
 -11   4   8   17.21    4.45
 -11  -4  -8   34.57    7.68
  11   4  -8   31.89    5.27
 -11  -4  -8   43.62    6.55
 -11   4  -8   37.90    6.84
  11   4  -8   36.63    7.03
  12   4   8  242.84   15.33
  12   4  -8  339.38   19.18
 -12   4   8  237.20   15.71
 -12   4   8  226.96   15.13
 -12  -4  -8  409.11   18.99
 -12   4  -8  327.12   18.53
  12   4  -8  338.22   20.77
 -12   4  -8  337.78   20.14
   0   4 -10 1435.66   51.46
   0  -4 -10 1426.35   47.30
   0   4  10 1011.96   39.64
   0  -4  10  960.23   39.26
   0   4 -10 1393.36   53.16
   1   4 -10   12.39    2.84
   1   4  10    8.25    2.52
  -1   4  10    8.30    2.94
   1   4 -10    5.56    5.34
  -1   4 -10    6.09    5.05
  -1  -4 -10   12.60    4.97
   1  -4 -10   14.87    5.01
  -1  -4  10    8.01    2.70
   1  -4  10    4.79    2.31
  -1   4 -10   14.73    6.43
   1   4 -10   13.85    6.52
   2   4 -10  271.72   18.25
  -2   4 -10  264.55   19.05
  -2   4 -10  273.82   17.72
  -2  -4 -10  265.44   16.67
   2   4 -10  326.90   12.53
  -2   4  10  163.77   10.81
   2  -4  10  180.19   10.27
   2  -4 -10  275.60   14.51
   3   4 -10    1.11    2.60
  -3   4  10    3.46    2.75
   3   4 -10   -0.83    4.95
  -3  -4 -10   -0.69    4.78
   3  -4 -10    3.51    3.02
  -3   4 -10    2.72    4.78
   3   4 -10    2.75    5.32
  -4   4 -10 1359.63   61.53
  -4  -4 -10 1476.32   59.90
   4  -4 -10 1451.61   53.49
  -4   4  10 1458.98   53.77
   4   4 -10 1361.59   61.65
   4   4 -10 1348.74   60.62
   5   4 -10   12.42    4.08
  -5   4  10   12.99    3.94
  -5  -4 -10    5.99    4.85
  -5   4 -10   15.06    6.61
   5   4 -10    3.60    5.23
  -6   4 -10  227.72   17.34
  -6  -4 -10  251.70   17.20
   6   4 -10  229.09   17.54
  -6  -4 -10  224.55   14.06
  -6   4 -10  210.27   15.57
   0  -5  -1    1.10    1.68
   0  -5   1    1.38    1.78
   0   5   1    0.58    1.93
   0  -5  -1    0.18    1.12
   0   5  -1   -0.43    1.26
   0   5  -1   -0.20    1.28
   1  -5  -1  442.79   17.51
  -1  -5  -1  459.79   17.62
   1  -5   1  291.52   15.93
  -1  -5   1  309.43   16.08
   1   5   1  280.91   16.10
  -1   5   1  300.37   16.11
   1  -5  -1  416.46   15.48
   1   5  -1  445.24   15.13
  -1   5  -1  464.76   15.71
   1   5  -1  415.47   15.61
  -2  -5  -1  254.92   11.99
  -2  -5   1  235.50   11.65
  -2   5   1  218.23   12.01
  -2   5  -1  245.97   12.62
   2   5   1  226.29   12.12
  -2   5   1  231.46   11.58
   2   5  -1  235.69   12.23
   2  -5  -1  242.08   10.09
   2  -5   1  217.22    9.10
  -2   5  -1  235.57   10.26
   2   5  -1  223.68    9.93
  -3  -5  -1  475.94   20.92
  -3  -5   1  572.29   21.61
  -3   5   1  556.01   22.26
  -3   5  -1  455.16   21.51
   3   5   1  557.98   22.38
   3   5  -1  488.06   21.89
   3  -5  -1  469.81   18.98
   3  -5   1  571.56   18.22
  -3   5  -1  434.68   21.12
  -3   5   1  572.53   20.68
  -3   5   1  517.53   21.04
   3   5  -1  460.27   18.70
  -4   5  -1    5.37    2.25
   4  -5  -1    3.09    2.12
  -4  -5  -1    4.38    2.27
   4  -5   1    5.41    2.20
  -4   5   1    3.24    1.89
   4   5   1    9.27    2.65
  -4   5  -1    5.06    2.24
   4   5  -1    5.99    2.52
   4   5   1    2.45    2.16
  -4  -5   1    4.04    2.12
  -4   5   1   10.06    2.20
   4   5  -1    4.69    1.19
  -4   5  -1    1.13    1.76
   5  -5  -1  291.03   14.31
   5  -5   1  353.12   14.79
  -5  -5   1  379.29   15.12
  -5   5   1  355.34   15.53
   5   5   1  341.85   15.42
  -5  -5  -1  274.23   14.05
  -5   5  -1  264.26   14.50
   5   5  -1  283.36   14.98
   5   5   1  351.08   16.22
   5  -5   1  354.65   13.76
  -5   5  -1  267.66   13.76
  -5   5   1  376.89   14.53
   5   5  -1  277.19   11.41
  -5   5  -1  269.54   14.17
   6  -5  -1  159.16    9.18
  -6  -5  -1  163.49    9.15
   6  -5   1  149.67    8.66
  -6  -5   1  146.56    8.64
  -6   5   1  147.88    9.18
   6   5   1  161.04    9.52
  -6   5  -1  144.77    9.33
   6   5  -1  140.53    9.35
   6   5   1  162.13   10.14
  -6  -5  -1  152.43   10.59
   6  -5   1  154.46    8.23
  -6   5  -1  152.82    8.53
  -6   5   1  162.57    9.00
   6   5  -1  146.52    5.99
   7  -5  -1  975.09   34.88
  -7  -5  -1  990.53   34.94
   7  -5   1  825.00   33.77
  -7  -5   1  872.71   34.06
  -7   5   1  839.66   34.65
   7   5   1  821.27   34.70
  -7   5  -1  912.78   35.34
   7   5  -1  956.34   35.87
   7   5   1  783.10   35.70
   7   5  -1  996.58   36.98
  -7  -5  -1  873.36   37.55
  -7   5   1  861.77   32.23
   7  -5   1  848.97   33.52
  -7   5   1  863.56   34.08
  -7   5  -1  940.99   33.20
  -7   5   1  765.15   34.74
   7   5  -1  978.49   30.29
   8  -5  -1   11.36    2.80
   8  -5   1   12.83    2.77
  -8  -5   1   12.91    2.70
  -8   5  -1   12.52    2.14
  -8   5   1   15.86    3.08
   8   5   1   16.04    3.31
   8   5  -1   16.25    3.36
   8   5  -1   10.66    3.50
  -8  -5  -1   10.41    2.62
  -8  -5  -1   15.94    3.99
  -8   5   1   16.64    2.23
   8  -5  -1   11.77    2.74
   8  -5   1   12.32    2.62
  -8   5   1   16.12    3.47
  -8   5  -1   11.16    2.88
   9  -5  -1  190.17    9.56
   9  -5   1  127.09    8.21
  -9  -5   1  133.65    8.33
  -9   5   1  124.69    8.68
   9   5  -1  194.31   10.54
  -9   5  -1  192.52   10.28
   9   5  -1  218.34   11.92
  -9  -5  -1  204.17    9.71
   9   5   1  114.45    8.52
  -9  -5  -1  203.75   12.95
  -9   5   1  131.37    7.22
   9  -5  -1  209.22   10.34
  -9   5   1  132.37    6.88
   9  -5   1  119.68    8.34
  -9   5   1  111.60    9.10
  -9   5  -1  192.56    7.52
 -10   5  -1  156.62    6.28
 -10  -5   1  142.58    8.36
  10  -5   1  142.64    8.35
 -10   5   1  136.01    5.70
 -10   5   1  145.19    8.96
  10   5   1  136.38    8.97
  10   5  -1  157.41   10.78
  10   5  -1  145.60    9.41
 -10   5  -1  145.21    9.14
 -10  -5  -1  128.62   11.00
  10   5  -1  172.39   10.70
 -10   5   1  144.31    7.43
 -10   5  -1  154.09    6.18
  10   5   1  149.14   10.71
  10  -5  -1  160.91    9.59
  10  -5   1  151.39    9.22
 -10   5   1  144.46    5.85
 -10   5   1  122.74    9.50
 -11  -5   1 1165.58   40.56
 -11   5   1 1149.40   41.25
  11   5   1 1133.70   41.62
  11   5  -1 1066.09   43.55
  11   5  -1 1017.55   41.40
 -11   5  -1 1001.55   40.88
 -11  -5  -1  938.13   44.51
  11   5  -1 1178.46   43.20
  11   5   1 1311.23   43.74
 -11   5   1 1193.26   39.33
  11  -5   1 1128.95   40.46
 -11   5  -1 1040.26   37.36
  11  -5  -1 1009.03   41.48
  11  -5   1 1222.09   42.37
  11   5   1 1157.12   44.41
 -11   5   1 1071.50   43.07
 -12  -5   1   32.26    3.87
 -12   5   1   32.07    4.18
 -12   5  -1   32.53    4.22
  12  -5   1   25.12    3.43
  12   5   1   23.86    3.78
  12   5  -1   31.29    4.34
  12   5   1   24.35    5.17
  12   5   1   32.51    4.94
  12   5  -1   36.29    5.65
 -12   5   1   34.63    3.37
 -12   5  -1   34.65    2.57
 -12  -5  -1   25.99    5.72
  12  -5  -1   37.43    5.00
  12  -5   1   28.33    4.60
 -12   5   1   33.87    5.26
  13  -5   1  299.76   13.78
  13   5  -1  296.60   16.82
 -13   5   1  315.36   14.54
  13   5   1  306.85   14.78
 -13  -5   1  313.49   13.86
  13   5  -1  271.29   14.32
 -13   5  -1  273.97   14.03
 -13  -5  -1  274.77   18.04
 -13   5   1  329.80   13.44
 -13   5  -1  325.40   12.04
  13  -5  -1  293.49   15.76
  13  -5   1  331.77   16.36
 -13   5   1  265.87   16.06
  14  -5   1   34.60    3.93
 -14  -5   1   39.12    4.18
  14   5  -1   33.88    6.63
 -14   5   1   45.65    4.56
  14   5   1   41.82    4.54
 -14   5   1   37.74    3.75
 -14   5  -1   37.78    3.10
 -14  -5  -1   31.93    6.36
  14  -5   1   50.36    6.26
  14  -5  -1   32.51    5.19
 -14   5  -1   33.85    4.65
  14   5  -1   28.18    4.54
  14   5   1   36.01    3.46
 -14   5   1   35.10    5.93
  15   5   1  896.71   36.26
 -15   5   1 1021.50   36.36
 -15  -5  -1  963.69   42.85
 -15   5   1 1053.38   35.95
 -15   5  -1  975.49   37.32
  15   5  -1  930.61   36.91
  15   5  -1  953.66   42.63
  15  -5  -1 1002.57   39.73
  15  -5   1 1100.22   40.58
  15   5   1  954.43   36.85
  15   5   1  989.70   35.06
 -15   5  -1  977.86   38.84
 -15   5   1  904.93   36.58
 -16   5  -1   23.34    4.06
  16   5  -1   25.57    6.59
  16   5   1   32.02    3.83
 -16   5   1   27.61    3.48
 -16   5  -1   21.25    4.55
 -16   5   1   30.55    4.33
 -16   5   1   29.40    4.93
 -16   5  -1   21.34    4.70
 -16  -5  -1   24.47    6.54
  16   5   1   35.79    4.28
  16  -5  -1   21.37    4.96
  16  -5   1   40.21    6.28
  16   5   1   32.95    3.56
  17   5  -1   39.08    7.31
 -17   5  -1   49.79    6.10
 -17   5  -1   44.97    6.04
 -17   5   1   23.78    4.17
 -17   5   1   20.32    4.75
 -17  -5  -1   70.72    9.08
  17  -5  -1   59.81    7.33
  17  -5   1   31.30    6.15
   0   5  -3   -0.43    2.27
   0   5   3   -0.76    2.20
   0  -5   3    0.93    1.89
   0   5  -3   -0.82    2.19
   0   5   3    0.63    1.93
   0  -5  -3    0.23    1.43
   0  -5   3    0.32    1.33
  -1   5   3  262.05   14.00
   1   5   3  267.70   14.03
   1  -5   3  301.34   13.72
  -1  -5   3  298.35   13.68
   1   5   3  277.81   13.71
   1   5  -3  229.74   13.84
  -1   5  -3  232.44   13.78
  -1   5   3  278.72   13.28
   1  -5  -3  239.00   11.76
  -1  -5  -3  253.75   12.30
   1   5  -3  254.12   14.68
  -1   5  -3  224.16   13.60
   1  -5   3  279.15   11.61
  -2   5   3   33.86    4.54
  -2  -5   3   39.79    4.44
   2   5   3   32.99    4.41
  -2   5  -3   31.98    4.54
  -2   5   3   33.80    3.91
  -2   5  -3   26.52    4.23
  -2  -5  -3   40.87    5.06
   2  -5  -3   33.74    3.48
  -2  -5  -3   32.01    3.81
   2   5  -3   37.08    5.33
   2  -5   3   35.05    3.48
  -3   5   3  342.88   18.26
  -3  -5   3  366.90   17.61
   3   5   3  366.80   18.51
  -3   5  -3  458.66   19.93
  -3   5   3  338.95   16.87
  -3  -5  -3  375.24   19.66
   3  -5  -3  460.94   17.15
   3  -5   3  356.37   15.26
   3   5  -3  424.26   20.74
   3   5  -3  451.66   14.16
  -3   5  -3  451.84   19.19
   3  -5   3  366.15   16.60
   4  -5   3   15.49    3.06
   4   5  -3   11.27    3.66
  -4   5   3   19.16    3.50
   4   5   3   16.50    3.39
  -4   5  -3   19.67    3.58
  -4  -5   3   16.30    3.16
   4   5  -3   16.93    3.76
  -4   5  -3   15.50    3.47
   4   5   3   17.13    3.60
  -4   5   3   15.45    2.97
   4   5  -3   19.66    1.36
   4  -5   3   14.38    2.05
   4  -5   3   15.75    2.86
   5  -5   3  438.41   19.75
  -5  -5   3  442.12   19.76
   5   5   3  432.26   21.12
   5   5  -3  519.05   22.03
  -5   5  -3  551.28   22.27
  -5   5   3  422.62   18.78
   5   5  -3  567.01   22.29
  -5   5   3  420.08   18.51
  -5   5   3  416.37   20.48
   5   5   3  431.89   20.44
   5  -5   3  448.91   18.03
   5   5  -3  514.50   23.71
  -5   5  -3  577.89   21.25
   5  -5   3  461.95   19.48
  -6   5   3   87.09    7.11
   6   5   3   74.07    6.56
   6  -5   3   72.63    6.10
   6   5   3   98.87    8.05
   6   5  -3   77.15    7.09
  -6   5  -3   82.49    7.20
  -6   5   3   85.29    5.78
   6   5  -3   92.69    7.58
  -6   5   3   78.89    5.62
   6  -5   3   88.19    5.56
   6   5  -3   83.26    8.25
   6  -5   3   79.06    6.13
  -6  -5   3   81.18    6.32
  -6   5  -3   79.98    6.27
  -7   5   3  392.85   17.61
   7   5   3  327.88   16.68
   7  -5   3  349.88   16.20
  -7  -5   3  368.99   16.29
   7   5   3  361.74   18.22
   7   5  -3  312.83   17.01
  -7   5  -3  317.16   16.84
  -7  -5  -3  288.12   18.39
  -7   5   3  379.22   15.37
   7   5  -3  370.74   17.91
  -7   5   3  367.94   15.42
   7  -5   3  383.96   15.58
  -7   5   3  351.44   16.24
   7  -5   3  387.68   16.80
  -7   5  -3  322.97   15.51
  -8   5   3    8.72    2.80
   8   5   3   15.19    3.40
   8  -5   3   13.35    3.10
  -8  -5   3   12.95    2.95
   8   5  -3   12.86    3.46
  -8   5  -3   17.39    3.08
   8   5   3   13.38    3.96
   8   5  -3   15.53    4.09
  -8  -5  -3   13.78    4.44
  -8   5   3   13.82    2.56
  -8   5   3   11.61    2.58
   8  -5   3   13.82    2.74
  -8   5   3   14.71    3.27
  -8   5  -3   13.57    3.99
   8   5  -3    4.77    3.07
  -8   5   3   13.97    3.43
   8  -5   3   14.56    3.29
  -9   5  -3  659.18   26.07
  -9   5   3  705.93   28.25
   9   5   3  650.74   27.70
  -9   5   3  674.17   25.19
   9  -5   3  701.43   27.14
  -9  -5   3  716.51   27.21
   9   5  -3  668.51   29.11
  -9  -5  -3  624.32   31.11
  -9   5   3  741.81   26.11
  -9   5   3  728.98   26.45
  -9   5  -3  615.68   29.09
   9   5  -3  590.13   28.86
   9   5  -3  574.26   30.43
   9  -5   3  731.62   27.18
  -9   5   3  698.36   27.93
  -9   5   3  616.99   28.09
   9  -5   3  727.35   28.20
   9   5   3  712.02   30.18
  10   5  -3    1.90    3.47
 -10   5   3    4.92    2.95
  10   5   3    1.38    2.44
  10  -5   3    4.85    2.57
 -10  -5   3    3.37    2.29
 -10   5   3    5.60    1.71
  10   5   3    5.42    3.60
  10   5  -3    3.66    3.00
 -10   5  -3    3.70    1.96
  10   5   3    3.22    2.71
  10   5  -3    1.78    3.31
 -10  -5  -3    3.26    3.65
 -10   5   3    4.40    2.25
 -10   5   3    6.43    2.16
  10  -5   3    3.35    2.54
 -10   5  -3    1.79    3.06
  10  -5   3    5.38    2.99
 -10   5   3    3.75    2.61
  10   5  -3    0.91    2.83
  11  -5   3  364.67   16.68
 -11  -5   3  401.76   16.97
  11   5   3  361.68   17.46
 -11   5   3  383.50   17.76
  11   5  -3  388.64   19.45
 -11  -5  -3  362.43   21.40
 -11   5   3  412.39   15.97
 -11   5   3  368.76   16.26
 -11   5  -3  365.32   18.69
  11   5  -3  330.83   18.23
  11   5  -3  300.67   20.00
  11  -5   3  387.26   17.63
  11   5   3  378.04   18.44
 -11   5   3  390.45   19.26
 -11   5   3  349.47   18.61
 -11   5   3  405.53   14.53
  12   5  -3   38.73    5.43
  12  -5   3   44.39    4.50
 -12  -5   3   45.51    4.58
  12   5   3   42.41    4.93
  12   5  -3   29.62    6.18
 -12   5   3   44.55    3.88
  12   5   3   53.01    5.68
 -12   5   3   48.90    4.58
  12   5  -3   42.31    6.06
 -12  -5  -3   49.81    7.45
 -12   5  -3   40.66    5.43
  12   5   3   44.89    5.62
 -12   5   3   45.75    5.86
  12  -5   3   41.37    5.17
 -12   5   3   41.91    2.37
 -12   5   3   39.44    5.82
 -12   5   3   40.97    4.95
  13  -5   3  595.23   24.75
 -13  -5   3  613.87   24.87
 -13   5   3  617.06   25.73
  13   5   3  614.29   25.76
  13   5  -3  804.53   30.30
 -13  -5  -3  723.92   32.74
 -13   5   3  666.87   24.04
  13   5   3  687.81   27.08
 -13   5   3  636.98   25.39
  13   5   3  612.83   26.81
 -13   5   3  668.01   27.49
  13  -5  -3  763.67   29.13
 -13   5  -3  697.86   27.51
  13   5  -3  666.91   27.35
  13  -5   3  625.42   26.92
  13   5  -3  635.13   31.05
 -13   5   3  571.74   27.87
 -13   5   3  545.46   23.24
 -14   5  -3   32.01    4.65
  14   5  -3   26.05    4.42
  14   5  -3   32.97    6.76
  14  -5   3   28.10    3.68
 -14  -5   3   20.50    3.38
 -14   5   3   23.57    3.75
  14   5   3   18.55    3.74
 -14   5   3   19.41    2.65
  14   5   3   22.80    4.21
  14   5  -3   27.82    5.64
 -14   5   3   23.53    4.53
 -14  -5  -3   29.94    6.78
 -14   5   3   22.92    3.83
  14  -5  -3   37.70    5.68
  14  -5   3   29.42    5.01
 -14   5   3   24.87    5.55
  15  -5   3  368.66   15.13
 -15   5   3  401.39   16.18
  15   5   3  378.40   16.04
 -15  -5  -3  304.12   20.57
 -15   5  -3  267.22   15.36
  15   5   3  392.63   17.02
 -15   5   3  391.94   16.35
  15  -5  -3  327.79   18.10
  15  -5   3  400.69   18.64
  15   5  -3  285.48   19.57
 -15   5  -3  285.35   15.70
  15   5  -3  276.45   15.61
 -15   5   3  357.19   18.92
 -15   5  -3  314.53   18.39
  16  -5   3   36.60    3.89
  16   5   3   43.36    4.66
  16   5  -3   34.53    7.21
 -16   5  -3   41.53    5.18
 -16   5  -3   45.34    6.89
  16   5  -3   30.76    4.38
 -16   5   3   38.53    5.63
 -16  -5  -3   45.01    8.12
  16   5   3   36.15    4.73
  16  -5   3   53.87    6.60
  16  -5  -3   46.19    6.64
 -16   5  -3   41.23    4.99
 -16   5   3   48.31    6.91
  17   5   3  597.58   23.13
 -17  -5  -3  595.35   30.83
 -17   5   3  557.80   25.95
 -17   5  -3  591.05   25.03
  17  -5   3  678.15   27.79
  17   5  -3  519.74   28.54
 -17   5   3  589.40   27.61
  17   5  -3  525.93   23.35
 -17   5  -3  579.29   27.81
   0   5   5    0.45    2.35
   0  -5   5    1.12    2.61
   0   5  -5    1.52    2.88
   0   5   5    2.44    2.46
   0  -5  -5    0.42    2.48
   0   5   5    3.11    3.16
   0  -5   5    0.20    1.55
   0   5  -5    0.59    2.53
  -1   5   5  421.60   20.90
   1   5   5  423.79   19.94
  -1   5   5  446.43   19.62
   1   5   5  394.58   20.53
  -1  -5   5  467.86   20.49
   1  -5   5  437.27   20.28
  -1  -5  -5  462.59   21.50
   1  -5  -5  435.67   19.96
   1  -5  -5  459.51   19.17
  -1   5  -5  462.63   23.31
   1   5  -5  466.71   23.35
   1   5   5  449.18   22.14
  -1   5   5  468.66   22.57
   1   5  -5  456.33   22.50
  -1   5  -5  450.35   21.86
  -1  -5   5  407.33   17.23
   1  -5   5  444.36   18.08
  -2   5  -5   18.14    4.61
  -2   5   5   13.94    3.53
   2   5  -5   12.10    4.00
  -2  -5   5   16.25    3.55
  -2   5  -5   10.14    3.51
   2   5   5   17.15    3.90
  -2   5   5   21.23    3.53
  -2  -5  -5   14.73    3.95
   2  -5   5   15.49    1.62
  -2   5   5   19.00    4.17
  -2  -5   5   18.48    2.40
   2  -5   5   14.52    2.81
  -3   5   5   82.86    7.83
  -3   5   5   99.61    6.93
   3  -5   5   89.85    7.50
  -3  -5   5  126.14    8.37
  -3  -5  -5  110.04    9.30
   3  -5   5   87.99    4.01
  -3   5   5  104.59    7.31
  -3   5  -5  123.57   10.25
   3  -5   5   92.65    4.84
  -3   5   5  117.61    9.70
   3   5   5  104.83    8.33
   3   5  -5  119.88    9.92
  -3  -5   5   91.68    5.09
   3  -5   5  107.81    7.02
  -3   5  -5  106.80    8.50
  -4   5  -5    5.78    3.68
   4   5  -5    2.32    3.13
  -4   5   5    9.50    3.41
   4   5   5    8.27    3.22
   4   5  -5    3.49    3.91
   4  -5   5    5.59    2.90
  -4  -5   5    5.06    2.84
  -4   5  -5    5.47    3.11
   4   5   5    7.59    3.36
   4   5   5    6.70    3.28
  -4   5   5    5.37    3.22
  -4   5   5    5.12    2.45
  -4  -5  -5    5.00    3.44
  -4  -5  -5    3.55    2.60
  -4   5   5    2.28    2.18
  -4   5   5    4.11    2.43
   4  -5   5    5.39    1.64
  -4  -5   5    3.11    1.16
   4  -5   5    2.86    2.58
  -5   5   5  332.48   17.95
   5   5   5  341.56   17.81
   5   5   5  392.01   18.65
  -5   5   5  349.00   15.54
   5  -5   5  368.29   17.41
  -5  -5   5  358.40   17.11
  -5  -5  -5  367.45   20.03
   5   5  -5  412.66   18.11
  -5  -5  -5  374.93   17.58
  -5   5   5  348.89   16.10
   5   5   5  367.16   19.21
  -5   5   5  368.59   19.68
  -5   5   5  365.23   16.62
  -5   5  -5  343.98   19.49
   5   5  -5  333.51   19.31
   5  -5   5  405.83   14.70
   5   5  -5  328.99   19.40
  -5  -5   5  326.11   12.64
   5  -5   5  374.12   16.60
  -5   5  -5  354.90   17.76
  -6   5   5   40.22    5.98
   6   5  -5   28.90    5.29
  -6   5   5   29.66    3.43
  -6   5   5   23.75    4.54
   6   5   5   30.34    4.65
   6   5  -5   28.75    5.63
   6  -5   5   35.41    4.74
  -6  -5   5   22.44    4.01
  -6   5  -5   32.38    4.88
   6   5  -5   37.85    4.96
   6   5   5   27.27    4.85
  -6  -5  -5   15.55    4.78
  -6   5   5   28.21    3.95
  -6  -5  -5   28.87    4.52
   6   5  -5   37.88    5.38
  -6   5  -5   33.11    5.74
   6  -5   5   23.58    2.97
  -6   5   5   28.83    4.20
   6   5   5   36.20    5.16
   6  -5   5   28.85    4.17
  -7   5   5  107.55    8.76
   7   5   5   89.69    7.96
   7   5   5  104.33    8.91
  -7   5   5   96.79    7.14
  -7   5   5  100.97    6.25
   7  -5   5  103.69    7.85
  -7  -5   5  113.81    8.12
   7   5  -5  148.60   10.05
   7   5  -5  124.96    8.84
  -7   5   5   92.27    6.99
   7   5   5  113.23    9.54
  -7  -5  -5  104.98    8.44
  -7   5   5  115.39    9.77
  -7   5   5  120.39    8.37
  -7   5  -5   87.45    8.91
   7   5  -5  105.36    9.56
   7  -5   5  109.44    6.66
   7  -5   5  100.27    7.80
  -7   5  -5  114.73    8.41
  -8   5  -5   46.04    5.51
   8   5   5   50.93    5.87
  -8   5   5   46.18    4.71
   8  -5   5   42.69    5.15
  -8  -5   5   50.37    5.55
  -8   5   5   40.91    5.51
  -8   5   5   52.63    4.00
   8   5  -5   56.46    6.60
   8   5  -5   47.51    5.76
  -8   5   5   45.42    4.84
   8   5   5   56.13    6.60
  -8   5   5   42.63    6.37
  -8   5  -5   47.37    6.42
   8   5  -5   39.96    6.05
   8  -5   5   55.41    4.95
   8  -5   5   52.55    5.71
  -9   5   5  878.76   38.06
   9   5   5  932.68   37.92
  -9   5  -5 1015.12   37.69
  -9   5   5  987.18   34.00
   9  -5   5  941.15   37.17
  -9  -5   5 1001.68   37.21
   9   5   5  981.62   39.64
  -9   5   5 1034.14   40.48
  -9   5   5  941.73   36.45
   9   5  -5 1182.88   40.57
   9  -5   5  985.70   36.35
  -9   5  -5  911.18   39.41
   9   5  -5  856.51   39.15
   9   5  -5  840.62   40.70
  -9   5   5  937.02   35.71
  10   5   5   11.11    4.40
 -10   5  -5   10.70    3.94
 -10   5   5   16.18    4.22
  10   5   5   11.43    3.50
  10   5  -5   15.14    4.41
  10   5  -5   12.18    5.17
  10  -5   5   11.19    3.33
 -10  -5   5   17.91    3.80
 -10   5   5   17.20    4.80
 -10   5   5   14.63    2.93
 -10   5   5   12.89    1.80
 -10  -5  -5    6.47    4.53
  10   5  -5   12.76    4.37
 -10   5   5   11.68    3.12
  10  -5   5   18.20    3.71
 -11   5   5   49.11    5.76
  11   5   5   39.72    5.22
 -11   5   5   46.70    6.17
  11  -5   5   42.53    5.01
 -11  -5   5   46.09    4.97
  11   5  -5   27.06    6.49
 -11   5  -5   35.74    5.92
  11   5  -5   33.47    5.63
  11   5   5   49.98    6.59
  11   5  -5   37.34    5.81
 -11  -5  -5   49.58    7.39
  11   5  -5   44.51    2.85
  11  -5   5   44.85    5.21
 -11   5   5   41.73    5.84
 -11   5   5   43.80    4.29
 -12   5   5   17.73    4.02
  12   5   5   19.26    4.01
  12   5  -5    1.42    3.91
  12  -5   5   12.04    3.11
 -12  -5   5   16.55    3.35
 -12   5  -5   15.54    4.57
  12   5  -5   18.98    4.76
  12   5   5   14.84    3.58
  12   5  -5   16.45    4.98
 -12  -5  -5   13.77    5.35
  12   5  -5   10.74    1.89
  12   5   5   10.13    3.86
  12  -5   5    7.64    3.32
 -12   5   5   15.31    4.56
 -12   5   5    9.45    3.89
 -13   5   5  706.70   27.77
  13   5   5  642.50   26.83
  13  -5   5  678.05   26.40
 -13  -5   5  727.72   26.62
  13   5  -5  682.17   29.34
 -13  -5  -5  599.42   32.10
  13   5   5  664.04   28.33
 -13   5   5  587.93   27.22
 -13   5   5  721.94   28.66
  13   5   5  762.83   26.91
  13   5  -5  598.69   23.50
  13  -5   5  723.39   28.24
  13   5  -5  557.78   30.68
 -13   5   5  639.46   28.82
 -13   5  -5  547.51   27.60
  13   5  -5  532.42   27.56
 -14   5   5   27.52    4.24
  14   5   5   22.40    4.08
  14   5  -5   26.57    6.36
  14  -5   5   25.82    3.68
 -14   5  -5   22.19    5.72
  14   5   5   32.65    4.82
 -14   5   5   10.79    3.97
 -14   5  -5   30.95    3.85
 -14   5  -5   27.57    4.88
  14   5  -5   31.08    5.85
  14   5  -5   24.23    4.58
 -14  -5  -5   24.61    6.71
  14   5  -5   29.47    3.23
  14  -5   5   19.21    4.67
 -14   5   5   19.26    5.08
  15   5   5    8.65    3.65
 -15   5   5   13.54    3.56
  15   5   5    9.82    3.34
  15  -5   5   13.46    3.35
  15   5  -5    6.75    5.94
 -15   5  -5    5.40    4.83
 -15   5   5    2.74    3.17
 -15   5  -5   13.87    3.24
 -15  -5  -5   13.50    5.82
 -15   5  -5    7.35    3.71
  15   5  -5    4.95    3.58
  15   5  -5   19.37    3.04
  15  -5   5   20.01    5.00
 -15   5   5   10.37    4.71
   0   5   7   -0.52    3.09
   0   5  -7    2.84    3.97
   0   5  -7   -1.83    3.42
   0   5   7    0.37    2.70
   0   5  -7    1.23    2.72
   0  -5  -7    0.96    3.32
   1   5   7  103.86    9.65
  -1   5   7  110.73    8.48
   1   5   7  114.48    8.80
  -1   5   7  117.39   10.02
  -1  -5  -7  165.22   11.31
   1  -5  -7  147.92   10.18
   1   5  -7  196.57    9.91
  -1  -5  -7  167.32   10.10
  -1   5  -7  184.42   13.72
   1   5  -7  178.86   13.58
   1  -5   7  100.62    7.47
   1   5  -7  146.37   12.03
  -1   5  -7  150.83   11.88
  -2   5   7   89.81    8.73
  -2   5   7  115.11    7.71
   2   5   7  101.64    8.33
  -2  -5  -7  127.81   10.35
   2  -5  -7   99.74    7.87
   2   5  -7  107.81    7.61
  -2  -5  -7  118.25    8.51
   2  -5   7   88.27    5.01
   2  -5   7   91.98    4.19
   2  -5   7  109.56    9.49
  -2   5  -7  107.33   10.58
   2  -5   7  113.06    7.43
  -2  -5   7  105.01    6.31
   2   5  -7   84.60    9.38
  -2   5  -7   98.91    9.73
  -3   5   7  283.23   16.61
  -3   5   7  286.43   13.95
   3   5   7  301.58   15.94
  -3  -5  -7  309.63   18.03
   3   5  -7  362.08   15.51
  -3  -5  -7  313.16   15.82
   3  -5   7  256.74   11.12
   3  -5   7  284.68   16.54
   3  -5   7  293.86   11.20
  -3   5  -7  309.24   18.99
   3   5  -7  300.33   18.41
   3  -5   7  288.70   14.14
  -3  -5   7  290.00   12.43
  -3   5  -7  295.72   17.24
   4  -5   7   16.13    4.95
  -4   5   7   12.31    4.25
   4   5   7   10.86    3.91
   4   5  -7   29.21    6.04
  -4   5  -7   11.06    4.78
   4   5  -7   12.50    4.74
  -4   5   7   10.73    2.88
   4   5   7   15.11    4.34
  -4   5  -7   15.82    5.03
   4   5  -7   12.12    3.71
  -4   5   7    4.85    3.78
  -4  -5  -7   10.12    4.48
  -4  -5  -7   15.80    3.97
   4  -5   7   11.65    1.94
  -4  -5   7    7.22    2.03
   4  -5   7   12.75    3.47
  -5   5   7  539.96   26.00
   5   5   7  521.50   25.45
  -5   5  -7  564.28   26.16
  -5  -5  -7  545.77   27.33
   5   5  -7  579.07   24.03
  -5  -5  -7  575.74   24.87
   5  -5   7  546.76   25.42
   5  -5   7  572.77   20.83
  -5   5   7  546.84   24.50
  -5   5  -7  498.99   27.28
   5   5  -7  532.81   27.63
   5   5  -7  495.27   27.25
  -5  -5   7  522.76   19.96
   5  -5   7  559.91   23.53
  -5   5   7  537.80   21.64
  -6   5   7   71.20    7.87
   6   5   7   70.67    7.79
  -6   5  -7   65.66    7.60
  -6   5   7   73.30    7.05
  -6  -5  -7   74.36    8.85
   6   5  -7   75.86    6.89
  -6  -5  -7   57.72    6.66
   6  -5   7   79.68    7.94
   6  -5   7   60.44    4.79
  -6   5  -7   72.10    8.50
   6   5  -7   59.80    7.96
  -6  -5   7   72.55    3.90
   6   5  -7   68.20    8.69
  -6   5   7   69.25    4.90
  -7   5   7   95.53    7.78
  -7   5   7  107.43    9.58
   7   5   7   84.22    8.44
  -7   5  -7   94.21    8.79
  -7  -5  -7   90.96   10.01
  -7  -5  -7  101.10    8.54
   7  -5   7   97.03    8.58
   7  -5   7   97.37    6.27
  -7  -5   7   95.31    4.24
  -7   5  -7   78.90    9.33
   7   5  -7   86.09    9.61
  -7   5   7  101.16    5.31
   8  -5   7    4.58    3.31
  -8   5   7    4.27    3.55
   8   5   7   11.30    4.13
  -8   5   7    1.80    2.97
  -8   5  -7    9.07    4.79
   8   5  -7    8.57    4.50
  -8   5  -7    7.05    3.84
  -8  -5  -7    8.08    4.94
  -8  -5  -7   12.52    4.31
   8   5  -7   11.86    4.42
   8  -5   7   11.16    2.91
  -9   5   7  207.77   13.84
   9   5   7  216.17   13.62
  -9  -5  -7  188.09   15.50
   9   5  -7  264.14   14.99
  -9  -5  -7  279.05   15.11
   9  -5   7  212.76   13.28
  -9   5  -7  227.72   15.54
   9   5  -7  187.63   15.40
   9   5  -7  215.60   15.16
  -9   5   7  210.53   12.09
 -10   5   7   44.82    6.34
  10   5   7   45.50    6.27
  10  -5   7   42.34    6.06
  10   5  -7   65.94    7.61
  10   5  -7   42.06    7.79
 -10   5  -7   47.24    7.09
  10   5  -7   45.96    7.04
 -10  -5  -7   38.64    7.74
 -10  -5  -7   55.28    7.02
 -11   5   7  238.09   14.63
  11   5   7  249.67   14.65
  11   5  -7  301.90   16.14
 -11   5   7  197.56   13.19
 -11  -5  -7  289.33   16.10
  11  -5   7  258.58   14.52
  11   5  -7  229.36   17.16
 -11   5  -7  220.72   15.36
  11   5  -7  236.28   15.82
  12  -5   7   20.62    4.57
 -12   5   7   25.81    4.87
  12   5   7   16.79    4.73
  12   5  -7   18.34    6.28
 -12   5   7   18.10    4.62
  12   5  -7   25.04    5.45
 -12  -5  -7   17.93    5.40
 -12   5  -7   19.90    5.84
  12   5  -7   12.61    4.89
  12  -5   7   18.22    4.13
 -12   5   7   22.15    5.21
   0   5   9    4.26    4.14
   0   5   9   -3.18    3.80
   0   5  -9    3.72    4.86
   0   5  -9    0.54    2.66
   0  -5  -9   -2.17    3.55
   0  -5   9    1.34    1.87
   0   5  -9   -0.85    4.76
  -1   5   9  321.47   18.29
  -1   5  -9  324.02   19.59
   1   5   9  284.90   17.48
  -1  -5  -9  309.51   17.79
   1  -5  -9  311.90   16.73
   1   5  -9  357.25   14.79
  -1   5  -9  368.29   14.16
  -1  -5   9  217.76   11.94
   1  -5   9  244.31   11.95
  -1   5  -9  310.81   20.48
   1   5  -9  262.85   19.33
   1   5   9  318.67   16.03
   1   5  -9  319.62   19.89
  -2   5   9   74.24    8.60
  -2   5  -9   96.01   10.50
  -2  -5  -9   86.11    9.47
   2  -5  -9   79.64    7.63
   2   5  -9   96.57    7.14
  -2   5  -9  100.68    6.17
  -2  -5   9   64.14    5.06
   2  -5   9   73.92    5.00
  -2   5  -9   95.48   11.07
   2   5  -9   80.16   10.01
  -3   5   9   99.10   10.15
  -3   5  -9  118.08   11.62
  -3  -5  -9  135.97   11.97
   3  -5  -9  115.45    8.72
   3   5  -9  143.09    8.96
  -3   5  -9  143.67    7.39
  -3   5  -9  122.42   12.68
   3   5  -9  116.96   12.40
   3   5  -9  114.33   11.88
  -4   5   9   -0.62    4.47
   4   5   9    2.38    4.04
   4   5  -9    1.62    4.78
   4   5  -9    3.50    3.13
  -4   5  -9    6.21    2.26
  -4   5  -9    2.06    4.44
  -4  -5  -9    4.18    4.80
  -4  -5  -9   -0.98    3.54
  -4   5  -9    2.52    5.20
   4   5  -9   -0.85    4.73
  -5   5  -9   76.91    9.04
  -5   5   9   40.55    6.99
   5   5   9   39.17    6.87
  -5   5  -9   88.05    4.69
   5   5  -9   69.73    9.70
  -5  -5  -9   71.90    7.77
  -5  -5  -9   64.36    9.17
  -5   5  -9   59.64    9.12
   5   5  -9   59.34    9.47
  -6   5   9   80.95    9.30
   6   5   9   72.03    8.38
  -6  -5  -9   76.60   10.19
  -6  -5  -9   85.15    8.68
  -6   5  -9   79.26   10.47
   6   5  -9   77.73   10.28
  -7   5   9  398.94   21.67
   7   5   9  377.21   20.81
  -7  -5  -9  363.21   22.56
  -7   5   9  348.88   18.12
  -7  -5  -9  440.67   21.07
  -7   5  -9  371.45   23.43
   7   5  -9  350.72   22.95
  -8   5   9   23.08    6.23
   8   5   9   15.81    5.28
   8   5  -9   20.32    6.69
  -8   5   9   14.67    4.16
  -8  -5  -9   29.27    7.66
  -8  -5  -9   28.88    6.16
  -8   5  -9   22.84    7.05
   8   5  -9   23.32    7.37
   0  -6   0 2593.24   88.79
   0   6   0 2468.30   89.86
   0   6   0 2578.99   89.45
   1  -6   0    8.63    2.63
  -1  -6   0    6.38    2.51
  -1   6   0    7.23    2.74
   1   6   0    5.27    2.66
   1   6   0    3.66    2.77
  -1   6   0   10.19    3.06
   1  -6   0    4.10    1.59
  -1   6   0    4.56    1.90
  -1   6   0    5.04    2.22
  -2  -6   0  244.20   13.10
  -2   6   0  243.96   13.93
   2   6   0  261.05   13.94
   2  -6   0  265.98   11.01
  -2   6   0  292.47   12.36
  -2   6   0  252.16   12.82
  -3  -6   0   34.65    4.34
  -3   6   0   32.84    4.61
   3  -6   0   32.35    2.75
   3   6   0   30.68    4.67
  -3   6   0   29.65    3.48
   3   6   0   37.55    3.40
  -3   6   0   36.21    4.33
   4  -6   0 3226.76  108.07
  -4  -6   0 3254.11  108.12
  -4   6   0 3154.65  109.35
   4   6   0 2951.29  109.02
   4   6   0 3298.97  109.70
  -4   6   0 3057.84  106.39
  -4   6   0 3085.04  108.00
   5  -6   0    8.36    2.94
  -5  -6   0    5.06    2.56
  -5   6   0    6.78    2.76
   5   6   0    6.24    2.77
   5   6   0    6.23    3.07
  -5   6   0    3.69    2.05
  -5   6   0    9.25    2.87
   6  -6   0  150.95    9.29
  -6  -6   0  151.05    9.27
  -6   6   0  144.61    9.87
   6   6   0  142.16    9.99
   6   6   0  149.75   10.37
  -6   6   0  138.55    9.48
   7  -6   0   68.41    5.98
  -7  -6   0   64.42    5.88
  -7   6   0   72.03    6.61
   7   6   0   58.87    6.33
  -7   6   0   65.41    5.48
   8  -6   0 2163.79   75.00
  -8  -6   0 2121.95   74.78
  -8   6   0 2102.87   75.98
   8   6   0 2111.52   76.49
   8  -6   0 2152.74   74.69
  -8   6   0 2101.94   73.37
   9  -6   0   94.39    7.07
  -9  -6   0   97.24    7.21
  -9   6   0   98.95    7.82
   9   6   0   97.72    8.11
   9   6   0   86.24    8.23
   9  -6   0   79.27    6.66
  -9   6   0   96.35    5.76
  10  -6   0  112.61    7.80
 -10  -6   0  124.40    8.17
 -10   6   0  112.59    8.52
  10   6   0   96.54    8.35
  10   6   0  111.17    9.54
  10  -6   0  114.05    8.14
 -10   6   0  112.65    5.81
 -11  -6   0   42.37    4.81
  11   6   0   44.16    5.51
  11  -6   0   34.61    4.66
 -11   6   0   33.21    4.81
  11  -6   0   38.42    5.02
 -11   6   0   43.86    5.88
 -11   6   0   37.35    2.01
  12  -6   0 1809.81   65.31
 -12  -6   0 1977.16   65.67
 -12   6   0 1823.28   66.33
  12   6   0 1840.07   66.99
 -12   6   0 1989.27   62.73
  12  -6   0 1943.47   67.20
  12   6   0 1781.60   60.98
 -12   6   0 1686.37   68.07
 -13  -6   0    8.49    3.09
  13   6   0    4.70    3.22
 -13   6   0    6.52    3.10
  13  -6   0    2.92    3.08
  14   6   0   20.20    4.25
 -14   6   0   26.45    4.26
  15   6   0   10.65    3.54
 -15   6   0    7.90    3.49
  15  -6   0   14.04    4.43
  16   6   0 1121.03   43.05
 -16   6   0 1110.68   44.23
   0  -6  -2 3387.08  109.55
   0   6   2 2830.96  109.80
   0  -6   2 3082.81  108.87
   0   6  -2 3219.27  110.99
   0   6   2 2924.12  108.91
   0  -6  -2 3236.39  107.39
   0   6  -2 3157.19  111.66
   0   6  -2 3309.17  105.85
   1  -6  -2   72.09    6.12
  -1  -6  -2   63.36    5.85
  -1   6   2   53.10    5.96
   1   6   2   53.03    5.88
   1  -6   2   65.87    5.92
  -1  -6   2   54.34    5.58
  -1   6  -2   55.12    6.15
   1   6  -2   61.96    6.57
   1   6   2   59.68    5.98
  -1   6   2   62.18    5.88
   1  -6  -2   63.02    4.85
  -1  -6  -2   65.84    5.19
  -1   6   2   52.51    4.85
   1   6  -2   52.83    6.61
  -1   6  -2   65.88    6.95
   1   6  -2   62.39    4.01
  -1   6  -2   64.62    4.31
  -2  -6  -2 1957.14   66.42
  -2   6   2 1845.28   67.44
  -2  -6   2 1917.33   66.26
  -2   6  -2 1776.65   67.31
   2   6   2 1823.15   66.73
  -2   6   2 1841.31   65.97
   2  -6  -2 1803.45   63.77
   2   6  -2 1790.27   68.96
  -2   6   2 1758.12   64.52
   2   6  -2 1903.65   62.48
  -2   6  -2 1818.97   67.60
   3   6  -2   17.55    4.33
  -3   6  -2   13.59    3.64
  -3  -6  -2   20.72    3.70
  -3  -6   2   23.58    4.03
  -3   6   2   23.08    4.25
  -3   6  -2   16.19    3.89
   3  -6   2   17.16    1.53
   3   6   2   18.36    3.83
   3  -6  -2   12.74    2.40
  -3   6   2   15.98    3.33
   3   6  -2   15.12    2.02
  -3   6   2   19.58    3.05
  -4  -6  -2 2312.53   76.94
   4  -6   2 2208.33   76.53
  -4  -6   2 2167.33   76.45
  -4   6   2 2051.38   77.58
   4   6   2 1972.86   77.21
   4   6  -2 2080.22   78.15
  -4   6  -2 2218.77   78.27
   4   6   2 2140.17   77.66
  -4   6   2 2174.53   76.16
   4   6  -2 2134.55   80.23
  -4   6   2 2103.38   75.28
  -4   6  -2 2169.49   77.53
   4  -6  -2 2405.46   77.27
   5  -6   2   70.20    6.14
  -5  -6   2   66.76    6.17
  -5   6   2   68.77    6.71
   5   6   2   59.24    6.41
   5   6   2   48.86    6.07
   5   6  -2   68.98    7.07
  -5   6  -2   77.68    7.16
  -5   6   2   70.49    6.00
   5   6  -2   66.44    7.94
  -5   6   2   58.97    5.51
  -5   6  -2   72.48    6.38
  -5  -6  -2   84.21    6.66
   6  -6   2 1435.42   51.82
  -6  -6   2 1424.95   51.83
  -6   6   2 1408.91   53.19
   6   6   2 1331.42   52.76
   6   6   2 1348.91   53.49
   6   6  -2 1459.81   54.22
  -6   6  -2 1412.94   53.49
   6   6  -2 1536.53   54.42
  -6   6   2 1493.33   51.70
  -6  -6  -2 1265.20   54.46
   6  -6   2 1407.92   50.10
   6   6  -2 1338.89   55.85
  -6   6   2 1412.42   51.28
  -6   6  -2 1457.33   51.62
   7  -6   2   58.72    5.64
  -7  -6   2   64.21    5.75
  -7   6   2   69.32    6.76
   7   6   2   63.37    6.41
   7   6   2   56.67    6.66
   7   6  -2   61.77    6.84
  -7   6  -2   70.50    6.88
   7   6  -2   68.66    7.14
  -7   6   2   69.55    5.72
  -7  -6  -2   55.66    7.18
   7   6  -2   57.53    7.75
   7  -6   2   61.97    5.17
  -7   6   2   63.37    5.80
  -7   6  -2   61.15    5.55
   8  -6   2 2239.03   81.36
  -8  -6   2 2191.11   81.18
  -8   6   2 2320.96   82.90
   8   6   2 2154.07   82.51
   8   6   2 2197.97   84.04
   8   6  -2 2410.32   84.35
  -8   6  -2 2434.05   83.76
   8   6  -2 2704.68   85.52
  -8  -6  -2 2237.00   86.20
  -8   6   2 2428.25   81.29
   8  -6   2 2267.88   80.57
  -8   6   2 2272.84   81.72
  -8   6  -2 2552.24   81.08
   9  -6   2   62.47    5.76
  -9  -6   2   62.61    5.77
  -9   6   2   52.47    5.96
   9   6   2   57.34    6.16
   9   6  -2   58.18    6.58
  -9   6  -2   72.71    7.11
   9   6  -2   67.62    7.45
  -9  -6  -2   51.31    7.45
  -9   6   2   58.89    4.73
   9  -6   2   59.91    5.46
  -9   6   2   55.07    6.37
  -9   6  -2   72.09    5.21
  10  -6   2 1301.33   50.61
 -10  -6   2 1387.51   50.86
 -10   6   2 1397.41   52.23
  10   6   2 1306.16   51.97
  10   6  -2 1410.15   53.38
 -10   6  -2 1388.87   52.61
  10   6  -2 1584.32   55.24
 -10  -6  -2 1342.76   56.40
 -10   6   2 1449.05   49.64
  10   6  -2 1310.99   56.50
  10  -6   2 1347.24   50.92
 -10   6   2 1320.47   53.25
 -10   6  -2 1550.31   49.41
  11  -6   2   34.34    4.55
 -11  -6   2   35.67    4.37
 -11   6  -2   25.06    2.82
  11   6  -2   20.59    5.75
 -11   6   2   39.27    5.19
  11   6   2   32.84    4.88
  11   6  -2   24.30    4.65
 -11   6  -2   23.68    4.66
 -11   6   2   48.14    4.19
 -11  -6  -2   22.75    6.31
 -11   6   2   36.39    2.89
  11  -6   2   32.75    4.58
 -11   6   2   31.66    5.25
 -11   6   2   39.59    2.65
  12  -6   2 1288.52   47.75
 -12  -6   2 1374.78   48.10
 -12   6   2 1345.68   49.24
  12   6   2 1261.24   49.11
  12   6  -2 1261.04   49.68
 -12   6  -2 1308.28   49.31
 -12  -6  -2 1270.60   54.23
 -12   6   2 1352.59   46.76
  12   6  -2 1243.48   54.45
  12  -6   2 1366.55   49.28
 -12   6   2 1247.07   51.02
  13  -6   2   42.98    4.85
 -13  -6   2   49.39    4.99
 -13   6   2   49.78    5.60
  13   6   2   43.20    5.50
  13   6  -2   38.23    7.44
 -13  -6  -2   66.99    9.09
 -13   6  -2   65.03    6.99
 -13   6   2   48.23    4.56
  13  -6   2   53.36    6.10
  13   6  -2   44.93    6.12
 -13   6   2   50.06    6.72
  14  -6   2  664.22   27.00
 -14   6   2  702.89   28.28
  14   6   2  647.69   28.13
 -14  -6  -2  691.76   34.04
 -14   6  -2  711.79   29.85
  14   6  -2  682.24   29.62
  14  -6  -2  752.51   30.67
  14   6  -2  680.46   34.12
  14  -6   2  718.59   29.56
  14   6   2  683.34   28.89
 -14   6   2  645.76   30.65
  15   6  -2   29.88    7.21
  15  -6   2   22.69    3.75
 -15   6   2   29.78    4.55
  15   6   2   19.38    4.15
 -15   6   2   26.75    3.78
 -15  -6  -2   39.66    7.77
  15   6   2   21.47    4.39
  15  -6  -2   30.85    5.79
  15  -6   2   23.08    5.11
 -15   6   2   20.58    5.56
 -15   6  -2   31.96    5.09
  15   6  -2   29.91    5.18
  16   6   2 1014.98   40.39
 -16  -6  -2 1184.15   48.93
  16  -6  -2 1188.26   44.79
  16  -6   2 1103.98   43.33
  16   6  -2 1047.45   41.38
  16   6  -2 1099.42   48.06
 -16   6   2  939.75   43.71
 -16   6  -2 1175.81   44.82
   0   6   4  841.34   33.18
   0  -6   4  864.65   31.81
   0   6   4  790.53   31.42
   0   6  -4  746.02   32.95
   0  -6  -4  703.61   29.52
   0   6  -4  619.28   31.82
   0  -6   4  790.85   28.25
   1   6  -4    4.25    3.70
  -1   6  -4    5.49    3.44
  -1   6   4    2.83    2.83
   1   6   4    0.93    2.80
   1  -6   4    5.96    2.95
  -1  -6   4    3.71    2.65
   1   6  -4    4.12    2.83
  -1   6  -4    2.55    2.96
   1   6   4    3.13    2.88
  -1   6   4    4.31    2.71
   1  -6  -4    5.42    2.34
  -1  -6  -4    4.05    2.55
   1  -6   4    3.13    2.06
  -2   6   4 2420.67   88.26
  -2  -6   4 2677.47   87.17
   2   6   4 2550.23   87.66
  -2   6   4 2566.44   86.34
  -2   6  -4 2239.55   88.20
   2  -6  -4 2495.08   85.15
  -2   6  -4 2337.04   90.24
  -2  -6  -4 2406.98   85.52
   2   6  -4 2246.65   89.14
  -2   6  -4 2224.75   87.90
   2  -6   4 2632.78   84.46
  -3   6   4   33.30    4.41
   3   6  -4   25.28    5.38
  -3   6   4   24.09    4.70
  -3   6  -4   26.22    4.74
   3  -6   4   36.32    4.91
  -3  -6   4   34.43    4.84
  -3   6  -4   34.46    5.56
   3   6   4   30.67    4.98
  -3  -6  -4   20.99    3.77
  -3  -6  -4   28.11    4.90
   3  -6   4   35.83    3.93
  -3   6  -4   22.30    5.08
  -4   6   4 1148.43   47.27
   4   6   4 1224.46   47.33
   4  -6   4 1214.77   45.97
  -4  -6   4 1300.61   46.35
   4   6   4 1229.88   47.38
  -4   6   4 1244.61   45.19
   4   6  -4 1157.14   47.98
  -4  -6  -4 1235.47   49.32
  -4   6  -4 1209.16   49.63
   4   6  -4 1174.83   49.62
  -4  -6  -4 1185.00   45.63
   4  -6   4 1246.95   42.66
   4   6  -4 1132.15   49.15
   4  -6   4 1233.59   44.59
  -4   6  -4 1241.10   47.31
  -5   6   4  112.34    9.32
   5   6   4  114.79    9.14
   5   6   4  143.43   10.21
   5  -6   4  126.55    8.87
  -5  -6   4  117.63    8.52
  -5   6   4  128.97    8.14
  -5  -6  -4  132.62   11.12
   5   6  -4  149.79   10.49
  -5   6  -4  114.29   10.51
   5   6  -4  106.77   10.21
   5  -6   4  115.08    6.58
   5   6  -4  108.00   10.47
   5  -6   4  132.03    8.27
  -5   6  -4  124.14    9.24
  -6   6   4 2523.71   90.00
   6   6   4 2465.23   89.51
   6   6   4 2633.56   90.58
   6  -6   4 2597.35   88.45
  -6  -6   4 2642.56   88.51
  -6   6   4 2581.75   87.02
   6   6  -4 2833.27   91.55
  -6   6  -4 2278.25   91.53
   6   6  -4 2129.82   91.12
   6  -6   4 2557.09   85.48
   6   6  -4 2154.23   91.83
   6  -6   4 2656.84   87.90
  -6   6  -4 2379.13   88.47
  -7   6   4   45.38    5.96
   7  -6   4   44.52    5.22
  -7  -6   4   46.06    5.24
   7   6  -4   33.44    6.35
  -7   6   4   40.28    4.29
   7   6   4   32.38    5.18
  -7   6  -4   33.03    4.75
  -7   6   4   41.05    4.55
   7   6  -4   36.90    5.93
   7  -6   4   34.52    3.77
   7  -6   4   43.28    5.05
  -7   6  -4   32.39    5.97
   7   6  -4   31.98    6.01
  -8   6   4  493.12   23.22
   8   6   4  475.65   22.74
   8  -6   4  541.46   22.28
  -8  -6   4  536.95   22.13
  -8   6   4  515.93   20.57
   8   6  -4  463.29   23.51
  -8   6   4  523.63   21.11
  -8   6  -4  404.02   23.47
   8   6  -4  392.10   23.50
   8  -6   4  521.31   20.58
  -8   6   4  466.84   22.82
   8   6   4  505.49   23.85
   8  -6   4  544.43   22.34
  -8   6   4  566.13   25.89
  -8   6  -4  435.20   21.17
  -9   6   4   69.42    7.33
   9   6   4   53.42    6.20
   9  -6   4   65.25    6.22
  -9  -6   4   74.08    6.51
  -9   6   4   58.14    4.97
  -9   6   4   65.35    5.22
   9   6  -4   70.62    7.90
  -9  -6  -4   83.13    9.44
  -9   6   4   64.94    5.65
   9   6  -4   63.28    7.69
   9  -6   4   64.58    5.55
   9   6  -4   62.34    3.20
   9   6   4   67.21    7.46
  -9   6   4   65.86    8.07
  -9   6   4   55.31    6.54
  -9   6  -4   42.08    6.70
  -9   6  -4   53.80    5.72
 -10   6   4 1745.97   60.27
 -10   6  -4 1799.06   61.98
 -10   6   4 1823.24   64.40
  10   6   4 1736.00   63.66
  10  -6   4 1762.87   62.40
 -10  -6   4 1761.82   62.43
 -10   6   4 1847.73   60.67
  10   6  -4 1875.92   66.19
 -10  -6  -4 1649.37   68.14
 -10   6   4 1801.25   61.79
 -10   6  -4 1548.39   65.00
  10   6  -4 1578.18   65.43
  10  -6   4 1800.02   62.04
  10   6   4 1734.81   64.79
  10   6  -4 1576.19   67.71
  10   6  -4 1637.12   57.95
 -10   6   4 2035.01   67.70
 -10   6   4 1587.55   63.87
 -11   6  -4   13.68    4.49
  11   6  -4   15.69    4.43
  11   6  -4   13.63    5.56
 -11   6   4   24.58    4.62
  11   6   4   18.85    4.17
  11  -6   4   18.67    3.88
 -11  -6   4   23.07    4.21
  11   6   4   21.20    4.93
 -11   6   4   25.79    5.97
 -11  -6  -4   13.74    5.03
 -11   6   4   21.00    3.71
  11  -6   4   20.68    4.14
  11   6  -4   17.65    2.22
 -11   6   4   13.36    4.27
  12  -6   4  698.07   28.48
 -12  -6   4  731.66   28.61
 -12   6   4  716.51   30.09
  12   6   4  672.93   29.43
 -12  -6  -4  717.38   34.80
 -12   6   4  725.73   28.35
  12   6   4  706.47   30.80
 -12   6   4  828.41   32.78
 -12   6  -4  660.26   30.97
  12   6  -4  689.32   31.23
  12  -6   4  741.69   29.29
  12   6  -4  716.99   25.73
  12   6  -4  637.81   33.69
 -12   6   4  620.84   30.58
  13   6   4   41.87    5.25
 -13   6  -4   26.99    5.40
  13   6  -4   19.36    4.98
  13   6  -4   16.39    6.14
  13  -6   4   31.98    4.55
 -13  -6   4   36.46    4.87
 -13   6   4   46.67    5.75
  13   6   4   41.15    6.08
 -13  -6  -4   38.85    7.76
 -13   6   4   35.33    6.29
  13  -6   4   32.84    5.01
  13   6  -4   27.35    3.12
 -13   6   4   32.38    5.94
  14  -6   4 1501.44   53.10
 -14   6   4 1615.04   54.90
  14   6   4 1530.80   54.34
 -14  -6  -4 1392.72   60.48
  14   6   4 1574.27   55.93
  14  -6   4 1630.84   55.52
  14   6  -4 1445.53   51.25
  14   6  -4 1247.74   58.75
 -14   6  -4 1331.07   55.12
  14   6  -4 1292.28   55.08
 -14   6   4 1427.91   57.04
   0   6   6  448.58   21.95
   0   6   6  464.91   20.15
   0  -6  -6  347.61   19.64
   0  -6  -6  409.63   19.22
   0   6  -6  351.28   22.31
   0  -6   6  463.72   17.67
   0   6  -6  366.98   21.54
  -1   6  -6    5.72    4.23
   1   6  -6    7.17    4.24
  -1   6   6   11.33    3.82
   1   6   6    7.48    3.70
   1   6  -6    8.87    4.59
  -1   6  -6    4.73    4.04
   1   6   6   16.69    3.89
  -1   6   6   22.33    4.12
   1  -6  -6   13.80    3.40
  -1  -6  -6   12.30    3.47
  -1  -6  -6    7.37    3.51
  -1  -6   6   15.68    2.70
   1  -6   6   12.36    2.87
  -2   6   6 1641.92   61.46
   2   6   6 1738.56   59.99
  -2   6   6 1753.93   58.68
  -2  -6  -6 1624.01   61.95
   2  -6   6 1462.75   53.37
  -2   6  -6 1576.91   63.74
  -2  -6   6 1702.27   55.31
   2   6  -6 1606.94   63.17
   2  -6   6 1688.87   57.10
  -2   6  -6 1645.20   61.96
  -3   6  -6   21.03    5.64
  -3   6   6   19.50    4.93
   3   6  -6   27.37    6.29
  -3   6  -6   24.01    5.20
   3   6   6   21.36    4.77
  -3   6   6   21.11    4.19
   3  -6   6   21.21    1.44
  -3  -6  -6   18.94    5.02
  -3  -6   6   25.08    2.61
   3  -6   6   25.90    3.97
  -4   6   6  142.45   11.30
   4   6   6  134.82   10.90
   4   6   6  139.61   10.72
  -4   6   6  146.95    9.26
  -4  -6  -6  246.64   15.11
   4  -6   6  142.27    7.03
  -4   6  -6  268.18   16.25
   4   6  -6  274.25   16.25
  -4  -6   6  137.07    6.79
   4   6  -6  246.29   15.73
   4  -6   6  151.45    9.50
  -4   6  -6  275.95   14.55
  -5   6  -6    9.59    4.63
   5   6  -6   13.18    4.80
  -5   6   6   17.89    4.80
   5   6   6   18.28    4.49
   5   6  -6    9.43    4.77
  -5   6  -6    3.63    3.78
  -5   6   6   20.64    3.59
   5   6  -6   13.92    4.45
  -5  -6  -6   11.40    4.81
   5  -6   6   19.70    2.48
   5  -6   6   11.42    3.46
  -6   6   6 1575.15   60.10
   6   6   6 1535.55   59.24
  -6   6   6 1633.55   55.68
  -6  -6  -6 1602.60   62.51
  -6  -6  -6 1645.25   59.20
   6  -6   6 1481.38   53.92
  -6   6  -6 1594.70   62.31
   6   6  -6 1497.44   61.72
   6   6  -6 1546.63   62.97
  -6   6  -6 1557.88   59.29
  -7   6  -6    5.35    4.27
   7   6  -6    8.15    4.08
  -7   6   6    1.08    3.67
   7   6   6    4.55    3.93
   7   6  -6    5.34    4.58
  -7   6  -6   14.53    4.21
  -7   6   6    6.12    2.72
  -7   6   6    5.92    3.34
  -7  -6  -6   12.24    5.32
  -7  -6  -6   12.26    4.16
   7  -6   6   10.35    2.66
  -8   6  -6  288.04   16.41
  -8   6   6  287.30   16.98
   8   6   6  285.22   16.46
  -8   6   6  311.74   15.10
  -8  -6  -6  269.19   18.59
  -8  -6  -6  294.29   16.59
   8  -6   6  330.97   13.92
  -8   6  -6  249.94   17.41
   8   6  -6  297.59   18.55
  -9   6  -6   29.87    6.24
  -9   6   6   35.73    5.99
   9   6   6   34.18    5.78
   9   6  -6   24.48    5.90
  -9   6   6   35.68    4.73
  -9   6  -6   37.16    5.73
  -9  -6  -6   29.41    7.11
  -9  -6  -6   32.71    5.72
   9  -6   6   53.65    4.85
 -10   6   6 1153.32   45.61
  10   6   6 1167.28   45.00
 -10  -6  -6 1259.09   46.34
  10  -6   6 1191.36   42.24
 -10   6  -6 1041.70   46.60
  10   6  -6  993.13   46.42
  10   6  -6 1064.41   49.04
 -11   6   6   26.38    5.27
  11   6   6   26.53    5.19
  11   6  -6   21.57    6.74
 -11   6  -6   24.44    6.06
  11   6  -6   26.74    5.92
 -11  -6  -6   33.99    5.90
  11  -6   6   33.31    4.49
 -11   6   6   22.80    5.22
 -12   6   6  148.06   11.17
  12   6   6  121.67   10.04
  12  -6   6  139.45    9.58
 -12   6   6  127.84   10.98
  12   6  -6  261.89   17.59
 -12   6  -6  263.60   15.33
  12   6  -6  224.42   14.32
   0   6   8 1418.63   50.49
   0   6   8 1258.37   52.75
   0  -6  -8 1468.09   53.02
   0   6  -8 1358.09   56.83
   0  -6   8 1373.30   47.87
   0   6  -8 1479.31   56.20
  -1   6   8    3.73    4.38
   1   6   8    4.31    4.03
  -1   6  -8    3.36    3.94
   1   6  -8    8.42    5.12
   1   6  -8    1.51    4.87
  -1   6   8    1.17    3.12
   1   6   8    2.60    3.43
  -1   6  -8    7.13    4.85
   1   6  -8    1.79    3.14
  -1   6  -8    3.03    3.03
  -1  -6  -8    1.78    4.10
   1  -6  -8    5.81    3.49
   1  -6   8    1.15    2.76
  -2   6   8 1060.61   39.87
  -2   6   8 1067.59   43.84
  -2  -6  -8 1097.79   44.28
   2   6  -8 1305.97   41.24
  -2   6  -8 1380.79   40.79
   2  -6   8  843.24   35.24
  -2   6  -8  998.81   46.22
   2  -6   8 1061.53   38.88
   2   6  -8 1084.53   46.21
  -2   6  -8 1045.65   44.66
  -3   6   8   49.28    7.17
   3   6  -8   38.36    7.37
  -3   6  -8   33.26    7.12
   3   6  -8   45.54    5.79
   3   6  -8   38.40    7.74
  -3   6  -8   44.38    7.85
  -3  -6  -8   46.69    7.34
  -3  -6  -8   39.62    5.86
  -4   6  -8  967.86   43.24
  -4   6   8 1093.44   43.73
   4   6   8 1068.55   43.08
  -4  -6  -8 1037.35   44.38
  -4  -6  -8 1077.13   41.52
  -4   6  -8  983.36   45.56
   4   6  -8  919.30   44.95
   4   6  -8  927.68   44.59
  -5   6   8    3.69    4.08
   5   6   8    4.74    4.14
   5   6  -8    0.81    4.60
  -5   6  -8    7.32    5.03
   5   6  -8    6.59    4.69
  -5   6  -8    5.83    4.93
  -5  -6  -8    2.19    4.90
  -5  -6  -8    1.49    3.51
  -6   6   8  795.12   37.40
   6   6   8  826.56   37.16
  -6   6  -8  962.10   39.17
  -6  -6  -8  900.38   40.39
  -6  -6  -8  964.11   37.45
  -6   6  -8  816.77   40.07
   6   6  -8  831.27   40.19
   6   6  -8  823.05   40.12
  -7   6   8   54.45    7.68
   7   6   8   52.56    7.22
  -7   6  -8   45.01    8.16
   7   6  -8   44.92    8.11
  -7   6  -8   64.06    8.26
  -7  -6  -8   70.61    7.81
  -7  -6  -8   48.32    8.49
  -8   6   8 1085.35   49.44
   8   6   8 1127.30   48.97
  -8   6  -8 1348.57   51.05
  -8  -6  -8 1300.17   53.99
  -8  -6  -8 1443.67   50.65
  -8   6  -8 1220.97   52.83
   8   6  -8 1178.95   52.47
   0  -7  -1    0.76    2.51
   0  -7   1    0.74    2.60
   0   7   1    1.93    3.16
   0   7  -1   -0.50    2.60
   0   7   1   -0.41    2.60
   0  -7  -1   -0.24    1.92
   0   7  -1   -0.84    2.60
   0   7   1    0.26    1.88
   0   7  -1    5.62    2.09
   0   7   1    0.32    2.33
   0   7  -1    0.29    2.04
   1  -7  -1  802.89   30.60
  -1  -7  -1  793.52   30.47
   1  -7   1  723.75   29.71
  -1  -7   1  727.99   29.81
  -1   7   1  692.85   31.02
   1   7   1  653.49   30.99
  -1   7  -1  765.96   32.02
   1   7  -1  714.19   31.69
   1   7   1  726.51   30.59
  -1   7   1  720.65   30.25
   1   7  -1  794.12   31.49
   1  -7  -1  721.90   27.29
   1  -7   1  689.19   26.40
  -1  -7  -1  732.79   28.01
   1   7   1  673.64   27.88
  -1   7   1  646.11   27.65
  -1   7  -1  757.94   27.54
  -1   7   1  697.97   28.98
   1   7  -1  788.84   28.33
  -1   7  -1  764.92   29.00
  -2   7  -1   16.16    4.45
  -2  -7  -1   15.69    3.59
  -2  -7   1   21.33    4.14
  -2   7   1   16.85    4.06
  -2   7  -1   28.51    5.03
   2  -7   1   20.05    2.27
   2   7   1   17.00    4.24
  -2   7   1   20.38    4.34
   2  -7  -1   17.44    2.74
   2   7  -1   12.58    4.00
  -2   7  -1   26.08    3.15
  -2   7   1   18.75    3.25
  -2   7   1   17.23    3.66
  -2   7  -1   12.20    3.07
   3  -7  -1  531.39   24.61
  -3  -7  -1  633.83   25.58
   3  -7   1  604.66   25.00
  -3  -7   1  594.59   24.92
  -3   7   1  584.05   26.33
  -3   7  -1  542.83   26.11
   3   7   1  611.33   26.18
   3   7  -1  578.41   25.99
  -3   7   1  639.18   25.80
   3  -7  -1  542.11   21.92
   3  -7   1  585.19   21.02
  -3   7  -1  545.82   25.88
  -3   7   1  630.48   23.91
  -3   7  -1  538.46   22.66
  -3   7   1  593.23   24.87
  -3   7  -1  503.44   23.82
  -4   7  -1    5.46    3.10
   4  -7  -1    7.84    3.24
  -4  -7  -1    6.15    2.96
   4  -7   1    5.12    2.79
  -4  -7   1    3.65    2.67
  -4   7   1    4.32    3.19
   4   7   1    4.38    3.27
  -4   7  -1    7.45    3.34
   4   7  -1    6.72    3.48
   4   7   1    3.18    2.90
   4   7  -1    4.65    3.47
  -4   7   1    0.39    2.64
  -4   7   1    4.97    2.52
  -4   7   1    4.32    2.75
   4   7  -1    5.67    1.89
  -4   7  -1    1.13    2.78
   5  -7  -1  266.85   15.16
  -5  -7  -1  266.63   15.06
   5  -7   1  346.67   15.99
  -5  -7   1  348.42   15.88
  -5   7   1  331.64   17.17
   5   7   1  351.15   17.56
  -5   7  -1  273.86   16.34
   5   7  -1  258.28   16.18
   5   7   1  334.61   17.19
  -5   7   1  347.85   16.12
  -5   7  -1  259.65   15.23
  -5   7   1  323.49   14.84
  -5   7   1  325.94   16.29
   5   7  -1  270.76   12.22
  -5   7  -1  269.84   15.14
  -6   7  -1    3.09    2.63
   6  -7  -1    3.52    2.98
  -6  -7  -1    5.68    3.08
   6  -7   1    9.16    3.25
  -6  -7   1    9.46    3.30
  -6   7   1   11.52    3.87
   6   7   1    5.89    3.39
  -6   7  -1    3.90    3.15
   6   7  -1    4.66    3.57
  -6   7   1    3.41    2.92
  -6   7   1    5.08    2.96
  -6   7   1    8.89    3.39
   6   7  -1    1.86    1.41
  -6   7  -1    6.76    3.15
   7  -7  -1  721.39   29.37
  -7  -7  -1  734.24   29.24
   7  -7   1  677.36   28.68
  -7  -7   1  755.35   29.24
  -7   7   1  679.69   30.25
   7   7   1  681.22   30.46
  -7   7  -1  690.39   30.41
   7   7  -1  691.09   30.91
  -7   7  -1  675.71   28.59
  -7   7   1  652.82   28.04
  -7   7   1  702.22   30.22
   7   7  -1  717.37   24.48
  -7   7  -1  648.57   29.51
  -8   7  -1    3.80    2.38
   8  -7  -1    3.06    3.06
  -8  -7  -1    2.22    2.88
   8  -7   1    4.34    2.84
  -8  -7   1    3.21    2.82
  -8   7   1    4.75    3.51
   8   7   1    5.40    3.22
  -8   7  -1    3.37    3.23
   8   7  -1    6.20    3.85
  -8   7   1    9.70    3.80
  -8   7  -1    2.85    3.19
   9  -7  -1  140.41    9.19
  -9  -7  -1  142.85    9.13
   9  -7   1   87.34    7.64
  -9  -7   1   91.96    7.72
  -9   7   1  102.14    9.00
   9   7   1   86.45    8.56
  -9   7  -1  136.15   10.13
   9   7  -1  150.74   10.87
  -9   7   1   93.90    6.97
  -9   7  -1  158.40    8.23
 -10  -7   1   43.90    5.27
 -10  -7  -1   32.05    4.91
  10  -7   1   28.97    4.57
 -10   7   1   42.09    6.01
  10   7   1   34.75    5.58
  10   7  -1   29.50    5.48
 -10   7  -1   36.77    5.50
 -10   7   1   32.80    3.64
  10  -7   1   29.63    4.63
 -10   7  -1   33.14    3.66
  11  -7   1  393.41   18.90
 -11  -7   1  403.23   18.87
 -11   7   1  379.49   20.04
  11   7   1  388.40   20.38
  11   7  -1  438.03   21.60
 -11   7  -1  449.67   21.21
  11  -7   1  379.28   19.05
 -11   7   1  403.78   15.94
 -11   7  -1  482.81   16.70
  12  -7   1   11.87    3.68
 -12  -7   1   15.67    3.91
 -12   7   1   14.86    4.23
  12   7   1    9.94    4.29
  12   7  -1   23.76    5.16
 -12   7  -1   24.50    4.92
  12  -7   1   16.69    4.22
 -12   7   1   13.58    4.90
  13  -7   1  177.38   10.45
 -13  -7   1  182.09   10.39
 -13   7   1  179.92   11.26
  13   7   1  160.63   11.04
  13   7  -1  109.36    9.95
 -13   7  -1  107.71    9.65
  13   7  -1  115.75   12.86
  13  -7   1  180.03   11.22
 -13   7   1  165.59   12.38
  14   7  -1    0.88    5.53
  14  -7   1    3.66    3.00
 -14   7   1    1.67    3.54
  14   7   1   -0.44    3.28
  14   7  -1    3.67    3.73
 -14   7  -1    2.55    3.46
  14  -7   1    7.12    4.07
 -14   7   1   -1.21    3.90
   0   7  -3   -0.59    3.40
   0   7   3   -1.05    3.09
   0  -7   3   -0.40    2.73
   0   7  -3   -1.12    3.08
   0   7   3   -0.83    2.86
   0  -7  -3   -1.48    2.11
  -1   7   3  394.00   19.50
   1   7   3  360.21   18.95
   1  -7   3  414.58   18.21
  -1  -7   3  434.24   18.43
   1   7  -3  290.70   18.14
  -1   7  -3  267.48   17.62
   1   7   3  408.79   18.61
  -1   7   3  414.17   18.19
   1  -7  -3  300.71   15.14
  -1  -7  -3  294.89   15.35
  -1   7   3  381.40   16.66
   1   7  -3  266.28   18.13
  -1   7  -3  312.78   18.55
  -2   7   3   68.96    7.53
  -2  -7   3   75.08    6.90
   2   7   3   72.94    7.17
  -2   7  -3   54.05    6.94
  -2   7   3   71.25    6.68
   2  -7  -3   72.98    5.73
  -2  -7  -3   61.94    5.78
  -2   7   3   52.14    5.44
   2   7  -3   54.21    7.60
  -2   7  -3   72.61    7.75
  -3   7   3  712.91   31.91
   3  -7   3  769.79   30.56
  -3  -7   3  755.82   30.50
   3   7   3  725.35   31.08
  -3   7  -3  744.96   32.49
  -3   7   3  745.41   30.05
   3  -7  -3  760.84   28.30
   3  -7   3  695.18   24.50
  -3  -7  -3  730.07   29.39
  -3   7   3  676.16   28.70
   3   7  -3  662.60   32.96
   3   7  -3  790.20   25.82
  -3   7  -3  698.86   31.23
   4   7  -3   -2.02    3.55
  -4   7  -3   -0.46    3.12
  -4   7   3    0.53    3.50
   4   7   3   -1.55    3.52
   4  -7   3    1.98    3.07
  -4  -7   3   -0.79    2.68
   4   7  -3   -1.14    3.68
  -4   7  -3    0.55    3.43
   4   7   3   -3.79    3.34
  -4   7   3    0.37    2.69
   4   7  -3    1.52    3.69
  -4  -7  -3    2.15    2.73
  -4   7   3    1.65    2.62
   4   7  -3    2.37    1.21
   5  -7   3  770.15   31.96
  -5  -7   3  740.98   31.68
  -5   7   3  732.94   33.54
   5   7   3  725.17   33.23
   5   7  -3  782.79   34.76
  -5   7  -3  795.40   34.39
  -5   7   3  766.27   31.49
   5   7  -3  847.59   27.48
   5   7  -3  721.98   35.72
  -5   7  -3  853.72   33.22
  -5   7   3  692.95   31.97
   6  -7   3   71.95    7.05
  -6  -7   3   80.19    7.18
  -6   7   3   68.67    7.86
   6   7   3   84.21    8.24
   6   7  -3   83.62    8.73
  -6   7  -3   67.41    7.95
  -6   7   3   78.00    6.78
   6   7  -3   85.84    4.31
   6   7  -3   62.30    8.70
  -6   7   3   65.92    7.06
  -6   7  -3   78.22    7.22
   7  -7   3  141.81    9.53
  -7   7   3  127.40   10.42
   7   7   3  144.86   10.65
   7   7  -3  126.37   10.69
  -7   7  -3  131.99   10.81
  -7   7   3  145.21    9.22
   7   7  -3  112.91   11.60
  -7   7  -3  136.89    9.56
   8   7  -3   10.03    5.27
  -8   7   3   16.71    4.51
   8   7   3   10.30    3.90
   8   7  -3   14.60    4.74
  -8   7  -3   18.27    4.85
  -8   7  -3   16.41    3.86
  -8   7   3   14.35    3.63
  -8  -7  -3   11.91    4.96
   8  -7   3    8.94    2.88
  -9   7   3  388.80   18.34
   9   7   3  368.65   17.79
   9   7  -3  223.27   15.90
  -9   7  -3  226.90   15.75
  -9   7   3  419.19   16.40
  -9  -7  -3  227.93   17.41
   9  -7   3  361.97   15.20
  -9   7  -3  250.19   14.22
 -10   7   3   54.85    6.66
  10   7   3   52.53    6.54
 -10   7   3   48.74    5.37
  10   7  -3   32.48    6.21
 -10   7  -3   45.31    6.31
 -10  -7  -3   39.85    7.15
  10  -7   3   44.57    5.08
 -10   7  -3   48.47    7.12
  10   7  -3   38.83    6.94
 -10   7   3   36.50    6.09
 -10   7  -3   41.25    4.86
 -11   7  -3  363.49   14.95
 -11   7   3  291.47   16.83
  11   7   3  297.24   16.71
 -11  -7  -3  309.99   20.42
 -11   7  -3  346.96   19.32
  11   7  -3  323.11   19.12
  11  -7   3  305.22   15.54
  11   7  -3  309.88   20.85
 -11   7   3  286.41   17.66
  12   7  -3    5.14    5.46
 -12   7   3    2.30    3.35
  12   7   3    0.45    3.43
 -12  -7  -3   -1.61    4.75
  12  -7   3    1.11    3.03
 -12   7  -3    1.80    4.43
  12   7  -3    3.11    4.01
 -12   7   3    0.57    3.91
 -13   7   3  320.80   17.36
  13   7   3  284.28   16.80
 -13  -7  -3  413.24   23.29
 -13   7  -3  401.57   20.18
  13   7  -3  379.78   20.04
  13  -7   3  301.45   16.58
  13   7  -3  408.37   23.92
 -13   7   3  320.77   19.12
   0   7   5    1.12    3.47
   0   7  -5   -1.93    3.85
   0   7   5    3.86    3.61
   0  -7  -5   -0.36    2.52
   0   7  -5   -2.27    4.46
  -1   7   5  758.26   33.06
   1   7   5  708.62   32.48
   1   7   5  715.28   30.95
  -1   7   5  734.73   30.75
   1  -7  -5  748.90   29.94
  -1  -7  -5  780.65   30.45
  -1   7  -5  710.92   35.06
   1   7  -5  677.10   34.60
   1   7  -5  754.72   34.34
  -1   7  -5  723.16   33.57
  -2   7   5   74.47    8.16
   2   7   5   70.83    7.49
  -2   7   5   80.24    7.22
  -2  -7  -5   69.90    6.56
  -2   7  -5   75.96    9.43
   2   7  -5   67.41    8.49
   2  -7   5   79.26    5.87
  -2   7  -5   66.89    8.13
  -3   7   5  186.36   12.71
  -3   7   5  203.92   11.06
  -3  -7  -5  109.12    9.10
  -3   7  -5  113.16   11.91
   3   7  -5  113.32   11.48
   3  -7   5  202.07    9.74
  -3   7  -5  122.29   10.87
   4   7  -5   -0.71    4.16
  -4   7   5    3.38    3.69
   4   7   5    6.52    3.88
  -4   7  -5    0.54    3.68
  -4   7   5    1.48    2.76
  -4  -7  -5    6.93    3.26
  -4  -7  -5    7.06    3.91
   4  -7   5    3.56    2.84
  -4   7  -5    5.17    4.50
   4   7  -5    3.78    4.30
  -5   7   5  298.24   16.36
   5   7   5  287.81   15.94
  -5   7   5  312.92   14.02
  -5  -7  -5  168.32   14.20
  -5  -7  -5  199.63   13.02
  -5   7  -5  232.45   16.58
   5   7  -5  205.54   16.02
   5   7  -5  157.76   14.40
   5  -7   5  306.24   13.41
  -5   7  -5  182.87   13.39
  -6   7   5   75.27    8.34
   6   7   5   65.58    7.58
  -6   7   5   71.81    6.40
   6   7  -5   54.73    8.37
  -6  -7  -5   74.50    7.35
  -6   7  -5   77.27    9.38
  -6  -7  -5   59.59    8.35
   6  -7   5   74.01    5.15
  -6   7  -5   53.89    6.86
   6   7  -5   63.81    8.90
  -7   7   5  164.80   12.55
   7   7   5  171.75   12.44
  -7   7   5  166.09   10.07
  -7  -7  -5  190.50   14.77
  -7   7  -5  182.30   14.15
   7   7  -5  186.57   14.46
   7  -7   5  171.78    9.09
   7   7  -5  175.58   14.24
  -7   7  -5  176.45   12.02
   8   7  -5   -0.77    4.22
  -8   7   5    0.56    3.93
   8   7   5    0.52    3.52
  -8   7  -5    0.90    3.33
  -8  -7  -5    2.34    4.68
   8  -7   5   -0.75    2.39
  -8   7  -5    2.12    4.44
   8   7  -5    1.46    4.52
  -9   7   5  708.71   32.72
   9   7   5  740.35   32.42
   9  -7   5  714.26   28.77
  -9   7  -5  782.12   35.55
   9   7  -5  767.20   35.55
  -9   7   5  673.43   31.98
 -10   7  -5   59.06    8.39
  10   7  -5   39.25    7.25
 -10   7   5   44.30    6.85
  10   7   5   43.67    6.46
 -10   7  -5   43.99    5.71
  10  -7   5   44.00    4.91
 -10   7   5   37.69    6.29
 -11   7  -5    3.91    4.70
  11   7  -5    2.68    4.08
  11   7  -5    2.51    5.32
 -11   7   5   -2.13    3.85
  11   7   5    5.49    4.05
  11  -7   5    4.50    2.98
 -11   7   5    6.15    4.34
   0   7  -7    1.67    3.82
   0   7   7    1.87    3.80
   0   7  -7   -0.72    4.47
   0  -7  -7    3.44    3.36
  -1   7   7  182.75   13.12
   1   7   7  176.28   13.00
  -1   7   7  169.26   10.71
  -1  -7  -7  117.44    9.83
   1  -7   7  155.45    6.59
  -1   7  -7  107.65   12.06
   1   7  -7  109.70   12.32
   1  -7   7  175.08    9.11
   1   7  -7  105.36   11.55
  -1   7  -7  125.50   11.80
  -2   7  -7   34.08    7.41
  -2   7   7   16.31    5.37
   2   7  -7   22.19    6.32
  -2   7  -7   22.52    6.23
  -2   7   7   23.65    4.61
   2  -7   7   22.48    1.82
  -2  -7  -7   33.91    5.41
  -2  -7  -7   17.47    5.71
   2  -7   7   25.58    4.09
  -3   7   7  298.12   18.16
  -3  -7  -7  294.71   18.40
  -3  -7  -7  290.52   16.15
  -3   7  -7  273.58   19.41
   3   7  -7  234.76   18.49
   3  -7   7  321.75   14.68
   3   7  -7  271.31   18.98
  -3   7  -7  299.80   18.53
  -4   7  -7    7.37    5.29
   4   7  -7    6.64    4.56
  -4   7   7    1.88    3.94
   4   7   7   -0.61    3.70
   4   7  -7   -1.61    4.83
  -4   7  -7    3.24    4.93
  -4  -7  -7    2.89    4.60
  -5   7   7  443.14   23.03
   5   7   7  432.70   22.39
  -5  -7  -7  417.24   23.87
  -5   7  -7  370.19   23.64
   5   7  -7  365.77   23.72
   5   7  -7  422.06   24.78
  -5   7  -7  415.88   22.48
  -6   7  -7   22.59    6.55
   6   7  -7   28.79    6.97
  -6   7   7   30.17    6.37
   6   7   7   26.91    5.86
   6   7  -7   23.86    6.86
  -6   7  -7   26.05    5.75
  -6  -7  -7   28.09    6.93
  -7   7  -7  144.57   11.71
  -7   7   7  163.08   12.79
   7   7   7  178.67   12.71
  -7  -7  -7  124.62   12.78
  -7  -7  -7  142.61   11.10
  -7   7  -7  121.60   12.66
   7   7  -7  103.01   12.10
   7   7  -7  132.96   13.30
  -8   7   7   17.81    5.67
   8   7   7   20.12    5.66
  -8   7  -7   11.91    6.18
   8   7  -7   16.31    6.17
   8   7  -7    7.09    5.74
  -8   7  -7   14.31    5.07
  -8  -7  -7   15.77    6.28
  -8  -7  -7   27.73    5.51
   0   8   0 3294.84  113.49
   0  -8   0 3103.37  107.18
   0   8   0 3069.24  107.59
   0   8   0 3318.02  109.47
  -1   8   0   46.90    6.82
   1   8   0   52.39    7.11
   1  -8   0   41.31    3.97
   1   8   0   42.63    4.52
  -1   8   0   46.81    4.88
   1   8   0   58.33    5.55
  -1   8   0   46.80    5.37
  -2   8   0  494.15   24.37
   2  -8   0  450.21   18.86
   2   8   0  466.18   19.80
  -2   8   0  483.45   20.24
   2   8   0  511.49   20.85
  -2   8   0  491.16   21.95
  -3   8   0    5.76    3.88
   3  -8   0    8.46    2.18
   3   8   0    7.99    2.82
  -3   8   0    9.49    2.99
   3   8   0    8.23    2.94
  -3   8   0    9.65    3.59
  -4   8   0 2515.89   90.17
   4   8   0 2497.06   90.15
  -4   8   0 2528.93   85.84
   4   8   0 2414.17   84.52
  -4   8   0 2353.94   87.40
  -5   8   0   67.78    8.04
   5   8   0   71.03    8.16
  -5   8   0   77.28    7.74
  -5   8   0   67.83    6.09
  -5   8   0   62.09    7.05
  -6   8   0  283.17   16.92
   6   8   0  282.21   17.06
  -6   8   0  263.23   15.24
  -6   8   0  259.49   15.41
  -7   8   0    5.09    3.57
  -7   8   0    2.86    3.89
   7   8   0    0.60    3.85
  -7   8   0    1.02    3.35
  -8   8   0 2722.93   99.11
   8   8   0 2676.64   99.35
  -8   8   0 2664.06   95.75
   8   8   0 2833.64   92.12
  -8   8   0 2649.29   98.22
  -9   8   0   97.97    9.30
   9   8   0   90.19    9.25
  -9   8   0   86.46    7.22
   9   8   0   98.52    5.09
  -9   8   0   85.99    8.88
 -10   8   0  373.78   19.61
  10   8   0  371.73   19.99
 -10   8   0  370.40   15.87
  10   8   0  339.09   12.71
 -10   8   0  381.01   20.11
 -11   8   0   15.58    5.16
  11   8   0   17.65    5.37
 -11   8   0   15.00    4.90
 -12   8   0 1397.81   53.45
  12   8   0 1327.80   53.60
   0   8   2 1332.63   50.34
   0   8  -2 1201.90   50.06
   0  -8  -2 1160.93   44.88
   0   8   2 1285.98   45.81
   0   8  -2 1184.06   50.49
   0   8  -2 1236.63   43.98
   1   8  -2   26.84    6.11
  -1   8  -2   17.67    5.35
  -1   8   2   23.80    5.09
   1   8   2   31.85    5.72
  -1   8  -2   18.27    5.13
   1   8  -2   17.25    5.10
  -1   8   2   25.01    5.08
   1  -8   2   25.58    2.84
   1  -8  -2   18.28    3.29
  -1  -8  -2   16.45    3.45
   1   8   2   20.22    3.80
  -1   8   2   35.33    4.45
   1   8  -2   19.31    2.97
  -1   8   2   30.00    4.86
  -2   8   2  660.91   30.06
  -2   8  -2  620.04   29.93
  -2   8   2  721.57   28.86
   2  -8  -2  627.76   25.20
   2  -8   2  613.53   23.08
  -2  -8  -2  648.44   26.35
   2   8  -2  634.79   31.42
  -2   8   2  667.12   26.41
  -2   8  -2  614.10   29.68
  -2   8   2  647.35   27.72
   3   8  -2   30.86    6.84
  -3   8  -2   27.96    5.87
  -3   8   2   19.15    5.09
  -3   8  -2   32.67    6.01
   3  -8   2   19.42    2.05
  -3   8   2   19.70    4.90
   3  -8  -2   26.50    3.61
  -3  -8  -2   29.19    4.20
  -3   8   2   23.79    4.48
  -4   8   2 1863.94   69.92
   4   8   2 1778.20   69.35
   4   8  -2 1807.29   70.35
  -4   8  -2 1770.27   69.87
  -4   8   2 2052.53   68.36
   4   8  -2 1728.95   72.12
  -4   8  -2 1819.64   69.01
  -4   8   2 1841.92   67.95
   5   8  -2   28.15    6.80
  -5   8  -2   36.90    5.87
  -5   8   2   45.41    6.64
   5   8   2   50.17    6.79
  -5   8   2   53.54    6.25
   5   8  -2   36.05    6.55
  -5   8  -2   27.62    5.78
  -5   8   2   40.24    5.86
  -6   8   2  609.37   26.81
   6   8   2  504.63   25.32
   6   8  -2  516.42   26.44
  -6   8  -2  483.44   25.52
  -6   8   2  625.29   25.03
   6   8  -2  477.23   27.78
  -6   8  -2  457.72   23.27
  -6   8   2  534.05   25.01
   7   8  -2    1.66    4.39
  -7   8  -2   -0.42    3.08
  -7   8   2    2.85    4.34
   7   8   2   -1.70    3.99
   7   8  -2   -0.64    4.16
  -7   8  -2    2.41    3.94
  -7   8   2   -0.44    3.20
  -7   8   2    2.67    3.85
  -8   8   2 1033.79   41.69
   8   8   2 1044.62   41.55
   8   8  -2  947.70   41.88
  -8   8  -2  905.52   41.02
   8   8  -2  875.63   43.86
  -8   8  -2  874.90   37.88
  -8   8   2  986.00   40.95
   9   8  -2   23.03    7.02
  -9   8   2   40.55    6.49
   9   8   2   42.60    6.69
  -9   8  -2   27.83    4.71
   9   8  -2   17.67    5.49
  -9   8  -2   28.57    5.91
  -9   8   2   44.22    6.36
  -9   8   2   35.33    6.09
 -10   8   2  528.93   25.82
  10   8   2  527.63   25.83
  10   8  -2  537.10   26.92
 -10   8  -2  526.41   26.03
 -10   8  -2  547.59   22.53
 -11   8   2   10.36    4.82
  11   8   2   18.57    5.30
  11   8  -2   30.47    6.19
 -11   8  -2   30.31    6.11
 -12   8   2 1287.98   47.94
  12   8   2 1244.45   47.69
  12   8  -2 1124.83   47.65
 -12   8  -2 1104.51   46.92
  12   8  -2 1108.42   52.65
   0   8   4  511.66   26.41
   0   8  -4  510.80   26.71
   0  -8  -4  567.16   23.34
   0   8  -4  514.21   26.77
   1   8  -4   26.90    6.61
  -1   8  -4   27.16    6.18
  -1   8   4   29.98    6.15
   1   8   4   40.29    6.53
   1   8  -4   35.91    6.84
  -1   8  -4   21.69    5.59
   1  -8  -4   39.94    4.98
  -1  -8  -4   46.14    5.33
  -2   8   4 1495.71   60.41
  -2   8   4 1689.87   58.48
  -2   8  -4 1717.64   62.30
   2  -8  -4 1800.11   56.90
  -2  -8  -4 1789.59   57.73
   2  -8   4 1395.19   51.33
   2   8  -4 1626.55   62.81
  -2   8  -4 1748.34   61.89
   3   8  -4    6.04    4.81
  -3   8  -4    7.18    4.23
  -3   8   4    1.26    3.96
  -3   8  -4    7.81    4.54
  -3   8   4    3.93    3.65
  -3  -8  -4    8.58    3.36
  -4   8   4  173.85   13.74
   4   8   4  184.99   13.91
  -4   8   4  150.60   11.34
   4   8  -4  225.42   15.41
  -4   8  -4  228.11   15.37
  -4  -8  -4  240.15   13.03
   4   8  -4  222.69   16.47
  -4   8  -4  219.24   14.41
   5   8  -4   34.67    7.85
  -5   8   4   29.54    6.45
   5   8   4   25.42    5.80
  -5   8  -4   36.65    6.36
   5   8  -4   35.33    6.99
  -5   8  -4   49.60    7.71
  -5   8   4   35.60    5.68
  -5  -8  -4   42.87    5.63
  -6   8   4 1664.52   64.06
   6   8   4 1572.74   63.00
  -6   8   4 1696.04   60.64
   6   8  -4 1623.09   64.63
  -6   8  -4 1704.94   64.55
  -6   8  -4 1601.64   66.15
   6   8  -4 1689.71   67.06
  -6  -8  -4 1719.66   61.44
   6   8  -4 1586.48   66.52
  -6   8   4 1436.39   61.22
  -6   8  -4 1719.73   62.38
  -7   8   4  109.75   10.26
   7   8   4   92.30    9.44
  -7   8  -4  100.94   11.13
   7   8  -4  113.33   12.03
  -7  -8  -4  115.71    9.30
   7   8  -4  107.01   11.96
  -7   8   4   86.81    8.89
  -7   8  -4  118.00    9.48
  -8   8   4  330.56   19.71
   8   8   4  339.66   19.34
  -8   8  -4  349.08   21.60
   8   8  -4  345.26   21.98
   8   8  -4  366.43   23.08
  -8   8  -4  368.73   18.35
   9   8  -4    9.02    6.22
  -9   8   4    7.15    4.58
   9   8   4    5.06    4.02
  -9   8  -4   11.44    3.96
  -9   8  -4    6.07    5.04
   9   8  -4    7.99    5.65
 -10   8   4 1151.73   47.02
  10   8   4 1089.44   46.14
 -10   8  -4 1239.32   50.16
  10   8  -4 1214.61   50.38
  10  -8   4 1115.47   42.77
   0   8   6  443.46   23.40
   0  -8  -6  421.79   20.27
   0   8  -6  400.56   25.12
   0   8  -6  397.63   23.66
  -1   8   6    9.76    4.56
   1   8   6    2.58    4.18
   1   8  -6   17.90    5.94
  -1   8  -6   22.34    6.46
  -1  -8  -6   14.03    4.26
  -1   8  -6   22.84    6.90
   1   8  -6   15.92    6.47
  -2   8   6 1795.95   67.93
  -2  -8  -6 1751.30   64.25
  -2   8  -6 1742.93   71.01
   2   8  -6 1708.97   69.86
  -2   8  -6 1686.75   68.05
  -3   8  -6   61.86    9.77
   3   8  -6   77.37   10.67
  -3   8   6   95.44    9.92
   3   8  -6   65.28   10.11
  -3   8  -6   66.43    8.61
  -3  -8  -6   79.96    7.73
  -4   8   6  349.88   19.88
   4   8   6  350.65   19.49
  -4  -8  -6  298.18   16.74
  -4   8  -6  283.58   20.44
   4   8  -6  299.10   21.05
   4   8  -6  277.44   20.15
  -4   8  -6  315.13   18.92
  -5   8  -6   45.52    8.50
   5   8  -6   35.47    8.11
  -5   8   6   39.39    7.18
   5   8   6   57.49    7.89
   5   8  -6   42.38    8.50
  -5   8  -6   46.48    7.48
  -5  -8  -6   46.60    6.43
  -6   8   6 1676.40   66.87
   6   8   6 1715.96   66.55
  -6  -8  -6 1873.79   65.06
  -6   8  -6 1688.09   69.87
   6   8  -6 1696.79   70.24
   6   8  -6 1623.31   69.76
  -6   8  -6 1701.87   66.22
  -7   8  -6    8.37    5.92
  -7   8   6   12.41    5.59
  -7   8  -6    9.14    4.49
   0   9  -1   -6.68    4.99
   0   9   1    1.36    3.93
   0   9  -1   -2.06    4.49
   0  -9  -1    0.57    2.33
   0  -9   1    1.87    2.18
   0   9   1   -0.32    2.41
   0   9  -1    1.10    2.51
   0   9   1   -0.42    3.32
   0   9  -1    1.12    2.78
  -1   9   1  147.14   12.87
   1   9   1  124.17   12.02
  -1   9  -1  246.97   15.77
   1   9  -1  235.12   15.39
   1  -9  -1  228.47   10.40
  -1  -9  -1  213.74   10.68
  -1  -9   1  133.79    8.63
   1   9  -1  197.31   15.19
  -1   9  -1  230.68   15.51
   1   9  -1  248.15   10.68
  -1   9  -1  233.97   10.79
   1   9   1  129.74    9.96
  -1   9   1  117.45   10.15
   1   9  -1  231.87   11.43
  -1   9  -1  247.21   12.54
   2   9  -1   23.79    6.91
  -2   9  -1   13.75    5.47
  -2   9   1   27.77    6.39
  -2   9  -1   23.11    6.24
   2  -9   1   20.30    2.98
   2  -9  -1   18.29    3.14
  -2  -9  -1   20.63    3.83
   2   9   1   18.43    4.02
   2   9  -1   20.06    3.42
  -2   9  -1   18.97    3.72
   2   9   1   18.62    4.04
  -2   9   1   19.43    4.75
   2   9  -1   19.75    3.79
  -2   9  -1   17.42    4.52
  -3   9   1  298.57   17.58
  -3   9  -1  183.75   14.69
   3  -9  -1  201.18   10.66
   3  -9   1  258.47   10.25
  -3  -9  -1  180.96   11.65
   3   9  -1  187.63   16.24
   3   9   1  294.44   13.30
   3   9  -1  201.31   10.94
  -3   9  -1  190.95   14.75
   3   9   1  307.60   13.79
  -3   9   1  294.65   15.57
   3   9  -1  213.19   11.49
  -3   9  -1  195.63   13.04
  -4   9  -1   11.07    4.92
  -4   9   1    6.06    4.42
   4   9   1   10.14    5.10
  -4   9  -1    9.46    4.89
   4   9  -1    8.33    5.02
   4   9  -1    8.33    2.78
   4   9   1   12.57    3.59
  -4   9   1    8.22    4.26
   4   9  -1    9.82    3.07
  -4   9  -1    5.24    3.49
  -5   9   1  251.38   15.80
   5   9   1  209.38   14.76
  -5   9  -1  149.66   13.11
   5   9  -1  133.74   12.46
   5   9  -1  143.51    8.92
  -5   9  -1  154.61   12.24
   5   9   1  227.75   11.03
  -5   9   1  232.33   13.88
  -5   9  -1  136.66   11.26
  -6   9  -1   19.69    4.89
  -6   9   1   29.27    6.21
   6   9   1   23.41    6.28
  -6   9  -1   28.00    6.50
   6   9  -1   25.06    6.62
   6   9  -1   21.75    3.62
   6   9   1   25.51    4.00
  -6   9   1   25.16    5.54
  -7   9   1  410.16   22.67
   7   9   1  365.10   21.95
  -7   9  -1  441.62   23.34
   7   9  -1  486.77   24.39
  -7   9   1  405.82   20.79
  -7   9  -1  453.02   21.21
   7   9   1  379.14   17.22
  -7   9   1  376.66   21.23
   8   9  -1   15.15    6.31
  -8   9   1   21.87    4.96
  -8   9  -1   14.80    4.09
  -8   9   1   19.07    6.24
   8   9   1   25.23    6.30
  -8   9  -1   21.22    6.20
   8   9  -1   19.59    6.14
   8   9   1   15.44    3.12
  -8   9   1   15.02    5.44
  -9   9   1   80.09    9.57
  -9   9  -1  141.39   11.65
   9   9  -1  137.42   11.96
   9   9   1   61.30    8.86
   9   9  -1  140.75   14.12
  -9   9   1   76.57    9.04
   0   9  -3   -0.75    5.17
   0   9   3    0.68    4.08
   0   9  -3    2.93    4.52
   0  -9  -3   -1.39    2.79
  -1   9   3  130.29   11.57
   1   9   3  117.98   11.15
   1   9  -3  107.50   11.32
  -1   9  -3  106.25   10.89
   1  -9  -3  100.09    7.65
  -1  -9  -3   97.11    7.87
   1  -9   3  122.01    6.09
   1   9  -3   93.23   10.81
  -1   9  -3  114.62   11.48
  -1   9   3  123.91    9.92
   2   9  -3   12.93    5.86
  -2   9  -3   14.18    5.66
  -2   9   3   14.98    5.41
  -2   9  -3   21.01    6.06
   2  -9  -3   21.85    3.85
   2  -9   3   15.03    1.96
  -2  -9  -3   20.31    4.22
  -2   9   3   25.09    5.46
  -3   9   3  148.45   13.30
  -3   9  -3  219.92   15.62
  -3  -9  -3  225.24   12.38
   3   9  -3  204.61   16.30
  -3   9  -3  226.57   15.03
  -3   9   3  153.38   12.02
   4   9  -3    1.71    5.46
  -4   9  -3    4.76    4.71
  -4   9   3    9.53    5.18
   4   9   3    0.67    4.11
   4   9  -3    7.48    5.97
  -4   9  -3    2.86    4.75
  -4  -9  -3    3.32    3.52
  -4   9   3    0.53    3.64
  -5   9   3  188.80   15.39
   5   9   3  176.88   14.86
   5   9  -3  262.26   17.82
  -5   9  -3  276.83   17.94
  -5  -9  -3  280.46   14.91
   5   9  -3  298.15   20.08
   5   9  -3  283.91   10.75
  -5   9  -3  268.91   16.25
  -5   9   3  188.85   14.32
   6   9  -3    4.53    5.52
  -6   9  -3    2.19    3.82
  -6   9   3    4.71    4.86
   6   9   3    6.51    5.06
   6   9  -3    7.46    5.14
  -6   9  -3    9.12    5.50
  -6  -9  -3    8.05    3.85
  -6   9   3   -0.57    4.08
  -7   9   3  208.74   14.88
   7   9   3  212.33   14.73
   7   9  -3  173.70   14.56
  -7   9  -3  173.71   14.12
   7   9  -3  185.31   16.33
  -7   9  -3  149.86   11.90
  -7   9   3  208.08   14.03
   8   9  -3    3.82    5.35
  -8   9   3    8.63    4.95
   8   9   3    8.31    5.46
  -8   9  -3    8.39    4.17
   8   9  -3   10.29    5.87
  -8   9  -3    0.68    4.64
   0   9   5    5.03    5.07
   0   9  -5    2.35    5.33
   0  -9  -5    1.25    3.20
   0   9  -5   -0.95    5.20
  -1   9   5  216.50   15.66
   1   9   5  204.61   15.36
   1  -9  -5  251.44   13.00
  -1  -9  -5  247.41   13.19
  -1   9  -5  222.78   17.76
   1   9  -5  220.08   17.72
   1  -9   5  168.49    7.71
   1   9  -5  240.21   17.23
  -1   9  -5  255.41   17.25
   2   9  -5   -2.46    5.36
  -2   9   5   -0.72    4.48
  -2   9  -5    1.48    4.83
  -2  -9  -5    0.44    3.64
  -2   9  -5   -0.93    5.21
   3   9  -5   47.64    8.81
  -3   9   5   39.89    7.73
  -3  -9  -5   58.80    6.87
  -3   9  -5   68.20    9.37
  -3   9  -5   56.63    9.90
   3   9  -5   62.03   10.27
   0  10   0 1342.23   53.74
   0  10   0 1295.72   48.06
  -1  10   0   40.28    7.83
  -1  10   0   58.12    9.05
   1  10   0   41.73    8.20
   1 -10   0   46.09    4.48
  -1 -10   0   40.80    4.73
   1  10   0   48.43    6.24
  -1  10   0   32.43    5.80
  -2  10   0   38.02    8.04
  -2  10   0   49.36    8.16
   2 -10   0   45.62    4.38
  -2 -10   0   39.36    4.94
   2  10   0   41.57    5.54
  -2  10   0   40.52    6.17
  -3  10   0  107.07   11.76
  -3 -10   0  104.02    8.11
  -3  10   0  110.13   11.55
   3  10   0  136.95    8.96
  -3  10   0  113.05   10.17
  -4  10   0 1525.27   61.85
  -4  10   0 1479.11   60.44
   0  10   2 1245.54   52.80
   0  10  -2 1387.82   54.54
   0 -10  -2 1243.06   46.03
   0 -10   2 1147.34   43.70
   0  10  -2 1413.31   55.15
   0  10   2 1259.32   48.66
   1  10  -2   29.44    7.91
  -1  10  -2   45.56    8.41
  -1  10   2   39.65    7.74
   1  10   2   47.97    8.44
  -1  10  -2   49.31    8.85
   1  10  -2   37.48    7.81
   1 -10  -2   36.85    4.81
   1 -10   2   43.09    3.76
  -1 -10  -2   40.93    5.23
  -1 -10   2   37.01    4.32
   1  10   2   57.87    6.95
  -1  10   2   55.08    7.01
   0   0   0    0.00    0.00


TITL hy_7065 in Cmce
REM Cmce (#64, found as Ccme in ba-c setting)
CELL 0.71073   9.272280   8.161287  16.378629  90.0000  90.0000  90.0000
ZERR   15.00   0.000488   0.000426   0.000776   0.0000   0.0000   0.0000
LATT  7
SYMM -x,-y+1/2, z+1/2
SYMM -x, y+1/2,-z+1/2
SYMM  x,-y,-z
SFAC P S Hg
UNIT 15.00 15.00 15.00
TREF
HKLF 4
END
_computing_structure_solution     'SHELXT 2014/5 (Sheldrick, 2014)'
;
_shelx_hkl_checksum              40549
_olex2_submission_special_instructions 'No special instructions were received'
_oxdiff_exptl_absorpt_empirical_details
;
Empirical correction (ABSPACK) includes:
- Absorption correction using spherical harmonics
- Frame scaling
;
_oxdiff_exptl_absorpt_empirical_full_max 1.451
_oxdiff_exptl_absorpt_empirical_full_min 0.564
loop_
_space_group_symop_operation_xyz
'x, y, z'
'-x, -y, z'
'x+1/2, -y+1/2, z'
'-x+1/2, y+1/2, z'
'x, y+1/2, z+1/2'
'-x, -y+1/2, z+1/2'
'x+1/2, -y+1, z+1/2'
'-x+1/2, y+1, z+1/2'
loop_
_atom_site_label
_atom_site_type_symbol
_atom_site_fract_x
_atom_site_fract_y
_atom_site_fract_z
_atom_site_U_iso_or_equiv
_atom_site_adp_type
_atom_site_occupancy
_atom_site_site_symmetry_order
_atom_site_calc_flag
_atom_site_refinement_flags_posn
_atom_site_refinement_flags_adp
_atom_site_refinement_flags_occupancy
_atom_site_disorder_assembly
_atom_site_disorder_group
Hg1 Hg 0.5000 0.5000 0.29823(7) 0.01309(13) Uani 1 2 d S T P . .
Hg2 Hg 0.25508(2) 0.50192(2) 0.70208(4) 0.01182(11) Uani 1 1 d . . . . .
P1 P 0.37126(8) 0.76536(18) 0.4695(2) 0.0063(3) Uani 1 1 d . . . . .
S2 S 0.38963(8) 0.5624(2) 0.5921(2) 0.0096(3) Uani 1 1 d . . . . .
S4 S 0.25616(8) 0.75860(16) 0.3777(3) 0.0075(4) Uani 1 1 d . . . . .
S3 S 0.37826(12) 0.98737(18) 0.5728(2) 0.0081(4) Uani 1 1 d . . . . .
S1 S 0.46642(9) 0.7834(2) 0.3267(2) 0.0086(3) Uani 1 1 d . . . . .
loop_
_atom_site_aniso_label
_atom_site_aniso_U_11
_atom_site_aniso_U_22
_atom_site_aniso_U_33
_atom_site_aniso_U_23
_atom_site_aniso_U_13
_atom_site_aniso_U_12
Hg1 0.0116(2) 0.0087(2) 0.0190(2) 0.000 0.000 0.00449(11)
Hg2 0.01054(16) 0.01135(17) 0.01357(18) 0.00126(10) -0.00072(12) -0.00252(8)
P1 0.0060(7) 0.0064(7) 0.0066(8) 0.0003(7) 0.0000(6) 0.0000(5)
S2 0.0076(6) 0.0093(8) 0.0119(8) 0.0045(8) -0.0004(7) 0.0023(6)
S4 0.0073(8) 0.0073(9) 0.0080(12) -0.0002(6) -0.0011(6) -0.0008(6)
S3 0.0068(8) 0.0067(9) 0.0108(9) -0.0034(7) -0.0001(7) -0.0008(4)
S1 0.0092(8) 0.0073(6) 0.0094(7) 0.0016(6) 0.0046(6) 0.0001(6)
loop_
_atom_type_symbol
_atom_type_description
_atom_type_scat_dispersion_real
_atom_type_scat_dispersion_imag
_atom_type_scat_source
Hg Hg -2.3894 9.2266 'International Tables Vol C Tables 4.2.6.8 and 6.1.1.4'
P P 0.1023 0.0942 'International Tables Vol C Tables 4.2.6.8 and 6.1.1.4'
S S 0.1246 0.1234 'International Tables Vol C Tables 4.2.6.8 and 6.1.1.4'
loop_
_geom_angle_atom_site_label_1
_geom_angle_atom_site_label_2
_geom_angle_atom_site_label_3
_geom_angle
_geom_angle_site_symmetry_1
_geom_angle_site_symmetry_3
_geom_angle_publ_flag
S3 Hg1 S3 87.37(8) 5_544 6_664 ?
S1 Hg1 S3 101.76(5) . 6_664 ?
S1 Hg1 S3 101.76(5) 2_665 5_544 ?
S1 Hg1 S3 87.45(5) . 5_544 ?
S1 Hg1 S3 87.45(5) 2_665 6_664 ?
S1 Hg1 S1 167.34(10) 2_665 . ?
S2 Hg2 S4 99.02(5) . 8_545 ?
S2 Hg2 S4 114.13(5) . 5_545 ?
S2 Hg2 S3 126.18(7) . 4_545 ?
S4 Hg2 S4 102.78(8) 5_545 8_545 ?
S3 Hg2 S4 105.74(5) 4_545 8_545 ?
S3 Hg2 S4 105.90(5) 4_545 5_545 ?
S2 P1 S4 110.08(9) . . ?
S2 P1 S3 116.77(11) . . ?
S2 P1 S1 107.89(9) . . ?
S3 P1 S4 105.44(10) . . ?
S1 P1 S4 115.41(12) . . ?
S1 P1 S3 101.28(10) . . ?
P1 S2 Hg2 105.13(7) . . ?
Hg2 S4 Hg2 102.72(8) 5_554 8_544 ?
P1 S4 Hg2 104.26(8) . 5_554 ?
P1 S4 Hg2 109.62(8) . 8_544 ?
Hg2 S3 Hg1 104.75(7) 4 5 ?
P1 S3 Hg1 114.05(9) . 5 ?
P1 S3 Hg2 102.56(8) . 4 ?
P1 S1 Hg1 100.17(8) . . ?
loop_
_geom_bond_atom_site_label_1
_geom_bond_atom_site_label_2
_geom_bond_distance
_geom_bond_site_symmetry_2
_geom_bond_publ_flag
Hg1 S3 2.891(2) 6_664 ?
Hg1 S3 2.891(2) 5_544 ?
Hg1 S1 2.3918(17) . ?
Hg1 S1 2.3918(17) 2_665 ?
Hg2 S2 2.4778(15) . ?
Hg2 S4 2.5682(19) 5_545 ?
Hg2 S4 2.6598(18) 8_545 ?
Hg2 S3 2.4943(19) 4_545 ?
P1 S2 2.032(2) . ?
P1 S4 2.069(2) . ?
P1 S3 2.053(2) . ?
P1 S1 2.050(2) . ?
S4 Hg2 2.6598(18) 8_544 ?
S4 Hg2 2.5683(19) 5_554 ?
S3 Hg1 2.891(2) 5 ?
S3 Hg2 2.4943(19) 4 ?
