#------------------------------------------------------------------------------
#$Date: 2021-06-29 00:34:23 +0300 (Tue, 29 Jun 2021) $
#$Revision: 266740 $
#$URL: file:///home/coder/svn-repositories/cod/cif/4/51/88/4518843.cif $
#------------------------------------------------------------------------------
#
# This file is available in the Crystallography Open Database (COD),
# http://www.crystallography.net/
#
# All data on this site have been placed in the public domain by the
# contributors.
#
data_4518843
loop_
_publ_author_name
'Iwaoka, Michio'
'Hiyoshi, Yuta'
'Arai, Shota'
'Ito, Takeru'
_publ_section_title
;
 Synthesis of 4-Selenothreofuranose Derivatives via Pummerer-Type
 Reactions of trans-3,4-Dioxygenated Tetrahydroselenophenes Mediated by a
 Selenonium Intermediate
;
_journal_name_full               'ACS Omega'
_journal_paper_doi               10.1021/acsomega.1c02160
_journal_year                    2021
_chemical_absolute_configuration 'CHOOSE rm ad rmad syn or unk'
_chemical_formula_moiety         'C18 H16 O4 Se'
_chemical_formula_sum            'C18 H16 O4 Se'
_chemical_formula_weight         375.28
_chemical_name_common            2b
_chemical_name_systematic
'(3R,4R/3S,4S)-Tetrahydroselenophene-3,4-diyl dibenzoate'
_space_group_crystal_system      monoclinic
_space_group_IT_number           4
_space_group_name_Hall           'P 2yb'
_space_group_name_H-M_alt        'P 1 21 1'
_atom_sites_solution_hydrogens   geom
_atom_sites_solution_primary     direct
_atom_sites_solution_secondary   difmap
_audit_update_record
;
2020-11-24 deposited with the CCDC.	2021-04-24 downloaded from the CCDC.
;
_cell_angle_alpha                90.0000
_cell_angle_beta                 107.52(3)
_cell_angle_gamma                90.0000
_cell_formula_units_Z            2
_cell_length_a                   11.390(3)
_cell_length_b                   5.9749(19)
_cell_length_c                   12.292(3)
_cell_measurement_reflns_used    1316
_cell_measurement_temperature    100
_cell_measurement_theta_max      24.14
_cell_measurement_theta_min      3.62
_cell_volume                     797.7(4)
_computing_cell_refinement       'CrysAlisPro 1.171.39.20a (Rigaku OD, 2015)'
_computing_data_collection       'CrysAlisPro 1.171.39.20a (Rigaku OD, 2015)'
_computing_data_reduction        'CrysAlisPro 1.171.39.20a (Rigaku OD, 2015)'
_computing_molecular_graphics    'CrystalStructure 4.3'
_computing_publication_material  'CrystalStructure 4.3 (Rigaku, 2019)'
_computing_structure_refinement  'SHELXL Version 2018/3 (Sheldrick, 2008)'
_computing_structure_solution    'SHELXT Version 2014/5 (Sheldrick, 2014)'
_diffrn_ambient_temperature      100
_diffrn_detector_area_resol_mean 5.811
_diffrn_measured_fraction_theta_full 0.994
_diffrn_measured_fraction_theta_max 0.869
_diffrn_measurement_device_type  'Rigaku XtaLAB P200'
_diffrn_measurement_method       \w
_diffrn_radiation_type           'Mo K\a'
_diffrn_radiation_wavelength     0.71075
_diffrn_reflns_av_R_equivalents  0.1253
_diffrn_reflns_av_unetI/netI     0.1781
_diffrn_reflns_Laue_measured_fraction_full 0.994
_diffrn_reflns_Laue_measured_fraction_max 0.869
_diffrn_reflns_limit_h_max       15
_diffrn_reflns_limit_h_min       -15
_diffrn_reflns_limit_k_max       7
_diffrn_reflns_limit_k_min       -7
_diffrn_reflns_limit_l_max       16
_diffrn_reflns_limit_l_min       -15
_diffrn_reflns_number            6413
_diffrn_reflns_point_group_measured_fraction_full 0.911
_diffrn_reflns_point_group_measured_fraction_max 0.754
_diffrn_reflns_theta_full        25.242
_diffrn_reflns_theta_max         28.317
_diffrn_reflns_theta_min         3.417
_diffrn_standards_number         0
_exptl_absorpt_coefficient_mu    2.371
_exptl_absorpt_correction_T_max  0.977
_exptl_absorpt_correction_T_min  0.488
_exptl_absorpt_correction_type   multi-scan
_exptl_absorpt_process_details
;
CrysAlisPro 1.171.39.20a (Rigaku Oxford Diffraction, 2015)
Empirical absorption correction using spherical harmonics,
 implemented in SCALE3 ABSPACK scaling algorithm.
;
_exptl_crystal_colour            colorless
_exptl_crystal_density_diffrn    1.562
_exptl_crystal_density_method    'not measured'
_exptl_crystal_description       plate
_exptl_crystal_F_000             380.00
_exptl_crystal_size_max          0.300
_exptl_crystal_size_mid          0.050
_exptl_crystal_size_min          0.010
_refine_diff_density_max         1.34
_refine_diff_density_min         -1.36
_refine_ls_abs_structure_details
;
 Flack x determined using 395 quotients [(I+)-(I-)]/[(I+)+(I-)]
 (Parsons, Flack and Wagner, Acta Cryst. B69 (2013) 249-259).
;
_refine_ls_abs_structure_Flack   0.08(5)
_refine_ls_extinction_method     none
_refine_ls_goodness_of_fit_ref   1.067
_refine_ls_hydrogen_treatment    constr
_refine_ls_number_parameters     158
_refine_ls_number_reflns         2987
_refine_ls_number_restraints     66
_refine_ls_R_factor_all          0.1855
_refine_ls_R_factor_gt           0.1348
_refine_ls_shift/su_max          0.000
_refine_ls_structure_factor_coef Fsqd
_refine_ls_weighting_details
'w = 1/[\s^2^(Fo^2^)+(0.1767P)^2^+13.2888P] where P=(Fo^2^+2Fc^2^)/3'
_refine_ls_weighting_scheme      calc
_refine_ls_wR_factor_gt          0.3477
_refine_ls_wR_factor_ref         0.3988
_reflns_Friedel_coverage         0.585
_reflns_Friedel_fraction_full    0.809
_reflns_Friedel_fraction_max     0.614
_reflns_number_gt                1867
_reflns_number_total             2987
_reflns_threshold_expression     F^2^>2.0\s(F^2^)
_cod_data_source_file            2046025.cif
_cod_data_source_block           xcalibur
_cod_database_code               4518843
_shelx_res_file
;
TITL xcalibur
    shelxl.res
    created by SHELXL-2018/3 at 15:18:59 on 20-Nov-2020
CELL  0.71075 11.39000 5.97490 12.29200 90.000 107.520 90.000
ZERR  2 0.00300 0.00190 0.00300 0.000 0.030 0.000
LATT -1
SYMM    -X, 1/2+Y,    -Z
SFAC C H O SE
UNIT 36 32 8 2
L.S. 10
FMAP 2
PLAN -25
WPDB -2
BOND $H
CONF
LIST 4
TEMP -173.0
ACTA
SIZE 0.300 0.050 0.010
SIMU 0.0400 0.0800 O1 O9 O23 C1 C2 C3 C6 C10 C12 C13 C15 C18
DELU 0.0100 0.0100 O1 O9 O23 C1 C2 C3 C6 C10 C12 C13 C15 C18
REM HTAB
HTAB
WGHT    0.176700   13.288800
FVAR       0.92499
SE1   4    0.626532    0.805493    0.901517    11.00000    0.03562    0.14943 =
         0.05076   -0.06803    0.00344   -0.01633
O1    3    0.593871    0.504447    0.673538    11.00000    0.03108    0.00634 =
         0.03277    0.00318   -0.00496    0.00690
O2    3    0.565260    0.714165    0.513855    11.00000    0.03972
O9    3    0.247755    0.259443    0.768242    11.00000    0.07282    0.01068 =
         0.07464   -0.01264    0.02545   -0.00647
O23   3    0.360308    0.572852    0.806628    11.00000    0.04057    0.01179 =
         0.05953    0.00055    0.01551    0.00013
C1    1    0.559734    0.481018    0.891438    11.00000    0.06299    0.07003 =
         0.04956    0.01160    0.01768    0.03280
AFIX  23
H1A   2    0.624872    0.371231    0.891554    11.00000   -1.20000
H1B   2    0.527384    0.447774    0.955956    11.00000   -1.20000
AFIX   0
C2    1    0.465179    0.476656    0.787344    11.00000    0.03600    0.03194 =
         0.06435   -0.00456    0.01823   -0.00782
AFIX  13
H2    2    0.446870    0.317858    0.762273    11.00000   -1.20000
AFIX   0
C3    1    0.488700    0.608830    0.692569    11.00000    0.03171    0.03013 =
         0.03702   -0.01438    0.00349   -0.00420
AFIX  13
H3    2    0.415918    0.614509    0.622520    11.00000   -1.20000
AFIX   0
C4    1    0.524590    0.835105    0.746175    11.00000    0.04014
AFIX  23
H4A   2    0.449491    0.920707    0.743976    11.00000   -1.20000
H4B   2    0.569752    0.919241    0.702013    11.00000   -1.20000
AFIX   0
C5    1    0.620900    0.553344    0.577457    11.00000    0.03172
C6    1    0.716588    0.435863    0.553279    11.00000    0.04209    0.02498 =
         0.02577    0.00535   -0.00854   -0.01351
C7    1    0.750915    0.203956    0.604766    11.00000    0.03519
AFIX  43
H7    2    0.714328    0.147111    0.659093    11.00000   -1.20000
AFIX   0
C8    1    0.835242    0.078002    0.571857    11.00000    0.03818
AFIX  43
H8    2    0.865393   -0.056757    0.611454    11.00000   -1.20000
AFIX   0
C9    1    0.876866    0.143259    0.482667    11.00000    0.02852
AFIX  43
H9    2    0.929267    0.047242    0.456653    11.00000   -1.20000
AFIX   0
C10   1    0.841625    0.353910    0.429430    11.00000    0.03774    0.02293 =
         0.03183   -0.00179   -0.00272   -0.01217
AFIX  43
H10   2    0.873649    0.399721    0.369978    11.00000   -1.20000
AFIX   0
C11   1    0.760807    0.495386    0.462616    11.00000    0.03207
AFIX  43
H11   2    0.735768    0.632595    0.423453    11.00000   -1.20000
AFIX   0
C12   1    0.263470    0.441824    0.797180    11.00000    0.02244    0.01653 =
         0.03616   -0.00886   -0.00248   -0.00340
C13   1    0.157005    0.572581    0.823283    11.00000    0.03302    0.01996 =
         0.02706   -0.00452    0.00838   -0.00063
C14   1    0.179864    0.787759    0.876625    11.00000    0.02789
AFIX  43
H14   2    0.259864    0.851118    0.893703    11.00000   -1.20000
AFIX   0
C15   1    0.084519    0.909859    0.904864    11.00000    0.02961    0.02702 =
         0.04807    0.00968   -0.00230   -0.00218
AFIX  43
H15   2    0.102563    1.049078    0.943653    11.00000   -1.20000
AFIX   0
C16   1   -0.028119    0.828337    0.876842    11.00000    0.03628
AFIX  43
H16   2   -0.093707    0.916942    0.886102    11.00000   -1.20000
AFIX   0
C17   1   -0.053486    0.585370    0.828316    11.00000    0.03181
AFIX  43
H17   2   -0.130729    0.514157    0.817544    11.00000   -1.20000
AFIX   0
C18   1    0.042148    0.479791    0.801956    11.00000    0.03301    0.04331 =
         0.02899    0.00620    0.00205   -0.00611
AFIX  43
H18   2    0.027799    0.336081    0.767413    11.00000   -1.20000
AFIX   0
HKLF 4




REM  xcalibur
REM wR2 = 0.3988, GooF = S = 1.067, Restrained GooF = 1.056 for all data
REM R1 = 0.1348 for 1867 Fo > 4sig(Fo) and 0.1855 for all 2987 data
REM 158 parameters refined using 66 restraints

END

WGHT      0.1767     13.2802

REM Instructions for potential hydrogen bonds
EQIV $1 -x+1, y-1/2, -z+2
HTAB C1 Se1_$1
HTAB C4 O2

REM Highest difference peak  1.335,  deepest hole -1.364,  1-sigma level  0.209
Q1    1   0.5595  0.7867  0.9315  11.00000  0.05    1.34
Q2    1   0.4990  1.1040  0.9388  11.00000  0.05    1.03
Q3    1   0.7155  0.7913  0.8827  11.00000  0.05    0.96
Q4    1   0.5627  0.7945  1.0256  11.00000  0.05    0.84
Q5    1   0.1807  0.3034  0.8237  11.00000  0.05    0.81
Q6    1  -0.1130  0.4406  0.7023  11.00000  0.05    0.80
Q7    1   0.6630  1.0325  0.9049  11.00000  0.05    0.75
Q8    1   0.3420  0.3021  0.7134  11.00000  0.05    0.75
Q9    1   0.8781  0.1798  0.7010  11.00000  0.05    0.75
Q10   1   0.8391 -0.1315  0.4600  11.00000  0.05    0.72
Q11   1   0.3592  0.1362  0.8544  11.00000  0.05    0.69
Q12   1   0.2995  0.7992  0.8090  11.00000  0.05    0.67
Q13   1   0.5842  1.1320  1.0032  11.00000  0.05    0.64
Q14   1   0.5263  0.6565  0.5695  11.00000  0.05    0.63
Q15   1  -0.0227  0.8412  0.8144  11.00000  0.05    0.63
Q16   1   0.7721 -0.0714  0.5270  11.00000  0.05    0.62
Q17   1   0.1408  1.0235  0.8528  11.00000  0.05    0.60
Q18   1   0.4974  0.4917  0.9332  11.00000  0.05    0.60
Q19   1   0.6718  0.5664  0.8975  11.00000  0.05    0.60
Q20   1  -0.0788  0.5953  0.8747  11.00000  0.05    0.59
Q21   1   0.8373  0.1184  0.4976  11.00000  0.05    0.59
Q22   1   0.4497  0.8227  0.7336  11.00000  0.05    0.58
Q23   1   0.5975  0.9559  0.6139  11.00000  0.05    0.58
Q24   1   0.6912  0.4645  0.8188  11.00000  0.05    0.58
Q25   1  -0.1195  0.6384  0.8437  11.00000  0.05    0.56
;
_shelx_res_checksum              45012
_shelx_hkl_file
;
   0   0   2   28.80   19.76
   0   0   3 9824.84  883.75
   0   0   3 9999.00  883.36
   0   0  -3 9713.56  882.99
   0   0   4 1623.13  138.70
   0   0   4 1528.40  139.97
   0   0  -4 1434.86  137.01
   0   0  -4 1346.63  137.28
   0   0   5 1447.83  137.43
   0   0   5 1563.71  137.38
   0   0  -5 1346.60  134.85
   0   0  -5 1411.01  134.43
   0   0   6 1066.73  109.83
   0   0  -6 1113.92  106.00
   0   0  -6 1105.82  106.50
   0   0   7  231.54   45.99
   0   0  -7  224.91   37.55
   0   0  -7  223.54   38.61
   0   0   8   92.22   44.17
   0   0  -8   81.98   31.22
   0   0  -8   85.80   34.35
   0   0   9  938.34  101.14
   0   0  -9  766.61   92.55
   0   0  -9  969.98   91.33
   0   0  10  895.39  101.83
   0   0 -10  944.54   91.75
   0   0 -10  755.01   92.67
   0   0  11  200.85   62.44
   0   0 -11  192.16   45.24
   0   0 -11  171.55   45.26
   0   0  12  -13.36   45.32
   0   0  12   85.91   62.61
   0   0 -12   68.98   41.53
   0   0  13   40.35   65.18
   0   0  13   14.76   45.83
   0   0 -13   57.80   42.91
   0   0  14  118.73   69.49
   0   0 -14   82.05   41.86
   0   1   0   69.76   13.26
   0  -1   0   92.67   15.03
   0  -1  -1 4668.49  419.41
   0   1   2 4166.52  374.61
   0  -1  -2 4238.69  380.92
   0   1   3 5059.43  454.63
   0  -1  -3 5263.12  460.20
   0  -1  -3 5014.61  458.62
   0   1   4 1699.92  154.15
   0   1   4 1649.42  157.74
   0  -1   4 1459.90  140.38
   0  -1  -4 1540.11  140.78
   0   1   5  148.09   39.06
   0   1   5  166.94   29.53
   0   1  -5  155.86   32.77
   0  -1  -5  194.18   36.77
   0  -1  -5  125.10   35.69
   0  -1   5  163.07   37.79
   0  -1   5  150.29   37.89
   0   1  -6 2409.07  210.37
   0   1   6 2058.95  212.73
   0   1   6 2293.42  208.69
   0  -1   6 2776.20  235.35
   0  -1   6 2366.01  234.47
   0  -1  -6 2688.49  232.78
   0  -1  -6 2297.41  233.63
   0   1   7 1636.12  174.83
   0   1   7 1819.78  169.86
   0   1  -7 1984.79  172.10
   0  -1   7 1991.91  172.40
   0  -1   7 1772.04  171.40
   0  -1  -7 1929.39  168.66
   0  -1  -7 1541.85  168.20
   0   1   8  579.18   63.11
   0   1   8  650.27   74.06
   0   1  -8  545.09   65.23
   0  -1  -8  786.77   72.67
   0  -1   8  512.82   79.54
   0  -1  -8  661.07   73.23
   0  -1   8  624.82   78.76
   0   1   9  379.03   60.37
   0   1   9  315.20   44.80
   0   1  -9  237.51   45.21
   0  -1  -9  487.54   55.12
   0  -1  -9  412.26   55.90
   0  -1   9  330.64   64.40
   0  -1   9  308.61   65.97
   0   1 -10   84.91   37.31
   0   1  10   68.72   37.10
   0   1  10   70.16   54.82
   0  -1  10   47.15   57.27
   0  -1 -10   65.67   37.42
   0  -1  10   82.57   54.68
   0  -1 -10   73.46   36.10
   0   1  11   35.69   37.81
   0   1 -11   55.45   36.06
   0   1  11   79.47   57.22
   0  -1  11   79.01   59.29
   0  -1 -11  104.68   39.19
   0  -1 -11  104.06   40.98
   0   1 -12  147.96   43.37
   0   1  12  147.21   42.31
   0   1  12  116.67   64.33
   0  -1  12  188.23   62.63
   0  -1 -12  119.09   44.19
   0  -1 -12  178.51   42.15
   0   1 -13  143.82   46.31
   0   1  13  220.49   69.64
   0  -1  13  175.46   69.26
   0  -1 -13  178.68   50.34
   0  -1 -13  231.47   48.24
   0   1  14    0.90   67.64
   0  -1  14   42.50   69.32
   0  -1 -14   -1.52   45.16
   0   2   0  440.81   44.94
   0  -2   0  322.27   34.61
   0   2  -1 2076.55  188.46
   0  -2  -1 1848.76  168.24
   0   2  -2  773.17   73.98
   0  -2  -2  792.52   77.25
   0  -2  -3  194.77   31.79
   0   2   4  679.29   68.75
   0  -2  -4  628.18   61.23
   0  -2  -4  569.58   65.11
   0   2   5 1907.24  175.41
   0  -2  -5 1919.26  175.98
   0  -2  -5 1866.96  172.95
   0   2   6 1991.17  183.06
   0  -2   6 1717.57  159.50
   0  -2   6 1504.83  159.86
   0  -2  -6 1803.34  159.33
   0   2   7  191.58   33.71
   0   2  -7  212.02   38.95
   0  -2  -7  180.34   38.04
   0  -2   7  114.57   41.99
   0  -2   7  148.20   41.98
   0   2   8  915.94   91.38
   0   2  -8  945.91   95.56
   0  -2   8 1173.13  113.47
   0  -2   8  991.04  111.71
   0  -2  -8  955.08  108.02
   0  -2  -8 1189.08  108.47
   0   2  -9  849.45   86.56
   0   2   9  758.96   81.02
   0  -2   9  857.24   90.11
   0  -2   9  745.83   89.62
   0  -2  -9  595.81   82.30
   0  -2  -9  814.11   82.00
   0   2 -10  107.23   40.99
   0   2  10  121.18   35.95
   0  -2  10  109.44   53.00
   0  -2  10  122.71   55.77
   0  -2 -10  126.47   43.04
   0  -2 -10  139.10   42.38
   0   2  11  104.16   36.53
   0   2 -11   49.21   41.12
   0  -2 -11   77.72   39.77
   0  -2  11   48.65   58.33
   0  -2  11   57.33   59.49
   0  -2 -11   59.51   41.99
   0   2  12  144.73   37.67
   0   2 -12  110.46   47.68
   0  -2  12  110.73   66.25
   0  -2  12  122.71   64.65
   0  -2 -12  164.20   47.51
   0  -2 -12  173.94   45.14
   0   2 -13   89.53   47.61
   0  -2  13   82.75   68.61
   0  -2  13  142.99   72.77
   0  -2 -13   68.42   43.08
   0  -2 -13   95.35   42.27
   0  -2 -14   38.00   41.15
   0   3   0  499.52   51.65
   0  -3   0  436.53   45.13
   0   3  -1 2352.55  214.21
   0  -3  -1 1727.55  158.23
   0   3  -2  958.58   91.35
   0  -3  -2  813.33   77.08
   0  -3   2  842.16   76.58
   0  -3  -2  671.95   72.90
   0   3  -3  823.70   80.28
   0  -3  -3  802.03   81.81
   0  -3   3  869.46   85.86
   0  -3  -3  886.83   83.47
   0   3  -4  287.02   36.60
   0  -3  -4  388.20   46.06
   0  -3  -5  526.33   56.27
   0  -3  -6  122.75   38.62
   0  -3  -6  140.01   30.97
   0  -3  -7  435.50   59.31
   0  -3  -7  456.87   52.01
   0  -3   8  298.88   59.06
   0  -3  -8  393.62   53.81
   0  -3   8  323.88   57.56
   0   3   9  301.99   44.53
   0   3  -9  251.38   48.67
   0  -3   9  119.71   51.02
   0  -3   9  124.06   55.87
   0  -3  -9  203.92   43.72
   0   3  10  166.85   39.85
   0   3 -10  172.40   46.88
   0  -3 -10  280.00   50.13
   0  -3  10  294.23   63.36
   0  -3 -10  267.52   53.26
   0  -3  10  259.10   61.14
   0   3  11   58.53   35.24
   0   3 -11  102.82   45.67
   0  -3  11  149.36   61.90
   0  -3  11  150.86   59.81
   0  -3 -11   46.59   44.99
   0  -3 -11  103.96   44.85
   0   3 -12  155.42   47.84
   0  -3  12  181.34   67.28
   0  -3  12  259.63   68.68
   0  -3 -12  115.89   50.52
   0  -3 -12  210.34   48.47
   0  -3 -13   10.74   42.55
   0   4   0  364.72   43.99
   0  -4   0  387.84   42.64
   0   4  -1  341.50   41.57
   0  -4  -1  466.20   48.40
   0   4  -2  236.02   34.15
   0  -4   2  272.12   39.31
   0  -4  -2  208.14   41.51
   0  -4  -2  192.29   30.78
   0   4  -3  225.55   33.72
   0  -4   3  237.27   40.40
   0  -4  -3  145.64   28.96
   0  -4  -3  170.11   37.78
   0   4  -4  -28.61   21.33
   0  -4   4  333.16   46.35
   0  -4  -4  332.12   43.87
   0  -4  -4  233.98   39.46
   0   4  -5   90.91   28.65
   0  -4   5   17.95   35.05
   0  -4  -5   24.60   30.29
   0  -4  -5   25.73   27.69
   0   4  -6  136.48   34.25
   0  -4  -6  202.37   36.78
   0  -4  -6  178.04   45.42
   0   4  -7  356.18   49.00
   0  -4  -7  408.01   63.63
   0  -4  -7  513.85   55.91
   0   4  -8   66.23   34.70
   0  -4  -8   62.68   32.46
   0  -4  -8   57.20   43.15
   0  -4  -9   64.92   45.39
   0  -4  10   34.62   57.50
   0  -4 -10   -1.06   44.30
   0  -4  10   15.52   51.89
   0  -4  11   -0.73   62.98
   0  -4  11  -22.23   56.15
   0  -4 -11   33.10   46.41
   0  -4 -11    8.17   43.66
   0  -4 -12   95.73   46.92
   0   5  -1  157.57   31.58
   0  -5  -1  105.75   43.28
   0  -5  -1  109.38   25.62
   0   5  -2  113.38   27.41
   0  -5  -2   32.11   22.84
   0  -5   2   57.64   36.40
   0  -5  -2   35.18   38.02
   0   5  -3  -32.64   21.68
   0  -5   3  108.37   40.94
   0  -5  -3   73.38   27.14
   0  -5  -3   85.17   39.47
   0   5  -4  125.07   33.36
   0  -5   4   80.33   40.45
   0  -5  -4   60.73   37.74
   0  -5  -4   80.48   28.32
   0   5  -5   59.34   31.90
   0  -5  -5   49.60   34.72
   0  -5   5   63.83   41.82
   0  -5  -5   24.54   29.20
   0   5  -6   81.39   34.15
   0  -5  -6   12.60   31.80
   0  -5   6   85.59   46.52
   0  -5  -6   32.56   34.22
   0   5  -7   56.95   32.98
   0  -5   7   36.97   50.88
   0  -5  -7   31.07   36.08
   0  -5  -7   33.92   34.39
   0  -5  -7   50.78   46.32
   0   5  -8   13.57   35.01
   0  -5  -8   26.78   47.58
   0  -5  -8   22.69   34.15
   0   5  -9   -4.93   37.92
   0  -5  -9   26.51   47.09
   0  -5  -9   23.43   35.64
   0   5 -10  123.04   44.49
   0  -5 -10  113.47   50.58
   0  -6   0   31.72   48.90
   0  -6  -1   30.01   46.83
   0  -6   1   59.04   40.14
   0   6  -2   56.30   27.71
   0  -6   2   75.18   44.26
   0  -6  -2   59.76   44.58
   0  -6  -2   45.24   24.35
   0   6  -3   52.76   31.61
   0  -6  -3   37.84   42.43
   0  -6  -3   18.76   23.18
   0  -6   3   65.77   45.03
   0   6  -4    1.14   32.36
   0  -6   4   18.01   41.69
   0  -6  -4   16.65   40.74
   0  -6  -4   14.45   25.41
   0   6  -5   42.52   33.83
   0  -6   5    2.61   46.30
   0  -6  -5   31.28   29.27
   0  -6  -5   70.69   40.05
   0   6  -6   18.06   36.53
   0  -6   6   37.46   47.92
   0  -6  -6   27.43   31.02
   0  -6  -6   19.69   38.52
   0   6  -7   37.46   37.36
   0  -6   7   69.93   54.56
   0  -6  -7   32.25   38.46
   0  -6  -7   51.22   50.49
   0   6  -8    6.93   37.60
   0  -6  -8  117.29   52.87
   0   6  -9   -1.05   37.73
   0  -7   0    6.52   42.73
   0  -7   1   52.29   47.10
   0  -7  -1   -0.55   49.03
   0  -7  -2   13.76   48.73
   0  -7   2   50.10   49.19
   0  -7   3   -1.66   47.21
   0  -7  -3   -3.69   47.91
   0  -7   4   61.40   46.17
   0  -7  -4   84.56   46.62
   0  -7  -5   32.49   41.73
   0  -7  -6   30.20   41.70
   1   0 -15    8.49   39.36
  -1   0  15  -14.04   72.48
   1   0 -14  100.10   41.16
  -1   0  14  157.02   71.88
   1   0 -13   55.82   37.75
  -1   0  13  129.51   66.65
  -1   0  13   39.24   42.88
  -1   0  12   17.57   60.31
   1   0 -12    4.52   34.11
   1   0 -11   -7.50   34.32
  -1   0  11   12.47   55.88
   1   0 -10  191.87   40.53
  -1   0  10  212.91   56.40
   1   0  -9  596.46   73.99
  -1   0   9  729.61   82.72
   1   0  -9  747.62   73.91
   1   0  -8  199.39   38.57
  -1   0   8  201.41   47.38
   1   0  -8  228.56   37.07
   1   0  -7  161.97   35.13
  -1   0   7  239.85   43.97
  -1   0   7  151.16   45.45
   1   0  -7  189.71   34.44
   1   0  -6   50.92   26.35
   1   0  -6   38.02   28.55
  -1   0   6   40.82   37.36
  -1   0   6   44.47   33.58
   1   0  -5 1540.26  142.15
   1   0  -5 1500.05  142.95
  -1   0   5 1458.88  145.39
  -1   0   5 1653.60  144.79
   1   0  -4 1988.65  182.63
  -1   0   4 2106.55  183.44
  -1   0   4 1925.73  184.23
   1   0  -4 1964.14  182.14
   1   0  -3 2224.13  195.78
  -1   0   3 2133.52  195.79
   1   0  -3 2199.62  195.53
  -1   0   3 2032.39  196.41
   1   0  -2   24.88   12.49
  -1   0   2   45.48   13.64
  -1   0   2   29.44   14.96
  -1   0  -4 1959.41  181.99
   1   0   5 1900.79  189.04
  -1   0  -5 2122.29  188.02
   1   0   6 1755.20  172.11
  -1   0  -6 1680.64  169.31
  -1   0  -6 2013.27  170.55
   1   0   7 1380.72  138.48
  -1   0  -7 1501.42  135.43
  -1   0  -7 1331.55  134.98
   1   0   8   33.24   44.91
  -1   0  -8   45.77   34.66
  -1   0  -8   48.83   35.55
   1   0   9   42.31   50.62
  -1   0  -9   28.50   35.86
  -1   0  -9   22.86   38.03
  -1   0 -10  229.01   44.65
  -1   0 -10  204.57   47.41
   1   0  10  238.94   60.60
  -1   0 -11   84.09   42.92
  -1   0 -11   97.87   43.21
   1   0  11  106.57   61.43
   1   0  12  241.75   68.28
  -1   0 -12  168.61   49.73
   1   0  12  141.32   54.64
   1   0  13  125.18   68.91
  -1   0 -13   82.06   45.89
   1   0  13   54.77   50.20
  -1   1  15   67.95   73.83
   1  -1 -15   23.20   39.85
   1   1 -14  -14.22   43.58
  -1   1  14  -11.17   67.69
  -1  -1  14    2.62   68.59
   1  -1 -14  -12.16   42.56
   1  -1 -14  -18.30   39.06
   1   1 -13   87.40   44.05
  -1   1  13  116.88   64.94
   1  -1 -13   83.36   43.26
   1  -1 -13  147.65   42.71
  -1  -1  13   90.14   63.66
   1   1 -12  109.82   39.87
  -1   1  12   95.85   35.49
  -1   1  12  131.27   62.86
  -1  -1  12  117.62   64.60
   1  -1 -12  151.91   40.17
   1  -1 -12   99.08   41.96
   1   1 -11  130.08   37.56
  -1   1  11  112.68   34.94
  -1   1  11  179.41   58.19
   1  -1 -11  185.30   42.13
   1  -1 -11  158.63   37.09
  -1  -1  11  170.39   59.72
  -1  -1  11  135.16   62.72
   1   1 -10   73.07   33.76
  -1   1  10   34.72   30.34
  -1   1  10   19.88   50.98
  -1  -1  10  104.68   50.46
   1  -1 -10   47.57   35.76
   1  -1 -10   69.96   33.65
  -1  -1  10   80.30   53.89
   1   1  -9   41.51   29.98
  -1   1   9   29.82   27.81
  -1   1   9   43.56   46.14
   1  -1  -9   21.65   32.29
  -1  -1   9   56.15   47.89
   1  -1  -9   39.87   29.82
  -1  -1   9   80.25   46.01
   1   1  -8  117.82   33.65
  -1   1   8  197.02   45.72
  -1   1   8  182.71   30.55
  -1  -1   8  142.83   47.82
   1  -1  -8  290.67   38.96
  -1  -1   8  147.69   47.09
   1  -1  -8  229.63   40.06
   1   1  -7 1152.44  108.34
  -1   1   7 1056.83  112.29
  -1   1   7 1128.47  104.96
   1  -1  -7 1383.34  114.91
  -1  -1   7 1197.92  119.07
  -1  -1   7 1079.56  118.88
   1  -1  -7 1072.78  114.93
  -1   1   6  728.28   69.93
  -1   1   6  680.94   77.58
   1   1  -6  746.72   73.57
  -1  -1   6  928.37   96.01
   1  -1  -6 1097.41   94.29
   1  -1  -6  947.36   94.63
  -1  -1   6  835.96   96.07
   1   1  -5  132.46   29.43
  -1   1   5  120.06   22.33
  -1   1   5  125.72   36.53
  -1  -1   5  273.26   40.71
   1  -1  -5  294.64   37.40
   1  -1  -5  273.04   39.26
  -1  -1   5  259.33   43.83
  -1   1   4  634.15   69.40
  -1   1   4  675.37   63.67
   1   1  -4  706.10   67.74
   1  -1  -4  681.68   66.56
  -1  -1   4  629.85   67.35
  -1  -1   3 1244.67  104.02
   1  -1  -3 1054.21  100.25
   1  -1  -3 1109.61  102.78
   1   1  -2   95.16   22.55
   1   1  -1 3604.53  324.60
   1   1   0  375.11   39.74
   1  -1   0  308.42   34.16
  -1  -1   0  351.53   35.92
  -1   1  -1 2261.46  215.96
   1   1   1 2551.55  216.55
  -1  -1  -1 2065.12  187.62
   1   1   2 2679.37  242.72
  -1  -1  -2 2491.80  226.02
   1   1   3  229.19   35.74
  -1  -1  -3  318.27   41.04
   1   1   4  375.84   50.45
   1   1   4  351.52   44.81
  -1  -1  -4  541.84   61.24
   1   1   5 1939.20  171.95
   1   1   5 1735.88  168.04
   1  -1   5 1890.73  183.96
  -1  -1  -5 2018.52  182.81
  -1   1  -6  195.06   38.30
   1   1   6  211.33   36.94
   1   1   6  178.22   43.84
  -1  -1  -6  196.50   40.90
  -1  -1  -6  229.37   41.69
   1  -1   6  151.15   42.74
   1   1   7   79.29   35.39
   1   1   7   56.41   42.10
  -1   1  -7   92.06   35.89
  -1  -1  -7   87.83   36.78
   1  -1   7   54.16   40.55
  -1  -1  -7   74.80   35.42
   1  -1   7   19.02   42.65
  -1   1  -8  388.20   53.53
   1   1   8  365.66   51.56
   1   1   8  356.57   61.13
   1  -1   8  476.33   67.13
   1  -1   8  381.37   66.67
  -1  -1  -8  391.75   56.92
  -1  -1  -8  524.77   59.86
   1   1   9  521.05   65.84
  -1   1  -9  498.38   67.00
   1   1   9  659.88   77.84
  -1  -1  -9  820.72   78.65
  -1  -1  -9  693.15   77.74
   1  -1   9  592.69   86.37
   1  -1   9  511.86   85.57
   1   1  10  649.92   85.70
  -1   1 -10  668.47   74.61
   1   1  10  577.61   73.33
   1  -1  10  711.31   85.59
  -1  -1 -10  493.40   71.90
  -1  -1 -10  661.41   73.95
   1   1  11   10.61   41.75
   1   1  11   44.43   58.53
  -1   1 -11   23.36   40.55
  -1  -1 -11   42.26   39.83
   1  -1  11   61.07   58.40
  -1  -1 -11   10.78   39.18
   1   1  12    0.77   60.68
   1   1  12   51.25   43.14
  -1   1 -12   65.72   43.06
   1  -1  12   44.87   62.72
  -1  -1 -12   15.98   41.92
  -1  -1 -12   13.92   41.70
  -1   1 -13  101.33   42.69
   1   1  13   48.60   67.93
   1  -1  13  123.43   69.35
  -1  -1 -13   42.11   45.66
  -1  -1 -13   94.21   44.81
  -1  -1 -14   26.67   48.17
  -1  -2  14  109.51   74.20
  -1  -2  14   81.84   70.02
   1  -2 -14  -15.98   39.97
   1  -2 -14   73.32   42.39
   1   2 -13  102.16   43.61
   1  -2 -13   51.71   41.02
  -1  -2  13  176.85   71.74
  -1  -2  13  139.86   69.34
   1  -2 -13   35.10   36.95
   1   2 -12   42.75   39.41
  -1   2  12   33.60   27.01
   1  -2 -12   39.15   39.80
   1  -2 -12   40.91   36.52
  -1  -2  12   58.34   62.02
  -1  -2  12   50.43   59.94
   1   2 -11   19.88   37.11
  -1   2  11   57.62   28.32
  -1  -2  11   55.68   59.55
   1  -2 -11   42.46   38.15
   1  -2 -11   48.47   34.94
  -1  -2  11   24.52   54.69
   1   2 -10  441.68   64.31
  -1   2  10  570.40   56.83
   1  -2 -10  642.08   65.51
   1  -2 -10  548.93   67.22
  -1  -2  10  410.15   75.21
  -1  -2  10  495.94   76.63
  -1   2   9   46.76   25.57
   1   2  -9   60.03   35.29
  -1  -2   9    8.31   45.21
  -1  -2   9   88.11   47.98
   1  -2  -9   47.66   37.24
   1  -2  -9   82.14   34.34
  -1   2   8  454.83   50.43
   1   2  -8  498.64   57.08
   1  -2  -8  466.30   55.81
   1  -2  -8  447.10   58.52
  -1  -2   8  503.26   64.40
  -1  -2   8  509.14   63.38
  -1   2   7  197.56   30.54
   1   2  -7  198.32   37.10
  -1  -2   7  106.14   40.15
  -1  -2   7  113.47   36.87
   1  -2  -7  143.83   33.42
   1  -2  -7  113.21   33.59
  -1  -2   6  297.80   48.22
   1  -2  -6  318.97   44.32
   1  -2  -6  334.51   37.74
   1  -2  -5  191.91   27.62
  -1  -2   5  188.54   37.13
   1  -2  -5  223.18   34.88
   1  -2  -4   79.60   22.33
   1   2  -3 1195.06  112.27
   1  -2  -3 1105.27  103.14
   1   2  -2 1013.22   95.86
   1   2  -1  217.87   31.67
  -1  -2   1  181.23   30.16
   1  -2  -1  223.18   22.66
   1   2   0  199.46   32.13
  -1   2   0  230.95   25.43
  -1  -2   0  196.92   28.76
   1  -2   1  581.99   61.67
  -1  -2  -1  665.26   61.84
  -1  -2  -1  566.10   63.42
   1   2   2 1942.31  175.38
  -1   2  -2 1859.00  174.84
  -1  -2  -2 1890.01  176.17
   1  -2   2 1944.54  176.45
  -1   2  -3  169.01   31.50
   1   2   3  146.27   33.29
  -1  -2  -3  191.67   32.38
   1   2   4  224.90   37.21
  -1  -2  -4  168.30   32.60
  -1  -2  -4  195.79   39.62
   1   2   5  316.05   42.61
  -1  -2  -5  262.60   38.90
  -1  -2  -5  299.30   43.67
   1   2   6  391.77   49.44
  -1  -2  -6  274.78   45.91
   1   2   7  339.47   46.09
   1  -2   7  297.16   55.34
  -1  -2  -7  382.61   51.41
  -1   2  -8  203.31   38.74
   1   2   8  153.29   37.57
  -1  -2  -8  157.42   44.25
   1  -2   8  164.60   51.67
  -1  -2  -8  195.71   45.24
   1   2   9  375.13   49.56
  -1   2  -9  333.33   53.52
  -1  -2  -9  392.59   52.99
   1  -2   9  321.18   63.01
   1  -2   9  283.09   60.89
  -1  -2  -9  312.77   55.52
   1   2  10  127.30   38.12
  -1   2 -10   90.66   40.80
  -1  -2 -10   99.97   44.87
   1  -2  10  100.46   56.88
   1  -2  10   82.85   56.81
  -1  -2 -10   96.88   45.04
   1   2  11  425.24   55.86
  -1   2 -11  421.84   62.85
  -1  -2 -11  431.37   67.61
   1  -2  11  558.96   86.48
   1  -2  11  501.25   83.03
  -1  -2 -11  571.03   68.54
   1   2  12  131.92   42.31
  -1   2 -12  109.13   48.50
  -1  -2 -12  128.75   47.74
   1  -2  12   66.02   64.99
   1  -2  12   49.02   68.54
  -1  -2 -12  118.03   48.37
   1  -2  13    1.72   65.18
  -1  -2 -13   56.37   41.79
  -1  -3  13  223.44   71.56
  -1  -3  13  229.52   74.22
   1  -3 -13  223.65   45.82
   1  -3 -13  150.64   49.77
  -1  -3  12   83.15   65.64
   1  -3 -12  127.13   42.10
  -1  -3  12   90.81   62.46
   1  -3 -12   83.08   43.98
  -1  -3  11  102.03   59.81
  -1  -3  11   82.15   56.42
   1  -3 -11   97.24   39.89
   1  -3 -11   92.03   43.83
  -1  -3  10  229.20   59.56
  -1  -3  10  195.57   56.28
   1  -3 -10  214.09   41.96
   1  -3 -10  147.85   46.43
  -1  -3   9  112.34   47.14
   1  -3  -9   57.51   37.12
  -1  -3   9  102.96   48.77
   1  -3  -9   40.67   36.17
  -1  -3   8  394.77   60.77
  -1  -3   8  399.47   64.46
   1  -3  -8  483.25   58.14
   1  -3  -7  199.13   32.03
   1  -3  -7  275.10   43.22
  -1  -3   7  207.18   47.96
   1   3  -6  190.16   33.98
   1  -3  -6  135.92   35.46
   1  -3  -6  123.02   27.21
   1   3  -5  -29.83   22.17
   1  -3  -5  380.41   42.85
   1   3  -4  397.44   45.44
   1  -3  -4  351.76   42.43
   1   3  -3  193.80   29.74
   1  -3  -3  197.45   27.79
   1  -3  -3  203.47   35.14
   1   3  -2  688.55   69.56
   1  -3  -2  631.77   60.34
   1   3  -1  318.04   39.62
   1  -3  -1  179.00   23.48
  -1  -3   1  245.15   30.45
  -1   3   0  841.46   93.87
   1   3   0 1373.36   98.33
  -1  -3   0 1442.26  128.77
  -1  -3   0 1269.10  132.02
  -1   3  -1  506.28   51.18
  -1  -3  -1  480.13   57.77
   1  -3   1  582.96   56.47
  -1  -3  -1  478.76   54.06
  -1   3  -2  207.50   29.16
   1  -3   2  327.98   39.72
  -1  -3  -2  238.80   36.58
  -1  -3  -2  233.28   39.49
  -1  -3  -3  662.03   66.29
   1  -3   3  638.69   67.47
  -1  -3  -3  604.86   66.13
   1  -3   4  354.59   48.81
  -1  -3  -4  326.37   43.40
   1   3   5  655.93   71.34
   1  -3   5  524.84   68.45
  -1  -3  -5  629.98   64.25
  -1  -3  -5  646.58   70.13
   1   3   6  285.84   46.49
  -1  -3  -6  252.37   47.09
  -1  -3  -6  235.02   38.01
   1   3   7  221.81   42.42
  -1  -3  -7  200.06   39.15
  -1  -3  -7  191.31   45.87
   1   3   8  334.30   49.84
  -1  -3  -8  287.86   52.03
   1   3   9  139.86   40.16
  -1  -3  -9   96.59   44.24
   1  -3   9  116.55   52.40
   1   3  10  177.59   41.67
  -1   3 -10  107.42   45.73
   1  -3  10  214.08   64.33
  -1  -3 -10  210.11   51.92
  -1  -3 -10  219.57   50.75
   1   3  11  233.31   44.92
  -1   3 -11  160.08   48.85
  -1  -3 -11  234.11   51.60
  -1  -3 -11  180.41   53.29
   1  -3  11  143.73   60.83
   1  -3  11  177.91   65.57
  -1  -3 -12  127.06   49.56
   1  -3  12   77.44   66.16
   1  -3  12  130.13   68.51
  -1  -3 -12   71.36   48.58
  -1  -3 -13   67.93   47.03
   1  -4 -12  121.15   49.73
  -1  -4  12  109.23   66.03
   1   4 -11   40.42   38.48
  -1  -4  11   58.53   54.93
   1  -4 -11   91.23   45.48
   1  -4 -11  111.67   39.57
  -1  -4  11   55.53   61.74
   1   4 -10  112.74   41.20
  -1  -4  10   79.71   54.66
  -1  -4  10   65.27   51.47
   1  -4 -10  121.37   42.31
   1  -4 -10  162.88   45.06
   1   4  -9  131.26   39.92
  -1  -4   9  119.13   47.39
   1  -4  -9  163.85   44.68
  -1  -4   9  117.29   53.02
   1   4  -8   87.08   36.41
  -1  -4   8   58.94   50.61
   1  -4  -8  116.86   31.04
   1  -4  -8   82.37   41.24
   1   4  -7  236.44   42.38
   1  -4  -7  197.48   35.18
   1  -4  -7  180.72   43.80
   1   4  -6  174.66   36.75
   1  -4  -6  181.30   33.90
   1   4  -5  129.13   31.21
   1  -4  -5  110.76   27.89
   1  -4  -5  112.83   32.10
   1   4  -4  -30.73   22.18
   1  -4  -4  191.51   30.90
  -1  -4   4  248.17   43.81
   1  -4  -4  243.87   37.53
   1   4  -3  135.45   29.37
   1  -4  -3  163.46   36.69
  -1  -4   3  203.89   37.43
   1  -4  -3   96.73   22.50
   1   4  -2  479.62   52.90
   1  -4  -2  293.01   32.45
   1   4  -1  179.36   31.64
  -1  -4   1  191.46   31.58
   1   4   0  175.91   31.46
  -1   4   0  182.61   27.84
  -1  -4   0  189.98   43.23
  -1  -4   0  190.44   30.69
  -1   4  -1   95.94   24.70
   1  -4   1   63.65   29.92
  -1  -4  -1   62.60   26.58
  -1  -4  -1   56.92   35.24
  -1   4  -2   69.01   23.86
  -1  -4  -2   90.22   35.37
   1  -4   2   80.28   33.28
  -1  -4  -2   93.60   27.95
  -1   4  -3  181.03   29.40
   1  -4   3  219.45   41.81
  -1  -4  -3  297.24   40.32
  -1  -4  -3  283.14   43.64
  -1   4  -4  104.06   24.91
  -1  -4  -4  277.38   40.42
  -1  -4  -4  221.04   40.04
   1  -4   4  236.46   44.36
  -1   4  -5   88.06   26.24
  -1  -4  -5   66.31   33.28
   1  -4   5  110.37   43.21
  -1  -4  -5   89.80   33.96
  -1  -4  -6  124.68   45.07
   1  -4   6  171.50   45.84
  -1  -4  -6  140.94   36.01
   1  -4   7  163.10   50.29
  -1  -4  -7  224.57   40.42
  -1  -4  -7  244.16   51.14
  -1  -4  -8  168.05   48.53
  -1  -4  -8  140.95   39.72
  -1  -4  -9  115.01   47.89
  -1  -4 -10  132.68   49.80
   1  -4  11  -16.04   65.36
  -1  -4 -11  123.65   51.22
  -1  -4 -11   79.78   49.17
  -1  -4 -12   67.59   50.36
   1  -5 -11   14.51   45.26
   1   5 -10   15.33   40.75
  -1  -5  10   21.77   53.21
   1  -5 -10    1.69   45.96
  -1  -5  10   18.85   56.61
   1   5  -9   93.55   39.67
   1  -5  -9  105.27   34.01
   1  -5  -9  109.72   48.01
   1   5  -8   33.06   36.47
   1  -5  -8   61.74   32.77
   1  -5  -8   22.27   43.60
   1   5  -7   25.36   33.19
   1  -5  -7   42.20   32.33
   1  -5  -7   34.02   42.93
   1  -5  -7   58.89   32.83
   1   5  -6   43.96   34.30
   1  -5  -6   69.41   28.54
   1  -5  -6   74.63   33.33
  -1  -5   6   48.35   41.50
   1   5  -5   87.08   34.75
   1  -5  -5   84.81   36.33
   1  -5  -5   68.55   25.36
  -1  -5   5   83.49   44.39
   1   5  -4   82.82   31.54
   1  -5  -4   51.23   23.45
   1  -5  -4   65.54   37.51
  -1  -5   4  142.85   43.21
   1   5  -3  241.53   37.17
   1  -5  -3  176.65   42.74
  -1  -5   3  212.97   43.67
   1  -5  -3  157.27   25.33
   1   5  -2  -40.58   23.44
   1  -5  -2   14.99   40.00
   1  -5  -2   22.29   18.68
   1   5  -1  -38.55   24.76
  -1  -5   1   17.10   42.10
  -1  -5   0   50.50   26.82
  -1  -5   0   50.29   43.98
   1  -5   0   55.89   32.90
  -1   5  -1   61.45   25.82
  -1  -5  -1   71.92   27.02
  -1  -5  -1   67.50   41.95
   1  -5   1   70.47   35.77
  -1   5  -2   87.71   26.46
  -1  -5  -2   75.84   29.41
   1  -5   2   51.76   37.04
  -1  -5  -2   96.53   40.38
  -1   5  -3  -36.20   22.95
  -1  -5  -3   28.44   28.18
   1  -5   3   86.24   37.76
  -1  -5  -3   41.37   39.03
  -1   5  -4   82.66   26.87
   1  -5   4   63.84   40.64
  -1  -5  -4   53.82   30.98
  -1  -5  -4   66.36   36.73
  -1   5  -5   70.81   30.98
  -1  -5  -5  123.31   38.71
   1  -5   5  111.38   47.84
  -1  -5  -5   80.86   35.10
  -1   5  -6  171.60   38.51
  -1  -5  -6  172.31   41.99
   1  -5   6  202.01   52.02
  -1  -5  -6  220.03   43.48
  -1   5  -7  112.76   37.72
  -1  -5  -7  134.11   43.69
  -1  -5  -7  199.90   50.83
  -1  -5  -7  173.99   41.34
   1  -5   7  173.53   51.82
  -1   5  -8   31.87   35.56
  -1  -5  -8   15.57   39.73
   1  -5   8   36.87   51.22
   1  -5   8   79.56   49.68
  -1  -5  -8   56.98   35.77
  -1  -5  -8   71.62   48.87
  -1   5  -9   69.89   38.42
   1  -5   9   86.79   55.31
  -1  -5  -9  109.22   52.16
  -1  -5  -9  109.91   41.02
   1  -5   9   70.54   55.43
  -1   5 -10   23.75   38.20
   1   6  -9   50.32   41.99
   1  -6  -9   47.22   49.59
   1   6  -8   40.54   40.10
   1  -6  -8   25.33   48.96
   1   6  -7   51.45   39.01
   1  -6  -7   34.02   36.84
  -1  -6   7   50.66   51.42
   1   6  -6   19.38   35.17
  -1  -6   6   30.86   48.73
   1  -6  -6   42.56   35.65
   1   6  -5  101.29   38.04
   1  -6  -5   51.96   40.28
  -1  -6   5   67.26   47.99
   1  -6  -5   52.80   23.41
   1   6  -4   80.84   36.26
   1  -6  -4   25.27   40.44
   1  -6  -4   25.63   20.09
  -1  -6   4   38.97   47.01
   1   6  -3  147.01   37.24
   1  -6  -3  125.62   46.15
  -1  -6   3  155.89   48.60
   1   6  -2  198.82   39.26
  -1  -6   2  249.68   49.15
  -1  -6   2  153.18   55.83
   1  -6  -2  127.84   51.24
  -1  -6   1  118.00   52.22
   1  -6  -1   76.57   48.67
   1  -6   0   44.64   38.22
  -1  -6   0   44.75   46.55
  -1   6  -1   29.93   24.26
  -1  -6  -1   14.65   27.49
  -1  -6  -1   33.49   44.13
   1  -6   1    8.17   39.23
  -1   6  -2  -56.27   24.07
   1  -6   2   42.79   39.81
  -1  -6  -2   23.86   43.52
  -1  -6  -2   24.03   27.29
  -1   6  -3  124.47   29.28
  -1  -6  -3   72.28   46.21
  -1  -6  -3  113.90   31.56
   1  -6   3  128.13   43.41
  -1   6  -4   57.73   31.35
  -1  -6  -4   30.83   32.61
   1  -6   4   57.73   42.79
  -1  -6  -4   31.20   40.17
  -1   6  -5   66.96   35.59
  -1  -6  -5   67.80   40.88
   1  -6   5   91.54   50.26
  -1  -6  -5   64.32   34.00
  -1   6  -6   17.94   33.73
   1  -6   6   59.44   51.69
  -1  -6  -6    4.78   34.10
  -1  -6  -6   44.70   40.39
  -1   6  -7   13.33   33.00
  -1  -6  -7   29.77   50.59
  -1  -6  -7    0.82   37.52
   1  -6   7    0.62   49.54
  -1  -6  -7   -3.58   39.83
  -1   6  -8   17.42   35.84
  -1   6  -9    6.26   38.12
   1  -7  -5   -6.58   42.88
  -1  -7   4   16.74   50.69
   1  -7  -4   -3.01   47.94
   1  -7  -3  -23.79   47.73
  -1  -7   3    5.37   49.90
   1  -7  -2   40.65   41.13
  -1  -7   2   13.74   47.68
   1  -7  -2  -11.04   49.07
  -1  -7   1  -19.50   42.92
   1  -7  -1   -2.35   42.30
   1  -7  -1    6.98   52.85
   1  -7   0    0.50   42.47
   1  -7   0   17.84   53.79
   1  -7   1   34.43   45.07
  -1  -7  -1   31.07   48.91
  -1  -7  -2    6.63   49.90
   1  -7   2   17.84   42.94
  -1  -7  -3   38.18   47.51
   1  -7   3   17.07   45.58
   1  -7   4    2.95   46.14
  -1  -7  -4   23.98   43.08
  -1  -7  -5   52.56   44.51
  -1  -7  -6  -17.19   44.06
   2   0 -15    8.63   40.20
  -2   0  15   20.10   69.07
   2   0 -14   29.22   37.72
  -2   0  14   44.02   68.13
  -2   0  13  184.93   45.96
   2   0 -13  256.20   44.37
  -2   0  13  327.31   71.63
   2   0 -12  114.58   34.97
  -2   0  12   57.24   58.34
   2   0 -11   58.74   29.86
  -2   0  11   59.95   53.97
   2   0 -10   10.77   27.85
  -2   0  10   12.24   49.00
   2   0  -9  100.18   28.58
  -2   0   9   93.70   45.55
  -2   0   9   77.23   45.12
   2   0  -8 1612.66  158.18
  -2   0   8 1789.16  164.83
  -2   0   8 1839.00  163.38
   2   0  -7  476.55   50.81
  -2   0   7  456.41   61.23
  -2   0   7  497.78   58.49
   2   0  -6 3192.25  292.20
  -2   0   6 3182.89  294.24
  -2   0   6 3357.21  295.49
  -2   0   5 1388.49  133.39
   2   0  -5 1471.81  130.45
  -2   0   5 1353.82  132.24
  -2   0   4  966.33   88.93
   2   0  -4  951.17   86.36
  -2   0   4  862.51   87.04
  -2   0   3 4419.63  410.92
  -2   0   3 4703.91  412.02
  -2   0   3 4734.96  411.45
   2   0  -2 3333.24  296.06
   2   0  -2 3160.14  295.37
  -2   0   2 3357.30  295.48
  -2   0   2 3341.77  296.22
   2   0  -1  558.15   56.00
   2   0  -1  573.72   56.46
  -2   0   1  613.94   57.40
  -2   0   1  589.92   55.86
   2   0   0   43.80   19.11
  -2   0   0   59.01   19.01
   2   0   1 5826.03  534.93
  -2   0  -1 6050.18  534.63
  -2   0  -2  453.31   53.94
  -2   0  -3 6837.35  616.34
  -2   0  -5  283.28   46.50
  -2   0  -6  885.15   91.49
   2   0   7  638.17   85.05
  -2   0  -7  845.97   82.66
   2   0   8  864.05   77.41
  -2   0  -8 1008.97   70.66
  -2   0  -9  295.73   50.67
   2   0   9  298.39   64.05
  -2   0  -9  338.70   52.18
   2   0  10   61.76   57.13
  -2   0 -10   44.83   42.14
  -2   0 -10   89.59   42.45
   2   0  11   33.25   51.68
   2   0  11   10.93   60.51
  -2   0 -11   16.03   44.07
  -2   0 -11   61.57   42.55
   2   0  12  172.14   58.14
   2   0  12  219.08   68.96
  -2   0 -12  202.98   51.88
  -2   0 -12  223.88   53.20
   2   0  13  182.48   69.85
   2   0  13  139.90   55.70
  -2   0 -13  142.23   53.35
   2   1 -15   78.46   43.37
  -2   1  15   70.32   70.87
   2  -1 -15   54.02   35.19
  -2  -1  15   67.95   72.02
   2   1 -14    7.24   38.36
  -2   1  14   39.09   65.94
   2  -1 -14   13.16   33.87
  -2  -1  14   46.71   67.24
   2   1 -13   -8.81   36.32
  -2   1  13  -10.96   62.28
   2  -1 -13   22.13   33.75
   2  -1 -13    0.45   38.89
  -2  -1  13   26.41   60.59
  -2   1  12   34.75   21.96
   2   1 -12    3.48   35.97
  -2   1  12  103.65   58.45
   2  -1 -12   60.59   38.16
   2  -1 -12   70.95   33.86
  -2  -1  12   26.09   59.39
  -2  -1  12   11.44   57.75
   2   1 -11  144.70   38.24
  -2   1  11  124.49   25.29
  -2   1  11  177.77   56.81
  -2  -1  11  152.45   58.39
   2  -1 -11  171.91   40.63
  -2  -1  11  185.64   61.56
   2  -1 -11  228.53   39.81
  -2   1  10  231.36   31.50
   2   1 -10  308.94   43.84
  -2   1  10  299.61   56.29
  -2  -1  10  371.65   62.08
   2  -1 -10  415.34   47.04
  -2  -1  10  365.32   65.86
   2  -1 -10  275.65   48.40
  -2   1   9  281.19   52.76
  -2   1   9  229.83   30.66
  -2  -1   9  413.68   58.51
   2  -1  -9  374.74   44.53
   2  -1  -9  288.54   47.43
  -2  -1   9  430.42   59.17
   2   1  -8  176.67   31.71
  -2   1   8  130.92   41.08
  -2   1   8  116.77   18.94
  -2  -1   8  181.94   45.01
   2  -1  -8  175.14   35.12
   2  -1  -8  186.63   30.54
  -2  -1   8  232.31   43.63
  -2   1   7  338.79   43.87
  -2   1   7  215.86   24.76
   2   1  -7  340.01   38.06
   2  -1  -7  319.46   41.66
   2  -1  -7  350.23   38.69
  -2  -1   7  302.41   48.82
  -2  -1   7  288.91   46.44
   2   1  -6  901.42   86.91
  -2   1   6  882.95   90.14
  -2  -1   6  998.62   99.42
   2  -1  -6  956.46   96.47
  -2  -1   6  880.24  100.39
   2  -1  -6 1103.24   95.06
  -2   1   5  948.82   93.25
   2  -1  -5 1264.73  110.94
   2  -1  -5 1207.28  112.64
  -2  -1   5 1067.15  113.54
  -2  -1   4  821.16   73.82
   2  -1  -4  700.09   70.89
   2  -1  -4  730.37   69.40
   2  -1  -3  745.76   70.45
  -2  -1   2  766.08   77.09
   2  -1  -2  794.25   72.11
  -2   1   1 2685.04  241.56
   2  -1  -1 2758.27  243.29
  -2  -1   1 2553.32  245.27
  -2   1   0 5991.76  538.19
   2  -1   0 6206.34  557.34
  -2   1  -1 3385.39  293.75
   2   1   1 3097.24  293.91
   2  -1   1 2982.54  277.69
   2  -1   1 3137.20  277.35
   2   1   2 2659.28  240.51
  -2   1  -2 2615.49  240.10
   2  -1   2 2921.18  253.86
  -2  -1  -2 2613.63  252.97
   2  -1   2 2829.20  253.15
  -2   1  -3  507.33   54.40
   2   1   3  431.45   54.53
   2  -1   3  563.41   62.12
   2   1   4  469.79   55.33
   2  -1   4  400.82   51.91
   2   1   5 2143.71  198.54
   2   1   6  803.01   88.79
   2   1   6  952.85   93.57
  -2  -1  -6  939.86   98.96
  -2  -1  -6 1071.26  101.50
   2  -1   6  936.13  102.10
   2   1   7   86.34   44.41
  -2   1  -7   84.41   32.16
   2   1   7   12.11   37.40
   2  -1   7   83.40   47.28
  -2  -1  -7  101.51   39.95
  -2  -1  -7  180.06   38.39
   2   1   8  104.10   50.18
  -2   1  -8  116.01   39.44
   2   1   8   86.94   42.07
  -2  -1  -8  141.22   42.66
  -2  -1  -8  115.52   42.95
   2   1   9  123.21   55.26
   2   1   9  116.52   45.06
  -2   1  -9  145.17   43.30
   2  -1   9  137.47   55.03
  -2  -1  -9  205.86   47.22
  -2  -1  -9  162.54   46.15
  -2   1 -10  493.75   63.25
   2   1  10  365.35   73.10
   2   1  10  334.47   60.20
   2  -1  10  406.95   71.23
  -2  -1 -10  470.14   62.22
  -2  -1 -10  318.25   59.14
  -2   1 -11  149.65   49.16
   2   1  11  132.02   64.10
   2   1  11  139.34   49.16
  -2  -1 -11  105.34   46.17
  -2  -1 -11   94.08   44.16
   2  -1  11   61.20   58.17
   2   1  12  191.76   53.77
   2   1  12  319.62   72.01
  -2   1 -12  208.69   54.25
   2  -1  12  147.41   67.45
  -2  -1 -12  229.83   52.03
  -2  -1 -12  230.42   53.31
   2   1  13   -2.68   68.46
  -2  -1 -13   26.42   46.92
   2  -1  13   64.30   68.09
  -2  -2  14   -3.31   69.24
  -2  -2  14   25.77   70.63
   2  -2 -14   35.02   37.90
   2  -2 -14   45.75   40.67
  -2  -2  13   97.20   59.76
   2  -2 -13   63.40   35.55
   2  -2 -13  112.59   41.35
  -2  -2  13   57.92   66.17
   2  -2 -12  107.39   40.05
  -2  -2  12  185.12   65.60
  -2  -2  12  244.90   63.05
   2  -2 -12  138.90   35.60
  -2  -2  11   65.99   55.47
   2  -2 -11   82.68   32.14
  -2  -2  11  108.32   56.36
   2  -2 -11   27.37   36.72
   2  -2 -10  118.41   31.77
  -2  -2  10   99.43   50.37
   2  -2 -10   65.10   35.32
  -2  -2  10   94.78   51.38
   2  -2  -9  128.65   35.78
  -2  -2   9   58.81   44.70
  -2  -2   9   54.69   43.43
   2  -2  -9  112.75   30.67
  -2  -2   8  369.37   65.06
   2  -2  -8  495.22   58.92
  -2  -2   8  465.21   62.48
   2  -2  -8  579.93   55.88
   2  -2  -7  642.97   65.23
  -2  -2   7  734.59   74.28
   2  -2  -7  593.32   67.48
   2  -2  -6  136.13   30.92
   2  -2  -6  136.37   20.43
   2   2  -5  657.24   66.70
   2  -2  -5  581.54   60.19
  -2  -2   5  622.53   64.27
   2  -2  -5  573.95   55.33
   2   2  -4  153.92   28.76
   2  -2  -4  103.17   21.09
  -2  -2   4  132.72   31.20
   2   2  -3 1526.67  141.75
   2   2  -2 1628.22  150.70
  -2  -2   2 1293.17  121.04
   2   2  -1 1248.03  117.15
   2  -2  -1  892.47   93.53
  -2  -2   1 1215.08   96.65
   2   2   0  509.66   55.86
  -2  -2   0  481.49   47.00
   2  -2   0  370.00   43.21
  -2   2  -1 1829.25  172.83
   2   2   1 1949.33  174.22
  -2  -2  -1 1948.92  166.63
   2  -2   1 1837.01  165.86
  -2  -2  -1 1603.52  166.05
  -2   2  -2 2831.21  258.39
   2   2   2 2834.31  258.79
  -2  -2  -2 2801.52  262.33
   2  -2   2 2966.37  262.72
   2   2   3  983.44   90.03
  -2   2  -3  839.16   88.12
   2  -2   3  726.46   75.71
  -2  -2  -3  732.57   74.85
   2   2   4  302.62   42.13
  -2   2  -4  244.73   36.92
   2  -2   4  284.22   45.94
   2  -2   4  297.94   46.02
  -2  -2  -4  311.05   41.11
  -2   2  -5   -2.57   18.85
   2   2   5  137.52   33.16
   2  -2   5  107.01   36.55
  -2  -2  -5  104.84   37.16
  -2  -2  -5  127.36   34.80
   2   2   6  545.66   62.80
  -2  -2  -6  494.28   63.77
   2  -2   6  542.52   64.76
   2   2   7  545.06   63.33
  -2  -2  -7  526.75   65.54
   2   2   8  232.40   45.42
   2  -2   8  297.36   60.06
  -2  -2  -8  307.51   53.07
  -2  -2  -8  326.95   55.01
   2   2   9  185.21   43.29
  -2   2  -9  133.08   40.70
   2  -2   9  121.88   57.10
  -2  -2  -9  180.40   48.30
  -2  -2  -9  145.31   49.26
  -2   2 -10  306.71   53.30
   2   2  10  342.48   53.05
  -2  -2 -10  335.85   58.39
   2  -2  10  351.20   70.21
  -2  -2 -10  268.00   55.89
   2   2  11   80.93   42.29
  -2   2 -11   78.68   42.69
  -2  -2 -11   88.21   47.36
   2  -2  11  111.32   63.32
  -2  -2 -11  136.94   51.32
  -2   2 -12  181.09   52.10
   2   2  12  171.60   47.43
  -2  -2 -12  134.12   50.75
   2  -2  12  168.51   68.07
  -2  -2 -12  211.38   54.52
  -2  -2 -13   40.59   49.85
   2  -3 -14   46.94   41.40
  -2  -3  13  128.37   65.57
  -2  -3  13  134.16   66.53
   2  -3 -13  119.33   44.93
  -2  -3  12   41.30   57.02
  -2  -3  12   -0.70   61.98
   2  -3 -12   -4.58   39.35
   2  -3 -12   18.52   34.44
  -2  -3  11   78.54   55.91
  -2  -3  11  179.79   59.41
   2  -3 -11  172.33   38.61
   2  -3 -11  225.51   45.35
   2  -3 -10  137.03   35.40
   2  -3 -10  100.66   41.57
  -2  -3  10  118.39   51.64
  -2  -3  10  139.35   51.23
   2   3  -9  431.53   56.30
  -2  -3   9  502.88   63.67
  -2  -3   9  501.84   67.31
   2  -3  -9  376.40   50.59
   2  -3  -9  347.53   54.47
   2   3  -8  139.12   36.11
   2  -3  -8  158.10   36.25
  -2  -3   8   83.31   46.24
   2   3  -7  526.21   60.66
   2  -3  -7  543.31   55.52
  -2  -3   7  491.54   66.52
   2  -3  -7  609.72   63.17
   2   3  -6  437.20   51.67
   2  -3  -6  221.07   30.39
   2  -3  -6  232.06   38.27
  -2  -3   6  241.03   41.94
   2   3  -5  -13.55   21.21
  -2  -3   5  197.51   40.18
   2  -3  -5  180.82   29.01
   2   3  -4  963.59   93.13
   2  -3  -4  678.89   68.85
   2   3  -3  337.87   41.91
   2  -3  -3  132.59   16.84
   2   3  -2  341.84   42.11
  -2  -3   2  276.29   38.50
   2   3  -1  982.72   95.32
   2  -3  -1  973.84   88.50
  -2  -3   1  867.76   90.12
  -2   3   0  799.81   83.87
   2   3   0 1294.75   90.53
   2  -3   0  976.29  101.38
  -2  -3   0 1053.82  103.93
  -2  -3   0 1176.48  102.46
  -2   3  -1  285.57   32.50
  -2  -3  -1  558.74   61.61
  -2  -3  -1  613.65   59.38
   2  -3   1  476.34   57.21
  -2  -3  -2  287.17   42.06
  -2  -3  -2  266.74   40.73
   2  -3   2  292.14   40.33
   2   3   3  283.20   45.50
   2  -3   3  241.17   41.01
  -2  -3  -3  293.10   40.71
  -2  -3  -3  229.81   39.29
   2   3   4  896.90   81.00
  -2   3  -4  639.74   76.62
   2  -3   4  756.55   79.39
  -2  -3  -4  765.38   78.51
   2   3   5  463.64   58.37
  -2   3  -5  470.90   55.59
  -2  -3  -5  495.62   59.64
   2  -3   5  410.48   56.98
   2  -3   5  399.36   56.43
  -2  -3  -5  452.51   53.57
   2   3   6  373.04   44.92
  -2   3  -6   31.00   33.87
   2  -3   6  170.13   48.23
  -2  -3  -6  310.86   43.83
  -2  -3  -6  381.72   51.37
   2  -3   6  229.98   50.87
   2   3   7  238.61   47.80
  -2   3  -7  269.62   44.71
   2  -3   7  298.14   53.47
  -2  -3  -7  280.98   52.91
   2   3   8  133.10   42.83
  -2  -3  -8  131.82   46.67
   2  -3   8  147.12   50.39
   2   3   9  280.12   51.51
  -2  -3  -9  196.14   50.79
   2   3  10   95.29   44.43
   2  -3  10   75.94   59.67
  -2  -3 -10   85.59   49.83
  -2  -3 -10  118.44   50.28
   2   3  11  127.54   44.66
  -2   3 -11   16.96   48.45
   2  -3  11  115.90   63.64
  -2  -3 -11  100.70   52.83
  -2  -3 -11  106.09   50.47
  -2  -3 -12   90.20   51.99
   2  -4 -13  112.44   45.04
   2  -4 -12   84.45   46.39
  -2  -4  12  150.57   63.43
  -2  -4  12   43.94   60.07
   2   4 -11   -4.19   41.18
   2  -4 -11   28.30   40.40
   2  -4 -11   68.26   36.24
  -2  -4  11   10.35   52.69
  -2  -4  11    2.78   55.36
   2   4 -10   78.13   40.58
  -2  -4  10  108.25   55.43
   2  -4 -10  114.61   41.49
   2  -4 -10   87.45   36.30
  -2  -4  10   89.66   50.48
   2   4  -9  148.91   42.10
  -2  -4   9  194.24   57.93
   2  -4  -9  235.15   45.27
   2  -4  -9  192.74   34.10
   2   4  -8   37.99   34.27
   2  -4  -8   38.38   37.72
  -2  -4   8    5.10   46.95
   2  -4  -8   10.81   25.97
   2   4  -7  281.62   45.23
   2  -4  -7  223.72   43.79
   2  -4  -7  174.33   33.89
  -2  -4   7  278.71   47.14
   2   4  -6  104.71   33.36
   2  -4  -6   80.35   29.57
   2   4  -5  136.86   34.57
   2  -4  -5  123.99   31.17
   2  -4  -5   55.70   22.41
   2   4  -4  239.74   37.22
   2  -4  -4  227.50   27.47
   2  -4  -4  319.86   41.33
   2   4  -3  -30.90   23.29
   2  -4  -3   86.16   13.20
   2   4  -2  111.45   27.47
  -2  -4   2  126.68   30.68
   2   4  -1  279.34   38.64
   2  -4  -1  191.11   31.51
  -2  -4   1  240.17   32.85
  -2   4   0  193.03   25.85
  -2  -4   0  215.61   45.10
   2  -4   0  265.45   38.52
  -2  -4   0  283.11   39.30
  -2   4  -1  135.22   25.00
  -2  -4  -1  146.60   38.76
   2  -4   1  163.94   32.83
  -2  -4  -1  200.95   33.85
  -2   4  -2   91.51   23.50
  -2  -4  -2   99.02   37.28
   2  -4   2  123.19   33.69
  -2  -4  -2  142.01   33.02
  -2   4  -3  133.54   26.76
  -2  -4  -3  141.26   36.95
   2  -4   3  138.93   38.67
  -2  -4  -3  197.60   37.81
  -2   4  -4   79.60   23.04
  -2  -4  -4  199.71   39.52
  -2  -4  -4  233.67   40.94
   2  -4   4  123.93   42.57
   2  -4   5  147.24   43.25
  -2  -4  -5  186.94   40.23
  -2  -4  -5  183.28   40.72
   2  -4   6  168.70   46.38
  -2  -4  -6  147.45   40.02
  -2  -4  -6  146.33   47.41
  -2  -4  -7  137.55   47.29
  -2  -4  -7  108.56   38.75
   2  -4   7  141.95   48.78
   2  -4   7  142.21   49.62
   2   4   8   99.95   45.81
   2  -4   8   84.24   54.72
   2  -4   8   60.89   49.65
  -2  -4  -8   98.96   40.69
  -2  -4  -8  136.30   50.31
   2   4   9  102.65   47.48
  -2  -4  -9   77.89   47.55
   2  -4   9   22.39   50.59
   2   4  10   56.48   45.43
   2  -4  10   48.87   54.89
  -2  -4 -10   55.28   48.88
  -2  -4 -11   69.04   52.30
   2  -5 -12   54.57   47.15
   2  -5 -11    8.00   43.27
   2   5 -10   22.89   39.41
   2  -5 -10  -33.17   43.63
  -2  -5  10   21.77   55.78
   2   5  -9   37.03   38.53
  -2  -5   9   26.10   57.58
   2  -5  -9   56.18   43.08
   2  -5  -9    4.23   29.38
   2   5  -8  102.62   39.68
   2  -5  -8   57.10   29.43
   2  -5  -8   76.87   31.37
   2  -5  -8   83.34   42.16
   2   5  -7   71.91   37.95
   2  -5  -7   61.98   30.15
   2  -5  -7   40.52   26.51
   2  -5  -7   62.62   40.78
   2   5  -6  108.35   38.25
   2  -5  -6  140.60   36.75
   2  -5  -6  134.65   25.72
   2   5  -5   39.96   34.20
   2  -5  -5    9.60   16.32
  -2  -5   5   21.39   44.02
   2  -5  -5   -3.52   33.86
   2   5  -4   54.90   34.42
   2  -5  -4   37.83   36.71
   2  -5  -4   29.09   12.52
  -2  -5   4   51.30   40.97
   2   5  -3  206.53   38.92
   2  -5  -3  110.75   41.14
   2   5  -2  161.42   36.05
  -2  -5   2   71.72   42.58
   2   5  -1   65.68   28.74
   2  -5  -1   57.28   31.34
  -2  -5   1   28.74   41.74
  -2  -5   1   26.44   30.51
  -2  -5   0   14.25   40.29
   2  -5   0    5.75   32.62
  -2  -5   0   -0.29   28.43
  -2   5  -1   35.06   23.19
   2  -5   1   32.06   34.07
  -2  -5  -1   61.21   40.33
  -2  -5  -1   61.50   30.55
  -2   5  -2  118.84   26.87
   2  -5   2  119.16   37.95
  -2  -5  -2  178.88   36.13
  -2  -5  -2  154.38   43.57
  -2   5  -3  137.97   27.42
   2  -5   3  109.47   41.32
  -2  -5  -3  125.04   36.12
  -2  -5  -3  125.12   39.75
  -2   5  -4  -24.89   22.55
   2  -5   4  172.85   45.77
  -2  -5  -4   69.55   39.52
  -2  -5  -4   91.25   36.36
  -2   5  -5   22.40   29.93
   2  -5   5   11.95   42.74
  -2  -5  -5   47.27   37.21
  -2  -5  -5   -5.35   37.33
  -2   5  -6   62.12   32.60
   2  -5   6   81.93   47.94
  -2  -5  -6  150.10   51.46
  -2  -5  -6  161.90   41.66
  -2  -5  -6  141.13   42.56
  -2   5  -7   42.52   33.21
   2  -5   7   81.72   48.35
  -2  -5  -7   37.80   48.53
  -2  -5  -7   35.01   38.68
  -2  -5  -7   47.20   42.24
   2  -5   7   75.40   47.24
  -2   5  -8   75.49   36.16
  -2  -5  -8   98.14   45.21
   2  -5   8  115.24   53.85
   2  -5   8   58.82   57.08
  -2  -5  -8  105.76   42.09
  -2  -5  -8  130.84   52.55
  -2   5  -9   -7.91   36.76
   2  -5   9   32.15   52.94
   2  -5   9    2.14   60.43
  -2   5 -10  -34.95   39.89
   2  -6 -10   79.67   48.45
   2   6  -9   -4.56   41.95
   2  -6  -9  -15.22   45.10
   2   6  -8   -1.65   41.81
   2  -6  -8   21.93   46.11
   2   6  -7   26.81   38.30
  -2  -6   7    7.67   48.70
   2  -6  -7  -10.30   34.84
   2   6  -6   23.56   37.67
   2  -6  -6   13.52   37.51
  -2  -6   6   40.89   47.09
   2   6  -5   86.87   36.60
  -2  -6   5  115.49   50.40
   2  -6  -5   63.00   40.02
  -2  -6   5   65.08   50.11
   2   6  -4   94.38   37.55
  -2  -6   4  124.72   46.93
   2  -6  -4   26.36   42.01
   2   6  -3   42.68   36.27
   2  -6  -3   -6.97   44.04
  -2  -6   3   20.66   43.08
   2   6  -2   49.83   35.97
  -2  -6   2   54.27   49.43
   2  -6  -2   43.32   34.58
   2  -6  -2   16.15   44.87
   2  -6  -1   71.14   37.60
  -2  -6   1   55.75   48.79
  -2  -6   0   94.30   48.10
  -2  -6   0   70.88   33.57
   2  -6   0  132.51   40.55
  -2   6  -1   34.66   24.95
   2  -6   1   84.91   37.25
  -2  -6  -1   24.67   31.60
  -2  -6  -1   21.83   45.77
  -2   6  -2   77.29   26.42
   2  -6   2   98.87   39.69
  -2  -6  -2   55.66   32.99
  -2  -6  -2   45.50   45.73
  -2   6  -3  -50.82   24.24
  -2  -6  -3   13.15   41.75
  -2  -6  -3   54.24   35.11
   2  -6   3   -7.17   42.82
  -2   6  -4   25.49   29.75
  -2  -6  -4   11.71   40.61
   2  -6   4   62.32   49.00
  -2  -6  -4   -0.38   34.61
  -2   6  -5   15.07   31.53
   2  -6   5   67.40   48.31
  -2  -6  -5   54.66   42.01
  -2  -6  -5   47.03   38.62
  -2   6  -6   26.74   31.96
  -2  -6  -6   16.72   39.01
  -2  -6  -6   47.31   41.80
   2  -6   6   29.13   49.23
  -2   6  -7   25.03   34.16
   2  -6   7   38.53   50.24
  -2  -6  -7   18.76   41.49
  -2  -6  -7   19.18   42.06
   2  -7  -5   10.06   43.77
   2  -7  -4    2.40   36.85
   2  -7  -4  -23.66   45.56
  -2  -7   3   13.89   48.82
   2  -7  -3    8.04   46.81
   2  -7  -3   -1.24   37.73
   2  -7  -2   18.84   38.81
   2  -7  -2   32.92   52.06
  -2  -7   2   47.63   48.39
   2  -7  -1   48.72   52.91
   2  -7  -1   60.07   40.67
   2  -7   0   27.85   39.73
   2  -7   1    3.69   40.37
   2  -7   2   26.08   45.14
   2  -7   3    7.42   49.74
   2  -7   4   23.71   54.53
  -3   0  15   -1.77   69.21
   3   0 -15   17.34   37.14
   3   0 -14   10.68   35.06
  -3   0  14   15.33   66.59
   3   0 -13   89.04   35.43
  -3   0  13   75.72   61.82
  -3   0  13   35.88   29.95
   3   0 -12   71.73   33.04
  -3   0  12  102.16   57.61
  -3   0  11  372.83   62.46
   3   0 -11  277.19   43.33
   3   0 -10  387.09   48.17
  -3   0  10  444.65   62.52
  -3   0  10  391.44   63.04
   3   0  -9  112.13   28.67
  -3   0   9  124.77   46.22
  -3   0   9  133.53   41.39
  -3   0   8  691.38   72.69
   3   0  -8  615.37   64.29
  -3   0   8  646.22   74.90
  -3   0   7  866.53   85.39
   3   0  -7  832.38   81.06
  -3   0   7  841.13   87.80
  -3   0   6 1433.86  122.70
   3   0  -6 1470.94  120.70
  -3   0   6 1630.06  125.07
  -3   0   5  174.37   28.08
  -3   0   5  137.03   21.56
  -3   0   5  189.94   32.16
   3   0  -4  166.82   26.01
  -3   0   4  154.43   25.59
  -3   0   4  134.93   22.79
  -3   0   4  140.67   22.89
  -3   0   3  135.73   24.19
  -3   0   3  134.23   25.70
   3   0  -3  119.67   22.51
   3   0  -3  140.85   24.19
   3   0  -2 1513.85  143.96
  -3   0   2 1546.45  144.44
   3   0  -2 1575.44  144.55
  -3   0   2 1685.19  145.02
   3   0  -1 6996.96  613.26
  -3   0   1 6886.25  613.49
   3   0  -1 6580.35  613.50
  -3   0   0  112.59   26.68
  -3   0  -1   10.98   27.49
   3   0   1   -0.15   28.01
   3   0   2  967.73   97.05
  -3   0  -2 1007.40   97.34
   3   0   3 1440.66  136.37
  -3   0  -3 1420.64  135.79
   3   0   4 2420.31  219.68
  -3   0  -4 2306.57  218.37
  -3   0  -5  -32.77   24.92
  -3   0  -6   73.00   35.04
  -3   0  -7  106.18   40.98
  -3   0  -8  552.01   70.95
  -3   0  -9  479.47   66.52
   3   0  10  107.95   54.35
  -3   0 -10   73.88   45.58
   3   0  10   89.64   58.63
   3   0  11   75.04   56.43
  -3   0 -11   68.79   45.02
  -3   0 -11   77.38   43.98
   3   0  11   54.91   60.39
  -3   0 -12   75.09   47.93
  -3   0 -12   22.49   44.79
   3   0  12   78.39   64.12
   3   0  12    8.62   54.51
   3   0  13   74.48   54.97
  -3   1  16    8.44   69.57
  -3   1  15   44.31   66.44
  -3  -1  15    7.20   69.52
   3   1 -14   62.24   37.65
  -3   1  14  130.04   65.15
   3  -1 -14   82.29   34.00
  -3  -1  14   96.50   66.01
  -3   1  13   98.28   60.70
   3   1 -13   70.75   37.53
  -3  -1  13  120.19   66.95
   3  -1 -13   77.00   30.72
  -3  -1  13   76.42   62.12
   3   1 -12   85.75   33.77
  -3   1  12   66.05   56.00
   3  -1 -12   94.97   29.10
  -3  -1  12  108.84   60.47
  -3  -1  12   88.17   56.31
   3   1 -11   44.77   31.70
  -3   1  11   47.76   51.54
   3  -1 -11   51.46   32.88
   3  -1 -11   36.58   26.91
  -3  -1  11   55.44   52.67
  -3  -1  11   46.94   55.81
   3   1 -10  131.27   33.88
  -3   1  10  189.76   50.68
   3  -1 -10  172.89   30.67
   3  -1 -10  167.33   36.38
  -3  -1  10  141.40   48.32
  -3  -1  10  144.85   52.79
   3   1  -9  242.72   38.99
  -3   1   9  321.15   49.86
   3  -1  -9  383.10   44.58
   3  -1  -9  370.66   41.40
  -3  -1   9  248.05   54.19
  -3  -1   9  282.65   56.68
  -3   1   8  372.49   51.45
   3  -1  -8  628.54   58.17
  -3  -1   8  616.82   68.99
   3  -1  -8  457.99   59.68
  -3  -1   8  603.13   65.74
  -3   1   7  225.09   38.84
  -3  -1   7  444.76   51.76
  -3  -1   7  441.43   50.48
   3  -1  -7  385.13   40.17
   3  -1  -7  267.91   41.59
  -3   1   6  245.28   37.18
   3  -1  -6  211.43   29.01
  -3  -1   6  140.04   34.36
   3  -1  -6  227.92   25.74
  -3   1   5  787.26   77.42
  -3  -1   5  641.00   80.87
   3  -1  -5  910.90   78.26
   3  -1  -5  835.61   75.81
   3  -1  -4 1563.13  144.21
  -3  -1   4 1632.10  146.47
   3  -1  -3 1341.01  103.26
  -3  -1   3 1657.18  106.45
   3   1  -2  462.07   40.52
  -3   1   2  255.91   32.70
   3  -1  -2  192.91   26.48
  -3  -1   2  348.26   35.37
   3   1  -1   23.11   29.80
  -3   1   1   58.53   19.64
  -3   1   1   66.59   18.34
   3  -1  -1   80.77   16.36
  -3  -1   1   39.80   29.12
  -3   1   0 1446.89  134.27
   3  -1   0 1901.30  159.60
   3  -1   0 1534.44  160.66
  -3   1  -1  282.93   40.17
   3  -1   1  539.92   58.68
   3  -1   1  526.89   55.87
  -3   1  -2 4331.15  372.65
   3   1   2 3986.94  372.80
  -3   1  -2 3990.20  373.04
   3  -1   2 4474.59  390.24
   3  -1   2 4250.58  391.03
  -3  -1  -2 4682.54  391.00
  -3  -1  -2 3837.50  390.31
  -3   1  -3  766.32   76.70
  -3   1  -3  727.05   76.25
   3   1   3  714.46   76.99
  -3  -1  -3 1028.16   94.78
   3  -1   3  862.74   97.34
   3  -1   3  941.46   94.77
   3   1   4  777.85   85.58
  -3   1  -4  877.52   84.03
  -3   1  -4  824.61   84.04
   3  -1   4 1020.95  102.77
  -3   1  -5   -7.49   35.37
   3   1   5  759.63   51.46
   3  -1   5 1011.81  104.32
  -3   1  -6  -49.66   28.88
   3   1   6  332.72   43.70
   3  -1   6  389.08   59.13
  -3   1  -7   -2.43   27.97
   3   1   7  398.55   48.11
  -3  -1  -7  574.97   72.01
   3   1   8  112.02   52.69
  -3   1  -8   59.44   38.58
   3   1   8   77.02   43.71
  -3  -1  -8  137.98   46.30
   3   1   9   75.53   54.58
  -3   1  -9  116.65   41.67
   3   1   9   63.59   46.04
  -3  -1  -9  123.17   49.51
  -3  -1  -9   85.14   42.00
   3   1  10   38.94   48.25
  -3   1 -10   66.49   46.60
   3   1  10   61.91   57.30
  -3  -1 -10  129.79   45.51
  -3  -1 -10  102.53   50.14
  -3   1 -11  324.07   61.16
   3   1  11  238.95   59.40
   3   1  11  296.46   70.26
  -3  -1 -11  242.71   55.74
  -3  -1 -11  197.70   51.95
   3   1  12  181.18   56.46
  -3   1 -12  157.65   57.92
   3   1  12  319.69   74.06
   3  -1  12  196.25   73.02
  -3  -1 -12  301.50   58.95
  -3  -2  15  124.71   77.44
  -3  -2  14   89.83   65.74
  -3  -2  14  100.60   71.61
   3  -2 -14   43.42   39.99
  -3  -2  13   95.74   66.12
  -3  -2  13  -13.29   63.38
   3  -2 -13   34.61   35.76
   3  -2 -13   42.12   31.20
   3  -2 -12  100.82   32.40
  -3  -2  12   77.08   58.08
  -3  -2  12   82.90   59.42
   3  -2 -12  129.42   36.98
  -3  -2  11  260.85   59.23
   3  -2 -11  200.07   41.05
   3  -2 -11  262.21   37.31
  -3  -2  11  264.01   60.76
  -3  -2  10  205.80   52.48
  -3  -2  10  225.98   50.38
   3  -2 -10  100.35   35.31
   3  -2 -10  150.83   29.34
  -3  -2   9  197.03   47.67
  -3  -2   9  170.41   42.87
   3  -2  -9   76.92   31.02
   3  -2  -9  115.84   26.27
   3  -2  -8  312.54   36.09
   3  -2  -8  328.89   41.07
  -3  -2   8  197.41   49.56
   3  -2  -7  720.56   65.92
   3  -2  -7  705.40   69.17
  -3  -2   7  535.04   72.58
   3   2  -6   10.68   16.99
   3  -2  -6  287.36   29.70
   3  -2  -6  285.20   24.94
  -3  -2   6  332.39   40.26
   3   2  -5 1151.30  109.54
   3  -2  -5  573.37   62.38
   3  -2  -5  591.99   59.51
   3   2  -4  210.98   31.43
  -3  -2   4  226.15   37.28
   3   2  -3  160.58   31.26
   3  -2  -3   95.39   13.18
  -3  -2   3  181.35   31.65
  -3  -2   3  194.36   33.46
   3  -2  -3  171.02   16.07
   3   2  -2 2827.22  257.83
   3  -2  -2 2594.01  226.76
  -3  -2   2 2482.78  230.12
  -3  -2   2 2297.19  229.77
   3   2  -1 1588.66  148.10
   3  -2  -1 1399.43  132.46
  -3  -2   1 1527.35  135.61
  -3   2   0  337.42   40.73
   3  -2   0  351.83   46.53
  -3  -2   0  559.08   51.77
   3   2   1  382.14   46.26
  -3   2  -1  276.05   40.03
  -3  -2  -1  449.40   48.72
  -3  -2  -1  365.29   46.73
   3  -2   1  311.18   44.05
   3   2   2  750.49   74.96
  -3   2  -2  676.33   71.61
  -3  -2  -2  764.15   82.89
   3  -2   2  863.61   83.77
   3  -2   2  836.78   82.09
   3   2   3  239.69   41.98
  -3   2  -3  232.28   36.27
   3  -2   3  147.51   33.93
  -3  -2  -3  156.62   35.44
   3  -2   3  165.89   38.03
  -3   2  -4  -24.96   36.14
   3   2   4  686.45   47.22
   3  -2   4  611.77   67.02
  -3  -2  -4  593.17   63.92
   3  -2   4  501.00   63.33
   3   2   5  948.73   60.94
  -3   2  -5   96.74   50.17
   3  -2   5  723.54   82.93
   3  -2   5  860.00   86.91
  -3   2  -6    5.64   25.97
   3   2   6  255.63   41.55
   3  -2   6  210.85   46.10
   3   2   7  193.24   45.89
   3  -2   7  232.97   51.88
  -3  -2  -7  216.54   44.75
   3   2   8  213.44   49.14
   3  -2   8  260.70   57.77
  -3  -2  -8  277.09   52.49
   3   2   9  104.11   46.13
  -3  -2  -9  109.98   50.49
  -3  -2  -9  102.31   48.62
  -3   2 -10  139.65   45.29
   3   2  10  205.03   50.85
  -3  -2 -10  229.67   55.84
  -3  -2 -10  168.24   53.15
  -3   2 -11   69.25   46.17
   3   2  11   63.88   47.55
  -3  -2 -11  130.83   55.55
  -3  -2 -11  120.14   50.49
   3   2  12   38.14   45.97
  -3  -2 -12   15.12   49.65
  -3  -3  14   38.98   71.34
   3  -3 -14   47.81   37.70
  -3  -3  13  213.50   65.91
   3  -3 -13   64.31   39.16
  -3  -3  13  205.89   69.27
   3   3 -12   59.38   36.33
  -3  -3  12   11.78   56.06
   3  -3 -12   49.84   27.95
   3  -3 -12   25.55   35.68
  -3  -3  12   54.23   56.67
   3   3 -11  138.29   40.20
  -3  -3  11  176.79   59.43
   3  -3 -11  195.52   41.46
   3  -3 -11  183.83   33.65
  -3  -3  11  210.13   57.64
   3   3 -10  408.44   55.79
  -3  -3  10  385.03   68.21
   3  -3 -10  518.42   61.40
   3  -3 -10  541.42   54.75
  -3  -3  10  361.34   72.80
   3   3  -9  263.49   44.58
   3  -3  -9  216.64   41.40
  -3  -3   9  274.27   54.78
   3  -3  -9  248.10   36.25
   3   3  -8  320.11   47.29
  -3  -3   8  328.79   50.16
   3  -3  -8  237.82   34.45
   3  -3  -8  224.89   39.74
   3   3  -7  281.45   42.74
  -3  -3   7  182.92   40.48
   3  -3  -7  146.94   31.71
   3  -3  -7  150.55   22.35
   3   3  -6  138.47   31.72
   3  -3  -6   86.44   26.86
   3  -3  -6   97.53   21.96
   3   3  -5  110.12   29.08
  -3  -3   5  452.90   62.76
   3  -3  -5  595.00   55.99
   3   3  -4  -36.53   24.40
  -3  -3   4  -15.68   26.41
   3   3  -3  269.81   37.06
  -3  -3   3  -18.80   28.43
  -3  -3   3  219.44   32.82
   3   3  -2  659.06   67.85
   3  -3  -2  440.14   38.70
  -3  -3   2  548.58   45.94
   3   3  -1  335.17   42.19
  -3  -3   1  294.40   44.02
   3  -3  -1  328.86   36.85
  -3   3   0  399.35   38.66
  -3  -3   0  403.61   54.95
   3  -3   0  506.45   51.22
  -3  -3   0  472.32   54.95
   3   3   1  760.76   81.01
  -3  -3  -1  641.39   72.53
   3  -3   1  702.39   71.66
  -3  -3  -1  743.13   73.50
   3   3   2  294.98   46.93
  -3   3  -2  224.31   35.48
   3  -3   2  252.49   40.47
  -3  -3  -2  353.61   45.32
  -3  -3  -2  299.73   42.88
   3   3   3  530.24   63.82
   3  -3   3  340.75   52.20
  -3  -3  -3  426.13   53.11
  -3  -3  -3  483.75   54.46
  -3   3  -4  455.62   53.98
   3   3   4  361.18   55.74
   3  -3   4  428.41   53.67
  -3  -3  -4  353.71   50.00
   3  -3   4  342.64   50.92
   3   3   5  551.61   67.67
  -3   3  -5  565.81   66.45
   3  -3   5  655.00   71.78
   3  -3   5  579.16   68.70
  -3  -3  -5  512.16   65.40
  -3  -3  -5  625.47   69.20
   3   3   6  293.98   49.64
  -3   3  -6  234.20   47.48
   3  -3   6  218.42   50.71
   3  -3   6  139.90   44.64
  -3  -3  -6  214.30   43.67
  -3  -3  -6  265.86   47.90
   3   3   7  164.89   46.55
  -3   3  -7  102.76   41.94
   3  -3   7  170.63   54.28
   3  -3   7   79.79   47.43
  -3  -3  -7  198.03   46.35
   3   3   8  167.39   47.88
  -3   3  -8   88.44   42.63
   3  -3   8   67.77   49.62
  -3  -3  -8  101.30   47.25
   3   3   9  236.37   54.44
   3  -3   9  131.70   55.45
  -3  -3  -9  207.65   50.89
   3   3  10   28.89   48.85
   3  -3  10   10.78   57.82
  -3  -3 -10   85.13   54.46
  -3  -3 -10  104.67   53.02
   3   3  11  108.14   51.76
   3  -3  11   50.02   66.45
   3  -3  11   55.56   62.87
  -3  -3 -11   77.15   49.21
   3  -4 -13   91.55   42.06
  -3  -4  12   25.20   57.12
  -3  -4  12   36.97   55.07
   3  -4 -12   31.82   40.60
   3   4 -11   59.30   40.88
   3  -4 -11   24.19   30.15
  -3  -4  11   23.55   55.36
  -3  -4  11   37.92   56.04
   3  -4 -11  -12.43   38.97
   3   4 -10  122.00   40.98
   3  -4 -10  120.69   38.93
   3  -4 -10  146.35   33.37
  -3  -4  10  192.91   54.98
   3   4  -9   80.96   36.70
  -3  -4   9   85.92   48.67
   3  -4  -9  113.88   37.24
   3  -4  -9   63.88   23.04
   3  -4  -9   81.92   29.97
   3   4  -8  446.81   57.95
   3  -4  -8  473.12   55.41
   3  -4  -8  401.75   47.17
  -3  -4   8  453.68   64.20
   3   4  -7  379.25   52.14
   3  -4  -7  336.32   44.47
   3  -4  -7  258.75   36.46
  -3  -4   7  290.31   53.21
   3   4  -6  167.24   39.09
  -3  -4   6  173.22   45.95
   3  -4  -6  129.70   29.92
   3   4  -5  201.29   41.10
   3  -4  -5   79.43   30.85
   3  -4  -5   38.06   11.74
   3   4  -4  329.62   46.19
  -3  -4   4  249.01   46.21
   3   4  -3  429.89   51.80
  -3  -4   3  311.96   38.33
  -3  -4   3   -2.56   30.09
   3   4  -2  -39.57   26.87
   3  -4  -2  101.01   26.52
  -3  -4   2  100.28   32.42
   3   4  -1  -26.96   26.29
  -3  -4   1  363.48   43.72
   3  -4  -1  270.80   38.80
  -3   4   0   62.52   13.78
   3  -4   0  198.32   35.53
  -3  -4   0  238.20   46.57
  -3  -4   0  333.91   43.14
  -3   4  -1  184.97   25.81
  -3  -4  -1  288.42   48.56
   3  -4   1  308.53   43.67
  -3  -4  -1  332.09   45.87
  -3   4  -2  138.02   26.05
   3  -4   2  202.83   38.30
  -3  -4  -2  207.40   39.87
  -3  -4  -2  134.58   38.71
   3  -4   3  287.33   47.81
  -3  -4  -3  315.92   48.15
  -3  -4  -3  343.13   49.26
  -3  -4  -4  108.09   37.52
  -3  -4  -4  127.34   40.36
   3  -4   4   72.62   38.64
   3   4   5  288.23   54.38
   3  -4   5  170.37   49.50
  -3  -4  -5  356.80   55.86
  -3  -4  -5  322.76   48.65
   3  -4   5  204.27   50.32
  -3  -4  -5  315.58   47.36
   3   4   6   61.11   47.52
  -3  -4  -6  107.84   39.25
   3  -4   6   90.13   48.42
   3  -4   6   65.73   44.47
  -3  -4  -6   94.01   46.52
   3   4   7  158.54   51.22
  -3   4  -7  136.00   46.48
   3  -4   7  155.14   55.55
   3  -4   7  137.85   48.63
  -3  -4  -7  139.58   44.10
  -3  -4  -7  173.40   49.13
   3   4   8   69.28   50.09
  -3   4  -8  114.80   46.10
   3  -4   8   93.36   49.41
  -3  -4  -8  147.76   50.69
   3  -4   8   96.94   56.87
   3   4   9   51.86   50.35
  -3   4  -9   61.13   46.88
   3  -4   9   32.08   57.51
   3  -4   9   32.73   51.20
  -3  -4  -9   69.34   49.82
   3   4  10   94.60   52.24
   3  -4  10   57.94   57.05
   3  -5 -11   90.28   42.08
   3   5 -10   12.09   40.75
  -3  -5  10  -11.20   55.77
   3  -5 -10   16.51   39.23
   3   5  -9   68.87   41.28
   3  -5  -9   85.10   40.75
  -3  -5   9   70.48   53.79
   3   5  -8   44.83   40.08
  -3  -5   8   34.92   47.49
   3  -5  -8   14.15   24.06
   3  -5  -8    8.80   27.86
   3  -5  -8   39.00   37.56
   3   5  -7   58.56   39.35
   3  -5  -7   58.67   30.29
   3  -5  -7   26.22   17.88
   3  -5  -7   63.81   37.95
   3   5  -6   93.85   37.86
   3  -5  -6   71.55   13.39
   3  -5  -6   96.65   33.04
   3   5  -5  211.31   43.07
  -3  -5   5  159.72   48.39
   3  -5  -5  111.95   37.72
   3   5  -4   22.37   33.85
  -3  -5   4    5.61   41.81
   3   5  -3  174.12   39.62
   3  -5  -3  130.64   29.97
   3   5  -2  505.02   61.94
   3  -5  -2  318.96   45.80
  -3  -5   2  393.45   49.59
   3   5  -1  300.84   46.41
   3  -5  -1  348.31   43.01
  -3  -5   1  231.92   52.23
  -3  -5   1  276.47   45.05
  -3  -5   0  101.57   34.74
  -3  -5   0  108.57   46.14
   3  -5   0  107.14   32.71
  -3   5  -1  124.51   23.51
  -3  -5  -1  141.65   45.64
  -3  -5  -1  173.98   39.87
   3  -5   1  151.69   38.72
  -3   5  -2   85.27   25.78
   3  -5   2   83.68   39.35
  -3  -5  -2   88.66   34.91
  -3  -5  -2   56.63   39.94
  -3   5  -3   38.56   22.57
  -3  -5  -3   93.29   37.21
   3  -5   3   55.90   41.19
  -3  -5  -3   84.60   41.15
  -3   5  -4  -59.57   23.54
  -3  -5  -4   88.73   40.02
   3  -5   4  101.42   40.90
  -3  -5  -4   77.79   40.65
  -3   5  -5   59.44   30.79
  -3  -5  -5   96.96   42.34
   3  -5   5  102.03   46.83
  -3  -5  -5   94.52   41.67
  -3   5  -6   36.61   31.93
   3  -5   6   76.72   45.27
  -3  -5  -6   33.79   41.42
  -3  -5  -6   23.98   49.84
   3  -5   6   75.86   49.25
  -3  -5  -6   55.25   42.44
  -3  -5  -7   51.61   50.10
   3  -5   7   67.39   49.63
  -3  -5  -7    8.08   39.35
   3  -5   7   -2.48   54.42
  -3  -5  -7   23.68   46.81
   3  -5   8   72.05   50.12
   3  -5   8   64.80   59.67
  -3  -5  -8   74.68   45.61
  -3  -5  -8   76.81   47.32
   3  -6  -9   28.51   40.78
   3   6  -8   37.95   42.49
   3  -6  -8   36.51   43.61
   3   6  -7   41.66   42.04
   3  -6  -7   41.26   35.22
   3   6  -6   27.79   38.63
  -3  -6   6   16.31   51.41
   3  -6  -6   12.84   36.87
  -3  -6   6   53.47   53.29
   3   6  -5   18.65   37.55
  -3  -6   5   53.44   51.72
   3  -6  -5   17.70   38.86
  -3  -6   5   62.97   52.39
   3   6  -4   55.94   38.61
   3  -6  -4   41.07   43.71
   3  -6  -4   48.88   30.35
  -3  -6   4   47.15   46.68
   3   6  -3   58.26   37.60
   3  -6  -3   88.51   34.31
   3   6  -2   36.70   37.61
  -3  -6   2   24.90   46.21
   3  -6  -2   15.91   33.88
  -3  -6   1   10.81   34.63
   3  -6  -1  -10.69   33.36
  -3  -6   1   41.98   47.26
  -3  -6   0   55.21   34.91
  -3  -6   0   37.74   46.50
   3  -6   0   39.79   35.08
  -3   6  -1   34.72   19.39
  -3  -6  -1   31.76   35.26
  -3  -6  -1   71.55   47.43
   3  -6   1   26.84   37.33
  -3   6  -2   21.40   23.99
  -3  -6  -2   51.20   43.81
  -3  -6  -2   63.91   37.89
   3  -6   2   45.95   42.24
  -3   6  -3  -37.30   22.07
  -3  -6  -3   -4.88   41.59
   3  -6   3   16.16   44.73
  -3  -6  -3   -9.34   38.88
  -3   6  -4   72.28   28.64
  -3  -6  -4   16.73   37.91
   3  -6   4   22.20   44.47
  -3  -6  -4   52.19   43.95
   3  -6   5   23.04   48.44
  -3  -6  -5   45.79   40.79
  -3  -6  -5   53.52   44.63
   3  -6   6  115.77   54.36
  -3  -6  -6  129.42   46.36
  -3  -6  -6   59.72   44.98
  -3  -6  -7   32.38   43.39
  -3  -6  -7    6.57   45.68
   3   7  -6   32.50   41.16
   3   7  -5   14.88   41.09
   3  -7  -5   12.83   43.62
   3   7  -4   41.17   41.16
   3  -7  -4  -20.67   46.05
   3   7  -3   61.43   39.11
  -3  -7   3   92.59   53.86
   3  -7  -3   71.10   38.97
   3  -7  -3   35.98   51.25
   3  -7  -2   40.14   36.89
   3  -7  -2   74.89   51.90
   3  -7  -1   28.99   37.01
   3  -7   0   15.67   38.74
  -3  -7   0    7.13   36.56
   3  -7   1  -17.52   44.69
  -3  -7  -1    0.43   36.41
   3  -7   2   10.97   47.61
   3  -7   3   14.29   47.89
   3  -7   4  -10.83   49.43
  -4   0  16   64.44   70.59
  -4   0  15   40.61   67.83
   4   0 -14   56.31   32.68
  -4   0  14   46.83   63.06
   4   0 -13   11.08   29.06
  -4   0  13   20.98   58.40
  -4   0  12   70.81   17.80
  -4   0  12   94.16   22.19
   4   0 -11  241.80   33.63
  -4   0  11  378.35   54.20
  -4   0  11  311.02   54.51
   4   0 -10  282.84   33.87
  -4   0  10  321.63   49.05
  -4   0  10  329.54   52.15
  -4   0   9   52.83   15.40
  -4   0   9   92.56   37.25
  -4   0   8  136.52   39.56
  -4   0   8   69.11   16.36
  -4   0   8  163.25   35.52
  -4   0   7   38.86   31.62
  -4   0   7   17.39   13.15
  -4   0   7   15.78   26.81
  -4   0   6  131.84   28.28
  -4   0   6  126.46   21.15
   4   0  -6  165.56   28.42
  -4   0   6  150.66   30.86
   4   0  -5  951.79   86.83
  -4   0   5  926.02   84.33
  -4   0   5  812.04   84.72
  -4   0   5  926.74   85.94
   4   0  -4 1256.45  116.46
   4   0  -4 1231.80  114.57
  -4   0   4 1258.07  115.64
   4   0  -3  156.18   27.53
   4   0  -3  167.88   29.02
  -4   0   3  215.15   34.03
  -4   0   3  174.63   30.89
   4   0  -2  698.72   66.71
   4   0  -2  644.31   66.82
  -4   0   2  651.87   67.23
   4   0  -1 1008.19   94.02
  -4   0   1  910.87   91.09
  -4   0   1 1023.14   93.41
  -4   0   0 1287.90  125.18
   4   0   0 1440.20  128.55
   4   0   1  819.94   82.89
  -4   0  -1  843.03   82.81
  -4   0  -2 2231.78  195.90
   4   0   2 1999.42  194.66
   4   0   3   75.59   36.06
  -4   0  -3   77.30   31.80
   4   0   4 2729.01  247.78
  -4   0  -4 2621.16  246.33
   4   0   5 1909.87   91.14
  -4   0  -5  135.98   72.68
   4   0   6  434.79   50.90
  -4   0  -6  -87.29   33.65
   4   0   7   46.34   46.14
  -4   0  -7   20.48   32.16
  -4   0  -8   91.20   45.53
  -4   0  -8   49.52   37.65
   4   0   9  221.24   59.12
  -4   0  -9  246.65   56.83
   4   0  10  153.00   61.15
  -4   0 -10  278.25   53.07
   4   0  11   35.09   56.16
  -4   0 -11   85.93   51.89
   4   0  12  301.59   75.24
   4   0  12  171.75   61.67
   4   0  13  102.87   58.32
  -4   1  15  -11.21   64.40
  -4  -1  15   24.89   68.51
  -4   1  14   -0.72   60.56
  -4  -1  14   32.71   64.03
   4  -1 -14   46.55   31.49
  -4  -1  14   67.76   64.97
  -4   1  13  238.49   64.28
  -4  -1  13   57.69   65.35
   4  -1 -13  213.19   34.95
  -4  -1  13   60.70   59.51
  -4   1  12   35.91   52.36
   4  -1 -12   43.89   27.16
  -4  -1  12  105.52   55.34
  -4  -1  12   89.56   59.15
  -4   1  11   35.75   47.20
  -4  -1  11   91.40   54.34
   4  -1 -11   47.51   25.67
  -4  -1  11   57.59   48.95
  -4   1  10  121.19   46.40
  -4  -1  10  145.15   48.88
   4  -1 -10  125.42   26.83
  -4  -1  10  159.31   46.98
   4   1  -9   67.89   32.46
  -4   1   9  190.76   40.67
   4  -1  -9  148.28   24.67
  -4  -1   9  115.87   40.83
  -4  -1   9   98.01   45.20
   4   1  -8  694.89   78.20
  -4   1   8  863.32   80.48
  -4  -1   8  694.87   81.46
  -4  -1   8  555.04   74.76
   4  -1  -8  809.81   75.03
   4  -1  -8  864.78   72.59
  -4  -1   8  708.04   81.26
   4   1  -7  711.02   57.65
  -4   1   7  297.21   55.57
   4  -1  -7  406.91   43.12
   4  -1  -7  292.79   45.69
  -4  -1   7  452.19   49.07
  -4  -1   7  704.63   57.59
  -4  -1   7  648.70   54.12
   4   1  -6   35.67   26.26
  -4   1   6   53.81   24.79
   4  -1  -6   76.19   18.15
  -4  -1   6   55.15   28.57
  -4  -1   6   46.47   25.45
   4   1  -5  330.84   40.73
   4  -1  -5  325.15   34.78
  -4  -1   5  253.33   38.71
   4   1  -4  607.96   62.53
  -4  -1   4  516.43   47.25
   4  -1  -4  334.86   41.61
  -4  -1   4  477.58   49.14
   4  -1  -4  387.33   41.48
   4   1  -3 1461.10  130.24
  -4   1   3 1354.46  127.74
   4  -1  -3 1310.21  123.91
  -4  -1   3 1349.91  127.33
  -4  -1   3 1432.01  126.42
  -4   1   2  812.85   74.34
  -4   1   2  630.72   72.97
  -4  -1   2  890.21   75.40
  -4  -1   2  897.63   77.09
  -4   1   1 2089.89  199.47
  -4   1   1 1871.73  199.66
   4  -1  -1 1985.08  203.11
  -4  -1   1 3075.38  207.79
  -4   1   0    8.23   28.44
   4  -1   0   59.73   24.26
  -4   1  -1  619.42   62.44
  -4   1  -1  543.20   64.43
   4  -1   1  701.71   68.21
  -4  -1  -1  601.44   68.88
   4   1   2 1298.52  142.96
  -4   1  -2 1733.76  142.07
  -4   1  -2 1431.80  141.92
   4  -1   2 1696.68  157.84
  -4  -1  -2 1672.54  157.60
   4   1   3 1263.67  128.66
  -4   1  -3 1339.16  128.72
  -4   1  -3 1383.41  127.53
  -4  -1  -3 1925.86  165.94
   4  -1   3 1610.86  165.61
   4   1   4  483.83   49.21
  -4   1  -4  395.97   40.52
   4  -1   4  394.65   42.58
  -4  -1  -4  -30.30   29.50
  -4   1  -5   60.19   32.00
  -4   1  -5  -38.92   26.49
   4   1   5   59.60   38.72
   4  -1   5   39.40   37.31
  -4  -1  -5  -18.43   23.21
  -4   1  -6  142.68   39.70
   4   1   6   54.49   43.35
   4  -1   6   51.46   40.81
  -4  -1  -6   14.24   26.53
   4   1   7  674.90   82.11
  -4   1  -7  707.76   79.27
   4  -1   7  793.92   97.10
  -4  -1  -7  957.77   98.20
   4   1   8  385.16   61.87
  -4   1  -8  380.85   57.63
  -4  -1  -8  561.78   71.03
   4  -1   8  378.60   71.24
  -4   1  -9  322.55   55.48
   4   1   9  357.38   62.57
   4  -1   9  295.88   65.89
  -4  -1  -9  446.63   66.05
   4   1  10   30.65   60.04
   4   1  10   44.65   51.58
  -4   1 -10   41.47   46.61
  -4  -1 -10   30.80   51.04
  -4   1 -11  166.65   56.30
   4   1  11  116.13   55.40
  -4  -1 -11  185.53   57.44
  -4  -1 -11  147.04   49.83
   4   1  12  108.78   56.27
   4  -1  13   40.11   62.29
  -4  -2  15   62.24   69.45
  -4  -2  15   21.14   74.88
  -4  -2  14   21.91   66.63
  -4  -2  14   94.96   67.23
   4   2 -13   39.53   39.66
  -4  -2  13   65.86   60.94
   4  -2 -13   25.19   25.04
  -4  -2  13    0.73   61.10
   4  -2 -13   31.31   34.22
  -4  -2  12   45.61   55.42
  -4  -2  12   41.39   55.52
   4  -2 -12   22.50   32.38
   4  -2 -12   20.92   22.69
  -4  -2  11  139.39   54.53
   4  -2 -11  255.71   31.89
  -4  -2  11  168.64   56.12
   4  -2 -11  241.97   38.59
   4  -2 -10   39.46   21.44
   4  -2 -10   30.03   27.08
  -4  -2  10  135.42   47.90
  -4  -2  10   68.96   44.14
   4  -2  -9  226.99   35.06
  -4  -2   9  256.72   52.47
   4  -2  -9  213.56   28.73
  -4  -2   9  260.50   49.80
   4  -2  -8  110.55   27.87
   4  -2  -8  168.97   21.91
  -4  -2   7   97.85   35.29
   4  -2  -7   95.48   14.00
  -4  -2   7   97.02   29.89
   4  -2  -7  126.67   23.20
  -4  -2   6   75.28   32.21
   4  -2  -6   54.05    8.77
  -4  -2   6   32.14   28.97
   4  -2  -5  972.57   91.29
  -4  -2   5 1145.04   96.03
   4  -2  -5  935.82   90.29
  -4  -2   4  593.90   45.33
   4  -2  -4  298.41   33.91
   4   2  -3  720.63   72.99
   4  -2  -3  243.77   25.89
   4  -2  -3  219.20   25.96
   4   2  -2  719.27   63.53
   4   2  -2  651.12   59.48
  -4   2   2  525.46   50.44
   4  -2  -2  714.51   65.86
  -4  -2   2  621.78   70.71
  -4   2   1  423.56   44.69
  -4   2   1  455.68   48.83
   4  -2  -1  406.24   45.54
  -4  -2   1  447.39   48.76
  -4  -2   1  410.53   52.18
  -4   2   0   70.03   25.68
   4  -2   0  103.66   29.18
  -4  -2   0   83.31   33.30
  -4   2  -1  855.81   93.58
   4   2   1 1114.62   97.32
   4  -2   1  975.05  101.69
   4  -2   1  934.28  104.33
  -4   2  -2  620.26   70.64
   4   2   2  749.26   73.99
  -4  -2  -2  905.35   78.62
   4  -2   2  674.08   74.33
   4  -2   2  684.70   78.04
   4   2   3  576.07   54.55
  -4   2  -3  252.90   48.86
   4  -2   3  474.43   49.12
   4  -2   3  499.92   53.83
  -4  -2  -3  582.77   51.19
   4   2   4 1248.60   89.82
  -4   2  -4  501.56   84.29
   4  -2   4 1110.96   80.48
   4  -2   4  996.08   78.11
  -4  -2  -4 1018.20   78.98
   4   2   5  865.94   97.81
  -4   2  -5 1037.73   98.94
   4  -2   5 1009.67  101.92
   4  -2   5  894.39   97.93
   4   2   6  599.17   70.17
  -4   2  -6  536.39   68.67
   4  -2   6  425.95   61.46
   4  -2   6  286.16   55.97
  -4   2  -7  329.01   54.86
   4   2   7  384.55   58.54
   4  -2   7  322.81   59.62
   4   2   8  117.60   48.69
   4  -2   8  109.88   54.45
   4   2   9  121.65   49.17
   4  -2   9  113.99   55.17
  -4  -2  -9  110.95   53.39
  -4  -2  -9  134.45   48.50
   4   2  10  449.09   68.56
   4  -2  10  360.42   75.40
  -4  -2 -10  557.45   72.73
  -4  -2 -10  476.65   70.67
   4   2  11  185.92   54.83
  -4  -2 -11  325.76   64.30
   4  -2  11   93.14   65.14
   4   2  12   -2.60   50.04
  -4  -3  14  159.74   70.59
  -4  -3  14   52.10   67.85
  -4  -3  13   88.41   64.16
   4  -3 -13   55.59   34.96
  -4  -3  13   42.15   62.03
   4   3 -12  161.03   45.03
  -4  -3  12  167.22   55.98
  -4  -3  12  189.02   59.68
   4  -3 -12  101.14   27.87
   4  -3 -12   86.32   36.15
   4   3 -11   79.24   39.64
  -4  -3  11   15.10   47.55
   4  -3 -11    5.06   31.43
  -4  -3  11   12.93   52.04
   4  -3 -11   19.36   22.43
   4   3 -10  127.18   36.78
   4  -3 -10   87.92   33.01
   4  -3 -10  129.74   23.10
  -4  -3  10  112.06   50.86
  -4  -3  10   95.52   51.94
   4   3  -9   77.96   33.57
   4  -3  -9   48.44   17.86
   4  -3  -9   44.09   29.12
  -4  -3   9   77.91   45.51
   4   3  -8   73.45   31.76
   4  -3  -8   65.62   16.74
   4  -3  -8   82.35   26.54
  -4  -3   8   29.26   38.67
   4   3  -7  128.30   33.38
   4  -3  -7  150.10   26.53
   4  -3  -7  107.83   16.40
  -4  -3   7   79.41   38.79
   4  -3  -7   87.12   15.94
  -4  -3   7   94.34   40.46
   4   3  -6  663.23   71.51
  -4  -3   6  579.91   52.21
  -4  -3   6  537.15   50.29
   4  -3  -6  214.58   38.22
   4  -3  -6  244.42   35.26
   4   3  -5  200.77   37.68
   4  -3  -5  143.32   14.77
   4  -3  -5   75.06   13.23
   4   3  -4   74.36   28.93
  -4  -3   4  410.16   55.28
   4  -3  -4  551.04   44.54
   4   3  -3  -27.62   24.77
   4  -3  -3  248.85   25.78
  -4  -3   3  227.44   38.93
   4   3  -2  -37.77   24.09
   4  -3  -2  238.99   29.49
  -4  -3   2  348.03   39.79
   4   3  -1  -22.24   26.32
  -4  -3   1  317.27   40.98
   4  -3  -1  177.09   30.83
   4   3   0  236.18   45.28
  -4  -3   0  257.24   41.84
   4  -3   0  242.55   35.94
   4   3   1  427.62   54.55
  -4   3  -1  359.93   45.68
   4  -3   1  362.43   46.34
  -4  -3  -1  328.73   49.79
  -4  -3  -1  420.65   51.26
   4   3   2   46.81   38.01
  -4   3  -2  -67.65   25.39
  -4  -3  -2   65.36   34.82
  -4  -3  -2  117.85   37.39
   4  -3   2   41.62   31.41
  -4   3  -3  634.89   75.95
   4   3   3  821.04   80.11
   4  -3   3  454.48   67.24
   4  -3   3  585.97   70.89
  -4  -3  -3  669.80   70.05
   4   3   4  967.14   88.77
  -4   3  -4  682.90   85.62
   4  -3   4  599.02   79.73
   4  -3   4  811.43   84.26
  -4  -3  -4  860.12   80.71
   4   3   5  452.88   59.74
  -4   3  -5  308.22   53.00
   4  -3   5  249.90   49.64
  -4  -3  -5  360.18   50.26
   4  -3   5  292.34   54.70
   4   3   6  341.13   56.81
  -4   3  -6  302.73   52.26
   4  -3   6  299.56   53.93
   4  -3   6  290.19   56.80
   4   3   7  149.33   48.88
  -4   3  -7  121.25   43.29
   4  -3   7  177.22   48.77
  -4  -3  -7  158.59   46.82
   4  -3   7  186.77   54.46
  -4   3  -8  196.85   48.96
   4   3   8  249.36   55.28
  -4  -3  -8  269.35   53.41
   4  -3   8  185.05   56.41
   4  -3   8  191.76   61.71
   4   3   9  206.84   54.86
  -4   3  -9  124.52   48.05
   4  -3   9  107.50   59.25
   4  -3   9  204.82   66.22
  -4  -3  -9  242.78   53.64
   4   3  10   93.25   53.25
   4  -3  10   59.58   61.91
  -4  -3 -10  151.11   60.72
  -4  -3 -10  176.14   58.06
   4   3  11   47.60   52.18
  -4  -4  12   88.99   60.63
  -4  -4  12   78.37   59.22
   4  -4 -12  109.76   38.58
   4   4 -11   16.45   38.20
   4  -4 -11   35.51   35.17
  -4  -4  11   27.96   56.85
  -4  -4  11  -15.12   55.06
   4   4 -10  104.41   38.72
   4  -4 -10  106.60   23.97
  -4  -4  10  152.04   57.10
   4  -4 -10  119.23   35.33
   4   4  -9  131.06   39.21
   4  -4  -9   60.72   29.90
   4  -4  -9   44.91   19.27
   4  -4  -9   28.62   15.20
  -4  -4   9  105.75   46.25
   4   4  -8  197.05   42.45
   4  -4  -8  138.50   24.40
  -4  -4   8  126.29   47.62
   4  -4  -8  219.79   34.29
  -4  -4   8  129.99   47.09
   4   4  -7   64.28   37.27
  -4  -4   7   38.15   43.53
  -4  -4   7   60.44   45.24
   4  -4  -7   52.75   23.50
   4  -4  -7   57.24   27.62
   4   4  -6   62.28   36.65
  -4  -4   6   27.04   43.56
   4  -4  -6   23.48    9.44
   4  -4  -6   45.00   26.75
   4  -4  -6   28.25    8.22
  -4  -4   6   -2.56   39.83
   4   4  -5  335.82   48.54
  -4  -4   5  236.82   49.87
   4  -4  -5  281.89   32.16
   4   4  -4  207.74   39.55
  -4  -4   4  169.62   41.64
   4  -4  -4  107.23   23.72
  -4  -4   4  202.05   38.56
   4   4  -3  754.34   80.52
  -4  -4   3  643.90   56.68
   4  -4  -3  458.50   44.41
   4   4  -2  284.32   45.06
   4  -4  -2  154.67   28.55
  -4  -4   2  217.19   38.61
   4   4  -1  246.60   41.94
  -4  -4   1  238.85   41.46
   4  -4  -1  220.32   35.68
  -4   4   0  240.13   24.98
   4  -4   0  563.67   63.89
  -4  -4   0  564.83   67.32
  -4  -4   0  647.25   68.27
  -4   4  -1   38.34   18.11
   4  -4   1   73.53   30.97
  -4  -4  -1  114.41   37.62
  -4  -4  -1  113.86   38.13
   4  -4   2  244.72   46.30
  -4  -4  -2  305.73   50.34
   4   4   3  570.69   72.41
  -4  -4  -3  544.26   64.31
   4  -4   3  457.33   61.39
  -4  -4  -3  467.54   62.46
   4   4   4  123.06   48.98
  -4  -4  -4  129.89   43.05
  -4  -4  -4  180.36   45.41
   4  -4   4  163.56   46.78
   4  -4   4  143.00   41.24
   4   4   5   72.00   48.28
  -4   4  -5   41.41   39.47
   4  -4   5   58.79   46.22
   4  -4   5   55.19   40.00
  -4  -4  -5   85.78   43.35
  -4  -4  -5   76.90   43.27
  -4  -4  -5   86.00   40.88
   4   4   6  176.59   52.13
  -4   4  -6   98.61   45.38
   4  -4   6  100.59   44.90
   4  -4   6  133.98   51.70
  -4  -4  -6  145.68   46.07
  -4  -4  -6  192.31   50.74
   4   4   7  115.63   51.90
  -4   4  -7  117.64   45.85
   4  -4   7  147.62   57.04
   4  -4   7  107.44   47.38
  -4  -4  -7  134.21   47.14
  -4  -4  -7  148.14   52.18
   4   4   8  242.62   56.18
  -4   4  -8  164.03   52.72
   4  -4   8   60.85   58.42
   4  -4   8  119.91   53.66
  -4  -4  -8  189.17   54.09
   4   4   9  101.99   52.05
   4  -4   9  121.47   59.42
   4  -4   9   39.66   53.63
   4   4  10   58.90   52.06
   4   5 -10    5.04   43.66
   4  -5 -10   39.43   34.83
  -4  -5  10   12.61   50.96
  -4  -5  10   -4.08   55.97
   4   5  -9  100.17   44.41
  -4  -5   9  103.94   53.34
  -4  -5   9  171.03   54.99
   4  -5  -9  101.78   36.24
   4   5  -8   48.33   40.55
  -4  -5   8    2.15   49.62
   4  -5  -8   19.61   25.57
  -4  -5   8   41.58   48.87
   4  -5  -8    0.60   14.18
   4  -5  -8   -1.19   31.79
   4   5  -7   44.83   38.29
  -4  -5   7   10.00   48.90
   4  -5  -7  -10.67   30.60
  -4  -5   7   22.42   47.42
   4  -5  -7   15.95   29.53
   4   5  -6  158.37   43.38
  -4  -5   6  117.63   51.54
   4  -5  -6  170.48   36.77
   4   5  -5  132.77   40.01
   4  -5  -5   64.25   24.83
   4  -5  -5    4.51   35.61
   4   5  -4  105.32   39.63
  -4  -5   4  105.24   43.99
   4  -5  -4   75.17   26.54
   4   5  -3  120.19   39.65
  -4  -5   3  148.98   39.28
   4  -5  -3   81.82   27.12
   4   5  -2  227.19   45.26
   4  -5  -2  186.60   34.05
  -4  -5   2  243.79   43.65
  -4  -5   1  285.51   47.86
  -4  -5   1  295.04   51.90
   4  -5  -1  304.69   43.26
  -4  -5   0  401.54   51.26
  -4  -5   0  310.66   54.78
   4  -5   0  232.47   46.07
  -4   5  -1   53.65   17.55
  -4  -5  -1  128.61   41.33
   4  -5   1   98.82   37.91
  -4  -5  -1  161.83   42.81
  -4   5  -2   54.41   22.64
   4  -5   2  102.01   38.03
  -4  -5  -2   94.26   43.43
  -4  -5  -2  103.30   41.55
  -4   5  -3    6.86   22.12
  -4  -5  -3   39.28   42.35
   4  -5   3   15.36   40.03
  -4  -5  -3   19.28   40.69
  -4   5  -4  -41.14   22.36
  -4  -5  -4   39.75   42.94
   4  -5   4   47.25   43.75
  -4  -5  -4   37.20   42.54
  -4   5  -5   86.59   31.14
   4  -5   5   99.10   49.46
   4  -5   5  101.79   44.85
  -4  -5  -5  153.82   47.55
  -4  -5  -5  116.15   46.09
  -4  -5  -6  159.39   49.81
  -4  -5  -6  134.62   45.24
  -4  -5  -6  160.10   54.05
   4  -5   6  111.37   47.71
   4  -5   6   96.11   54.59
   4  -5   7   39.84   47.78
   4  -5   7  102.42   58.57
  -4  -5  -7   33.97   50.41
  -4  -5  -7   84.14   46.32
   4  -5   8   38.04   49.66
   4  -5   8  -14.43   57.63
  -4  -5  -8   45.48   51.18
  -4  -5  -9   99.48   53.54
   4   6  -8   22.36   44.73
   4  -6  -8   11.97   36.37
   4   6  -7   71.51   43.44
   4   6  -6   49.29   41.73
  -4  -6   6   29.20   48.05
   4  -6  -6    9.93   36.69
   4   6  -5   58.71   41.66
   4  -6  -5   30.00   41.36
  -4  -6   5   39.85   49.47
   4  -6  -5   19.98   28.19
   4   6  -4    9.65   39.45
   4  -6  -4   12.44   28.16
  -4  -6   4   28.83   46.46
   4   6  -3   58.19   41.96
   4  -6  -3   60.96   30.14
  -4  -6   2   25.01   38.63
   4  -6  -2   23.23   31.58
  -4  -6   2    6.78   45.68
   4  -6  -1   11.97   33.63
  -4  -6   1   20.93   47.01
  -4  -6   1   26.95   37.61
   4  -6   0   60.30   39.35
  -4  -6   0   57.02   39.01
  -4  -6   0   25.38   47.74
  -4  -6  -1   59.10   39.88
   4  -6   1   22.36   39.58
  -4  -6  -1   83.44   43.97
   4  -6   2   55.99   40.06
  -4  -6  -2   27.08   40.15
  -4  -6  -2    1.42   43.71
   4  -6   3   49.83   42.41
  -4  -6  -3   80.85   46.38
  -4  -6  -3   99.88   43.47
  -4  -6  -4   32.01   43.33
   4  -6   4  -14.14   46.95
  -4  -6  -4   78.96   46.57
   4  -6   5   34.92   47.90
  -4  -6  -5   20.52   44.30
   4  -6   5   34.94   46.55
  -4  -6  -5    3.18   43.65
   4  -6   6   20.59   48.06
   4  -6   6    9.87   55.26
  -4  -6  -6   64.62   46.72
  -4  -6  -6   32.42   46.71
  -4  -6  -7   30.00   49.78
   4   7  -6    1.20   41.82
   4   7  -5   22.10   40.74
   4   7  -4   53.08   42.42
   4  -7  -4  -21.11   48.18
   4  -7  -3   21.43   48.83
   4  -7  -2    4.70   35.90
   4  -7  -1  -12.31   40.97
  -4  -7   1   10.56   38.58
   4  -7   0   34.29   43.33
  -4  -7   0   54.35   41.66
  -4  -7  -1   39.27   41.43
   4  -7   1   31.84   44.25
   4  -7   2   57.40   44.84
  -4  -7  -2   33.92   41.28
   4  -7   3   13.23   47.46
  -5   0  15   76.76   68.68
  -5   0  14  113.61   64.10
  -5   0  13   36.11   56.44
  -5   0  12   49.35   50.76
  -5   0  12   13.28   50.01
  -5   0  11   14.03   41.33
  -5   0  11   31.07   45.03
  -5   0  10   18.73   10.58
  -5   0  10   64.69   43.69
  -5   0  10   47.80   39.71
   5   0 -10   50.12   29.48
  -5   0   9  887.38   64.19
  -5   0   9  956.14   69.83
  -5   0   8  965.09   75.31
   5   0  -8  771.48   70.59
  -5   0   8  872.13   70.31
  -5   0   7  373.18   43.69
   5   0  -7  351.31   44.31
  -5   0   7  339.88   39.65
  -5   0   7  472.67   47.00
  -5   0   6   74.42   23.52
   5   0  -6   90.68   25.96
  -5   0   6   89.63   25.09
  -5   0   6   88.36   22.15
   5   0  -5 1421.99  131.96
   5   0  -5 1380.62  134.22
  -5   0   5 1515.00  133.58
   5   0  -4 2016.64  181.73
   5   0  -4 1902.82  182.73
  -5   0   4 2071.99  184.24
   5   0  -3  276.93   37.02
   5   0  -3  278.22   36.36
  -5   0   3  271.92   37.67
   5   0  -2   46.40   26.83
  -5   0   2   36.16   27.34
   5   0  -2   34.77   28.40
  -5   0   2   66.67   21.41
  -5   0   1   34.77   25.21
   5   0  -1   29.65   31.61
  -5   0   1   24.01   28.94
  -5   0   0  965.82   94.96
   5   0   0 1045.52   98.85
  -5   0   0  952.05   95.94
  -5   0  -1  954.93   94.11
  -5   0  -2 1084.89   97.48
   5   0   2  872.17   96.13
   5   0   3    7.27   35.19
  -5   0  -3   42.42   31.46
  -5   0  -4  -52.71   30.85
  -5   0  -4  -30.04   29.97
   5   0   5   22.64   40.37
  -5   0  -5   57.81   37.52
   5   0   6  207.71   50.18
   5   0   6  142.47   52.56
  -5   0  -6  204.31   44.27
   5   0   7  379.21   62.29
   5   0   7  294.74   62.88
  -5   0  -7  366.74   55.67
   5   0   8  312.46   62.63
   5   0   8  269.43   61.71
  -5   0  -8  280.19   52.73
   5   0   9    3.40   55.44
  -5   0  -9   -3.47   47.93
   5   0   9    1.61   53.22
  -5   0  -9   20.60   41.87
  -5   0 -10  157.80   49.59
   5   0  10  192.59   64.95
   5   0  10  137.30   60.57
  -5   0 -10  209.42   56.33
   5   0  11   66.81   56.94
   5   0  12  118.08   58.66
   5   0  13   19.36   59.87
  -5  -1  16   28.57   70.67
  -5   1  15   61.74   61.59
  -5  -1  15   64.99   67.05
  -5  -1  15   40.12   67.81
  -5   1  14   75.65   58.29
  -5  -1  14   80.77   62.49
  -5  -1  14   91.90   63.54
  -5   1  13  103.40   54.78
   5   1 -13   42.69   39.15
  -5  -1  13  129.69   59.17
  -5  -1  13   35.14   64.07
   5   1 -12   76.20   37.35
  -5   1  12   38.26   48.97
  -5  -1  12   94.90   29.37
  -5  -1  12   78.81   56.26
  -5  -1  12  121.09   51.72
   5   1 -11  507.90   57.89
  -5   1  11  331.70   62.99
  -5  -1  11  603.25   66.78
  -5  -1  11  708.81   71.64
  -5   1  10  139.86   43.47
   5   1 -10  106.10   35.27
  -5  -1  10  195.90   49.26
  -5  -1  10  206.40   45.05
  -5  -1  10  123.52   31.04
  -5   1   9   37.39   34.61
   5   1  -9    3.37   30.62
  -5  -1   9   31.36   26.16
  -5  -1   9   41.78   39.62
  -5  -1   9   49.93   35.97
   5   1  -8  152.04   34.09
  -5   1   8  209.86   35.77
  -5  -1   8  139.13   36.27
  -5  -1   8  119.29   30.90
   5  -1  -8  185.69   29.39
  -5  -1   8  130.05   38.92
   5   1  -7  150.64   34.81
  -5   1   7  292.97   33.84
  -5  -1   7  129.94   36.17
  -5  -1   7  181.10   33.55
   5   1  -6  782.02   78.45
   5  -1  -6  578.80   58.18
  -5  -1   6  773.84   65.06
  -5  -1   6  831.97   68.30
   5  -1  -6  797.54   64.01
   5   1  -5  665.69   69.39
   5  -1  -5  531.71   51.93
  -5  -1   5  616.76   57.57
  -5  -1   5  609.92   61.07
   5  -1  -5  457.12   54.48
   5   1  -4 1239.15  120.06
   5   1  -4 1293.23  119.80
  -5  -1   4 1194.82   95.34
   5  -1  -4  957.30   91.92
  -5  -1   4 1210.53   97.63
   5   1  -3 2344.46  206.54
  -5   1   3 2082.85  202.78
   5   1  -3 2463.13  205.80
  -5   1   3 2289.92  204.39
   5  -1  -3 2275.42  214.54
  -5  -1   3 2257.28  217.15
  -5  -1   3 2604.30  216.71
   5   1  -2 2195.72  182.24
  -5   1   2 1858.80  179.32
  -5   1   2 1800.23  179.57
   5   1  -2 2162.98  181.79
  -5  -1   2 2054.59  200.70
  -5  -1   2 2303.25  200.71
  -5   1   1  882.94   91.37
  -5   1   1  926.63   92.23
   5   1  -1 1084.81   94.21
  -5  -1   1 1405.00  104.83
  -5  -1   1 1196.58  104.64
  -5   1   0  400.55   52.88
  -5   1   0  451.59   49.11
   5  -1   0  252.51   38.27
  -5  -1   0  378.26   45.12
  -5  -1   0  356.09   45.15
  -5   1  -1   82.79   28.32
  -5   1  -1   87.29   34.27
   5  -1   1   47.55   28.32
  -5  -1  -1  133.67   31.76
  -5   1  -2  133.06   30.18
   5   1   2   91.49   38.27
  -5   1  -2   70.84   33.77
   5  -1   2  180.01   36.21
  -5  -1  -2  200.97   36.61
   5   1   3  443.92   63.59
  -5   1  -3  565.44   58.73
   5  -1   3  452.41   41.79
  -5  -1  -3  -52.44   33.65
   5   1   4  767.37   64.58
  -5   1  -4 1041.06   64.55
   5  -1   4  866.78  103.38
  -5  -1  -4 1192.91  104.15
   5   1   5  706.73   78.81
  -5   1  -5  622.33   75.84
  -5   1  -5  697.65   76.79
   5  -1   5  580.32   79.53
  -5  -1  -5  866.07   81.17
   5   1   6  183.83   51.34
  -5   1  -6  254.01   45.09
  -5   1  -6  197.78   45.82
  -5  -1  -6  298.30   50.06
   5  -1   6  214.63   50.30
   5   1   7   65.66   49.42
  -5   1  -7   92.08   43.67
   5  -1   7  145.15   50.22
  -5  -1  -7   88.35   43.90
  -5  -1  -7   52.64   48.99
  -5   1  -8  128.88   47.97
   5   1   8  183.37   53.86
  -5  -1  -8  165.88   47.34
   5  -1   8  141.62   57.14
  -5  -1  -8  270.74   54.43
   5   1   9  143.55   54.34
  -5  -1  -9  209.53   55.64
   5  -1   9  123.79   58.50
   5   1  10   86.94   55.21
   5  -1  10   91.07   61.58
  -5  -1 -10  150.25   57.62
   5   1  11   21.78   55.78
   5  -1  11   17.15   63.10
   5   1  12  -17.62   56.47
   5  -1  12   17.84   60.31
  -5  -2  15  -46.63   67.43
  -5  -2  15   61.61   72.71
  -5  -2  14   81.56   66.10
  -5  -2  14  109.38   68.69
   5   2 -13   99.50   42.05
  -5  -2  13  181.54   63.88
  -5  -2  13  194.55   63.20
  -5  -2  13   64.39   37.75
   5   2 -12   33.31   35.58
  -5  -2  12   74.93   56.72
  -5  -2  12  184.35   36.56
   5  -2 -12  107.19   23.90
  -5  -2  12   93.45   53.33
   5   2 -11  297.63   47.48
  -5  -2  11  409.63   65.09
  -5  -2  11  428.13   61.55
   5  -2 -11  364.91   39.05
   5  -2 -11  418.41   46.23
   5  -2 -10  258.99   26.93
   5  -2 -10  299.82   34.87
  -5  -2  10  306.25   55.43
  -5  -2  10  277.79   53.08
  -5  -2   9  214.52   44.37
   5  -2  -9  232.97   27.33
   5  -2  -8  332.68   35.33
   5  -2  -8  273.66   36.86
   5  -2  -7   38.14   16.93
  -5  -2   7  116.86   27.72
   5  -2  -7   28.71   18.55
  -5  -2   7  107.79   34.31
   5  -2  -6  234.56   28.85
   5  -2  -6  278.20   27.71
  -5  -2   6  169.74   35.90
   5  -2  -5  202.16   24.92
   5  -2  -5  202.94   22.15
  -5  -2   5  162.74   34.34
  -5  -2   4  862.76   63.06
   5  -2  -4  712.91   54.59
   5   2  -3  234.71   41.65
  -5  -2   3  276.41   38.38
  -5   2   2  568.60   60.11
  -5   2   2  500.03   61.33
  -5  -2   2 1310.20   82.19
   5  -2  -2  668.30   74.01
  -5   2   1  247.84   35.65
  -5   2   1  269.75   33.18
   5  -2  -1  271.70   33.97
  -5  -2   1  393.08   41.58
  -5   2   0  365.90   46.24
   5  -2   0  341.57   43.89
   5  -2   0  312.93   38.60
  -5   2  -1 1168.68  112.74
  -5  -2  -1 1095.74  111.34
   5  -2   1 1128.07  106.99
   5  -2   1 1126.67  110.05
   5   2   2 1853.55  158.75
  -5   2  -2 1514.53  156.45
   5  -2   2 1537.94  121.21
   5  -2   2 1455.64  117.90
  -5  -2  -2 1851.20  122.08
  -5  -2  -2 1955.90  123.93
   5   2   3  142.49   39.24
  -5   2  -3  -44.09   31.40
   5  -2   3  148.24   38.12
  -5  -2  -3  169.89   45.54
  -5  -2  -3  243.07   41.09
   5   2   4  357.66   54.25
  -5   2  -4  335.02   51.84
   5  -2   4  310.15   48.09
  -5  -2  -4  234.07   44.14
   5   2   5  747.72   88.53
  -5   2  -5  865.76   89.19
  -5  -2  -5  726.91   82.13
   5  -2   5  786.99   86.01
  -5   2  -6   49.64   42.03
   5   2   6   82.65   46.37
  -5  -2  -6  223.43   45.36
   5  -2   6  127.10   50.16
  -5   2  -7  170.67   48.33
   5   2   7  177.32   51.50
   5  -2   7  139.92   50.26
  -5   2  -8   41.73   48.34
   5   2   8   28.76   48.16
  -5  -2  -8   61.72   51.86
   5  -2   8   36.15   50.59
   5   2   9   19.61   49.43
   5  -2   9   13.73   53.60
  -5  -2  -9   30.22   55.28
   5   2  10   28.54   51.95
  -5  -2 -10   19.40   54.09
   5  -2  10   35.72   56.53
   5   2  11   39.62   53.88
  -5  -3  14   19.63   66.23
  -5  -3  14  -28.34   64.49
   5  -3 -13   34.53   31.19
  -5  -3  13   31.67   41.01
  -5  -3  13  -45.66   58.47
  -5  -3  13   23.50   60.23
  -5  -3  12   30.52   40.06
  -5  -3  12   45.62   52.88
  -5  -3  12   17.21   55.22
   5  -3 -12   83.85   29.97
   5   3 -11  144.69   40.94
  -5  -3  11  175.87   59.62
  -5  -3  11  152.92   44.31
   5  -3 -11  157.87   21.23
  -5  -3  11  214.71   56.82
   5  -3 -11  191.25   33.42
   5   3 -10  319.36   48.36
   5  -3 -10  182.66   21.53
   5  -3 -10  239.38   33.81
  -5  -3  10  279.57   48.10
   5   3  -9  124.55   36.94
  -5  -3   9   87.50   43.64
  -5  -3   9  101.13   42.82
   5  -3  -9  103.90   11.88
   5   3  -8  449.76   56.13
  -5  -3   8  417.59   65.42
  -5  -3   8  323.32   60.54
   5  -3  -8  468.48   49.67
   5   3  -7  437.48   54.46
  -5  -3   7  363.56   51.82
   5  -3  -7  329.45   33.98
   5  -3  -7  263.42   32.18
   5  -3  -7  432.36   38.39
  -5  -3   7  288.07   49.39
   5   3  -6  160.41   34.72
   5  -3  -6   56.32   13.66
   5  -3  -6   91.62   22.06
   5   3  -5  623.01   67.21
  -5  -3   5  481.45   41.73
  -5  -3   5  519.50   44.95
   5   3  -4  287.84   41.71
   5  -3  -4  172.63   19.98
  -5  -3   4  140.41   38.54
  -5  -3   4  172.22   39.58
   5   3  -3  184.21   37.46
  -5  -3   3  154.47   38.05
  -5  -3   3  122.09   37.14
   5  -3  -3  131.51   22.37
   5   3  -2  255.63   40.63
   5  -3  -2  163.47   24.85
  -5  -3   2  130.26   37.19
  -5   3   1  255.41   25.73
  -5  -3   1  894.50   77.68
   5  -3  -1  599.34   70.53
  -5   3   0  142.35   30.19
   5  -3   0  194.52   42.37
  -5  -3   0  482.01   50.18
   5   3   1  229.34   45.12
  -5   3  -1  212.24   35.04
   5  -3   1  134.10   32.59
   5  -3   1  180.18   36.54
   5   3   2  344.70   44.64
  -5   3  -2  -69.63   28.37
   5  -3   2  416.45   53.23
  -5  -3  -2  310.14   52.81
  -5  -3  -2  456.41   57.34
   5  -3   2  358.89   47.61
   5   3   3  737.33   74.87
  -5   3  -3  549.57   70.00
   5  -3   3  640.82   73.73
   5  -3   3  532.31   69.00
  -5  -3  -3  733.15   76.33
  -5  -3  -3  650.81   72.42
   5   3   4  497.84   61.25
  -5   3  -4  324.65   53.85
   5  -3   4  446.35   66.99
   5  -3   4  370.29   62.53
  -5  -3  -4  702.99   66.26
  -5  -3  -4  588.25   66.08
   5   3   5  147.98   48.57
  -5   3  -5  121.38   41.99
   5  -3   5  100.44   42.19
   5  -3   5  117.60   47.05
  -5  -3  -5   69.36   44.08
   5   3   6   83.37   50.33
  -5   3  -6  112.45   41.64
   5  -3   6  116.73   46.60
   5  -3   6  170.22   52.53
   5   3   7  109.62   51.51
  -5   3  -7   18.48   43.40
   5  -3   7   16.29   51.00
   5  -3   7    9.05   48.78
   5   3   8  160.39   54.05
  -5   3  -8  122.35   47.72
   5  -3   8  123.99   55.82
  -5   3  -9   93.47   49.24
   5   3   9   64.40   54.56
   5  -3   9   38.92   57.81
   5   3  10  164.36   59.16
   5  -3  10  121.98   63.21
   5   3  11   95.28   57.52
  -5  -4  12   17.92   55.39
  -5  -4  12   37.06   45.82
  -5  -4  12   57.23   60.42
   5   4 -11   57.37   40.11
  -5  -4  11   97.71   58.03
  -5  -4  11   56.62   46.87
   5  -4 -11   39.31   29.74
   5   4 -10   76.09   40.63
  -5  -4  10  104.64   52.54
   5  -4 -10   98.17   30.44
  -5  -4  10   58.98   47.09
   5   4  -9   91.46   40.65
  -5  -4   9   93.05   48.50
   5  -4  -9  105.55   26.47
  -5  -4   9   55.05   47.03
   5  -4  -9   33.34   10.05
   5  -4  -9   66.88   17.58
   5  -4  -9   45.25    8.56
   5   4  -8  -11.37   37.33
   5  -4  -8   27.26   24.39
   5  -4  -8    2.10    6.64
   5  -4  -8   12.39   14.74
  -5  -4   8   17.83   41.07
   5  -4  -8    4.30    7.68
   5  -4  -8    7.63   13.09
  -5  -4   8   -3.57   44.97
   5   4  -7  363.25   54.31
   5  -4  -7  199.74   27.22
  -5  -4   7  296.68   47.18
   5  -4  -7   97.15   15.97
   5  -4  -7  171.75   16.62
   5  -4  -7  232.57   30.71
  -5  -4   7  344.14   51.56
   5   4  -6  158.13   40.23
   5  -4  -6  106.82   15.65
  -5  -4   6  156.90   44.33
   5   4  -5  705.90   77.93
   5  -4  -5  636.81   60.15
  -5  -4   5  561.99   74.19
   5   4  -4  643.38   72.87
   5  -4  -4  452.54   47.37
  -5  -4   4  472.46   61.31
  -5  -4   4  474.05   61.67
   5   4  -3  851.59   90.16
  -5  -4   3  668.39   65.24
  -5  -4   3  751.40   65.75
   5   4  -2  468.44   60.68
  -5  -4   2  296.83   47.69
   5  -4  -2  347.68   36.76
   5  -4  -1  364.76   45.27
  -5  -4   1  400.07   55.40
  -5   4   0  259.83   26.42
   5  -4   0  565.24   63.74
  -5  -4   0  599.38   69.11
  -5  -4   0  598.72   68.32
  -5  -4  -1   56.36   39.75
  -5  -4  -1   35.63   38.31
   5  -4   1   26.29   33.06
   5   4   2   60.18   45.78
   5  -4   2   73.07   38.87
  -5  -4  -2   95.35   41.97
  -5  -4  -2  117.10   42.95
   5   4   3  162.33   50.59
  -5   4  -3   34.83   38.70
  -5  -4  -3   94.01   42.00
  -5  -4  -3  156.41   45.54
   5  -4   3   80.79   37.81
   5  -4   3   55.97   41.97
   5   4   4  133.89   50.68
  -5   4  -4   67.82   41.95
   5  -4   4   88.35   45.12
  -5  -4  -4  107.63   43.86
  -5  -4  -4  131.16   46.64
   5  -4   4   75.36   39.34
  -5   4  -5   33.37   43.22
   5   4   5   90.54   49.23
   5  -4   5   35.44   40.42
  -5  -4  -5   31.84   46.39
   5  -4   5   40.75   49.14
  -5  -4  -5   43.05   43.21
   5   4   6  340.30   61.56
  -5   4  -6  288.17   58.19
   5  -4   6  278.64   60.25
  -5  -4  -6  277.90   55.18
   5  -4   6  239.98   53.22
  -5  -4  -6  283.01   55.87
   5   4   7  116.06   53.93
  -5   4  -7   54.12   49.74
   5  -4   7   41.43   54.30
   5  -4   7   72.88   48.76
   5   4   8  180.32   57.26
  -5   4  -8  139.32   54.39
   5  -4   8   74.73   52.50
   5  -4   8  127.01   61.12
   5   4   9  128.18   56.82
   5  -4   9  108.72   58.16
   5   4  10   52.77   55.45
  -5  -5  10   55.94   54.43
  -5  -5  10   -9.05   49.86
   5   5  -9   88.92   44.45
  -5  -5   9   58.80   48.96
  -5  -5   9   11.96   48.27
   5  -5  -9   21.25   27.94
   5   5  -8   23.25   40.45
  -5  -5   8   75.35   47.83
  -5  -5   8   84.08   52.22
   5  -5  -8   21.92   27.80
   5  -5  -8   36.23   26.45
   5   5  -7  152.24   44.89
  -5  -5   7  132.19   54.22
  -5  -5   7  101.26   50.16
   5  -5  -7  125.80   32.79
   5  -5  -7  142.64   32.41
   5  -5  -7  154.01   21.34
   5   5  -6   32.68   38.96
  -5  -5   6   50.43   46.88
  -5  -5   6   17.94   45.38
   5  -5  -6   32.46   33.31
   5  -5  -6   35.08   17.71
   5   5  -5  148.09   43.33
  -5  -5   5  167.96   48.39
   5  -5  -5   88.88   23.56
   5   5  -4  146.36   42.54
   5  -5  -4  108.91   26.35
  -5  -5   4  106.74   41.87
  -5  -5   4  101.26   43.75
   5   5  -3  269.24   48.85
  -5  -5   3  235.18   50.29
   5  -5  -3  249.89   36.73
  -5  -5   3  225.03   48.25
   5   5  -2  435.42   60.07
  -5  -5   2  451.13   56.96
   5  -5  -2  364.30   48.21
  -5  -5   1   32.63   37.64
   5  -5  -1   40.69   28.89
  -5  -5   0   69.99   43.68
  -5  -5   0   86.21   42.27
   5  -5   0  102.69   34.65
  -5   5  -1   53.54   16.39
   5  -5   1  165.56   41.67
  -5  -5  -1  207.52   50.25
  -5  -5  -1  267.59   48.74
  -5   5  -2  169.73   27.73
   5  -5   2  192.61   47.09
  -5  -5  -2  227.48   50.95
  -5  -5  -2  280.08   52.19
  -5   5  -3   77.00   23.34
  -5  -5  -3   78.25   45.73
   5  -5   3   68.36   44.78
  -5  -5  -3  107.97   44.34
   5  -5   4   56.99   46.30
  -5  -5  -4   33.75   45.66
  -5  -5  -4   36.81   44.86
   5  -5   4  -19.47   39.75
  -5  -5  -5  259.01   52.02
  -5  -5  -5  280.17   56.22
   5  -5   5   95.49   47.08
   5  -5   5  217.54   55.02
  -5  -5  -6  101.39   48.85
  -5  -5  -6  121.16   52.36
   5  -5   6   58.04   55.52
   5  -5   6   90.13   47.16
   5  -5   7   69.70   58.80
   5  -5   7   49.96   49.78
  -5  -5  -7   55.37   48.90
  -5  -5  -7   52.93   50.74
  -5  -5  -8   79.21   57.55
   5   5   9  -10.87   56.50
   5   6  -7   -0.58   43.34
  -5  -6   7   20.69   56.14
   5   6  -6   89.56   44.03
   5  -6  -6   63.62   39.18
   5   6  -5   63.12   44.18
   5  -6  -5   10.57   40.48
  -5  -6   5   40.13   49.25
   5   6  -4    7.54   41.89
  -5  -6   4  -32.89   47.27
   5  -6  -4  -12.09   28.05
   5   6  -3   34.64   41.26
  -5  -6   3   39.95   42.00
   5  -6  -3   39.34   31.70
  -5  -6   2   68.41   42.33
   5  -6  -2    2.58   32.07
  -5  -6   1   35.26   45.73
   5  -6  -1   18.72   33.13
  -5  -6   1    0.48   41.03
  -5  -6   0   32.29   40.83
  -5  -6   0   -7.94   45.03
   5  -6   0   11.02   35.82
  -5  -6  -1   99.04   45.78
  -5  -6  -1   63.42   46.27
   5  -6   1   70.61   40.20
  -5  -6  -2   54.47   47.35
   5  -6   2   31.41   42.18
  -5  -6  -2   71.26   47.09
  -5  -6  -3   54.78   45.37
   5  -6   3   55.09   46.18
  -5  -6  -3   84.23   49.05
   5  -6   4   98.45   46.11
  -5  -6  -4   97.12   49.31
   5  -6   4  123.60   51.78
   5  -6   5   45.41   54.97
  -5  -6  -5  131.45   49.45
   5  -6   5   19.71   46.65
  -5  -6  -6   21.52   50.18
  -5  -6  -7   54.76   53.66
   5   7  -4   30.98   41.90
   5  -7  -4    5.15   48.37
  -5  -7   2   -2.17   42.82
  -5  -7   1   -4.31   43.18
  -5  -7   0   14.65   43.60
   5  -7   0    6.11   39.26
  -5  -7  -1   57.98   44.58
   5  -7   1   71.82   42.25
   5  -7   2   14.19   45.33
  -5  -7  -2   22.95   43.38
   5  -7   3   37.65   50.85
  -6   0  15   34.07   62.37
   6   0 -14   73.25   39.23
  -6   0  14   67.43   59.15
   6   0 -13   50.52   34.32
  -6   0  13   77.29   54.00
   6   0 -12   93.58   36.61
  -6   0  12  149.02   49.98
  -6   0  12   95.36   50.28
   6   0 -11   26.30   32.80
  -6   0  11   63.16   43.47
  -6   0  11  101.39   42.50
   6   0 -10  -16.92   30.04
  -6   0  10   -7.73   41.32
  -6   0  10    8.90   35.88
   6   0  -9  314.04   45.32
  -6   0   9  426.53   52.92
  -6   0   9  349.31   46.59
   6   0  -8  408.81   50.48
  -6   0   8  421.76   49.38
  -6   0   8  482.87   53.61
   6   0  -7   99.46   27.16
  -6   0   7   68.35   27.48
  -6   0   7   68.66   22.91
   6   0  -6  186.90   29.26
   6   0  -6  218.21   34.88
  -6   0   6  190.49   29.05
  -6   0   6  233.39   29.64
   6   0  -5   -6.97   23.77
   6   0  -5   -2.33   22.67
  -6   0   5    0.78   26.97
   6   0  -4  205.54   33.64
   6   0  -4  209.17   31.54
  -6   0   4  190.79   34.80
   6   0  -3 1002.93   94.81
  -6   0   3  999.99   96.32
   6   0  -3  922.89   94.58
   6   0  -2  443.17   51.03
  -6   0   2  439.38   51.09
  -6   0   2  401.77   45.37
   6   0  -1 1025.30   99.59
  -6   0   1  990.22   99.35
  -6   0   1 1005.02   96.32
   6   0   0  108.64   36.07
  -6   0   0   84.04   29.90
  -6   0   0   97.28   34.28
   6   0   1  163.21   42.08
  -6   0  -1  179.42   35.62
  -6   0  -2 1178.01  110.31
   6   0   2 1066.37  110.07
   6   0   3 1054.24   63.95
  -6   0  -3   -5.10   49.22
  -6   0  -4  674.91   70.06
   6   0   4  530.82   70.06
  -6   0  -4  646.15   72.68
   6   0   4  467.21   73.03
   6   0   5   43.92   43.07
   6   0   5   37.16   47.17
  -6   0  -5   57.97   40.20
  -6   0  -5   40.42   40.22
   6   0   6   54.85   49.97
  -6   0  -6  101.35   42.77
  -6   0  -6   56.28   45.23
   6   0   6   37.84   47.01
   6   0   7  791.96   99.19
  -6   0  -7  878.14   94.85
   6   0   7  865.90  100.35
   6   0   8  111.91   56.15
  -6   0  -8   74.44   45.91
   6   0   8  114.81   55.22
   6   0   9  114.81   60.10
  -6   0  -9  142.83   48.12
   6   0   9  110.81   56.61
   6   0  10  -16.00   56.07
   6   0  10   15.51   59.10
   6   0  11   -3.69   54.42
   6   0  12   -1.35   59.76
  -6  -1  15    7.10   65.89
  -6   1  14   17.44   51.46
  -6  -1  14   82.38   63.33
  -6  -1  14   47.40   56.81
   6  -1 -14   47.74   37.16
   6   1 -13   19.97   38.06
  -6   1  13   32.14   48.16
  -6  -1  13   16.34   55.26
   6  -1 -13   10.90   32.93
  -6  -1  13   33.39   59.42
   6   1 -12   54.16   37.39
  -6   1  12   98.51   45.56
   6  -1 -12   64.42   32.25
  -6  -1  12   36.78   26.22
  -6  -1  12   41.76   49.27
  -6  -1  12  123.65   55.83
   6   1 -11  236.97   42.52
  -6   1  11  135.77   45.37
  -6  -1  11  252.03   52.41
  -6  -1  11  157.73   30.95
  -6  -1  11  257.22   46.82
   6   1 -10   32.04   32.53
  -6   1  10  103.56   37.27
  -6  -1  10   66.05   28.56
  -6  -1  10   56.02   44.86
  -6  -1  10   20.90   37.26
  -6   1   9  248.50   40.44
   6   1  -9  263.98   41.56
   6  -1  -9  208.30   38.98
  -6  -1   9  340.01   47.80
  -6  -1   9  285.33   38.16
  -6  -1   9  331.98   48.99
   6   1  -8  102.53   30.79
  -6   1   8   18.34   24.86
   6  -1  -8   15.78   24.29
  -6  -1   8   79.98   35.40
  -6  -1   8   94.52   31.40
  -6  -1   8   80.88   27.80
   6   1  -7   35.94   28.56
   6  -1  -7   23.94   22.95
  -6  -1   7   52.68   27.51
  -6  -1   7   49.52   29.32
   6   1  -6  421.88   51.26
   6  -1  -6  532.99   49.54
   6  -1  -6  508.24   54.03
  -6  -1   6  429.28   55.72
   6   1  -5  782.75   76.04
   6   1  -5  710.42   76.69
  -6  -1   5  685.95   72.45
   6  -1  -5  621.03   66.25
  -6  -1   5  682.34   68.65
   6  -1  -5  674.30   64.68
   6   1  -4  743.21   63.74
   6   1  -4  689.11   62.35
   6  -1  -4  463.21   54.34
  -6  -1   4  654.50   60.33
   6  -1  -4  387.36   53.22
  -6  -1   4  727.65   59.24
   6   1  -3  333.03   39.40
   6   1  -3  293.30   38.79
  -6  -1   3  246.25   36.01
  -6  -1   3  273.21   38.70
   6  -1  -3  113.51   28.83
   6  -1  -3  138.22   33.94
  -6   1   2  406.02   45.42
   6   1  -2  353.42   47.28
  -6   1   2  379.03   44.09
   6   1  -2  328.90   48.14
  -6  -1   2  340.73   43.29
  -6  -1   2  247.60   44.98
   6   1  -1  230.71   38.56
  -6   1   1  182.66   37.40
  -6   1   1  176.04   28.76
  -6   1   1  178.21   33.74
   6  -1  -1  107.01   23.26
  -6  -1   1  122.36   35.10
  -6  -1   1  190.42   36.72
  -6   1   0  969.42   98.95
  -6   1   0 1010.63  101.64
   6   1   0 1172.66  103.70
  -6  -1   0 1031.73  103.34
   6  -1   0 1096.40  101.19
  -6  -1   0 1040.26  106.61
  -6   1  -1 1237.23  123.23
  -6   1  -1 1302.84  121.89
   6  -1   1 1408.72  156.22
  -6  -1  -1 1860.14  160.84
  -6  -1  -1 1896.24  158.26
  -6   1  -2  134.62   30.21
  -6   1  -2  -76.27   32.50
   6  -1   2  221.97   34.14
  -6  -1  -2  -44.21   28.16
   6   1   3   98.89   42.05
  -6   1  -3  238.00   41.21
   6  -1   3  139.69   38.62
  -6  -1  -3  191.41   39.02
   6   1   4  567.85   72.68
  -6   1  -4  679.21   73.65
  -6   1  -4  537.01   68.07
   6  -1   4  614.72   78.05
  -6  -1  -4  780.37   79.11
  -6   1  -5  464.64   67.76
  -6   1  -5  622.28   72.48
   6   1   5  585.70   72.20
  -6  -1  -5  718.83   77.99
   6  -1   5  563.73   76.03
  -6   1  -6  250.61   52.04
   6   1   6  286.64   57.22
  -6   1  -6  331.48   57.30
  -6  -1  -6  358.22   56.22
   6  -1   6  267.39   58.00
   6   1   7   75.73   51.50
  -6   1  -7  113.14   47.40
  -6   1  -7   63.99   45.61
   6  -1   7   78.15   50.49
  -6  -1  -7  142.36   49.03
   6   1   8   16.71   51.97
  -6   1  -8  -22.86   46.26
  -6   1  -8   23.90   45.01
  -6  -1  -8   10.29   52.12
   6  -1   8   35.19   51.98
  -6  -1  -8    3.98   43.65
   6   1   9  103.80   56.86
   6  -1   9  111.42   57.62
  -6  -1  -9   96.72   48.77
  -6  -1  -9  144.09   56.87
   6   1  10  219.88   63.07
   6  -1  10  297.63   71.78
   6   1  11   70.82   58.66
   6  -1  11   76.02   62.86
   6   1  12   55.79   58.87
   6  -2 -15  -14.06   36.22
  -6  -2  15  -32.78   68.59
  -6  -2  15   49.96   66.69
  -6  -2  14   32.07   63.67
  -6  -2  14   32.08   59.46
   6  -2 -14    4.13   33.41
   6   2 -13    1.52   38.46
   6  -2 -13   20.97   32.21
  -6  -2  13   24.56   57.13
  -6  -2  13  -64.22   59.34
   6   2 -12  107.53   39.63
  -6  -2  12  174.37   33.49
  -6  -2  12  126.61   55.94
   6  -2 -12   51.88   31.43
  -6  -2  12   98.79   51.57
   6   2 -11  106.14   37.83
  -6  -2  11  147.28   48.87
  -6  -2  11  105.70   49.65
  -6  -2  11   55.33   28.54
   6  -2 -11   46.46   28.97
   6   2 -10   86.97   36.09
  -6  -2  10   48.60   46.81
   6  -2 -10   95.83   27.01
  -6  -2  10   90.20   45.31
   6   2  -9   52.46   31.87
  -6  -2   9  -44.90   26.05
  -6  -2   9   15.32   37.28
   6  -2  -9   24.79   23.17
   6   2  -8  206.38   39.00
   6  -2  -8  368.97   32.80
  -6  -2   8  221.94   46.09
   6  -2  -7   50.17    8.58
   6  -2  -7  122.16   21.86
  -6  -2   6  -57.05   26.16
   6  -2  -6   50.11   19.04
   6  -2  -5   66.37   19.22
  -6  -2   5  -56.43   26.16
   6   2  -4  207.70   40.30
   6  -2  -4   95.36   19.02
  -6  -2   4  -56.73   27.64
  -6   2   3  641.08   68.25
  -6   2   3  768.08   69.65
  -6  -2   3  -28.17   52.04
   6  -2  -3  557.08   46.87
  -6   2   2  888.65   99.22
  -6   2   2 1003.19   98.82
   6  -2  -2  909.56   66.03
  -6  -2   2  -10.44   67.46
  -6   2   1  141.73   32.84
  -6   2   1  161.64   29.70
   6  -2  -1  181.26   25.57
  -6  -2   1   -5.36   29.20
  -6   2   0  140.88   31.06
   6  -2   0  129.84   28.36
  -6   2  -1  322.53   42.40
   6  -2   1  254.39   37.72
   6   2   2  482.39   47.57
  -6   2  -2  -32.64   30.91
   6  -2   2  508.06   50.51
  -6  -2  -2  565.93   54.96
   6   2   3  338.92   51.26
  -6   2  -3  214.64   43.67
   6  -2   3  262.38   53.26
  -6  -2  -3  553.93   57.02
  -6   2  -4  254.72   51.83
   6   2   4  422.04   56.67
  -6  -2  -4  577.72   60.78
   6  -2   4  271.30   55.37
   6   2   5  350.39   55.20
  -6   2  -5  213.16   50.98
  -6  -2  -5  433.14   56.71
   6  -2   5  276.88   55.34
  -6   2  -6   45.77   44.34
   6   2   6   51.33   48.01
  -6  -2  -6   52.78   44.03
   6  -2   6  104.74   45.62
  -6   2  -7  379.92   60.70
   6   2   7  241.74   58.56
   6  -2   7  251.05   58.71
  -6  -2  -7  370.42   58.18
   6   2   8  310.74   61.18
  -6   2  -8  240.32   57.06
  -6  -2  -8  341.06   61.50
  -6  -2  -8  321.95   69.71
   6  -2   8  246.09   63.07
  -6   2  -9  173.02   56.04
   6   2   9  207.34   59.75
  -6  -2  -9  284.57   60.26
   6  -2   9  186.93   62.72
  -6  -2  -9  303.07   66.41
   6   2  10   68.11   55.63
   6  -2  10  107.34   61.24
   6   2  11   52.10   55.64
  -6  -3  14   19.53   64.28
  -6  -3  14   33.81   61.61
  -6  -3  13    0.72   58.21
  -6  -3  13   48.14   57.46
   6  -3 -13   27.39   29.97
  -6  -3  12    8.17   37.33
  -6  -3  12   12.15   54.68
  -6  -3  12    0.66   55.52
   6  -3 -12   49.59   26.45
   6  -3 -12   36.96   26.67
   6  -3 -11   86.02   26.25
  -6  -3  11   19.97   51.96
  -6  -3  11   74.37   53.42
   6  -3 -11  127.47   25.00
  -6  -3  11   57.84   39.41
   6  -3 -10   56.62   22.90
   6  -3 -10   77.13   21.46
  -6  -3  10   93.46   47.11
  -6  -3  10   71.46   39.45
  -6  -3   9   81.88   37.55
   6  -3  -9   -0.58   18.37
  -6  -3   9  106.26   44.67
   6  -3  -9    4.20   18.53
   6   3  -8  115.98   36.30
   6  -3  -8   19.22   16.80
  -6  -3   8   33.18   37.20
   6  -3  -8   28.64   18.40
   6   3  -7   24.93   31.59
   6  -3  -7   40.06   18.35
   6  -3  -7   33.29   16.12
  -6  -3   7   33.44   38.42
   6   3  -6  103.77   32.32
   6  -3  -6  147.29   20.61
  -6  -3   6   99.30   39.55
   6  -3  -6  110.31   16.66
   6   3  -5    8.63   26.40
  -6  -3   5  421.65   52.21
  -6  -3   5  479.11   50.28
   6   3  -4  -42.18   28.49
  -6  -3   4  163.80   39.93
  -6  -3   4  191.02   41.88
   6   3  -3   55.13   29.73
  -6  -3   3  233.92   43.10
  -6  -3   3  222.73   41.83
   6   3  -2  142.45   33.65
   6   3  -2  169.84   41.11
  -6  -3   2  142.96   41.28
   6  -3  -2   87.03   26.72
  -6  -3   2  127.68   33.43
  -6   3   1  265.69   31.16
  -6   3   1  329.84   38.17
   6  -3  -1  366.11   41.01
  -6  -3   1  282.52   49.26
   6  -3  -1  362.09   37.02
  -6   3   0  158.97   31.87
   6  -3   0  116.89   30.10
   6  -3   0  180.58   36.43
   6   3   1  344.16   45.90
  -6   3  -1  -63.75   25.94
   6  -3   1  188.31   39.21
   6  -3   1  254.19   44.82
   6   3   2  254.95   47.42
  -6   3  -2   85.76   35.90
   6  -3   2   76.89   34.54
  -6  -3  -2  246.28   47.35
   6  -3   2   89.14   40.25
  -6  -3  -2  190.47   43.49
  -6   3  -3  180.88   44.31
   6   3   3  382.77   55.45
   6  -3   3  216.74   52.19
   6  -3   3  211.40   46.18
  -6  -3  -3  392.10   54.29
  -6  -3  -3  445.35   58.11
  -6  -3  -3  312.60   53.78
   6   3   4  647.99   74.41
  -6   3  -4  474.65   67.14
  -6  -3  -4  566.04   72.23
  -6  -3  -4  599.66   72.76
   6  -3   4  470.49   66.34
   6  -3   4  547.93   72.89
  -6  -3  -4  577.43   71.31
  -6   3  -5   43.06   39.89
   6   3   5   29.33   49.13
  -6  -3  -5   39.66   42.34
   6  -3   5   26.47   42.23
   6   3   6  281.03   57.64
  -6   3  -6  164.46   50.17
   6  -3   6  164.59   51.95
  -6  -3  -6  295.59   53.17
   6   3   7  546.38   68.10
  -6   3  -7  234.45   57.29
   6  -3   7  337.38   71.68
  -6  -3  -7  598.30   71.06
  -6   3  -8   65.19   46.98
   6   3   8   96.91   56.20
   6  -3   8  105.14   55.47
   6   3   9  225.75   63.07
   6  -3   9  140.69   58.61
   6   3  10   43.14   58.20
   6   3  11   81.75   60.03
  -6  -4  13    3.17   60.60
  -6  -4  12   32.12   59.69
  -6  -4  12    4.37   41.95
  -6  -4  12   54.44   58.57
  -6  -4  11   28.80   43.16
  -6  -4  11   92.86   56.65
   6   4 -10   56.66   41.78
  -6  -4  10   63.02   44.12
  -6  -4  10  121.00   49.96
   6  -4 -10   17.41   17.42
   6  -4 -10   54.37   24.24
   6   4  -9   55.30   42.78
  -6  -4   9   61.86   43.79
   6  -4  -9   76.75   14.97
  -6  -4   9  130.79   51.65
   6  -4  -9  125.30   25.02
   6  -4  -9   13.18    6.31
   6   4  -8   40.86   37.92
  -6  -4   8   47.31   45.82
   6  -4  -8   12.18   15.70
   6  -4  -8   15.04    9.35
   6  -4  -8   41.74   23.23
  -6  -4   8   16.08   42.03
   6   4  -7   37.89   37.57
  -6  -4   7   23.65   42.60
   6  -4  -7   25.26   23.29
  -6  -4   7   62.71   44.64
   6   4  -6  235.99   45.59
   6  -4  -6   78.15   26.44
  -6  -4   6  227.53   47.41
   6   4  -5  143.81   41.04
  -6  -4   5  114.37   42.61
  -6  -4   5   82.15   42.82
   6  -4  -5   48.43   13.14
   6   4  -4   89.50   39.50
   6  -4  -4   57.90   19.49
  -6  -4   4   52.28   40.38
  -6  -4   4   63.04   42.00
   6   4  -3  104.90   39.59
  -6  -4   3   75.62   38.08
  -6  -4   3   61.42   39.16
   6  -4  -3   68.77   24.07
   6   4  -2   59.06   38.37
  -6  -4   2   79.77   42.09
   6  -4  -2   46.97   27.36
  -6  -4   2   76.03   36.46
   6  -4  -1  101.48   33.35
  -6  -4   1  227.90   46.51
  -6  -4   0  696.94   67.07
   6  -4   0  344.09   57.53
   6   4   1  266.37   55.57
   6  -4   1  178.66   39.33
   6  -4   1  245.81   44.68
  -6  -4  -1  234.73   48.96
  -6  -4  -1  258.33   50.00
   6   4   2   91.87   51.47
  -6   4  -2   61.53   38.07
   6  -4   2   71.19   34.51
   6  -4   2   81.10   41.98
  -6  -4  -2   68.72   45.26
  -6  -4  -2   91.89   44.05
  -6   4  -3  316.89   64.09
   6   4   3  765.22   73.49
   6  -4   3  450.42   65.68
  -6  -4  -3  713.44   72.17
   6  -4   3  328.76   60.47
  -6  -4  -3  595.74   67.61
  -6   4  -4  109.45   46.98
   6   4   4  268.42   56.26
   6  -4   4   99.73   43.89
  -6  -4  -4  226.17   49.43
  -6  -4  -4  257.88   52.31
  -6  -4  -4  242.47   53.97
   6  -4   4  136.09   49.22
  -6   4  -5  117.50   48.20
   6   4   5  148.02   54.75
  -6  -4  -5  170.30   50.47
   6  -4   5   74.23   50.83
  -6  -4  -5  202.24   54.12
   6  -4   5   83.98   44.84
  -6  -4  -5  147.20   50.84
   6   4   6  187.04   57.34
  -6   4  -6  141.95   53.30
   6  -4   6  102.94   49.21
   6  -4   6  239.34   59.51
  -6  -4  -6  261.19   57.37
   6   4   7   38.38   53.88
  -6   4  -7   23.49   48.11
   6  -4   7   11.59   59.71
  -6  -4  -7   63.08   51.40
   6  -4   7   38.47   50.26
   6   4   8   -1.80   55.69
   6  -4   8   -8.21   53.25
   6   4   9   75.25   58.68
   6   4  10   58.10   58.60
  -6  -5  10  -24.34   48.20
  -6  -5  10   12.11   52.83
   6   5  -9    8.92   42.05
  -6  -5   9  -15.64   47.90
  -6  -5   9   22.80   53.16
   6   5  -8   76.38   44.61
   6  -5  -8   -4.15   26.55
  -6  -5   8   42.64   47.19
  -6  -5   8  103.00   54.74
   6   5  -7   50.23   39.53
  -6  -5   7   45.15   46.18
   6  -5  -7   26.35   26.55
   6  -5  -7   23.79   29.87
  -6  -5   7   27.30   49.82
   6   5  -6  197.08   48.66
  -6  -5   6  144.73   51.01
   6  -5  -6   88.06   16.84
   6   5  -5   12.78   39.85
  -6  -5   5  -14.66   46.81
   6  -5  -5    9.81   18.18
   6   5  -4  137.19   44.20
   6  -5  -4   65.81   24.62
  -6  -5   4  130.64   45.96
  -6  -5   4  155.65   45.03
   6   5  -3  242.27   50.72
  -6  -5   3  197.91   47.36
  -6  -5   3  144.34   46.30
   6  -5  -3   75.24   28.12
  -6  -5   2   96.14   41.98
   6  -5  -2   74.55   31.47
   6  -5  -1   60.48   33.38
  -6  -5   1   48.44   44.55
  -6  -5   0    6.43   46.02
  -6  -5   0   16.68   43.09
  -6   5  -1   37.32   13.92
  -6  -5  -1  155.21   47.13
   6  -5   1  100.37   41.78
  -6  -5  -1  102.48   47.86
  -6   5  -2   53.84   22.37
  -6  -5  -2  245.73   50.86
   6  -5   2  113.50   45.41
  -6  -5  -2  260.40   51.54
   6  -5   2   84.82   40.49
  -6  -5  -3  111.95   50.14
  -6  -5  -3  109.31   48.17
   6  -5   3  143.16   48.63
   6  -5   3   81.76   40.43
   6  -5   4   29.44   40.70
  -6  -5  -4   73.90   50.14
   6  -5   4   42.51   50.36
  -6  -5  -4   67.20   48.01
   6   5   5   73.20   57.18
  -6  -5  -5  143.82   51.90
  -6  -5  -5   90.23   48.88
   6  -5   5  104.69   53.67
   6  -5   5   57.47   44.54
   6   5   6   90.61   59.18
   6  -5   6  -18.06   47.48
  -6  -5  -6   91.08   54.99
   6  -5   6   39.46   52.65
  -6  -5  -6   43.64   51.06
   6   5   7   61.48   59.68
   6  -5   7    3.85   49.72
  -6  -5  -7   11.94   55.68
   6   5   8  122.67   62.30
   6   6  -6   82.37   45.96
   6   6  -5   53.32   44.89
   6   6  -4   10.01   46.10
  -6  -6   4   19.62   43.70
  -6  -6   3   51.89   44.91
   6  -6  -3   -9.55   28.42
  -6  -6   2    7.71   45.99
   6  -6  -2    7.47   31.35
   6  -6  -1    5.65   35.25
  -6  -6   1   41.51   44.32
  -6  -6   0   24.30   45.17
   6  -6   0   15.14   38.61
  -6  -6  -1   27.31   46.76
   6  -6   1   38.52   42.08
   6  -6   2  -11.90   45.03
  -6  -6  -2  -10.57   50.79
   6  -6   3   -3.05   41.66
   6  -6   3   38.12   48.02
  -6  -6  -3    8.92   45.87
   6  -6   4  -14.19   41.47
  -6  -6  -4   -1.29   50.56
   6  -6   4   68.23   51.46
   6  -6   5   -1.98   54.49
   6  -6   5   54.68   45.08
  -6  -6  -5  103.18   51.44
  -6  -7   2   -7.14   47.01
  -6  -7   1   32.71   47.66
  -6  -7   0   14.67   46.32
  -6  -7  -1    8.40   47.50
  -6  -7  -2   28.97   46.54
  -7   0  14   14.72   52.96
   7   0 -14   29.55   37.66
   7   0 -13   29.40   35.60
  -7   0  13   88.69   49.35
  -7   0  13    3.80   49.33
   7   0 -12   72.74   35.62
  -7   0  12   79.75   43.43
  -7   0  12   56.30   45.43
   7   0 -11  141.84   38.20
  -7   0  11  211.64   46.27
  -7   0  11  235.45   46.35
   7   0 -10  253.29   43.57
  -7   0  10  324.24   50.87
  -7   0  10  360.87   47.70
  -7   0   9  120.53   37.60
   7   0  -9   78.14   31.12
  -7   0   9   90.87   29.87
  -7   0   8   35.25   25.70
   7   0  -8   32.05   28.54
  -7   0   8   23.19   28.93
  -7   0   7  173.61   30.57
   7   0  -7  201.08   35.20
  -7   0   7  196.41   30.08
   7   0  -6  416.60   51.28
   7   0  -6  486.42   48.36
  -7   0   6  415.73   45.36
   7   0  -5  496.64   57.84
   7   0  -5  566.89   56.31
  -7   0   5  505.30   60.38
   7   0  -4   34.39   27.36
   7   0  -4   13.32   26.89
  -7   0   4   16.48   28.71
   7   0  -3  260.52   39.73
   7   0  -3  234.22   39.29
  -7   0   3  302.57   43.31
  -7   0   3  268.45   32.74
   7   0  -2   15.96   32.22
  -7   0   2   18.20   24.25
  -7   0   2   34.13   31.49
  -7   0   1 1939.36  178.58
   7   0  -1 1877.87  177.86
  -7   0   1 1882.07  175.48
  -7   0   0  223.77   37.86
   7   0   0  259.91   43.30
  -7   0   0  219.48   43.44
  -7   0  -1  292.59   42.09
   7   0   1  232.25   47.94
  -7   0  -2  -39.85   28.83
  -7   0  -3  398.73   55.46
  -7   0  -3  364.88   61.01
   7   0   4  650.09   86.58
  -7   0  -4  687.86   87.41
  -7   0  -4  834.18   83.92
   7   0   4  742.63   84.47
   7   0   5   61.16   50.02
   7   0   5   58.01   45.03
  -7   0  -5   66.93   43.78
  -7   0  -5   84.27   46.62
   7   0   6  127.03   49.83
  -7   0  -6   91.02   43.39
  -7   0  -6  131.97   49.10
   7   0   6   96.79   52.65
  -7   0  -7   36.11   50.59
  -7   0  -7   49.28   44.08
   7   0   7   20.62   50.69
   7   0   7   33.51   53.51
  -7   0  -8   38.09   45.79
   7   0   8   59.78   55.23
   7   0   8   19.44   54.02
  -7   0  -9  152.46   53.91
   7   0   9  235.65   65.31
   7   0   9  224.52   61.92
   7   0  10   47.89   57.68
  -7  -1  14   71.37   61.70
  -7  -1  14   46.38   58.53
   7  -1 -14   47.97   35.87
  -7   1  13   48.83   44.17
   7   1 -13   61.53   35.79
  -7  -1  13   65.33   57.70
  -7  -1  13  142.07   52.86
   7  -1 -13   30.44   34.06
  -7   1  12   68.38   39.91
   7   1 -12   41.68   37.12
  -7  -1  12   70.81   52.98
   7  -1 -12   48.81   32.64
  -7  -1  12   26.98   27.00
  -7  -1  12   87.45   47.15
   7   1 -11   13.32   33.70
  -7   1  11   17.65   34.41
  -7  -1  11   39.99   45.16
  -7  -1  11   -7.00   39.51
  -7  -1  11   34.51   28.57
   7  -1 -11   -5.24   28.87
   7   1 -10   55.71   32.99
  -7   1  10   77.54   31.22
  -7  -1  10   51.41   40.70
   7  -1 -10   65.78   28.33
  -7  -1  10   39.06   39.56
  -7  -1  10   51.28   30.15
   7   1  -9  274.08   45.76
  -7  -1   9  346.87   61.56
  -7  -1   9  454.52   65.07
  -7  -1   9  490.17   59.87
   7   1  -8  710.86   76.46
  -7  -1   8  657.48   56.11
  -7  -1   8  556.06   52.53
   7   1  -7  202.28   38.14
   7  -1  -7  115.80   29.02
   7  -1  -7  122.90   20.94
  -7  -1   7  185.64   33.31
   7   1  -6  151.01   35.75
   7  -1  -6  180.24   26.28
  -7  -1   6  106.01   39.18
  -7  -1   6  145.56   34.03
   7  -1  -6  174.48   30.59
   7   1  -5  168.02   34.13
   7   1  -5  152.67   36.35
  -7   1   5  197.47   33.33
  -7  -1   5   69.11   37.43
  -7  -1   5  130.25   32.91
   7  -1  -5  138.13   28.11
   7  -1  -5  159.04   27.90
   7   1  -4  730.19   74.43
  -7   1   4  627.63   71.07
   7   1  -4  768.51   73.78
   7  -1  -4  680.93   68.77
   7  -1  -4  530.49   68.42
  -7  -1   4  696.67   73.87
   7   1  -3  716.85   65.70
   7   1  -3  667.82   66.09
  -7  -1   3  702.16   64.33
   7  -1  -3  523.88   58.06
  -7   1   2  234.47   39.27
  -7   1   2  175.23   41.16
  -7  -1   2   -2.61   36.34
  -7  -1   2  518.90   47.78
  -7   1   1   51.40   32.48
  -7   1   1   57.76   30.82
  -7   1   1   67.43   25.46
   7   1  -1   74.45   36.20
  -7  -1   1   79.25   36.27
  -7  -1   1   64.65   28.50
  -7   1   0  298.48   39.96
   7   1   0  268.28   47.14
  -7   1   0  280.69   43.54
  -7   1   0  329.25   43.47
  -7  -1   0  317.57   51.64
  -7  -1   0  314.20   44.23
   7  -1   0  362.86   42.66
  -7   1  -1  838.42   84.54
   7  -1   1  937.62   66.60
  -7  -1  -1 1043.66   75.38
  -7   1  -2   50.96   33.65
  -7   1  -2  577.64   51.23
   7  -1   2  496.28   70.46
  -7  -1  -2  876.62   74.59
  -7   1  -3  157.06   36.28
   7   1   3  124.26   46.78
  -7   1  -3   82.01   45.27
   7  -1   3   85.77   40.07
  -7  -1  -3  216.68   43.19
   7   1   4   23.71   43.97
  -7   1  -4  -18.67   37.91
  -7   1  -4   18.80   45.23
  -7  -1  -4    5.53   40.81
   7  -1   4   14.69   39.01
  -7   1  -5  134.71   44.09
  -7   1  -5   86.49   49.90
   7   1   5  108.14   49.86
   7  -1   5  112.45   45.87
  -7  -1  -5  100.88   47.89
   7   1   6  370.82   65.93
  -7   1  -6  387.77   61.79
  -7   1  -6  437.73   67.45
  -7  -1  -6  462.15   66.37
   7  -1   6  432.41   66.25
   7   1   7  162.82   56.95
  -7   1  -7  173.43   54.44
  -7   1  -7  187.94   50.64
   7  -1   7  137.86   54.65
  -7  -1  -7  184.84   52.28
  -7   1  -8  111.98   50.61
  -7   1  -8   74.13   49.45
   7   1   8  160.33   56.61
   7  -1   8   17.47   52.83
  -7  -1  -8  134.02   50.22
   7   1   9  -15.06   55.92
   7  -1   9  -28.08   56.44
   7  -1   9    6.51   58.34
   7   1  10   40.03   57.74
   7  -1  10   43.88   62.54
  -7  -2  14   37.91   62.18
   7  -2 -14   -8.21   33.15
  -7  -2  14   70.94   62.69
  -7  -2  13   18.65   57.36
  -7  -2  13   -5.80   51.88
   7  -2 -13   39.52   33.09
   7   2 -12   95.06   40.74
  -7  -2  12   79.67   47.50
  -7  -2  12  158.54   33.75
   7  -2 -12   95.66   31.50
  -7  -2  12   79.76   53.60
   7   2 -11  111.51   38.32
  -7  -2  11  127.12   50.11
  -7  -2  11  130.00   50.87
  -7  -2  11  203.79   34.16
   7  -2 -11  100.50   30.55
   7   2 -10  161.93   42.19
   7  -2 -10   32.34   26.96
  -7  -2  10  186.48   43.96
  -7  -2  10  148.30   32.00
  -7  -2  10  151.87   47.55
   7   2  -9   44.49   34.89
  -7  -2   9   51.15   39.83
  -7  -2   9   36.12   27.52
   7  -2  -9   33.25   23.63
   7   2  -8   83.14   37.32
   7  -2  -8  106.12   25.27
  -7  -2   8   -9.30   27.81
   7   2  -7  157.06   37.46
   7  -2  -7  211.09   27.53
   7  -2  -7  158.57   21.02
   7   2  -6  569.45   64.47
   7  -2  -6  395.25   42.57
  -7  -2   6  463.70   57.13
   7  -2  -6  441.15   42.87
   7   2  -5  -46.55   27.97
  -7  -2   5  529.45   51.58
  -7  -2   5  381.73   43.14
  -7   2   4   18.70   21.07
  -7   2   4    3.14    8.69
  -7  -2   4  377.45   47.89
  -7  -2   4  290.91   49.49
   7   2  -3  850.70   89.76
  -7   2   3  867.55   82.62
  -7   2   3  879.61   83.55
  -7  -2   3  562.06   80.44
  -7  -2   3  904.89   80.37
  -7   2   2  368.51   44.90
  -7   2   2  334.32   43.85
   7  -2  -2  251.76   31.24
  -7  -2   2  416.08   48.44
   7   2  -1  325.86   48.40
  -7   2   1  241.01   37.30
  -7   2   1  238.70   37.78
   7  -2  -1  201.48   33.76
  -7  -2   1  478.55   46.74
  -7   2   0   64.85   28.51
   7  -2   0   58.52   25.37
  -7  -2   0   -1.83   26.03
  -7   2  -1  -65.01   27.16
   7  -2   1  137.81   39.89
  -7  -2  -1  588.79   51.96
   7   2   2   66.96   42.17
  -7   2  -2  134.71   38.27
   7  -2   2  150.18   36.08
  -7  -2  -2  139.17   43.40
   7   2   3  353.63   58.76
  -7   2  -3  413.58   56.83
  -7  -2  -3  494.93   60.92
   7  -2   3  335.17   53.60
  -7   2  -4  185.76   48.23
   7   2   4  291.49   53.61
  -7  -2  -4  345.14   55.17
   7  -2   4  286.79   51.29
   7   2   5  343.08   56.71
  -7   2  -5  167.08   51.36
   7  -2   5  177.33   51.30
  -7  -2  -5  427.37   57.57
  -7   2  -6   25.39   44.29
   7   2   6   81.07   50.11
  -7  -2  -6  105.50   47.08
   7  -2   6   42.23   46.68
  -7   2  -7   42.46   50.53
   7   2   7   24.84   52.41
   7  -2   7   61.27   50.62
  -7  -2  -7   61.49   50.30
  -7   2  -8  172.29   59.16
   7   2   8  242.16   61.62
  -7  -2  -8  221.52   66.92
   7  -2   8  170.78   59.73
  -7  -2  -8  194.37   57.71
   7   2   9  113.06   57.17
   7  -2   9   44.83   57.86
   7   2  10   98.96   59.21
  -7  -3  14   54.69   62.49
  -7  -3  14   85.96   64.26
  -7  -3  13   21.27   54.26
  -7  -3  13   52.91   58.11
   7  -3 -12   -6.40   25.90
  -7  -3  12   66.10   56.72
  -7  -3  12   70.05   55.38
  -7  -3  12   14.21   37.62
  -7  -3  11   63.48   40.25
  -7  -3  11   86.18   51.16
   7  -3 -11  110.85   26.84
  -7  -3  10   58.05   45.98
   7  -3 -10   88.49   23.04
  -7  -3  10   68.45   40.15
  -7  -3   9   41.97   39.57
  -7  -3   9   71.76   45.14
   7  -3  -9   45.15   12.97
   7  -3  -9   41.39   20.46
   7  -3  -8   13.67    9.53
  -7  -3   8   87.36   42.45
  -7  -3   8   97.43   39.48
   7  -3  -8   14.21    9.81
   7  -3  -8   22.45    9.24
   7  -3  -8   17.58   18.11
   7  -3  -7   18.47    6.09
   7  -3  -7   18.69   16.47
  -7  -3   6  114.03   38.42
   7   3  -5  173.09   37.16
   7  -3  -5   61.71   10.07
   7  -3  -5   83.78    9.40
  -7  -3   5   48.59   37.72
   7   3  -4  159.56   35.68
  -7  -3   4  154.42   39.82
   7  -3  -4   87.95   13.80
   7   3  -3  235.19   40.98
   7   3  -3  245.42   48.46
  -7  -3   3  238.10   44.88
  -7  -3   3  235.90   41.89
  -7   3   2   23.82   24.18
  -7   3   2   21.42   15.57
  -7  -3   2  231.90   46.49
  -7  -3   2  254.02   42.42
  -7   3   1  285.04   37.04
  -7   3   1  302.80   41.61
   7  -3  -1  368.20   44.56
  -7  -3   1  448.15   53.51
  -7  -3   1  380.45   58.59
  -7   3   0  155.07   30.45
  -7  -3   0  412.40   58.15
   7  -3   0  348.40   45.35
  -7   3  -1   92.29   30.74
   7  -3   1   56.43   30.81
  -7  -3  -1   75.80   44.60
  -7   3  -2  122.07   41.95
   7   3   2  263.70   52.72
  -7  -3  -2  388.27   53.16
  -7  -3  -2  322.95   55.35
  -7  -3  -2  282.74   52.38
   7   3   3   93.99   48.88
  -7   3  -3   52.74   40.91
   7  -3   3   31.89   38.17
  -7  -3  -3   67.53   48.99
  -7  -3  -3   67.42   47.19
  -7  -3  -3   93.71   44.47
  -7   3  -4  148.11   46.99
   7   3   4  281.13   55.53
  -7  -3  -4  381.78   59.48
  -7  -3  -4  297.35   54.69
   7   3   5   55.02   53.14
  -7   3  -5   52.32   43.58
   7  -3   5  164.52   48.65
  -7  -3  -5  137.29   50.91
  -7  -3  -5   78.73   48.45
  -7   3  -6   11.40   47.26
   7   3   6   60.99   54.04
  -7  -3  -6  105.24   48.88
   7  -3   6   23.22   46.60
   7   3   7  246.47   62.13
  -7   3  -7  195.05   55.46
   7  -3   7  159.53   56.57
  -7  -3  -7  321.84   58.26
   7   3   8  100.95   58.64
   7  -3   8  -15.07   50.12
   7   3   9  100.34   58.62
  -7  -4  13   54.44   63.38
  -7  -4  12    7.81   59.40
  -7  -4  12  -11.82   43.28
  -7  -4  11   95.29   54.57
  -7  -4  11   -7.42   44.01
   7   4 -10   72.00   43.13
  -7  -4  10   80.91   53.39
  -7  -4  10   60.05   45.46
   7   4  -9   86.28   41.33
  -7  -4   9   56.68   44.97
  -7  -4   9   31.16   49.69
   7  -4  -9   60.93   19.66
   7   4  -8   64.87   41.62
   7  -4  -8   63.47   19.36
  -7  -4   8  106.76   49.23
  -7  -4   8   77.23   44.81
   7  -4  -8   78.77   20.65
   7   4  -7   42.31   38.56
  -7  -4   7   37.69   43.71
   7  -4  -7   35.39   18.97
   7   4  -6   72.79   38.62
   7  -4  -6   16.04   19.38
  -7  -4   6   68.57   44.67
  -7  -4   6   57.70   44.44
   7   4  -5  106.71   41.02
  -7  -4   5  100.85   40.85
  -7  -4   5  125.08   46.08
   7   4  -4  156.17   44.39
  -7  -4   4   83.04   42.24
  -7  -4   4   85.91   44.75
   7   4  -3  105.16   41.62
  -7  -4   3   69.92   41.01
  -7  -4   3   28.22   41.40
  -7  -4   2  115.86   42.69
  -7  -4   2  133.84   47.38
   7  -4  -2  117.26   31.95
   7  -4  -2  135.72   27.32
   7  -4  -1  -18.01   26.17
   7  -4  -1   20.65   32.20
  -7  -4   1   62.16   44.82
  -7   4   0   43.08   18.87
   7  -4   0   21.28   29.32
   7  -4   0  104.94   37.84
   7   4   1  168.06   54.22
  -7   4  -1   90.40   36.91
  -7  -4  -1  141.84   48.68
   7  -4   1   97.83   33.62
  -7  -4  -1  142.07   46.83
   7   4   2  189.10   54.22
  -7   4  -2  114.64   41.74
  -7  -4  -2   86.73   48.52
   7  -4   2  121.96   44.20
   7  -4   2   81.66   36.32
  -7  -4  -2  143.47   48.28
   7   4   3  217.92   55.44
  -7   4  -3  124.51   45.90
  -7  -4  -3  188.15   51.40
   7  -4   3  142.96   42.84
  -7  -4  -3  245.32   53.55
   7  -4   3  179.16   50.94
  -7  -4  -3  228.75   55.25
  -7   4  -4   23.16   44.25
   7   4   4   43.59   52.23
   7  -4   4   46.02   50.47
  -7  -4  -4   24.84   46.72
   7  -4   4   10.37   39.92
  -7  -4  -4   46.30   51.44
  -7  -4  -4  -15.94   49.40
  -7   4  -5   49.07   49.80
   7   4   5   92.35   54.90
  -7  -4  -5   83.28   47.51
   7  -4   5   22.78   44.68
  -7  -4  -5   46.35   49.71
  -7  -4  -5   87.87   53.63
   7   4   6  141.95   58.78
  -7   4  -6  150.62   55.51
  -7  -4  -6  245.42   63.09
   7  -4   6  154.82   53.19
   7   4   7  107.51   59.02
   7  -4   7   20.31   51.93
  -7  -4  -7   72.71   56.95
   7   4   8   31.59   58.08
  -7  -5   9  -23.53   48.10
  -7  -5   9   21.88   53.79
   7   5  -8   27.43   44.45
  -7  -5   8   34.88   48.27
  -7  -5   8   44.72   49.63
   7   5  -7   86.28   42.43
  -7  -5   7   66.11   48.24
   7   5  -6  101.27   47.14
  -7  -5   6   82.95   48.75
   7   5  -5   48.34   44.77
  -7  -5   5   60.25   47.38
  -7  -5   5   87.10   47.77
   7  -5  -5   20.47   16.98
   7   5  -4  118.62   48.49
   7  -5  -4   58.50   24.37
  -7  -5   4  109.66   44.69
  -7  -5   4   56.76   46.31
   7   5  -3   52.05   41.99
  -7  -5   3   15.25   41.90
   7  -5  -3   38.66   27.49
  -7  -5   3   -8.57   43.52
  -7  -5   2   34.95   43.55
   7  -5  -2   85.93   33.09
  -7  -5   2   52.99   44.55
   7  -5  -1   20.01   34.43
  -7  -5   1   80.59   47.48
  -7  -5   0   93.61   46.75
  -7  -5   0   88.64   50.14
   7  -5   0   33.36   36.76
   7  -5   0   63.40   33.39
  -7  -5  -1   39.85   45.62
   7  -5   1   66.34   35.13
  -7  -5  -1   32.54   46.86
   7  -5   1   89.13   41.71
   7  -5   2   21.20   35.63
   7  -5   2    9.61   42.20
  -7  -5  -2   98.76   51.54
  -7  -5  -2   21.36   47.33
   7  -5   3   43.00   44.62
  -7  -5  -3   26.48   48.11
  -7  -5  -3   88.20   50.48
   7  -5   3   27.63   37.38
   7   5   4   51.81   57.48
  -7  -5  -4   76.79   53.74
   7  -5   4   49.86   47.92
   7  -5   4   10.38   41.15
   7   5   5   31.06   59.70
   7  -5   5   -6.97   52.22
   7  -5   5   25.83   45.27
  -7  -5  -5   96.19   55.16
  -7  -5  -6   80.31   57.54
   7  -5   6   43.44   47.71
   7  -5   6   11.90   60.47
   7   6  -4   68.50   47.55
  -7  -6   4   20.74   47.85
  -7  -6   3   76.13   47.14
  -7  -6   2  -17.09   47.05
   7  -6  -1  -24.28   37.91
  -7  -6   1  -41.22   47.28
  -7  -6   0   62.77   50.33
   7  -6   0   22.07   40.76
   7  -6   1   40.69   44.51
   7  -6   1   71.02   38.24
  -7  -6  -1   77.21   51.80
  -7  -6  -2  -31.93   53.27
   7  -6   2   61.76   47.34
   7  -6   2  -19.60   38.31
  -7  -6  -3   15.76   50.87
   7  -6   3   17.51   49.92
   7  -6   3   -7.84   39.91
   7  -6   4  -31.13   54.17
   7  -6   4   14.53   42.18
   8   0 -14    7.94   37.04
   8   0 -13   -2.61   34.55
  -8   0  13  -21.27   45.98
   8   0 -12   19.47   33.31
  -8   0  12  -14.10   41.28
  -8   0  12   39.37   40.44
   8   0 -11  100.75   34.92
  -8   0  11   57.65   39.28
  -8   0  11   88.36   37.88
   8   0 -10  294.55   46.08
  -8   0  10  332.32   44.66
  -8   0  10  307.80   46.94
   8   0  -9   96.83   35.11
  -8   0   9  111.60   34.37
  -8   0   9  149.13   32.41
  -8   0   8   40.20   24.41
  -8   0   8   34.69   24.29
   8   0  -8   28.39   30.29
   8   0  -7   29.22   29.43
  -8   0   7    6.31   18.27
   8   0  -7   28.81   25.39
   8   0  -6  629.17   66.98
  -8   0   6  586.53   69.37
   8   0  -6  622.39   64.77
   8   0  -5  250.26   36.22
   8   0  -5  225.83   38.64
  -8   0   5  244.95   42.38
  -8   0   4  125.57   37.32
   8   0  -4  139.91   33.28
  -8   0   4  141.63   23.55
   8   0  -4  137.24   33.86
   8   0  -3   -5.68   32.34
  -8   0   3   -9.89   23.35
  -8   0   3   29.47   33.47
   8   0  -2   16.03   34.09
  -8   0   2   14.81   25.96
  -8   0   2    4.55   34.53
   8   0  -1  389.46   53.54
  -8   0   1  346.14   53.43
  -8   0   1  379.59   47.37
  -8   0   0 1132.68  103.66
  -8   0   0 1002.90  105.85
   8   0   0  964.36  106.54
   8   0   1   55.30   41.09
  -8   0  -1   58.88   37.56
  -8   0  -2  167.40   41.14
  -8   0  -3   56.61   38.75
  -8   0  -3   71.15   48.99
   8   0   4  140.86   51.27
  -8   0  -4  207.59   55.29
  -8   0  -4  135.53   45.53
   8   0   5  199.65   55.25
  -8   0  -5  203.42   49.20
  -8   0  -5  221.28   58.78
   8   0   6   63.33   52.18
  -8   0  -6  109.29   48.61
  -8   0  -6   81.04   52.60
   8   0   7   43.32   53.92
  -8   0  -7   93.83   47.07
  -8   0  -7  117.26   57.26
   8   0   8    6.52   53.78
  -8   0  -8   52.43   48.50
   8   0   9   75.08   59.41
   8  -1 -14   -9.92   34.01
   8   1 -13   86.64   39.67
   8  -1 -13   52.84   33.42
  -8  -1  13   56.29   52.10
  -8  -1  13   69.34   54.83
   8   1 -12  181.86   42.99
  -8  -1  12  198.24   47.34
  -8  -1  12  198.92   53.32
   8  -1 -12  130.50   36.29
   8   1 -11   85.25   38.52
  -8  -1  11   19.38   43.02
  -8  -1  11   46.55   31.30
  -8  -1  11   29.90   40.13
   8  -1 -11   29.74   30.34
   8   1 -10   26.50   35.08
  -8  -1  10   14.17   37.84
   8  -1 -10   30.86   29.30
  -8  -1  10  -11.62   36.32
  -8  -1  10   23.18   30.90
   8   1  -9  118.40   39.61
  -8  -1   9   59.66   37.75
  -8  -1   9   67.91   40.74
  -8  -1   9  163.33   36.93
   8   1  -8  270.74   43.83
   8  -1  -8  181.80   35.73
  -8  -1   8  248.12   41.11
  -8  -1   8  318.68   40.33
   8   1  -7  225.19   41.23
   8  -1  -7   53.54   28.08
   8  -1  -7  103.25   24.58
   8   1  -6  325.60   45.02
   8   1  -6  308.03   46.04
   8  -1  -6  268.57   32.71
   8  -1  -6  220.35   35.50
   8   1  -5   71.70   32.82
   8   1  -5   64.23   33.42
  -8   1   5   32.60   30.24
   8  -1  -5   55.88   27.66
  -8  -1   5  -51.19   29.65
   8  -1  -5   45.64   26.72
  -8  -1   5   11.90   34.43
   8   1  -4  220.53   44.63
   8   1  -4  299.55   45.76
   8  -1  -4  331.82   37.67
  -8  -1   4  230.54   44.63
   8   1  -3  612.71   65.96
  -8   1   3  551.24   65.89
  -8   1   3  588.33   64.46
  -8  -1   3  624.90   73.71
   8  -1  -3  537.35   68.37
  -8  -1   3  791.68   74.45
   8   1  -2  420.15   50.11
  -8   1   2  288.80   47.40
  -8   1   2  337.01   47.36
  -8  -1   2  474.18   60.83
   8  -1  -2  387.86   57.36
  -8  -1   2  460.70   52.24
  -8   1   1   27.23   33.22
  -8   1   1   18.30   26.57
  -8   1   1   17.66   30.35
   8   1  -1   48.94   37.40
   8  -1  -1   44.84   39.52
  -8  -1   1  112.97   29.80
  -8  -1   1   61.52   40.21
  -8   1   0   62.40   28.83
   8   1   0   99.89   39.64
  -8   1   0   34.09   35.77
  -8  -1   0   79.87   40.39
  -8  -1   0  -27.07   25.98
   8   1   1  141.99   46.78
  -8   1  -1  247.95   45.30
  -8   1  -1  251.85   35.87
   8  -1   1  180.65   36.34
  -8  -1  -1  165.01   37.77
  -8  -1  -1   82.82   45.97
  -8   1  -2  442.02   52.70
  -8   1  -2   -2.84   30.87
  -8  -1  -2  373.91   53.14
   8  -1   2  357.16   49.62
  -8  -1  -2  277.55   55.93
   8   1   3  272.54   54.29
  -8   1  -3  222.91   55.38
  -8   1  -3  277.48   47.06
   8  -1   3  305.11   50.45
  -8  -1  -3  317.62   53.03
  -8   1  -4  139.39   44.03
  -8   1  -4  148.10   51.18
   8   1   4  174.15   51.85
   8  -1   4  162.16   47.87
  -8  -1  -4  254.43   51.80
   8   1   5  -13.16   49.98
  -8   1  -5    6.33   49.66
  -8   1  -5   10.16   43.09
   8  -1   5    6.08   43.99
  -8  -1  -5   16.21   46.41
   8   1   6   35.15   52.88
  -8   1  -6   93.02   47.80
  -8   1  -6   84.59   54.87
  -8  -1  -6   34.95   53.05
  -8  -1  -6   37.55   48.96
   8  -1   6  116.59   47.84
   8   1   7  174.07   59.57
  -8   1  -7  159.91   53.22
  -8   1  -7  160.80   58.92
   8  -1   7  151.84   54.92
   8  -1   7  188.31   62.08
  -8  -1  -7  172.06   52.53
   8   1   8   93.36   58.05
   8  -1   8   24.26   60.65
  -8  -1  -8  158.53   53.42
   8  -1   8   73.34   55.27
   8   1   9  140.99   60.44
   8  -1   9   24.80   58.53
   8  -1   9   40.83   62.84
   8  -2 -14   21.27   33.28
  -8  -2  13  -12.22   55.23
  -8  -2  13   43.17   50.58
   8  -2 -13   17.97   30.62
   8   2 -12   32.14   41.06
  -8  -2  12   29.29   51.39
   8  -2 -12   73.31   30.55
  -8  -2  12   47.26   51.96
   8   2 -11   78.96   41.93
  -8  -2  11   90.26   47.54
   8  -2 -11  115.43   31.25
  -8  -2  11   83.56   50.34
  -8  -2  11  137.15   36.81
   8   2 -10   38.77   39.98
  -8  -2  10   42.02   34.88
  -8  -2  10   38.21   39.79
   8  -2 -10   74.23   28.25
   8   2  -9  155.58   40.10
  -8  -2   9  146.38   37.33
  -8  -2   9  204.93   44.46
   8   2  -8  100.75   36.85
   8  -2  -8   28.88   24.46
   8  -2  -8   15.95   11.65
   8   2  -7   34.63   35.90
   8  -2  -7  122.21   24.33
  -8  -2   7   75.69   38.98
   8  -2  -7  148.49   27.61
   8   2  -6  205.56   42.65
  -8  -2   6  276.73   47.91
   8  -2  -6  300.06   37.62
  -8  -2   6  212.10   51.99
   8  -2  -6  324.08   37.82
   8   2  -5  369.24   52.41
   8   2  -5  333.76   50.87
   8  -2  -5  240.01   40.77
  -8  -2   5  304.61   50.22
  -8  -2   5  328.93   48.76
  -8   2   4   67.69   18.37
   8   2  -4  299.70   40.15
   8   2  -4  278.57   41.02
  -8   2   4   96.18   27.63
  -8  -2   4  295.27   51.45
  -8  -2   4  311.31   50.23
   8   2  -3  105.93   38.31
   8   2  -3  154.88   34.88
  -8   2   3   16.05   26.35
  -8   2   3   28.38   25.08
  -8  -2   3  102.34   42.11
  -8  -2   3  122.64   43.75
   8   2  -2   79.25   40.56
  -8   2   2  136.08   30.10
  -8   2   2  134.71   30.69
  -8  -2   2   65.70   39.84
   8  -2  -2   82.35   19.44
  -8  -2   2   75.68   41.02
  -8   2   1  184.93   35.05
  -8   2   1  196.72   35.69
   8   2  -1  190.80   45.97
   8  -2  -1  165.66   28.64
  -8  -2   1  167.83   45.34
  -8  -2   1  101.71   43.58
   8   2   0  252.05   46.11
  -8   2   0  195.44   37.09
  -8  -2   0  290.63   49.71
   8  -2   0  211.73   36.63
  -8  -2   0  259.87   45.51
  -8  -2   0  212.00   50.07
  -8   2  -1  432.23   57.36
   8  -2   1  499.08   73.89
  -8  -2  -1 1141.89   84.81
  -8   2  -2  133.28   43.60
   8  -2   2   73.74   35.92
  -8  -2  -2   80.92   42.35
   8   2   3  101.34   47.73
  -8   2  -3  109.26   44.56
   8  -2   3   70.93   40.18
  -8  -2  -3  162.90   47.03
   8   2   4  191.72   54.13
  -8   2  -4  196.78   48.75
   8  -2   4  163.77   46.12
  -8  -2  -4  191.51   50.23
   8   2   5   89.28   51.77
  -8   2  -5   22.10   46.52
  -8  -2  -5   49.33   46.45
   8  -2   5   -7.02   43.23
   8   2   6  259.09   58.34
  -8   2  -6  146.56   53.11
  -8  -2  -6  432.96   62.12
   8  -2   6  171.32   57.68
  -8   2  -7    5.66   52.97
   8   2   7  114.81   55.89
   8  -2   7   30.27   51.41
  -8  -2  -7  102.07   54.82
   8   2   8  101.21   58.04
   8  -2   8   55.09   54.58
   8   2   9   72.98   58.27
  -8  -3  14  -14.61   60.42
  -8  -3  13  -22.28   57.83
  -8  -3  13   18.75   57.40
  -8  -3  12   93.15   55.19
  -8  -3  12   39.08   56.23
   8   3 -11   70.97   42.01
  -8  -3  11   34.14   36.96
  -8  -3  11   93.46   49.26
   8  -3 -11   30.84   25.56
   8  -3 -10   31.00   23.07
  -8  -3  10   44.04   45.93
  -8  -3  10    6.42   36.61
  -8  -3   9   85.87   40.24
  -8  -3   9   51.88   45.60
   8  -3  -9  104.26   23.81
   8  -3  -8   32.95   15.46
  -8  -3   8   38.57   38.47
   8  -3  -8   82.38   21.76
   8  -3  -7   58.37   20.00
  -8  -3   7   77.07   39.64
  -8  -3   6  155.79   43.42
  -8  -3   5   50.77   40.87
  -8  -3   4  109.68   44.00
   8   3  -3   77.66   45.06
  -8   3   3   71.03   18.45
   8  -3  -3   75.71   16.44
  -8  -3   3  104.19   42.71
  -8   3   2   83.85   29.33
  -8   3   2   72.35   24.21
   8  -3  -2   77.17   25.00
  -8  -3   2  234.68   45.53
   8   3  -1   59.52   43.31
  -8   3   1   44.49   25.49
  -8   3   1   10.12   24.81
   8  -3  -1   13.58   26.23
  -8  -3   1   66.96   41.22
  -8   3   0  -49.51   26.90
  -8   3   0   45.56   29.85
   8  -3   0   40.89   30.20
  -8  -3   0   88.50   46.08
  -8   3  -1  176.03   40.84
   8  -3   1  116.70   38.90
  -8  -3  -1  261.50   53.82
  -8  -3  -1  260.80   48.71
   8   3   2  199.79   54.70
  -8   3  -2  172.05   45.36
  -8  -3  -2  254.51   56.22
  -8  -3  -2  236.12   52.26
   8  -3   2  211.69   43.14
  -8  -3  -2  208.64   53.23
  -8   3  -3   31.56   43.22
   8   3   3  223.43   53.82
  -8  -3  -3  190.14   49.31
  -8  -3  -3  176.53   53.99
   8  -3   3   75.51   40.60
  -8   3  -4   84.22   48.65
   8   3   4  123.17   54.68
   8  -3   4   91.12   45.24
  -8  -3  -4  250.77   54.74
  -8  -3  -4  232.39   58.05
   8   3   5   33.26   54.55
  -8   3  -5   88.30   50.81
  -8  -3  -5  109.94   56.57
  -8  -3  -5  146.54   51.92
   8  -3   5   51.21   44.77
   8   3   6  -12.13   55.22
  -8   3  -6   30.42   51.26
  -8  -3  -6   46.99   52.54
   8  -3   6   32.30   46.86
  -8  -3  -6   48.00   50.82
   8   3   7  113.34   58.95
   8  -3   7  123.27   52.31
   8   3   8   -1.35   58.34
   8  -3   8   18.64   52.23
  -8  -4  13   90.51   64.60
  -8  -4  12   45.70   55.27
  -8  -4  11   19.45   43.98
  -8  -4  11   53.96   50.14
  -8  -4  10   30.82   42.84
  -8  -4  10   44.09   50.70
   8   4  -9   -3.28   40.71
  -8  -4   9   43.57   41.53
  -8  -4   9   11.04   51.43
   8   4  -8   61.89   41.70
  -8  -4   8   81.16   42.79
   8   4  -7   56.08   39.79
  -8  -4   7   69.53   43.83
   8   4  -6  104.95   42.44
  -8  -4   6   80.55   47.73
  -8  -4   6   95.39   44.20
   8  -4  -6   50.32    9.75
   8  -4  -6   44.25   10.56
   8   4  -5  177.59   46.51
   8  -4  -5   51.02   13.64
  -8  -4   5  135.91   49.63
  -8  -4   5  133.72   43.52
   8   4  -4   37.89   42.80
  -8  -4   4   32.03   43.92
  -8  -4   4   30.58   44.95
   8  -4  -4   -1.35   16.01
  -8  -4   3  136.06   45.48
   8  -4  -3    5.41   20.88
  -8  -4   3   81.41   45.71
  -8  -4   2   56.96   48.53
   8  -4  -2   49.71   24.11
  -8  -4   2   51.00   43.30
  -8   4   1   42.50   13.56
  -8  -4   1   64.38   47.41
   8  -4  -1  103.35   29.05
  -8  -4   1   65.03   44.58
  -8   4   0   61.58   34.34
  -8   4   0   47.20   21.91
  -8  -4   0   62.24   48.65
   8  -4   0   36.24   30.07
  -8   4  -1   18.22   37.16
   8   4   1   63.74   50.99
  -8  -4  -1   34.15   49.55
  -8  -4  -1   31.75   44.52
   8  -4   1    1.95   32.07
   8   4   2  164.41   54.23
  -8   4  -2   58.42   42.34
   8  -4   2   59.03   37.91
  -8  -4  -2   97.27   50.07
  -8  -4  -2  139.36   53.57
  -8  -4  -2  186.97   51.43
  -8   4  -3   27.91   45.34
   8   4   3   58.32   52.58
  -8  -4  -3  105.33   52.29
  -8  -4  -3  108.53   51.92
  -8  -4  -3   89.69   54.94
   8  -4   3   47.17   40.44
  -8   4  -4   27.09   46.22
   8   4   4  -11.84   54.32
  -8  -4  -4   51.64   52.16
  -8  -4  -4   40.72   54.76
  -8  -4  -4   66.43   50.47
   8  -4   4    1.49   43.42
  -8   4  -5   32.07   50.88
   8   4   5   98.29   56.76
  -8  -4  -5   45.02   53.87
   8  -4   5    7.88   47.57
   8   4   6  185.74   62.82
   8  -4   6   42.80   49.97
  -8  -4  -6  145.71   61.78
   8  -4   7   73.19   52.75
  -8  -5   9   77.59   58.10
  -8  -5   8   52.32   51.83
  -8  -5   8   -2.73   47.14
  -8  -5   7  -19.33   44.58
   8   5  -6   80.10   46.32
  -8  -5   6   37.76   50.34
  -8  -5   6   46.69   46.57
   8   5  -5   52.05   46.55
  -8  -5   5   28.36   49.43
  -8  -5   5   42.80   47.03
   8   5  -4   57.52   45.39
  -8  -5   4   58.01   48.58
  -8  -5   4   43.47   45.86
   8  -5  -3   69.41   26.46
  -8  -5   3   66.48   47.85
  -8  -5   3   98.76   47.49
  -8  -5   2   22.90   45.78
  -8  -5   2  -22.91   45.62
   8  -5  -2   34.70   27.07
   8  -5  -1   -8.51   28.50
   8  -5  -1    9.49   35.86
  -8  -5   1   91.73   51.69
  -8  -5   0   87.83   52.97
   8  -5   0   56.14   31.89
   8  -5   0   21.10   39.75
   8  -5   1   43.12   43.24
  -8  -5  -1   58.59   50.77
   8  -5   1   52.09   34.97
   8   5   2   51.73   56.34
   8  -5   2   16.17   45.76
   8  -5   2   24.87   36.66
  -8  -5  -2    6.08   49.50
   8   5   3   -7.88   57.77
   8  -5   3   25.52   40.01
  -8  -5  -3   57.71   54.03
   8  -5   4  -20.54   43.93
  -8  -5  -4   70.37   57.19
   8  -5   5    7.62   46.36
  -8  -6   4  -10.02   50.49
  -8  -6   3   10.03   52.20
  -8  -6   2   19.44   51.20
  -8  -6   1   48.66   52.11
  -8  -6   0   -2.08   51.35
   8  -6   3   18.71   53.20
   9   0 -13   64.03   39.36
   9   0 -12   23.26   35.25
   9   0 -11   27.42   35.58
  -9   0  11   -7.13   32.24
  -9   0  11    9.77   34.10
   9   0 -10   52.08   34.26
  -9   0  10   65.19   29.48
  -9   0  10   14.47   27.29
   9   0  -9  126.58   36.20
  -9   0   9  131.64   30.64
  -9   0   9  106.47   26.01
  -9   0   8   86.38   21.43
  -9   0   8  121.42   29.33
   9   0  -7 1073.73   77.89
   9   0  -7  966.24   81.91
   9   0  -6   39.48   31.99
  -9   0   6   -7.98   36.19
  -9   0   6   13.13   13.04
   9   0  -6    8.67   29.63
   9   0  -5   24.82   33.02
  -9   0   5   23.80   34.33
  -9   0   5   11.46   17.22
   9   0  -5   17.33   29.58
   9   0  -4 1341.60  130.02
  -9   0   4 1231.49  132.79
  -9   0   4 1407.53  125.87
   9   0  -3  852.76   89.42
  -9   0   3  909.85   84.99
  -9   0   3  802.00   91.70
   9   0  -2  305.20   51.38
  -9   0   2  388.29   46.03
  -9   0   2  342.67   51.99
  -9   0   1   39.92   40.10
  -9   0   1  132.87   33.53
   9   0  -1   81.52   41.01
  -9   0   0  653.51   62.09
   9   0   0  642.24   61.06
   9   0   1  125.38   46.96
  -9   0  -1  140.15   47.79
  -9   0  -1  210.52   39.52
   9   0   2  162.97   50.27
  -9   0  -2  208.35   44.68
  -9   0  -2  185.61   48.01
  -9   0  -3  294.62   53.58
  -9   0  -3  339.32   62.35
  -9   0  -4   -7.64   51.50
  -9   0  -4   -1.01   41.35
  -9   0  -5   45.64   56.61
  -9   0  -5   18.55   46.09
   9   0   5   95.96   51.88
   9   0   6  267.37   63.25
  -9   0  -6  314.66   67.69
  -9   0  -6  274.02   57.94
   9   0   7  219.01   60.18
  -9   0  -7  138.56   52.42
   9  -1 -14  -16.13   35.30
   9   1 -13   17.30   38.17
   9  -1 -13   64.00   35.59
   9   1 -12   50.17   40.89
  -9  -1  12   51.20   41.48
  -9  -1  12    0.96   45.89
   9  -1 -12   70.10   34.93
   9   1 -11  127.41   41.22
  -9  -1  11   99.34   43.13
  -9  -1  11   49.78   34.25
   9  -1 -11   15.83   32.98
  -9  -1  11  103.06   41.98
   9   1 -10  305.49   49.33
  -9  -1  10  310.84   46.05
  -9  -1  10  297.58   43.89
  -9  -1  10  311.14   40.60
   9   1  -9  199.13   42.88
   9  -1  -9   77.94   33.48
  -9  -1   9  167.37   37.13
  -9  -1   9  162.47   37.13
   9   1  -8   22.65   33.90
  -9  -1   8  -42.67   28.99
   9  -1  -8  -15.19   28.89
   9  -1  -8   -2.74   22.38
   9   1  -7  570.54   49.96
   9   1  -7  624.64   47.39
   9  -1  -7  478.91   44.25
  -9  -1   7  519.71   59.41
   9   1  -6  381.48   59.96
  -9   1   6  559.14   60.15
   9   1  -6  511.46   58.82
  -9  -1   6  474.48   72.72
  -9  -1   6  722.04   72.07
   9  -1  -6  549.90   64.30
   9  -1  -6  632.72   62.64
   9   1  -5  345.33   48.08
  -9   1   5  272.90   45.94
   9   1  -5  344.58   49.52
   9  -1  -5  314.12   48.62
  -9  -1   5  420.50   57.35
   9   1  -4   56.91   36.47
  -9   1   4   -1.62   32.00
   9   1  -4   49.03   35.13
   9  -1  -4   15.11   33.31
  -9  -1   4   76.23   40.67
   9   1  -3   29.40   34.70
  -9   1   3   69.92   34.98
  -9   1   3   60.10   34.63
   9  -1  -3   72.31   34.84
  -9  -1   3   28.10   28.01
  -9  -1   3   15.39   40.34
   9   1  -2  148.64   43.42
  -9   1   2  203.38   41.45
  -9   1   2  277.98   41.27
   9  -1  -2  255.69   44.63
  -9  -1   2  203.67   36.20
  -9  -1   2  182.15   48.20
   9   1  -1  933.17   81.17
  -9   1   1  958.39   74.48
  -9   1   1  934.14   80.03
   9  -1  -1 1020.47   71.23
  -9  -1   1  936.15   73.96
   9   1   0  837.43   78.77
  -9   1   0  707.23   77.52
  -9  -1   0  745.09   84.74
  -9  -1   0  841.42   78.51
   9   1   1  270.83   48.75
  -9   1  -1  130.55   41.20
  -9   1  -1  168.37   48.77
  -9  -1  -1  287.77   46.79
  -9  -1  -1  248.81   51.52
   9  -1   1  128.33   51.23
  -9   1  -2  364.69   53.92
  -9   1  -2  431.05   64.49
   9  -1   2  330.01   46.73
   9  -1   2  285.18   58.21
  -9  -1  -2  169.89   48.04
  -9  -1  -2  204.79   55.69
  -9   1  -3  373.81   65.99
  -9   1  -3  401.85   57.73
   9  -1   3  399.52   63.86
  -9  -1  -3  228.49   55.55
   9  -1   3  377.87   53.04
  -9  -1  -3  236.27   58.27
  -9   1  -4  341.30   64.87
   9   1   4  384.41   63.71
  -9   1  -4  330.84   57.03
   9  -1   4  323.29   56.14
  -9  -1  -4  351.33   61.63
   9   1   5  157.32   55.34
  -9   1  -5   50.24   54.46
  -9   1  -5   99.04   48.54
  -9  -1  -5  169.07   57.14
  -9  -1  -5  163.70   52.01
   9  -1   5   55.11   56.72
   9  -1   5  134.12   47.98
   9   1   6   46.11   54.85
  -9   1  -6   28.91   47.73
  -9   1  -6   47.27   53.49
   9  -1   6   47.84   58.02
  -9  -1  -6  110.19   50.69
  -9  -1  -6  133.81   60.87
   9  -1   6   21.23   48.46
   9   1   7   64.96   57.31
  -9   1  -7   51.54   48.76
   9  -1   7   22.13   52.47
   9  -1   7   46.61   59.99
  -9  -1  -7   67.55   51.76
   9  -1   8   64.26   55.84
  -9  -2  13   69.91   49.56
   9  -2 -13   59.51   33.16
  -9  -2  12  128.02   50.21
   9  -2 -12   37.09   32.36
  -9  -2  12  155.28   52.47
   9   2 -11   10.91   38.50
  -9  -2  11   50.58   46.53
   9  -2 -11   21.44   28.76
  -9  -2  11   27.47   37.22
  -9  -2  11   62.34   42.95
   9   2 -10   34.79   36.17
  -9  -2  10    2.61   42.85
  -9  -2  10   34.97   37.95
   9  -2 -10   43.63   28.88
   9   2  -9  140.39   42.33
  -9  -2   9  197.85   46.07
   9  -2  -9  237.13   35.84
  -9  -2   9  231.14   48.99
   9   2  -8  392.35   55.60
   9  -2  -8  221.09   37.23
   9  -2  -8  219.40   29.56
   9   2  -7   71.11   37.84
  -9  -2   7   88.77   44.38
   9  -2  -7    8.09   25.53
  -9  -2   7   83.55   39.91
   9  -2  -7   -2.46   24.80
   9   2  -6  109.02   40.62
   9   2  -6   57.50   38.76
  -9  -2   6  104.14   46.42
  -9  -2   6  111.05   43.74
   9  -2  -6  115.92   30.35
   9   2  -5   21.59   37.83
   9   2  -5   41.76   40.02
  -9   2   5   53.80   10.22
  -9   2   5  121.13   29.20
   9  -2  -5   98.02   33.01
  -9  -2   5   38.82   43.48
  -9  -2   5   49.69   42.62
   9   2  -4  216.25   46.10
  -9   2   4  243.31   31.78
   9   2  -4  205.74   45.99
  -9   2   4  210.68   36.13
  -9  -2   4  183.61   49.69
  -9  -2   4  218.88   48.08
   9  -2  -4  218.24   42.05
  -9   2   3  190.45   34.92
  -9   2   3  180.41   37.41
  -9  -2   3  412.11   61.02
  -9  -2   3  362.83   62.42
  -9   2   2   47.64   30.46
  -9   2   2   58.88   32.92
  -9  -2   2  267.85   52.52
  -9  -2   2  291.99   55.74
  -9   2   1  -77.07   28.38
  -9   2   1   17.21   32.47
  -9  -2   1  200.71   50.82
  -9  -2   1  214.76   41.59
  -9  -2   1  216.15   48.64
  -9   2   0   91.88   36.29
  -9   2   0  157.95   38.69
   9   2   0   51.26   43.51
   9  -2   0   92.52   29.88
  -9  -2   0   -2.15   45.69
  -9  -2   0   11.03   39.17
  -9   2  -1  637.36   70.54
  -9   2  -1  545.55   72.23
   9  -2   1  656.97   75.57
  -9  -2  -1  789.71   83.27
  -9  -2  -1  760.92   87.70
  -9   2  -2  267.66   52.51
  -9  -2  -2  676.18   77.10
  -9  -2  -2  779.95   73.01
  -9   2  -3   49.78   46.63
   9   2   3  152.42   49.92
  -9  -2  -3  203.62   48.50
   9  -2   3   75.47   41.87
  -9  -2  -3  191.52   54.72
   9   2   4   58.75   51.41
  -9   2  -4   23.00   46.96
   9  -2   4   57.70   42.61
  -9  -2  -4   37.18   47.61
  -9   2  -5  181.28   52.87
   9   2   5  112.99   56.41
   9  -2   5  250.69   53.43
  -9  -2  -5  197.86   56.98
   9   2   6  199.06   60.02
  -9   2  -6  209.90   57.74
   9  -2   6  186.99   55.57
  -9  -2  -6  267.77   61.38
   9   2   7  145.04   60.11
   9  -2   7   40.15   50.99
  -9  -3  13  -27.33   60.85
  -9  -3  12  -19.14   53.99
  -9  -3  12   14.25   54.22
  -9  -3  11   37.48   40.83
  -9  -3  11   34.31   48.17
   9   3 -10    5.98   38.32
  -9  -3  10   16.61   48.38
  -9  -3  10   44.71   40.06
   9   3  -9  -13.23   39.36
  -9  -3   9   36.33   41.04
  -9  -3   9   37.91   45.79
   9  -3  -9   -5.50   22.84
   9   3  -8   36.00   38.23
   9  -3  -8   55.41   21.37
  -9  -3   8   85.90   43.44
   9  -3  -8   87.57   23.88
  -9  -3   7   31.65   47.51
   9  -3  -7   84.28   28.65
  -9  -3   7   46.28   42.87
  -9  -3   6  175.65   48.63
  -9  -3   5  173.67   47.67
   9   3  -4  113.19   47.04
  -9  -3   4  142.41   47.58
   9   3  -3   71.84   46.60
  -9   3   3  111.61   24.75
  -9   3   3   98.68   26.52
   9  -3  -3   40.29   13.06
  -9  -3   3   78.70   44.89
   9   3  -2  153.94   48.79
  -9   3   2  150.73   31.44
  -9   3   2  150.39   29.90
   9  -3  -2   84.28   23.04
  -9  -3   2   86.10   46.53
  -9   3   1   87.46   29.30
   9   3  -1  150.05   48.71
   9  -3  -1  130.49   29.67
  -9  -3   1  200.91   49.64
  -9   3   0    8.82   31.41
  -9   3   0   27.45   34.67
  -9  -3   0  212.25   49.57
   9  -3   0   39.95   29.25
  -9   3  -1   81.00   39.21
  -9   3  -1   61.75   33.65
  -9  -3  -1  158.67   47.77
   9  -3   1   74.82   33.63
   9   3   2  116.19   53.51
  -9   3  -2   -5.25   41.30
  -9  -3  -2   65.19   46.28
   9  -3   2   53.20   35.86
   9   3   3  170.41   56.67
  -9   3  -3  144.15   49.77
  -9  -3  -3  123.44   52.61
  -9  -3  -3  159.71   56.67
   9  -3   3  165.28   42.35
  -9   3  -4   27.19   49.13
   9   3   4   -5.33   54.43
  -9  -3  -4   47.23   55.69
   9  -3   4   35.14   41.99
  -9  -3  -4   41.27   49.60
  -9   3  -5   58.52   55.29
   9   3   5  220.84   60.93
  -9  -3  -5  304.78   59.62
  -9  -3  -5  332.18   67.08
   9   3   6   40.81   57.46
   9  -3   6   11.82   47.63
   9  -3   7  -10.49   51.40
  -9  -4  12   49.54   58.00
  -9  -4  11   43.14   54.46
  -9  -4  11   -1.95   41.62
  -9  -4  10   18.31   52.48
  -9  -4  10   15.12   43.34
  -9  -4   9   39.33   44.71
  -9  -4   9   -3.51   51.53
   9   4  -8   73.63   43.29
  -9  -4   8   59.01   45.18
   9   4  -7  151.60   46.70
  -9  -4   7  146.61   49.11
  -9  -4   7  118.78   55.21
   9   4  -6   68.16   42.01
  -9  -4   6   79.36   48.24
  -9  -4   6   64.63   46.82
   9   4  -5   66.79   45.23
  -9  -4   5   40.09   45.76
  -9  -4   5   22.62   49.90
   9   4  -4   39.04   39.84
  -9  -4   4   72.20   47.01
   9  -4  -4   17.31   12.56
  -9  -4   4   21.89   46.60
  -9  -4   3  126.30   51.50
  -9  -4   3  113.68   47.14
   9  -4  -3   30.05   20.55
   9   4  -2   64.83   50.73
  -9   4   2    3.83    7.36
   9  -4  -2   16.33   24.84
  -9  -4   2   29.75   46.89
  -9  -4   2   41.97   51.39
   9   4  -1  246.72   56.77
  -9   4   1   44.43   18.70
  -9  -4   1  197.25   56.10
   9  -4  -1   78.61   31.05
  -9  -4   1  143.67   49.19
  -9   4   0  181.32   31.47
  -9   4   0  177.06   41.08
   9  -4   0  196.71   37.65
  -9  -4   0  140.46   56.05
   9   4   1   36.45   53.13
  -9   4  -1   20.72   30.16
  -9   4  -1  -12.93   39.03
   9  -4   1   21.10   35.38
  -9  -4  -1   32.69   53.03
  -9   4  -2   45.76   43.89
   9   4   2  167.55   56.43
   9  -4   2   55.16   39.77
  -9  -4  -2  141.74   57.60
  -9  -4  -2  170.29   52.47
  -9  -4  -2   56.85   53.29
  -9   4  -3   83.55   48.34
   9   4   3   87.51   55.45
  -9  -4  -3  145.19   54.50
  -9  -4  -3   66.80   56.32
   9  -4   3   50.24   41.87
   9   4   4   38.55   56.52
  -9   4  -4    4.13   50.21
   9  -4   4   51.16   42.30
  -9  -4  -4   71.04   59.42
  -9   4  -5   44.89   50.95
   9  -4   5   34.00   44.66
   9  -4   6   24.05   47.63
  -9  -5   6   -6.13   52.83
  -9  -5   5    7.46   48.64
  -9  -5   4   73.61   53.36
  -9  -5   3   61.61   51.07
  -9  -5   2    8.58   52.34
  -9  -5   1    1.38   53.68
  -9  -5   0   90.53   57.50
   9  -5   0   13.40   32.11
   9  -5   1   46.06   35.62
  -9  -5  -1   90.42   55.33
   9  -5   2   27.05   39.03
   9  -5   3   -2.47   41.27
   9  -5   4   -7.79   45.25
   9  -5   5    2.49   48.65
  10   0 -13   24.44   37.50
  10   0 -12   81.29   37.60
  10   0 -11   15.13   34.81
 -10   0  10   26.28   29.49
 -10   0  10    4.89   16.11
  10   0 -10   15.59   34.56
 -10   0   9   33.82   25.96
 -10   0   9    3.50   10.21
  10   0  -9   46.55   34.25
  10   0  -8  135.28   33.56
 -10   0   8   99.92   28.79
  10   0  -8  105.07   36.96
  10   0  -7  288.35   46.75
 -10   0   7  282.85   53.50
  10   0  -7  316.69   43.34
  10   0  -6   87.12   35.73
 -10   0   6  147.80   41.32
  10   0  -6  109.60   33.98
 -10   0   6   52.72   13.12
  10   0  -5  407.33   49.53
 -10   0   5  322.08   38.17
 -10   0   5  430.35   55.82
 -10   0   4   93.37   27.08
 -10   0   4   96.64   43.19
  10   0  -4  115.38   36.51
 -10   0   3   -3.23   29.80
 -10   0   3   19.47   39.07
  10   0  -3    0.34   38.33
 -10   0   2    1.85   41.49
 -10   0   2   20.26   30.31
  10   0  -2   21.52   39.29
 -10   0   1   70.94   44.66
 -10   0   1   89.39   30.45
  10   0  -1   86.19   43.22
 -10   0   0   77.88   33.25
 -10   0   0  164.56   47.82
  10   0   0  179.18   48.85
 -10   0  -1    1.24   36.69
 -10   0  -1   11.98   43.24
  10   0   1    8.25   45.66
 -10   0  -2   51.68   41.11
 -10   0  -2   63.30   55.38
  10   0   2   36.82   48.61
 -10   0  -2  117.65   49.17
 -10   0  -3  726.79   88.40
 -10   0  -3  742.85   80.81
 -10   0  -3  556.44   83.93
 -10   0  -4   66.29   56.95
 -10   0  -4   40.06   44.12
  10   0   5  -50.52   55.13
 -10   0  -5   25.38   59.53
 -10   0  -5  -13.20   45.53
  10   0   6   65.21   57.67
 -10   0  -6   39.01   47.37
  10  -1 -14   27.69   36.94
  10  -1 -13  -34.06   35.55
  10   1 -12   44.56   39.11
  10  -1 -12   26.86   32.80
  10   1 -11  120.26   41.29
 -10  -1  11  120.37   41.50
  10  -1 -11   99.81   36.19
  10   1 -10   78.76   38.23
 -10  -1  10   88.34   37.33
 -10  -1  10  123.56   37.50
  10  -1 -10  138.39   35.35
  10   1  -9   50.45   38.00
 -10  -1   9   67.16   33.40
 -10  -1   9   35.11   35.13
  10  -1  -9   47.79   31.28
  10   1  -8    7.78   35.62
  10  -1  -8   -5.26   25.49
  10  -1  -8   -8.42   31.21
 -10   1   7   65.41   20.29
 -10   1   7  100.90   16.59
  10   1  -7  101.56   38.47
  10   1  -7   93.99   37.92
  10  -1  -7  154.76   36.48
  10  -1  -7  143.25   30.58
 -10  -1   7  109.85   45.66
  10   1  -6  129.09   40.19
 -10   1   6  289.84   42.36
  10   1  -6   74.13   40.40
 -10   1   6  221.86   32.96
  10  -1  -6  318.34   43.19
  10  -1  -6  354.52   42.59
  10   1  -5  175.17   41.98
 -10   1   5  137.74   36.72
  10   1  -5  198.52   42.36
 -10   1   5  120.70   38.30
  10  -1  -5  114.60   35.96
 -10  -1   5  165.17   44.27
 -10   1   4   69.98   38.95
 -10   1   4  112.65   37.94
 -10  -1   4  189.31   33.27
  10  -1  -4  102.74   39.34
 -10  -1   4  212.30   49.62
  10   1  -3  148.67   39.46
 -10   1   3   84.19   39.40
 -10   1   3  138.72   36.40
  10  -1  -3   80.44   41.58
 -10  -1   3  178.62   48.72
 -10  -1   3  225.03   33.10
  10   1  -2  108.14   41.36
 -10   1   2   82.43   38.83
 -10  -1   2  -36.53   27.41
 -10  -1   2   82.14   46.59
  10  -1  -2   88.76   38.78
  10   1  -1  237.46   55.27
 -10   1   1  434.47   57.40
 -10   1   1  422.72   56.53
 -10   1   1  356.55   47.54
  10  -1  -1  321.76   51.63
 -10  -1   1  258.66   44.02
 -10  -1   1  177.94   52.90
 -10   1   0  263.66   50.32
 -10   1   0  193.04   46.11
  10   1   0  214.46   47.58
 -10  -1   0  187.18   42.07
  10  -1   0  171.72   49.69
 -10  -1   0  186.23   52.44
  10   1   1  168.09   49.05
 -10   1  -1   77.68   49.02
 -10   1  -1   55.13   43.15
 -10   1  -1  101.91   37.87
 -10  -1  -1  190.28   44.18
  10  -1   1   95.89   50.22
 -10  -1  -1  227.01   53.42
 -10   1  -2  231.01   47.05
 -10   1  -2  216.40   50.83
 -10   1  -2  306.73   59.11
  10  -1   2  271.26   60.35
 -10  -1  -2  305.89   58.06
 -10  -1  -2  279.74   54.39
 -10   1  -3   75.88   42.79
 -10   1  -3   11.95   52.56
  10  -1   3  -22.82   51.54
 -10  -1  -3   12.40   44.20
 -10  -1  -3   20.99   51.35
  10   1   4   56.63   53.91
 -10   1  -4   23.27   43.57
 -10   1  -4   50.67   54.94
 -10  -1  -4   47.12   48.77
 -10  -1  -4   92.51   51.54
  10   1   5  110.09   55.55
 -10   1  -5   48.87   56.88
 -10   1  -5   84.48   47.09
 -10  -1  -5  117.20   64.81
 -10  -1  -5  108.64   51.39
  10   1   6  203.49   62.39
 -10   1  -6  218.84   55.73
  10  -1   6  136.82   59.97
 -10  -1  -6  189.26   55.02
  10  -1   6  168.70   55.00
  10  -1   7  -32.62   54.42
 -10  -2  12   49.54   48.71
  10   2 -11   16.03   39.46
 -10  -2  11    9.88   44.26
  10  -2 -11    4.63   29.98
 -10  -2  11   -5.42   42.71
  10   2 -10    6.98   39.76
 -10  -2  10   26.70   40.69
 -10  -2  10   26.04   44.06
  10  -2 -10   35.67   29.42
  10   2  -9   46.03   41.99
  10  -2  -9  108.50   31.11
 -10  -2   9   61.49   42.06
  10  -2  -9   81.80   17.31
 -10  -2   9   34.22   42.09
  10   2  -8   17.42   40.46
  10  -2  -8   48.77   27.96
 -10  -2   8    5.25   42.16
  10  -2  -8   72.28   23.95
  10   2  -7   75.32   40.28
  10  -2  -7   68.23   29.05
 -10  -2   7   69.87   42.59
 -10  -2   7  100.67   48.16
  10   2  -6  156.53   44.53
  10   2  -6  143.60   44.34
 -10  -2   6  158.84   46.20
  10  -2  -6   35.08   31.73
 -10  -2   6  148.50   49.15
 -10   2   5   18.03   30.58
 -10   2   5    8.06   14.74
  10   2  -5  131.64   41.41
  10   2  -5  132.16   41.24
 -10  -2   5  171.76   48.79
  10  -2  -5   61.21   34.23
 -10  -2   5  160.74   48.03
 -10   2   4  219.47   37.15
 -10   2   4  219.68   33.42
 -10  -2   4  129.38   50.54
 -10  -2   4   41.10   48.34
 -10   2   3  220.23   36.20
 -10   2   3  222.33   40.68
  10   2  -3  170.11   48.71
  10  -2  -3  178.79   44.68
 -10  -2   3  134.85   53.48
 -10  -2   3  197.68   55.56
  10   2  -2  316.12   50.37
 -10   2   2  177.00   38.21
 -10  -2   2  404.79   55.33
 -10  -2   2  358.40   61.15
 -10   2   1   57.18   34.49
 -10   2   1    9.26   35.09
 -10  -2   1  124.24   50.12
 -10  -2   1  162.44   42.94
  10   2   0   34.13   44.61
 -10   2   0   38.56   37.99
 -10   2   0   44.30   39.63
 -10  -2   0   62.15   40.29
  10  -2   0   49.06   30.13
 -10  -2   0   51.92   50.74
  10   2   1  110.06   48.50
 -10   2  -1  180.31   45.86
 -10   2  -1   98.00   44.48
  10  -2   1  139.10   36.32
 -10  -2  -1   71.84   45.46
 -10  -2  -1   70.43   52.70
 -10   2  -2  125.85   46.98
 -10  -2  -2  172.75   48.71
  10  -2   2  115.83   39.36
 -10  -2  -2  122.13   52.55
  10   2   3  -25.74   50.35
 -10   2  -3   63.77   49.02
 -10  -2  -3    4.60   46.42
  10  -2   3   32.18   40.73
 -10  -2  -3   -8.65   53.25
  10   2   4  209.84   56.93
 -10   2  -4   72.11   52.15
 -10  -2  -4  246.67   55.41
 -10  -2  -4  225.42   62.85
  10  -2   4  129.78   48.50
 -10   2  -5   11.13   49.93
  10   2   5  117.73   55.24
 -10  -2  -5  154.37   59.98
  10  -2   5    3.33   46.91
 -10  -2  -5  109.42   54.48
  10  -2   6   38.79   48.70
  10  -2   7   46.71   53.34
 -10  -3  12   35.26   50.37
 -10  -3  11   -5.60   50.59
 -10  -3  10   30.86   49.60
 -10  -3  10   -4.58   42.25
  10   3  -9   28.87   40.21
 -10  -3   9   49.44   42.76
  10   3  -8   28.70   42.49
  10  -3  -8   20.09   23.96
 -10  -3   8   52.44   43.50
  10   3  -7   -0.53   41.72
 -10  -3   7   48.71   45.43
 -10  -3   7   43.45   47.27
  10  -3  -7    3.96   26.82
  10   3  -6    6.88   40.66
  10  -3  -6   88.88   35.03
 -10  -3   6   81.84   47.01
 -10  -3   6   50.02   48.68
  10   3  -5  109.59   45.33
  10   3  -5   60.85   42.07
 -10  -3   5   67.58   47.02
 -10  -3   5   71.62   48.45
  10   3  -4   91.39   46.56
 -10   3   4   52.64   24.69
 -10  -3   4  137.41   50.02
 -10  -3   4  116.87   49.77
  10   3  -3   35.33   46.16
 -10   3   3   55.09   27.58
 -10   3   3   18.59   24.98
 -10  -3   3   -6.98   46.90
 -10   3   2    3.00   27.64
 -10   3   2  -72.29   24.91
  10  -3  -2   15.99   20.06
 -10  -3   2   23.70   49.13
  10   3  -1   30.78   49.04
 -10   3   1  118.94   33.90
 -10   3   1   53.39   31.37
  10  -3  -1   82.26   27.06
 -10  -3   1   50.27   52.89
 -10   3   0   17.78   37.85
  10   3   0    3.11   49.37
 -10   3   0   30.37   33.53
 -10  -3   0   75.89   45.59
  10  -3   0   62.80   30.91
 -10  -3   0   -2.88   49.22
 -10   3  -1   29.20   36.14
 -10   3  -1   35.87   41.76
  10  -3   1   24.48   33.85
 -10  -3  -1  120.88   50.03
 -10   3  -2    6.33   45.13
 -10  -3  -2   74.10   50.24
  10  -3   2   11.87   37.76
  10   3   3   31.03   53.47
 -10   3  -3    1.72   48.05
  10  -3   3   67.36   40.17
 -10  -3  -3   58.43   50.34
  10   3   4   96.11   56.89
 -10   3  -4   55.19   48.82
  10  -3   4   58.37   44.87
  10  -3   5   -3.95   46.86
  10  -3   6   31.99   49.03
 -10  -4  11   66.07   57.01
 -10  -4  10    6.33   45.02
 -10  -4  10   59.11   52.09
 -10  -4   9   37.90   45.40
 -10  -4   9   55.72   53.99
 -10  -4   8   52.35   48.36
 -10  -4   7   42.02   48.61
  10   4  -6   22.25   44.58
 -10  -4   6   30.07   48.64
  10   4  -5   33.06   42.96
 -10  -4   5   38.53   48.54
 -10  -4   4   78.19   51.93
 -10  -4   4   35.98   48.98
 -10  -4   3  -11.64   49.44
 -10  -4   3   32.66   52.85
  10   4  -2   37.47   51.87
 -10  -4   2   -2.75   49.76
 -10  -4   2   -3.92   48.28
  10   4  -1   20.34   55.27
 -10   4   1   13.20   33.39
 -10  -4   1   70.73   49.01
 -10  -4   1   61.91   52.95
  10  -4  -1  -16.07   26.75
 -10   4   0   56.16   38.63
  10  -4   0   19.82   30.40
 -10  -4   0   79.33   54.85
 -10   4  -1   44.41   41.32
  10  -4   1   34.96   33.82
 -10  -4  -1   26.05   57.68
 -10  -4  -1   34.00   49.81
  10   4   2  -16.49   55.57
 -10   4  -2  -11.78   43.93
 -10  -4  -2   17.01   54.61
  10  -4   2   48.33   36.61
 -10   4  -3  -11.65   48.41
  10  -4   3   25.22   39.54
 -10   4  -4   -3.10   50.16
  10  -4   4  -42.74   43.82
  10  -4   5    3.43   45.20
  11   0 -12   58.31   37.18
  11   0 -11   49.12   37.58
  11   0 -10   80.46   37.79
  11   0  -9   31.10   36.14
 -11   0   9    5.01   27.49
  11   0  -8   21.19   30.98
  11   0  -8   31.58   36.29
  11   0  -7  139.96   41.29
  11   0  -7  133.22   36.99
 -11   0   7  157.48   46.79
  11   0  -6  431.09   57.47
 -11   0   6  497.63   66.45
  11   0  -5   55.63   35.74
 -11   0   5   17.51   18.45
 -11   0   5   13.81   40.95
  11   0  -4   99.32   39.42
 -11   0   4   96.54   28.22
 -11   0   4  113.82   45.88
  11   0  -3   12.75   39.81
 -11   0   3  -32.48   43.35
 -11   0   3   24.90   30.45
 -11   0   2  353.70   43.16
 -11   0   2  270.99   57.01
  11   0  -2  230.95   53.02
  11   0  -1  558.02   58.20
 -11   0   1  553.55   59.72
  11   0   0  156.87   50.24
 -11   0   0  189.58   51.09
 -11   0   0  162.06   42.20
  11   0   1   26.08   48.47
 -11   0  -1   28.39   39.93
 -11   0  -1    2.93   48.14
 -11   0  -1   23.04   52.82
 -11   0  -2   37.94   57.44
 -11   0  -2   55.75   49.92
 -11   0  -2   29.70   40.56
  11   0   2   -5.33   49.04
 -11   0  -3  155.93   46.87
 -11   0  -3  192.08   62.04
 -11   0  -3  115.00   56.17
  11   0   3  156.14   55.65
 -11   0  -4   83.09   47.09
 -11   0  -4   86.67   62.39
 -11   0  -4   73.04   52.13
 -11   0  -5  104.06   48.09
  11  -1 -13   19.56   38.06
  11  -1 -12   17.51   34.78
  11   1 -11    0.49   36.52
  11  -1 -11    8.13   34.30
  11   1 -10   41.40   38.01
  11  -1 -10   42.15   33.23
 -11  -1  10   19.09   36.96
  11   1  -9   73.65   41.36
  11  -1  -9   62.33   34.83
 -11  -1   9  118.00   37.40
  11  -1  -9  115.39   28.33
  11   1  -8  271.83   48.77
  11   1  -8  262.18   45.86
  11  -1  -8  102.46   31.66
  11  -1  -8   94.92   36.73
  11   1  -7  169.10   43.27
  11   1  -7  161.58   39.86
 -11   1   7  110.20   25.27
  11  -1  -7  157.77   37.38
  11  -1  -7  160.28   34.07
 -11  -1   7  204.60   51.55
  11   1  -6   76.57   40.04
 -11   1   6   99.02   41.58
  11   1  -6   58.31   38.14
 -11   1   6  100.03   31.34
 -11  -1   6   19.54   45.74
  11  -1  -6   82.53   33.57
 -11  -1   6   25.29   28.48
  11   1  -5   81.10   40.45
 -11   1   5   66.59   33.48
 -11   1   5   38.33   37.68
 -11  -1   5   98.21   45.91
  11  -1  -5   27.81   36.15
 -11  -1   5   36.97   28.93
 -11   1   4  533.49   68.47
 -11   1   4  610.68   62.57
  11   1  -4  468.78   67.58
 -11  -1   4  469.23   68.85
 -11  -1   4  442.73   53.06
  11  -1  -4  490.66   60.38
  11   1  -3  237.39   43.44
 -11   1   3  198.39   46.51
  11  -1  -3  164.23   42.93
 -11  -1   3  255.05   51.57
  11   1  -2  155.24   44.53
 -11   1   2   77.79   43.70
 -11   1   2   82.24   44.82
  11  -1  -2   89.29   45.23
 -11  -1   2  244.32   40.41
 -11  -1   2  134.13   52.33
  11   1  -1   15.59   42.48
 -11   1   1   25.61   45.39
 -11   1   1   30.91   43.57
  11  -1  -1   37.15   43.18
 -11  -1   1   11.61   36.56
 -11  -1   1   17.86   47.67
  11   1   0   65.86   49.26
 -11   1   0  176.38   52.97
 -11   1   0   95.26   33.51
 -11   1   0  152.75   47.32
  11  -1   0  103.50   46.31
 -11  -1   0   33.71   49.90
 -11  -1   0   75.56   41.12
 -11   1  -1  180.78   53.10
 -11   1  -1  233.85   59.06
  11   1   1  271.38   56.99
 -11   1  -1  244.26   46.64
  11  -1   1  228.01   55.24
 -11  -1  -1  249.97   50.50
 -11  -1  -1  208.46   59.01
 -11   1  -2  182.23   55.97
 -11   1  -2  164.11   45.63
 -11   1  -2   71.63   52.35
  11   1   2  235.53   55.69
  11  -1   2  151.84   55.83
 -11  -1  -2  328.16   54.85
 -11  -1  -2  223.21   60.55
 -11   1  -3  108.89   58.78
 -11   1  -3   92.17   43.98
 -11   1  -3   57.62   47.80
  11  -1   3   58.80   53.65
 -11  -1  -3  154.88   49.67
 -11  -1  -3  160.28   57.28
 -11   1  -4   27.80   57.97
  11   1   4   -3.69   55.36
 -11   1  -4   39.03   45.22
 -11  -1  -4   24.68   52.36
 -11  -1  -4   20.07   47.47
 -11  -1  -5  132.02   53.58
  11   2 -10  123.67   44.33
 -11  -2  10   95.08   44.79
 -11  -2  10   61.24   44.04
  11  -2 -10   34.64   31.20
  11   2  -9   97.22   45.07
 -11  -2   9  110.72   46.38
  11  -2  -9   15.44   31.66
  11   2  -8  -10.92   41.35
  11  -2  -8   27.23   25.73
 -11  -2   8   34.58   45.09
 -11  -2   8  -22.84   48.52
  11   2  -7   87.79   44.01
 -11  -2   7  168.95   56.67
 -11  -2   7  199.74   53.37
  11  -2  -7  236.59   37.55
  11   2  -6  196.40   49.93
  11   2  -6  272.39   50.65
  11  -2  -6   78.79   36.50
 -11  -2   6  270.42   55.01
 -11  -2   6  181.37   53.46
 -11   2   5   62.39   22.59
  11   2  -5  137.72   43.53
 -11   2   5   95.95   35.03
 -11  -2   5  215.25   54.25
 -11  -2   5  202.21   56.56
  11   2  -4  114.11   44.82
 -11   2   4   13.64   32.21
 -11   2   4   26.39   28.20
  11  -2  -4   19.83   37.71
 -11  -2   4   64.83   49.78
  11   2  -3  -18.10   46.71
 -11   2   3  -20.64   26.08
 -11   2   3   60.77   36.30
  11  -2  -3   23.12   40.34
 -11  -2   3   25.07   36.76
 -11  -2   3   30.53   53.08
  11   2  -2  122.94   51.75
 -11   2   2  252.05   40.02
 -11   2   2  209.89   42.49
  11  -2  -2  185.23   49.39
 -11  -2   2   90.33   49.68
 -11  -2   2   97.98   42.00
  11   2  -1  291.37   55.47
 -11   2   1  165.64   44.60
 -11   2   1  150.56   45.20
  11  -2  -1  178.91   54.78
 -11  -2   1  271.26   50.60
 -11  -2   1  329.52   61.82
 -11   2   0   86.06   44.30
 -11   2   0   74.44   42.36
 -11  -2   0  290.38   50.29
 -11  -2   0  240.45   60.19
 -11   2  -1   27.22   42.88
 -11   2  -1   33.01   44.50
  11   2   1  -37.29   47.95
  11  -2   1    4.80   50.00
 -11  -2  -1   72.75   44.86
 -11  -2  -1   -2.03   51.17
 -11   2  -2   93.28   47.51
 -11   2  -2  112.94   49.56
  11  -2   2   70.01   53.34
 -11  -2  -2   42.81   56.08
 -11  -2  -2   19.08   45.73
 -11   2  -3  108.65   48.32
 -11   2  -3  115.25   52.71
  11  -2   3   96.90   42.32
 -11  -2  -3   62.43   49.99
  11  -2   3   94.52   56.38
 -11  -2  -3   76.47   59.95
 -11   2  -4   72.30   53.72
 -11  -2  -4  162.43   56.78
  11  -2   4  120.73   47.01
  11  -2   5   97.13   49.39
  11  -2   6   24.76   48.77
 -11  -3  11    8.33   53.84
 -11  -3  10   47.10   51.07
 -11  -3  10    5.58   44.11
 -11  -3   9   43.53   45.22
 -11  -3   8   18.77   53.98
 -11  -3   8   58.40   47.60
  11   3  -7  134.09   48.94
 -11  -3   7   97.04   55.95
 -11  -3   7   84.75   49.36
  11  -3  -7   36.57   31.36
  11   3  -6   65.39   45.55
 -11  -3   6   50.84   49.54
  11  -3  -6  -16.91   33.90
 -11  -3   6   57.19   47.72
  11   3  -5   66.65   48.47
  11  -3  -5  112.27   40.57
 -11  -3   5   71.75   50.88
 -11  -3   5   41.41   53.15
  11   3  -4   70.85   50.80
 -11  -3   4    1.31   52.85
 -11  -3   4   54.70   51.93
 -11   3   3   17.79   28.66
  11   3  -3   84.49   49.23
 -11   3   3   84.60   27.83
 -11  -3   3  107.26   54.26
 -11  -3   3   96.71   55.43
  11   3  -2  100.70   49.63
 -11   3   2   37.36   27.18
 -11   3   2   11.02   32.90
 -11  -3   2   60.42   56.25
 -11  -3   2   90.36   44.97
 -11  -3   2   67.35   54.10
  11   3  -1   91.44   50.95
 -11   3   1   34.54   33.01
 -11   3   1   13.14   34.96
 -11  -3   1   66.59   52.88
 -11  -3   1   93.24   44.66
  11   3   0   92.43   53.45
 -11   3   0  157.60   40.12
 -11   3   0  142.33   44.30
  11  -3   0   55.83   31.51
 -11  -3   0   68.39   45.86
 -11   3  -1  105.03   40.62
 -11   3  -1   98.89   44.67
  11  -3   1   63.80   35.54
 -11  -3  -1   46.79   49.24
 -11   3  -2   -9.16   46.35
 -11   3  -2   52.45   42.34
  11  -3   2   -3.61   37.52
 -11  -3  -2  129.79   51.85
 -11   3  -3   57.69   52.05
 -11   3  -3  -12.07   41.87
  11  -3   3   21.44   39.86
  11  -3   4   70.29   43.65
 -11  -4  10   11.24   56.97
 -11  -4   8  -31.21   50.00
 -11  -4   7  -16.25   51.30
 -11  -4   6   60.78   52.23
  11   4  -3  -31.58   53.10
  11   4  -2   84.76   56.15
 -11  -4   2   44.96   59.14
  11   4  -1   80.62   58.30
 -11  -4   1   48.86   49.92
 -11  -4   0   45.96   50.80
  12   0 -12   14.30   38.97
  12   0 -11    6.28   37.08
  12   0 -10   41.75   39.74
  12   0  -9    3.54   32.91
  12   0  -9   28.77   37.85
  12   0  -8   26.36   37.66
  12   0  -8   29.00   33.57
 -12   0   7   56.54   47.66
  12   0  -7   36.74   36.69
  12   0  -6   51.34   38.38
 -12   0   6   -4.88   45.96
  12   0  -5  141.79   41.09
 -12   0   5  157.36   48.29
 -12   0   4   97.40   27.61
 -12   0   4   95.07   49.05
  12   0  -4   91.29   41.95
 -12   0   3  186.91   53.13
 -12   0   3  185.77   35.05
  12   0  -3  150.71   46.12
 -12   0   2   36.89   47.56
 -12   0   2  -78.91   26.54
  12   0  -2    4.50   43.85
 -12   0   1  211.69   54.95
 -12   0   1  226.48   42.93
  12   0  -1  198.55   52.54
  12   0   0   85.39   50.04
 -12   0   0   57.91   50.26
 -12   0   0   73.23   55.17
 -12   0   0   65.55   38.92
  12   0   1  118.67   51.18
 -12   0  -1   84.62   41.98
 -12   0  -1   61.30   58.82
 -12   0  -1  110.99   54.85
  12   0   2   18.34   50.97
 -12   0  -2   18.29   57.53
 -12   0  -2   19.61   40.78
 -12   0  -2   61.64   53.65
 -12   0  -3   -1.38   54.60
 -12   0  -3   20.44   58.82
 -12   0  -3  -10.64   40.71
 -12   0  -4   62.22   45.39
 -12   0  -4   42.17   57.64
  12  -1 -11    5.62   35.39
  12   1 -10   -1.04   41.82
  12  -1 -10   -8.42   35.37
  12   1  -9   16.96   38.94
  12  -1  -9   40.34   36.71
  12   1  -8  126.86   40.63
  12   1  -8   74.52   43.84
 -12  -1   8  112.43   53.09
  12  -1  -8   85.79   32.95
  12   1  -7  171.16   46.63
 -12   1   7  138.46   46.98
  12   1  -7  201.83   43.74
  12  -1  -7  127.94   36.08
 -12  -1   7  270.17   56.83
  12   1  -6   19.62   39.11
 -12   1   6   15.82   41.67
 -12  -1   6   18.76   46.95
  12  -1  -6    8.40   34.77
 -12   1   5   25.28   29.77
 -12   1   5   33.91   39.52
  12   1  -5   63.11   40.83
 -12  -1   5  103.37   28.36
  12  -1  -5    6.22   36.77
 -12  -1   5   -3.53   49.05
 -12   1   4   54.25   34.45
  12   1  -4   91.50   45.30
 -12   1   4   77.70   43.08
 -12  -1   4  108.98   51.74
  12  -1  -4   34.07   39.12
  12   1  -3   64.57   44.35
 -12   1   3  188.47   50.64
 -12   1   3  202.77   47.07
  12  -1  -3  184.75   45.09
 -12  -1   3   60.59   56.10
 -12  -1   3  177.94   36.87
  12   1  -2  222.37   49.74
 -12   1   2  142.35   50.55
 -12   1   2  179.59   51.59
 -12  -1   2  283.57   45.49
  12  -1  -2  135.92   50.38
 -12  -1   2  281.35   58.21
  12   1  -1   32.52   45.37
 -12   1   1   20.52   46.65
 -12   1   1   60.76   44.23
  12  -1  -1   66.26   47.13
 -12  -1   1  107.66   41.10
 -12  -1   1   47.09   51.67
 -12   1   0   48.07   52.60
  12   1   0   22.23   46.81
 -12   1   0    0.56   46.60
 -12  -1   0   -5.25   44.11
 -12  -1   0   30.51   51.77
  12  -1   0  -15.77   47.69
 -12   1  -1   75.12   54.05
  12   1   1   76.00   50.86
 -12   1  -1   77.80   50.05
 -12  -1  -1   36.07   44.29
  12  -1   1   78.57   50.66
 -12  -1  -1   30.19   51.90
 -12   1  -2   93.04   56.97
  12   1   2   14.01   51.67
 -12   1  -2   80.61   51.88
  12  -1   2   80.35   50.54
 -12  -1  -2   67.69   46.55
 -12  -1  -2   66.87   57.15
 -12   1  -3  131.75   55.56
 -12   1  -3  161.01   61.34
 -12  -1  -3   47.08   46.19
 -12  -1  -3   69.15   56.55
 -12   1  -4   67.14   53.13
 -12  -1  -4   58.63   49.12
 -12  -2   9  147.80   53.79
  12   2  -8   42.93   45.78
 -12  -2   8   86.36   54.00
  12   2  -7  -24.48   43.53
  12   2  -7   27.56   42.40
 -12  -2   7    6.11   51.45
  12  -2  -7   39.74   31.98
 -12   2   6   79.14   36.46
  12   2  -6   49.63   44.84
 -12  -2   6   44.53   52.86
  12  -2  -6   53.62   35.55
  12   2  -5  166.87   49.57
 -12   2   5  207.56   42.54
  12  -2  -5  155.99   41.79
 -12  -2   5  127.73   39.73
 -12  -2   5  155.49   54.58
  12   2  -4   81.86   45.80
 -12   2   4   44.25   36.74
  12  -2  -4   35.80   41.28
 -12  -2   4  118.02   56.05
 -12  -2   4  115.74   38.93
 -12   2   3    8.70   38.89
 -12   2   3   55.77   29.55
  12   2  -3   15.22   48.43
  12  -2  -3  -12.03   39.70
 -12  -2   3   70.69   56.54
 -12  -2   3   93.02   38.81
 -12   2   2   56.25   38.94
  12   2  -2   17.03   48.54
 -12   2   2   36.79   37.89
  12  -2  -2   45.36   44.55
 -12  -2   2    5.32   50.11
 -12  -2   2   15.74   39.37
 -12   2   1   43.05   41.04
 -12   2   1   60.43   41.77
  12   2  -1   19.60   50.08
  12  -2  -1   28.90   46.89
 -12  -2   1   43.74   41.93
 -12  -2   1   18.39   52.18
 -12   2   0   64.62   44.42
  12   2   0   76.16   50.03
 -12   2   0   76.81   43.91
  12  -2   0   82.83   50.45
 -12  -2   0   89.54   44.27
 -12  -2   0  100.75   57.09
 -12   2  -1   64.21   48.01
 -12   2  -1   90.62   48.00
  12   2   1  132.26   53.07
  12  -2   1   39.28   52.01
 -12  -2  -1  170.38   58.12
 -12  -2  -1  141.35   48.43
 -12   2  -2    1.81   49.53
 -12   2  -2   -9.67   46.30
  12  -2   2   22.98   53.06
 -12  -2  -2   47.18   47.95
 -12   2  -3    8.68   49.89
 -12   2  -3   11.43   48.31
 -12  -2  -3   17.88   52.34
 -12   2  -4   21.97   49.13
 -12  -3  10    8.64   51.05
 -12  -3   9   11.64   47.02
 -12  -3   8   17.64   49.74
 -12  -3   7   81.00   58.33
 -12  -3   7   45.77   51.18
 -12  -3   6   91.92   52.98
  12  -3  -6   -0.97   35.96
 -12  -3   6   -2.90   53.23
  12   3  -5   24.73   49.23
 -12  -3   5   12.02   55.14
  12  -3  -5   20.32   38.31
 -12  -3   5   25.33   53.40
  12   3  -4   77.21   50.41
 -12  -3   4   78.05   57.59
  12  -3  -4   29.84   42.72
 -12  -3   4   41.97   56.04
  12   3  -3   21.74   48.71
 -12  -3   3   15.72   41.86
  12  -3  -3  -52.13   45.31
 -12  -3   3  -22.13   56.71
  12   3  -2  104.54   53.23
  12  -3  -2   62.79   48.23
 -12  -3   2   72.94   61.93
 -12  -3   2  114.41   44.45
  12   3  -1  146.32   56.11
 -12  -3   1  156.55   58.07
 -12  -3   1  169.72   50.34
 -12  -3   0   83.65   48.63
 -12  -3  -1   52.51   49.80
 -12  -4   2    9.20   47.72
  13   0 -10    8.15   40.94
  13   0  -9   68.99   40.53
  13   0  -8   57.85   36.72
 -13   0   7   27.01   47.58
  13   0  -7   12.89   39.19
  13   0  -6   29.74   39.64
 -13   0   6    8.23   47.47
 -13   0   5    8.15   47.59
  13   0  -5   61.42   39.02
  13   0  -4   80.82   42.68
 -13   0   4   80.92   51.53
 -13   0   3  133.80   55.28
  13   0  -3  117.87   46.88
  13   0  -2   39.80   47.44
 -13   0   2   42.55   48.50
  13   0  -1   -1.57   46.91
 -13   0   1   -1.28   48.68
 -13   0   1    5.96   55.05
  13   0   0  -15.61   49.45
 -13   0   0  -21.45   51.52
 -13   0   0   26.32   52.97
 -13   0  -1  147.50   60.13
 -13   0  -1   77.09   54.43
 -13   0  -2  249.51   65.31
  13   1  -8   -8.46   39.94
  13   1  -8   30.94   40.24
 -13  -1   8   42.63   53.53
 -13   1   7   43.36   44.43
  13   1  -7   51.55   40.82
  13  -1  -7    4.39   33.73
 -13  -1   7    5.38   53.41
 -13   1   6   39.82   44.17
  13   1  -6   32.91   41.97
  13  -1  -6   40.25   36.74
 -13  -1   6   28.16   49.83
  13   1  -5  107.92   44.93
 -13   1   5   20.11   43.95
 -13  -1   5   79.18   50.76
  13  -1  -5   49.51   39.47
  13   1  -4   85.22   46.30
 -13   1   4   48.31   45.04
 -13  -1   4   62.95   54.14
  13  -1  -4   15.21   41.35
 -13   1   3   85.43   47.93
  13   1  -3   11.15   45.89
  13  -1  -3   58.44   44.46
 -13  -1   3   -1.40   53.84
 -13   1   2  144.32   48.42
 -13   1   2  180.11   52.12
  13   1  -2   37.92   46.00
 -13  -1   2   46.09   53.61
  13  -1  -2  116.25   47.82
  13   1  -1   82.94   49.58
 -13   1   1  122.64   51.80
 -13   1   1   67.97   48.63
  13  -1  -1   63.69   48.88
 -13  -1   1  110.33   57.14
  13   1   0   79.21   51.08
 -13   1   0   60.48   53.15
 -13   1   0   65.99   50.38
  13  -1   0   59.43   51.45
 -13  -1   0  169.74   58.52
 -13   1  -1   -4.73   51.98
 -13   1  -1   10.95   49.85
 -13  -1  -1   30.89   57.34
 -13   1  -2   -7.94   55.26
 -13   1  -2   -4.72   50.03
 -13   1  -3   62.32   52.71
  13   2  -7   52.54   44.58
 -13  -2   7   69.90   56.23
  13   2  -6  -19.63   43.76
 -13  -2   6   33.62   51.36
  13  -2  -6   32.80   37.58
  13   2  -5   45.85   45.48
  13  -2  -5   15.37   39.39
 -13  -2   5   15.45   52.87
  13   2  -4   41.53   47.07
  13  -2  -4  116.50   43.59
 -13  -2   4   31.75   57.00
 -13   2   3   30.02   42.35
  13   2  -3  129.49   51.84
 -13  -2   3  138.26   60.21
  13  -2  -3   17.32   43.89
  13   2  -2  111.79   50.66
 -13   2   2   17.40   43.11
  13  -2  -2   -8.06   43.38
 -13  -2   2   71.35   57.92
 -13   2   1   46.11   44.26
  13  -2  -1    2.01   45.28
 -13   2   0   34.84   44.75
 -13  -2   0  -13.93   43.55
  13  -2   0   24.62   49.06
 -13   2  -1  139.37   51.83
 -13  -2  -1   58.57   47.45
  13   3  -6   32.35   48.02
  13   3  -5  -45.02   51.30
  13  -3  -5  -23.16   38.42
  13  -3  -4    6.85   41.92
  13  -3  -3    3.34   43.93
  13  -3  -2   33.97   48.19
  13  -3  -1   51.88   51.89
  13  -4  -3  -15.57   46.26
 -14   0   8   69.03   54.77
 -14   0   7   64.70   52.82
  14   0  -7   81.55   42.95
  14   0  -6   22.59   41.34
 -14   0   6   19.90   49.34
  14   0  -5    7.76   40.57
 -14   0   5   39.49   49.43
 -14   0   4   42.12   53.14
  14   0  -4   17.99   41.97
  14   0  -3   94.00   46.91
 -14   0   3   90.84   55.42
  14   0  -2  138.29   50.54
 -14   0   2   83.50   55.52
 -14   0   1   19.18   56.04
 -14   0   1   42.56   55.27
 -14   0   0  -27.82   56.05
  14   1  -7   19.47   40.86
 -14  -1   7  -10.94   57.06
  14   1  -6   66.59   44.89
 -14   1   6  120.69   49.93
 -14  -1   6   77.94   54.01
  14  -1  -6   80.09   39.00
  14   1  -5  123.48   49.95
 -14   1   5  151.85   50.12
 -14  -1   5  112.67   54.74
  14  -1  -5  156.88   44.63
 -14   1   4   48.85   48.22
  14   1  -4   88.15   47.62
 -14  -1   4   81.06   56.02
  14  -1  -4   46.33   43.37
  14   1  -3  -29.41   48.92
 -14   1   3    1.23   48.71
  14  -1  -3    4.45   45.25
 -14  -1   3   23.47   57.74
 -14   1   2   24.71   50.04
  14  -1  -2   17.73   46.48
 -14   1   1  -16.26   51.65
 -14   1   0   59.69   52.94
 -14   1  -1   28.25   49.44
  14   2  -7   41.04   46.76
  14   2  -6   26.89   46.13
  14   2  -5   47.03   47.76
  14  -2  -5   -2.10   40.66
  14  -2  -4   56.07   43.21
  14  -2  -3   24.20   45.64
 -15   0   7   -7.08   54.44
 -15   0   6   91.86   54.85
  15   0  -5   68.55   44.89
 -15   0   5   71.14   53.95
 -15   0   4   81.72   54.75
  15   1  -6    9.54   44.40
   0   0   0    0.00    0.00

_computing_structure_solution     'SHELXT 2014/5 (Sheldrick, 2014)'
;
_shelx_hkl_checksum              58600
loop_
_space_group_symop_id
_space_group_symop_operation_xyz
1 +X,+Y,+Z
2 -X,1/2+Y,-Z
loop_
_atom_site_label
_atom_site_type_symbol
_atom_site_fract_x
_atom_site_fract_y
_atom_site_fract_z
_atom_site_U_iso_or_equiv
_atom_site_adp_type
_atom_site_occupancy
_atom_site_site_symmetry_order
_atom_site_calc_flag
_atom_site_refinement_flags_posn
_atom_site_refinement_flags_adp
_atom_site_refinement_flags_occupancy
_atom_site_disorder_assembly
_atom_site_disorder_group
Se1 Se 0.6265(2) 0.8055(8) 0.9015(3) 0.0807(16) Uani 1 1 d . . . . .
O1 O 0.5939(13) 0.504(2) 0.6735(12) 0.027(3) Uani 1 1 d . U . . .
O2 O 0.5653(15) 0.714(3) 0.5139(14) 0.040(4) Uiso 1 1 d . . . . .
O9 O 0.2478(19) 0.259(3) 0.7682(17) 0.052(5) Uani 1 1 d . U . . .
O23 O 0.3603(15) 0.573(2) 0.8066(16) 0.037(4) Uani 1 1 d . U . . .
C1 C 0.560(3) 0.481(6) 0.891(3) 0.061(8) Uani 1 1 d . U . . .
H1A H 0.624872 0.371231 0.891554 0.073 Uiso 1 1 calc R U . . .
H1B H 0.527384 0.447774 0.955956 0.073 Uiso 1 1 calc R U . . .
C2 C 0.465(2) 0.477(5) 0.787(2) 0.043(5) Uani 1 1 d . U . . .
H2 H 0.446870 0.317858 0.762273 0.052 Uiso 1 1 calc R U . . .
C3 C 0.489(2) 0.609(4) 0.693(2) 0.034(4) Uani 1 1 d . U . . .
H3 H 0.415918 0.614509 0.622520 0.041 Uiso 1 1 calc R U . . .
C4 C 0.525(2) 0.835(5) 0.7462(19) 0.040(5) Uiso 1 1 d . . . . .
H4A H 0.449491 0.920707 0.743976 0.048 Uiso 1 1 calc R U . . .
H4B H 0.569752 0.919241 0.702013 0.048 Uiso 1 1 calc R U . . .
C5 C 0.621(2) 0.553(4) 0.577(2) 0.032(5) Uiso 1 1 d . . . . .
C6 C 0.717(2) 0.436(4) 0.5533(18) 0.035(5) Uani 1 1 d . . . . .
C7 C 0.751(2) 0.204(4) 0.605(2) 0.035(5) Uiso 1 1 d . . . . .
H7 H 0.714328 0.147111 0.659093 0.042 Uiso 1 1 calc R U . . .
C8 C 0.835(2) 0.078(4) 0.572(2) 0.038(5) Uiso 1 1 d . . . . .
H8 H 0.865393 -0.056757 0.611454 0.046 Uiso 1 1 calc R U . . .
C9 C 0.877(2) 0.143(4) 0.4827(18) 0.029(5) Uiso 1 1 d . . . . .
H9 H 0.929267 0.047242 0.456653 0.034 Uiso 1 1 calc R U . . .
C10 C 0.842(2) 0.354(4) 0.4294(19) 0.034(5) Uani 1 1 d . . . . .
H10 H 0.873649 0.399721 0.369978 0.040 Uiso 1 1 calc R U . . .
C11 C 0.761(2) 0.495(4) 0.4626(19) 0.032(5) Uiso 1 1 d . . . . .
H11 H 0.735768 0.632595 0.423453 0.038 Uiso 1 1 calc R U . . .
C12 C 0.2635(19) 0.442(4) 0.7972(19) 0.028(4) Uani 1 1 d . U . . .
C13 C 0.157(2) 0.573(4) 0.8233(18) 0.027(4) Uani 1 1 d . U . . .
C14 C 0.1799(17) 0.788(4) 0.8766(16) 0.028(4) Uiso 1 1 d . . . . .
H14 H 0.259864 0.851118 0.893703 0.033 Uiso 1 1 calc R U . . .
C15 C 0.085(2) 0.910(4) 0.905(2) 0.038(6) Uani 1 1 d . . . . .
H15 H 0.102563 1.049078 0.943653 0.046 Uiso 1 1 calc R U . . .
C16 C -0.0281(19) 0.828(5) 0.8768(18) 0.036(5) Uiso 1 1 d . . . . .
H16 H -0.093707 0.916942 0.886102 0.044 Uiso 1 1 calc R U . . .
C17 C -0.053(2) 0.585(4) 0.8283(19) 0.032(5) Uiso 1 1 d . . . . .
H17 H -0.130729 0.514157 0.817544 0.038 Uiso 1 1 calc R U . . .
C18 C 0.042(2) 0.480(5) 0.8020(19) 0.037(5) Uani 1 1 d . U . . .
H18 H 0.027799 0.336081 0.767413 0.044 Uiso 1 1 calc R U . . .
loop_
_atom_site_aniso_label
_atom_site_aniso_U_11
_atom_site_aniso_U_22
_atom_site_aniso_U_33
_atom_site_aniso_U_23
_atom_site_aniso_U_13
_atom_site_aniso_U_12
Se1 0.0356(12) 0.149(4) 0.0508(16) -0.068(2) 0.0034(10) -0.016(2)
O1 0.031(7) 0.006(6) 0.033(7) 0.003(6) -0.005(6) 0.007(6)
O9 0.073(12) 0.011(7) 0.075(12) -0.013(8) 0.025(10) -0.006(8)
O23 0.041(7) 0.012(7) 0.060(10) 0.001(7) 0.016(7) 0.000(6)
C1 0.063(13) 0.07(2) 0.050(12) 0.012(14) 0.018(10) 0.033(16)
C2 0.036(9) 0.032(13) 0.064(12) -0.005(10) 0.018(8) -0.008(10)
C3 0.032(10) 0.030(12) 0.037(10) -0.014(8) 0.003(8) -0.004(9)
C6 0.042(13) 0.025(11) 0.026(11) 0.005(9) -0.009(9) -0.014(10)
C10 0.038(11) 0.023(12) 0.032(10) -0.002(9) -0.003(9) -0.012(10)
C12 0.022(8) 0.017(9) 0.036(10) -0.009(8) -0.002(8) -0.003(7)
C13 0.033(8) 0.020(10) 0.027(10) -0.005(8) 0.008(8) -0.001(8)
C15 0.030(11) 0.027(13) 0.048(14) 0.010(11) -0.002(10) -0.002(10)
C18 0.033(9) 0.043(14) 0.029(11) 0.006(10) 0.002(9) -0.006(10)
loop_
_atom_type_symbol
_atom_type_description
_atom_type_scat_dispersion_real
_atom_type_scat_dispersion_imag
_atom_type_scat_source
C C 0.0033 0.0016
;
International Tables for Crystallography
(Vol. C, Tables 4.2.6.8 and 6.1.1.4)
;
H H 0.0000 0.0000
;
International Tables for Crystallography
(Vol. C, Table 6.1.1.4)
;
O O 0.0106 0.0060
;
International Tables for Crystallography
(Vol. C, Tables 4.2.6.8 and 6.1.1.4)
;
Se Se -0.0929 2.2259
;
International Tables for Crystallography
(Vol. C, Tables 4.2.6.8 and 6.1.1.4)
;
loop_
_geom_angle_atom_site_label_1
_geom_angle_atom_site_label_2
_geom_angle_atom_site_label_3
_geom_angle
_geom_angle_site_symmetry_1
_geom_angle_site_symmetry_3
_geom_angle_publ_flag
C4 Se1 C1 85.7(12) . . ?
C5 O1 C3 118.4(17) . . ?
C12 O23 C2 117.9(18) . . ?
C2 C1 Se1 104(2) . . ?
C2 C1 H1A 111.0 . . ?
Se1 C1 H1A 111.0 . . ?
C2 C1 H1B 111.0 . . ?
Se1 C1 H1B 111.0 . . ?
H1A C1 H1B 109.0 . . ?
C1 C2 O23 107(2) . . ?
C1 C2 C3 116(2) . . ?
O23 C2 C3 106(2) . . ?
C1 C2 H2 109.3 . . ?
O23 C2 H2 109.3 . . ?
C3 C2 H2 109.3 . . ?
O1 C3 C2 105(2) . . ?
O1 C3 C4 109.4(18) . . ?
C2 C3 C4 102.8(19) . . ?
O1 C3 H3 113.1 . . ?
C2 C3 H3 113.1 . . ?
C4 C3 H3 113.1 . . ?
C3 C4 Se1 110.8(18) . . ?
C3 C4 H4A 109.5 . . ?
Se1 C4 H4A 109.5 . . ?
C3 C4 H4B 109.5 . . ?
Se1 C4 H4B 109.5 . . ?
H4A C4 H4B 108.1 . . ?
O2 C5 O1 120(2) . . ?
O2 C5 C6 121(2) . . ?
O1 C5 C6 119(2) . . ?
C11 C6 C5 122(2) . . ?
C11 C6 C7 117(2) . . ?
C5 C6 C7 119(2) . . ?
C8 C7 C6 119(2) . . ?
C8 C7 H7 120.3 . . ?
C6 C7 H7 120.3 . . ?
C7 C8 C9 121(2) . . ?
C7 C8 H8 119.4 . . ?
C9 C8 H8 119.4 . . ?
C8 C9 C10 120(2) . . ?
C8 C9 H9 120.0 . . ?
C10 C9 H9 120.0 . . ?
C11 C10 C9 121(2) . . ?
C11 C10 H10 119.3 . . ?
C9 C10 H10 119.3 . . ?
C10 C11 C6 120(2) . . ?
C10 C11 H11 119.8 . . ?
C6 C11 H11 119.8 . . ?
O9 C12 O23 130(2) . . ?
O9 C12 C13 119(2) . . ?
O23 C12 C13 111.4(17) . . ?
C18 C13 C14 119(2) . . ?
C18 C13 C12 121(2) . . ?
C14 C13 C12 120.0(18) . . ?
C13 C14 C15 121.4(19) . . ?
C13 C14 H14 119.3 . . ?
C15 C14 H14 119.3 . . ?
C16 C15 C14 120(2) . . ?
C16 C15 H15 120.1 . . ?
C14 C15 H15 120.1 . . ?
C15 C16 C17 120(2) . . ?
C15 C16 H16 120.1 . . ?
C17 C16 H16 120.1 . . ?
C18 C17 C16 116(2) . . ?
C18 C17 H17 121.8 . . ?
C16 C17 H17 121.8 . . ?
C13 C18 C17 123(2) . . ?
C13 C18 H18 118.5 . . ?
C17 C18 H18 118.5 . . ?
loop_
_geom_bond_atom_site_label_1
_geom_bond_atom_site_label_2
_geom_bond_distance
_geom_bond_site_symmetry_2
_geom_bond_publ_flag
Se1 C4 1.92(2) . ?
Se1 C1 2.07(4) . ?
O1 C5 1.34(3) . ?
O1 C3 1.43(3) . ?
O2 C5 1.28(3) . ?
O9 C12 1.14(3) . ?
O23 C12 1.33(3) . ?
O23 C2 1.41(3) . ?
C1 C2 1.40(4) . ?
C1 H1A 0.9900 . ?
C1 H1B 0.9900 . ?
C2 C3 1.50(4) . ?
C2 H2 1.0000 . ?
C3 C4 1.51(4) . ?
C3 H3 1.0000 . ?
C4 H4A 0.9900 . ?
C4 H4B 0.9900 . ?
C5 C6 1.40(4) . ?
C6 C11 1.40(3) . ?
C6 C7 1.52(3) . ?
C7 C8 1.37(3) . ?
C7 H7 0.9500 . ?
C8 C9 1.38(3) . ?
C8 H8 0.9500 . ?
C9 C10 1.42(3) . ?
C9 H9 0.9500 . ?
C10 C11 1.40(3) . ?
C10 H10 0.9500 . ?
C11 H11 0.9500 . ?
C12 C13 1.56(3) . ?
C13 C18 1.37(3) . ?
C13 C14 1.43(3) . ?
C14 C15 1.43(3) . ?
C14 H14 0.9500 . ?
C15 C16 1.32(3) . ?
C15 H15 0.9500 . ?
C16 C17 1.56(4) . ?
C16 H16 0.9500 . ?
C17 C18 1.38(3) . ?
C17 H17 0.9500 . ?
C18 H18 0.9500 . ?
loop_
_geom_torsion_atom_site_label_1
_geom_torsion_atom_site_label_2
_geom_torsion_atom_site_label_3
_geom_torsion_atom_site_label_4
_geom_torsion
_geom_torsion_site_symmetry_1
_geom_torsion_site_symmetry_2
_geom_torsion_site_symmetry_3
_geom_torsion_site_symmetry_4
_geom_torsion_publ_flag
Se1 C1 C2 O23 -81(2) . . . . ?
Se1 C1 C2 C3 37(3) . . . . ?
C12 O23 C2 C1 -114(3) . . . . ?
C12 O23 C2 C3 122(2) . . . . ?
C5 O1 C3 C2 165.4(19) . . . . ?
C5 O1 C3 C4 -85(2) . . . . ?
C1 C2 C3 O1 63(3) . . . . ?
O23 C2 C3 O1 -178.9(18) . . . . ?
C1 C2 C3 C4 -52(3) . . . . ?
O23 C2 C3 C4 67(2) . . . . ?
O1 C3 C4 Se1 -71(2) . . . . ?
C2 C3 C4 Se1 39(2) . . . . ?
C3 O1 C5 O2 10(3) . . . . ?
C3 O1 C5 C6 -174(2) . . . . ?
O2 C5 C6 C11 4(4) . . . . ?
O1 C5 C6 C11 -172(2) . . . . ?
O2 C5 C6 C7 -160(2) . . . . ?
O1 C5 C6 C7 25(3) . . . . ?
C11 C6 C7 C8 9(3) . . . . ?
C5 C6 C7 C8 173(2) . . . . ?
C6 C7 C8 C9 -9(3) . . . . ?
C7 C8 C9 C10 6(3) . . . . ?
C8 C9 C10 C11 -3(3) . . . . ?
C9 C10 C11 C6 3(3) . . . . ?
C5 C6 C11 C10 -169(2) . . . . ?
C7 C6 C11 C10 -6(3) . . . . ?
C2 O23 C12 O9 -5(4) . . . . ?
C2 O23 C12 C13 179(2) . . . . ?
O9 C12 C13 C18 -6(3) . . . . ?
O23 C12 C13 C18 170(2) . . . . ?
O9 C12 C13 C14 170(2) . . . . ?
O23 C12 C13 C14 -14(3) . . . . ?
C18 C13 C14 C15 -2(3) . . . . ?
C12 C13 C14 C15 -178.2(19) . . . . ?
C13 C14 C15 C16 -3(3) . . . . ?
C14 C15 C16 C17 8(3) . . . . ?
C15 C16 C17 C18 -9(3) . . . . ?
C14 C13 C18 C17 1(3) . . . . ?
C12 C13 C18 C17 177(2) . . . . ?
C16 C17 C18 C13 4(3) . . . . ?
