#------------------------------------------------------------------------------
#$Date: 2021-05-03 22:56:35 +0300 (Mon, 03 May 2021) $
#$Revision: 264799 $
#$URL: file:///home/coder/svn-repositories/cod/cif/4/51/86/4518682.cif $
#------------------------------------------------------------------------------
#
# This file is available in the Crystallography Open Database (COD),
# http://www.crystallography.net/
#
# All data on this site have been placed in the public domain by the
# contributors.
#
data_4518682
loop_
_publ_author_name
'Liu, Ming-li'
'Shi, Quan'
'Liu, Lei-fang'
'Li, Wen-bo'
_publ_section_title
;
 Lanthanide-Aromatic Iminodiacetate Frameworks with Helical Tubes:
 Structure, Properties, and Low-Temperature Heat Capacity
;
_journal_issue                   15
_journal_name_full               'ACS Omega'
_journal_page_first              10475
_journal_page_last               10485
_journal_paper_doi               10.1021/acsomega.1c01052
_journal_volume                  6
_journal_year                    2021
_chemical_absolute_configuration unk
_chemical_formula_sum            'C12 H14 Gd N O8'
_chemical_formula_weight         457.49
_space_group_crystal_system      monoclinic
_space_group_IT_number           4
_space_group_name_Hall           'P 2yb'
_space_group_name_H-M_alt        'P 1 21 1'
_atom_sites_solution_hydrogens   mixed
_audit_creation_method           SHELXL-2018/3
_cell_angle_alpha                90
_cell_angle_beta                 110.656(2)
_cell_angle_gamma                90
_cell_formula_units_Z            2
_cell_length_a                   5.9855(7)
_cell_length_b                   22.116(3)
_cell_length_c                   6.1152(7)
_cell_measurement_reflns_used    764
_cell_measurement_temperature    273(2)
_cell_measurement_theta_max      20.03
_cell_measurement_theta_min      3.68
_cell_volume                     757.46(16)
_computing_cell_refinement       'Bruker SMART'
_computing_data_collection       'Bruker SMART'
_computing_data_reduction        'Bruker SAINT'
_computing_molecular_graphics    'Bruker SHELXTL'
_computing_publication_material  'Bruker SHELXTL'
_computing_structure_refinement  'SHELXL-2018/3 (Sheldrick, 2018)'
_computing_structure_solution    'Bruker SHELXTL'
_diffrn_ambient_temperature      273(2)
_diffrn_measured_fraction_theta_full 1.000
_diffrn_measured_fraction_theta_max 1.000
_diffrn_measurement_device_type  'CCD area detector'
_diffrn_measurement_method       'phi and omega scans'
_diffrn_radiation_type           MoK\a
_diffrn_radiation_wavelength     0.71073
_diffrn_reflns_av_R_equivalents  0.0534
_diffrn_reflns_av_unetI/netI     0.0881
_diffrn_reflns_Laue_measured_fraction_full 1.000
_diffrn_reflns_Laue_measured_fraction_max 1.000
_diffrn_reflns_limit_h_max       7
_diffrn_reflns_limit_h_min       -6
_diffrn_reflns_limit_k_max       26
_diffrn_reflns_limit_k_min       -26
_diffrn_reflns_limit_l_max       7
_diffrn_reflns_limit_l_min       -7
_diffrn_reflns_number            4411
_diffrn_reflns_point_group_measured_fraction_full 0.979
_diffrn_reflns_point_group_measured_fraction_max 0.979
_diffrn_reflns_theta_full        25.019
_diffrn_reflns_theta_max         25.019
_diffrn_reflns_theta_min         1.842
_exptl_absorpt_coefficient_mu    4.416
_exptl_absorpt_correction_T_max  0.3512
_exptl_absorpt_correction_T_min  0.3071
_exptl_absorpt_correction_type   multi-scan
_exptl_absorpt_process_details   sadabs
_exptl_crystal_colour            colorless
_exptl_crystal_density_diffrn    2.006
_exptl_crystal_description       rectangle
_exptl_crystal_F_000             442
_exptl_crystal_size_max          0.350
_exptl_crystal_size_mid          0.320
_exptl_crystal_size_min          0.300
_refine_diff_density_max         1.684
_refine_diff_density_min         -1.575
_refine_diff_density_rms         0.270
_refine_ls_abs_structure_details
; 
 Refined as an inversion twin. 
;
_refine_ls_abs_structure_Flack   0.48(6)
_refine_ls_extinction_method     none
_refine_ls_goodness_of_fit_ref   1.010
_refine_ls_hydrogen_treatment    constr
_refine_ls_matrix_type           full
_refine_ls_number_parameters     189
_refine_ls_number_reflns         2614
_refine_ls_number_restraints     486
_refine_ls_restrained_S_all      0.950
_refine_ls_R_factor_all          0.0691
_refine_ls_R_factor_gt           0.0506
_refine_ls_shift/su_max          0.009
_refine_ls_shift/su_mean         0.000
_refine_ls_structure_factor_coef Fsqd
_refine_ls_weighting_details
'w=1/[\s^2^(Fo^2^)+(0.0435P)^2^+19.0242P] where P=(Fo^2^+2Fc^2^)/3'
_refine_ls_weighting_scheme      calc
_refine_ls_wR_factor_gt          0.1167
_refine_ls_wR_factor_ref         0.1350
_reflns_Friedel_coverage         0.902
_reflns_Friedel_fraction_full    0.956
_reflns_Friedel_fraction_max     0.956
_reflns_number_gt                2178
_reflns_number_total             2614
_reflns_threshold_expression     'I > 2\s(I)'
_cod_data_source_file            5cif.cif
_cod_data_source_block           2_sq
_cod_original_cell_volume        757.46(15)
_cod_original_sg_symbol_H-M      'P 21'
_cod_database_code               4518682
_shelx_shelxl_version_number     2018/3
_shelx_space_group_comment
; 
The symmetry employed for this shelxl refinement is uniquely defined 
by the following loop, which should always be used as a source of 
symmetry information in preference to the above space-group names. 
They are only intended as comments. 
;
_shelx_estimated_absorpt_t_min   0.307
_shelx_estimated_absorpt_t_max   0.351
_shelx_res_file
; 
TITL 2 in P2(1) 
    2_sq.res 
    created by SHELXL-2018/3 at 17:36:36 on 18-Nov-2020 
CELL 0.71073   5.9855  22.1160   6.1152  90.000 110.656  90.000 
ZERR    2.00   0.0007   0.0025   0.0007   0.000   0.002   0.000 
LATT -1 
SYMM -X, 0.5+Y, -Z 
SFAC C  H  N  O  Gd 
UNIT 24 28 2 16 2 
OMIT  -1.00  52.00 
L.S. 88 0   13 
ACTA 
BOND $h 
FMAP 2 
PLAN 10 
CONF 
htab 
HTAB C8 O6_$6 
HTAB C8 O3 
HTAB O8 O4_$5 
HTAB O8 O3_$5 
EQIV $5 x, y, z-1 
HTAB O7 O5_$6 
EQIV $6 x-1, y, z 
HTAB O7 O2_$7 
EQIV $7 -x, y+1/2, -z 
size 0.35 0.32 0.30 
DFIX 1.50 0.01 c9 c10 c11 c12 c1 c2 
DFIX 1.47 0.01 n1 c9 n1 c11 
SIMU 0.02 0.04 3.8 
TWIN 
FREE Gd1  H7D 
FREE Gd1  C9 
FREE Gd1  C10 
ABIN 
TEMP 0.000 
WGHT    0.043500   19.024200 
BASF   0.47780 
FVAR       0.58917 
GD1   5    0.178426    0.539025    0.157031    11.00000    0.01362    0.01286 = 
         0.01087   -0.00048    0.00598    0.00015 
N1    3    0.370761    0.433168    0.349390    11.00000    0.02846    0.01597 = 
         0.02629    0.00453    0.01942    0.00499 
O1    4    0.633002    0.136560    0.824818    11.00000    0.04696    0.02936 = 
         0.02414    0.00461    0.01146   -0.00672 
O2    4    0.579059    0.103212    0.469775    11.00000    0.05276    0.03732 = 
         0.02877   -0.00546   -0.00391    0.00928 
O3    4    0.081788    0.507315    0.485678    11.00000    0.02002    0.02535 = 
         0.01908    0.00887    0.00491    0.01086 
O4    4    0.219048    0.473709    0.844631    11.00000    0.03836    0.01920 = 
         0.01978    0.00101    0.01243    0.00672 
O5    4    0.593085    0.552498    0.225567    11.00000    0.02821    0.04620 = 
         0.02981   -0.00212    0.01576    0.00782 
O6    4    0.892287    0.467511    0.209942    11.00000    0.02535    0.02378 = 
         0.05020   -0.00245    0.02957    0.00089 
O7    4   -0.200915    0.590060   -0.008477    11.00000    0.02863    0.04530 = 
         0.01281    0.00171    0.00125   -0.00287 
AFIX   3 
H7C   2   -0.307304    0.594019   -0.143197    11.00000   -1.20000 
H7D   2   -0.267594    0.576889    0.083853    11.00000   -1.20000 
AFIX   0 
O8    4   -0.006361    0.589526   -0.222543    11.00000    0.06291    0.02641 = 
         0.01902    0.00182    0.01706   -0.00429 
AFIX   3 
H8D   2   -0.008301    0.564637   -0.328923    11.00000   -1.20000 
H8E   2    0.087559    0.618036   -0.225723    11.00000   -1.20000 
AFIX   9 
C1    1    0.446282    0.202770    0.514814    11.00000    0.03789    0.03058 = 
         0.03111   -0.00073    0.01058   -0.00156 
C2    1    0.382153    0.243135    0.663921    11.00000    0.04426    0.02869 = 
         0.02326   -0.00236    0.01828    0.00389 
AFIX  43 
H2    2    0.397785    0.230828    0.814033    11.00000   -1.20000 
AFIX   5 
C3    1    0.295322    0.301475    0.587368    11.00000    0.03550    0.03205 = 
         0.02876   -0.00408    0.01234    0.00667 
AFIX  43 
H3    2    0.250530    0.326630    0.686660    11.00000   -1.20000 
AFIX   5 
C4    1    0.274696    0.322671    0.363045    11.00000    0.03804    0.02727 = 
         0.02746   -0.00196    0.00473    0.00464 
C5    1    0.325770    0.279539    0.207597    11.00000    0.05132    0.03030 = 
         0.03461   -0.00301    0.01197   -0.00018 
AFIX  43 
H5    2    0.292611    0.289749    0.051778    11.00000   -1.20000 
AFIX   5 
C6    1    0.425734    0.221937    0.290296    11.00000    0.04543    0.02746 = 
         0.03023   -0.00152    0.01189    0.00865 
AFIX  43 
H6    2    0.477455    0.197000    0.195233    11.00000   -1.20000 
AFIX   0 
C7    1    0.568681    0.144262    0.620662    11.00000    0.05101    0.01911 = 
         0.02569   -0.00456    0.01695    0.00118 
C8    1    0.190659    0.386272    0.272277    11.00000    0.03210    0.02255 = 
         0.03592   -0.00771    0.00054    0.00760 
AFIX  23 
H8A   2    0.130785    0.385249    0.102809    11.00000   -1.20000 
H8B   2    0.058351    0.397169    0.321060    11.00000   -1.20000 
AFIX   0 
C9    1    0.439516    0.448666    0.597381    11.00000    0.02138    0.03118 = 
         0.03053   -0.00943    0.00306    0.01388 
AFIX  23 
H9A   2    0.573345    0.476475    0.638852    11.00000   -1.20000 
H9B   2    0.492358    0.412273    0.689754    11.00000   -1.20000 
AFIX   0 
C10   1    0.239584    0.477147    0.659387    11.00000    0.03920    0.01491 = 
         0.01478   -0.00644    0.00423   -0.00034 
C11   1    0.579928    0.417873    0.292045    11.00000    0.02548    0.02372 = 
         0.02436   -0.00651    0.01223    0.00798 
AFIX  23 
H11A  2    0.533287    0.391165    0.157593    11.00000   -1.20000 
H11B  2    0.693970    0.396507    0.422417    11.00000   -1.20000 
AFIX   0 
C12   1    0.696187    0.473514    0.238766    11.00000    0.02616    0.01759 = 
         0.03432   -0.00433    0.01398    0.00728 
HKLF 4 
  
  
  
  
REM  2 in P2(1) 
REM wR2 = 0.1350, GooF = S = 1.010, Restrained GooF = 0.950 for all data 
REM R1 = 0.0506 for 2178 Fo > 4sig(Fo) and 0.0691 for all 2614 data 
REM 189 parameters refined using 486 restraints 
  
END 
  
WGHT      0.0232     14.3954 
  
REM Instructions for potential hydrogen bonds 
HTAB O7 O2_$7 
HTAB O7 O5_$6 
HTAB O8 O3_$5 
HTAB O8 O4_$5 
HTAB C8 O3 
HTAB C8 O6_$6 
  
REM Highest difference peak  1.684,  deepest hole -1.575,  1-sigma level  0.270 
Q1    1   0.8133  0.4790  0.0012  11.00000  0.05    1.68 
Q2    1   0.5450  0.5137  0.2015  11.00000  0.05    1.68 
Q3    1  -0.1112  0.6121  0.2280  11.00000  0.05    1.68 
Q4    1   0.4631  0.4776  0.5278  11.00000  0.05    1.62 
Q5    1   0.4519  0.1548  0.7217  11.00000  0.05    1.41 
Q6    1   0.1112  0.5675  0.4928  11.00000  0.05    1.41 
Q7    1   0.2035  0.5998 -0.3876  11.00000  0.05    1.40 
Q8    1   0.5426  0.0387  0.4617  11.00000  0.05    1.40 
Q9    1   0.5856  0.1422  0.3953  11.00000  0.05    1.39 
Q10   1   0.0357  0.4907  0.7832  11.00000  0.05    1.36 
;
_shelx_res_checksum              67860
_shelx_hkl_file
; 
   1   0   0  79.492  13.699 
   1   0   0  60.994  15.198 
   2   0   0  926.91   56.29 
   2   0   0  941.51   48.00 
   3   0   0 2195.88  103.49 
   3   0   0 2230.08   90.89 
   4   0   0  268.77   45.70 
   4   0   0  156.18   46.20 
   5   0   0 1169.08   88.59 
   5   0   0 1124.09  117.29 
   6   0   0  567.84   95.99 
   0  -1   0  -17.30    2.50 
   0  -1   0  -15.50    0.70 
   0   1   0  -13.10    2.10 
   0   1   0  -15.30    0.80 
   1  -1   0 5572.84  123.69 
   1  -1   0 5677.93  125.19 
   1   1   0 5586.84  126.19 
   2  -1   0 2465.75   85.49 
   2  -1   0 2399.26   89.79 
   2   1   0 2386.76   80.29 
   2   1   0 2269.07   89.49 
   3  -1   0  164.68   39.00 
   3  -1   0  159.68   33.20 
   3   1   0  96.590  32.097 
   3   1   0  159.88   30.60 
   4  -1   0 1604.84  103.49 
   4  -1   0 1825.22   97.59 
   4   1   0 1885.31   94.79 
   4   1   0 1782.42  108.69 
   5  -1   0  440.46   68.89 
   5  -1   0  336.67   67.59 
   5   1   0  440.56   64.89 
   5   1   0  365.26   71.69 
   6  -1   0  208.08   67.09 
   6   1   0  260.87   69.19 
   0  -2   0 9662.73  176.78 
   0  -2   0 9618.14  185.58 
   0   2   0 9999.00  176.78 
   0   2   0 9840.72  172.08 
   1  -2   0 1415.66   49.90 
   1  -2   0 1356.06   52.59 
   1   2   0 1454.95   53.59 
   2  -2   0 1168.98   59.39 
   2  -2   0 1122.69   62.09 
   2   2   0 1126.39   63.29 
   2   2   0 1118.29   52.49 
   3  -2   0 3239.48  121.09 
   3  -2   0 3062.89  123.49 
   3   2   0 3352.66  130.69 
   3   2   0 3570.54  115.99 
   4  -2   0  158.68   40.60 
   4  -2   0  204.68   51.69 
   4   2   0  127.69   33.00 
   4   2   0  90.491  38.696 
   5  -2   0  988.20  108.99 
   5  -2   0  868.11   94.69 
   5   2   0  996.30   94.39 
   5   2   0 1000.30  112.69 
   6  -2   0  531.25   92.49 
   6   2   0  434.36   87.19 
   0  -3   0  -3.600   9.999 
   0  -3   0  2.5997  5.9994 
   0   3   0 -0.2000  5.8994 
   0   3   0  10.699   7.299 
   1  -3   0 3122.39   83.39 
  -1  -3   0 2906.11   95.29 
   1  -3   0 3119.69   92.59 
   1   3   0 3185.38   89.49 
   2  -3   0 2148.49   85.29 
   2  -3   0 2217.18   84.59 
   2   3   0 2057.49   88.29 
   3  -3   0  40.896  22.898 
   3  -3   0  24.298  22.198 
   3   3   0   6.799  22.698 
   3   3   0  37.696  18.798 
   4  -3   0 1764.42  100.49 
   4  -3   0 1776.72  105.99 
   4   3   0 1450.25  100.89 
   4   3   0 1657.43   86.99 
   5  -3   0  336.57   67.89 
   5  -3   0  411.16   67.49 
   5   3   0  373.76   77.29 
   5   3   0  330.07   56.29 
   6  -3   0  75.292  52.195 
   6   3   0  112.39   52.99 
   0  -4   0 4939.31  119.59 
   0  -4   0 4728.53  102.79 
   0   4   0 4755.02  105.49 
   1  -4   0 2523.75   86.99 
  -1  -4   0 2342.37   86.29 
   1  -4   0 2363.86   72.39 
   1   4   0 2366.96   77.99 
   2  -4   0 2146.99   82.39 
   2  -4   0 2074.39   88.09 
   2   4   0 1990.30   86.59 
   3  -4   0 1812.42   94.59 
   3  -4   0 2051.29   99.59 
   3   4   0 2058.59  103.39 
   3   4   0 2019.80   85.49 
   4  -4   0  46.295  31.397 
   4  -4   0  -1.600  24.798 
   4   4   0  56.794  36.396 
   4   4   0  35.496  22.698 
   5  -4   0  762.62   89.29 
   5  -4   0  557.44   85.99 
   5   4   0  575.44   69.09 
   5   4   0  483.05   81.49 
   6  -4   0  625.84   97.59 
   6   4   0  563.34   96.39 
   0  -5   0   5.799  20.898 
   0  -5   0   9.899  10.799 
   0   5   0   5.499  11.699 
   1  -5   0 1830.32   65.69 
  -1  -5   0 1852.71   77.29 
   1  -5   0 1962.10   80.49 
   1   5   0 1796.02   70.79 
   2  -5   0 6357.06  178.38 
   2  -5   0 6112.59  163.48 
   2   5   0 6135.59  170.68 
   3  -5   0  808.62   75.99 
   3  -5   0  771.32   77.79 
   3   5   0  686.83   77.19 
   4  -5   0  936.51   92.79 
   4  -5   0  969.70   95.19 
   4   5   0 1053.69  108.39 
   4   5   0 1124.39   71.79 
   5  -5   0  424.86   72.89 
   5  -5   0  519.05   80.79 
   5   5   0  513.35   88.89 
   5   5   0  603.14   73.49 
   6  -5   0  61.794  49.595 
   6   5   0  21.898  43.496 
   0  -6   0 1133.09   45.30 
   0  -6   0 1146.29   62.59 
   0   6   0 1102.69   48.90 
   1  -6   0 1314.17   72.09 
  -1  -6   0 1343.77   63.69 
  -1  -6   0 1312.57   66.69 
   1  -6   0 1377.96   58.59 
   1   6   0 1295.87   61.49 
   2  -6   0  338.77   47.30 
   2  -6   0  403.16   46.80 
   2   6   0  388.86   49.40 
   3  -6   0 2995.20  120.99 
   3  -6   0 3017.20  130.79 
   3   6   0 2903.71  129.29 
   4  -6   0  125.09   38.00 
   4  -6   0  99.690  41.096 
   4   6   0  137.19   35.80 
   4   6   0  146.69   46.80 
   5  -6   0  791.92  101.79 
   5  -6   0  888.11  105.29 
   5   6   0  804.12   82.59 
   5   6   0  958.50  116.79 
   6  -6   0  618.54  100.99 
   6   6   0  609.04  103.79 
   0  -7   0  -11.20   20.70 
   0  -7   0  -10.30   11.60 
   0   7   0  -23.60   10.80 
  -1  -7   0 2379.26   91.59 
  -1  -7   0 2515.75   97.09 
   1  -7   0 2522.05   84.69 
   1  -7   0 2518.65  102.89 
   1   7   0 2482.85   91.69 
   2  -7   0 4134.39  150.48 
   2  -7   0 3910.61  124.39 
   2   7   0 3930.11  137.09 
   3  -7   0  120.99   33.70 
   3  -7   0  95.790  37.296 
   3   7   0  92.191  33.897 
   4  -7   0 1189.18  108.19 
   4  -7   0 1240.38  115.49 
   4   7   0 1146.59  113.59 
   4   7   0 1084.59   73.79 
   5  -7   0 1271.07  129.79 
   5  -7   0  956.30  110.79 
   5   7   0  773.52  105.09 
   6  -7   0  162.18   60.29 
   6   7   0  215.98   70.49 
   0  -8   0 1024.80   48.90 
   0  -8   0  964.10   62.59 
   0   8   0 1181.68   56.09 
   1  -8   0  45.495  29.497 
   1  -8   0  70.593  22.598 
  -1  -8   0  63.594  26.197 
  -1  -8   0  59.394  25.497 
   1   8   0  49.895  21.098 
   2  -8   0 1055.09   64.09 
   2  -8   0 1087.49   79.69 
   2   8   0 1054.99   69.49 
   3  -8   0 1698.63  107.59 
   3  -8   0 1641.04   91.59 
   3   8   0 1614.74   97.79 
   4  -8   0  290.87   61.39 
   4  -8   0  204.08   58.39 
   4   8   0  228.58   59.29 
   5  -8   0  547.35   87.29 
   5  -8   0  887.11  111.09 
   5   8   0  560.94   93.19 
   6  -8   0  573.04  116.39 
   6  -8   0  754.42  108.59 
   6   8   0  633.64  108.69 
   0  -9   0  -15.60   11.70 
   0  -9   0   5.299  20.798 
   0   9   0  -6.199  10.599 
   1  -9   0 3621.74  114.19 
   1  -9   0 3756.62   89.79 
  -1  -9   0 3578.94  125.79 
  -1  -9   0 3540.85  125.59 
   1  -9   0 3612.94  138.29 
   1   9   0 3856.51  124.89 
   2  -9   0 1123.09   67.09 
   2  -9   0 1126.89   83.49 
   2   9   0 1166.98   74.89 
   3  -9   0  126.19   48.90 
   3  -9   0  102.69   36.50 
   3   9   0  77.192  31.997 
   4  -9   0 1117.29  117.99 
   4  -9   0 1284.37   96.19 
   4   9   0 1005.10  109.99 
   5  -9   0  501.75   82.79 
   5  -9   0  671.63  103.59 
   5   9   0  381.46   78.99 
   6  -9   0  42.996  55.694 
   6  -9   0  58.494  46.395 
   6   9   0  48.695  53.095 
   0 -10   0 2128.69   99.49 
   0 -10   0 2255.47   79.29 
   0  10   0 2049.20   85.29 
   1 -10   0  20.998  11.699 
  -1 -10   0  28.197  24.798 
   1 -10   0  36.396  21.798 
   1 -10   0   5.099  25.197 
  -1 -10   0  17.798  21.498 
   1  10   0  22.898  18.798 
   2 -10   0  408.16   51.59 
   2 -10   0  551.64   75.69 
   2  10   0  493.65   62.59 
   3 -10   0 1408.66   88.09 
   3 -10   0 1369.66  102.89 
   3  10   0 1456.85   96.19 
   4 -10   0  307.47   71.59 
   4 -10   0  480.95   74.39 
   4  10   0  336.57   67.59 
   5 -10   0  779.02  109.89 
   5 -10   0  778.72   99.69 
   5  10   0  589.84   92.89 
   6 -10   0  525.45  102.69 
   6 -10   0  408.06   83.99 
   6  10   0  457.05  100.09 
   0 -11   0   4.900  14.699 
   0 -11   0  -1.200  21.998 
   0  11   0   4.800  15.098 
   1 -11   0 2428.26   72.19 
   1 -11   0 2416.06   97.39 
  -1 -11   0 2267.67  106.89 
   1 -11   0 2436.46  119.39 
  -1 -11   0 2352.96  105.69 
   1  11   0 2408.06  102.99 
   2 -11   0 1086.29   70.29 
   2 -11   0 1205.08   93.29 
   2  11   0 1021.00   74.69 
   3 -11   0  97.790  37.296 
   3 -11   0  66.793  38.896 
   3  11   0  111.29   38.00 
   4 -11   0 1801.32  112.69 
   4 -11   0 1660.43  129.09 
   4  11   0 1682.43  120.19 
   5 -11   0  569.54   90.09 
   5 -11   0  529.35   97.29 
   5  11   0  616.54  101.19 
   6 -11   0  97.890  58.294 
   6 -11   0  142.89   68.59 
   6  11   0  123.19   60.99 
   0 -12   0 3352.36  110.09 
   0 -12   0 3236.48  136.49 
   0  12   0 3387.46  120.69 
   1 -12   0  265.77   28.40 
   1 -12   0  179.98   36.80 
  -1 -12   0  210.38   45.80 
  -1 -12   0  247.38   45.50 
   1 -12   0  197.38   47.70 
   1  12   0  204.28   39.70 
   2 -12   0  996.30  100.59 
   2 -12   0 1033.90   70.69 
   2  12   0 1139.99   79.69 
   3 -12   0 1951.70  132.89 
   3 -12   0 1861.41  105.89 
   3  12   0 1920.71  116.59 
   4 -12   0  179.68   62.09 
   4 -12   0  94.191  42.996 
   4  12   0  181.98   55.39 
   5 -12   0  335.57   80.39 
   5 -12   0  702.33   98.59 
   5  12   0  563.34   96.79 
   0 -13   0  27.097  19.998 
   0 -13   0  -32.20   27.70 
   0  13   0   8.899  15.498 
   1 -13   0 2440.46  131.19 
   1 -13   0 2464.35  106.29 
  -1 -13   0 2625.64  123.69 
  -1 -13   0 2492.55  112.69 
   1 -13   0 2480.95   79.19 
  -1  13   0 2366.86  103.29 
   1  13   0 2230.58  106.59 
   2 -13   0 1255.67   80.49 
   2 -13   0 1371.06   53.89 
   2 -13   0 1419.26  108.99 
   2  13   0 1214.78   87.19 
   3 -13   0  243.58   65.39 
   3 -13   0  359.46   61.69 
   3  13   0  277.47   59.79 
   4 -13   0 1820.22  142.89 
   4 -13   0 1710.23  113.39 
   4  13   0 1963.60  132.39 
   5 -13   0  359.96   78.69 
   5 -13   0  225.48   77.09 
   5  13   0  191.68   63.79 
   0 -14   0 2351.96   96.89 
   0 -14   0 2239.78  123.99 
   0  14   0 2154.18  100.49 
  -1 -14   0  825.72   80.69 
   1 -14   0  601.74   40.70 
   1 -14   0  717.53   92.09 
  -1 -14   0  588.14   73.19 
  -1  14   0  589.24   64.79 
   1  14   0  618.04   68.69 
   2 -14   0 1428.06   57.79 
   2 -14   0 1311.77   84.59 
   2 -14   0 1463.15  116.09 
   2  14   0 1388.86   95.19 
   3 -14   0 1846.42  107.79 
   3 -14   0 2096.79  146.39 
   3  14   0 1905.41  125.09 
   4 -14   0  55.094  38.496 
   4 -14   0  -9.399  42.396 
   4  14   0  -47.20   27.60 
   5 -14   0  497.95  105.09 
   5 -14   0  505.55   86.19 
   5  14   0  292.57   76.79 
   0 -15   0  -9.499  18.798 
   0 -15   0  35.596  35.896 
   0  15   0  18.098  18.598 
   1 -15   0 1040.50   53.09 
  -1 -15   0 1115.09  110.29 
   1 -15   0  993.20  111.09 
  -1 -15   0 1048.40   93.79 
   1  15   0  896.11   87.99 
  -1  15   0  910.91   67.79 
   2 -15   0 1174.18  120.89 
   2 -15   0 1228.18   85.89 
   2  15   0 1244.78  114.29 
   3 -15   0  316.97   57.99 
   3 -15   0  349.47   79.69 
   3  15   0  317.87   65.09 
   4 -15   0 1336.87  147.29 
   4 -15   0 1411.86  105.49 
   4  15   0 1372.56  140.99 
   5 -15   0  195.28   74.99 
   5 -15   0  199.58   63.79 
   5  15   0  134.29   58.59 
   0 -16   0 2431.86  104.29 
   0 -16   0 2721.03  145.59 
   0  16   0 2372.86  114.69 
   1 -16   0  318.47   38.30 
   1 -16   0  383.66   75.29 
  -1 -16   0  420.46   73.19 
  -1 -16   0  354.06   64.19 
  -1  16   0  343.17   55.49 
   1  16   0  356.86   56.99 
   2 -16   0 1009.80   95.09 
   2 -16   0  923.01  116.19 
   2  16   0  801.62   91.29 
   3 -16   0 1271.57  137.39 
   3 -16   0 1367.16   96.69 
   3  16   0 1435.66  110.49 
   4 -16   0  17.298  49.095 
   4 -16   0  -20.80   31.30 
   4  16   0  -16.90   27.70 
   5 -16   0  528.55  107.79 
   5 -16   0  509.25   91.89 
   5  16   0  564.54  108.59 
   0 -17   0   8.999  24.398 
   0 -17   0  50.195  46.095 
   0  17   0  35.696  29.297 
  -1 -17   0 1221.28  123.19 
   1 -17   0 1149.48  124.29 
  -1 -17   0 1144.99   91.29 
   1  17   0 1204.08   90.09 
  -1  17   0 1178.78   82.59 
   2 -17   0  746.13  104.79 
   2 -17   0  811.22   87.39 
   2  17   0  990.20  103.89 
   3 -17   0  118.69   60.09 
   3 -17   0  146.29   45.10 
   3  17   0  173.68   50.79 
   4 -17   0 1054.39  137.29 
   4 -17   0  836.62  100.89 
   4  17   0  979.20  121.99 
   5 -17   0  368.76   97.79 
   5  17   0  234.98   78.49 
   0 -18   0 2602.84  154.88 
   0 -18   0 2469.85  111.59 
   0  18   0 2453.65  123.89 
   1 -18   0  211.88   69.39 
  -1 -18   0  142.29   56.79 
   1  18   0  227.68   52.79 
  -1  18   0  198.18   45.90 
   2 -18   0  558.34  100.19 
   2 -18   0  638.24   79.99 
   2  18   0  826.42  101.69 
   3 -18   0 1104.79  111.89 
   3 -18   0 1273.37  146.99 
   3  18   0 1044.90  119.39 
   4 -18   0  40.996  44.196 
   4 -18   0   7.199  55.594 
   4  18   0  34.797  34.097 
   0 -19   0  21.998  45.295 
   0  19   0   2.800  25.097 
  -1 -19   0 1541.15  146.49 
   1 -19   0 1806.32  132.49 
   1  19   0 1644.24  110.59 
  -1  19   0 1511.65   99.49 
   2 -19   0  589.64  103.09 
  -2  19   0  451.45   68.89 
   2  19   0  385.76   69.99 
   3 -19   0  46.395  39.296 
   3 -19   0  -16.50   46.70 
   3  19   0  -5.399  28.097 
   4 -19   0  715.43   97.39 
   4 -19   0  692.53  122.09 
   4  19   0 1075.79  136.69 
   0 -20   0 1521.75  151.98 
   0  20   0 1630.94  109.39 
   1 -20   0  109.69   58.99 
  -1 -20   0  187.38   62.99 
   1  20   0  270.97   60.29 
  -1  20   0  224.78   51.79 
   2 -20   0  546.15  102.39 
   2  20   0  488.15   80.19 
  -2  20   0  485.85   74.39 
   3 -20   0  715.93  117.89 
   3 -20   0  836.72  103.29 
   3  20   0  680.63   99.39 
   4 -20   0  26.597  56.394 
   4  20   0  38.896  44.396 
   0 -21   0  13.799  38.796 
   0  21   0  27.797  28.297 
   1 -21   0  917.81  123.69 
  -1 -21   0 1240.48  141.19 
  -1  21   0 1071.79  108.49 
   1  21   0  904.71  104.49 
   2 -21   0  560.44  105.89 
   2  21   0  592.24   93.09 
  -2  21   0  368.56   68.99 
   3 -21   0  -9.199  49.195 
   3 -21   0  -59.39   29.10 
   3  21   0  32.397  40.096 
   4 -21   0  815.22  140.09 
   4  21   0  672.43  116.69 
   0 -22   0  525.75   98.79 
   0  22   0  550.94   85.99 
  -1 -22   0  210.68   67.99 
   1 -22   0  254.27   70.79 
   1  22   0  241.88   63.69 
  -1  22   0  376.66   67.89 
   2 -22   0  305.67   84.19 
  -2  22   0  320.47   65.19 
   2  22   0  205.08   62.09 
   3 -22   0  709.43  122.59 
   3  22   0  495.25   91.29 
   0 -23   0   0.600  43.096 
   0  23   0  -32.30   27.20 
  -1 -23   0  572.24  103.49 
   1 -23   0  616.64  109.39 
  -1  23   0  625.54   90.49 
   1  23   0  701.13  100.59 
   2 -23   0  514.85  107.69 
   2  23   0  569.44   91.49 
  -2  23   0  402.06   70.19 
   3 -23   0   6.599  63.494 
   3  23   0  53.195  46.395 
   0 -24   0  451.55   99.49 
   0  24   0  619.34   92.89 
   1 -24   0  197.68   72.59 
  -1 -24   0  184.28   71.39 
   1  24   0  309.47   72.89 
  -1  24   0  283.37   66.29 
   2 -24   0  140.19   69.89 
  -2  24   0  214.68   62.49 
   2  24   0  141.69   54.49 
   0 -25   0  26.297  51.695 
   0  25   0  44.196  40.196 
   1 -25   0  418.26  103.59 
  -1 -25   0  348.07   91.29 
   1  25   0  389.66   77.79 
  -1  25   0  505.55   83.79 
   2 -25   0  351.46   92.29 
   2  25   0  557.24   96.09 
   0 -26   0  534.85  115.59 
   0  26   0  615.14   94.09 
   1 -26   0  243.28   86.79 
  -1 -26   0  287.87   88.69 
   1  26   0  240.68   68.99 
  -1  26   0  225.08   64.49 
   6   0  -1 1225.48  135.39 
   5   0  -1  -0.700  32.997 
   4   0  -1 1693.23  105.19 
   4   0  -1 1632.74   76.69 
   3   0  -1 2479.85   79.49 
  -3   0   1 2412.66  111.79 
   3   0  -1 2566.74  111.89 
   2   0  -1  66.293  14.099 
  -2   0   1  42.396  23.298 
   2   0  -1  33.297  21.198 
   1   0  -1 7927.91  166.28 
  -1   0   1 8154.18  150.38 
  -1   0   1 8181.18  174.28 
   0   0   1  190.98   23.00 
   0   0   1  186.28   14.30 
   1   0   1  15.698  12.699 
   1   0   1  10.899  16.398 
   2   0   1 4451.15  143.69 
   2   0   1 4431.16  131.79 
   3   0   1  209.48   41.60 
   3   0   1  309.57   51.39 
   4   0   1  849.42   92.49 
   4   0   1  847.02   89.09 
   5   0   1 1687.13  119.69 
   5   0   1 1871.21  127.29 
   6   0   1  30.797  46.895 
   6  -1  -1  117.89   57.99 
   6   1  -1  311.17   73.99 
   5  -1  -1 1469.55   88.79 
   5  -1  -1 1513.25  116.69 
   5   1  -1 1567.34  119.19 
   4  -1  -1  10.699  27.497 
   4  -1  -1  -8.199  18.298 
   4   1  -1  18.298  18.098 
   4   1  -1  47.695  35.296 
   3  -1  -1  735.93   73.19 
   3  -1  -1  683.13   43.00 
  -3  -1   1  735.83   75.09 
   3   1  -1  868.61   80.79 
   3   1  -1  608.04   36.80 
  -3   1   1  659.83   67.39 
   2  -1  -1 3089.79  106.59 
  -2  -1   1 3292.87  112.59 
   2  -1  -1 3123.49   82.09 
   2   1  -1 3162.78  107.99 
  -2   1   1 3187.28  105.79 
   2   1  -1 3214.18   68.29 
  -1  -1   1  160.68   10.50 
   1  -1  -1  148.99   16.90 
   1  -1  -1  99.890  20.498 
  -1  -1   1  120.19   20.60 
   1   1  -1  164.98   23.50 
  -1   1   1  125.99   19.00 
   0  -1   1 6152.98  108.19 
   0  -1   1 5913.31  136.89 
   0   1   1 6113.09  122.79 
   1  -1   1  541.85   42.70 
   1  -1   1  491.95   31.10 
   1   1   1  419.96   41.20 
   1   1   1  492.85   34.00 
   2  -1   1  103.39   26.10 
   2  -1   1  66.093  25.897 
   2   1   1  127.19   29.90 
   2   1   1  82.492  22.798 
   3  -1   1 2669.03  113.89 
   3  -1   1 2574.54  116.29 
   3   1   1 2320.17  109.29 
   3   1   1 2581.34  115.29 
   4  -1   1 1538.75  102.19 
   4  -1   1 1479.75  100.99 
   4   1   1 1351.76  100.19 
   4   1   1 1357.86   94.29 
   5  -1   1  67.893  39.396 
   5  -1   1   9.999  30.297 
   5   1   1  -0.500  30.797 
   5   1   1  65.993  44.896 
   6  -1   1  599.84   99.69 
   6   1   1  800.02  109.79 
   6  -2  -1  997.50  127.19 
   6   2  -1  861.61  116.09 
   5  -2  -1  42.096  43.296 
   5  -2  -1  15.198  29.297 
   5   2  -1  -20.90   30.40 
   4  -2  -1 1283.57   73.69 
   4  -2  -1 1212.78   93.09 
   4   2  -1 1306.87   94.69 
   4   2  -1 1397.16   64.59 
   3  -2  -1 1526.25   68.79 
   3  -2  -1 1628.64   90.09 
  -3  -2   1 1488.25   92.29 
   3   2  -1 1471.05   85.79 
   3   2  -1 1553.44   55.59 
   2  -2  -1  13.699  20.098 
  -2  -2   1  13.299  20.898 
   2  -2  -1  43.296  17.598 
  -2   2   1  86.591  23.098 
   2   2  -1  23.498   7.099 
   2   2  -1  28.897  21.098 
   1  -2  -1 2010.20   69.79 
  -1  -2   1 1983.60   48.70 
  -1  -2   1 2124.39   73.29 
   1  -2  -1 2032.60   60.89 
  -1   2   1 2000.50   58.59 
   1   2  -1 2075.29   48.60 
   1   2  -1 1962.60   64.69 
   0  -2   1 2184.58   68.59 
   0   2   1 2102.29   61.79 
   1  -2   1  305.77   38.00 
   1  -2   1  301.17   27.10 
   1   2   1  283.67   33.30 
   2  -2   1 5042.60  157.68 
   2  -2   1 5014.80  139.49 
   2   2   1 4943.31  155.08 
   2   2   1 5194.08  148.99 
   3  -2   1  347.07   53.49 
   3  -2   1  278.87   47.80 
   3   2   1  295.37   50.19 
   3   2   1  277.37   47.00 
   4  -2   1  926.61   96.49 
   4  -2   1 1011.00  100.29 
   4   2   1  973.50   99.69 
   4   2   1  937.91   96.19 
   5  -2   1 1300.17  130.19 
   5  -2   1 1448.76  111.49 
   5   2   1 1327.57  133.19 
   5   2   1 1452.75  106.79 
   6  -2   1  31.897  45.195 
   6  -2   1  -18.40   38.90 
   6   2   1  -5.899  42.796 
   6  -3  -1  344.17   83.29 
   6   3  -1  287.57   72.19 
   5  -3  -1 1438.26  131.99 
   5  -3  -1 1270.57   90.69 
   5   3  -1 1370.46  135.19 
   4  -3  -1  30.197  34.697 
   4  -3  -1  129.69   36.00 
   4   3  -1  112.69   24.90 
   4   3  -1  82.192  39.796 
   3  -3  -1  850.81   56.39 
   3  -3  -1  960.70   69.09 
  -3  -3   1 1053.69   81.19 
   3   3  -1  845.32   78.79 
   3   3  -1  921.11   41.00 
   2  -3  -1 2997.40   93.29 
  -2  -3   1 3088.29  115.49 
   2  -3  -1 3092.49  108.49 
   2   3  -1 3116.49  107.49 
  -2   3   1 3001.70   94.19 
  -1  -3   1  71.893  16.498 
  -1  -3   1  62.894  20.398 
   1  -3  -1  47.595  20.698 
   1  -3  -1  21.898  18.998 
   1   3  -1  47.295  15.898 
  -1   3   1  37.796  11.099 
   0  -3   1 2300.27   74.79 
   0   3   1 2166.28   68.19 
   1  -3   1 1950.20   57.59 
   1  -3   1 1794.92   79.39 
   1   3   1 1930.51   72.29 
   2  -3   1   9.199  15.298 
   2  -3   1  -12.20   14.90 
   2   3   1  36.196  19.398 
   2   3   1  -13.10   10.70 
   3  -3   1 2837.52  115.89 
   3  -3   1 2403.06  120.59 
   3   3   1 2678.53  121.99 
   3   3   1 2701.63  119.29 
   4  -3   1  673.53   84.29 
   4  -3   1 1058.59  103.69 
   4   3   1 1010.10   80.29 
   4   3   1 1160.68  112.79 
   5  -3   1  49.195  42.296 
   5  -3   1  70.993  40.796 
   5   3   1  83.192  44.496 
   5   3   1  40.196  33.097 
   6  -3   1  748.43  111.09 
   6  -3   1  545.85   96.49 
   6   3   1  502.95   94.19 
   6  -4  -1  618.84  100.19 
   6   4  -1  669.43  106.39 
   5  -4  -1  24.198  41.196 
   5  -4  -1  -8.799  30.497 
   5   4  -1  15.598  36.796 
   4  -4  -1 1630.74  103.29 
   4  -4  -1 1587.24   93.29 
   4   4  -1 1719.73   70.49 
   4   4  -1 1849.72  113.49 
   3  -4  -1 2148.99  104.49 
   3  -4  -1 2424.16   97.89 
  -3  -4   1 2659.03  126.19 
   3   4  -1 2364.16  110.29 
   3   4  -1 2467.75   74.09 
   2  -4  -1 1161.88   59.59 
   2  -4  -1 1106.59   64.79 
  -2  -4   1  975.50   66.09 
  -2   4   1 1137.79   50.69 
   2   4  -1 1102.19   61.99 
  -1  -4   1 1993.60   78.59 
   1  -4  -1 1941.31   73.99 
  -1  -4   1 1970.20   63.29 
   1  -4  -1 1949.60   74.59 
  -1   4   1 2007.20   50.69 
   1   4  -1 2148.89   68.59 
   0  -4   1 1569.54   65.69 
   0   4  -1 1662.33   38.20 
   0   4   1 1624.34   61.79 
   0   4  -1 1627.14   38.90 
   1  -4   1 1531.05   75.09 
   1  -4   1 1653.73   51.39 
   1   4   1 1568.04   69.49 
   2  -4   1 3498.95  132.29 
   2  -4   1 3398.86  107.29 
   2   4   1 3511.35  124.49 
   3  -4   1  232.58   47.30 
   3  -4   1  206.68   41.00 
   3   4   1  214.58   44.70 
   3   4   1  271.17   45.60 
   4  -4   1  698.63   92.29 
   4  -4   1  683.13   82.79 
   4   4   1  576.54   75.99 
   4   4   1  599.94   81.79 
   5  -4   1 1127.29  118.09 
   5  -4   1  795.32  100.89 
   5   4   1  824.32   96.69 
   5   4   1  959.80  112.99 
   6  -4   1  45.695  48.495 
   6  -4   1   1.900  38.196 
   6   4   1  -11.90   33.80 
   6  -5  -1  231.48   65.39 
   6   5  -1  295.77   75.09 
   5  -5  -1 1533.45  103.89 
   5  -5  -1 1539.05  116.99 
   5   5  -1 1562.34  118.59 
   4  -5  -1  889.91   85.19 
   4  -5  -1 1015.80  102.19 
   4   5  -1 1018.80  103.39 
   4   5  -1  889.21   51.59 
   3  -5  -1 2606.84  116.89 
  -3  -5   1 2493.85  127.89 
   3  -5  -1 2457.75  102.89 
   3   5  -1 2400.46  113.39 
  -2  -5   1 2717.73  111.09 
   2  -5  -1 2378.16   93.59 
   2  -5  -1 2534.45   98.29 
   2   5  -1 2442.46   98.19 
  -1  -5   1  38.896  19.998 
  -1  -5   1  18.798  17.098 
   1  -5  -1   9.499  20.498 
   1  -5  -1  29.397  18.898 
  -1   5   1  12.799   6.599 
   1   5  -1  27.997  14.998 
   0  -5   1 2147.49   82.59 
   0   5  -1 2280.47   54.49 
   1  -5   1 2877.51   74.99 
   1  -5   1 3040.00  112.09 
   1   5   1 2748.32   98.59 
   2  -5   1  293.47   36.30 
   2  -5   1  306.87   50.59 
   2   5   1  347.27   48.60 
   3  -5   1 1904.91   94.09 
   3  -5   1 1751.32  107.39 
   3   5   1 1874.51   98.29 
   3   5   1 1684.03   99.29 
   4  -5   1  906.41   99.89 
   4  -5   1  920.61   95.39 
   4   5   1  836.22   88.39 
   4   5   1 1125.49  113.89 
   5  -5   1  228.98   58.19 
   5  -5   1  231.28   63.29 
   5   5   1  272.47   67.59 
   5   5   1  169.78   49.20 
   6  -5   1  588.94   95.39 
   6  -5   1  575.84   98.99 
   6   5   1  583.54  106.39 
   6  -6  -1  451.45   93.29 
   6   6  -1  503.85   93.29 
   5  -6  -1  -1.300  31.997 
   5  -6  -1   6.399  33.297 
   5   6  -1   8.499  29.397 
   4  -6  -1 1851.81  114.39 
   4  -6  -1 1985.10  108.09 
   4   6  -1 1911.31   77.79 
   4   6  -1 1700.63  110.69 
   3  -6  -1 1380.26   81.29 
  -3  -6   1 1594.74  102.69 
   3  -6  -1 1667.83   91.99 
   3   6  -1 1573.84   90.29 
   2  -6  -1 1929.31   86.59 
   2  -6  -1 1865.41   85.59 
  -2  -6   1 2003.80   96.49 
   2   6  -1 1853.11   84.29 
   1  -6  -1 4099.79  126.19 
   1  -6  -1 4060.19  121.59 
  -1  -6   1 3866.41  124.39 
  -1  -6   1 4044.80  114.19 
   1   6  -1 4027.60  109.49 
   0  -6  -1 1660.93   77.39 
   0  -6   1 1556.04   73.89 
   0   6   1 1567.64   68.89 
   0   6  -1 1615.44   48.60 
   1  -6   1 2104.79   63.19 
   1  -6   1 2001.50   95.29 
   1   6   1 1984.80   84.39 
   2  -6   1 4178.08  123.59 
   2  -6   1 4390.06  159.68 
   2   6   1 4236.58  147.29 
   3  -6   1  71.593  28.297 
   3  -6   1  56.994  34.797 
   3   6   1  106.89   33.90 
   4  -6   1  894.21   91.79 
   4  -6   1 1190.48  119.19 
   4   6   1 1007.10  107.69 
   4   6   1  795.22   89.19 
   5  -6   1  891.11  112.49 
   5  -6   1  774.22   95.69 
   5   6   1  840.82  109.09 
   5   6   1  684.33   88.69 
   6  -6   1  -29.70   42.90 
   6  -6   1  58.694  49.295 
   6   6   1  10.899  35.196 
   6  -7  -1  499.55   94.29 
   6   7  -1  290.07   74.89 
   5  -7  -1 1858.71  118.69 
   5  -7  -1 1773.52  124.19 
   5   7  -1 1583.04  122.59 
   4  -7  -1  750.22   81.69 
   4  -7  -1  572.94   79.19 
   4   7  -1  488.25   75.99 
   4   7  -1  648.84   46.60 
   3  -7  -1 1680.93   91.99 
   3  -7  -1 1572.14   91.49 
  -3  -7   1 1776.02  112.09 
   3   7  -1 1533.85   92.49 
   2  -7  -1 2716.83  107.29 
  -2  -7   1 2629.84   87.39 
   2  -7  -1 2701.23  109.29 
  -2  -7   1 2560.14  114.99 
   2   7  -1 2581.54  102.59 
  -1  -7   1  607.84   48.90 
   1  -7  -1  576.24   58.99 
   1  -7  -1  513.15   53.59 
  -1  -7   1  528.65   49.20 
   1   7  -1  580.74   40.00 
   0  -7  -1 3812.42  129.79 
   0  -7   1 4057.29  134.19 
   0  -7   1 4006.40  116.89 
   0   7  -1 4179.98   97.39 
   0   7   1 4089.79  123.39 
   1  -7   1 3137.29  124.79 
   1  -7   1 3268.27   86.89 
   1   7   1 3327.07  114.99 
   2  -7   1  58.394  30.697 
   2  -7   1  24.997  18.898 
   2   7   1  20.198  20.098 
   3  -7   1 2196.68  125.69 
   3  -7   1 2156.88  101.19 
   3   7   1 1919.41  110.99 
   4  -7   1  776.82   86.39 
   4  -7   1  803.62  101.29 
   4   7   1  782.32   90.69 
   4   7   1  747.53   96.29 
   5  -7   1  426.86   77.29 
   5  -7   1  485.05   87.59 
   5   7   1  290.97   69.99 
   5   7   1  359.16   68.99 
   6  -7   1  551.64   95.89 
   6  -7   1  473.35   95.79 
   6   7   1  371.86   87.79 
   6  -8  -1  443.96   87.99 
   6   8  -1  718.83  116.59 
   5  -8  -1  -1.200  35.796 
   5  -8  -1  104.99   47.00 
   5   8  -1  33.997  39.496 
   4  -8  -1 1355.36  100.69 
   4  -8  -1 1173.18   93.79 
   4   8  -1 1493.45  106.49 
   3  -8  -1 1591.94   95.29 
   3  -8  -1 1672.33   95.09 
  -3  -8   1 1737.43  110.99 
   3   8  -1 1548.55   95.89 
  -2  -8   1 1099.99   78.79 
   2  -8  -1 1118.89   75.19 
  -2  -8   1 1069.59   57.99 
   2  -8  -1 1058.89   68.19 
   2   8  -1 1042.70   64.79 
   1  -8  -1 3951.50  135.89 
   1  -8  -1 3836.72  126.29 
  -1  -8   1 3920.41  130.29 
  -1  -8   1 3978.30  125.89 
   1   8  -1 4072.29  116.19 
   0  -8   1  600.04   43.20 
   0  -8  -1  766.02   59.29 
   0  -8   1  738.93   57.39 
   0   8  -1  663.63   35.60 
   0   8   1  630.84   47.60 
   1  -8   1 3152.78  130.49 
   1  -8   1 3219.28   89.79 
   2  -8   1 2206.68   86.49 
   2  -8   1 2583.64  126.49 
   2   8   1 2572.14  115.19 
   3  -8   1  112.49   32.50 
   3  -8   1  36.796  30.897 
   3   8   1  86.091  34.797 
   4  -8   1  317.47   68.09 
   4  -8   1  362.26   64.19 
   4   8   1  338.77   71.59 
   4   8   1  413.66   67.19 
   5  -8   1  848.82  116.39 
   5  -8   1 1034.00  115.69 
   5   8   1  977.60  104.59 
   5   8   1  979.70  119.59 
   6  -9  -1  31.597  47.595 
   6   9  -1  91.291  53.495 
   5  -9  -1 2174.38  133.39 
   5  -9  -1 1983.50  134.89 
   5   9  -1 1972.20  137.09 
  -4  -9   1  319.37   73.89 
   4  -9  -1  318.07   65.49 
   4  -9  -1  246.58   60.79 
   4   9  -1  222.98   59.89 
   3  -9  -1  658.53   78.59 
   3  -9  -1  686.53   75.79 
  -3  -9   1  695.43   88.29 
   3   9  -1  681.33   78.99 
   2  -9  -1 2597.84  118.29 
   2  -9  -1 2571.94  109.59 
  -2  -9   1 2722.43  100.59 
  -2  -9   1 2663.73  123.99 
   2   9  -1 2701.63  109.19 
  -1  -9   1  359.66   47.40 
   1  -9  -1  312.67   51.19 
  -1  -9   1  357.76   46.60 
   1  -9  -1  288.87   42.90 
   1   9  -1  376.06   42.10 
   0  -9  -1 5142.99  168.48 
   0  -9   1 5418.86  147.79 
   0  -9   1 5361.86  169.58 
   0   9  -1 5422.16  130.69 
   0   9   1 5474.65  157.18 
   1  -9   1 1523.35   61.29 
   1  -9   1 1399.36   90.49 
   1   9   1 1598.94   83.19 
   2  -9   1  86.891  39.596 
   2  -9   1  39.096  22.198 
   2   9   1  34.297  24.298 
   3  -9   1 1349.77  126.79 
   3  -9   1 1277.67   78.79 
   3   9   1 1205.68  111.49 
   4  -9   1  724.13  100.19 
   4  -9   1  679.73   82.69 
   4   9   1  790.12   90.99 
   4   9   1  715.13   96.39 
   5  -9   1  141.59   51.09 
   5  -9   1  270.97   72.49 
   5   9   1  150.28   57.69 
   5   9   1  241.58   58.49 
   6 -10  -1  610.24  102.99 
   6  10  -1  623.24  109.09 
   5 -10  -1  29.997  41.296 
   5 -10  -1  84.292  48.595 
   5  10  -1  19.798  36.296 
   4 -10  -1 1202.98  113.79 
   4 -10  -1 1195.28  116.89 
   4  10  -1 1188.78  117.49 
   3 -10  -1 1291.57   87.29 
  -3 -10   1 1146.79  114.59 
   3 -10  -1 1269.07   94.39 
   3  10  -1 1220.88   86.19 
   2 -10  -1  297.67   50.59 
   2 -10  -1  254.67   49.90 
  -2 -10   1  317.67   52.69 
  -2 -10   1  300.47   43.50 
   2  10  -1  281.87   44.90 
   1 -10  -1 3830.42  144.39 
  -1 -10   1 3911.71  138.09 
   1 -10  -1 3901.11  135.19 
  -1 -10   1 3894.61  135.49 
   1  10  -1 3827.62  120.89 
   0 -10  -1  812.52   82.79 
   0 -10   1  707.83   73.29 
   0 -10   1  818.52   52.89 
   0  10  -1  780.72   44.30 
   0  10   1  745.93   55.39 
   1 -10   1  919.21   49.90 
   1 -10   1  736.73   80.79 
   1  10   1 1040.70   69.69 
   2 -10   1 1793.62  113.79 
   2 -10   1 1635.24   76.79 
   2  10   1 1667.73   97.29 
   3 -10   1  94.391  33.497 
   3 -10   1  138.89   54.89 
   3  10   1  94.291  45.195 
   4 -10   1  369.36   62.39 
   4 -10   1  404.56   80.89 
   4  10   1  388.66   73.69 
   5 -10   1  703.33   94.49 
   5 -10   1  620.14  101.79 
   5  10   1  578.34   98.49 
   5  10   1  530.65   83.39 
   6 -11  -1  289.17   73.99 
   6  11  -1  217.98   79.89 
   5 -11  -1 1125.69  120.79 
   5 -11  -1 1214.38  125.89 
   5  11  -1 1171.88  132.39 
   4 -11  -1  108.59   46.90 
   4 -11  -1  96.090  45.995 
  -4 -11   1  105.89   54.99 
   4  11  -1  86.391  43.396 
  -3 -11   1  519.05   80.69 
   3 -11  -1  442.56   68.59 
   3 -11  -1  555.64   78.39 
   3  11  -1  469.15   68.19 
   2 -11  -1 2595.44  115.99 
  -2 -11   1 2754.92  109.49 
  -2 -11   1 2412.56  125.09 
   2 -11  -1 2301.07  121.79 
   2  11  -1 2490.85  112.09 
  -1 -11   1  234.48   45.20 
  -1 -11   1  238.68   42.70 
   1 -11  -1  207.88   40.40 
   1 -11  -1  399.46   62.99 
   1  11  -1  274.07   41.30 
   0 -11   1 3179.38  133.69 
   0 -11  -1 2896.51  129.89 
   0 -11   1 3023.20  108.49 
   0  11  -1 2890.31   96.59 
   0  11   1 2883.81  116.89 
   1 -11   1 2829.52   95.99 
   1 -11   1 3161.78  143.29 
   1  11   1 2744.53  121.69 
   2 -11   1  -10.40   31.80 
   2 -11   1  15.798  19.198 
   2  11   1  33.597  26.997 
   3 -11   1 1188.08   78.99 
   3 -11   1 1479.55  118.99 
   3  11   1 1377.96  102.69 
   4 -11   1  570.94   75.49 
   4 -11   1  610.54  100.79 
   4  11   1  605.84   92.69 
   5 -11   1  118.69   68.09 
   5  11   1  184.08   65.89 
   5  11   1  99.990  44.496 
   6 -12  -1  694.23  111.59 
   6  12  -1  461.55   96.59 
   5 -12  -1  10.099  38.296 
   5 -12  -1  10.599  44.596 
   5  12  -1  50.895  44.396 
   4 -12  -1 1606.24  114.39 
   4 -12  -1 1515.65  120.59 
   4  12  -1 1711.93  119.89 
  -3 -12   1  664.93   89.99 
   3 -12  -1  898.11  104.09 
   3 -12  -1  758.42   87.19 
   3  12  -1  757.72   86.19 
   2 -12  -1  129.49   38.90 
  -2 -12   1  127.19   43.40 
   2 -12  -1  63.394  38.596 
  -2 -12   1  87.791  32.197 
   2  12  -1  91.291  30.897 
   1 -12  -1 3100.39  139.29 
  -1 -12   1 2960.40  122.19 
  -1 -12   1 2867.71  122.89 
   1 -12  -1 3076.19  125.69 
   1  12  -1 2876.01  109.59 
   0 -12   1  858.41   57.59 
   0 -12   1  917.51   90.49 
   0  12  -1  822.02   51.79 
   0  12   1  876.11   67.19 
   1 -12   1  330.27   59.19 
   1 -12   1  543.85   52.89 
  -1  12  -1  464.95   46.70 
   1  12   1  542.65   69.09 
   2 -12   1 1609.44  120.39 
   2 -12   1 1648.84   81.79 
   2  12   1 1803.42  106.89 
   3 -12   1  93.991  37.896 
   3 -12   1  153.68   68.29 
   3  12   1  208.88   53.89 
   4 -12   1  447.76   93.29 
   4 -12   1  571.24   79.79 
   4  12   1  609.64   93.29 
   5 -12   1  598.34  111.59 
   5  12   1  699.93   95.49 
   5  12   1  634.04  104.89 
   6 -13  -1   1.300  44.396 
   6  13  -1  143.69   63.49 
   5 -13  -1  720.03  112.79 
   5 -13  -1  766.62  107.89 
   5  13  -1 1048.70  128.09 
   4 -13  -1  152.88   51.69 
   4 -13  -1  169.48   57.89 
   4  13  -1  179.88   57.89 
   3 -13  -1 1184.08  124.39 
   3 -13  -1  999.90   98.69 
  -3 -13   1 1044.20  114.09 
   3  13  -1 1055.89  104.29 
   2 -13  -1 2290.37  126.19 
   2 -13  -1 2277.47  115.59 
  -2 -13   1 2211.58  126.79 
  -2 -13   1 2159.48  109.69 
   2  13  -1 2166.38  109.59 
   1 -13  -1  -4.700  23.798 
   1 -13  -1  -6.499  30.597 
  -1 -13   1  36.996  24.798 
  -1 -13   1  11.799  27.797 
   1  13  -1  22.998  18.598 
   0 -13  -1 1840.42  111.99 
   0 -13   1 1689.13  105.59 
   0 -13   1 1761.02   85.99 
   0  13  -1 1769.32   79.59 
   0  13   1 1897.01  100.39 
   1 -13   1 2441.66  138.69 
   1 -13   1 2687.43  102.09 
  -1  13  -1 2897.61  100.89 
   1  13   1 2508.65  124.09 
   2 -13   1  -17.40   35.50 
   2 -13   1  39.196  24.498 
   2  13   1  -9.499  20.798 
   3 -13   1 1336.97   84.89 
   3 -13   1 1326.27  143.59 
   3  13   1 1209.98  124.59 
   4 -13   1  754.02   88.59 
   4 -13   1  505.25   97.19 
   4  13   1  592.44   95.69 
   5 -13   1  -44.20   49.99 
   5  13   1  90.591  55.294 
   5 -14  -1  -65.39   37.00 
   5 -14  -1  24.098  40.896 
   5  14  -1   3.900  34.797 
   4 -14  -1  951.80  105.29 
   4 -14  -1 1109.89  121.19 
   4  14  -1 1333.57  132.49 
  -3 -14   1 1569.64  148.39 
   3 -14  -1 1321.57   99.59 
   3 -14  -1 1452.15  140.39 
   3  14  -1 1496.15  105.79 
   2 -14  -1  525.15   78.29 
   2 -14  -1  385.56   60.39 
  -2 -14   1  548.45   71.69 
  -2 -14   1  621.14   85.89 
   2  14  -1  615.54   72.89 
  -1 -14   1 1232.88   87.99 
  -1 -14   1 1268.07   86.49 
   1 -14  -1 1402.66  105.69 
  -1  14   1 1312.87   84.49 
   1  14  -1 1308.97   77.29 
   0 -14   1  921.01   66.29 
   0 -14   1  828.62   91.89 
   0 -14  -1 1088.69  107.49 
   0  14   1  944.81   72.59 
   0  14  -1  954.10   61.49 
   1 -14   1  59.294  23.698 
   1 -14   1  89.291  44.995 
   1  14   1  98.190  34.797 
  -1  14  -1  73.293  25.297 
   2 -14   1 1971.70   95.39 
   2 -14   1 2072.19  142.79 
   2  14   1 2105.59  121.29 
   3 -14   1  -5.099  46.095 
   3 -14   1  45.595  34.197 
   3  14   1  17.998  31.697 
   4 -14   1  522.95  104.19 
   4  14   1  430.26   82.09 
   5 -14   1  402.86  106.79 
   5  14   1  643.64  112.69 
   5 -15  -1  665.43  100.59 
   5 -15  -1  723.93  111.89 
   5  15  -1  729.53  112.99 
   4 -15  -1  113.69   51.69 
   4 -15  -1  27.397  35.596 
   4  15  -1   3.800  34.597 
  -3 -15   1  601.34   98.29 
   3 -15  -1  654.83   96.79 
   3 -15  -1  603.44   85.69 
   3  15  -1  622.84   83.69 
  -2 -15   1 1693.53  106.09 
  -2 -15   1 1373.46  109.09 
   2 -15  -1 1481.15  136.29 
   2 -15  -1 1597.64  104.59 
   2  15  -1 1393.76   93.89 
  -1 -15   1  109.39   44.00 
  -1 -15   1  46.895  32.597 
   1 -15  -1  10.699  35.196 
  -1  15   1  82.092  29.497 
   1  15  -1  66.393  26.497 
   0 -15   1 1354.96  106.59 
   0 -15   1 1525.75   84.89 
   0 -15  -1 1195.78  118.09 
   0  15  -1 1450.75   78.69 
   0  15   1 1479.25   92.19 
   1 -15   1 1965.70  133.49 
   1 -15   1 1833.12   88.39 
   1  15   1 1822.62  110.69 
  -1  15  -1 1885.71   87.09 
   2 -15   1  -12.00   21.80 
   2 -15   1  -8.299  41.196 
   2  15   1  -26.60   21.20 
   3 -15   1  822.92  114.99 
   3 -15   1  924.91   89.39 
   3  15   1  986.40  113.49 
   4 -15   1  437.26   97.39 
   4  15   1  529.75   93.79 
   5 -15   1   8.899  62.094 
   5  15   1  -3.900  38.896 
   5 -16  -1  -15.80   33.30 
   5 -16  -1  45.995  52.895 
   5  16  -1  30.497  43.396 
   4 -16  -1 1050.59  114.69 
   4 -16  -1  789.52  110.89 
   4  16  -1  780.52  106.29 
   3 -16  -1  693.13  101.59 
   3 -16  -1  826.82   96.59 
  -3 -16   1  702.43  102.49 
   3  16  -1  734.83   89.19 
  -2 -16   1  31.297  40.696 
   2 -16  -1  124.69   41.80 
  -2 -16   1  141.69   46.90 
   2 -16  -1  93.491  56.294 
   2  16  -1  106.99   39.60 
  -1 -16   1 1363.76  103.79 
  -1 -16   1 1341.37   93.49 
   1 -16  -1 1440.76  113.19 
  -1  16   1 1283.87  112.99 
   1  16  -1 1195.68   80.39 
   0 -16   1  912.11   71.49 
   0 -16   1 1034.70  114.19 
   0 -16  -1 1109.59  119.49 
   0  16  -1  917.51   66.19 
   0  16   1  981.50   94.89 
   1 -16   1  28.497  25.197 
   1 -16   1  14.499  38.196 
  -1  16  -1  10.899  19.198 
   1  16   1  102.49   42.00 
   2 -16   1 1496.55  155.88 
   2 -16   1 1465.65   87.89 
   2  16   1 1508.05  110.79 
   3 -16   1  83.992  59.294 
   3 -16   1  365.76   58.39 
   3  16   1  163.88   53.29 
   4 -16   1  379.96   94.29 
   4  16   1  322.87   74.19 
   5 -17  -1  439.36   86.29 
   5 -17  -1  456.95  100.89 
   5  17  -1  619.74  108.39 
   4 -17  -1  35.996  39.096 
   4 -17  -1  72.093  51.495 
   4  17  -1  43.796  47.295 
   3 -17  -1  975.80  103.69 
   3 -17  -1  890.21  118.89 
  -3 -17   1  811.22  111.59 
   3  17  -1  776.32   95.89 
  -2 -17   1 1612.44  112.69 
  -2 -17   1 1560.54  140.89 
   2 -17  -1 1493.65  142.39 
   2 -17  -1 1501.65  106.49 
   2  17  -1 1592.24  102.59 
   1 -17  -1  63.794  51.695 
  -1 -17   1  25.497  40.396 
  -1 -17   1  43.096  35.196 
   1  17  -1  34.397  26.897 
  -1  17   1  28.497  25.797 
   0 -17   1  796.82   81.19 
   0 -17  -1  574.14   88.29 
   0 -17   1  607.34   87.29 
   0  17  -1  726.03   74.79 
   0  17   1  659.53   82.19 
   1 -17   1  778.42  108.09 
   1 -17   1  960.10   69.29 
   1  17   1  947.51  102.59 
  -1  17  -1  872.51   81.49 
   2 -17   1  -11.50   41.60 
   2 -17   1  27.597  28.297 
   2  17   1  12.799  32.197 
  -2  17  -1  -5.699  21.398 
   3 -17   1  832.02  127.69 
   3  17   1  719.43  103.09 
   4 -17   1  381.86  100.49 
   4  17   1  362.86   80.09 
   5 -18  -1  83.092  62.694 
   5 -18  -1  44.796  51.795 
   5  18  -1  -12.40   41.00 
   4 -18  -1  852.01  125.29 
   4 -18  -1  876.61  110.49 
   4  18  -1  827.12  111.59 
   3 -18  -1  616.24   96.99 
  -3 -18   1  633.04  102.19 
   3 -18  -1  545.05   85.39 
   3  18  -1  524.25   82.99 
  -2 -18   1  92.991  48.395 
   2 -18  -1  79.692  47.295 
  -2 -18   1  134.89   49.10 
   2 -18  -1  37.696  38.496 
   2  18  -1  48.595  33.997 
  -1 -18   1 2034.60  133.39 
   1 -18  -1 1993.60  140.69 
  -1 -18   1 2113.59  123.79 
   1  18  -1 2257.97  116.19 
  -1  18   1 2012.30  117.99 
   0 -18   1  305.57   72.69 
   0 -18   1  459.25   63.09 
   0 -18  -1  463.15   89.79 
   0  18   1  346.77   63.49 
   0  18  -1  384.46   56.99 
   1 -18   1  214.78   66.89 
  -1 -18  -1  239.28   65.59 
   1  18   1  231.98   55.49 
  -1  18  -1  249.68   47.50 
   2 -18   1 1295.97  141.89 
  -2  18  -1 1390.46   86.99 
   2  18   1 1114.69  122.29 
   3 -18   1  185.68   69.19 
   3  18   1  205.48   66.09 
   4 -18   1  427.46  104.99 
   4  18   1  317.27   78.79 
   4 -19  -1   5.899  39.496 
   4 -19  -1  -64.69   42.10 
   4  19  -1  -7.499  39.496 
  -3 -19   1  669.93  108.49 
   3 -19  -1  646.04   94.89 
   3 -19  -1  428.06   93.59 
   3  19  -1  545.55   87.29 
  -2 -19   1 1464.05  114.99 
   2 -19  -1 1584.64  126.99 
  -2 -19   1 1714.33  126.89 
   2 -19  -1 1584.84  112.79 
   2  19  -1 1382.86  101.29 
  -2  19   1 1492.35  109.09 
  -1 -19   1  136.59   54.19 
  -1 -19   1  143.59   49.80 
   1 -19  -1  129.69   59.19 
   1  19  -1  74.393  36.296 
  -1  19   1  188.78   51.29 
   0 -19  -1 1626.44  155.18 
   0 -19   1 1364.86  138.09 
   0 -19   1 1634.44   98.99 
   0  19  -1 1324.47   88.69 
   0  19   1 1434.26  104.59 
   1 -19   1  476.05   94.59 
  -1 -19  -1  706.83  104.49 
  -1  19  -1  504.35   63.49 
   1  19   1  583.74   84.99 
   2 -19   1  -72.49   32.50 
   2  19   1   2.200  31.997 
   3 -19   1  479.25  103.69 
   3  19   1  753.72  113.99 
   4 -19   1  275.77   88.19 
   4  19   1  325.67   84.79 
   4 -20  -1  832.12  124.69 
   4 -20  -1  904.61  119.79 
   4  20  -1  657.43  108.89 
  -3 -20   1  433.06   92.19 
   3 -20  -1  381.46   80.39 
   3 -20  -1  374.86   85.39 
   3  20  -1  466.65   82.59 
   2 -20  -1  126.49   57.39 
  -2 -20   1  36.896  43.896 
  -2 -20   1  144.39   56.59 
  -2  20   1  111.69   44.10 
   2  20  -1  63.994  36.996 
   1 -20  -1 1935.21  145.79 
  -1 -20   1 1846.02  124.79 
  -1 -20   1 1805.42  133.39 
   1  20  -1 1827.72  111.39 
  -1  20   1 1846.92  120.89 
   0 -20  -1  427.86   89.59 
   0 -20   1  709.63  101.99 
   0  20   1  609.64   86.59 
   0  20  -1  593.84   75.29 
   1 -20   1  318.57   79.09 
  -1 -20  -1  299.77   70.79 
  -1  20  -1  444.96   63.89 
   1  20   1  408.56   74.69 
   2 -20   1  989.50  140.19 
   2  20   1  875.21  112.39 
   3 -20   1  227.58   83.69 
   3  20   1  205.38   66.19 
   4 -21  -1   7.299  47.595 
   4 -21  -1  62.394  49.795 
   4  21  -1   2.200  40.196 
   3 -21  -1  562.24   95.49 
  -3 -21   1  741.23  114.39 
   3 -21  -1  648.54  113.89 
   3  21  -1  484.05   87.49 
  -2 -21   1 1263.47  131.69 
  -2 -21   1 1286.87  137.59 
   2 -21  -1 1196.78  145.29 
  -2  21   1 1346.37  131.69 
   2  21  -1 1460.05  135.29 
  -1 -21   1  -79.69   26.50 
   1 -21  -1  64.794  47.895 
  -1 -21   1  32.397  42.796 
  -1  21   1   3.900  28.097 
   1  21  -1  -16.80   22.40 
   0 -21   1  539.35   94.19 
   0 -21  -1  464.55   92.99 
   0  21  -1  363.86   60.89 
   0  21   1  243.08   61.79 
   1 -21   1  775.92  120.89 
  -1  21  -1  844.12   89.69 
   1  21   1  794.22  103.99 
   2 -21   1  36.896  56.394 
   2  21   1  -46.20   29.00 
   3 -21   1  602.64  126.69 
   3  21   1  873.31  124.59 
   3 -22  -1  336.87   76.19 
   3 -22  -1  204.38   73.49 
   3  22  -1  274.97   70.19 
  -2 -22   1  74.793  48.895 
  -2 -22   1   2.000  50.795 
   2 -22  -1  86.191  59.294 
  -2  22   1  72.893  40.396 
   2  22  -1  21.798  35.296 
  -1 -22   1 1396.46  150.78 
   1 -22  -1 1332.57  152.88 
  -1  22   1 1308.67  131.49 
   1  22  -1 1386.56  104.49 
   0 -22  -1  478.45  100.39 
   0 -22   1  598.04  102.49 
   0  22  -1  544.75   76.09 
   0  22   1  533.75   86.19 
   1 -22   1  558.94  102.39 
   1  22   1  692.83  102.49 
   2 -22   1  642.84  118.09 
   2  22   1  869.11  117.19 
   3 -22   1  141.29   71.69 
   3  22   1  159.08   64.89 
   3 -23  -1  693.53  125.59 
  -3  23   1  605.54   93.59 
   3  23  -1  522.95   94.79 
  -2 -23   1 1034.20  135.19 
   2 -23  -1  902.41  134.89 
  -2 -23   1 1022.30  127.19 
  -2  23   1  936.81  114.29 
   2  23  -1  992.90  117.29 
  -1 -23   1  87.891  57.094 
   1 -23  -1  21.798  52.795 
   1  23  -1  24.298  35.896 
  -1  23   1  57.694  40.596 
   0 -23  -1  593.64  112.79 
   0 -23   1  418.96   89.09 
   0  23   1  440.26   84.59 
   0  23  -1  618.64   84.49 
   1 -23   1  675.53  115.59 
   1  23   1  891.61  113.79 
   2 -23   1  108.39   73.59 
   2  23   1  149.19   62.59 
   2 -24  -1  94.591  65.093 
  -2 -24   1  137.39   62.39 
  -2  24   1  156.18   55.89 
   2  24  -1  126.09   50.29 
   1 -24  -1  659.13  112.49 
  -1 -24   1  749.23  118.49 
  -1  24   1  827.32  112.39 
   1  24  -1  725.93   97.79 
   0 -24  -1  257.37   81.39 
   0 -24   1  236.78   74.99 
   0  24  -1  384.46   69.49 
   0  24   1  295.07   74.29 
   1 -24   1  260.47   86.29 
   1  24   1  281.17   72.39 
   2 -24   1 1006.90  154.98 
   2  24   1  896.31  128.29 
   2 -25  -1  340.67   93.49 
  -2 -25   1  584.64  107.79 
  -2  25   1  517.55   92.89 
   2  25  -1  360.06   79.59 
   1 -25  -1  25.697  47.695 
  -1 -25   1  -39.10   37.60 
   1  25  -1   4.200  36.096 
  -1  25   1   5.399  35.096 
   0 -25   1  557.94  109.59 
   0 -25  -1  598.84  111.69 
   0  25   1  536.55   93.29 
   1 -25   1  594.74  117.09 
   1  25   1  611.44  106.99 
   0 -26  -1  262.67   90.09 
   0 -26   1  246.48   83.59 
   0  26   1  257.97   72.39 
   7   0  -2  606.64  109.39 
   6   0  -2  -39.60   31.60 
   5   0  -2 1427.26  133.89 
   4   0  -2 1187.18  109.59 
  -4   0   2  951.80   94.09 
   4   0  -2 1203.58   43.50 
   3   0  -2  13.199  24.398 
  -3   0   2  49.795  26.597 
  -2   0   2 1982.30   85.59 
   2   0  -2 2168.88   87.39 
   1   0  -2 2064.39   71.39 
   0   0   2 2571.54   97.39 
   0   0   2 2672.83   73.49 
   1   0   2 3043.00   91.69 
   1   0   2 3308.87  125.19 
   2   0   2  241.98   38.00 
   2   0   2  250.07   46.80 
   3   0   2  153.98   43.50 
   3   0   2  197.68   42.70 
   4   0   2 1457.75  109.49 
   4   0   2 1356.46   99.39 
   5   0   2  -29.90   33.00 
   5   0   2  -31.70   28.30 
   7  -1  -2  146.49   60.29 
   7   1  -2  255.57   79.49 
   6  -1  -2 1521.85  149.09 
   6   1  -2 1353.96  142.39 
   5  -1  -2  187.38   58.49 
   5   1  -2  95.290  48.895 
   4  -1  -2 1127.79   50.69 
  -4  -1   2 1106.89  107.39 
   4  -1  -2 1213.18  111.49 
  -4   1   2 1074.89  101.29 
   4   1  -2 1232.38  111.49 
  -3  -1   2 5865.41  188.98 
   3  -1  -2 5888.11  127.79 
   3  -1  -2 5817.82  184.38 
  -3   1   2 5809.32  180.68 
   3   1  -2 6359.56  189.48 
  -2  -1   2  16.298   7.699 
  -2  -1   2  35.696  20.898 
   2  -1  -2  29.597  23.098 
  -2   1   2  42.196  18.698 
   2   1  -2  42.596  23.098 
   1  -1  -2 1651.93   66.09 
  -1  -1   2 1575.74   61.49 
   1   1  -2 1600.04   59.19 
   0  -1   2 3309.07  111.69 
   0  -1   2 3366.76   79.39 
   0   1   2 3331.77   91.59 
   1  -1   2  -18.40    8.40 
   1  -1   2  -20.90   15.40 
   1   1   2  -17.20   12.30 
   1   1   2  -9.499  10.699 
   2  -1   2 2284.87  113.99 
   2  -1   2 2295.07   91.09 
   2   1   2 2311.87  115.19 
   2   1   2 2340.37   95.29 
   3  -1   2  597.34   66.89 
   3  -1   2  563.24   75.79 
   3   1   2  504.55   65.39 
   3   1   2  460.25   69.69 
   4  -1   2  -18.30   25.00 
   4  -1   2  68.693  37.496 
   4   1   2   9.499  29.397 
   4   1   2  35.096  33.997 
   5  -1   2 1138.49  123.19 
   5  -1   2  859.71  112.29 
   5   1   2  758.22  104.19 
   5   1   2  895.81  111.89 
   7  -2  -2  414.16   95.99 
   7   2  -2  394.36   96.29 
   6  -2  -2   2.800  35.996 
   6   2  -2  16.298  36.796 
   5  -2  -2 1024.20  112.59 
  -5  -2   2  916.01  114.09 
   5   2  -2  927.01  108.29 
   4  -2  -2 1761.72   69.99 
  -4  -2   2 1590.64  110.39 
   4  -2  -2 1697.53  106.49 
  -4   2   2 1614.44  100.99 
   4   2  -2 1709.33  107.29 
  -3  -2   2   8.099  24.598 
   3  -2  -2  -23.50   12.20 
   3  -2  -2  -13.60   18.00 
   3   2  -2  -5.099  18.098 
  -3   2   2   1.500  19.398 
   2  -2  -2 3346.57  116.99 
  -2  -2   2 3412.36  122.99 
  -2  -2   2 3603.04   75.69 
   2   2  -2 3415.36  114.09 
  -2   2   2 3420.56  109.99 
  -1  -2   2 1368.36   56.09 
   1  -2  -2 1364.36   61.89 
   1   2  -2 1341.77   53.49 
   0  -2   2  606.94   24.60 
   0  -2   2  632.04   57.79 
   0   2   2  554.74   37.10 
   1  -2   2 2830.52  115.99 
   1  -2   2 3033.30   80.19 
   1   2   2 2799.62   95.49 
   1   2   2 2696.43  113.49 
   2  -2   2  738.03   75.49 
   2  -2   2  658.03   47.80 
   2   2   2  764.12   55.89 
   2   2   2  877.91   89.39 
   3  -2   2  483.95   72.39 
   3  -2   2  562.74   64.39 
   3   2   2  529.05   66.09 
   3   2   2  498.95   72.79 
   4  -2   2 1263.47   94.19 
   4  -2   2 1034.00  113.19 
   4   2   2  932.91  104.89 
   4   2   2 1524.25  105.49 
   5  -2   2  37.296  38.096 
   5  -2   2  21.998  41.596 
   5   2   2  38.996  36.996 
   5   2   2  54.195  40.496 
   7  -3  -2  184.18   73.09 
   7   3  -2  222.58   75.79 
   6  -3  -2  941.11  122.09 
   6   3  -2  940.21  121.99 
   5  -3  -2  326.27   69.49 
  -5  -3   2  233.58   71.29 
   5   3  -2  408.36   76.59 
   4  -3  -2  880.71   55.99 
  -4  -3   2  895.11   99.19 
   4  -3  -2  739.43   89.19 
   4   3  -2  847.02   90.59 
  -4   3   2 1047.80   80.39 
   3  -3  -2 3810.02  147.69 
  -3  -3   2 3944.21  152.28 
   3  -3  -2 3972.90  111.79 
  -3   3   2 3760.52  132.29 
   3   3  -2 3885.91  145.09 
   2  -3  -2  414.16   50.89 
  -2  -3   2  451.25   54.39 
  -2  -3   2  393.46   22.10 
  -2   3   2  395.66   40.20 
   2   3  -2  390.36   44.80 
   1  -3  -2 1161.18   59.49 
  -1  -3   2 1169.38   53.49 
  -1  -3   2 1087.09   63.89 
   1   3  -2 1193.58   47.70 
   0  -3   2 4488.25   82.59 
   0  -3   2 4267.97  133.79 
   0  -3   2 4450.25   81.89 
   0   3   2 4444.76  122.19 
   1  -3   2  13.699  11.299 
   1  -3   2  -4.200  16.298 
   1   3   2  66.893  20.598 
   2  -3   2 1767.42  100.89 
   2  -3   2 1677.93   72.99 
   2   3   2 1607.64   84.39 
   2   3   2 1739.73   99.59 
   3  -3   2  818.52   77.09 
   3  -3   2  797.22   93.79 
   3   3   2  920.81   93.09 
   3   3   2  738.63   86.49 
   4  -3   2  -11.90   27.40 
   4  -3   2  51.395  32.897 
   4   3   2  12.899  27.897 
   4   3   2  41.396  30.897 
   5  -3   2  726.03  104.19 
   5  -3   2  771.52   98.59 
   5   3   2  910.21  115.59 
   5   3   2  903.41  115.79 
   7  -4  -2  554.14  106.79 
   7   4  -2  422.86   95.99 
   6  -4  -2  -10.40   37.70 
   6   4  -2  -45.60   38.10 
   5  -4  -2 1600.34  121.89 
  -5  -4   2 1326.37  136.79 
   5   4  -2 1628.94  122.59 
   4  -4  -2 1417.76   75.19 
  -4  -4   2 1511.85  112.19 
   4  -4  -2 1381.96  103.89 
  -4   4   2 1653.33   98.09 
   4   4  -2 1387.26  123.09 
   3  -4  -2  32.597  26.597 
   3  -4  -2  16.398  20.198 
  -3  -4   2  -15.80   20.50 
   3   4  -2   4.000  27.097 
  -3   4   2  19.798  20.798 
   2  -4  -2 2670.73   92.09 
  -2  -4   2 2732.03   70.89 
  -2  -4   2 2617.94  111.49 
   2  -4  -2 2772.12  107.39 
   2   4  -2 2631.24   98.89 
  -2   4   2 2646.04   88.59 
  -1  -4   2 3009.90   93.79 
  -1  -4   2 2829.52  106.39 
   1  -4  -2 2778.42   99.49 
   1   4  -2 2797.02   79.49 
   0  -4   2  245.18   37.40 
   0   4   2  382.36   40.30 
   1  -4   2 2719.33   68.89 
   1  -4   2 2540.15  114.09 
   1   4   2 2753.52  101.69 
   2  -4   2  785.42   50.59 
   2  -4   2  779.12   83.09 
   2   4   2  866.71   86.49 
   2   4   2  949.41   82.59 
   3  -4   2  757.72   72.99 
   3  -4   2  675.73   91.09 
   3   4   2  637.14   76.59 
   3   4   2  568.24   77.59 
   4  -4   2 1122.69  101.89 
   4  -4   2  974.40  112.69 
   4   4   2  933.81  103.29 
   4   4   2 1065.69  114.49 
   5  -4   2  102.79   55.39 
   5  -4   2  128.89   52.59 
   5   4   2  14.998  33.797 
   5   4   2  183.38   59.99 
   6  -5  -2  743.23  115.29 
   6   5  -2  755.22  112.69 
   5  -5  -2  518.15   85.99 
  -5  -5   2  505.55   94.59 
   5   5  -2  535.95   84.99 
  -4  -5   2  888.61  102.19 
   4  -5  -2  764.22   90.99 
   4  -5  -2  884.51   76.99 
   4   5  -2  812.22   90.19 
   3  -5  -2 3039.70  130.79 
   3  -5  -2 2931.21  107.09 
  -3  -5   2 3155.88  140.69 
   3   5  -2 2982.90  126.09 
  -3   5   2 3042.80  110.09 
   2  -5  -2  12.199  20.998 
  -2  -5   2  48.895  25.597 
  -2  -5   2  40.696  14.899 
   2  -5  -2   9.199  19.798 
   2   5  -2  46.595  22.298 
  -2   5   2  43.296  16.298 
   1  -5  -2 1636.44   76.99 
  -1  -5   2 1591.64   78.79 
  -1  -5   2 1535.65   68.19 
   1   5  -2 1708.63   60.89 
   0  -5   2 2688.33  105.09 
   0   5   2 2724.33   98.39 
   1  -5   2  15.198  20.998 
   1  -5   2  27.297  10.399 
   1   5   2  17.698  16.398 
   2  -5   2 2201.48  118.39 
   2  -5   2 2111.89   79.49 
   2   5   2 2206.18  104.69 
   3  -5   2 1107.39  111.09 
   3  -5   2 1182.98   75.79 
   3   5   2 1200.28   95.49 
   3   5   2 1259.07   89.79 
   4  -5   2  78.592  37.296 
   4  -5   2  61.394  41.596 
   4   5   2  40.996  33.597 
   4   5   2  54.295  39.196 
   5  -5   2  588.44  100.29 
   5   5   2  582.44   91.29 
   5   5   2  745.53  104.19 
   6  -6  -2   2.800  42.296 
   6   6  -2  -22.20   32.40 
  -5  -6   2 1773.22  138.99 
   5  -6  -2 1681.53  125.39 
   5   6  -2 1873.51  129.69 
   4  -6  -2 1296.17   81.79 
   4  -6  -2 1459.85  104.09 
  -4  -6   2 1252.97  124.39 
   4   6  -2 1501.35  103.69 
   3  -6  -2  209.88   39.10 
  -3  -6   2  171.28   43.30 
   3  -6  -2  152.08   41.00 
  -3   6   2  193.58   33.90 
   3   6  -2  174.08   42.50 
  -2  -6   2 3771.42  142.99 
  -2  -6   2 3877.61  104.49 
   2  -6  -2 3621.04  125.49 
   2  -6  -2 3777.32  135.49 
  -2   6   2 3794.12  103.79 
   2   6  -2 3834.32  125.29 
  -1  -6   2 2085.09   83.69 
   1  -6  -2 2176.88   91.49 
  -1  -6   2 2061.59   92.89 
   1   6  -2 2044.40   68.69 
   0  -6   2  252.67   39.50 
   0   6   2  365.56   45.40 
   1  -6   2 2138.29   52.59 
   1  -6   2 1904.81  103.59 
   1   6   2 2143.19   94.59 
   2  -6   2  972.60   52.09 
   2  -6   2 1057.59  102.79 
   2   6   2  903.61   68.59 
   3  -6   2  872.71   99.19 
   3  -6   2  933.71   67.29 
   3   6   2  944.01   97.19 
   3   6   2  986.30  102.79 
   4  -6   2 1078.49  125.49 
   4  -6   2 1236.08   90.29 
   4   6   2 1153.18  120.19 
   4   6   2 1185.08  121.19 
   5  -6   2  -10.40   40.30 
   5   6   2  -23.10   33.60 
   5   6   2  -7.799  30.197 
   6  -7  -2  812.62  118.39 
   6   7  -2  675.73  106.89 
  -5  -7   2  410.46   88.89 
   5  -7  -2  321.27   70.39 
   5  -7  -2  283.87   53.29 
   5   7  -2  395.96   77.09 
  -4  -7   2  416.36   80.39 
   4  -7  -2  436.06   61.19 
   4  -7  -2  401.06   69.09 
   4   7  -2  345.07   64.09 
   3  -7  -2 1606.54   98.59 
  -3  -7   2 1685.13  108.19 
   3  -7  -2 1788.62   90.49 
   3   7  -2 1752.72   97.99 
  -3   7   2 1668.93   72.69 
   2  -7  -2  624.44   69.09 
  -2  -7   2  380.66   54.49 
  -2  -7   2  507.45   39.90 
   2  -7  -2  448.36   53.69 
  -2   7   2  524.25   32.90 
   2   7  -2  504.85   52.89 
  -1  -7   2 2203.68   92.09 
   1  -7  -2 2550.94  102.99 
  -1  -7   2 2427.86  102.99 
   1   7  -2 2291.97   74.69 
   0  -7   2 2748.23  115.19 
   0   7   2 2677.53  104.99 
   1  -7   2  3.0997  7.8992 
   1  -7   2  12.299  25.197 
   1   7   2  -18.10   15.90 
   2  -7   2 2053.39  120.69 
   2  -7   2 2033.80   76.09 
   2   7   2 1958.80  104.89 
   3  -7   2 1275.77   76.49 
   3  -7   2 1297.77  132.09 
   3   7   2 1213.28  112.69 
   4  -7   2  49.495  33.197 
   4  -7   2  60.894  42.296 
   4   7   2  -2.300  27.297 
   4   7   2  32.397  34.397 
   5  -7   2  816.72  118.09 
   5   7   2  591.44  101.29 
   5   7   2  664.33  104.19 
   6  -8  -2  35.496  49.395 
   6   8  -2   9.799  44.096 
   5  -8  -2 1256.87   92.69 
   5  -8  -2 1693.03  151.08 
   5   8  -2 1380.56  134.19 
  -4  -8   2  713.43   99.99 
   4  -8  -2  848.82   84.49 
   4  -8  -2  831.22   97.69 
   4   8  -2  867.51  101.59 
   3  -8  -2  197.58   47.00 
  -3  -8   2  189.88   50.89 
   3  -8  -2  196.78   42.40 
   3   8  -2  313.77   54.09 
  -3   8   2  162.88   28.40 
  -2  -8   2 2947.91   99.39 
   2  -8  -2 2609.64  117.39 
   2  -8  -2 2947.01  120.79 
  -2  -8   2 2976.00  130.19 
  -2   8   2 2890.81   77.99 
   2   8  -2 2862.71  107.69 
   1  -8  -2 3459.05  133.09 
   1  -8  -2 3620.94  131.09 
  -1  -8   2 3472.95  131.39 
  -1  -8   2 3404.06  124.99 
   1   8  -2 3484.85  100.69 
   0  -8   2  547.25   63.29 
   0   8  -2  527.35   22.90 
   0   8   2  648.44   64.69 
   1  -8   2 1714.23   47.60 
   1  -8   2 1636.44  100.39 
   1   8   2 1847.92   94.49 
   2  -8   2  699.13   87.39 
   2  -8   2  812.52   47.70 
   2   8   2  724.83   80.89 
   3  -8   2  771.52  100.49 
   3  -8   2  856.21   76.69 
   3   8   2  844.22   93.69 
   4  -8   2 1086.49  131.39 
   4   8   2 1016.30  115.49 
   4   8   2 1005.30  114.19 
   5  -8   2   5.199  42.196 
   5   8   2  -22.30   29.50 
   5   8   2   5.799  43.196 
   6  -9  -2  869.71  121.19 
   6   9  -2  960.30  130.39 
   5  -9  -2  230.68   61.29 
  -5  -9   2  190.38   63.19 
   5  -9  -2  158.88   48.80 
   5   9  -2  237.68   69.69 
  -4  -9   2  183.78   59.79 
   4  -9  -2  169.08   50.89 
   4  -9  -2  210.68   49.30 
   4   9  -2  146.39   47.90 
   3  -9  -2 1940.91  104.49 
   3  -9  -2 1856.21  108.79 
  -3  -9   2 1850.02   73.79 
  -3  -9   2 1657.13  114.59 
   3   9  -2 2113.39  109.49 
  -2  -9   2  243.58   47.00 
   2  -9  -2  340.87   53.29 
  -2  -9   2  269.97   39.30 
   2  -9  -2  252.07   47.90 
   2   9  -2  259.17   41.70 
  -2   9   2  277.47   20.90 
   1  -9  -2 1871.31  101.09 
   1  -9  -2 1938.51   95.79 
  -1  -9   2 1724.33   90.19 
  -1  -9   2 1663.83   91.29 
   1   9  -2 1881.91   70.09 
   0  -9   2 2288.57  110.49 
   0   9   2 2307.67  102.89 
   0   9  -2 2174.28   59.79 
   1  -9   2  248.48   50.99 
  -1   9  -2  186.48   19.00 
   1   9   2  165.48   38.90 
   2  -9   2 1399.76  106.19 
   2  -9   2 1376.66   62.29 
   2   9   2 1624.24   99.29 
   3  -9   2 1140.99  122.79 
   3  -9   2  994.30   68.79 
   3   9   2  994.40  104.99 
   4  -9   2  25.297  41.996 
   4   9   2  -14.40   37.70 
   4   9   2   5.999  30.097 
   5  -9   2  807.22  127.99 
   5   9   2  816.62  109.29 
   5   9   2  930.31  125.29 
   6 -10  -2  31.897  40.996 
   6  10  -2  35.196  50.695 
   5 -10  -2 1168.28  127.89 
  -5 -10   2 1075.59  130.99 
   5 -10  -2 1165.18  111.59 
   5  10  -2 1277.37  134.49 
   4 -10  -2 1018.40  110.19 
   4 -10  -2  854.41   92.49 
  -4 -10   2  830.82  112.19 
   4  10  -2  969.90  107.69 
  -3 -10   2  134.29   31.20 
  -3 -10   2  148.39   47.80 
   3 -10  -2  221.08   50.89 
   3 -10  -2  129.19   45.60 
   3  10  -2  197.38   47.80 
   2 -10  -2 2568.54  123.19 
   2 -10  -2 2237.28  112.19 
  -2 -10   2 2350.36   98.59 
  -2 -10   2 2462.75  123.09 
   2  10  -2 2376.16  102.09 
  -1 -10   2 2041.70  102.79 
  -1 -10   2 2113.09  101.49 
   1 -10  -2 2015.40  103.39 
   1  10  -2 1981.10   75.69 
   0 -10   2  747.53   80.59 
   0 -10   2  759.32   59.99 
   0  10   2  698.83   71.69 
   0  10  -2  696.93   33.60 
   1 -10   2 1300.87   98.69 
   1  10   2 1258.47   85.79 
  -1  10  -2 1372.06   46.70 
   2 -10   2  431.16   76.49 
   2 -10   2  556.44   42.10 
   2  10   2  549.25   75.79 
   3 -10   2  559.14   92.79 
   3  10   2  554.34   83.29 
   4 -10   2 1459.75  154.98 
   4  10   2 1053.59  116.69 
   4  10   2 1112.79  123.79 
   5 -10   2  13.799  47.495 
   5  10   2  -8.699  33.697 
   5  10   2  104.79   59.49 
   6 -11  -2  566.74   99.39 
   6  11  -2  511.25   98.99 
   5 -11  -2  259.37   62.39 
   5 -11  -2  368.96   81.29 
  -5 -11   2  330.87   82.89 
   5  11  -2  262.77   69.39 
  -4 -11   2  333.17   78.79 
   4 -11  -2  407.96   70.09 
   4 -11  -2  335.67   66.69 
   4  11  -2  357.16   68.69 
   3 -11  -2 1606.24  104.69 
  -3 -11   2 1523.15   78.69 
   3 -11  -2 1567.24  103.99 
  -3 -11   2 1471.15  112.29 
   3  11  -2 1587.14   98.99 
   2 -11  -2  233.58   51.99 
  -2 -11   2  370.16   61.69 
   2 -11  -2  186.78   44.80 
  -2 -11   2  225.48   41.40 
   2  11  -2  155.38   36.00 
  -1 -11   2 1178.38   80.59 
  -1 -11   2 1467.95   89.09 
   1 -11  -2 1417.46   88.89 
   1 -11  -2 1194.18   88.69 
   1  11  -2 1196.28   60.09 
   0 -11   2 2638.34  133.69 
   0 -11   2 2848.22  119.89 
   0  11  -2 2790.42   80.29 
   0  11   2 2889.21  125.79 
   1 -11   2  -2.100  27.997 
   1  11   2   3.700  20.498 
  -1  11  -2  1.8998  8.9991 
   2 -11   2 1078.49  115.29 
   2 -11   2 1221.78   59.79 
   2  11   2 1138.89  107.49 
   3 -11   2  956.50  120.79 
   3  11   2 1211.08  125.29 
   4 -11   2  -55.89   32.90 
   4  11   2  61.294  41.096 
   5 -11   2  642.64  113.09 
   5  11   2  623.94  100.89 
   5  11   2  717.23  115.99 
   6 -12  -2  -14.20   37.20 
   6  12  -2  85.391  52.495 
   5 -12  -2  533.05   91.09 
   5 -12  -2  556.74   86.79 
  -5 -12   2  777.62  122.69 
   5  12  -2  672.83  103.19 
   4 -12  -2  479.75   77.79 
   4 -12  -2  532.25   84.09 
  -4 -12   2  476.05   89.09 
   4  12  -2  509.45   82.09 
   3 -12  -2  101.39   45.70 
   3 -12  -2  95.290  42.596 
  -3 -12   2  118.09   36.00 
  -3 -12   2  123.29   50.19 
   3  12  -2  113.89   40.80 
   2 -12  -2 2403.96  128.99 
   2 -12  -2 2645.34  129.49 
  -2 -12   2 2496.95  110.59 
  -2 -12   2 2499.75  132.99 
   2  12  -2 2503.95  108.69 
   1 -12  -2  907.51   99.09 
   1 -12  -2  900.11   90.89 
  -1 -12   2  721.83   77.99 
  -1 -12   2  710.43   72.79 
   1  12  -2  826.12   52.69 
   0 -12   2  652.63   70.39 
   0 -12   2  584.14   80.49 
   0  12  -2  560.04   36.70 
   0  12   2  456.45   65.29 
   1 -12   2 2785.52  153.18 
   1  12   2 2704.93  132.99 
  -1  12  -2 2764.22   81.79 
   2 -12   2  185.98   35.20 
   2 -12   2  114.69   50.59 
   2  12   2  149.49   46.20 
   3 -12   2  752.82  108.99 
   3  12   2  679.83   95.79 
   4 -12   2 1184.58  148.09 
   4  12   2  842.02  115.49 
   6 -13  -2  803.02  127.49 
   6  13  -2  776.42  120.69 
   5 -13  -2  426.66   86.79 
   5 -13  -2  294.97   69.39 
  -5 -13   2  204.48   73.29 
   5  13  -2  299.17   71.49 
  -4 -13   2  840.12  118.99 
   4 -13  -2  864.91  104.99 
   4 -13  -2  872.51  100.49 
   4  13  -2  806.32   97.29 
  -3 -13   2 1388.46   85.69 
  -3 -13   2 1185.38  118.79 
   3 -13  -2 1357.16  104.19 
   3 -13  -2 1568.74  112.89 
   3  13  -2 1395.86   98.69 
  -2 -13   2  68.993  39.796 
   2 -13  -2  68.593  39.496 
  -2 -13   2  -12.80   27.80 
   2 -13  -2  15.198  28.097 
   2  13  -2  39.596  25.197 
  -1 -13   2  779.22   86.09 
   1 -13  -2  829.72   88.49 
  -1 -13   2 1055.39   85.19 
   1 -13  -2 1047.70  107.39 
  -1  13   2 1032.10   78.89 
   1  13  -2  892.51   57.39 
   0 -13   2 2287.67  131.69 
   0 -13   2 2264.07  110.29 
   0  13   2 2263.77  119.49 
   0  13  -2 2367.16   81.89 
   1 -13   2  -29.20   33.40 
   1  13   2  -0.700  25.297 
  -1  13  -2  -13.70   11.10 
   2 -13   2 1315.87  140.69 
   2  13   2 1177.58  115.59 
   3 -13   2  746.13  109.99 
   3  13   2 1090.89  121.49 
   4 -13   2  21.798  49.095 
   4  13   2  51.195  42.996 
   6 -14  -2  10.699  50.095 
   6  14  -2  -33.00   44.40 
   5 -14  -2  616.24   93.99 
  -5 -14   2  650.04  112.49 
   5 -14  -2  558.04   95.79 
   5  14  -2  620.74  101.69 
  -4 -14   2  936.11  127.09 
   4 -14  -2  957.50  109.69 
   4 -14  -2 1215.48  126.89 
   4  14  -2 1085.99  115.39 
  -3 -14   2  381.26   58.89 
  -3 -14   2  177.58   55.99 
   3 -14  -2  184.18   57.89 
   3 -14  -2  132.49   48.30 
   3  14  -2  278.07   56.19 
   2 -14  -2 1561.64  118.49 
   2 -14  -2 1757.52  113.29 
  -2 -14   2 1675.83  113.09 
  -2 -14   2 1658.03  101.19 
   2  14  -2 1746.63   94.19 
   1 -14  -2  496.35   83.39 
  -1 -14   2  302.57   61.39 
  -1 -14   2  303.97   55.89 
  -1  14   2  367.56   59.89 
   1  14  -2  290.07   43.50 
   0 -14   2  592.14   70.89 
   0 -14   2  433.26   72.99 
   0  14  -2  548.65   49.80 
   0  14   2  703.03   85.39 
   1 -14   2 1979.20  103.79 
   1 -14   2 1982.20  138.29 
  -1  14  -2 2038.10   74.69 
   1  14   2 2064.39  121.59 
   2 -14   2  181.78   64.49 
   2  14   2  211.18   52.49 
   3 -14   2  376.96   87.29 
   3  14   2  378.76   76.69 
   4 -14   2  668.33  119.19 
   4  14   2  708.23  105.19 
   5 -15  -2  136.89   61.99 
  -5 -15   2  199.68   76.39 
   5 -15  -2  62.794  45.195 
   5  15  -2  219.28   68.89 
   4 -15  -2  310.57   71.69 
  -4 -15   2  340.57   79.89 
   4 -15  -2  297.77   65.89 
   4  15  -2  259.17   61.99 
  -3 -15   2 2180.98  143.19 
  -3 -15   2 2116.39  113.69 
   3 -15  -2 2130.29  130.49 
   3 -15  -2 1744.03  130.89 
   3  15  -2 2072.79  120.99 
   2 -15  -2  -43.20   34.90 
   2 -15  -2  36.796  33.697 
  -2 -15   2   8.199  31.697 
  -2 -15   2  22.998  33.897 
   2  15  -2   4.300  25.097 
   1 -15  -2 1036.50  116.39 
  -1 -15   2 1047.30  102.39 
  -1 -15   2  973.60  105.09 
   1  15  -2  879.91   63.19 
  -1  15   2 1010.00   99.89 
   0 -15   2 1748.43  101.99 
   0 -15   2 1813.32  124.69 
   0  15   2 1680.63  108.39 
   0  15  -2 1650.33   75.79 
   1 -15   2  29.797  29.597 
   1 -15   2  53.395  49.195 
   1  15   2  -13.80   23.60 
   2 -15   2 1177.58  136.49 
   2  15   2 1251.77  124.69 
   3 -15   2  624.64  116.69 
   3  15   2  614.44   97.09 
   4 -15   2  -50.09   52.79 
   4  15   2  24.598  34.797 
  -5 -16   2  308.77   89.79 
   5 -16  -2  475.75   90.09 
   5 -16  -2  472.15   93.29 
   5  16  -2  388.86   87.59 
   4 -16  -2  633.54   96.39 
   4 -16  -2  521.45   86.19 
  -4 -16   2  484.15   97.69 
   4  16  -2  719.53   98.09 
   3 -16  -2  -19.00   27.70 
  -3 -16   2  18.898  33.997 
  -3 -16   2  -3.000  35.296 
   3 -16  -2  -5.699  39.396 
   3  16  -2  -14.30   23.00 
  -2 -16   2 1277.07  125.59 
   2 -16  -2 1272.37  134.19 
  -2 -16   2 1237.08   99.19 
   2 -16  -2 1254.57  123.99 
   2  16  -2 1500.65   92.19 
  -1 -16   2  855.41  103.29 
   1 -16  -2  671.93   94.09 
  -1 -16   2  859.71   93.29 
   1  16  -2  845.22   62.89 
  -1  16   2  821.52   96.39 
   0 -16   2  494.25   69.39 
   0 -16   2  401.66   77.99 
   0  16   2  483.95   73.49 
   0  16  -2  415.06   49.99 
   1 -16   2 1746.33  102.99 
   1 -16   2 1748.03  164.78 
   1  16   2 1723.63  117.79 
   2 -16   2  471.55   91.69 
   2  16   2  427.56   80.09 
   3 -16   2  338.37   98.89 
   3  16   2  337.87   73.59 
   4 -16   2  694.23  131.19 
   4  16   2  692.53  113.09 
   5 -17  -2  242.78   69.39 
  -5 -17   2  115.29   66.69 
   5 -17  -2  111.09   57.49 
   5  17  -2  92.391  56.094 
   4 -17  -2  308.37   73.09 
  -4 -17   2  330.57   81.89 
   4 -17  -2  315.47   72.69 
   4  17  -2  383.56   81.19 
  -3 -17   2 1435.76  149.99 
   3 -17  -2 1114.19  123.99 
   3 -17  -2 1188.98  121.09 
  -3 -17   2 1365.06  100.09 
   3  17  -2 1324.57  100.59 
   2 -17  -2  65.293  40.596 
  -2 -17   2  -30.80   30.20 
  -2 -17   2   0.800  34.497 
   2 -17  -2  -2.900  38.296 
   2  17  -2  21.098  28.297 
   1 -17  -2  757.02  104.29 
  -1 -17   2  635.54   91.19 
  -1 -17   2  822.72   94.79 
   1  17  -2  941.31   68.99 
  -1  17   2  753.92   90.89 
   0 -17   2 1397.96   95.89 
   0 -17   2 1452.85  142.39 
   0  17  -2 1292.57   73.39 
   0  17   2 1264.27  122.89 
   1 -17   2  68.693  32.297 
   1 -17   2   5.699  51.595 
   1  17   2  16.798  28.997 
   2 -17   2 1371.76  155.18 
   2  17   2 1428.76  140.39 
   3 -17   2  478.55  103.49 
   3  17   2  597.24  100.09 
   4 -17   2  -49.90   44.60 
   4  17   2  -18.50   40.20 
   5 -18  -2  371.46   85.19 
  -5 -18   2  412.66  102.69 
   5 -18  -2  419.96   90.59 
   5  18  -2  533.55   99.89 
  -4 -18   2  804.82  122.69 
   4 -18  -2  761.92  109.79 
   4 -18  -2  659.13  105.49 
   4  18  -2  617.64   95.19 
  -3 -18   2  10.699  44.296 
   3 -18  -2  -22.60   37.10 
   3 -18  -2  -20.20   28.00 
  -3 -18   2  -8.399  34.097 
   3  18  -2  -3.400  32.197 
   2 -18  -2 1329.37  137.49 
   2 -18  -2 1605.74  116.69 
  -2 -18   2 1446.06  116.99 
  -2 -18   2 1412.96  108.89 
   2  18  -2 1577.64  100.09 
  -1 -18   2  179.78   56.89 
   1 -18  -2  256.57   72.39 
  -1 -18   2  308.77   63.69 
  -1  18   2  238.08   57.49 
   1  18  -2  295.17   49.30 
   0 -18   2  227.28   70.59 
   0 -18   2  316.87   60.79 
   0  18   2  205.48   54.29 
   1 -18   2 1314.07   94.59 
   1 -18   2 1583.64  157.48 
   2 -18   2  260.27   82.89 
   2  18   2  407.06   77.19 
   3 -18   2  231.78   83.19 
   3  18   2  271.47   69.39 
   4 -19  -2  413.66   92.49 
  -4 -19   2  282.57   85.79 
   4 -19  -2  325.47   76.79 
   4  19  -2  386.26   82.99 
   3 -19  -2  843.42  118.39 
  -3 -19   2  876.61  123.49 
   3 -19  -2 1109.69  124.39 
  -3 -19   2 1146.29  119.49 
   3  19  -2  900.51  105.29 
  -2 -19   2  113.39   47.20 
   2 -19  -2  20.598  41.296 
  -2 -19   2  80.392  48.895 
  -2  19   2  25.797  34.197 
   2  19  -2  61.294  36.196 
  -1 -19   2 1614.44  124.79 
   1 -19  -2 1422.46  147.19 
  -1 -19   2 1599.44  116.09 
  -1  19   2 1491.85  110.29 
   1  19  -2 1536.25   92.49 
   0 -19   2  912.01  121.69 
   0 -19   2  775.02   92.89 
   0  19   2  727.63   97.39 
   1 -19   2  65.593  50.295 
   1  19   2  59.294  37.096 
   2 -19   2  809.12  132.49 
   2  19   2  919.41  119.49 
   3 -19   2  895.31  147.79 
   3  19   2  648.44  107.59 
   4 -20  -2  523.25   93.09 
  -4 -20   2  505.25  102.29 
   4 -20  -2  586.14  113.39 
   4  20  -2  652.63  104.99 
   3 -20  -2  34.397  36.896 
  -3 -20   2  36.396  43.496 
  -3 -20   2  -53.79   42.60 
   3 -20  -2   4.999  42.296 
   3  20  -2  20.798  32.397 
   2 -20  -2  901.01  120.19 
  -2 -20   2 1024.70  120.49 
  -2 -20   2 1149.09  125.49 
  -2  20   2  953.00  113.69 
   2  20  -2 1033.90  104.19 
   1 -20  -2  562.24  102.79 
  -1 -20   2  812.62  109.29 
  -1 -20   2  737.53   95.79 
   1  20  -2  853.21   86.79 
  -1  20   2  751.32   99.49 
   0 -20   2  188.98   53.29 
   0 -20   2  138.19   60.09 
   0  20   2  82.592  40.196 
   1 -20   2 1231.68  152.88 
   1  20   2 1348.07  139.79 
   2 -20   2  128.99   70.19 
   2  20   2  177.08   61.09 
   3 -20   2  74.393  76.592 
   3  20   2  230.08   71.99 
  -4 -21   2  187.78   80.79 
   4 -21  -2  250.47   76.39 
   4 -21  -2  132.49   70.99 
   4  21  -2  168.08   67.09 
  -3 -21   2  543.75   90.99 
   3 -21  -2  551.74   94.59 
   3 -21  -2  543.45  103.19 
  -3 -21   2  753.52  119.39 
   3  21  -2  607.34   92.69 
   2 -21  -2  85.591  58.494 
  -2 -21   2  15.898  40.996 
  -2 -21   2  33.297  48.295 
   2  21  -2  69.293  39.596 
  -2  21   2  36.096  37.996 
  -1 -21   2  688.23  102.99 
   1 -21  -2  514.95   96.09 
  -1 -21   2  496.45   85.39 
  -1  21   2  674.63   96.59 
   0 -21   2 1315.67  152.88 
   0  21   2 1157.58  128.19 
   1 -21   2  -40.30   46.70 
   1  21   2   7.699  34.097 
   2 -21   2  517.95  109.39 
   2  21   2  812.72  117.19 
   3 -22  -2  21.298  42.896 
   3 -22  -2  107.19   66.69 
  -3 -22   2  51.695  53.895 
   3  22  -2  42.096  42.296 
  -2 -22   2  490.35   92.79 
   2 -22  -2  737.73  120.79 
  -2 -22   2  693.43  105.19 
  -2  22   2  683.43  103.79 
   2  22  -2  783.22   98.49 
  -1 -22   2  379.36   78.69 
  -1 -22   2  646.44   96.99 
   1 -22  -2  447.46   93.39 
  -1  22   2  628.34   94.69 
   0 -22   2  107.39   59.69 
   0  22   2  38.096  37.296 
   1 -22   2  929.71  140.09 
   1  22   2  939.91  124.49 
   2 -22   2  235.58   83.29 
   2  22   2  318.57   84.09 
   3 -23  -2  612.34  118.59 
  -3 -23   2  606.74  113.19 
   3  23  -2  719.53  103.79 
  -3  23   2  819.02  114.19 
  -2 -23   2  162.48   63.99 
  -2 -23   2  113.39   64.99 
   2 -23  -2  93.991  58.994 
   2  23  -2  99.990  46.895 
  -2  23   2  116.49   48.90 
  -1 -23   2  442.56   88.59 
   1 -23  -2  541.95  108.89 
  -1  23   2  413.06   80.49 
   0 -23   2  654.53  113.99 
   0  23   2  752.22  112.69 
   1 -23   2  10.599  47.295 
   1  23   2  -5.699  33.497 
   2 -24  -2  561.34  114.69 
  -2 -24   2  368.26   86.49 
  -2  24   2  469.25   90.49 
   1 -24  -2  344.57   87.69 
  -1 -24   2  219.58   70.99 
  -1  24   2  275.77   70.19 
   0 -24   2  -5.499  46.295 
   0  24   2  35.396  49.395 
   1 -24   2  772.02  131.79 
   1  24   2 1029.30  139.49 
  -1 -25   2  392.66   89.19 
   1 -25  -2  278.67   83.09 
  -1  25   2  457.85   89.29 
   0 -25   2  468.75  106.69 
   0  25   2  702.03  113.49 
   7   0  -3  -24.70   38.80 
   6   0  -3  713.63  107.79 
  -6   0   3  710.43  109.09 
   5   0  -3  644.84   91.09 
  -5   0   3  713.03   95.49 
  -4   0   3  107.09   40.00 
   4   0  -3  47.595  38.296 
  -3   0   3 2841.82  126.09 
  -3   0   3 2935.11   77.29 
   3   0  -3 2808.02  125.79 
  -2   0   3 1157.38   55.49 
   2   0  -3 1039.90   65.19 
  -2   0   3 1108.49   71.69 
  -1   0   3  534.85   55.79 
   1   0  -3  577.24   49.40 
   0   0   3 3667.63  141.79 
   0   0   3 3628.84  103.29 
   1   0   3 1073.89   55.99 
   1   0   3 1179.78   86.69 
   2   0   3  134.49   32.50 
   2   0   3  103.39   43.00 
   3   0   3 1052.29   78.89 
   3   0   3  965.40  111.09 
   4   0   3  140.19   51.69 
   4   0   3  130.79   53.79 
   5   0   3  121.59   60.29 
   7  -1  -3  780.02  127.99 
   7   1  -3  639.44  113.89 
  -6  -1   3  902.81  120.19 
   6  -1  -3  809.72  119.59 
   6   1  -3  615.84  101.09 
  -5  -1   3  325.27   73.59 
   5  -1  -3  408.76   76.99 
  -5   1   3  447.46   77.89 
   5   1  -3  373.16   74.89 
   4  -1  -3 1774.82  112.89 
  -4  -1   3 1572.94  106.49 
   4   1  -3 2038.50  117.09 
  -4   1   3 1836.82  111.59 
  -3  -1   3  182.78   41.60 
   3  -1  -3  225.78   46.30 
  -3  -1   3  191.98   18.30 
   3   1  -3  229.98   47.50 
  -3   1   3  247.28   47.60 
  -2  -1   3 2172.08   78.49 
   2  -1  -3 2103.39   93.49 
  -2  -1   3 2138.39  101.79 
  -2   1   3 2183.78   98.59 
   2   1  -3 2109.39   89.99 
  -1  -1   3 5135.69  155.78 
   1  -1  -3 5215.78  142.69 
   1   1  -3 5087.49  132.89 
   0  -1   3 -0.8999  9.0991 
   0  -1   3   5.999  17.498 
   0   1   3  -30.20   12.50 
   0   1   3  -3.500  12.299 
   1  -1   3 1474.55   63.19 
   1  -1   3 1511.45   97.29 
   1   1   3 1620.34   72.29 
   1   1   3 1520.85   98.69 
   2  -1   3 1323.97  125.19 
   2  -1   3 1195.98   70.69 
   2   1   3 1406.16   77.79 
   2   1   3 1526.45  107.29 
   3  -1   3  -1.800  23.098 
   3  -1   3   0.700  30.797 
   3   1   3  -3.800  26.497 
   3   1   3  -2.600  23.798 
   4  -1   3 1102.09  127.99 
   4   1   3 1089.49  110.59 
   4   1   3 1137.19  131.09 
   5  -1   3  366.96   90.39 
   5   1   3  364.96   88.09 
   7  -2  -3  -2.600  44.496 
   7   2  -3  37.896  55.394 
   6  -2  -3  501.45   91.19 
  -6  -2   3  549.95  103.39 
   6   2  -3  572.64   99.59 
  -5  -2   3 1208.38  127.59 
   5  -2  -3 1029.30  116.59 
   5   2  -3 1008.50  114.39 
  -5   2   3 1312.57  123.69 
  -4  -2   3  73.493  40.396 
   4  -2  -3  89.491  42.096 
   4   2  -3  93.191  40.496 
  -4   2   3  60.594  35.696 
   3  -2  -3 2247.68  112.69 
  -3  -2   3 2519.35  122.29 
   3   2  -3 2416.06  112.19 
  -3   2   3 2330.17  108.89 
   2  -2  -3  903.61   64.99 
  -2  -2   3 1167.68   74.59 
  -2  -2   3 1016.40   51.29 
  -2   2   3 1054.09   66.09 
   2   2  -3  986.90   61.99 
   1  -2  -3  29.997  20.098 
  -1  -2   3  41.696  17.598 
   1   2  -3  64.294  18.698 
   0  -2   3 4707.43  108.89 
   0  -2   3 4577.44  161.78 
   0   2   3 4852.81  135.09 
   1  -2   3 1516.25   96.99 
   1  -2   3 1494.05   58.69 
   1   2   3 1594.84   75.99 
   1   2   3 1456.85   95.89 
   2  -2   3  457.35   71.49 
   2  -2   3  503.85   53.19 
   2   2   3  341.47   64.29 
   2   2   3  370.56   52.49 
   3  -2   3 1036.10   77.09 
   3  -2   3 1126.99  122.59 
   3   2   3 1122.89  121.59 
   3   2   3 1170.38  105.19 
   4  -2   3  192.98   58.79 
   4   2   3  313.07   63.49 
   4   2   3  139.99   57.79 
   5  -2   3  189.28   68.89 
   5   2   3  248.28   69.09 
   7  -3  -3 1041.60  150.38 
   7   3  -3 1051.99  142.29 
  -6  -3   3  381.06   86.09 
   6  -3  -3  449.86   94.09 
   6   3  -3  331.37   77.39 
   5  -3  -3  253.17   68.99 
  -5  -3   3  176.88   59.09 
  -5   3   3  204.78   57.49 
   5   3  -3  319.77   72.59 
   4  -3  -3 1614.14  113.99 
  -4  -3   3 1664.53  112.19 
  -4   3   3 1709.03  102.79 
   4   3  -3 1442.76  101.59 
   3  -3  -3  460.45   62.29 
  -3  -3   3  505.65   71.39 
  -3   3   3  526.45   62.69 
   3   3  -3  397.46   59.29 
  -2  -3   3 1880.51   71.79 
   2  -3  -3 1727.93   89.69 
  -2  -3   3 1843.82   97.79 
  -2   3   3 1896.91   87.69 
   2   3  -3 1978.60   84.09 
  -1  -3   3 5185.28  153.68 
   1  -3  -3 4892.01  148.09 
   1   3  -3 5125.69  124.59 
   0  -3   3  -7.099   7.099 
   0  -3   3  -0.800  20.498 
   0   3   3   1.000  12.299 
   1  -3   3 1378.16   92.99 
   1  -3   3 1337.67   52.19 
   1   3   3 1351.86   91.59 
   1   3   3 1250.07   70.79 
   2  -3   3 1847.42   80.89 
   2  -3   3 1818.52  117.79 
   2   3   3 1954.10   99.09 
   2   3   3 1809.32  119.89 
   3  -3   3  27.297  36.096 
   3  -3   3   0.100  23.798 
   3   3   3  -18.90   24.90 
   3   3   3  14.099  33.397 
   4  -3   3  833.62  112.09 
   4   3   3 1048.20  110.29 
   4   3   3  967.10  122.29 
   7  -4  -3  -20.20   47.30 
   7   4  -3  -20.80   46.80 
   6  -4  -3  407.06   86.29 
  -6  -4   3  311.27   78.19 
   6   4  -3  583.24  100.89 
   5  -4  -3 1285.37  134.09 
  -5  -4   3 1208.98  137.79 
   5   4  -3 1039.60  115.39 
  -5   4   3 1301.47  118.89 
   4  -4  -3  -25.20   33.60 
  -4  -4   3  49.695  36.696 
   4   4  -3   6.099  34.297 
  -4   4   3  -21.50   24.50 
  -3  -4   3 2211.28  118.99 
   3  -4  -3 2274.47  116.09 
  -3   4   3 2230.38  101.39 
   3   4  -3 2189.58  106.79 
   2  -4  -3 1502.05   83.69 
  -2  -4   3 1468.95   63.69 
  -2  -4   3 1245.08   83.79 
  -2   4   3 1408.76   73.89 
   2   4  -3 1325.37   68.39 
   1  -4  -3  278.37   42.30 
  -1  -4   3  275.87   42.30 
   1   4  -3  305.77   31.50 
   0  -4   3 3284.87   65.29 
   0  -4   3 3191.98  129.89 
   0   4   3 3017.20  110.59 
   1  -4   3  908.41   38.20 
   1  -4   3  781.02   83.29 
   1   4   3  821.92   59.69 
   2  -4   3  217.78   54.89 
   2  -4   3  361.36   43.10 
   2   4   3  198.08   50.89 
   2   4   3  206.58   43.40 
   3  -4   3 1565.84  149.69 
   3   4   3 1375.16   96.99 
   3   4   3 1245.78  130.09 
   4  -4   3  310.47   75.09 
   4   4   3  237.08   65.49 
   4   4   3  293.77   64.49 
  -6  -5   3  284.87   80.69 
   6  -5  -3  258.97   74.49 
   6   5  -3  168.88   62.79 
  -5  -5   3  368.06   77.29 
   5  -5  -3  409.06   79.29 
   5   5  -3  606.14   93.79 
  -5   5   3  477.05   76.19 
  -4  -5   3 1880.71  125.79 
   4  -5  -3 1687.73   81.69 
   4  -5  -3 1551.24  112.39 
   4   5  -3 1755.02  110.19 
  -4   5   3 1694.23   99.49 
   3  -5  -3  126.69   39.20 
  -3  -5   3  232.48   49.60 
  -3  -5   3  257.37   20.60 
   3   5  -3  256.77   47.30 
  -3   5   3  132.99   33.30 
   2  -5  -3 1577.34   87.59 
  -2  -5   3 1451.65   65.89 
   2   5  -3 1403.26   71.19 
  -2   5   3 1412.16   72.29 
  -1  -5   3 2640.64  106.89 
   1  -5  -3 2581.64  109.09 
   1   5  -3 2607.34   75.49 
   0  -5   3  299.97   49.90 
   0   5   3  258.27   40.10 
   1  -5   3 1270.17   94.99 
   1  -5   3 1505.85   40.30 
   1   5   3 1421.06   79.99 
   2  -5   3 1727.03   70.29 
   2   5   3 1554.04  108.69 
   2   5   3 1728.23   97.49 
   3  -5   3  12.599  36.396 
   3   5   3  -1.000  26.197 
   3   5   3  15.198  25.397 
   4  -5   3  793.02  113.29 
   4   5   3  736.13   99.19 
   4   5   3  672.73  106.09 
  -6  -6   3  556.64  106.39 
   6  -6  -3  411.06   90.09 
   6   6  -3  586.44  100.69 
  -5  -6   3 1135.69  136.69 
   5  -6  -3  966.30  113.99 
  -5   6   3 1193.38  108.39 
   5   6  -3 1067.49  119.89 
   4  -6  -3  -33.10   21.40 
   4  -6  -3  21.198  33.397 
  -4  -6   3  43.696  41.096 
  -4   6   3  -10.30   25.20 
   4   6  -3  20.098  30.797 
   3  -6  -3 2134.79  115.59 
  -3  -6   3 1910.11  117.59 
  -3  -6   3 2219.98   63.59 
   3   6  -3 1923.21  103.09 
  -3   6   3 2098.69   92.39 
   2  -6  -3  776.52   77.49 
  -2  -6   3  886.21   53.39 
  -2  -6   3  760.32   78.19 
  -2   6   3  845.52   54.59 
   2   6  -3  658.73   50.09 
   1  -6  -3  76.592  28.097 
  -1  -6   3  110.19   30.60 
  -1  -6   3  69.893  28.197 
   1   6  -3  129.99   21.20 
   0  -6   3 2343.17  113.49 
   0   6   3 2276.47  101.59 
   1  -6   3  851.81   95.49 
   1   6   3  791.22   76.39 
   2  -6   3  424.56   71.29 
   2   6   3  502.95   66.19 
   3  -6   3 1374.36  136.99 
   3   6   3 1470.85  102.49 
   3   6   3 1322.87  133.59 
   4  -6   3  94.891  50.395 
   4   6   3  126.29   50.69 
   4   6   3  120.09   49.50 
   6  -7  -3  219.88   69.99 
  -6  -7   3  182.68   65.99 
   6   7  -3  158.28   58.79 
   5  -7  -3  574.64   90.19 
  -5  -7   3  691.63  111.19 
   5   7  -3  579.44   91.99 
   4  -7  -3 1049.80  109.89 
   4  -7  -3 1378.16   85.89 
  -4  -7   3 1172.38  123.69 
  -4   7   3 1073.99   79.69 
   4   7  -3 1015.20  104.19 
  -3  -7   3  651.93   38.60 
  -3  -7   3  518.95   72.09 
   3  -7  -3  530.85   73.19 
   3   7  -3  613.74   69.99 
  -3   7   3  655.83   59.69 
  -2  -7   3 1489.05   95.09 
   2  -7  -3 1298.57   86.89 
  -2  -7   3 1428.96   72.29 
  -2   7   3 1304.77   66.19 
   2   7  -3 1270.27   69.49 
   1  -7  -3 1948.81   99.49 
  -1  -7   3 2136.59   99.89 
  -1  -7   3 2023.40  108.39 
   1   7  -3 2033.40   63.19 
   0  -7   3  81.392  31.297 
   0   7   3  154.18   38.10 
   1  -7   3 1113.99   89.09 
   1   7   3 1123.69   76.29 
   2  -7   3 1519.15  117.29 
   2   7   3 1749.43  103.59 
   3  -7   3   6.299  31.897 
   3   7   3  -7.699  25.197 
   3   7   3  27.497  32.697 
   4  -7   3  433.16   93.89 
   4   7   3  621.04   95.39 
   4   7   3  626.24   99.79 
  -6  -8   3  464.15  102.89 
   6  -8  -3  541.55   99.79 
   6   8  -3  504.05   91.99 
   5  -8  -3 1044.10  121.69 
  -5  -8   3  808.82  119.29 
   5   8  -3  848.92  111.99 
   4  -8  -3  69.793  37.396 
  -4  -8   3  121.39   49.80 
   4  -8  -3  78.092  47.095 
   4   8  -3  124.69   48.80 
  -4   8   3  136.29   39.00 
  -3  -8   3 2737.53  141.89 
   3  -8  -3 2546.95  131.79 
  -3  -8   3 2570.94   83.69 
   3  -8  -3 2483.85  116.99 
   3   8  -3 2193.78  112.59 
  -3   8   3 2443.36   96.79 
  -2  -8   3 1230.88   89.89 
   2  -8  -3 1402.66   92.69 
  -2  -8   3 1547.75   81.19 
   2   8  -3 1392.86   73.79 
  -2   8   3 1492.65   68.49 
   1  -8  -3  223.48   46.10 
  -1  -8   3  293.47   47.50 
  -1  -8   3  352.16   55.89 
   1   8  -3  246.98   26.90 
   0  -8   3 1837.02  106.89 
   0   8   3 1869.91   99.09 
   1  -8   3  755.92   94.59 
   1   8   3  761.02   84.19 
   2  -8   3  716.93   96.29 
   2   8   3  904.51   95.09 
   3  -8   3 1018.50  129.39 
   3   8   3 1096.79  115.59 
   3   8   3 1171.78  128.89 
   4  -8   3  251.27   78.09 
   4   8   3  347.17   79.49 
   4   8   3  330.77   76.19 
  -6  -9   3  167.78   75.99 
   6  -9  -3  275.97   76.39 
   6   9  -3  424.16   86.59 
   5  -9  -3  579.94   96.99 
  -5  -9   3  324.47   79.49 
   5   9  -3  507.65   86.29 
   4  -9  -3 1367.86   97.99 
  -4  -9   3 1267.77  129.59 
   4  -9  -3 1628.14  116.99 
   4   9  -3 1341.97  100.79 
  -3  -9   3  296.07   61.59 
   3  -9  -3  381.26   61.59 
   3  -9  -3  311.57   61.99 
  -3  -9   3  483.45   45.90 
  -3   9   3  449.36   46.70 
   3   9  -3  530.85   68.69 
  -2  -9   3  495.25   70.59 
  -2  -9   3  574.14   62.19 
   2  -9  -3  737.53   84.99 
   2   9  -3  461.55   52.99 
  -2   9   3  576.04   42.20 
  -1  -9   3 1684.43   96.69 
  -1  -9   3 1770.52  103.49 
   1  -9  -3 1511.15   96.69 
   1   9  -3 1659.63   59.39 
   0  -9   3  96.390  35.096 
   0   9   3  148.29   40.10 
   1  -9   3  946.91  103.09 
   1   9   3  944.11   93.19 
   2  -9   3 1797.62  129.99 
   2   9   3 1562.14  104.39 
   3  -9   3  29.197  40.096 
   3   9   3  -3.400  27.797 
   3   9   3  16.998  34.197 
   4  -9   3  528.15  101.89 
   4   9   3  758.72  110.19 
   4   9   3  664.03  110.49 
   6 -10  -3  683.13  111.79 
  -6 -10   3  537.45  111.79 
   6  10  -3  798.32  116.19 
   5 -10  -3  903.11  120.49 
  -5 -10   3 1074.89  142.39 
   5  10  -3 1174.78  131.49 
   4 -10  -3   2.700  30.697 
  -4 -10   3   1.900  36.396 
   4 -10  -3  36.696  33.597 
   4  10  -3  -28.80   24.70 
   3 -10  -3 2088.89  118.69 
   3 -10  -3 1983.00  122.79 
  -3 -10   3 1742.73  121.69 
  -3 -10   3 1928.81   83.19 
  -3  10   3 1974.50   76.99 
   3  10  -3 1996.70  106.79 
   2 -10  -3 1479.75   98.49 
  -2 -10   3 1562.94   87.79 
  -2 -10   3 1486.55  102.99 
   2  10  -3 1655.33   81.89 
  -2  10   3 1536.85   65.79 
  -1 -10   3  236.38   50.49 
  -1 -10   3  35.996  29.997 
   1 -10  -3  114.09   38.20 
   1  10  -3  263.67   31.20 
   0 -10   3 1481.35  102.39 
   0  10   3 1332.47   90.99 
   1 -10   3 1222.28  127.49 
   1  10   3 1034.30   98.29 
   2 -10   3  787.62  108.59 
   2  10   3  638.74   84.99 
   3 -10   3 1458.85  155.48 
   3  10   3 1289.87  129.19 
   4 -10   3  123.99   61.29 
   4  10   3  152.18   61.69 
   4  10   3  154.18   62.89 
  -6 -11   3  256.37   81.79 
   6 -11  -3  312.27   81.19 
   6  11  -3  321.57   84.19 
  -5 -11   3  375.76   89.09 
   5 -11  -3  437.56   87.59 
   5  11  -3  460.65   88.29 
  -4 -11   3 1155.28  134.59 
   4 -11  -3 1376.76  102.89 
   4 -11  -3 1323.17  134.99 
   4  11  -3 1121.69  111.89 
   3 -11  -3  665.43   84.99 
  -3 -11   3  608.44   59.39 
   3 -11  -3  478.85   76.49 
  -3 -11   3  438.36   75.49 
   3  11  -3  570.84   71.79 
  -2 -11   3  462.05   61.09 
  -2 -11   3  533.45   76.89 
   2 -11  -3  551.64   76.39 
   2  11  -3  599.44   62.19 
  -2  11   3  435.46   35.50 
   1 -11  -3 1684.93  105.99 
  -1 -11   3 1638.84  104.59 
  -1 -11   3 1698.33  107.09 
   1  11  -3 1726.13   65.99 
  -1  11   3 1655.23  101.29 
   0 -11   3  -15.00   26.30 
   0  11   3  10.199  24.098 
   1 -11   3 1194.98  121.59 
   1  11   3 1428.76  100.09 
   2 -11   3 1211.18  132.69 
   2  11   3 1106.69  111.19 
   3 -11   3  49.695  47.395 
   3  11   3   5.499  28.497 
   4 -11   3  696.83  118.99 
   4  11   3  525.75   95.59 
   4  11   3  534.55   95.89 
   6 -12  -3  533.75  106.89 
  -6 -12   3  432.66  110.59 
   6  12  -3  393.86   88.19 
  -5 -12   3  968.50  132.09 
   5 -12  -3 1321.47  135.99 
   5 -12  -3 1086.69  134.79 
   5  12  -3 1218.48  136.79 
   4 -12  -3   0.500  34.397 
   4 -12  -3   4.800  33.297 
  -4 -12   3  66.693  48.595 
   4  12  -3  -40.50   29.70 
   3 -12  -3 1586.44  114.69 
  -3 -12   3 1465.95  117.19 
  -3 -12   3 1422.86   82.79 
   3 -12  -3 1702.23  117.49 
   3  12  -3 1363.16   92.49 
   2 -12  -3 1552.64  106.99 
  -2 -12   3 1571.44  110.09 
  -2 -12   3 1419.56   93.49 
  -2  12   3 1516.15   60.19 
   2  12  -3 1578.34   83.19 
  -1 -12   3  88.191  42.396 
  -1 -12   3  70.193  35.796 
   1  12  -3  85.291  23.598 
  -1  12   3  93.491  36.496 
   0 -12   3 2841.42  138.09 
   0 -12   3 2951.30  154.18 
   0  12   3 2641.64  135.29 
   1 -12   3  254.27   68.19 
   1  12   3  217.48   52.99 
   2 -12   3  262.17   65.49 
   2  12   3  167.58   49.00 
   3 -12   3  661.73  106.39 
   3  12   3 1231.68  133.59 
   4 -12   3  -30.80   41.50 
   4  12   3  106.19   50.89 
   4  12   3  70.893  48.395 
  -6 -13   3  311.57   88.09 
   6 -13  -3  524.05  104.89 
   6  13  -3  280.17   83.09 
   5 -13  -3  277.17   67.59 
  -5 -13   3  211.18   72.59 
   5 -13  -3  237.38   71.29 
   5  13  -3  127.39   57.29 
   4 -13  -3 1208.28  129.09 
   4 -13  -3 1124.79  115.49 
  -4 -13   3 1550.94  154.28 
   4  13  -3 1356.86  126.79 
  -3 -13   3  390.16   80.59 
   3 -13  -3  423.06   76.29 
   3 -13  -3  427.96   79.89 
  -3 -13   3  390.26   56.19 
   3  13  -3  531.35   72.09 
  -2 -13   3  561.34   83.69 
  -2 -13   3  763.32   85.19 
   2 -13  -3  505.05   77.49 
   2  13  -3  628.24   66.59 
  -1 -13   3 1307.57  120.79 
  -1 -13   3 1191.58   95.69 
   1  13  -3 1221.68   60.19 
  -1  13   3 1080.39  103.99 
   0 -13   3  29.497  30.197 
   0 -13   3  21.998  33.897 
   0  13   3  -4.700  19.598 
   1 -13   3  863.11  117.19 
   1  13   3  655.53   87.79 
   2 -13   3  843.22  121.59 
   2  13   3  742.73   95.59 
   3 -13   3  -37.40   38.80 
   3  13   3  89.591  46.295 
   4 -13   3  423.36   96.79 
   4  13   3  646.94  108.59 
   4  13   3  736.83  115.49 
  -5 -14   3  949.91  135.29 
   5 -14  -3  963.50  128.29 
   5 -14  -3  869.61  109.69 
   5  14  -3  941.21  117.69 
   4 -14  -3  86.891  47.295 
   4 -14  -3  36.596  42.796 
  -4 -14   3  88.491  50.295 
   4  14  -3  23.798  35.696 
   3 -14  -3 1356.56  130.79 
   3 -14  -3 1591.44  122.29 
  -3 -14   3 1473.45   91.19 
  -3 -14   3 1760.62  130.79 
   3  14  -3 1622.34  103.29 
   2 -14  -3  739.83   92.09 
  -2 -14   3  868.61  104.39 
   2 -14  -3  719.73   98.69 
  -2 -14   3  896.41   95.39 
   2  14  -3  796.32   73.39 
  -1 -14   3   3.400  31.297 
  -1 -14   3  34.097  42.396 
  -1  14   3  -0.300  24.098 
   0 -14   3 1563.84  127.29 
   0 -14   3 1474.75  106.29 
   0  14   3 1556.84  108.19 
   1 -14   3  334.67   76.09 
   1  14   3  355.46   67.89 
   2 -14   3  297.87   76.59 
   2  14   3  252.57   61.79 
   3 -14   3  986.50  138.09 
   3  14   3  979.30  122.99 
   5 -15  -3  181.28   63.29 
  -5 -15   3  40.396  56.594 
   5 -15  -3  13.199  42.396 
   5  15  -3  74.193  48.795 
  -4 -15   3 1642.34  164.98 
   4 -15  -3 1799.52  132.79 
   4 -15  -3 1543.05  144.79 
   4  15  -3 1748.03  121.49 
  -3 -15   3  180.88   45.70 
   3 -15  -3  270.37   70.29 
  -3 -15   3  259.07   66.19 
   3 -15  -3  193.98   59.49 
   3  15  -3  72.193  39.296 
  -2 -15   3  182.68   53.89 
   2 -15  -3  299.77   65.49 
   2 -15  -3  294.27   74.19 
  -2 -15   3  274.67   57.09 
   2  15  -3  417.96   58.29 
  -1 -15   3 1672.93  123.69 
  -1 -15   3 1892.81  122.59 
  -1  15   3 1779.52  118.39 
   0 -15   3  -39.10   34.30 
   0 -15   3  -2.100  27.897 
   0  15   3  25.397  27.397 
   1 -15   3  980.00  127.59 
   1  15   3  799.92  101.29 
   2 -15   3  530.35  100.59 
   2  15   3  484.95   82.49 
   3 -15   3  -33.30   50.39 
   3  15   3  -16.50   32.70 
  -5 -16   3  650.63  121.19 
   5 -16  -3  738.83  111.59 
   5 -16  -3  692.93  111.79 
   5  16  -3  571.54   97.69 
   4 -16  -3  -18.20   39.90 
  -4 -16   3  45.395  49.095 
   4 -16  -3  -19.30   30.10 
   4  16  -3   6.599  34.397 
   3 -16  -3 1038.60  120.09 
  -3 -16   3 1120.69   89.49 
  -3 -16   3 1149.79  127.89 
   3 -16  -3 1099.99  126.39 
   3  16  -3 1233.68   93.99 
  -2 -16   3 1069.99  117.79 
   2 -16  -3 1215.48  128.69 
  -2 -16   3 1131.09  110.69 
   2 -16  -3 1354.36  140.49 
   2  16  -3  984.40   75.39 
  -1 -16   3  157.78   51.79 
  -1 -16   3  15.298  39.296 
  -1  16   3  57.094  39.596 
   0 -16   3 1020.20  122.69 
   0 -16   3 1446.06  104.69 
   0  16   3 1195.68  119.79 
   1 -16   3  353.86   81.99 
   1 -16   3  493.25   76.89 
   1  16   3  487.25   84.29 
   2 -16   3  284.57   82.59 
   2  16   3  183.98   57.69 
   3 -16   3  638.34  125.59 
   3  16   3  692.03  106.19 
   5 -17  -3  13.999  48.595 
  -5 -17   3  101.89   59.79 
   5 -17  -3  94.591  61.394 
   5  17  -3  18.298  46.795 
   4 -17  -3 1335.67  141.69 
  -4 -17   3 1421.46  158.48 
   4 -17  -3 1362.76  147.89 
   4  17  -3 1390.36  134.09 
   3 -17  -3  147.29   53.89 
   3 -17  -3  234.98   73.29 
  -3 -17   3  91.391  55.494 
   3  17  -3  326.07   61.89 
  -2 -17   3  943.91  105.29 
   2 -17  -3  796.52  113.79 
  -2 -17   3  675.73   98.39 
   2 -17  -3  780.42  101.19 
   2  17  -3  963.50   90.49 
  -1 -17   3 1218.68  121.49 
  -1 -17   3 1090.29  117.79 
  -1  17   3 1154.78  118.39 
   0 -17   3  -31.20   39.50 
   0 -17   3  36.696  34.597 
   0  17   3  119.29   47.50 
   1 -17   3  876.11  101.89 
   1 -17   3  541.05  100.79 
   1  17   3  602.64   92.19 
   2 -17   3  388.46   98.09 
   2  17   3  635.54   96.49 
   3 -17   3  -61.39   47.90 
   3  17   3  77.192  44.896 
   5 -18  -3  531.25  105.89 
  -5 -18   3  538.65  117.99 
   5 -18  -3  510.15   98.19 
   5  18  -3  655.43  108.29 
  -4 -18   3  -1.400  50.795 
   4 -18  -3  -50.69   40.00 
   4 -18  -3  -5.299  37.196 
   4  18  -3  -1.900  38.296 
   3 -18  -3  801.02  108.39 
   3 -18  -3  805.02  117.09 
  -3 -18   3  862.81  117.79 
   3  18  -3  946.31  102.99 
   2 -18  -3  361.26   82.89 
  -2 -18   3  434.26   83.79 
  -2 -18   3  294.67   65.79 
  -2  18   3  340.17   71.19 
  -1 -18   3   6.899  35.996 
  -1 -18   3  62.994  47.495 
  -1  18   3   7.899  27.197 
   0 -18   3  783.62  115.89 
   0 -18   3 1016.10  113.49 
   0  18   3  881.91  112.09 
   1 -18   3  293.07   79.49 
   1 -18   3  467.85   79.39 
   1  18   3  283.87   66.79 
   2 -18   3  191.98   81.79 
   2  18   3  146.69   53.59 
   4 -19  -3  852.81  128.79 
  -4 -19   3  719.03  119.29 
   4 -19  -3  762.82  114.89 
   4  19  -3  668.63   97.49 
   3 -19  -3  51.195  55.294 
   3 -19  -3  111.49   53.49 
  -3 -19   3  79.792  56.594 
   3  19  -3  87.391  45.195 
  -2 -19   3  543.25   84.99 
  -2 -19   3  458.45   86.59 
  -2  19   3  526.95   87.89 
  -1 -19   3  905.41  109.99 
  -1 -19   3  939.51  117.69 
  -1  19   3 1087.29  124.49 
   0 -19   3  72.093  47.595 
   0 -19   3  117.79   58.89 
   0  19   3  24.997  32.297 
   1 -19   3  310.57   90.09 
   1 -19   3  643.44   91.39 
   1  19   3  453.95   83.59 
   2 -19   3  403.26   97.69 
   2  19   3  522.65  102.59 
   4 -20  -3  -12.90   44.90 
   4 -20  -3   3.700  52.295 
  -4 -20   3  -28.00   43.30 
   4  20  -3  -42.90   36.70 
  -3 -20   3  533.15   99.39 
   3 -20  -3  435.86   90.59 
   3 -20  -3  967.40  138.49 
  -2 -20   3  539.85   86.59 
   2 -20  -3  652.43  112.59 
  -2 -20   3  519.35   94.09 
  -2  20   3  662.33  102.39 
  -1 -20   3  147.39   62.79 
  -1 -20   3  109.89   54.79 
  -1  20   3  120.49   52.29 
   0 -20   3  809.72  123.29 
   0 -20   3  783.02  102.19 
   0  20   3  773.72  106.09 
   1 -20   3  234.88   79.59 
   1  20   3  166.48   56.29 
   2 -20   3  199.78   81.59 
   2  20   3  207.18   63.89 
   3 -21  -3  111.49   58.39 
  -3 -21   3  70.393  57.094 
   3 -21  -3  140.59   73.19 
  -2 -21   3  535.25   95.49 
   2 -21  -3  526.95  108.09 
  -2 -21   3  575.24   97.09 
  -2  21   3  501.15   87.89 
  -1 -21   3  945.71  116.79 
  -1 -21   3  853.31  117.29 
  -1  21   3  943.11  120.49 
   0 -21   3  -2.100  50.795 
   0 -21   3  60.094  46.395 
   0  21   3  -5.999  35.596 
   1 -21   3  586.04  120.19 
   1  21   3  595.34  106.39 
   3 -22  -3  278.87   85.29 
   3 -22  -3  253.47   72.49 
  -3 -22   3  343.97   89.69 
  -3  22   3  275.77   75.39 
   2 -22  -3  602.84  110.09 
  -2 -22   3  777.52  109.39 
  -2 -22   3  542.25  100.49 
  -2  22   3  694.93  109.79 
  -1 -22   3  36.696  48.395 
  -1 -22   3  50.195  49.995 
  -1  22   3  103.59   53.49 
   0 -22   3  844.82  132.89 
   0  22   3  699.93  108.29 
   1 -22   3  254.87   89.99 
   1  22   3  318.47   81.69 
  -2 -23   3  128.69   59.99 
  -2 -23   3  189.88   73.79 
   2 -23  -3  195.68   76.29 
  -2  23   3  157.28   59.09 
  -1 -23   3  950.10  137.59 
  -1  23   3  902.21  122.59 
   0 -23   3  48.095  59.494 
   0  23   3  69.493  50.995 
   6   0  -4 1116.09  137.99 
  -6   0   4 1208.88  143.29 
  -5   0   4  -3.100  34.097 
   5   0  -4  33.997  45.295 
   4   0  -4  804.42   97.79 
  -4   0   4  911.81  103.09 
   3   0  -4 1432.96   93.59 
  -3   0   4 1420.76   97.29 
  -3   0   4 1455.75   69.19 
   2   0  -4   6.799  22.098 
  -2   0   4  63.194  24.798 
  -2   0   4   1.200  21.898 
  -1   0   4 1017.60   76.79 
   1   0  -4 1088.49   63.49 
   0   0   4  596.44   78.79 
   0   0   4  559.14   50.39 
   1   0   4  272.07   39.50 
   1   0   4  278.87   60.09 
   2   0   4 1596.94   90.69 
   2   0   4 1892.41  135.49 
   3   0   4  143.49   55.69 
   4   0   4  188.48   66.39 
  -6  -1   4  37.096  49.695 
   6  -1  -4  53.095  47.195 
   6   1  -4  47.295  43.396 
  -6   1   4  89.491  53.395 
  -5  -1   4  976.70  110.39 
   5  -1  -4 1286.17  136.59 
   5   1  -4  905.11  109.79 
  -5   1   4 1018.00  113.09 
  -4  -1   4  604.54   85.69 
   4  -1  -4  639.34   90.79 
   4   1  -4  564.34   81.79 
  -4   1   4  530.85   75.59 
  -3  -1   4  583.64   43.20 
   3  -1  -4  590.84   71.69 
  -3  -1   4  482.45   70.69 
   3   1  -4  708.13   79.49 
  -3   1   4  690.03   48.00 
  -3   1   4  681.83   78.19 
   2  -1  -4 1819.62   93.09 
  -2  -1   4 1663.53  102.69 
  -2  -1   4 1870.21   89.49 
  -2   1   4 1948.31  105.99 
  -2   1   4 1703.33   87.99 
   2   1  -4 1966.20   91.39 
  -1  -1   4  853.41   85.09 
   1  -1  -4  892.71   60.69 
  -1   1   4  882.51   71.29 
   1   1  -4  750.03   51.29 
   0  -1   4 1134.19   56.49 
   0  -1   4 1152.98   90.19 
   0   1   4 1212.98   64.59 
   0   1   4 1133.59   88.89 
   1  -1   4 2593.04  147.09 
   1  -1   4 2752.32   97.89 
   1   1   4 2619.74  103.99 
   1   1   4 2739.33  150.88 
   2  -1   4  46.095  40.996 
   2   1   4  27.597  27.097 
   2   1   4  15.698  34.597 
   3  -1   4  868.11  119.39 
   3   1   4  827.62  114.69 
   4  -1   4  642.44  116.09 
   4   1   4  941.61  139.69 
   6  -2  -4  870.71  122.59 
  -6  -2   4 1010.10  130.99 
   6   2  -4  993.70  128.19 
  -6   2   4 1111.79  128.59 
  -5  -2   4  -12.40   35.40 
   5  -2  -4  61.694  44.296 
   5   2  -4   8.899  35.296 
  -5   2   4  68.493  43.096 
  -4  -2   4 1216.48  118.89 
   4  -2  -4 1042.20  110.69 
   4   2  -4 1044.10  107.99 
  -4   2   4 1041.20  105.79 
  -3  -2   4 2230.88   80.49 
  -3  -2   4 2075.89  121.99 
   3  -2  -4 1948.61  111.79 
  -3   2   4 2074.09  113.29 
   3   2  -4 2002.70  107.19 
  -2  -2   4  -10.70   21.00 
  -2  -2   4   4.400  15.398 
   2  -2  -4  11.699  23.998 
   2   2  -4  36.696  22.898 
   1  -2  -4 1589.14   83.39 
  -1  -2   4 1569.34   93.99 
  -1   2   4 1523.15   93.29 
   1   2  -4 1606.14   69.99 
   0  -2   4  500.45   72.19 
   0  -2   4  443.86   33.50 
   0   2   4  522.45   53.69 
   0   2   4  569.04   77.79 
   1  -2   4  515.95   84.59 
   1  -2   4  338.67   39.30 
   1   2   4  251.07   43.00 
   1   2   4  381.46   71.69 
   2  -2   4 1542.95  124.19 
   2   2   4 1799.32   97.99 
   2   2   4 1707.13  128.99 
   3  -2   4  235.98   66.29 
   3   2   4  358.46   84.49 
   4  -2   4  92.591  60.894 
   4   2   4  256.57   79.99 
   6  -3  -4  94.591  53.295 
  -6  -3   4   6.599  44.696 
  -6   3   4  10.799  47.295 
   6   3  -4  51.395  50.395 
  -5  -3   4 1708.23  131.49 
   5  -3  -4 1593.74  151.08 
  -5   3   4 1434.76  109.99 
   5   3  -4 1531.35  117.69 
   4  -3  -4  388.36   71.89 
  -4  -3   4  293.07   65.49 
  -4   3   4  526.45   76.69 
   4   3  -4  587.94   84.19 
  -3  -3   4  419.06   42.00 
   3  -3  -4  252.77   52.99 
  -3  -3   4  294.87   56.19 
  -3   3   4  334.27   55.39 
   3   3  -4  388.56   60.29 
  -2  -3   4 2809.12  110.99 
   2  -3  -4 2815.82  121.49 
  -2  -3   4 2758.52  136.29 
   2   3  -4 2806.12  107.59 
   1  -3  -4  270.67   47.10 
  -1  -3   4  315.77   51.79 
   1   3  -4  272.87   34.80 
   0  -3   4 1370.86   51.49 
   0  -3   4 1440.86   99.89 
   0   3   4 1348.47   75.49 
   0   3   4 1406.16   99.19 
   1  -3   4 1943.91  124.99 
   1   3   4 1819.42   93.79 
   1   3   4 1498.75  113.69 
   2  -3   4   5.199  29.897 
   2   3   4  60.694  29.697 
   2   3   4  -17.80   31.70 
   3  -3   4  979.90  128.09 
   3   3   4 1464.95  161.38 
   3   3   4 1055.99  108.89 
   4  -3   4  568.14  111.49 
   4   3   4  634.04  109.49 
   6  -4  -4 1159.38  145.49 
  -6  -4   4  958.20  132.49 
  -6   4   4 1180.48  129.39 
   6   4  -4 1065.49  133.79 
  -5  -4   4  15.198  35.196 
   5  -4  -4  -32.70   31.00 
   5   4  -4  19.698  35.096 
  -5   4   4  -9.099  31.197 
  -4  -4   4  814.42  101.39 
   4  -4  -4  861.01  100.49 
   4   4  -4  891.11  100.19 
  -4   4   4 1064.59  102.89 
   3  -4  -4 1760.92  108.49 
  -3  -4   4 1551.34  109.79 
  -3  -4   4 1635.14   70.49 
  -3   4   4 1617.24   97.49 
   3   4  -4 1536.15   94.59 
   2  -4  -4  88.891  31.897 
  -2  -4   4  37.396  32.497 
  -2  -4   4  100.79   30.20 
   2   4  -4  49.995  24.298 
  -1  -4   4 1990.50  105.99 
   1  -4  -4 2249.38  106.09 
   1   4  -4 2277.97   75.09 
   0  -4   4  583.64   29.50 
   0  -4   4  666.23   81.29 
   0   4   4  540.95   58.99 
   1  -4   4  142.89   46.30 
   1   4   4  159.78   42.30 
   1   4   4  64.993  36.896 
   2  -4   4 1963.90  137.39 
   2   4   4 1763.02  133.79 
   2   4   4 1786.02  106.29 
   3  -4   4  416.26   90.09 
   3   4   4  435.16   72.29 
   3   4   4  228.28   64.29 
   4  -4   4  396.66   98.19 
   4   4   4  250.87   75.89 
   6  -5  -4  191.08   66.69 
  -6  -5   4  169.98   68.19 
   6   5  -4  55.094  49.595 
   5  -5  -4 1631.64  154.88 
  -5  -5   4 1578.04  128.49 
  -5   5   4 1568.64  113.39 
   5   5  -4 1632.94  147.49 
  -4  -5   4  554.24   90.99 
   4  -5  -4  479.35   77.89 
  -4   5   4  500.25   72.19 
   4   5  -4  529.15   79.79 
   3  -5  -4  623.74   83.09 
  -3  -5   4  748.53   94.09 
  -3  -5   4  566.64   51.19 
   3   5  -4  785.32   81.69 
  -3   5   4  508.15   64.89 
  -2  -5   4 1716.03   87.39 
  -2  -5   4 1529.45  107.09 
   2  -5  -4 1716.63  101.49 
   2   5  -4 2005.70   85.29 
   1  -5  -4  168.68   39.90 
  -1  -5   4  264.37   48.70 
   1   5  -4  204.68   26.50 
   0  -5   4  867.11   94.99 
   0   5   4 1194.98   75.59 
   1  -5   4  961.80  106.69 
   1   5   4 1013.60   75.89 
   1   5   4 1042.20  113.99 
   2  -5   4  77.392  46.295 
   2   5   4  27.697  28.197 
   2   5   4  73.093  40.096 
   3  -5   4  992.80  134.89 
   3   5   4  918.61  103.79 
   3   5   4 1245.38  147.69 
   4  -5   4  394.46   96.79 
   4   5   4  520.25  104.09 
  -6  -6   4 1077.09  147.09 
   6  -6  -4  798.52  122.59 
   6   6  -4  828.42  121.39 
   5  -6  -4  -9.399  32.397 
  -5  -6   4  37.696  43.096 
   5   6  -4  26.197  42.396 
  -5   6   4  56.294  40.196 
   4  -6  -4  796.92  100.39 
  -4  -6   4 1241.08  133.19 
   4   6  -4  989.90  104.79 
  -4   6   4 1011.90   94.49 
   3  -6  -4 1295.77  118.79 
  -3  -6   4 1175.88   64.49 
  -3  -6   4 1242.98  123.89 
   3   6  -4 1121.99   79.49 
  -3   6   4 1209.88   80.89 
   2  -6  -4  157.48   44.70 
  -2  -6   4  152.48   46.60 
  -2  -6   4  103.59   31.70 
   2   6  -4  146.79   32.80 
  -1  -6   4 2389.86  120.89 
   1  -6  -4 2775.82  126.09 
   1   6  -4 2599.44   72.39 
   0  -6   4  519.75   78.39 
   0   6   4  527.95   63.29 
   1  -6   4  144.99   49.80 
   1   6   4  108.39   34.30 
   2  -6   4 1569.14  159.38 
   2   6   4 1456.15   98.79 
   2   6   4 1450.56  146.69 
   3  -6   4  170.68   66.39 
   3   6   4  210.38   58.89 
   3   6   4  156.88   63.49 
   6  -7  -4  133.39   62.19 
  -6  -7   4  34.497  59.694 
   6   7  -4  130.39   56.09 
   5  -7  -4 1370.36  139.49 
  -5  -7   4 1336.17  145.89 
   5   7  -4 1183.08  126.69 
  -4  -7   4  697.83  101.79 
   4  -7  -4  666.73   93.99 
  -4   7   4  895.91   85.99 
   4   7  -4  552.84   80.49 
  -3  -7   4 1023.30  111.29 
  -3  -7   4 1013.30   64.69 
   3  -7  -4  928.81   98.79 
  -3   7   4 1003.80   72.29 
   3   7  -4 1006.30   75.19 
  -2  -7   4 1191.58   97.49 
  -2  -7   4 1450.65   84.29 
   2  -7  -4 1401.66   97.29 
   2   7  -4 1202.58   68.09 
  -1  -7   4  88.191  34.797 
   1  -7  -4  39.396  33.897 
  -1   7   4  11.499  22.698 
   0  -7   4 1295.67   98.39 
   0   7   4  957.30   89.29 
   1  -7   4  561.24   87.29 
   1   7   4  513.75   69.29 
   2  -7   4  -16.30   32.50 
   2   7   4  21.698  24.598 
   2   7   4  24.198  34.097 
   3  -7   4  430.46   93.29 
   3   7   4  453.25   78.89 
   3   7   4  306.47   77.89 
  -6  -8   4 1147.59  157.58 
   6  -8  -4  920.11  132.69 
   6   8  -4  877.21  121.09 
   5  -8  -4  -12.90   34.80 
  -5  -8   4  -20.50   42.10 
   5   8  -4  -16.20   32.10 
  -4  -8   4 1081.29  122.49 
   4  -8  -4 1393.16  139.19 
   4   8  -4 1561.54  106.79 
  -4   8   4 1408.06   88.39 
  -3  -8   4  928.81  109.29 
   3  -8  -4  805.02   94.89 
  -3  -8   4  883.51   63.69 
  -3   8   4  853.11   66.49 
   3   8  -4  948.41   88.39 
  -2  -8   4  71.193  32.697 
  -2  -8   4  201.98   51.39 
   2  -8  -4  101.99   43.80 
   2   8  -4  156.68   33.70 
  -1  -8   4 1840.92  118.49 
  -1  -8   4 2080.09  115.69 
  -1   8   4 2136.39  112.09 
   0  -8   4  986.50  103.79 
   0   8   4 1170.98   84.09 
   1  -8   4  139.99   53.39 
   1   8   4  240.18   52.29 
   2  -8   4  654.23  102.59 
   2   8   4 1179.88  114.19 
   2   8   4 1176.08  137.59 
   3  -8   4  272.27   79.39 
   3   8   4  402.56   84.79 
   3   8   4  345.77   72.99 
  -6  -9   4  93.191  60.994 
   6  -9  -4  268.57   79.59 
   6   9  -4  77.292  53.395 
   5  -9  -4 1147.79  134.79 
  -5  -9   4 1162.28  136.09 
   5   9  -4 1372.86  136.09 
   4  -9  -4  493.15   84.99 
  -4  -9   4  460.45   89.29 
   4   9  -4  474.65   73.39 
  -3  -9   4  933.71  113.59 
  -3  -9   4 1096.49   81.69 
   3  -9  -4  971.70  106.79 
  -3   9   4 1089.29   72.29 
   3   9  -4  990.40   76.49 
  -2  -9   4  992.80   78.29 
   2  -9  -4  816.62   93.09 
  -2  -9   4 1141.09  117.99 
   2   9  -4  988.80   60.59 
  -1  -9   4  144.29   44.50 
  -1  -9   4  154.08   48.50 
  -1   9   4  78.892  32.597 
   0  -9   4  645.74   87.19 
   0   9   4  701.83   79.39 
   1  -9   4 1063.19  121.69 
   1   9   4 1442.36   99.19 
   2  -9   4  15.198  40.696 
   2   9   4  -17.40   23.90 
   3  -9   4  451.85  101.29 
   3   9   4  312.47   69.19 
   3   9   4  532.45  102.59 
  -6 -10   4  901.21  138.49 
   6 -10  -4  769.12  120.39 
   6  10  -4  701.03  110.39 
   5 -10  -4   6.899  34.197 
  -5 -10   4  -49.40   30.40 
   5  10  -4  10.299  34.697 
   4 -10  -4 1055.89  121.79 
  -4 -10   4 1042.30  124.79 
   4  10  -4 1375.56  100.89 
  -3 -10   4  891.21  107.59 
   3 -10  -4 1039.40  114.09 
   3  10  -4 1026.00   93.39 
  -2 -10   4  106.79   41.40 
  -2 -10   4  104.89   46.20 
   2 -10  -4  57.294  44.496 
   2  10  -4  96.690  30.397 
  -1 -10   4 1585.64  108.79 
  -1 -10   4 1740.63  120.39 
  -1  10   4 1762.52  108.69 
   0 -10   4 1427.66  111.99 
   0  10   4 1672.53  106.49 
   1 -10   4  450.05   85.89 
   1  10   4  299.97   60.89 
   2 -10   4  813.72  116.89 
   2  10   4 1051.19  112.99 
   3 -10   4  227.28   80.39 
   3  10   4  183.58   61.69 
   3  10   4  264.77   69.49 
  -6 -11   4  128.19   70.89 
   6 -11  -4  86.991  65.093 
   6  11  -4  180.38   68.69 
  -5 -11   4  806.42  118.99 
   5 -11  -4  830.72  119.89 
   5  11  -4 1011.70  119.39 
   4 -11  -4  390.96   77.29 
  -4 -11   4  461.55   93.69 
   4  11  -4  517.95   78.69 
   3 -11  -4  851.01  105.09 
  -3 -11   4  932.61  112.29 
   3  11  -4  714.43   77.49 
  -2 -11   4 1410.96  112.69 
  -2 -11   4 1255.77   95.89 
  -1 -11   4  207.48   57.99 
  -1 -11   4  168.18   49.30 
  -1  11   4  192.38   49.30 
   0 -11   4 1190.98  123.39 
   0  11   4 1386.66  101.19 
   1 -11   4  997.00  124.69 
   1  11   4  873.91   97.49 
   2 -11   4  -18.90   34.30 
   2  11   4  26.797  30.497 
   3 -11   4  301.97   86.19 
   3  11   4  335.17   76.09 
   3  11   4  110.79   57.29 
   6 -12  -4  911.11  140.09 
  -6 -12   4  773.12  134.59 
   6  12  -4  780.72  118.79 
  -5 -12   4  -25.00   34.60 
   5 -12  -4  -22.20   33.80 
   5  12  -4  -22.30   32.30 
  -4 -12   4  615.94  100.49 
   4 -12  -4  671.13  101.59 
   4  12  -4  494.05   79.09 
   3 -12  -4 1211.28  124.49 
  -3 -12   4 1275.37  133.69 
   3  12  -4 1350.16   90.19 
  -2 -12   4  -22.00   33.80 
  -2 -12   4  21.598  35.596 
   2 -12  -4  39.996  37.496 
  -1 -12   4 1413.56  109.99 
  -1 -12   4 1525.25  115.49 
  -1  12   4 1554.24  107.99 
   0 -12   4  777.22  104.19 
   0  12   4  700.33   91.59 
   1 -12   4  32.697  41.996 
   1  12   4  49.695  30.497 
   2 -12   4  756.72  120.49 
   2  12   4  781.02  101.19 
   3 -12   4  65.693  51.395 
   3  12   4  217.18   62.89 
   3  12   4  171.78   63.89 
  -5 -13   4 1087.09  144.59 
   5 -13  -4  719.73  112.79 
   5  13  -4  676.23   98.89 
  -4 -13   4  43.996  43.496 
   4 -13  -4  62.094  44.496 
   4  13  -4  85.991  47.095 
  -3 -13   4  407.96   80.49 
   3 -13  -4  332.17   71.69 
   3  13  -4  377.96   61.29 
  -2 -13   4 1352.86  136.69 
   2 -13  -4 1315.17  128.79 
  -2 -13   4 1498.95  106.89 
  -1 -13   4  130.09   51.59 
  -1 -13   4  160.88   54.19 
  -1  13   4  242.78   58.29 
   0 -13   4  665.83   91.69 
   0 -13   4  674.23  102.09 
   0  13   4  608.74   87.59 
   1 -13   4  920.11  119.49 
   1  13   4 1202.28  119.89 
   2 -13   4  16.298  41.796 
   2  13   4   9.199  31.297 
   3 -13   4  347.77   96.19 
   3  13   4  670.43  108.89 
   5 -14  -4  -51.19   39.10 
  -5 -14   4  -19.40   45.90 
   5  14  -4  31.997  49.395 
   4 -14  -4  639.74  100.59 
  -4 -14   4  684.53  102.79 
   4  14  -4  743.53   97.99 
  -3 -14   4  927.81  116.19 
   3 -14  -4 1066.29  123.79 
  -2 -14   4  34.497  37.296 
   2 -14  -4  -30.40   28.70 
  -2 -14   4   2.600  29.997 
  -1 -14   4 1546.95  119.29 
  -1 -14   4 1560.04  125.19 
  -1  14   4 1329.47  128.09 
   0 -14   4  670.03   95.89 
   0 -14   4  572.64   98.39 
   0  14   4  598.24   88.09 
   1 -14   4  31.997  48.195 
   1  14   4  35.396  31.797 
   2 -14   4  852.41  128.69 
   2  14   4  842.82  114.89 
   5 -15  -4  784.02  124.79 
  -5 -15   4  912.11  136.19 
   5  15  -4  563.34   94.49 
  -4 -15   4  144.99   58.89 
   4 -15  -4  188.08   63.19 
   4  15  -4  128.79   50.89 
  -3 -15   4  106.59   55.59 
   3 -15  -4  184.58   64.39 
  -2 -15   4 2614.74  161.08 
  -2 -15   4 2338.37  139.59 
   2 -15  -4 2234.78  145.19 
  -1 -15   4  157.68   59.39 
  -1 -15   4  76.292  43.096 
  -1  15   4  169.48   52.69 
   0 -15   4  625.64   99.49 
   0 -15   4  494.05   80.99 
   0  15   4  601.64   88.89 
   1 -15   4 1230.48  150.58 
   1  15   4 1006.50  119.99 
   2 -15   4  23.098  48.395 
   2  15   4  15.398  35.596 
  -5 -16   4  -39.00   47.40 
   5 -16  -4  24.798  42.596 
   5  16  -4  -44.90   34.30 
   4 -16  -4  673.43  107.79 
  -4 -16   4  710.23  112.79 
   4  16  -4  699.43   95.29 
  -3 -16   4 1139.99  137.99 
   3 -16  -4  993.90  121.29 
  -2 -16   4  35.696  41.996 
  -2 -16   4  -10.80   35.10 
  -2  16   4  -7.599  30.397 
  -1 -16   4 1374.06  135.99 
  -1 -16   4 1166.68  127.99 
  -1  16   4 1113.99  117.99 
   0 -16   4  168.58   71.09 
   0 -16   4  390.86   74.79 
   0  16   4  287.67   69.49 
   1 -16   4   1.800  45.595 
   1  16   4  -5.699  28.497 
   2 -16   4  925.31  144.49 
   2  16   4  804.62  114.19 
   4 -17  -4  167.68   65.19 
  -4 -17   4  170.78   71.79 
   3 -17  -4  317.07   74.59 
  -3 -17   4  269.17   78.19 
  -2 -17   4 1272.07  140.79 
  -2 -17   4 1054.89  117.99 
  -2  17   4 1228.68  134.49 
  -1 -17   4  266.27   66.79 
  -1 -17   4  275.57   76.19 
  -1  17   4  363.16   74.09 
   0 -17   4  376.56   90.99 
   0 -17   4  383.36   78.89 
   0  17   4  443.16   82.19 
   1 -17   4  914.01  136.59 
   1 -17   4 1108.49  129.19 
   1  17   4 1464.45  151.58 
   2 -17   4  -25.20   50.29 
   2  17   4   4.200  42.096 
  -4 -18   4  593.74  113.69 
  -3 -18   4  497.25   95.59 
   3 -18  -4  868.51  125.99 
  -2 -18   4  -17.80   36.00 
  -2 -18   4  12.899  39.796 
  -2  18   4  32.497  39.696 
  -1 -18   4 1074.89  127.69 
  -1 -18   4  892.31  125.49 
  -1  18   4  892.11  116.79 
   0 -18   4  733.23  102.89 
   0 -18   4  572.84  107.69 
   0  18   4  650.04  104.89 
   1 -18   4   3.100  49.595 
   1 -18   4  97.190  49.895 
   1  18   4  64.394  48.995 
   4 -19  -4  260.57   78.49 
  -4 -19   4  287.17   80.59 
  -3 -19   4  294.57   81.89 
   3 -19  -4  234.28   71.49 
  -2 -19   4 1210.38  132.89 
  -2 -19   4 1370.96  150.98 
  -2  19   4 1136.89  135.89 
  -1 -19   4  177.28   69.59 
  -1 -19   4  286.07   72.49 
  -1  19   4  268.97   66.89 
   0 -19   4  335.97   83.59 
   0 -19   4  237.08   81.19 
   0  19   4  329.07   74.19 
   1 -19   4  754.72  107.19 
   1 -19   4  987.40  152.08 
   1  19   4  915.61  125.89 
  -3 -20   4  232.48   71.99 
   3 -20  -4  422.46   92.19 
  -2 -20   4  38.296  47.595 
  -2 -20   4  -4.000  42.796 
  -2  20   4  -0.800  34.897 
  -1 -20   4  733.73  118.79 
  -1 -20   4  703.33  104.99 
  -1  20   4  628.34  105.09 
   0 -20   4  663.63  104.39 
   0 -20   4  400.86  104.59 
   0  20   4  636.14  108.79 
  -3 -21   4  210.38   71.19 
  -3  21   4  328.37   80.79 
  -2 -21   4  775.82  119.99 
  -2 -21   4  711.33  110.89 
  -2  21   4  904.41  125.69 
  -1 -21   4  98.490  58.094 
  -1 -21   4  94.691  63.394 
  -1  21   4  158.78   58.79 
   0 -21   4  192.98   75.29 
   0 -21   4  369.26   85.89 
   0  21   4  424.36   90.89 
  -6   0   5  -2.300  39.996 
   6   0  -5  -18.30   42.80 
   5   0  -5  751.02  102.29 
  -5   0   5  639.74   99.29 
  -4   0   5 1003.10  113.39 
   4   0  -5 1078.19  110.09 
  -3   0   5   4.500  18.198 
   3   0  -5  -10.70   27.10 
  -3   0   5   3.400  24.098 
   2   0  -5 1057.59   77.29 
  -2   0   5  975.70   94.79 
  -1   0   5 1095.59   66.19 
  -1   0   5 1083.09  108.19 
   0   0   5  227.68   60.59 
   1   0   5 1303.97  140.59 
   2   0   5  81.992  57.194 
   3   0   5   5.699  47.395 
   6  -1  -5 1136.99  141.39 
  -6  -1   5 1100.79  137.19 
   6   1  -5 1204.48  146.99 
  -6   1   5  965.50  125.69 
   5  -1  -5  497.65   87.29 
  -5  -1   5  737.03  107.29 
  -5   1   5  719.63  103.59 
   5   1  -5  641.34   98.99 
  -4  -1   5  543.65   84.79 
   4  -1  -5  505.65   78.99 
   4   1  -5  543.15   84.19 
  -4   1   5  483.65   82.89 
  -3  -1   5 1319.07  126.39 
  -3  -1   5 1291.97   78.29 
   3  -1  -5 1295.77   94.39 
  -3   1   5 1392.16   84.99 
  -3   1   5 1257.87  100.19 
   3   1  -5 1298.07   91.59 
   2  -1  -5  593.94   70.99 
  -2  -1   5  492.65   75.89 
  -2  -1   5  414.96   61.69 
  -2   1   5  473.15   68.69 
   2   1  -5  564.94   64.09 
  -1  -1   5  362.66   45.00 
  -1  -1   5  336.97   65.89 
  -1   1   5  396.96   67.29 
  -1   1   5  485.25   56.89 
   0  -1   5 1459.45  113.99 
   0   1   5 1369.46   77.49 
   0   1   5 1454.85  138.89 
   1  -1   5  122.79   55.39 
   1   1   5  100.89   51.59 
   2  -1   5  274.37   72.99 
   2   1   5  264.47   78.09 
   3  -1   5  496.95  100.19 
   3   1   5  639.24  118.69 
   6  -2  -5  -27.30   40.90 
  -6  -2   5  104.69   59.79 
   6   2  -5  79.292  53.495 
  -6   2   5  28.097  49.495 
  -5  -2   5 1416.56  148.29 
   5  -2  -5 1424.36  144.09 
   5   2  -5 1503.65  145.49 
  -5   2   5 1301.07  129.09 
  -4  -2   5 1179.38  125.79 
   4  -2  -5 1518.75  140.49 
   4   2  -5 1037.30  107.09 
  -4   2   5 1297.77  124.29 
  -3  -2   5  160.18   35.80 
  -3  -2   5  194.68   55.39 
   3  -2  -5  175.48   48.30 
  -3   2   5  143.19   36.60 
  -3   2   5  131.19   43.30 
   3   2  -5  161.38   44.50 
  -2  -2   5  586.74   71.59 
   2  -2  -5  828.72   84.59 
  -2  -2   5  727.93   92.59 
  -2   2   5  688.13   79.29 
   2   2  -5  771.12   72.49 
  -1  -2   5 1181.18   95.49 
  -1   2   5  984.50   69.69 
  -1   2   5 1273.77   99.29 
   0  -2   5  208.08   57.29 
   0   2   5  143.39   51.09 
   0   2   5  157.88   37.40 
   1  -2   5 1161.68  130.89 
   1   2   5 1242.68  134.49 
   2  -2   5  227.18   69.29 
   2   2   5  323.97   79.99 
   3  -2   5  161.58   74.19 
   3   2   5  146.79   67.09 
   6  -3  -5 1042.80  141.69 
  -6  -3   5 1103.39  145.39 
  -6   3   5 1221.68  135.29 
   6   3  -5 1061.09  136.19 
   5  -3  -5  279.87   69.29 
  -5  -3   5  371.26   86.59 
   5   3  -5  262.47   68.19 
  -5   3   5  292.07   65.59 
   4  -3  -5  103.49   47.30 
  -4  -3   5  29.097  41.896 
   4   3  -5  112.49   46.50 
  -4   3   5  125.69   48.60 
  -3  -3   5 2725.83  117.59 
   3  -3  -5 2746.03  140.89 
  -3  -3   5 2966.70  163.48 
  -3   3   5 2646.64  142.19 
   3   3  -5 2853.91  129.19 
  -2  -3   5  99.390  35.196 
  -2  -3   5  202.38   58.09 
   2  -3  -5  297.37   56.09 
  -2   3   5  102.19   36.40 
   2   3  -5  163.78   37.60 
  -1  -3   5  427.36   67.69 
  -1   3   5  564.74   64.79 
  -1   3   5  495.45   73.89 
   0  -3   5 1046.00  112.59 
   0   3   5 1249.97  132.99 
   0   3   5 1107.29   76.39 
   1  -3   5  141.59   58.79 
   1   3   5  241.48   67.79 
   2  -3   5  750.72  113.89 
   2   3   5  630.64  110.59 
   3  -3   5  374.26   93.09 
   3   3   5  547.85  112.89 
  -6  -4   5  35.996  54.994 
   6  -4  -5   9.499  40.296 
   6   4  -5  -2.600  37.496 
  -5  -4   5  644.24  105.99 
   5  -4  -5  802.72  109.29 
   5   4  -5  787.52  105.89 
  -5   4   5  868.01  104.39 
   4  -4  -5 1217.28  122.09 
  -4  -4   5 1655.83  129.49 
  -4   4   5 1291.07  103.49 
   4   4  -5 1548.85  109.19 
   3  -4  -5  64.594  38.396 
  -3  -4   5  33.597  34.597 
   3   4  -5  68.093  33.497 
  -3   4   5  23.698  32.397 
   2  -4  -5 1852.41  110.29 
  -2  -4   5 1734.03  123.59 
  -2  -4   5 1826.42  105.99 
   2   4  -5 1994.60   90.89 
  -1  -4   5  986.90  100.19 
  -1   4   5 1051.19   76.09 
  -1   4   5 1048.70  108.39 
   0  -4   5  135.59   49.30 
   0   4   5  163.78   39.30 
   0   4   5  68.193  36.296 
   1  -4   5  935.51  121.69 
   1   4   5 1060.29  126.89 
   1   4   5  932.61   89.59 
   2  -4   5  309.47   80.49 
   2   4   5  343.37   82.09 
   3  -4   5  218.28   77.59 
   3   4   5  198.48   75.59 
  -6  -5   5  632.84  113.99 
   6  -5  -5  874.41  126.79 
   6   5  -5  694.73  110.59 
   5  -5  -5  371.16   79.09 
  -5  -5   5  175.38   65.89 
  -5   5   5  230.58   58.49 
   5   5  -5  192.08   60.29 
  -4  -5   5  27.197  38.296 
   4  -5  -5  56.694  40.296 
  -4   5   5  -15.10   28.60 
   4   5  -5  87.191  39.996 
  -3  -5   5 1823.92  131.29 
   3  -5  -5 2010.40  122.79 
  -3   5   5 1886.41  117.49 
   3   5  -5 2030.50  106.49 
  -2  -5   5  354.06   71.39 
  -2  -5   5  429.36   64.29 
   2  -5  -5  325.57   58.79 
  -1  -5   5  921.81  104.29 
  -1   5   5  760.82   81.99 
   0  -5   5 1359.46  133.69 
   0   5   5 1334.77   89.39 
   0   5   5 1446.86  138.79 
   1  -5   5  83.692  46.495 
   1   5   5  106.69   53.79 
   1   5   5  134.29   42.10 
   2  -5   5  862.51  124.69 
   2   5   5  902.41  128.59 
  -6  -6   5  54.994  57.094 
   6  -6  -5  78.292  55.794 
   6   6  -5   6.199  47.495 
  -5  -6   5  557.04   99.19 
   5  -6  -5  689.43  106.79 
   5   6  -5  503.25   88.19 
  -4  -6   5 1273.67  134.89 
   4  -6  -5 1594.84  122.39 
  -4   6   5 1432.76  104.09 
   4   6  -5 1724.13  113.49 
   3  -6  -5  84.092  39.996 
  -3  -6   5  -23.80   25.80 
  -3   6   5   2.200  26.997 
   3   6  -5  -18.00   24.00 
  -2  -6   5 1461.15   95.59 
  -2  -6   5 1581.34  119.29 
   2  -6  -5 1303.47   97.79 
  -1  -6   5  789.42   97.09 
  -1   6   5  790.62   86.09 
   0  -6   5  33.897  31.197 
   0   6   5   1.000  25.197 
   1  -6   5  948.41  126.99 
   1   6   5  859.31   92.49 
   1   6   5  986.20  120.59 
   2  -6   5  627.44  111.19 
   2   6   5  323.97   85.39 
  -6  -7   5  775.82  129.29 
   6  -7  -5  963.70  138.69 
   6   7  -5  443.86   93.39 
   5  -7  -5  381.36   82.19 
  -5  -7   5  124.89   61.39 
   5   7  -5  304.37   71.39 
  -4  -7   5  146.99   57.19 
   4  -7  -5  200.88   62.39 
  -4   7   5  122.99   42.90 
   4   7  -5  221.68   56.39 
  -3  -7   5 1625.24  125.99 
   3  -7  -5 1462.35  111.89 
  -3   7   5 1508.65  101.59 
   3   7  -5 1693.03   95.79 
  -2  -7   5  366.26   74.69 
   2  -7  -5  400.46   69.59 
  -2  -7   5  403.96   66.19 
  -1  -7   5  990.00  108.09 
  -1   7   5  887.81   90.29 
   0  -7   5 1190.08  128.59 
   0   7   5 1039.30  100.89 
   1  -7   5  85.391  53.695 
   1   7   5  45.595  41.296 
   1   7   5  118.19   43.60 
   2  -7   5  754.72  119.49 
   2   7   5  810.22  125.59 
   2   7   5  846.52  102.09 
  -6  -8   5  126.59   66.29 
   6  -8  -5  194.68   75.59 
   6   8  -5  69.593  54.695 
   5  -8  -5  419.16   86.59 
  -5  -8   5  573.34  104.29 
   5   8  -5  506.75   86.29 
   4  -8  -5 1365.86  139.19 
  -4  -8   5 1281.77  147.09 
   4   8  -5 1363.86  121.19 
  -3  -8   5  -8.299  34.297 
   3  -8  -5  -14.80   33.30 
  -3   8   5  45.995  30.597 
  -2  -8   5  992.30  121.09 
  -2  -8   5 1137.09   90.19 
   2  -8  -5 1350.57  124.69 
  -1  -8   5 1489.65  111.99 
  -1   8   5 1716.13  108.79 
   0  -8   5  125.29   55.59 
   0   8   5  101.29   39.80 
   1  -8   5  790.52  114.69 
   1   8   5  887.61   99.99 
   1   8   5 1104.29  131.39 
   2  -8   5  332.97   88.69 
   2   8   5  440.46   77.59 
   2   8   5  259.37   74.99 
   6  -9  -5  604.94  116.09 
  -6  -9   5  609.24  122.69 
   6   9  -5  718.33  110.69 
  -5  -9   5  400.26   91.29 
   5  -9  -5  155.58   61.19 
   5   9  -5  450.65   82.19 
  -4  -9   5  327.67   79.79 
   4  -9  -5  378.26   75.49 
   4   9  -5  347.37   66.19 
   3  -9  -5  965.30  112.09 
  -3  -9   5 1268.67  139.59 
  -3   9   5 1099.99   82.99 
   2  -9  -5  635.04   89.59 
  -2  -9   5  667.63   99.49 
  -2  -9   5  500.25   75.39 
  -1  -9   5  898.11  110.69 
  -1  -9   5  743.63   97.09 
  -1   9   5  669.53   86.79 
   0  -9   5 1674.33  131.09 
   0   9   5 1924.91  118.69 
   1  -9   5  -4.900  38.896 
   1   9   5  20.398  32.197 
   2  -9   5  626.24  119.89 
   2   9   5  695.23   95.29 
   2   9   5  822.92  126.09 
   5 -10  -5  633.44  106.59 
  -5 -10   5  419.06   92.89 
   5  10  -5  690.73  100.59 
  -4 -10   5  853.41  118.89 
   4 -10  -5  995.60  119.79 
   4  10  -5  924.41  101.49 
  -3 -10   5  -6.799  37.196 
   3 -10  -5  -8.299  29.897 
   2 -10  -5  884.51  104.49 
  -2 -10   5  893.91  114.39 
  -2 -10   5  902.21   98.49 
  -1 -10   5 1421.66  136.19 
  -1 -10   5 1233.88  128.09 
  -1  10   5 1444.66  105.79 
   0 -10   5  -33.60   25.20 
   0  10   5  61.394  37.996 
   1 -10   5 1117.59  142.09 
   1  10   5 1068.19  117.19 
   2 -10   5  329.87   89.99 
   2  10   5  311.07   72.59 
   2  10   5  302.67   78.49 
   5 -11  -5  416.36   88.39 
  -5 -11   5  383.46   88.39 
   5  11  -5  394.36   78.89 
  -4 -11   5  447.96   88.39 
   4 -11  -5  300.87   75.79 
  -3 -11   5 1144.39  132.39 
   3 -11  -5 1146.49  129.39 
  -2 -11   5  410.26   82.39 
   2 -11  -5  317.77   69.59 
  -2 -11   5  394.36   70.09 
  -1 -11   5  465.55   79.89 
  -1 -11   5  539.95   95.39 
  -1  11   5  529.95   77.39 
   0 -11   5  972.70  124.39 
   0  11   5  992.20  108.89 
   1 -11   5   7.399  41.996 
   1  11   5  -19.80   29.00 
   2 -11   5  449.26   99.89 
   2  11   5  484.95   88.89 
   2  11   5  470.45   96.69 
   5 -12  -5  375.56   87.99 
  -5 -12   5  449.56  100.29 
   5  12  -5  434.76   84.39 
   4 -12  -5  644.34  110.39 
  -4 -12   5  430.86   93.59 
   3 -12  -5  -33.20   30.90 
  -3 -12   5  -2.900  36.196 
  -2 -12   5 1098.79  132.39 
  -2 -12   5  884.01  103.49 
   2 -12  -5  706.13   97.29 
  -2  12   5  807.62  102.69 
  -1 -12   5  715.73  101.79 
  -1 -12   5  987.70  117.39 
  -1  12   5  901.11  106.39 
   0 -12   5  85.891  48.395 
   0  12   5  66.493  41.796 
   1 -12   5  637.14  110.89 
   1  12   5  843.52  110.39 
   2 -12   5  286.27   84.69 
   2  12   5  297.57   71.89 
   5 -13  -5  105.29   59.89 
  -5 -13   5  184.08   76.99 
  -4 -13   5  51.295  52.595 
   4 -13  -5  74.093  50.695 
   3 -13  -5 1210.88  135.49 
  -3 -13   5 1390.56  156.08 
  -2 -13   5  73.393  51.895 
  -2 -13   5  90.391  49.795 
  -2  13   5  105.09   45.60 
  -1 -13   5  314.87   72.19 
  -1 -13   5  224.48   65.49 
  -1  13   5  393.16   71.69 
   0 -13   5  679.73  105.59 
   0  13   5  562.94   88.59 
   1 -13   5  74.293  56.994 
   1  13   5  58.794  39.896 
   5 -14  -5  430.86  102.39 
  -5 -14   5  325.37   94.19 
   4 -14  -5  395.96   84.59 
  -4 -14   5  513.65  103.99 
   3 -14  -5  -5.399  40.496 
  -3 -14   5  -36.10   32.70 
  -2 -14   5  998.30  118.89 
  -2 -14   5  901.81  120.79 
  -2  14   5 1010.90  121.39 
  -1 -14   5  467.05   87.39 
  -1 -14   5  430.66   87.79 
  -1  14   5  441.46   78.09 
   0 -14   5  81.392  44.496 
   0 -14   5  103.89   59.89 
   0  14   5  57.294  38.596 
   1 -14   5  801.42  128.59 
   1  14   5  747.93  103.09 
   4 -15  -5  55.394  53.295 
  -4 -15   5  129.39   61.79 
  -3 -15   5 1086.29  137.69 
   3 -15  -5 1248.18  142.09 
  -2 -15   5  10.499  42.096 
  -2 -15   5   6.199  37.096 
  -2  15   5   1.200  26.197 
  -1 -15   5  292.57   79.29 
  -1 -15   5  289.87   72.99 
  -1  15   5  325.77   72.29 
   0 -15   5  863.31  120.19 
   0 -15   5  453.25   96.59 
   0  15   5  546.95   90.49 
   1 -15   5  32.497  58.694 
   1  15   5   2.600  32.197 
   4 -16  -5  678.23  114.49 
  -4 -16   5  570.24  114.99 
   3 -16  -5  36.596  42.996 
  -3 -16   5  72.293  55.194 
  -2 -16   5 1109.79  127.29 
  -2 -16   5 1159.68  142.09 
  -2  16   5 1078.89  129.59 
  -1 -16   5  262.37   68.49 
  -1 -16   5  112.29   60.59 
  -1  16   5  264.67   72.39 
   0 -16   5  18.298  38.896 
   0 -16   5  68.893  56.494 
   0  16   5  14.199  38.896 
   3 -17  -5  675.73  112.49 
  -3 -17   5  707.33  120.89 
  -2 -17   5  -17.80   50.69 
  -2 -17   5  135.49   57.99 
  -2  17   5  81.592  44.296 
  -1 -17   5  430.46   96.49 
  -1 -17   5  259.87   75.79 
  -1  17   5  528.25   97.79 
   0 -17   5  685.73  106.39 
   0 -17   5  541.65  112.59 
   0  17   5  618.44  102.69 
   3 -18  -5  100.19   58.09 
  -3 -18   5  -14.30   35.20 
  -3  18   5  -17.70   32.50 
  -2 -18   5  467.55   94.89 
  -2  18   5  336.97   75.59 
  -1 -18   5  425.56   93.19 
  -1 -18   5  361.96   91.69 
  -1  18   5  329.17   79.09 
  -2 -19   5  106.29   67.89 
  -2  19   5  157.88   63.29 
  -5   0   6 1269.87  146.89 
   5   0  -6 1243.58  137.09 
   4   0  -6  -48.00   33.20 
  -4   0   6  -1.600  38.596 
   3   0  -6 1347.27   99.29 
  -3   0   6  895.71  114.49 
  -2   0   6 1571.64  114.49 
  -1   0   6   7.599  28.497 
   0   0   6 1382.06  148.89 
   1   0   6  296.07   78.09 
  -5  -1   6  12.499  43.596 
   5  -1  -6  52.095  50.095 
   5   1  -6  56.794  47.795 
  -5   1   6   9.799  39.896 
  -4  -1   6  667.83  108.59 
   4  -1  -6  565.84   90.99 
   4   1  -6  643.64   90.59 
  -4   1   6  759.12  109.99 
  -3  -1   6  474.05   87.79 
   3  -1  -6  315.47   62.89 
   3   1  -6  315.77   58.99 
  -3   1   6  361.66   74.89 
  -2  -1   6  277.77   60.99 
  -2   1   6  249.78   57.49 
  -1  -1   6 1867.11  134.59 
  -1   1   6 1789.72  132.59 
   0  -1   6  132.39   52.39 
   0   1   6  89.091  48.595 
   1  -1   6  358.56   87.09 
   1   1   6  362.46   85.59 
  -5  -2   6  708.43  110.79 
   5  -2  -6  725.83  106.09 
  -5   2   6  702.73  104.09 
   5   2  -6  936.21  120.29 
  -4  -2   6  21.898  39.196 
   4  -2  -6  -3.000  31.097 
  -4   2   6  44.796  44.396 
   4   2  -6   9.199  34.697 
  -3  -2   6 1319.07  141.99 
   3  -2  -6 1039.90  109.19 
  -3   2   6 1400.66  139.59 
  -3   2   6  969.80  113.29 
   2  -2  -6 1255.57   94.49 
  -2  -2   6 1278.07  123.09 
  -2  -2   6 1594.24  156.08 
  -2   2   6 1246.78  122.29 
  -1  -2   6  -2.400  30.097 
  -1   2   6  21.198  36.096 
   0  -2   6 1148.49  141.69 
   0   2   6 1267.47  146.69 
   1  -2   6  810.12  126.49 
   1   2   6  747.43  115.69 
   5  -3  -6  146.59   59.49 
  -5  -3   6  86.191  54.994 
  -5   3   6  64.094  50.395 
   5   3  -6  38.996  45.495 
  -4  -3   6 1026.80  128.69 
   4  -3  -6 1354.36  133.59 
   4   3  -6 1117.99  113.49 
  -4   3   6 1287.87  136.89 
   3  -3  -6  244.58   60.09 
  -3  -3   6  176.18   60.49 
  -3   3   6  186.38   49.30 
  -3   3   6  75.692  44.496 
   2  -3  -6  398.76   68.39 
  -2  -3   6  419.16   82.09 
  -2  -3   6  188.88   49.30 
  -2   3   6  254.97   56.99 
  -1  -3   6 1803.52  130.19 
  -1   3   6 1558.54  125.29 
   0  -3   6  37.196  41.796 
   0   3   6  90.891  51.995 
   1  -3   6  320.57   85.89 
   1   3   6  278.87   83.79 
   5  -4  -6  656.53  107.09 
  -5  -4   6  872.41  125.09 
   5   4  -6  792.22  111.09 
  -5   4   6  734.43  106.79 
   4  -4  -6  132.29   51.89 
  -4  -4   6  147.19   59.69 
  -4   4   6  105.09   49.80 
   4   4  -6  154.08   56.69 
   3  -4  -6 1415.06  126.69 
  -3  -4   6 1289.37  137.39 
  -3   4   6 1370.66  136.69 
  -3   4   6 1371.76  100.19 
  -2  -4   6  757.22   96.69 
  -2  -4   6  553.54   96.99 
   2  -4  -6  584.44   81.59 
  -2   4   6  791.62  102.49 
  -1  -4   6  -19.70   26.40 
  -1   4   6  15.098  33.197 
  -1   4   6  38.896  29.897 
   0  -4   6 1153.08  141.29 
   0   4   6  861.51  121.39 
   1  -4   6  602.74  114.99 
   1   4   6  556.34  105.79 
   5  -5  -6  104.09   52.89 
  -5  -5   6  18.198  50.595 
   5   5  -6  93.491  54.795 
  -4  -5   6 1471.75  162.78 
   4  -5  -6 1085.19  121.29 
  -4   5   6 1199.98  123.39 
   3  -5  -6  324.17   67.49 
  -3  -5   6  339.07   80.09 
  -3   5   6  434.26   75.49 
  -3   5   6  405.36   69.19 
  -2  -5   6  530.65   91.09 
  -2  -5   6  432.26   73.49 
   2  -5  -6  483.65   75.09 
  -2   5   6  548.75   81.89 
  -1  -5   6 1039.30  124.69 
  -1   5   6 1017.00  123.49 
  -1   5   6  957.10  100.69 
   0  -5   6  78.892  48.095 
   0   5   6  107.99   55.39 
   1  -5   6  92.191  51.595 
   1   5   6  207.38   73.79 
   5  -6  -6  587.44  101.79 
  -5  -6   6  654.73  113.69 
   5   6  -6  481.95   85.89 
  -4  -6   6  42.396  39.596 
   4  -6  -6  -6.099  36.396 
  -4   6   6  65.493  45.495 
  -3  -6   6  832.72  121.59 
   3  -6  -6  734.63   95.59 
  -3   6   6  863.01  107.19 
   2  -6  -6  514.25   82.49 
  -2  -6   6  504.75   79.59 
  -2  -6   6  525.25   94.69 
  -2   6   6  407.56   71.39 
  -1  -6   6  -13.00   31.20 
  -1   6   6  -21.30   21.00 
  -1   6   6  35.996  34.597 
   0  -6   6  832.72  120.19 
   0   6   6  739.83  110.89 
   1  -6   6  564.54  108.89 
   1   6   6  562.34  109.39 
  -5  -7   6  171.08   72.29 
   5  -7  -6  161.68   68.19 
   4  -7  -6 1262.37  137.79 
  -4  -7   6 1424.76  164.48 
  -3  -7   6  252.87   74.39 
   3  -7  -6  289.17   69.39 
  -3   7   6  329.97   67.79 
  -2  -7   6  263.57   62.09 
  -2  -7   6  203.78   62.99 
  -2   7   6  188.08   51.69 
  -1  -7   6  826.82  110.69 
  -1   7   6  664.43   87.29 
   0  -7   6  148.89   60.89 
   0   7   6  134.99   57.49 
   0   7   6  310.07   72.99 
   1  -7   6  325.17   86.09 
   1   7   6  304.37   80.59 
  -5  -8   6  567.54  115.79 
   5  -8  -6  532.15   98.99 
   4  -8  -6  -17.10   36.30 
  -4  -8   6  -18.60   37.90 
   3  -8  -6  506.05   87.29 
  -3  -8   6  579.14  106.39 
  -3   8   6  613.74   91.89 
  -2  -8   6  763.22  114.39 
  -2  -8   6  751.22   98.49 
  -2   8   6  571.04   83.99 
  -1  -8   6  -13.10   31.20 
  -1   8   6  37.096  32.297 
   0  -8   6  465.05   90.89 
   0   8   6  616.04  103.79 
   0   8   6  505.35   79.39 
   1  -8   6  552.24  113.19 
   1   8   6  353.86   86.19 
  -5  -9   6  170.48   76.99 
   5  -9  -6  186.28   65.69 
  -4  -9   6 1266.07  157.58 
   4  -9  -6 1019.80  124.69 
  -3  -9   6  358.96   81.99 
   3  -9  -6  338.57   73.59 
  -2  -9   6  206.58   61.09 
  -2  -9   6  242.98   70.59 
  -2   9   6  223.58   56.79 
  -1  -9   6  996.90  123.59 
  -1  -9   6  777.42  112.29 
  -1   9   6  612.94   87.49 
   0  -9   6  -12.80   40.90 
   0   9   6  125.89   54.99 
   0   9   6  42.496  38.596 
   4 -10  -6  67.593  46.995 
  -4 -10   6  -15.70   43.60 
  -3 -10   6  347.67   80.39 
   3 -10  -6  465.75   88.79 
  -2 -10   6  497.95   84.49 
  -2 -10   6  727.63  116.09 
  -2  10   6  767.42   96.99 
  -1 -10   6   9.899  32.097 
  -1 -10   6  -33.30   29.80 
  -1  10   6   8.999  27.797 
   0 -10   6  648.14  107.79 
   0  10   6  838.82  107.49 
  -4 -11   6  664.13  120.99 
   4 -11  -6  686.13  108.49 
  -3 -11   6  182.08   73.99 
   3 -11  -6  294.77   78.19 
  -2 -11   6  165.58   64.09 
  -2 -11   6  136.29   58.99 
  -2  11   6  123.19   45.90 
  -1 -11   6  877.31  124.59 
  -1 -11   6  749.63  111.49 
  -1  11   6  871.51  109.29 
   0 -11   6  -25.50   41.80 
   0  11   6   7.299  35.296 
   4 -12  -6  103.99   60.19 
  -4 -12   6  52.395  58.594 
  -3 -12   6  652.93  111.69 
   3 -12  -6  612.94   99.69 
  -2 -12   6  401.36   84.99 
  -2  12   6  629.44   95.89 
  -1 -12   6  -20.50   35.20 
  -1 -12   6  -19.60   36.70 
  -1  12   6  -11.50   28.20 
   0 -12   6  400.96   94.79 
   0  12   6  386.46   77.59 
  -3 -13   6  249.88   79.09 
   3 -13  -6  439.26   93.19 
  -2 -13   6  170.48   61.79 
  -2  13   6  124.19   49.10 
  -1 -13   6  734.93  115.89 
  -1 -13   6  514.05   97.69 
  -1  13   6  629.84   98.29 
  -3 -14   6  551.74  103.89 
   3 -14  -6  617.74  104.19 
  -2 -14   6  605.74  107.99 
  -2  14   6  626.54   98.69 
  -1 -14   6  32.197  41.296 
  -1 -14   6  14.399  44.296 
  -1  14   6  44.896  39.196 
  -4   0   7  319.37   85.69 
  -3   0   7 1029.10  133.39 
  -2   0   7  70.893  44.296 
  -1   0   7  456.45   91.29 
  -4  -1   7  235.98   71.19 
  -4   1   7  334.67   84.39 
  -3  -1   7  118.79   59.99 
  -3   1   7  21.398  39.896 
  -2  -1   7  744.43  111.79 
  -2  -1   7  681.13   99.09 
  -2   1   7  744.13  106.89 
  -1  -1   7  150.78   58.49 
  -1   1   7  77.292  50.395 
  -4  -2   7  304.17   83.29 
  -4   2   7  438.46   92.99 
  -3  -2   7  727.33  119.09 
  -3   2   7  729.73  112.39 
  -2  -2   7  27.297  34.897 
  -2  -2   7  25.897  41.196 
  -2   2   7  42.496  39.796 
  -1  -2   7  474.05   92.09 
  -1   2   7  623.34  106.69 
  -4  -3   7  366.56   92.39 
   4  -3  -7  542.95   93.89 
  -4   3   7  495.35  100.59 
  -3  -3   7  122.79   54.79 
  -3   3   7  99.190  53.995 
  -2  -3   7  538.55   92.59 
  -2  -3   7  636.94  110.49 
  -2   3   7  690.93  104.69 
  -1  -3   7  50.295  44.496 
  -1   3   7  49.595  44.896 
  -3  -4   7  888.21  131.99 
  -3   4   7  910.51  126.39 
  -2  -4   7  20.698  37.996 
  -2  -4   7  32.697  41.696 
  -2   4   7  12.699  33.397 
  -1  -4   7  616.14  106.49 
  -1   4   7  550.04  100.89 
  -3  -5   7  135.79   59.79 
  -3   5   7  410.56   86.39 
  -2  -5   7  775.72  123.19 
  -2   5   7  620.04   99.69 
   3  -6  -7  574.14   93.39 
  -3  -6   7  770.52  121.19 
  -3   6   7  578.44  101.99 
  -2  -6   7  17.398  40.796 
  -2   6   7  -2.400  33.897 
  -2  -7   7  891.11  135.59 
  -2   7   7  888.41  117.69 
   0   0   0    0.00    0.00   0 
;
_shelx_hkl_checksum              60140
_shelx_fab_file
; 
    1    0    0     16.25     -0.35 
    2    0    0      3.61      0.06 
    3    0    0      2.67     -0.04 
    4    0    0     -0.04     -0.12 
    5    0    0      0.49     -0.05 
    6    0    0      1.27      0.18 
    1    1    0     14.74      2.79 
    2    1    0      9.21      0.41 
    3    1    0      4.88      0.70 
    4    1    0      2.97      0.81 
    5    1    0      0.43     -0.35 
    6    1    0      1.33      0.54 
    0    2    0    -22.32     -8.34 
    1    2    0    -13.13     -2.26 
    2    2    0     -3.10      0.64 
    3    2    0     -1.96     -0.93 
    4    2    0     -0.78      1.07 
    5    2    0     -0.93      0.32 
    6    2    0     -0.69     -0.88 
    1    3    0     -7.59     -5.67 
    2    3    0     -5.56     -0.88 
    3    3    0     -1.79     -0.88 
    4    3    0     -0.66     -0.93 
    5    3    0     -0.77      0.96 
    6    3    0     -0.81     -0.50 
    0    4    0      8.26      6.51 
    1    4    0      6.35      1.08 
    2    4    0      1.96     -1.49 
    3    4    0      0.75      0.47 
    4    4    0      2.14     -0.81 
    5    4    0      1.36      0.16 
    6    4    0     -0.22      0.82 
    1    5    0      0.56      2.16 
    2    5    0      1.22     -1.05 
    3    5    0     -1.36     -1.36 
    4    5    0     -1.03     -1.02 
    5    5    0      1.13     -0.99 
    6    5    0      0.29      0.13 
    0    6    0     -0.08      2.46 
    1    6    0     -1.33      3.08 
    2    6    0     -0.61      2.61 
    3    6    0     -0.47      0.76 
    4    6    0     -2.53     -0.42 
    5    6    0     -0.88     -0.75 
    6    6    0      0.77     -0.22 
    1    7    0      0.98      2.37 
    2    7    0      0.87      3.44 
    3    7    0      2.03      3.94 
    4    7    0      0.54      2.53 
    5    7    0     -1.13      0.46 
    6    7    0     -0.06      0.27 
    0    8    0      0.34     -7.69 
    1    8    0      0.07     -5.88 
    2    8    0     -0.15     -3.68 
    3    8    0      0.86     -1.30 
    4    8    0      1.43      1.22 
    5    8    0     -0.06      0.45 
    6    8    0     -0.83     -0.36 
    1    9    0      0.52     -2.58 
    2    9    0     -0.82     -3.71 
    3    9    0     -0.77     -4.15 
    4    9    0      0.38     -1.77 
    5    9    0      0.56      0.21 
    6    9    0      0.14     -0.32 
    0   10    0     -1.76      5.15 
    1   10    0     -0.22      5.04 
    2   10    0      0.16      3.83 
    3   10    0     -0.65      1.03 
    4   10    0      0.07     -0.60 
    5   10    0      0.33      0.49 
    6   10    0      0.71      0.63 
    1   11    0     -0.44     -0.27 
    2   11    0      0.60      1.77 
    3   11    0      0.06      1.90 
    4   11    0      0.17      0.08 
    5   11    0      0.23     -0.47 
    6   11    0     -0.13     -0.03 
    0   12    0     -0.37     -0.53 
    1   12    0     -0.56     -2.48 
    2   12    0     -0.20     -2.86 
    3   12    0     -0.30     -1.06 
    4   12    0     -0.60     -0.82 
    5   12    0      0.08     -0.93 
    1   13    0     -1.30      1.88 
    2   13    0     -1.10      0.36 
    3   13    0     -0.89      0.35 
    4   13    0     -1.35      0.36 
    5   13    0     -0.61      0.28 
    0   14    0      3.05     -0.69 
    1   14    0      1.61      0.91 
    2   14    0      0.68      1.76 
    3   14    0      0.74      1.74 
    4   14    0      0.05      1.60 
    5   14    0     -0.24      0.67 
    1   15    0      1.83     -1.27 
    2   15    0      1.49     -1.25 
    3   15    0      1.75     -0.82 
    4   15    0      1.22      0.25 
    5   15    0      0.40     -0.12 
    0   16    0     -2.31     -0.36 
    1   16    0     -1.34     -0.56 
    2   16    0     -0.87     -1.30 
    3   16    0     -0.01     -2.02 
    4   16    0      0.48     -1.23 
    5   16    0     -0.15     -0.44 
    1   17    0     -0.44      0.56 
    2   17    0     -1.04      1.13 
    3   17    0     -1.14      0.31 
    4   17    0      0.22     -0.22 
    5   17    0     -0.05      0.22 
    0   18    0     -0.70      0.19 
    1   18    0     -0.04      0.19 
    2   18    0      0.25      0.99 
    3   18    0     -1.00      1.07 
    4   18    0     -0.29      0.53 
    1   19    0     -0.99     -0.89 
    2   19    0      0.14     -0.78 
    3   19    0     -0.28     -0.37 
    4   19    0     -1.21     -0.86 
    0   20    0      2.41      1.32 
    1   20    0      1.07      0.45 
    2   20    0      0.52     -0.29 
    3   20    0      1.05      0.43 
    4   20    0     -0.14     -0.27 
    1   21    0      1.14      1.28 
    2   21    0      0.58      0.44 
    3   21    0      0.93      0.93 
    4   21    0      0.84      1.65 
    0   22    0     -1.89     -1.93 
    1   22    0     -1.20     -0.64 
    2   22    0     -0.65     -0.36 
    3   22    0     -0.20     -1.10 
    1   23    0     -0.61     -0.86 
    2   23    0     -0.91     -0.14 
    3   23    0     -0.57     -0.97 
    0   24    0      0.92      0.91 
    1   24    0      1.01      0.26 
    2   24    0      0.34      0.40 
    1   25    0      0.35      0.09 
    2   25    0      0.87      0.02 
    0   26    0     -0.72      0.27 
    1   26    0     -0.83      0.07 
   -6    0    1      0.51     -0.26 
   -5    0    1     -1.93      0.03 
   -4    0    1     -1.86     -0.21 
   -3    0    1     -1.34     -0.19 
   -2    0    1      0.84      0.00 
   -1    0    1      7.85      0.07 
    0    0    1      6.78     -0.21 
    1    0    1     -0.12     -0.01 
    2    0    1      2.59      0.15 
    3    0    1      1.92     -0.03 
    4    0    1     -1.40      0.16 
    5    0    1      0.03     -0.01 
    6    0    1     -0.47     -0.02 
   -6    1    1      1.77      1.05 
   -5    1    1      1.90      0.52 
   -4    1    1      0.53      0.45 
   -3    1    1     -0.02      0.94 
   -2    1    1     -1.88     -0.27 
   -1    1    1      0.25      0.11 
    0    1    1      7.92      2.93 
    1    1    1      6.36      1.59 
    2    1    1      2.82      0.78 
    3    1    1      5.54      1.62 
    4    1    1      3.10     -0.01 
    5    1    1      1.07     -0.35 
    6    1    1      1.01     -0.02 
   -6    2    1     -0.62     -0.13 
   -5    2    1      1.33      0.85 
   -4    2    1      2.09     -0.19 
   -3    2    1      1.18      0.27 
   -2    2    1     -1.20      0.56 
   -1    2    1     -5.12     -3.16 
    0    2    1     -4.44     -1.85 
    1    2    1     -0.15      2.09 
    2    2    1     -2.18      0.16 
    3    2    1     -2.54      1.59 
    4    2    1      0.13      2.93 
    5    2    1     -0.22      0.95 
    6    2    1      0.03      1.12 
   -6    3    1     -0.07     -1.83 
   -5    3    1     -1.49     -0.98 
   -4    3    1     -0.62     -0.60 
   -3    3    1      1.11     -1.65 
   -2    3    1      0.40      0.01 
   -1    3    1     -1.67     -0.64 
    0    3    1     -3.56     -5.53 
    1    3    1     -2.67     -3.40 
    2    3    1     -0.54     -1.65 
    3    3    1     -2.06     -3.55 
    4    3    1     -2.37     -0.33 
    5    3    1     -0.95      0.61 
    6    3    1     -0.44      0.11 
   -6    4    1      0.57      0.46 
   -5    4    1      0.10     -0.79 
   -4    4    1     -2.11     -0.36 
   -3    4    1     -0.89     -0.55 
   -2    4    1      1.83     -0.65 
   -1    4    1      0.64      1.66 
    0    4    1     -0.21      0.39 
    1    4    1     -0.02     -2.74 
    2    4    1      1.13     -0.50 
    3    4    1      3.23     -1.67 
    4    4    1      2.00     -3.18 
    5    4    1      0.52     -1.16 
    6    4    1      0.89     -1.23 
   -6    5    1     -1.47      0.70 
   -5    5    1      0.68      1.01 
   -4    5    1      0.74      0.92 
   -3    5    1     -1.47      0.92 
   -2    5    1      0.77      1.23 
   -1    5    1      3.05      1.94 
    0    5    1      0.67      2.86 
    1    5    1     -0.59      1.08 
    2    5    1     -1.86      0.19 
    3    5    1     -1.32      1.70 
    4    5    1      1.22      0.00 
    5    5    1      0.30     -0.75 
    6    5    1     -0.24     -0.49 
   -6    6    1     -0.48     -0.43 
   -5    6    1     -1.13     -0.22 
   -4    6    1      0.82      0.87 
   -3    6    1      0.16      0.87 
   -2    6    1     -2.03      0.45 
   -1    6    1      0.40      2.35 
    0    6    1      2.40      3.48 
    1    6    1      1.45      2.83 
    2    6    1      0.21      1.05 
    3    6    1     -2.54      0.73 
    4    6    1     -1.95      1.35 
    5    6    1     -0.22      0.71 
    6    6    1     -1.15      0.30 
   -6    7    1      1.47      1.07 
   -5    7    1      0.06     -0.09 
   -4    7    1     -0.55     -0.96 
   -3    7    1      0.45     -0.25 
   -2    7    1     -0.78     -1.99 
   -1    7    1     -3.08     -2.85 
    0    7    1     -2.07      0.28 
    1    7    1      0.31      2.07 
    2    7    1      2.12      2.16 
    3    7    1      1.50      1.34 
    4    7    1     -0.46      0.78 
    5    7    1      0.53      1.17 
    6    7    1      0.66      0.85 
   -6    8    1      0.60      0.19 
   -5    8    1      1.17      1.18 
   -4    8    1      0.62      0.05 
   -3    8    1      0.63     -0.61 
   -2    8    1      1.61     -0.45 
   -1    8    1      1.57     -3.75 
    0    8    1     -1.13     -5.44 
    1    8    1     -2.68     -3.52 
    2    8    1     -0.99     -1.78 
    3    8    1      0.65     -0.38 
    4    8    1     -0.28     -0.42 
    5    8    1     -0.70     -0.34 
   -6    9    1     -0.46     -1.88 
   -5    9    1      0.19     -1.26 
   -4    9    1      0.47      0.31 
   -3    9    1      0.57      0.51 
   -2    9    1      0.44      1.35 
   -1    9    1      2.07      2.17 
    0    9    1      4.00     -0.18 
    1    9    1      1.53     -2.47 
    2    9    1     -0.56     -2.94 
    3    9    1      0.47     -2.13 
    4    9    1      0.35     -1.39 
    5    9    1     -0.85     -1.76 
   -6   10    1     -0.77     -0.10 
   -5   10    1     -0.74     -1.31 
   -4   10    1     -0.41     -1.44 
   -3   10    1     -0.57     -0.09 
   -2   10    1     -0.94      0.70 
   -1   10    1     -2.18      1.73 
    0   10    1     -0.39      3.66 
    1   10    1      2.13      3.77 
    2   10    1      0.75      1.93 
    3   10    1      0.64      1.15 
    4   10    1      1.93      1.39 
    5   10    1      1.48      0.43 
   -6   11    1     -0.18      1.60 
   -5   11    1     -1.20      1.79 
   -4   11    1     -1.00      0.50 
   -3   11    1     -0.53     -0.61 
   -2   11    1     -0.67      0.02 
   -1   11    1     -1.31     -0.18 
    0   11    1     -2.76     -0.95 
    1   11    1     -1.54      0.95 
    2   11    1     -0.40      1.68 
    3   11    1     -1.36      0.58 
    4   11    1     -0.62      1.40 
    5   11    1      0.53      1.83 
   -6   12    1      0.61      0.07 
   -5   12    1      0.54      0.90 
   -4   12    1     -0.90      1.35 
   -3   12    1     -0.33      0.32 
   -2   12    1      0.28     -0.78 
   -1   12    1     -0.06      0.11 
    0   12    1     -0.38     -0.71 
    1   12    1     -0.90     -2.25 
    2   12    1     -0.28     -0.99 
    3   12    1     -0.25     -1.66 
    4   12    1     -1.41     -2.31 
    5   12    1     -1.61     -0.64 
   -6   13    1      0.07     -1.22 
   -5   13    1      1.72     -1.24 
   -4   13    1      1.65     -0.71 
   -3   13    1      0.29     -0.42 
   -2   13    1      1.37     -0.97 
   -1   13    1      1.44     -1.54 
    0   13    1      0.07     -0.15 
    1   13    1     -0.20     -0.45 
    2   13    1     -0.48     -0.50 
    3   13    1      0.09      0.63 
    4   13    1      0.77     -0.81 
    5   13    1     -0.22     -1.21 
   -5   14    1     -0.50     -0.59 
   -4   14    1      1.25      0.06 
   -3   14    1      0.91      0.15 
   -2   14    1      0.38      0.42 
   -1   14    1      2.36      0.38 
    0   14    1      2.31     -0.35 
    1   14    1      0.97      0.13 
    2   14    1      0.59     -0.17 
    3   14    1     -0.69      0.65 
    4   14    1      0.02      1.52 
    5   14    1      1.23      0.63 
   -5   15    1     -1.24      0.69 
   -4   15    1     -1.52      0.51 
   -3   15    1     -0.94      1.67 
   -2   15    1     -1.85      0.98 
   -1   15    1     -1.82      1.71 
    0   15    1      0.51      2.34 
    1   15    1      1.15      1.45 
    2   15    1      1.68      1.08 
    3   15    1      1.44      0.15 
    4   15    1     -0.43      0.08 
    5   15    1      0.32      0.53 
   -5   16    1      0.20      0.46 
   -4   16    1     -0.27     -0.76 
   -3   16    1     -0.57     -0.22 
   -2   16    1     -1.09      0.23 
   -1   16    1     -2.29     -1.50 
    0   16    1     -2.92     -0.53 
    1   16    1     -2.06      0.32 
    2   16    1     -1.34      0.24 
    3   16    1      0.50      0.95 
    4   16    1      0.34      0.16 
   -5   17    1      0.64     -0.78 
   -4   17    1      0.73     -0.73 
   -3   17    1      1.85     -1.70 
   -2   17    1      1.53     -0.31 
   -1   17    1      1.41     -0.55 
    0   17    1      0.88     -2.39 
    1   17    1     -0.50     -1.97 
    2   17    1     -1.40     -2.34 
    3   17    1     -1.36     -1.70 
    4   17    1     -0.24      0.15 
   -5   18    1      0.30     -0.19 
   -4   18    1     -0.32     -0.03 
   -3   18    1      0.32     -0.70 
   -2   18    1      1.66     -0.74 
   -1   18    1      0.82      1.08 
    0   18    1      1.76      1.37 
    1   18    1      2.24      0.97 
    2   18    1      1.31      0.67 
    3   18    1      0.55     -1.30 
    4   18    1      0.28     -0.93 
   -4   19    1     -0.24      1.31 
   -3   19    1     -1.60      0.70 
   -2   19    1     -0.38     -0.24 
   -1   19    1     -0.10     -0.60 
    0   19    1     -1.40      0.11 
    1   19    1     -0.23      1.09 
    2   19    1      0.19      2.35 
    3   19    1      0.16      2.02 
    4   19    1      0.57      0.20 
   -4   20    1     -0.50      0.85 
   -3   20    1     -0.97      1.50 
   -2   20    1     -1.79      0.83 
   -1   20    1     -0.08      0.51 
    0   20    1     -0.29     -1.09 
    1   20    1     -0.99     -2.02 
    2   20    1     -0.36     -1.21 
    3   20    1     -0.83      0.31 
   -4   21    1      0.31     -1.39 
   -3   21    1      0.18     -0.12 
   -2   21    1     -0.78     -0.02 
   -1   21    1     -1.13      0.69 
    0   21    1      0.03      1.71 
    1   21    1     -0.02     -0.02 
    2   21    1      0.23     -1.18 
    3   21    1      0.42     -1.01 
   -3   22    1      1.66     -0.98 
   -2   22    1      1.30     -0.58 
   -1   22    1      0.54     -1.45 
    0   22    1     -0.24      0.25 
    1   22    1     -0.28      1.63 
    2   22    1     -0.38      0.75 
    3   22    1     -0.03      0.45 
   -3   23    1      0.98      0.56 
   -2   23    1      0.98      0.77 
   -1   23    1      1.24      0.03 
    0   23    1      1.37     -1.33 
    1   23    1      0.54     -0.15 
    2   23    1      0.36      0.30 
   -2   24    1     -0.46      0.32 
   -1   24    1     -1.02      0.98 
    0   24    1     -0.03      0.23 
    1   24    1      0.43     -0.51 
    2   24    1      0.18     -0.07 
   -2   25    1     -0.25     -1.00 
   -1   25    1     -0.34     -0.54 
    0   25    1     -1.15     -0.12 
    1   25    1     -0.46     -0.17 
    0   26    1      0.38     -0.20 
   -7    0    2     -0.22     -0.09 
   -6    0    2     -2.23     -0.06 
   -5    0    2     -1.69     -0.03 
   -4    0    2     -2.86     -0.32 
   -3    0    2     -5.07     -0.24 
   -2    0    2     -4.60     -0.32 
   -1    0    2     -5.99     -0.31 
    0    0    2     -5.81     -0.10 
    1    0    2     -0.48      0.13 
    2    0    2      1.89      0.06 
    3    0    2     -0.91      0.06 
    4    0    2      0.23      0.27 
    5    0    2      1.45      0.20 
   -7    1    2      0.50      0.53 
   -6    1    2      0.18      0.03 
   -5    1    2     -0.70      0.00 
   -4    1    2      0.57      1.07 
   -3    1    2     -0.35     -0.56 
   -2    1    2     -0.67     -1.83 
   -1    1    2     -0.84     -0.56 
    0    1    2     -4.13     -0.27 
    1    1    2     -4.88     -0.24 
    2    1    2     -0.54      1.33 
    3    1    2      0.75      0.62 
    4    1    2     -1.05     -0.60 
    5    1    2      0.37     -0.13 
   -7    2    2      0.29     -0.36 
   -6    2    2      1.41      1.02 
   -5    2    2      1.76     -0.05 
   -4    2    2      2.20      1.57 
   -3    2    2      2.93      3.84 
   -2    2    2      3.62      0.86 
   -1    2    2      5.60     -0.94 
    0    2    2      4.70     -0.08 
    1    2    2      0.60     -1.33 
    2    2    2     -1.60     -0.75 
    3    2    2     -0.04      2.02 
    4    2    2     -0.27      0.79 
    5    2    2     -1.28     -0.13 
   -7    3    2      0.66     -0.75 
   -6    3    2      0.18     -0.13 
   -5    3    2      0.57      0.18 
   -4    3    2      1.50     -1.54 
   -3    3    2      0.66      1.83 
   -2    3    2     -1.13      4.31 
   -1    3    2      0.49      1.76 
    0    3    2      3.26      0.83 
    1    3    2      3.33      0.24 
    2    3    2      1.42     -2.70 
    3    3    2     -0.44     -1.59 
    4    3    2     -0.02      1.06 
    5    3    2     -0.36      0.20 
   -7    4    2     -0.36      0.44 
   -6    4    2      0.17     -0.65 
   -5    4    2     -1.55     -0.08 
   -4    4    2     -1.04     -1.99 
   -3    4    2      0.98     -3.82 
   -2    4    2     -1.42     -0.48 
   -1    4    2     -4.41      1.42 
    0    4    2     -2.96      1.22 
    1    4    2     -1.03      2.15 
    2    4    2      0.87      1.02 
    3    4    2      1.49     -2.07 
    4    4    2      0.51     -1.07 
    5    4    2      1.03      0.24 
   -6    5    2     -0.38     -0.33 
   -5    5    2     -0.26     -0.19 
   -4    5    2     -2.73     -0.07 
   -3    5    2     -0.63     -2.84 
   -2    5    2      2.67     -3.90 
   -1    5    2      0.77     -2.39 
    0    5    2     -1.28     -1.35 
    1    5    2     -1.60      0.23 
    2    5    2     -1.89      2.15 
    3    5    2      0.13      1.47 
    4    5    2      0.72     -0.68 
    5    5    2      0.20     -0.23 
   -6    6    2     -0.86     -0.72 
   -5    6    2      0.92     -0.13 
   -4    6    2     -0.04      1.26 
   -3    6    2     -2.72      0.94 
   -2    6    2     -0.45     -0.78 
   -1    6    2      2.27     -1.26 
    0    6    2      2.05     -1.93 
    1    6    2      1.59     -1.86 
    2    6    2     -0.17     -0.77 
    3    6    2     -1.36      0.73 
    4    6    2     -0.13      0.57 
    5    6    2     -0.50     -0.66 
   -6    7    2     -0.15      0.90 
   -5    7    2      0.02      0.17 
   -4    7    2      1.84      1.38 
   -3    7    2      0.12      2.61 
   -2    7    2     -2.27      1.87 
   -1    7    2     -1.93      1.39 
    0    7    2     -0.99      0.90 
    1    7    2      0.25     -0.27 
    2    7    2      0.81     -0.54 
    3    7    2     -0.48     -0.49 
    4    7    2     -0.59      0.58 
    5    7    2      0.04      0.42 
   -6    8    2      0.31      1.63 
   -5    8    2     -0.65      0.97 
   -4    8    2      0.21      0.32 
   -3    8    2      1.58      1.35 
   -2    8    2      0.92      1.81 
   -1    8    2     -0.01      1.13 
    0    8    2     -1.11      0.96 
    1    8    2     -1.19      0.42 
    2    8    2     -0.10      0.11 
    3    8    2     -0.19     -0.19 
    4    8    2     -0.87     -0.15 
    5    8    2     -0.40      1.04 
   -6    9    2      1.08     -0.77 
   -5    9    2      0.27     -0.20 
   -4    9    2     -0.58     -0.80 
   -3    9    2     -0.06     -1.03 
   -2    9    2      0.58     -0.31 
   -1    9    2      1.31      0.39 
    0    9    2      1.74      0.37 
    1    9    2      0.97     -0.09 
    2    9    2      1.27     -0.38 
    3    9    2      1.53     -0.51 
    4    9    2      0.55     -1.32 
    5    9    2     -0.11     -0.73 
   -6   10    2      0.43     -1.38 
   -5   10    2      1.21     -1.57 
   -4   10    2      0.78     -1.52 
   -3   10    2     -0.01     -1.45 
   -2   10    2     -0.39     -1.60 
   -1   10    2     -1.05     -1.10 
    0   10    2     -0.88      0.28 
    1   10    2     -0.59      0.70 
    2   10    2     -0.35      0.57 
    3   10    2      1.02      1.06 
    4   10    2      1.67      0.26 
    5   10    2      1.25     -0.93 
   -6   11    2     -1.46     -0.02 
   -5   11    2     -0.64      0.04 
   -4   11    2      0.66     -0.45 
   -3   11    2      0.88     -0.49 
   -2   11    2      0.59     -0.23 
   -1   11    2      0.69     -0.84 
    0   11    2     -0.47     -0.84 
    1   11    2     -1.65      0.06 
    2   11    2     -2.46      0.01 
    3   11    2     -2.55      0.77 
    4   11    2     -1.25      1.92 
    5   11    2      0.04      0.87 
   -6   12    2     -0.50      0.67 
   -5   12    2     -1.84      1.17 
   -4   12    2     -1.85      1.29 
   -3   12    2     -0.20      0.74 
   -2   12    2     -0.15      0.49 
   -1   12    2      0.54      0.53 
    0   12    2      2.42      0.07 
    1   12    2      2.23     -0.22 
    2   12    2      1.28     -0.63 
    3   12    2     -0.07     -1.64 
    4   12    2     -1.66     -0.59 
   -6   13    2      0.98      0.58 
   -5   13    2      0.73      0.48 
   -4   13    2     -1.37      0.64 
   -3   13    2     -1.46      0.78 
   -2   13    2     -0.43      0.65 
   -1   13    2     -1.79     -0.39 
    0   13    2     -1.20     -0.29 
    1   13    2      0.92      0.24 
    2   13    2      1.63      0.45 
    3   13    2      2.55     -0.28 
    4   13    2      1.87     -1.44 
   -6   14    2      0.16     -0.37 
   -5   14    2      1.61     -0.34 
   -4   14    2      1.61     -0.22 
   -3   14    2     -0.28     -0.81 
   -2   14    2      0.41      0.48 
   -1   14    2      0.67      0.81 
    0   14    2     -1.47     -1.12 
    1   14    2     -1.93     -0.90 
    2   14    2     -1.72     -0.11 
    3   14    2     -1.24      0.61 
    4   14    2      0.90      0.67 
   -5   15    2     -0.23     -0.93 
   -4   15    2      1.27     -0.05 
   -3   15    2      0.73     -0.59 
   -2   15    2     -0.23     -1.65 
   -1   15    2      0.93      1.28 
    0   15    2      1.61      1.77 
    1   15    2      0.83      0.13 
    2   15    2      0.18      0.31 
    3   15    2     -1.17     -0.09 
    4   15    2     -1.32      0.41 
   -5   16    2     -0.84      0.08 
   -4   16    2     -0.30     -0.10 
   -3   16    2      0.15      1.39 
   -2   16    2     -0.68     -0.91 
   -1   16    2     -1.38     -2.27 
    0   16    2     -1.15      0.60 
    1   16    2      0.21      0.76 
    2   16    2      1.02      0.72 
    3   16    2      1.13      1.00 
    4   16    2      0.10     -0.29 
   -5   17    2     -0.46      0.81 
   -4   17    2     -0.54     -0.04 
   -3   17    2      0.36      1.15 
   -2   17    2      0.15      2.70 
   -1   17    2      0.31     -0.43 
    0   17    2     -1.05     -1.94 
    1   17    2     -2.09     -1.21 
    2   17    2     -1.13     -1.75 
    3   17    2     -0.63     -0.49 
    4   17    2     -0.04     -0.09 
   -5   18    2      0.49     -0.35 
   -4   18    2     -0.44     -0.65 
   -3   18    2      0.57     -1.42 
   -2   18    2      0.89      0.96 
   -1   18    2      1.18      2.81 
    0   18    2      2.59      1.50 
    1   18    2      0.84      0.67 
    2   18    2      0.02     -0.28 
    3   18    2      0.02     -1.33 
   -4   19    2      0.33     -0.37 
   -3   19    2     -0.20     -1.90 
   -2   19    2      0.75     -2.65 
   -1   19    2     -0.18     -1.16 
    0   19    2      0.84      0.87 
    1   19    2      2.13      1.90 
    2   19    2      0.87      2.24 
    3   19    2      1.36      1.60 
   -4   20    2     -0.12      1.15 
   -3   20    2     -0.94      0.72 
   -2   20    2     -0.75     -0.63 
   -1   20    2     -0.59     -1.94 
    0   20    2     -1.69     -2.85 
    1   20    2     -0.41     -1.61 
    2   20    2     -0.14     -0.60 
    3   20    2     -0.50      0.32 
   -4   21    2     -0.78      0.31 
   -3   21    2     -0.95      1.31 
   -2   21    2     -1.42      1.19 
   -1   21    2     -1.07      1.62 
    0   21    2     -1.34      0.10 
    1   21    2     -1.55     -1.64 
    2   21    2     -0.57     -1.38 
   -3   22    2      0.61     -0.08 
   -2   22    2      0.58     -0.15 
   -1   22    2      0.49      0.28 
    0   22    2      0.05      2.00 
    1   22    2     -0.33      1.00 
    2   22    2     -0.42      0.57 
   -3   23    2      1.27      0.49 
   -2   23    2      0.99      0.55 
   -1   23    2      1.88     -0.59 
    0   23    2      1.76     -0.15 
    1   23    2      1.02      0.91 
   -2   24    2     -0.78      0.77 
   -1   24    2     -0.99      0.86 
    0   24    2      0.48      0.00 
    1   24    2      0.23      0.24 
   -1   25    2     -1.42     -0.72 
    0   25    2     -1.42     -0.33 
   -7    0    3     -1.03      0.03 
   -6    0    3     -0.52      0.08 
   -5    0    3      0.72      0.04 
   -4    0    3     -0.36      0.05 
   -3    0    3      0.63      0.15 
   -2    0    3     -0.56      0.08 
   -1    0    3     -3.51      0.09 
    0    0    3     -0.44      0.03 
    1    0    3      1.50     -0.05 
    2    0    3     -0.28     -0.11 
    3    0    3     -0.80     -0.09 
    4    0    3     -0.14     -0.07 
    5    0    3     -0.10     -0.19 
   -7    1    3      0.29      0.41 
   -6    1    3     -1.22     -0.21 
   -5    1    3     -0.68      0.48 
   -4    1    3     -0.56      0.08 
   -3    1    3     -0.78     -1.40 
   -2    1    3      1.09     -0.67 
   -1    1    3     -1.29     -0.65 
    0    1    3     -3.50     -1.21 
    1    1    3     -0.81     -0.15 
    2    1    3      0.47      0.31 
    3    1    3     -0.12     -0.05 
    4    1    3     -0.28      0.29 
    5    1    3      0.10      0.35 
   -7    2    3      0.76      0.08 
   -6    2    3      0.50     -0.16 
   -5    2    3     -0.44     -0.64 
   -4    2    3     -0.66      1.48 
   -3    2    3     -1.02      0.34 
   -2    2    3      0.68     -1.29 
   -1    2    3      2.53     -0.11 
    0    2    3      0.37     -1.27 
    1    2    3     -0.62     -2.04 
    2    2    3      0.31     -0.69 
    3    2    3      0.70     -0.47 
    4    2    3      0.26     -0.62 
    5    2    3     -0.16      0.04 
   -7    3    3      0.32     -0.88 
   -6    3    3      0.69      0.21 
   -5    3    3      1.42     -0.84 
   -4    3    3      1.02     -0.13 
   -3    3    3     -0.79      2.75 
   -2    3    3     -1.20      1.39 
   -1    3    3      0.64      1.22 
    0    3    3      1.05      2.14 
    1    3    3      0.11      0.27 
    2    3    3     -0.14     -0.41 
    3    3    3     -0.21      0.02 
    4    3    3      0.32     -0.47 
   -7    4    3     -0.34      0.32 
   -6    4    3     -0.30      0.34 
   -5    4    3     -0.04      0.65 
   -4    4    3      2.26     -1.03 
   -3    4    3      1.64      0.25 
   -2    4    3     -0.84      1.98 
   -1    4    3     -0.70      0.96 
    0    4    3     -0.16      1.83 
    1    4    3     -0.73      2.06 
    2    4    3     -0.47      1.03 
    3    4    3     -0.66      0.90 
    4    4    3     -0.44      0.93 
   -6    5    3     -0.35      0.47 
   -5    5    3     -1.74      0.50 
   -4    5    3     -1.15     -0.38 
   -3    5    3      1.88     -1.92 
   -2    5    3      0.96     -1.10 
   -1    5    3     -0.13     -0.70 
    0    5    3      1.00     -0.77 
    1    5    3      0.72     -0.08 
    2    5    3      0.35     -0.15 
    3    5    3      0.55     -0.05 
    4    5    3     -0.24      0.21 
   -6    6    3      0.23     -0.70 
   -5    6    3      0.08     -0.23 
   -4    6    3     -2.30     -0.48 
   -3    6    3     -1.21     -1.34 
   -2    6    3      0.79     -2.08 
   -1    6    3     -0.57     -1.87 
    0    6    3     -0.50     -1.44 
    1    6    3      0.52     -0.71 
    2    6    3      0.35     -0.76 
    3    6    3      0.67     -0.83 
    4    6    3      0.41     -0.94 
   -6    7    3      0.66     -1.20 
   -5    7    3      1.42     -0.42 
   -4    7    3      0.62      0.52 
   -3    7    3     -1.28      0.45 
   -2    7    3      0.05      0.33 
   -1    7    3      0.51     -0.33 
    0    7    3     -1.09     -0.73 
    1    7    3     -1.36     -0.05 
    2    7    3     -1.24      0.53 
    3    7    3     -0.93      0.39 
    4    7    3     -0.22      0.46 
   -6    8    3     -0.52      0.89 
   -5    8    3      0.25      0.02 
   -4    8    3      1.11      0.93 
   -3    8    3      0.11      1.40 
   -2    8    3     -0.53      1.74 
   -1    8    3      1.26      1.76 
    0    8    3      1.85      0.66 
    1    8    3      0.98     -0.03 
    2    8    3      0.20      0.19 
    3    8    3     -0.34      0.23 
    4    8    3     -0.30      0.87 
   -6    9    3     -1.15      1.36 
   -5    9    3     -1.27      0.90 
   -4    9    3     -0.32      0.16 
   -3    9    3      0.05      0.09 
   -2    9    3     -1.18      0.04 
   -1    9    3     -1.52      0.72 
    0    9    3      0.49      0.71 
    1    9    3      1.90      0.11 
    2    9    3      1.99     -0.23 
    3    9    3      1.62     -0.82 
    4    9    3      1.14     -1.02 
   -6   10    3      0.86     -0.55 
   -5   10    3     -0.37     -0.06 
   -4   10    3     -0.57     -0.05 
   -3   10    3      0.12     -0.39 
   -2   10    3      0.24     -1.03 
   -1   10    3     -1.94     -0.92 
    0   10    3     -3.25     -0.49 
    1   10    3     -2.00     -0.34 
    2   10    3     -1.03      0.22 
    3   10    3     -0.45      0.31 
    4   10    3      0.34     -0.65 
   -6   11    3      1.23     -1.09 
   -5   11    3      1.62     -1.20 
   -4   11    3      0.83     -0.79 
   -3   11    3      0.30      0.02 
   -2   11    3      1.41     -0.02 
   -1   11    3      2.01     -0.08 
    0   11    3     -0.67      0.04 
    1   11    3     -2.11     -0.42 
    2   11    3     -1.95     -0.30 
    3   11    3     -2.43      0.68 
    4   11    3     -1.96      0.84 
   -6   12    3     -0.72     -0.06 
   -5   12    3      0.20     -0.10 
   -4   12    3      1.23     -0.65 
   -3   12    3      0.80     -0.25 
   -2   12    3      0.04      0.06 
   -1   12    3      2.38      0.17 
    0   12    3      3.44      1.03 
    1   12    3      1.75      0.79 
    2   12    3      1.69     -0.10 
    3   12    3      1.11     -0.30 
    4   12    3     -0.42      0.08 
   -6   13    3     -0.86      0.88 
   -5   13    3     -1.79      0.92 
   -4   13    3     -1.33      0.56 
   -3   13    3      0.24      0.28 
   -2   13    3     -0.75      0.34 
   -1   13    3     -1.32     -0.75 
    0   13    3      1.24     -0.28 
    1   13    3      1.60      0.71 
    2   13    3      1.30      0.51 
    3   13    3      2.49      0.27 
    4   13    3      1.84     -0.18 
   -5   14    3     -0.24      0.57 
   -4   14    3     -1.90      0.44 
   -3   14    3     -1.44     -0.04 
   -2   14    3     -0.36      0.96 
   -1   14    3     -2.14      0.41 
    0   14    3     -2.17     -1.17 
    1   14    3     -0.85     -0.58 
    2   14    3     -1.51     -0.49 
    3   14    3     -1.07      0.02 
   -5   15    3      1.29     -0.59 
   -4   15    3      0.85     -0.06 
   -3   15    3     -0.66     -1.13 
   -2   15    3      0.24     -1.07 
   -1   15    3      0.11      0.88 
    0   15    3     -1.35      0.09 
    1   15    3     -0.83     -0.40 
    2   15    3     -0.56     -0.33 
    3   15    3     -1.22     -1.16 
   -5   16    3      0.72     -0.82 
   -4   16    3      1.74     -0.06 
   -3   16    3      0.96      0.18 
   -2   16    3      0.72     -1.72 
   -1   16    3      1.66     -1.08 
    0   16    3      0.76      0.28 
    1   16    3      0.11     -0.05 
    2   16    3      0.28      0.76 
    3   16    3      0.48      0.03 
   -5   17    3     -0.59      0.70 
   -4   17    3      0.18      0.33 
   -3   17    3      0.43      1.70 
   -2   17    3     -0.45      1.31 
   -1   17    3      0.57     -0.41 
    0   17    3      1.14     -0.04 
    1   17    3      0.70     -0.19 
    2   17    3      0.11     -0.06 
    3   17    3     -0.59      0.85 
   -5   18    3     -1.18      0.49 
   -4   18    3     -1.21      0.19 
   -3   18    3     -0.26      0.59 
   -2   18    3     -1.08      1.93 
   -1   18    3     -1.63      1.40 
    0   18    3     -0.49      0.77 
    1   18    3      0.17      0.67 
    2   18    3      1.07     -0.02 
   -4   19    3     -0.61     -1.12 
   -3   19    3      0.02     -1.44 
   -2   19    3      0.78     -0.61 
   -1   19    3     -0.48      0.00 
    0   19    3     -1.07     -0.07 
    1   19    3     -1.16      0.14 
    2   19    3     -0.14      0.35 
   -4   20    3      0.94     -0.47 
   -3   20    3      0.31     -1.41 
   -2   20    3      1.21     -1.40 
   -1   20    3      1.80     -0.76 
    0   20    3      1.08     -0.83 
    1   20    3      0.01     -0.95 
    2   20    3     -1.28     -1.20 
   -3   21    3     -0.08      0.66 
   -2   21    3     -0.62     -0.36 
   -1   21    3     -0.01      0.11 
    0   21    3      0.92      0.55 
    1   21    3      1.28      0.62 
   -3   22    3     -0.59      1.24 
   -2   22    3     -0.74      0.43 
   -1   22    3     -1.43     -0.48 
    0   22    3     -1.39     -0.03 
    1   22    3     -0.38      0.73 
   -2   23    3      0.20      0.79 
   -1   23    3      0.52     -0.02 
    0   23    3     -0.32     -1.05 
   -6    0    4      0.30     -0.08 
   -5    0    4     -1.44      0.00 
   -4    0    4     -1.89      0.12 
   -3    0    4     -0.71      0.18 
   -2    0    4     -2.22      0.26 
   -1    0    4     -0.75      0.33 
    0    0    4      0.96      0.30 
    1    0    4     -1.91      0.19 
    2    0    4     -1.53      0.08 
    3    0    4     -0.03      0.07 
    4    0    4     -0.64     -0.02 
   -6    1    4      0.76      0.45 
   -5    1    4      1.87      0.77 
   -4    1    4      0.36     -0.07 
   -3    1    4      0.72      0.22 
   -2    1    4      0.43      0.28 
   -1    1    4     -1.45     -0.84 
    0    1    4      0.73     -0.18 
    1    1    4      1.10      0.23 
    2    1    4     -1.26     -0.63 
    3    1    4     -0.49     -0.43 
    4    1    4     -0.20     -0.10 
   -6    2    4      0.00     -0.28 
   -5    2    4      0.88      0.68 
   -4    2    4      1.26      0.71 
   -3    2    4      1.06     -0.36 
   -2    2    4      1.85      0.90 
   -1    2    4      0.62      0.18 
    0    2    4     -0.07     -1.38 
    1    2    4      2.05      0.11 
    2    2    4      1.29      0.05 
    3    2    4      0.03     -0.88 
    4    2    4      0.43     -0.37 
   -6    3    4     -0.15     -0.73 
   -5    3    4     -0.66     -1.30 
   -4    3    4     -1.00     -0.05 
   -3    3    4     -0.97     -0.66 
   -2    3    4     -0.01     -0.57 
   -1    3    4      0.19      1.62 
    0    3    4     -1.01      0.32 
    1    3    4     -0.25     -0.16 
    2    3    4      1.22      1.58 
    3    3    4      0.46      0.78 
    4    3    4      0.16      0.02 
   -6    4    4     -0.33     -0.09 
   -5    4    4      0.21     -0.63 
   -4    4    4      0.06     -0.45 
   -3    4    4     -1.37     -0.01 
   -2    4    4     -0.98     -1.35 
   -1    4    4     -0.13     -0.37 
    0    4    4     -1.14      0.96 
    1    4    4     -2.01     -0.71 
    2    4    4     -0.90      0.08 
    3    4    4     -0.04      1.47 
    4    4    4     -0.10      0.77 
   -6    5    4     -0.52      0.57 
   -5    5    4     -0.34      0.54 
   -4    5    4      1.31      0.60 
   -3    5    4      0.94      1.19 
   -2    5    4     -0.38      0.41 
   -1    5    4      0.82     -0.94 
    0    5    4      1.21     -0.03 
    1    5    4     -0.14     -0.54 
    2    5    4     -0.83     -2.28 
    3    5    4     -0.43     -1.11 
    4    5    4     -0.08     -0.01 
   -6    6    4     -0.10      0.75 
   -5    6    4     -0.99      0.23 
   -4    6    4     -0.64     -0.43 
   -3    6    4      1.08      0.39 
   -2    6    4      0.20      0.86 
   -1    6    4     -0.36      0.07 
    0    6    4      1.12      0.07 
    1    6    4      1.44      1.19 
    2    6    4      0.69     -0.06 
    3    6    4      0.10     -1.63 
   -6    7    4      0.88     -0.27 
   -5    7    4      0.14      0.37 
   -4    7    4     -1.11     -0.69 
   -3    7    4     -0.53     -1.03 
   -2    7    4      0.43     -0.03 
   -1    7    4     -0.73     -0.06 
    0    7    4     -1.13     -0.42 
    1    7    4     -0.21      0.65 
    2    7    4      0.18      2.25 
    3    7    4      0.13      1.47 
   -6    8    4      1.10     -0.78 
   -5    8    4      1.44     -0.05 
   -4    8    4      0.42      0.63 
   -3    8    4     -0.56     -0.24 
   -2    8    4     -0.05      0.16 
   -1    8    4      0.54      0.60 
    0    8    4     -0.34     -0.12 
    1    8    4     -0.74     -1.10 
    2    8    4     -0.27     -0.37 
    3    8    4     -0.08      1.33 
   -6    9    4     -0.92      0.06 
   -5    9    4      0.61     -0.30 
   -4    9    4      1.14      0.23 
   -3    9    4      0.52      0.06 
   -2    9    4     -0.18     -0.37 
   -1    9    4      0.20      0.34 
    0    9    4      0.91      0.85 
    1    9    4      0.27      0.19 
    2    9    4      0.26     -1.50 
    3    9    4      0.65     -1.42 
   -6   10    4     -1.72      0.04 
   -5   10    4     -1.82     -0.06 
   -4   10    4     -0.43      0.03 
   -3   10    4      0.40     -0.05 
   -2   10    4      0.54     -0.88 
   -1   10    4     -0.21     -1.32 
    0   10    4      0.25     -0.73 
    1   10    4      0.39      0.68 
    2   10    4     -0.59      0.61 
    3   10    4     -0.02     -0.81 
   -6   11    4      0.68      0.00 
   -5   11    4     -0.83     -0.49 
   -4   11    4     -1.55     -0.10 
   -3   11    4     -1.24      0.70 
   -2   11    4     -0.29      0.73 
   -1   11    4     -0.11      0.03 
    0   11    4     -0.52     -1.15 
    1   11    4      0.47     -0.93 
    2   11    4     -0.34      0.54 
    3   11    4     -1.38      0.55 
   -6   12    4      1.52      0.75 
   -5   12    4      1.81      0.41 
   -4   12    4      0.92     -0.59 
   -3   12    4     -0.38     -0.20 
   -2   12    4     -1.02      0.67 
   -1   12    4     -0.52      1.55 
    0   12    4     -1.01      1.21 
    1   12    4     -0.25     -0.29 
    2   12    4      1.24     -0.16 
    3   12    4      0.04      0.28 
   -5   13    4      0.44      1.07 
   -4   13    4      1.45      0.62 
   -3   13    4      1.75     -0.52 
   -2   13    4      0.87     -0.94 
   -1   13    4      0.56     -0.49 
    0   13    4      0.01      0.98 
    1   13    4     -1.17      0.80 
    2   13    4      0.27      0.32 
    3   13    4      1.29      0.69 
   -5   14    4     -1.09     -0.63 
   -4   14    4     -1.15      0.64 
   -3   14    4     -0.11      0.81 
   -2   14    4      0.69      0.15 
   -1   14    4      1.06     -1.02 
    0   14    4      1.61     -0.91 
    1   14    4      0.17     -0.18 
    2   14    4     -1.01     -0.50 
   -5   15    4     -0.07     -1.07 
   -4   15    4     -0.51     -0.93 
   -3   15    4     -1.27      0.11 
   -2   15    4     -1.31      0.92 
   -1   15    4     -1.19      0.76 
    0   15    4      0.12     -0.20 
    1   15    4      1.06     -0.28 
    2   15    4     -0.02     -0.99 
   -5   16    4      0.18      0.24 
   -4   16    4      0.82     -0.66 
   -3   16    4      0.95     -1.03 
   -2   16    4      0.34     -0.59 
   -1   16    4     -0.85      0.21 
    0   16    4     -1.56      0.44 
    1   16    4     -0.43      0.67 
    2   16    4      0.20      0.59 
   -4   17    4     -0.36      0.38 
   -3   17    4      0.46     -0.36 
   -2   17    4      1.47     -0.77 
   -1   17    4      1.73     -0.73 
    0   17    4      0.50     -0.49 
    1   17    4     -0.45      0.07 
    2   17    4     -0.44      1.12 
   -4   18    4     -0.45      0.87 
   -3   18    4     -1.38      0.57 
   -2   18    4     -1.06      0.23 
   -1   18    4      0.18      0.12 
    0   18    4      1.24     -0.20 
    1   18    4      0.99     -0.61 
   -4   19    4      0.26      0.41 
   -3   19    4     -0.34      0.85 
   -2   19    4     -1.36      0.51 
   -1   19    4     -1.89      0.35 
    0   19    4     -1.25      0.34 
    1   19    4      0.04     -0.16 
   -3   20    4      0.93      0.05 
   -2   20    4      0.82      0.27 
   -1   20    4      0.18      0.05 
    0   20    4     -0.98     -0.05 
   -3   21    4      0.69     -0.66 
   -2   21    4      0.98     -0.11 
   -1   21    4      1.44      0.18 
    0   21    4      1.20      0.33 
   -6    0    5     -0.94     -0.14 
   -5    0    5     -2.60     -0.17 
   -4    0    5     -0.52     -0.05 
   -3    0    5      1.57     -0.01 
   -2    0    5      0.74     -0.04 
   -1    0    5      0.34      0.04 
    0    0    5     -0.81      0.13 
    1    0    5     -1.63      0.10 
    2    0    5      0.30      0.20 
    3    0    5      0.78      0.29 
   -6    1    5      0.38      0.20 
   -5    1    5     -1.14     -0.26 
   -4    1    5     -3.18     -0.49 
   -3    1    5     -1.63      0.44 
   -2    1    5     -0.16      0.34 
   -1    1    5      0.15      0.00 
    0    1    5      0.51      0.42 
    1    1    5     -1.04      0.00 
    2    1    5     -1.62     -0.48 
    3    1    5     -0.16     -0.02 
   -6    2    5      0.82      0.25 
   -5    2    5      1.99      0.89 
   -4    2    5      0.66     -0.30 
   -3    2    5     -1.19     -0.46 
   -2    2    5     -0.89      0.67 
   -1    2    5     -0.23      0.11 
    0    2    5      0.66      0.14 
    1    2    5      1.10      0.79 
    2    2    5     -0.29     -0.15 
    3    2    5     -0.44     -0.66 
   -6    3    5      0.05     -0.20 
   -5    3    5      0.83      0.54 
   -4    3    5      2.13      0.92 
   -3    3    5      1.80     -0.65 
   -2    3    5      0.46     -0.47 
   -1    3    5     -0.06      0.24 
    0    3    5      0.09     -0.47 
    1    3    5      0.85      0.26 
    2    3    5      0.88      0.97 
    3    3    5     -0.02      0.12 
   -6    4    5     -0.59     -0.25 
   -5    4    5     -0.88     -0.72 
   -4    4    5     -0.61      0.28 
   -3    4    5      0.59      0.36 
   -2    4    5      1.10     -0.75 
   -1    4    5      0.23     -0.24 
    0    4    5     -0.31     -0.07 
    1    4    5     -0.29     -0.68 
    2    4    5      0.20      0.27 
    3    4    5     -0.06      0.59 
   -6    5    5     -0.25     -0.24 
   -5    5    5     -0.55     -0.56 
   -4    5    5     -1.12     -0.54 
   -3    5    5     -1.53      0.33 
   -2    5    5     -0.56      0.24 
   -1    5    5      0.09     -0.36 
    0    5    5     -0.29      0.11 
    1    5    5     -0.48     -0.14 
    2    5    5     -0.30     -0.59 
   -6    6    5      0.30      0.15 
   -5    6    5      0.32      0.03 
   -4    6    5      0.19     -0.25 
   -3    6    5     -0.47     -0.12 
   -2    6    5     -1.00      0.25 
   -1    6    5     -0.29      0.05 
    0    6    5      0.25     -0.36 
    1    6    5      0.22      0.08 
    2    6    5      0.07     -0.31 
   -6    7    5     -0.07      0.47 
   -5    7    5      0.31      0.54 
   -4    7    5      0.75      0.17 
   -3    7    5      0.80     -0.02 
   -2    7    5      0.29     -0.08 
   -1    7    5     -0.21      0.15 
    0    7    5      0.06     -0.15 
    1    7    5      0.52     -0.34 
    2    7    5      0.43      0.08 
   -6    8    5      0.00      0.06 
   -5    8    5     -0.33      0.27 
   -4    8    5      0.12      0.47 
   -3    8    5      0.54      0.39 
   -2    8    5      0.50      0.41 
   -1    8    5      0.06      0.38 
    0    8    5     -0.76      0.55 
    1    8    5     -0.63      0.00 
    2    8    5     -0.11      0.16 
   -6    9    5      0.42     -0.15 
   -5    9    5      0.08     -0.37 
   -4    9    5     -0.52     -0.27 
   -3    9    5     -0.21      0.00 
   -2    9    5     -0.05      0.27 
   -1    9    5      0.18      0.45 
    0    9    5     -0.20      0.64 
    1    9    5     -1.18      0.41 
    2    9    5     -0.75     -0.12 
   -5   10    5      0.28     -0.09 
   -4   10    5      0.07     -0.55 
   -3   10    5     -0.22     -0.83 
   -2   10    5      0.11     -0.85 
   -1   10    5      0.42     -0.53 
    0   10    5      1.23      0.08 
    1   10    5      0.58      0.42 
    2   10    5     -0.21     -0.29 
   -5   11    5     -0.40     -0.16 
   -4   11    5      0.14      0.32 
   -3   11    5      0.15      0.03 
   -2   11    5      0.18     -0.48 
   -1   11    5      0.28     -1.04 
    0   11    5      0.87     -0.74 
    1   11    5      1.60      0.45 
    2   11    5      0.65      0.49 
   -5   12    5     -0.06     -0.03 
   -4   12    5     -0.34      0.08 
   -3   12    5     -0.16      0.72 
   -2   12    5     -0.44      0.93 
   -1   12    5     -0.66      0.22 
    0   12    5     -0.78     -1.03 
    1   12    5      0.04     -0.54 
    2   12    5      0.33      0.84 
   -5   13    5      0.23      0.78 
   -4   13    5     -0.12     -0.05 
   -3   13    5     -0.34     -0.38 
   -2   13    5     -0.37      0.34 
   -1   13    5     -0.91      1.03 
    0   13    5     -1.24      0.09 
    1   13    5     -0.94     -1.44 
   -5   14    5      0.02     -0.04 
   -4   14    5      0.09      0.54 
   -3   14    5     -0.16     -0.35 
   -2   14    5      0.29     -0.85 
   -1   14    5      0.35      0.13 
    0   14    5     -0.37      1.16 
    1   14    5     -0.53      0.11 
   -4   15    5      0.67      0.03 
   -3   15    5      0.33      0.86 
   -2   15    5      0.21     -0.06 
   -1   15    5      1.05     -0.44 
    0   15    5      0.80      0.57 
    1   15    5     -0.28      1.40 
   -4   16    5      0.51     -0.61 
   -3   16    5      0.88      0.56 
   -2   16    5      0.07      0.95 
   -1   16    5      0.14     -0.05 
    0   16    5      1.00     -0.29 
   -3   17    5      0.01     -1.04 
   -2   17    5      0.16      0.10 
   -1   17    5     -0.54     -0.02 
    0   17    5     -0.09     -0.53 
   -3   18    5     -0.98     -1.25 
   -2   18    5     -0.10     -1.12 
   -1   18    5     -0.24     -0.31 
   -2   19    5     -0.24     -0.32 
   -5    0    6      1.02      0.02 
   -4    0    6      1.24     -0.11 
   -3    0    6      1.35     -0.22 
   -2    0    6      1.40     -0.14 
   -1    0    6      0.77     -0.16 
    0    0    6     -0.66     -0.21 
    1    0    6     -1.26     -0.15 
   -5    1    6     -0.60      0.10 
   -4    1    6     -0.43      0.38 
   -3    1    6     -0.14      0.36 
   -2    1    6      0.39      0.22 
   -1    1    6      1.09      0.31 
    0    1    6      1.10      0.16 
    1    1    6     -0.14     -0.17 
   -5    2    6     -0.69     -0.69 
   -4    2    6     -1.03     -0.31 
   -3    2    6     -1.37      0.23 
   -2    2    6     -1.38      0.43 
   -1    2    6     -0.99      0.57 
    0    2    6      0.01      0.89 
    1    2    6      0.79      0.78 
   -5    3    6      0.73     -0.48 
   -4    3    6      0.78     -0.87 
   -3    3    6      0.45     -0.83 
   -2    3    6     -0.02     -0.61 
   -1    3    6     -0.43     -0.57 
    0    3    6     -0.90     -0.40 
    1    3    6     -0.50      0.12 
   -5    4    6      0.12      0.85 
   -4    4    6      0.84      0.22 
   -3    4    6      1.24     -0.24 
   -2    4    6      1.20     -0.47 
   -1    4    6      1.28     -0.50 
    0    4    6      0.96     -0.63 
    1    4    6     -0.04     -0.79 
   -5    5    6     -1.22      0.73 
   -4    5    6     -1.06      0.91 
   -3    5    6     -0.40      0.72 
   -2    5    6     -0.29      0.54 
   -1    5    6     -0.21      0.39 
    0    5    6      0.56      0.64 
    1    5    6      0.81      0.57 
   -5    6    6      0.18     -0.57 
   -4    6    6     -1.17     -0.03 
   -3    6    6     -1.09      0.28 
   -2    6    6     -0.70      0.39 
   -1    6    6     -1.12      0.14 
    0    6    6     -1.20     -0.05 
    1    6    6     -0.43      0.48 
   -5    7    6      1.71     -0.45 
   -4    7    6      1.01     -0.75 
   -3    7    6     -0.21     -0.70 
   -2    7    6      0.18     -0.40 
   -1    7    6      0.56     -0.21 
    0    7    6      0.03     -0.75 
    1    7    6     -0.33     -1.00 
   -5    8    6     -0.05      0.28 
   -4    8    6      1.60      0.34 
   -3    8    6      1.01     -0.26 
   -2    8    6      0.07     -0.51 
   -1    8    6      0.51     -0.13 
    0    8    6      0.87      0.17 
    1    8    6      0.71     -0.27 
   -5    9    6     -1.56     -0.13 
   -4    9    6     -0.73      0.64 
   -3    9    6      0.70      1.16 
   -2    9    6      0.08      0.61 
   -1    9    6     -0.80      0.20 
    0    9    6     -0.72      0.37 
   -4   10    6     -1.42     -0.87 
   -3   10    6     -0.92      0.11 
   -2   10    6      0.23      0.85 
   -1   10    6     -0.14      0.74 
    0   10    6     -0.84      0.31 
   -4   11    6      0.45     -0.67 
   -3   11    6     -0.53     -1.61 
   -2   11    6     -0.05     -1.03 
   -1   11    6      1.01     -0.13 
    0   11    6      0.86      0.51 
   -4   12    6      0.80      0.93 
   -3   12    6      0.80      0.06 
   -2   12    6     -0.01     -1.07 
   -1   12    6      0.53     -1.32 
    0   12    6      1.28     -0.55 
   -3   13    6      0.07      1.52 
   -2   13    6     -0.22      1.18 
   -1   13    6     -0.92     -0.15 
   -3   14    6     -0.74     -0.23 
   -2   14    6     -0.44      0.90 
   -1   14    6     -1.20      1.16 
   -4    0    7     -1.01      0.01 
   -3    0    7     -1.02      0.08 
   -2    0    7     -0.50      0.06 
   -1    0    7     -0.86     -0.06 
   -4    1    7      0.91      0.30 
   -3    1    7      0.06      0.38 
   -2    1    7     -0.04      0.45 
   -1    1    7      0.17      0.14 
   -4    2    7      1.05     -0.12 
   -3    2    7      1.03      0.10 
   -2    2    7      0.47      0.64 
   -1    2    7      0.48      1.19 
   -4    3    7     -0.44     -0.79 
   -3    3    7      0.27     -1.07 
   -2    3    7      0.50     -1.07 
   -1    3    7      0.22     -0.32 
   -3    4    7     -0.95     -0.21 
   -2    4    7     -0.29     -1.02 
   -1    4    7      0.20     -1.55 
   -3    5    7     -0.56      1.14 
   -2    5    7     -0.93      1.03 
   -3    6    7      0.88      0.29 
   -2    6    7      0.24      1.02 
   -2    7    7      0.88     -0.60 
    7    0    0     -0.47     -0.24 
    7    1    0      1.26      1.01 
    7    2    0      0.30      0.31 
    7    3    0     -0.23     -0.98 
    7    4    0     -0.17     -0.21 
    7    5    0     -0.47      0.25 
    7    6    0      0.20      0.04 
    7    7    0      0.48      0.28 
    7    8    0     -0.41      0.03 
    6   12    0     -0.63     -0.72 
    6   13    0     -0.15      0.32 
    6   14    0      0.51      0.80 
    6   15    0      0.35     -0.16 
    6   16    0     -0.19     -0.76 
    5   18    0      0.46      0.60 
    5   19    0     -0.09     -0.33 
    5   20    0     -0.32     -0.71 
    5   21    0      0.11      0.23 
    4   22    0      0.21      0.30 
    4   23    0     -0.01     -1.21 
    3   24    0     -0.45      0.61 
    4   24    0     -0.01     -0.22 
    3   25    0      0.12      0.38 
    2   26    0     -0.13     -0.06 
    3   26    0      0.30      0.15 
    1   27    0     -0.40      0.26 
    2   27    0     -0.47     -0.05 
   -7    0    1      0.98     -0.11 
   -7    1    1     -0.55      0.48 
   -7    2    1     -0.36     -1.08 
   -7    3    1      0.93     -0.27 
   -7    4    1     -0.71      0.99 
   -7    5    1     -1.01     -0.22 
   -7    6    1      0.88      0.01 
   -7    7    1      0.79      0.62 
   -7    8    1     -0.21     -0.55 
    6    8    1      0.32      0.62 
   -7    9    1     -0.45     -0.83 
    6    9    1     -0.81     -0.89 
   -7   10    1     -0.17      0.31 
    6   10    1      0.77     -0.60 
   -7   11    1      0.04      0.81 
    6   11    1      0.90      0.63 
    6   12    1     -1.02     -0.01 
    6   13    1     -1.00     -0.41 
   -6   14    1     -0.32      0.23 
   -6   15    1      0.07      1.23 
   -6   16    1      0.37     -0.58 
    5   16    1     -0.66     -0.41 
   -6   17    1      0.19     -1.16 
    5   17    1     -0.50     -0.29 
   -6   18    1     -0.68      0.42 
    5   18    1      0.17      0.10 
   -5   19    1     -0.63      0.91 
    5   19    1      0.36      0.28 
   -5   20    1     -0.57     -0.16 
    4   20    1     -0.56      0.47 
   -5   21    1      0.77     -0.45 
    4   21    1     -0.28     -0.51 
   -5   22    1      0.50      0.29 
   -4   22    1      1.52     -0.39 
    4   22    1      0.08      0.12 
   -4   23    1     -0.28      0.72 
    3   23    1      0.11      0.06 
   -4   24    1     -1.31     -0.64 
   -3   24    1     -1.20     -0.19 
    3   24    1      0.73     -0.23 
   -3   25    1     -0.87     -1.08 
    2   25    1     -0.81     -0.22 
    3   25    1     -0.74      0.01 
   -3   26    1      0.05      0.61 
   -2   26    1     -0.16     -0.23 
   -1   26    1      0.67      0.00 
    1   26    1      0.19     -0.19 
    2   26    1      0.32     -0.03 
   -2   27    1     -0.33      0.45 
   -1   27    1     -0.48      0.37 
    0   27    1     -0.07      0.80 
    1   27    1      0.07      0.23 
    2   27    1      0.62      0.28 
    6    0    2      0.22      0.34 
    6    1    2      0.54     -0.34 
    6    2    2     -0.32      0.10 
    6    3    2     -0.93      0.42 
    6    4    2      0.56     -0.07 
   -7    5    2     -1.27     -0.26 
    6    5    2      1.08      0.04 
   -7    6    2      0.01     -0.24 
    6    6    2     -0.37     -0.37 
   -7    7    2      0.52      1.15 
    6    7    2     -0.62     -0.54 
   -7    8    2      0.64      0.31 
    6    8    2     -0.27      0.60 
   -7    9    2      0.60     -0.82 
    6    9    2     -0.10      0.47 
   -7   10    2     -0.88     -0.75 
   -7   11    2     -0.88     -0.16 
   -7   12    2      0.43      0.87 
    5   12    2     -1.43      0.39 
    5   13    2     -0.07     -0.84 
    5   14    2      0.82     -0.02 
   -6   15    2     -0.39     -0.40 
    5   15    2      0.15      0.85 
   -6   16    2     -0.05      0.48 
    5   16    2     -0.05      0.16 
   -6   17    2      0.32      0.01 
   -6   18    2      0.26     -0.49 
    4   18    2     -0.72     -0.40 
   -5   19    2      0.73     -0.25 
    4   19    2      0.86      0.63 
   -5   20    2     -0.68      0.35 
    4   20    2      0.66      0.86 
   -5   21    2     -0.50     -0.18 
    3   21    2     -0.80     -1.83 
   -5   22    2      0.73      0.11 
   -4   22    2      0.86     -0.47 
    3   22    2     -0.15      0.42 
   -4   23    2      0.96      0.42 
    2   23    2      0.87      0.30 
    3   23    2      0.20      0.80 
   -4   24    2     -0.65     -0.53 
   -3   24    2     -0.11     -0.01 
    2   24    2      0.42      0.32 
   -3   25    2     -0.23     -1.58 
   -2   25    2      0.06     -1.22 
    1   25    2     -0.58     -0.29 
    2   25    2     -1.10      0.04 
   -3   26    2      0.00     -0.18 
   -2   26    2      1.01     -0.62 
   -1   26    2      1.30     -0.86 
    0   26    2      0.13     -1.25 
    1   26    2      0.38     -0.84 
   -2   27    2     -0.55      0.78 
   -1   27    2      0.33      1.14 
    0   27    2      0.56      0.55 
    1   27    2      0.18     -0.13 
    5    3    3     -0.09     -0.69 
    5    4    3      0.39      0.37 
   -7    5    3     -0.83      0.69 
    5    5    3      0.15      0.72 
   -7    6    3      0.36     -0.88 
    5    6    3     -0.32     -0.89 
   -7    7    3      0.69     -0.36 
    5    7    3     -0.35     -0.46 
   -7    8    3     -0.66      1.01 
    5    8    3     -0.11      1.12 
   -7    9    3     -0.22      0.52 
    5    9    3      0.64      0.08 
   -7   10    3      0.74     -0.68 
    5   10    3      0.54     -0.77 
   -7   11    3      0.11     -0.96 
    5   11    3     -0.86      0.22 
   -7   12    3     -0.44      0.30 
    5   12    3     -0.46      0.11 
   -6   14    3      0.16      0.32 
    4   14    3      0.17      0.63 
   -6   15    3      0.46     -0.88 
    4   15    3     -0.89     -0.11 
   -6   16    3      0.28     -0.11 
    4   16    3      0.39     -0.90 
   -6   17    3     -0.30      0.87 
    4   17    3     -0.01     -0.20 
   -6   18    3     -0.38     -0.13 
    3   18    3      0.12      0.22 
   -5   19    3      0.24     -0.92 
    3   19    3      1.35      0.43 
   -5   20    3      1.15      0.12 
    3   20    3     -0.43     -0.51 
   -5   21    3     -0.15      0.77 
   -4   21    3      0.29      1.37 
    2   21    3      0.45     -0.18 
    3   21    3     -0.65     -1.19 
   -4   22    3     -0.80      0.38 
    2   22    3      0.37      1.55 
   -4   23    3     -0.04     -0.84 
   -3   23    3     -0.26     -0.06 
    1   23    3     -0.67     -1.15 
    2   23    3     -0.47     -0.33 
   -4   24    3      0.44     -0.05 
   -3   24    3      0.27     -0.49 
   -2   24    3     -0.20      0.18 
   -1   24    3      0.43      1.26 
    0   24    3      0.98      0.79 
    1   24    3      0.50     -0.20 
   -3   25    3      0.53     -0.01 
   -2   25    3      0.00     -0.66 
   -1   25    3     -0.79     -0.19 
    0   25    3     -0.40      1.00 
    1   25    3      0.01      0.90 
   -2   26    3      0.80     -0.04 
   -1   26    3      0.43     -1.03 
    0   26    3     -0.33     -0.83 
   -7    0    4     -0.96     -0.08 
   -7    1    4     -0.25      0.13 
   -7    2    4      0.85      0.36 
   -7    3    4      0.20     -0.28 
   -7    4    4     -0.58     -0.54 
   -7    5    4     -0.43      0.56 
   -7    6    4      0.24      0.52 
    4    6    4     -0.15     -1.16 
   -7    7    4      0.89     -0.58 
    4    7    4     -0.08      0.08 
   -7    8    4      0.10     -0.36 
    4    8    4      0.02      1.32 
   -7    9    4     -1.11      0.28 
    4    9    4      0.31     -0.10 
   -7   10    4     -0.43      0.09 
    4   10    4      0.40     -0.91 
   -7   11    4      0.93      0.00 
    4   11    4     -0.45     -0.06 
    4   12    4     -0.57      0.02 
   -6   13    4     -0.22      0.12 
    4   13    4      0.29      0.25 
   -6   14    4     -0.88     -1.00 
    3   14    4      0.02      0.28 
   -6   15    4     -0.18     -0.42 
    3   15    4     -0.43     -1.29 
   -6   16    4      0.39      0.73 
    3   16    4      0.07     -0.69 
   -6   17    4      0.32      0.65 
   -5   17    4      0.09      0.80 
    3   17    4     -0.30      0.91 
   -5   18    4      0.16      0.42 
    2   18    4      0.34     -0.10 
    3   18    4     -0.24      0.65 
   -5   19    4     -0.35     -0.59 
    2   19    4      0.66     -0.54 
   -5   20    4      0.04     -0.64 
   -4   20    4      0.31     -0.84 
    1   20    4     -1.14     -0.12 
    2   20    4     -0.29     -0.34 
   -4   21    4      0.45     -0.55 
    1   21    4      0.04      0.12 
    2   21    4     -0.29     -0.17 
   -4   22    4     -0.06      0.43 
   -3   22    4      0.04     -0.23 
   -2   22    4     -0.09     -0.21 
   -1   22    4     -0.05     -0.11 
    0   22    4      0.62      0.44 
    1   22    4      0.52      0.74 
   -3   23    4     -0.58     -0.05 
   -2   23    4     -0.31     -0.20 
   -1   23    4     -0.59     -0.43 
    0   23    4     -0.44     -0.58 
    1   23    4     -0.04      0.12 
   -3   24    4     -0.75     -0.09 
   -2   24    4     -0.29     -0.23 
   -1   24    4     -0.08     -0.13 
    0   24    4     -0.13     -0.64 
   -7    0    5     -0.15     -0.09 
   -7    1    5     -0.38     -0.17 
   -7    2    5      0.28     -0.14 
   -7    3    5      0.15      0.39 
   -7    4    5     -0.42      0.07 
   -7    5    5      0.04     -0.39 
    3    5    5      0.04      0.18 
   -7    6    5      0.24      0.04 
    3    6    5      0.25     -0.29 
   -7    7    5     -0.07      0.30 
    3    7    5      0.26     -0.43 
   -7    8    5      0.06      0.13 
    3    8    5     -0.16      0.20 
    3    9    5     -0.47      0.39 
   -6   10    5     -0.21     -0.36 
    3   10    5      0.10     -0.37 
   -6   11    5     -0.37     -0.35 
    3   11    5      0.36     -0.32 
   -6   12    5      0.19      0.61 
    3   12    5     -0.18      0.56 
   -6   13    5      0.11      0.55 
    2   13    5     -0.15     -0.67 
   -6   14    5     -0.05     -0.61 
    2   14    5      0.09     -1.17 
   -5   15    5      0.32     -0.91 
    2   15    5     -0.31      0.52 
   -5   16    5     -0.18      0.00 
    1   16    5      0.49      0.32 
    2   16    5     -0.50      0.80 
   -5   17    5     -0.65      0.45 
   -4   17    5     -1.01     -0.58 
    1   17    5      0.77     -0.45 
    2   17    5      0.49     -0.27 
   -5   18    5      0.20      0.17 
   -4   18    5     -0.81      0.08 
    0   18    5     -0.57     -0.52 
    1   18    5     -0.23     -0.34 
   -4   19    5      0.60      1.02 
   -3   19    5     -0.39      0.71 
   -1   19    5      0.05      0.00 
    0   19    5     -0.10      0.03 
    1   19    5     -0.29     -0.24 
   -4   20    5      0.53      0.39 
   -3   20    5      0.28      1.38 
   -2   20    5     -0.27      0.91 
   -1   20    5     -0.10      0.49 
    0   20    5     -0.15      0.54 
   -3   21    5      0.43     -0.12 
   -2   21    5      0.07      0.27 
   -1   21    5     -0.04      0.06 
    0   21    5     -0.24      0.20 
   -2   22    5      0.48     -0.19 
   -1   22    5      0.45     -0.30 
   -6    0    6      0.48      0.03 
    2    0    6     -0.26     -0.12 
   -6    1    6     -0.61     -0.13 
    2    1    6     -0.87     -0.23 
   -6    2    6     -0.24     -0.59 
    2    2    6      0.32      0.17 
   -6    3    6      0.51      0.06 
    2    3    6      0.12      0.38 
   -6    4    6     -0.36      0.85 
    2    4    6     -0.39     -0.41 
   -6    5    6     -0.49      0.08 
    2    5    6      0.44      0.18 
   -6    6    6      0.93     -0.60 
    2    6    6      0.13      0.62 
   -6    7    6      0.55     -0.17 
    2    7    6     -0.32     -0.65 
   -6    8    6     -0.96      0.05 
    2    8    6      0.31     -0.42 
   -6    9    6     -0.60      0.15 
    1    9    6     -0.28      0.51 
    2    9    6      0.09      0.51 
   -6   10    6      0.43      0.22 
   -5   10    6     -0.22     -0.24 
    1   10    6     -1.01     -0.01 
    2   10    6     -0.51     -0.13 
   -6   11    6      0.53     -0.04 
   -5   11    6      0.82      0.30 
    1   11    6      0.19      0.39 
   -5   12    6      0.35      0.38 
    1   12    6      1.02      0.50 
   -5   13    6     -0.22      0.10 
   -4   13    6     -0.32      0.70 
    0   13    6     -0.15     -1.14 
    1   13    6      0.47     -0.78 
   -5   14    6     -0.31     -0.46 
   -4   14    6     -0.46     -0.54 
    0   14    6     -1.50      0.12 
    1   14    6     -0.51     -0.80 
   -5   15    6      0.17     -0.48 
   -4   15    6      0.30     -0.60 
   -3   15    6      0.13     -1.10 
   -2   15    6      0.29     -1.01 
   -1   15    6      0.37      0.34 
    0   15    6     -0.74      0.85 
   -4   16    6      0.53      0.30 
   -3   16    6      0.71      0.45 
   -2   16    6      0.75     -0.47 
   -1   16    6      1.31     -0.45 
    0   16    6      0.99      0.42 
   -4   17    6     -0.27      0.37 
   -3   17    6     -0.08      0.81 
   -2   17    6     -0.10      0.88 
   -1   17    6      0.30     -0.16 
    0   17    6      0.92     -0.06 
   -3   18    6     -0.55     -0.64 
   -2   18    6     -0.77      0.06 
   -1   18    6     -0.79     -0.02 
   -2   19    6      0.01     -0.85 
   -5    0    7     -0.05      0.00 
    0    0    7     -1.13      0.00 
    1    0    7     -0.21      0.09 
   -5    1    7      1.17      0.22 
    0    1    7     -0.51     -0.44 
    1    1    7     -0.99     -0.51 
   -5    2    7      0.29     -0.32 
    0    2    7      0.66      0.95 
    1    2    7      0.16      0.08 
   -5    3    7     -0.73     -0.56 
    0    3    7      0.19      0.70 
    1    3    7      0.26      0.85 
   -5    4    7     -0.57      0.30 
   -4    4    7     -0.97      0.14 
    0    4    7      0.22     -1.07 
   -5    5    7      0.18      0.46 
   -4    5    7      0.01      0.75 
   -1    5    7     -0.60      0.15 
    0    5    7     -0.03     -0.60 
   -5    6    7      0.57     -0.16 
   -4    6    7      0.75     -0.11 
   -1    6    7     -0.48      1.23 
    0    6    7     -0.63      0.53 
   -5    7    7      0.06     -0.15 
   -4    7    7      0.01     -0.55 
   -3    7    7      0.40     -0.85 
   -1    7    7      0.68      0.15 
    0    7    7      0.10      0.47 
   -5    8    7     -0.40      0.18 
   -4    8    7     -0.48      0.12 
   -3    8    7     -0.76     -0.42 
   -2    8    7     -0.43     -0.88 
   -1    8    7      0.26     -0.84 
    0    8    7      0.44     -0.06 
   -5    9    7      0.07     -0.01 
   -4    9    7      0.17      0.52 
   -3    9    7      0.09      0.68 
   -2    9    7     -0.41      0.31 
   -1    9    7     -0.47     -0.33 
    0    9    7     -0.10     -0.47 
   -4   10    7      0.34     -0.14 
   -3   10    7      0.57      0.46 
   -2   10    7      0.59      0.84 
   -1   10    7     -0.02      0.70 
    0   10    7     -0.11     -0.09 
   -4   11    7     -0.28     -0.54 
   -3   11    7     -0.41     -0.72 
   -2   11    7     -0.01     -0.35 
   -1   11    7      0.11      0.31 
   -4   12    7     -0.36      0.07 
   -3   12    7     -0.46     -0.34 
   -2   12    7     -0.49     -0.78 
   -1   12    7      0.07     -0.59 
   -3   13    7      0.37      0.71 
   -2   13    7      0.07      0.48 
    0    0    0      0.00      0.00 
# SQUEEZE RESULTS (Version = 260918) 
# Note: Data are Listed for all Voids in the P1 Unit Cell 
# i.e. Centre of Gravity, Solvent Accessible Volume, 
# Recovered number of Electrons in the Void and 
# Details about the Squeezed Material 
loop_ 
  _platon_squeeze_void_nr 
  _platon_squeeze_void_average_x 
  _platon_squeeze_void_average_y 
  _platon_squeeze_void_average_z 
  _platon_squeeze_void_volume 
  _platon_squeeze_void_count_electrons 
  _platon_squeeze_void_content 
   1  0.171  0.785  0.087        39        11 ' ' 
   2  0.828  0.285 -0.088        38        11 ' ' 
_platon_squeeze_void_probe_radius                  1.20 
_platon_squeeze_details 
) 
TITL 2 in P2(1) 
CELL    5.9855   22.1160    6.1152     90.00    110.66     90.00 
SPGR P21 
# Solvent Accessible Volume =        77 
# Electrons Found in S.A.V. =        23 
# Note: Atoms in Void are Labelled as Cxxx and Qxxx for all Others 
Q101 0.101 0.837 0.941 !       3.17 eA-3 
Q102 0.058 0.748 0.377 !       2.55 eA-3 
Q103 0.228 0.757 0.310 !       2.45 eA-3 
Q104 0.944 0.210 0.176 !       2.43 eA-3 
Q105 0.825 0.040 0.838 !       2.19 eA-3 
Q106 0.347 0.852 0.260 !       2.19 eA-3 
Q107 1.008 0.223 0.880 !       2.18 eA-3 
Q108 0.567 0.514 0.210 !       2.05 eA-3 
Q109 0.851 0.206 0.726 !       1.95 eA-3 
Q110 0.471 0.475 0.532 !       1.92 eA-3 
Q111 0.036 0.727 0.970 !       1.92 eA-3 
Q112 0.805 0.476 0.007 !       1.91 eA-3 
Q113 0.981 0.303 0.621 !       1.85 eA-3 
Q114 0.901 0.059 0.539 !       1.85 eA-3 
Q115 0.950 0.357 0.789 !       1.76 eA-3 
Q116 0.450 0.538 0.527 !       1.75 eA-3 
Q117 0.208 0.603 0.612 !       1.73 eA-3 
Q118 0.890 0.610 0.224 !       1.72 eA-3 
Q119 0.648 0.937 0.842 !       1.71 eA-3 
Q120 0.441 0.156 0.714 !       1.68 eA-3 
Q121 0.967 0.985 0.223 !       1.64 eA-3 
Q122 0.102 0.843 0.077 !       1.59 eA-3 
Q123 0.939 0.801 0.247 !       1.54 eA-3 
Q124 0.841 0.300 0.904 !       1.46 eA-3 
Q125 0.662 0.308 0.735 !       1.46 eA-3 
Q126 0.596 0.138 0.403 !       1.46 eA-3 
Q127 0.022 0.796 0.896 !       1.42 eA-3 
Q128 0.880 0.243 0.119 !       1.41 eA-3 
Q129 0.072 0.774 0.223 !       1.37 eA-3 
Q130 0.527 0.372 0.458 !       1.34 eA-3 
Q131 0.842 0.327 0.506 !       1.29 eA-3 
Q132 0.972 0.314 0.785 !       1.26 eA-3 
Q133 0.087 0.037 0.496 !       1.25 eA-3 
Q134 0.210 0.783 0.531 !       1.20 eA-3 
Q135 0.765 0.538 0.903 !       1.17 eA-3 
C136 0.179 0.807 0.381 !       1.17 eA-3 
Q137 0.524 0.105 0.459 !       1.16 eA-3 
Q138 0.553 0.636 0.877 !       1.11 eA-3 
Q139 0.464 0.471 0.091 !       1.11 eA-3 
Q140 0.093 0.803 0.852 !       1.10 eA-3 
Q141 0.818 0.886 0.898 !       1.08 eA-3 
Q142 0.936 0.121 0.494 !       1.05 eA-3 
Q143 0.692 0.599 0.257 !       1.03 eA-3 
Q144 0.599 0.580 0.878 !       1.02 eA-3 
Q145 0.524 0.516 0.397 !       1.02 eA-3 
Q146 0.946 0.140 0.888 !       1.00 eA-3 
Q147 0.525 0.563 0.416 !       1.00 eA-3 
Q148 0.787 0.198 0.105 !       1.00 eA-3 
Q149 0.626 0.122 0.087 !       0.98 eA-3 
Q150 0.967 0.914 0.244 !       0.98 eA-3 
Q151 0.474 0.431 0.402 !       0.97 eA-3 
Q152 0.671 0.071 0.447 !       0.97 eA-3 
Q153 0.346 0.760 0.037 !       0.96 eA-3 
Q154 0.165 0.923 0.872 !       0.96 eA-3 
Q155 0.975 0.758 0.777 !       0.95 eA-3 
Q156 0.740 0.095 0.138 !       0.95 eA-3 
Q157 0.584 0.417 0.691 !       0.91 eA-3 
Q158 0.949 0.541 0.026 !       0.91 eA-3 
Q159 0.780 0.110 0.041 !       0.90 eA-3 
Q160 0.101 0.532 0.622 !       0.90 eA-3 
Q161 0.868 0.971 0.311 !       0.86 eA-3 
Q162 0.558 0.329 0.319 !       0.86 eA-3 
Q163 0.535 0.398 0.775 !       0.86 eA-3 
Q164 0.880 0.011 0.491 !       0.86 eA-3 
Q165 0.713 0.985 0.848 !       0.85 eA-3 
Q166 0.922 0.966 0.620 !       0.85 eA-3 
Q167 0.944 0.587 0.599 !       0.84 eA-3 
Q168 0.742 0.980 0.664 !       0.84 eA-3 
Q169 0.336 0.781 0.632 !       0.83 eA-3 
Q170 0.716 0.064 0.254 !       0.83 eA-3 
Q171 0.594 0.335 0.962 !       0.83 eA-3 
Q172 0.884 0.703 0.966 !       0.83 eA-3 
Q173 0.069 0.368 0.707 !       0.82 eA-3 
Q174 0.663 0.445 0.593 !       0.82 eA-3 
Q175 0.938 0.253 0.309 !       0.81 eA-3 
Q176 0.600 0.542 0.035 !       0.80 eA-3 
Q177 0.816 0.948 0.897 !       0.79 eA-3 
Q178 0.808 0.595 0.973 !       0.79 eA-3 
Q179 0.806 0.611 0.649 !       0.78 eA-3 
Q180 0.528 0.054 0.303 !       0.78 eA-3 
Q181 0.627 0.759 0.457 !       0.78 eA-3 
Q182 0.517 0.600 0.278 !       0.76 eA-3 
Q183 0.570 0.929 0.393 !       0.76 eA-3 
Q184 0.935 0.322 0.339 !       0.76 eA-3 
Q185 0.969 0.291 0.461 !       0.75 eA-3 
Q186 0.150 0.589 0.123 !       0.75 eA-3 
Q187 1.007 0.833 0.775 !       0.74 eA-3 
Q188 0.713 0.049 0.398 !       0.74 eA-3 
Q189 0.807 0.903-0.003 !       0.74 eA-3 
Q190 0.708 0.306 0.217 !       0.73 eA-3 
Q191 0.978 0.166 0.264 !       0.72 eA-3 
Q192 0.789 0.085 0.628 !       0.72 eA-3 
Q193 0.706 0.912 0.752 !       0.72 eA-3 
Q194 0.604 0.512 0.836 !       0.71 eA-3 
Q195 0.700 0.394 0.593 !       0.71 eA-3 
Q196 0.956 0.180 0.395 !       0.71 eA-3 
Q197 0.864 0.547 0.165 !       0.70 eA-3 
C198 0.822 0.322 0.781 !       0.70 eA-3 
Q199 0.427 0.179 0.058 !       0.70 eA-3 
) 
;
_shelx_fab_checksum              61177
loop_
_space_group_symop_operation_xyz
'x, y, z'
'-x, y+1/2, -z'
loop_
_atom_site_label
_atom_site_type_symbol
_atom_site_fract_x
_atom_site_fract_y
_atom_site_fract_z
_atom_site_U_iso_or_equiv
_atom_site_adp_type
_atom_site_occupancy
_atom_site_site_symmetry_order
_atom_site_calc_flag
_atom_site_refinement_flags_posn
_atom_site_refinement_flags_adp
_atom_site_refinement_flags_occupancy
_atom_site_disorder_assembly
_atom_site_disorder_group
Gd1 Gd 0.17843(16) 0.53903(10) 0.15703(15) 0.0120(3) Uani 1 1 d . U . . .
N1 N 0.371(4) 0.4332(13) 0.349(4) 0.021(4) Uani 1 1 d D U . . .
O1 O 0.633(4) 0.1366(8) 0.825(3) 0.034(4) Uani 1 1 d . U . . .
O2 O 0.579(4) 0.1032(10) 0.470(4) 0.045(5) Uani 1 1 d . U . . .
O3 O 0.082(3) 0.5073(7) 0.486(3) 0.022(3) Uani 1 1 d . U . . .
O4 O 0.219(3) 0.4737(7) 0.845(3) 0.025(4) Uani 1 1 d . U . . .
O5 O 0.593(3) 0.5525(9) 0.226(3) 0.033(4) Uani 1 1 d . U . . .
O6 O 0.892(3) 0.4675(8) 0.210(3) 0.029(4) Uani 1 1 d . U . . .
O7 O -0.201(3) 0.5901(9) -0.008(3) 0.031(4) Uani 1 1 d . U . . .
H7C H -0.307304 0.594019 -0.143197 0.037 Uiso 1 1 d R U . . .
H7D H -0.267594 0.576889 0.083853 0.037 Uiso 1 1 d R U . . .
O8 O -0.006(4) 0.5895(8) -0.223(3) 0.035(5) Uani 1 1 d . U . . .
H8D H -0.008301 0.564637 -0.328923 0.042 Uiso 1 1 d R U . . .
H8E H 0.087559 0.618036 -0.225723 0.042 Uiso 1 1 d R U . . .
C1 C 0.446(4) 0.2028(7) 0.515(3) 0.034(5) Uani 1 1 d DG U . . .
C2 C 0.382(3) 0.2431(7) 0.664(3) 0.030(5) Uani 1 1 d DG U . . .
H2 H 0.397785 0.230828 0.814033 0.036 Uiso 1 1 calc R U . . .
C3 C 0.295(3) 0.3015(7) 0.587(3) 0.032(5) Uani 1 1 d G U . . .
H3 H 0.250530 0.326630 0.686660 0.038 Uiso 1 1 calc R U . . .
C4 C 0.275(4) 0.3227(7) 0.363(3) 0.033(5) Uani 1 1 d G U . . .
C5 C 0.326(4) 0.2795(7) 0.208(3) 0.040(5) Uani 1 1 d G U . . .
H5 H 0.292611 0.289749 0.051778 0.048 Uiso 1 1 calc R U . . .
C6 C 0.426(4) 0.2219(7) 0.290(3) 0.035(5) Uani 1 1 d G U . . .
H6 H 0.477455 0.197000 0.195233 0.042 Uiso 1 1 calc R U . . .
C7 C 0.569(7) 0.1443(18) 0.621(6) 0.031(6) Uani 1 1 d . U . . .
C8 C 0.191(5) 0.3863(12) 0.272(5) 0.033(5) Uani 1 1 d . U . . .
H8A H 0.130785 0.385249 0.102809 0.040 Uiso 1 1 calc R U . . .
H8B H 0.058351 0.397169 0.321060 0.040 Uiso 1 1 calc R U . . .
C9 C 0.440(4) 0.4487(13) 0.597(4) 0.029(5) Uani 1 1 d D U . . .
H9A H 0.573345 0.476475 0.638852 0.035 Uiso 1 1 calc R U . . .
H9B H 0.492358 0.412273 0.689754 0.035 Uiso 1 1 calc R U . . .
C10 C 0.240(4) 0.4771(10) 0.659(4) 0.024(5) Uani 1 1 d D U . . .
C11 C 0.580(4) 0.4179(9) 0.292(4) 0.024(4) Uani 1 1 d D U . . .
H11A H 0.533287 0.391165 0.157593 0.028 Uiso 1 1 calc R U . . .
H11B H 0.693970 0.396507 0.422417 0.028 Uiso 1 1 calc R U . . .
C12 C 0.696(4) 0.4735(9) 0.239(5) 0.025(4) Uani 1 1 d D U . . .
loop_
_atom_site_aniso_label
_atom_site_aniso_U_11
_atom_site_aniso_U_22
_atom_site_aniso_U_33
_atom_site_aniso_U_23
_atom_site_aniso_U_13
_atom_site_aniso_U_12
Gd1 0.0136(4) 0.0129(4) 0.0109(4) -0.0005(10) 0.0060(3) 0.0002(11)
N1 0.028(7) 0.016(7) 0.026(7) 0.005(7) 0.019(6) 0.005(7)
O1 0.047(9) 0.029(8) 0.024(8) 0.005(7) 0.011(8) -0.007(8)
O2 0.053(10) 0.037(9) 0.029(9) -0.005(8) -0.004(8) 0.009(9)
O3 0.020(7) 0.025(7) 0.019(7) 0.009(6) 0.005(6) 0.011(6)
O4 0.038(9) 0.019(8) 0.020(8) 0.001(7) 0.012(7) 0.007(7)
O5 0.028(7) 0.046(10) 0.030(7) -0.002(7) 0.016(6) 0.008(7)
O6 0.025(8) 0.024(8) 0.050(9) -0.002(8) 0.030(7) 0.001(7)
O7 0.029(10) 0.045(11) 0.013(9) 0.002(8) 0.001(8) -0.003(9)
O8 0.063(13) 0.026(9) 0.019(9) 0.002(8) 0.017(9) -0.004(9)
C1 0.038(9) 0.031(9) 0.031(9) -0.001(9) 0.011(8) -0.002(9)
C2 0.044(10) 0.029(9) 0.023(9) -0.002(8) 0.018(8) 0.004(8)
C3 0.035(9) 0.032(9) 0.029(9) -0.004(8) 0.012(8) 0.007(8)
C4 0.038(9) 0.027(8) 0.027(9) -0.002(8) 0.005(8) 0.005(8)
C5 0.051(10) 0.030(9) 0.035(9) -0.003(9) 0.012(9) 0.000(9)
C6 0.045(10) 0.027(9) 0.030(9) -0.002(8) 0.012(8) 0.009(8)
C7 0.051(12) 0.019(10) 0.026(11) -0.005(9) 0.017(10) 0.001(11)
C8 0.032(8) 0.023(8) 0.036(8) -0.008(8) 0.001(8) 0.008(8)
C9 0.021(8) 0.031(8) 0.031(8) -0.009(8) 0.003(7) 0.014(7)
C10 0.039(9) 0.015(8) 0.015(8) -0.006(8) 0.004(8) 0.000(8)
C11 0.025(8) 0.024(8) 0.024(8) -0.007(7) 0.012(7) 0.008(7)
C12 0.026(9) 0.018(8) 0.034(9) -0.004(8) 0.014(8) 0.007(8)
loop_
_atom_type_symbol
_atom_type_description
_atom_type_scat_dispersion_real
_atom_type_scat_dispersion_imag
_atom_type_scat_source
C C 0.0033 0.0016 'International Tables Vol C Tables 4.2.6.8 and 6.1.1.4'
H H 0.0000 0.0000 'International Tables Vol C Tables 4.2.6.8 and 6.1.1.4'
N N 0.0061 0.0033 'International Tables Vol C Tables 4.2.6.8 and 6.1.1.4'
O O 0.0106 0.0060 'International Tables Vol C Tables 4.2.6.8 and 6.1.1.4'
Gd Gd -0.1653 3.9035 'International Tables Vol C Tables 4.2.6.8 and 6.1.1.4'
loop_
_geom_angle_atom_site_label_1
_geom_angle_atom_site_label_2
_geom_angle_atom_site_label_3
_geom_angle
_geom_angle_site_symmetry_1
_geom_angle_site_symmetry_3
_geom_angle_publ_flag
O3 Gd1 O5 115.8(6) . . ?
O3 Gd1 O7 91.1(6) . . ?
O5 Gd1 O7 141.4(6) . . ?
O3 Gd1 O1 118.1(6) . 2_656 ?
O5 Gd1 O1 56.0(6) . 2_656 ?
O7 Gd1 O1 87.5(6) . 2_656 ?
O3 Gd1 O6 46.0(6) . 1_455 ?
O5 Gd1 O6 142.6(6) . 1_455 ?
O7 Gd1 O6 76.0(6) . 1_455 ?
O1 Gd1 O6 155.7(6) 2_656 1_455 ?
O3 Gd1 O8 140.1(6) . . ?
O5 Gd1 O8 101.7(6) . . ?
O7 Gd1 O8 49.4(6) . . ?
O1 Gd1 O8 71.7(6) 2_656 . ?
O6 Gd1 O8 108.5(7) 1_455 . ?
O3 Gd1 O4 126.7(6) . 1_554 ?
O5 Gd1 O4 80.2(6) . 1_554 ?
O7 Gd1 O4 106.5(6) . 1_554 ?
O1 Gd1 O4 112.6(6) 2_656 1_554 ?
O6 Gd1 O4 89.4(6) 1_455 1_554 ?
O8 Gd1 O4 70.8(6) . 1_554 ?
O3 Gd1 O2 69.7(6) . 2_656 ?
O5 Gd1 O2 64.0(7) . 2_656 ?
O7 Gd1 O2 105.0(7) . 2_656 ?
O1 Gd1 O2 51.4(6) 2_656 2_656 ?
O6 Gd1 O2 115.6(7) 1_455 2_656 ?
O8 Gd1 O2 119.9(6) . 2_656 ?
O4 Gd1 O2 143.7(7) 1_554 2_656 ?
O3 Gd1 N1 64.5(6) . . ?
O5 Gd1 N1 76.9(7) . . ?
O7 Gd1 N1 141.6(7) . . ?
O1 Gd1 N1 129.4(7) 2_656 . ?
O6 Gd1 N1 65.7(6) 1_455 . ?
O8 Gd1 N1 142.1(6) . . ?
O4 Gd1 N1 71.7(6) 1_554 . ?
O2 Gd1 N1 94.0(6) 2_656 . ?
O3 Gd1 C7 94.8(8) . 2_656 ?
O5 Gd1 C7 57.9(9) . 2_656 ?
O7 Gd1 C7 94.6(9) . 2_656 ?
O1 Gd1 C7 24.2(7) 2_656 2_656 ?
O6 Gd1 C7 138.4(8) 1_455 2_656 ?
O8 Gd1 C7 93.8(8) . 2_656 ?
O4 Gd1 C7 131.7(8) 1_554 2_656 ?
O2 Gd1 C7 27.3(7) 2_656 2_656 ?
N1 Gd1 C7 115.4(7) . 2_656 ?
C8 N1 C11 111(2) . . ?
C8 N1 C9 114(2) . . ?
C11 N1 C9 110.7(18) . . ?
C8 N1 Gd1 109.0(15) . . ?
C11 N1 Gd1 111.7(17) . . ?
C9 N1 Gd1 99.8(17) . . ?
C7 O1 Gd1 99(2) . 2_646 ?
C7 O2 Gd1 85.0(19) . 2_646 ?
C10 O3 Gd1 120.5(14) . . ?
C10 O4 Gd1 140.6(16) . 1_556 ?
C12 O5 Gd1 101.6(11) . . ?
C12 O6 Gd1 133.4(14) . 1_655 ?
Gd1 O7 H7C 136.6 . . ?
Gd1 O7 H7D 98.9 . . ?
H7C O7 H7D 108.2 . . ?
Gd1 O8 H8D 108.0 . . ?
Gd1 O8 H8E 106.1 . . ?
H8D O8 H8E 107.1 . . ?
C6 C1 C2 119.2 . . ?
C6 C1 C7 122.6(16) . . ?
C2 C1 C7 117.5(16) . . ?
C3 C2 C1 120.9 . . ?
C3 C2 H2 119.6 . . ?
C1 C2 H2 119.6 . . ?
C2 C3 C4 121.5 . . ?
C2 C3 H3 119.3 . . ?
C4 C3 H3 119.3 . . ?
C3 C4 C5 116.8 . . ?
C3 C4 C8 124.2(15) . . ?
C5 C4 C8 119.0(15) . . ?
C6 C5 C4 121.0 . . ?
C6 C5 H5 119.5 . . ?
C4 C5 H5 119.5 . . ?
C1 C6 C5 120.0 . . ?
C1 C6 H6 120.0 . . ?
C5 C6 H6 120.0 . . ?
O1 C7 O2 124(4) . . ?
O1 C7 C1 120(3) . . ?
O2 C7 C1 115(3) . . ?
O1 C7 Gd1 57.1(19) . 2_646 ?
O2 C7 Gd1 67.7(18) . 2_646 ?
C1 C7 Gd1 176(2) . 2_646 ?
N1 C8 C4 115(2) . . ?
N1 C8 H8A 108.4 . . ?
C4 C8 H8A 108.4 . . ?
N1 C8 H8B 108.4 . . ?
C4 C8 H8B 108.4 . . ?
H8A C8 H8B 107.5 . . ?
N1 C9 C10 113.5(19) . . ?
N1 C9 H9A 108.9 . . ?
C10 C9 H9A 108.9 . . ?
N1 C9 H9B 108.9 . . ?
C10 C9 H9B 108.9 . . ?
H9A C9 H9B 107.7 . . ?
O4 C10 O3 121(2) . . ?
O4 C10 C9 125(2) . . ?
O3 C10 C9 114(2) . . ?
N1 C11 C12 111(2) . . ?
N1 C11 H11A 109.3 . . ?
C12 C11 H11A 109.3 . . ?
N1 C11 H11B 109.3 . . ?
C12 C11 H11B 109.3 . . ?
H11A C11 H11B 108.0 . . ?
O6 C12 C11 118.1(19) . . ?
O6 C12 O5 114.2(16) . . ?
C11 C12 O5 127.6(17) . . ?
loop_
_geom_bond_atom_site_label_1
_geom_bond_atom_site_label_2
_geom_bond_distance
_geom_bond_site_symmetry_2
_geom_bond_publ_flag
Gd1 O3 2.384(17) . ?
Gd1 O5 2.385(17) . ?
Gd1 O7 2.415(18) . ?
Gd1 O1 2.419(19) 2_656 ?
Gd1 O6 2.435(16) 1_455 ?
Gd1 O8 2.459(18) . ?
Gd1 O4 2.474(16) 1_554 ?
Gd1 O2 2.64(2) 2_656 ?
Gd1 N1 2.69(3) . ?
Gd1 C7 2.85(4) 2_656 ?
N1 C8 1.45(4) . ?
N1 C11 1.454(14) . ?
N1 C9 1.465(14) . ?
O1 C7 1.18(4) . ?
O2 C7 1.31(4) . ?
O3 C10 1.33(3) . ?
O4 C10 1.18(3) . ?
O5 C12 1.84(3) . ?
O6 C12 1.25(3) . ?
O7 H7C 0.8496 . ?
O7 H7D 0.8497 . ?
O8 H8D 0.8491 . ?
O8 H8E 0.8495 . ?
C1 C6 1.400(9) . ?
C1 C2 1.422(9) . ?
C1 C7 1.52(4) . ?
C2 C3 1.408(9) . ?
C2 H2 0.9300 . ?
C3 C4 1.413(9) . ?
C3 H3 0.9300 . ?
C4 C5 1.453(9) . ?
C4 C8 1.53(3) . ?
C5 C6 1.422(9) . ?
C5 H5 0.9300 . ?
C6 H6 0.9300 . ?
C8 H8A 0.9700 . ?
C8 H8B 0.9700 . ?
C9 C10 1.514(14) . ?
C9 H9A 0.9700 . ?
C9 H9B 0.9700 . ?
C11 C12 1.505(14) . ?
C11 H11A 0.9700 . ?
C11 H11B 0.9700 . ?
loop_
_geom_hbond_atom_site_label_D
_geom_hbond_atom_site_label_H
_geom_hbond_atom_site_label_A
_geom_hbond_distance_DH
_geom_hbond_distance_HA
_geom_hbond_distance_DA
_geom_hbond_angle_DHA
_geom_hbond_site_symmetry_A
_geom_hbond_publ_flag
C8 H8B O6 0.97 1.84 2.47(3) 119.3 1_455 yes
C8 H8B O3 0.97 2.62 3.15(3) 114.2 . yes
O8 H8D O4 0.85 2.45 2.86(3) 110.2 1_554 yes
O8 H8D O3 0.85 1.90 2.73(2) 163.5 1_554 yes
O7 H7D O5 0.85 1.50 2.35(2) 174.3 1_455 yes
O7 H7C O2 0.85 2.09 2.94(3) 177.9 2 yes
loop_
_geom_torsion_atom_site_label_1
_geom_torsion_atom_site_label_2
_geom_torsion_atom_site_label_3
_geom_torsion_atom_site_label_4
_geom_torsion
_geom_torsion_site_symmetry_1
_geom_torsion_site_symmetry_2
_geom_torsion_site_symmetry_3
_geom_torsion_site_symmetry_4
_geom_torsion_publ_flag
C6 C1 C2 C3 1.0 . . . . ?
C7 C1 C2 C3 172(2) . . . . ?
C1 C2 C3 C4 -1.7 . . . . ?
C2 C3 C4 C5 5.6 . . . . ?
C2 C3 C4 C8 -178(2) . . . . ?
C3 C4 C5 C6 -9.1 . . . . ?
C8 C4 C5 C6 174(2) . . . . ?
C2 C1 C6 C5 -4.4 . . . . ?
C7 C1 C6 C5 -175(2) . . . . ?
C4 C5 C6 C1 8.7 . . . . ?
Gd1 O1 C7 O2 9(4) 2_646 . . . ?
Gd1 O1 C7 C1 -177(3) 2_646 . . . ?
Gd1 O2 C7 O1 -8(4) 2_646 . . . ?
Gd1 O2 C7 C1 177(3) 2_646 . . . ?
C6 C1 C7 O1 162(3) . . . . ?
C2 C1 C7 O1 -9(4) . . . . ?
C6 C1 C7 O2 -23(4) . . . . ?
C2 C1 C7 O2 166(2) . . . . ?
C11 N1 C8 C4 55(3) . . . . ?
C9 N1 C8 C4 -71(3) . . . . ?
Gd1 N1 C8 C4 178.7(16) . . . . ?
C3 C4 C8 N1 81(3) . . . . ?
C5 C4 C8 N1 -103(2) . . . . ?
C8 N1 C9 C10 -66(3) . . . . ?
C11 N1 C9 C10 168(2) . . . . ?
Gd1 N1 C9 C10 51(3) . . . . ?
Gd1 O4 C10 O3 -56(4) 1_556 . . . ?
Gd1 O4 C10 C9 125(3) 1_556 . . . ?
Gd1 O3 C10 O4 161.8(18) . . . . ?
Gd1 O3 C10 C9 -18(3) . . . . ?
N1 C9 C10 O4 151(3) . . . . ?
N1 C9 C10 O3 -28(3) . . . . ?
C8 N1 C11 C12 147(2) . . . . ?
C9 N1 C11 C12 -85(3) . . . . ?
Gd1 N1 C11 C12 25(2) . . . . ?
Gd1 O6 C12 C11 -173.4(16) 1_655 . . . ?
Gd1 O6 C12 O5 3(3) 1_655 . . . ?
N1 C11 C12 O6 173(2) . . . . ?
N1 C11 C12 O5 -3(3) . . . . ?
Gd1 O5 C12 O6 161.5(19) . . . . ?
Gd1 O5 C12 C11 -22(3) . . . . ?
