#------------------------------------------------------------------------------
#$Date: 2020-12-05 02:39:23 +0200 (Sat, 05 Dec 2020) $
#$Revision: 259547 $
#$URL: file:///home/coder/svn-repositories/cod/cif/4/51/82/4518287.cif $
#------------------------------------------------------------------------------
#
# This file is available in the Crystallography Open Database (COD),
# http://www.crystallography.net/
#
# All data on this site have been placed in the public domain by the
# contributors.
#
data_4518287
loop_
_publ_author_name
'Maranda-Niedba\/la, Agnieszka'
'Krzy\.zewska, Klaudyna'
'Kotwica, Kamil'
'Sk\'orka, \/Lukasz'
'Drapa\/la, Jakub'
'Jarzembska, Katarzyna N.'
'Zag\'orska, Ma\/lgorzata'
'Pro\'n, Adam'
'Nowakowski, Robert'
_publ_section_title
;
 9,10-Anthraquinones Disubstituted with Linear Alkoxy Groups:
 Spectroscopy, Electrochemistry, and Peculiarities of Their 2D and 3D
 Supramolecular Organizations.
;
_journal_name_full
'Langmuir : the ACS journal of surfaces and colloids'
_journal_paper_doi               10.1021/acs.langmuir.0c02586
_journal_year                    2020
_chemical_formula_moiety         'C26 H32 O4'
_chemical_formula_sum            'C26 H32 O4'
_chemical_formula_weight         408.51
_space_group_crystal_system      triclinic
_space_group_IT_number           2
_space_group_name_Hall           '-P 1'
_space_group_name_H-M_alt        'P -1'
_atom_sites_solution_hydrogens   geom
_atom_sites_solution_primary     dual
_audit_creation_date             2019-11-06
_audit_creation_method
;
Olex2 1.2
(compiled 2018.05.29 svn.r3508 for OlexSys, GUI svn.r5506)
;
_cell_angle_alpha                82.122(3)
_cell_angle_beta                 93.736(4)
_cell_angle_gamma                94.110(3)
_cell_formula_units_Z            1
_cell_length_a                   14.5145(6)
_cell_length_b                   8.2297(3)
_cell_length_c                   4.6059(2)
_cell_measurement_reflns_used    6103
_cell_measurement_temperature    100.00(10)
_cell_measurement_theta_max      75.2360
_cell_measurement_theta_min      3.0330
_cell_volume                     542.73(4)
_computing_cell_refinement       'CrysAlisPro 1.171.40.55a (Rigaku OD, 2019)'
_computing_data_collection       'CrysAlisPro 1.171.40.55a (Rigaku OD, 2019)'
_computing_data_reduction        'CrysAlisPro 1.171.40.55a (Rigaku OD, 2019)'
_computing_molecular_graphics    'Olex2 (Dolomanov et al., 2009)'
_computing_publication_material  'Olex2 (Dolomanov et al., 2009)'
_computing_structure_refinement  'ShelXL (Sheldrick, 2015)'
_computing_structure_solution    'ShelXT (Sheldrick, 2015)'
_diffrn_ambient_environment      N~2~
_diffrn_ambient_temperature      100.00(10)
_diffrn_detector                 'CCD plate'
_diffrn_detector_area_resol_mean 5.2687
_diffrn_detector_type            Atlas
_diffrn_measured_fraction_theta_full 0.996
_diffrn_measured_fraction_theta_max 0.976
_diffrn_measurement_details
;
List of Runs (angles in degrees, time in seconds):

  # Type    Start    End  Width  t~exp~   \w     \q     \k     \f   Frames
--------------------------------------------------------------------------
  1  \w   -115.00 -12.00   1.00    1.00    --  -42.68 -77.00 150.00  103
  2  \w    -96.00 -12.00   1.00    1.00    --  -42.68 125.00-120.00   84
  3  \w     21.00 113.00   1.00    1.00    --   42.68  38.00-180.00   92
  4  \w     32.00  81.00   1.00    1.00    --   42.68 -99.00-120.00   49
  5  \w    -28.00  64.00   1.00    1.00    --   42.68 -38.00   0.00   92
  6  \w     57.00 149.00   1.00    1.00    --  109.50  15.00  60.00   92
  7  \w     57.00 149.00   1.00    1.00    --  109.50  15.00 150.00   92
  8  \w     40.00 136.00   1.00    1.00    --  109.50 -61.00  30.00   96
  9  \w     40.00 133.00   1.00    1.00    --  109.50 -45.00-150.00   93
 10  \w     30.00 106.00   1.00    1.00    --  109.50 -94.00  30.00   76
 11  \w     54.00 112.00   1.00    1.00    --  109.50-125.00 -90.00   58
 12  \w     30.00 106.00   1.00    1.00    --  109.50 -94.00 150.00   76
 13  \w     86.00 149.00   1.00    1.00    --  109.50  30.00-150.00   63
 14  \w     54.00 112.00   1.00    1.00    --  109.50-125.00  30.00   58
 15  \w     40.00 133.00   1.00    1.00    --  109.50 -45.00 120.00   93
 16  \w     40.00 133.00   1.00    1.00    --  109.50 -45.00 -90.00   93
 17  \w     86.00 149.00   1.00    1.00    --  109.50  45.00  60.00   63
 18  \w     54.00 112.00   1.00    1.00    --  109.50-125.00 -30.00   58
 19  \w   -113.00 -17.00   1.00    1.00    --  -42.68 -57.00  30.00   96
 20  \w     32.00  81.00   1.00    1.00    --   42.68 -99.00 150.00   49
 21  \w     17.00 113.00   1.00    1.00    --   42.68  57.00 -30.00   96
 22  \w     21.00 113.00   1.00    1.00    --   42.68  38.00 -60.00   92
 23  \w     12.00 115.00   1.00    1.00    --   42.68  77.00   0.00  103
 24  \w     86.00 149.00   1.00    1.00    --  109.50  45.00-120.00   63
 25  \w     83.00 149.00   1.00    1.00    --  109.50  61.00 120.00   66
 26  \w     86.00 149.00   1.00    1.00    --  109.50  30.00 -60.00   63
 27  \w     83.00 149.00   1.00    1.00    --  109.50  61.00   0.00   66
 28  \w     79.00 149.00   1.00    1.00    --  109.50  77.00-120.00   70
 29  \w     83.00 149.00   1.00    1.00    --  109.50  61.00 150.00   66
 30  \w     83.00 149.00   1.00    1.00    --  109.50  61.00-150.00   66
 31  \w     79.00 149.00   1.00    1.00    --  109.50  77.00 -90.00   70
 32  \w     83.00 149.00   1.00    1.00    --  109.50  61.00  30.00   66
 33  \w     79.00 149.00   1.00    1.00    --  109.50  77.00 -60.00   70
 34  \w   -115.00 -12.00   1.00    1.00    --  -42.68 -77.00-150.00  103
 35  \w     32.00  81.00   1.00    1.00    --   42.68 -99.00  90.00   49
 36  \w    -28.00  64.00   1.00    1.00    --   42.68 -38.00 120.00   92
 37  \w     12.00 115.00   1.00    1.00    --   42.68  77.00  90.00  103
 38  \w     12.00 115.00   1.00    1.00    --   42.68  77.00-180.00  103
 39  \w     83.00 149.00   1.00    1.00    --  109.50  61.00  90.00   66
 40  \w     79.00 149.00   1.00    1.00    --  109.50  77.00   0.00   70
 41  \w     79.00 149.00   1.00    1.00    --  109.50  77.00 -30.00   70
 42  \w     83.00 149.00   1.00    1.00    --  109.50  61.00  60.00   66
 43  \w     83.00 149.00   1.00    1.00    --  109.50  61.00-120.00   66
 44  \w     86.00 149.00   1.00    1.00    --  109.50  45.00-150.00   63
 45  \w     79.00 149.00   1.00    1.00    --  109.50  77.00  30.00   70
 46  \w     79.00 149.00   1.00    1.00    --  109.50  77.00  90.00   70
 47  \w     79.00 149.00   1.00    1.00    --  109.50  77.00 120.00   70
 48  \w     79.00 149.00   1.00    1.00    --  109.50  77.00 150.00   70
 49  \w     17.00 113.00   1.00    1.00    --   42.68  57.00  60.00   96
 50  \w     21.00 113.00   1.00    1.00    --   42.68  38.00 -30.00   92
 51  \w    -42.00 128.00   1.00    1.00    --   42.68   0.00-180.00  170
 52  \w    -42.00 128.00   1.00    1.00    --   42.68   0.00-150.00  170
 53  \w     12.00 115.00   1.00    1.00    --   42.68  77.00 -30.00  103
 54  \w     83.00 149.00   1.00    1.00    --  109.50  61.00 -90.00   66
;
_diffrn_measurement_device       'four-circle diffractometer'
_diffrn_measurement_device_type
'SuperNova, Single source at offset/far, Atlas'
_diffrn_measurement_method       '\w scans'
_diffrn_orient_matrix_type
'CrysAlisPro convention (1999,Acta A55,543-557)'
_diffrn_orient_matrix_UB_11      -0.1047907261
_diffrn_orient_matrix_UB_12      0.0136915392
_diffrn_orient_matrix_UB_13      0.0162057339
_diffrn_orient_matrix_UB_21      0.0194047820
_diffrn_orient_matrix_UB_22      0.1306865097
_diffrn_orient_matrix_UB_23      0.2095516417
_diffrn_orient_matrix_UB_31      0.0013191748
_diffrn_orient_matrix_UB_32      0.1363487277
_diffrn_orient_matrix_UB_33      -0.2649507876
_diffrn_radiation_monochromator  mirror
_diffrn_radiation_probe          x-ray
_diffrn_radiation_type           CuK\a
_diffrn_radiation_wavelength     1.54184
_diffrn_reflns_av_R_equivalents  0.0673
_diffrn_reflns_av_unetI/netI     0.0678
_diffrn_reflns_Laue_measured_fraction_full 0.996
_diffrn_reflns_Laue_measured_fraction_max 0.976
_diffrn_reflns_limit_h_max       18
_diffrn_reflns_limit_h_min       -18
_diffrn_reflns_limit_k_max       10
_diffrn_reflns_limit_k_min       -10
_diffrn_reflns_limit_l_max       5
_diffrn_reflns_limit_l_min       -5
_diffrn_reflns_number            12452
_diffrn_reflns_point_group_measured_fraction_full 0.996
_diffrn_reflns_point_group_measured_fraction_max 0.976
_diffrn_reflns_theta_full        67.684
_diffrn_reflns_theta_max         76.755
_diffrn_reflns_theta_min         3.057
_diffrn_source                   'micro-focus sealed X-ray tube'
_diffrn_source_type              'SuperNova (Cu) X-ray Source'
_exptl_absorpt_coefficient_mu    0.659
_exptl_absorpt_correction_T_max  1.000
_exptl_absorpt_correction_T_min  0.390
_exptl_absorpt_correction_type   gaussian
_exptl_absorpt_process_details
;
CrysAlisPro 1.171.40.55a (Rigaku Oxford Diffraction, 2019)
Numerical absorption correction based on gaussian integration over
			a multifaceted crystal model
Empirical absorption correction using spherical harmonics,
 implemented in SCALE3 ABSPACK scaling algorithm.
;
_exptl_crystal_colour            'clear yellow'
_exptl_crystal_colour_lustre     clear
_exptl_crystal_colour_primary    yellow
_exptl_crystal_density_diffrn    1.250
_exptl_crystal_description       plate
_exptl_crystal_F_000             220
_exptl_crystal_size_max          0.399
_exptl_crystal_size_mid          0.1
_exptl_crystal_size_min          0.043
_refine_diff_density_max         0.395
_refine_diff_density_min         -0.297
_refine_diff_density_rms         0.065
_refine_ls_extinction_method     none
_refine_ls_goodness_of_fit_ref   1.149
_refine_ls_hydrogen_treatment    constr
_refine_ls_matrix_type           full
_refine_ls_number_parameters     137
_refine_ls_number_reflns         2239
_refine_ls_number_restraints     0
_refine_ls_restrained_S_all      1.149
_refine_ls_R_factor_all          0.0815
_refine_ls_R_factor_gt           0.0569
_refine_ls_shift/su_max          0.000
_refine_ls_shift/su_mean         0.000
_refine_ls_structure_factor_coef Fsqd
_refine_ls_weighting_details
'w=1/[\s^2^(Fo^2^)+(0.0952P)^2^+0.1091P] where P=(Fo^2^+2Fc^2^)/3'
_refine_ls_weighting_scheme      calc
_refine_ls_wR_factor_gt          0.1555
_refine_ls_wR_factor_ref         0.1752
_reflns_Friedel_coverage         0.000
_reflns_number_gt                1769
_reflns_number_total             2239
_reflns_threshold_expression     'I > 2\s(I)'
_cod_data_source_file            2019_11_03_JD_AntOC6_100K_02_CCDC2004140.cif
_cod_data_source_block           2019_11_03_jd_antoc6_100k_02
_cod_database_code               4518287
_shelx_shelxl_version_number     2018/3
_chemical_oxdiff_formula         'C26 H32 O4'
_shelx_space_group_comment
;
The symmetry employed for this shelxl refinement is uniquely defined
by the following loop, which should always be used as a source of
symmetry information in preference to the above space-group names.
They are only intended as comments.
;
_shelx_estimated_absorpt_t_max   0.972
_shelx_estimated_absorpt_t_min   0.779
_reflns_odcompleteness_completeness 99.61
_reflns_odcompleteness_iscentric 1
_reflns_odcompleteness_theta     69.95
_olex2_refinement_description
;
1. Fixed Uiso
 At 1.2 times of:
  All C(H) groups, All C(H,H) groups
 At 1.5 times of:
  All C(H,H,H) groups
2.a Secondary CH2 refined with riding coordinates:
 C11(H11A,H11B), C10(H10A,H10B), C8(H8A,H8B), C9(H9A,H9B), C12(H12A,H12B)
2.b Aromatic/amide H refined with riding coordinates:
 C3(H3), C6(H6), C5(H5)
2.c Idealised Me refined as rotating group:
 C13(H13A,H13B,H13C)
;
_shelx_res_file
;
TITL 2019_11_03_jd_antoc6_100k_02_a.res in P-1
    2019_11_03_jd_antoc6_100k_02.res
    created by SHELXL-2018/3 at 21:08:25 on 06-Nov-2019
REM Old TITL 2019_11_03_JD_AntOC6_100K_02 in P-1
REM SHELXT solution in P-1: R1 0.181, Rweak 0.004, Alpha 0.043
REM <I/s> 0.000 for 0 systematic absences, Orientation as input
REM Formula found by SHELXT: C13 O2
CELL 1.54184 14.5145 8.2297 4.6059 82.122 93.736 94.11
ZERR 1 0.0006 0.0003 0.0002 0.003 0.004 0.003
LATT 1
SFAC C H O
UNIT 26 32 4

L.S. 25
PLAN  20
SIZE 0.043 0.1 0.399
BOND
list 4
fmap 2 53
ACTA
OMIT -3 0 1
OMIT 4 10 0
REM <olex2.extras>
REM <HklSrc "%.\\2019_11_03_JD_AntOC6_100K_02.hkl">
REM </olex2.extras>

WGHT    0.095200    0.109100
FVAR       1.00926
O2    3    0.214518    0.309411    0.680017    11.00000    0.02788    0.01783 =
         0.03072   -0.00849   -0.00192    0.00016
C11   1    0.419625    0.692381    0.870096    11.00000    0.02678    0.02158 =
         0.02873   -0.00822    0.00318   -0.00036
AFIX  23
H11A  2    0.396784    0.783994    0.949847    11.00000   -1.20000
H11B  2    0.438528    0.612249    1.033724    11.00000   -1.20000
AFIX   0
C10   1    0.341416    0.614217    0.687382    11.00000    0.02612    0.02027 =
         0.02751   -0.00730    0.00355    0.00004
AFIX  23
H10A  2    0.363029    0.517901    0.619479    11.00000   -1.20000
H10B  2    0.325720    0.691625    0.515913    11.00000   -1.20000
AFIX   0
C7    1    0.078705   -0.036314    0.200136    11.00000    0.02204    0.01783 =
         0.02272   -0.00438    0.00597   -0.00073
C4    1    0.166011    0.203413    0.518740    11.00000    0.02470    0.01887 =
         0.02546   -0.00691    0.00630   -0.00436
C2    1    0.046915    0.121644    0.169781    11.00000    0.02156    0.01899 =
         0.02149   -0.00424    0.00593   -0.00075
C3    1    0.089441    0.242185    0.329160    11.00000    0.02469    0.01741 =
         0.02591   -0.00549    0.00733   -0.00010
AFIX  43
H3    2    0.067052    0.346460    0.309104    11.00000   -1.20000
AFIX   0
C8    1    0.180834    0.470275    0.684099    11.00000    0.02537    0.01748 =
         0.02807   -0.00664    0.00263   -0.00036
AFIX  23
H8A   2    0.122453    0.460960    0.778130    11.00000   -1.20000
H8B   2    0.171741    0.526201    0.485841    11.00000   -1.20000
AFIX   0
C6    1    0.155410   -0.072622    0.393761    11.00000    0.02578    0.01711 =
         0.02829   -0.00416    0.00453    0.00267
AFIX  43
H6    2    0.177353   -0.177311    0.416615    11.00000   -1.20000
AFIX   0
C9    1    0.254302    0.563670    0.856371    11.00000    0.02594    0.02226 =
         0.02589   -0.00943    0.00320   -0.00042
AFIX  23
H9A   2    0.271067    0.495456    1.038347    11.00000   -1.20000
H9B   2    0.228801    0.661439    0.906033    11.00000   -1.20000
AFIX   0
C5    1    0.198517    0.045100    0.550228    11.00000    0.02294    0.02197 =
         0.02586   -0.00311    0.00155    0.00185
AFIX  43
H5    2    0.249412    0.019576    0.677370    11.00000   -1.20000
AFIX   0
C12   1    0.503570    0.753549    0.693882    11.00000    0.02853    0.02881 =
         0.03396   -0.00486    0.00527   -0.00185
AFIX  23
H12A  2    0.485308    0.837991    0.536682    11.00000   -1.20000
H12B  2    0.524190    0.663230    0.605007    11.00000   -1.20000
AFIX   0
C13   1    0.584065    0.823340    0.878466    11.00000    0.02720    0.03472 =
         0.04525   -0.00539    0.00462   -0.00465
AFIX 137
H13A  2    0.633949    0.862691    0.755088    11.00000   -1.50000
H13B  2    0.604771    0.738808    1.028244    11.00000   -1.50000
H13C  2    0.564143    0.912453    0.968255    11.00000   -1.50000
AFIX   0
O1    3   -0.060012    0.306176   -0.074553    11.00000    0.02872    0.01762 =
         0.03318   -0.00738   -0.00139    0.00382
C1    1   -0.033428    0.166436   -0.038734    11.00000    0.02338    0.01692 =
         0.02530   -0.00519    0.00697   -0.00028
HKLF 4




REM  2019_11_03_jd_antoc6_100k_02_a.res in P-1
REM wR2 = 0.1752, GooF = S = 1.149, Restrained GooF = 1.149 for all data
REM R1 = 0.0569 for 1769 Fo > 4sig(Fo) and 0.0815 for all 2239 data
REM 137 parameters refined using 0 restraints

END

WGHT      0.0950      0.1092

REM Highest difference peak  0.395,  deepest hole -0.297,  1-sigma level  0.065
Q1    1   0.3796  0.6579  0.7796  11.00000  0.05    0.39
Q2    1   0.2180  0.5212  0.7778  11.00000  0.05    0.39
Q3    1   0.0623  0.0401  0.1842  11.00000  0.05    0.38
Q4    1   0.0578 -0.0955  0.1304  11.00000  0.05    0.33
Q5    1   0.1072 -0.0561  0.3145  11.00000  0.05    0.30
Q6    1   0.5436  0.7973  0.7879  11.00000  0.05    0.29
Q7    1   0.0084  0.1368  0.0828  11.00000  0.05    0.29
Q8    1   0.1795  0.1231  0.5355  11.00000  0.05    0.28
Q9    1   0.1830 -0.2263  0.4187  11.00000  0.05    0.26
Q10   1   0.0615  0.1659  0.2402  11.00000  0.05    0.26
Q11   1   0.1965  0.2815  0.6278  11.00000  0.05    0.25
Q12   1   0.0974  0.5407  0.4202  11.00000  0.05    0.24
Q13   1   0.1327  0.2231  0.4060  11.00000  0.05    0.24
Q14   1   0.4807  0.9154  0.4139  11.00000  0.05    0.23
Q15   1   0.1843  0.2542  0.5899  11.00000  0.05    0.23
Q16   1  -0.1192  0.3258 -0.1541  11.00000  0.05    0.22
Q17   1  -0.0146  0.4244 -0.1407  11.00000  0.05    0.21
Q18   1   0.1744  0.1973  0.8139  11.00000  0.05    0.21
Q19   1   0.6542  0.9584  0.6539  11.00000  0.05    0.21
Q20   1   0.0568  0.3829  0.3109  11.00000  0.05    0.21
;
_shelx_res_checksum              93421
_shelx_hkl_file
;
   0   0   1    1.75    0.82
   0   0  -1    0.82    0.39
   0   0  -1    0.53    0.32
   0   0   1    1.64    0.47
   0   0   2   25.31    2.63
   0   0  -2   26.24    1.97
   0   0  -2   25.49    1.96
   0   0   2   27.81    2.06
   0   0   3   20.06    2.92
   0   0   3   18.45    2.72
   0   0   4   44.77    4.87
   0   0  -4    5.46    5.80
   0   0  -4   14.86   11.44
   0   0  -4   45.42    4.77
   0   0   4   43.15    4.62
   0   0   4   46.71    4.86
   0   0   4   40.31    4.91
   0   0  -5   19.09    5.98
   0   1  -5    0.84    1.07
   0   1  -5   -1.40    2.61
   0   1  -4    3.51    4.61
   0   1  -4    1.73    1.65
   0  -1   3  338.35   10.57
   0  -1   3  327.77   10.26
   0  -1   2  320.89    8.50
   0  -1   2  300.23    8.39
   0  -1   1  106.09    1.66
   0   1  -1  104.99    3.83
   0   1  -1  103.59    2.70
   0  -1   0   18.15    0.70
   0   1   0   15.21    0.61
   0  -1   0   18.95    1.94
   0  -1   0   15.45    0.83
   0  -1   0   14.77    1.10
   0  -1   0   15.71    0.84
   0   1   0   15.47    0.48
   0  -1   0   14.59    1.46
   0  -1  -1  703.38    8.86
   0  -1  -1  737.26   19.96
   0  -1  -1  705.35   11.44
   0  -1  -1  710.20    9.35
   0  -1  -1  721.17    9.33
   0  -1  -1  718.67   12.92
   0   1   2   14.50    2.16
   0  -1  -2   11.39    1.61
   0  -1  -2   11.84    1.66
   0   1   2   10.92    1.20
   0  -1  -2    7.57    2.43
   0   1   3   13.77    2.43
   0  -1  -3    9.33    9.21
   0  -1  -3   16.53    2.23
   0   1   3   15.72    2.58
   0  -1  -3   14.89    2.14
   0   1   4   21.98    3.54
   0   1   4   23.51    3.62
   0  -1  -4   18.86    3.35
   0   1   4   19.99    3.41
   0   1   4   23.25    3.52
   0   1   4   23.56    3.82
   0  -1  -5  139.06   16.87
   0   1   5  334.00   12.14
   0   2  -5   16.59    2.21
   0   2  -5   10.24    4.66
   0   2  -4   21.10    3.46
   0   2  -4   12.40    3.10
   0   2  -4   11.25    5.51
   0   2  -3   44.65   12.84
   0   2  -3  158.50    8.00
   0   2  -3   86.25   13.88
   0   2  -3  123.67    8.32
   0   2  -3   55.51   11.94
   0  -2   3  129.34    6.65
   0  -2   2    4.03    0.87
   0   2  -2    5.80    1.70
   0  -2   2    4.76    0.93
   0  -2   2    2.93    1.15
   0   2  -2    4.54    1.83
   0   2  -1  124.59    4.69
   0  -2   1  122.89    2.53
   0   2  -1  122.30    2.82
   0   2  -1  112.92    6.17
   0  -2   0  673.96    6.33
   0   2   0  634.69    5.31
   0  -2   0  675.20   16.37
   0  -2   0  634.32    9.98
   0  -2   0  606.74    7.32
   0  -2   0  616.60    7.34
   0   2   0  642.15    3.68
   0  -2   0  564.73   12.29
   0  -2  -1   95.26    4.93
   0   2   1  106.36    4.10
   0  -2  -1  106.48    8.46
   0  -2  -1  101.25    4.16
   0  -2  -1  101.30    4.19
   0  -2  -1  104.35    5.19
   0  -2  -1  111.14    5.96
   0  -2  -2  218.76    6.32
   0  -2  -2  207.20    7.36
   0  -2  -2  203.73    7.35
   0  -2  -2  190.08    9.34
   0  -2  -2  205.50   11.28
   0   2   3   24.73    3.50
   0   2   3   26.96    3.55
   0  -2  -3   25.43    3.20
   0  -2  -3   26.26    3.19
   0   2   3   22.80    3.21
   0   2   4   16.37    3.09
   0   2   4   14.74    2.99
   0  -2  -4   14.36    2.99
   0   2   4   12.59    2.44
   0   2   4   14.44    2.92
   0  -2  -4    8.13    3.88
   0   2   4   18.28    2.93
   0   2   4   15.66    2.85
   0   2   5  134.24    8.02
   0   2   5  151.49    6.62
   0   2   5  134.58    7.32
   0   3  -5   -1.37    1.19
   0   3  -5    0.83    1.73
   0   3  -4    2.51    2.86
   0   3  -4    3.42    2.10
   0   3  -4    1.09    1.69
   0   3  -3    0.02    3.50
   0   3  -3   11.26    2.75
   0   3  -3    8.97    2.81
   0   3  -3    6.03    4.40
   0  -3   3    9.92    2.03
   0  -3   3   11.14    2.38
   0   3  -2   56.69    5.00
   0  -3   2   49.78    3.08
   0  -3   2   38.54    3.59
   0   3  -2   53.50    6.04
   0  -3   1   74.11    2.28
   0  -3   1   80.50    3.88
   0   3  -1   74.30    4.17
   0  -3   1   63.37    4.00
   0   3  -1   74.78    2.30
   0   3  -1   62.78    5.51
   0   3   0   41.19    1.65
   0  -3   0   38.63    1.86
   0  -3   0   43.39    4.96
   0  -3   0   36.45    2.21
   0  -3   0   35.64    2.17
   0  -3   0   37.63    3.07
   0  -3   0   37.82    4.10
   0  -3  -1   16.37    2.74
   0   3   1   15.04    1.23
   0   3   1   12.62    1.56
   0  -3  -1   14.84    3.79
   0  -3  -1   15.59    2.56
   0   3   1   16.69    1.83
   0  -3  -1   17.71    2.14
   0   3   1   13.20    0.54
   0  -3  -1   13.59    1.94
   0   3   1   14.04    0.72
   0  -3  -1   11.78    2.78
   0  -3  -2  552.53   13.85
   0   3   2  592.83   13.77
   0  -3  -2  544.71   27.09
   0  -3  -2  556.94   13.55
   0  -3  -2  546.00   17.44
   0  -3  -2  566.01   13.81
   0   3   2  580.55   13.02
   0   3   2  529.61    9.89
   0  -3  -2  549.85   19.65
   0   3   3   16.81    2.97
   0   3   3   19.29    2.87
   0  -3  -3   13.02    2.58
   0  -3  -3   18.65    2.99
   0   3   3   19.85    3.14
   0  -3  -3   20.69    3.18
   0  -3  -3   12.27    4.07
   0  -3  -3   13.92    3.17
   0   3   3   14.03    2.34
   0   3   4   11.61    3.18
   0   3   4    8.66    1.98
   0  -3  -4    7.19    3.05
   0  -3  -4   10.64    2.84
   0  -3  -4   10.51    4.03
   0   3   4   10.88    2.51
   0  -3  -4    6.08    3.40
   0   3   5    0.39    0.79
   0   3   5    0.12    0.83
   0  -3  -5   -2.40    2.93
   0   3   5    0.60    1.02
   0   4  -4    7.13    2.07
   0   4  -4    6.71    4.31
   0   4  -4    7.34    5.04
   0   4  -4    2.95    1.92
   0   4  -3    1.47    3.14
   0   4  -3    8.86    6.06
   0   4  -3    0.50    1.32
   0   4  -3    2.77    4.99
   0   4  -3    1.90    1.39
   0   4  -3    8.08    4.37
   0   4  -2    1.56    1.30
   0  -4   2    0.56    0.81
   0  -4   2    2.44    2.47
   0  -4   2    0.95    0.54
   0  -4   2    2.04    1.49
   0   4  -2    1.41    1.42
   0   4  -1  852.24   16.12
   0  -4   1  758.75   11.70
   0  -4   1  785.80   15.84
   0  -4   1  734.59   21.70
   0   4  -1  821.72   22.76
   0  -4   0  101.52    4.22
   0  -4   0  102.58    4.26
   0  -4   0   98.88    5.76
   0  -4   0  102.93    7.77
   0  -4  -1   86.90    7.28
   0   4   1   94.79    4.40
   0  -4  -1  100.78   10.40
   0  -4  -1   92.65    5.10
   0  -4  -1   92.13    5.05
   0  -4  -1   95.96    6.57
   0   4   1  102.32    3.99
   0  -4  -1  107.24    8.38
   0   4   2   16.75    2.42
   0   4   2    9.88    1.51
   0  -4  -2    9.71    2.49
   0  -4  -2   12.80    5.34
   0  -4  -2   15.25    3.37
   0  -4  -2   17.87    2.76
   0   4   2   17.73    2.43
   0  -4  -2   16.33    2.59
   0  -4  -2   20.08    4.42
   0   4   3   98.63    7.17
   0   4   3   98.77    6.05
   0   4   3   81.17    6.13
   0   4   3   93.08    7.74
   0  -4  -3   73.56    6.46
   0  -4  -3   96.69    9.64
   0  -4  -3   89.44    6.95
   0   4   3   93.97    6.84
   0  -4  -3   92.32    7.12
   0  -4  -3   76.38    9.09
   0   4   3   91.88    6.98
   0  -4  -3   88.75   10.16
   0  -4  -3  109.49   11.77
   0  -4  -3   76.24    7.91
   0   4   4    3.36    1.26
   0   4   4    3.95    1.96
   0  -4  -4    3.32    2.55
   0  -4  -4    4.28    2.32
   0  -4  -4    6.43    3.33
   0  -4  -4    4.78    4.15
   0   4   4    3.80    1.62
   0   4   5   37.40    3.40
   0   4   5   32.13    3.74
   0   4   5   28.80    2.92
   0   4   5   34.65    3.52
   0   4   5   27.68    2.79
   0   5  -4  120.99    6.23
   0   5  -4   70.58   11.58
   0   5  -3   15.96    3.02
   0   5  -3    6.20    6.93
   0   5  -3   13.68    6.39
   0   5  -3   14.71    3.37
   0   5  -3    4.23    4.92
   0   5  -2    6.39    4.49
   0   5  -2    5.99    4.75
   0   5  -2    9.43    2.38
   0   5  -2   10.42    2.41
   0   5  -2   11.49    2.77
   0   5  -2    9.70    3.40
   0  -5   2    6.78    2.51
   0   5  -1   94.11    6.11
   0  -5   1   80.86    8.14
   0   5  -1   87.09    8.46
   0  -5   1   80.46    8.20
   0  -5   0   86.22    8.46
   0  -5   0  100.91   10.44
   0  -5   0   73.95    4.00
   0  -5   0   75.99    5.79
   0  -5   0   78.26    4.08
   0  -5   0   80.24    7.98
   0  -5  -1    0.76    1.23
   0   5   1    0.69    0.48
   0  -5  -1    1.86    3.89
   0  -5  -1    0.40    0.65
   0  -5  -1    0.05    1.22
   0  -5  -1   -0.26    0.80
   0  -5  -1    0.46    1.77
   0  -5  -2    2.70    1.36
   0   5   2    7.74    1.71
   0  -5  -2    1.80    2.81
   0  -5  -2    6.02    1.78
   0   5   2    6.67    1.57
   0  -5  -2    5.58    2.23
   0  -5  -2    5.66    1.74
   0  -5  -2    8.98    3.40
   0   5   3   10.93    2.50
   0   5   3   13.70    2.70
   0   5   3   11.45    2.14
   0   5   3   13.82    3.33
   0   5   3   11.42    2.50
   0  -5  -3   12.71    2.88
   0  -5  -3   14.15    4.42
   0  -5  -3    9.60    2.57
   0   5   3   12.83    2.69
   0  -5  -3   11.79    2.79
   0  -5  -3   12.07    3.70
   0   5   3   12.63    2.64
   0  -5  -3   10.52    3.17
   0  -5  -3   18.32    5.32
   0  -5  -3    8.99    3.66
   0   5   3   10.26    2.56
   0   5   4    4.59    2.10
   0   5   4    2.64    1.38
   0   5   4    6.95    2.02
   0  -5  -4    4.50    1.86
   0  -5  -4    3.95    3.22
   0  -5  -4    4.36    2.74
   0   5   4    7.34    2.36
   0   5   4    4.85    1.83
   0  -5  -4    2.54    3.60
   0   5   5    0.78    0.59
   0   5   5    0.09    0.50
   0   5   5    0.72    0.78
   0   5   5    1.16    0.86
   0   5   5    1.68    0.77
   0   6  -3   16.94    5.24
   0   6  -3   13.81    2.93
   0   6  -3   16.30    7.40
   0   6  -3    2.11    3.75
   0   6  -2   -0.12    2.26
   0   6  -2    3.09    4.03
   0   6  -2   -1.52    3.73
   0   6  -2    3.59    5.18
   0   6  -1   99.56   15.47
   0   6  -1   85.51   14.91
   0  -6   1   84.79    9.17
   0   6  -1   99.12    6.88
   0   6  -1  103.92   10.49
   0  -6   1   92.06    9.87
   0   6   0   31.21    3.18
   0  -6   0   28.93    5.53
   0   6   0   29.79    4.23
   0   6   0   28.34    7.94
   0  -6   0   26.79    3.88
   0  -6   0   26.26    5.30
   0   6   0   26.82    5.17
   0   6   1   52.32    5.20
   0   6   1   52.94    5.70
   0   6   1   54.87    4.74
   0  -6  -1   49.38    7.22
   0   6   1   36.65    7.63
   0  -6  -1   52.38    6.00
   0  -6  -1   51.27    4.50
   0  -6  -1   48.09    4.34
   0   6   1   56.69    5.08
   0  -6  -1   70.32    7.63
   0  -6  -1   56.99    8.02
   0  -6  -2  204.19   13.77
   0   6   2  200.75    9.92
   0   6   2  197.17   11.37
   0   6   2  222.14   11.54
   0   6   2  211.67    8.91
   0  -6  -2  210.19   13.54
   0  -6  -2  209.17   10.48
   0   6   2  205.38    8.43
   0  -6  -2  208.78   13.91
   0  -6  -2  211.98   10.50
   0  -6  -2  242.13   15.90
   0   6   2  212.12   10.72
   0  -6  -2  231.22   17.68
   0   6   3    2.68    1.80
   0   6   3    2.29    1.39
   0   6   3    1.81    0.74
   0   6   3    4.62    2.05
   0  -6  -3    2.10    2.11
   0  -6  -3    4.67    2.51
   0  -6  -3    2.44    3.19
   0   6   3    2.80    1.41
   0  -6  -3    4.23    2.75
   0  -6  -3    1.93    1.93
   0   6   3    2.90    1.55
   0  -6  -3    0.67    1.76
   0   6   4  230.69    9.92
   0   6   4  277.29   10.56
   0   6   4  202.80    7.57
   0   6   4  247.30   11.93
   0  -6  -4  191.00   13.33
   0   6   4  242.02    9.75
   0  -6  -4  149.48   11.62
   0  -6  -4  231.66   16.81
   0   6   4  243.27   11.08
   0   6   5    1.29    0.58
   0   6   5    0.48    0.60
   0   6   5    0.61    0.43
   0   7  -3    0.99    2.07
   0   7  -2   28.81    8.77
   0   7  -2   25.29    8.35
   0   7  -1   15.60    7.59
   0   7  -1   12.56    6.53
   0   7   0  106.37   11.89
   0   7   0   -0.97    3.48
   0   7   0   96.86   12.94
   0  -7   0    1.27    2.85
   0  -7   0    5.91    2.73
   0   7   0    4.40    2.63
   0   7   1  943.76   20.70
   0  -7  -1 1007.26   34.60
   0   7   1 1023.76   24.78
   0   7   1   43.74    8.14
   0  -7  -1  845.04   26.18
   0  -7  -1 1100.92   31.27
   0   7   1  968.12   22.63
   0  -7  -1 1037.30   36.71
   0  -7  -2  154.37   11.74
   0   7   2  153.62   12.99
   0   7   2  156.42    9.00
   0   7   2  153.44    9.88
   0   7   2  153.45    9.36
   0  -7  -2  170.55   13.63
   0   7   3   28.16    3.92
   0   7   3   22.32    3.96
   0   7   3   23.69    2.98
   0  -7  -3   22.16    4.77
   0  -7  -3   13.72    5.37
   0   7   3   22.83    2.84
   0  -7  -3   25.10    6.06
   0   7   3   25.63    3.85
   0  -7  -3   33.11    7.18
   0   7   4   15.76    2.77
   0   7   4   16.30    2.47
   0   7   4   18.22    2.29
   0  -7  -4   16.70    3.57
   0   7   4   15.80    2.02
   0  -7  -4   14.37    3.74
   0   7   4   15.75    2.56
   0   8  -2  106.79   13.87
   0   8  -1    7.92    4.58
   0   8  -1   85.69    9.42
   0   8   0  152.49   18.06
   0   8   0  142.29   13.40
   0   8   1    8.31    2.64
   0  -8  -1    7.87    2.28
   0   8   2   16.80    3.33
   0  -8  -2   21.69    4.15
   0  -8  -2   13.92    5.44
   0  -8  -2   20.88    4.77
   0  -8  -2   26.87    6.47
   0   8   2   16.95    3.22
   0   8   3   39.46    4.47
   0   8   3   37.71    3.92
   0  -8  -3   28.21    4.45
   0  -8  -3   35.24    6.49
   0  -8  -3   48.48    7.53
   0  -8  -3   28.63    5.35
   0   8   3   42.78    4.48
   0   8   4    1.56    0.86
   0  -8  -4    1.28    1.28
   0   8   4    3.17    1.00
   0   9  -1   12.59    4.74
   0   9  -1   15.66    3.78
   0   9   0    2.95    2.60
   0   9   0   15.86    6.48
   0   9   1   35.30    6.27
   0  -9  -1    8.48    3.19
   0   9   2   14.57    2.62
   0  -9  -2   15.58    5.07
   0  -9  -2    5.34    2.01
   0  -9  -2   15.82    4.22
   0   9   3   43.82    3.76
   0  -9  -3   29.40    3.87
   0  -9  -3   39.94    5.20
   0  10   0    1.27    1.40
   0 -10   0   -0.81    1.38
   0 -10  -1    0.02    1.76
   0 -10  -1    0.69    1.12
   0 -10  -2    4.98    1.59
   1 -10  -2   61.70    5.57
   1 -10  -1  146.86   10.76
   1 -10  -1  121.74    8.31
  -1  10   0    0.69    1.29
   1  -9  -3   56.17    4.37
  -1   9   3   84.79    5.03
   1  -9  -3   76.13    7.12
   1  -9  -3   62.37    5.93
  -1   9   2  109.64    6.69
   1  -9  -2  134.59   12.91
   1  -9  -2   93.82    7.96
   1  -9  -2  120.02   11.11
  -1   9   1  108.03   11.34
   1  -9  -1    9.89    2.59
  -1   9   0   21.09    5.80
  -1   9   0    7.83    3.25
  -1   9  -1    4.42    2.32
  -1   9  -1    8.61    4.23
  -1   9  -2   16.49    4.27
  -1   8   4   42.43    3.54
   1  -8  -4   34.29    4.46
  -1   8   4   47.24    3.59
   1  -8  -3   27.06    4.51
  -1   8   3   34.38    4.19
  -1   8   3   34.12    3.83
  -1   8   3   36.94    4.14
   1  -8  -3   36.19    6.25
   1  -8  -3   36.27    6.41
   1  -8  -2   16.83    3.84
  -1   8   2   16.52    2.80
  -1   8   2   16.24    3.22
  -1   8   2   14.66    2.94
   1  -8  -2   20.59    5.75
   1  -8  -2   20.04    4.76
  -1   8   1   85.11    6.98
   1  -8  -1   89.88    8.90
  -1   8   0    3.04    3.17
  -1   8   0   61.86   11.83
  -1   8  -1   50.11   11.51
  -1   8  -1  564.54   24.62
  -1   8  -2   27.25    7.45
  -1   7   4    4.66    1.21
  -1   7   4    4.42    1.63
  -1   7   4    4.38    1.39
   1  -7  -4    6.43    2.44
  -1   7   4    4.35    1.18
   1  -7  -4    3.80    1.77
   1  -7  -4    5.11    2.91
  -1   7   4    3.61    1.45
  -1   7   3  164.65    9.33
  -1   7   3  162.85    9.97
  -1   7   3  172.91    8.02
   1  -7  -3  150.36   12.14
   1  -7  -3  135.50   11.12
  -1   7   3  153.57    7.08
   1  -7  -3  173.66   16.64
  -1   7   3  164.29    9.69
   1  -7  -3  224.45   17.49
   1  -7  -3  113.61    8.54
   1  -7  -3  160.54   14.06
   1  -7  -2   56.42    7.10
  -1   7   2   49.46    5.59
  -1   7   2   52.20    5.27
  -1   7   2   49.70    6.19
   1  -7  -2   56.62    8.03
  -1   7   2   48.83    5.36
  -1   7   1   16.57    2.73
   1  -7  -1   18.49    5.02
  -1   7   1   20.75    3.57
   1  -7  -1   19.09    4.02
   1  -7  -1   14.40    3.56
  -1   7   1   19.93    3.25
   1  -7  -1   22.93    4.75
   1  -7  -1   20.54    5.05
  -1   7   0   46.72   10.67
   1  -7   0   38.75    6.62
  -1   7   0   32.86    6.17
   1  -7   0   43.12    7.29
  -1   7  -1   47.71   11.67
  -1   7  -1   56.61   12.57
  -1   7  -1   66.36    9.44
  -1   7  -2   74.21   14.17
  -1   7  -2   59.89   12.68
  -1   7  -3    2.53    2.62
  -1   6   5    0.92    0.65
  -1   6   5    0.13    0.58
  -1   6   5    0.18    0.47
  -1   6   5    0.40    0.37
  -1   6   4   14.61    2.63
  -1   6   4   16.38    2.74
  -1   6   4    9.19    1.58
  -1   6   4   16.45    3.39
   1  -6  -4   11.09    3.40
   1  -6  -4    5.82    2.90
  -1   6   4   13.66    2.44
  -1   6   4   13.22    2.76
   1  -6  -4   10.09    3.86
  -1   6   3   77.99    7.38
  -1   6   3   83.94    6.86
  -1   6   3   85.11    7.71
   1  -6  -3   84.72    9.69
   1  -6  -3   72.52    8.96
  -1   6   3   81.99    5.92
   1  -6  -3   59.38    7.16
   1  -6  -3   86.24   10.82
  -1   6   3   79.89    7.03
  -1   6   2  512.06   15.91
  -1   6   2  536.20   17.71
   1  -6  -2  547.35   22.34
  -1   6   2  529.86   18.84
   1  -6  -2  549.78   21.89
   1  -6  -2  537.75   21.73
   1  -6  -2  542.68   22.59
   1  -6  -2  520.63   16.66
   1  -6  -2  519.10   16.72
   1  -6  -2  567.70   26.72
  -1   6   2  550.11   17.06
  -1   6   1   20.36    3.33
  -1   6   1   17.49    3.23
   1  -6  -1   12.38    3.71
  -1   6   1   17.54    2.74
   1  -6  -1   20.43    4.01
  -1   6   1   14.70    3.94
   1  -6  -1   15.92    3.49
   1  -6  -1   18.92    2.82
   1  -6  -1   17.14    2.68
  -1   6   1   16.54    2.75
   1  -6  -1   21.10    4.66
   1  -6   0    5.35    2.69
  -1   6   0   -3.14    2.48
  -1   6   0    1.46    4.60
   1  -6   0    8.44    2.46
   1  -6   0    9.19    3.05
  -1   6  -1   61.77    8.83
  -1   6  -1   37.36    9.70
  -1   6  -1   28.81    8.90
   1  -6   1   34.58    5.88
  -1   6  -1   33.76    6.14
   1  -6   1   34.38    6.18
  -1   6  -2   10.24    7.00
  -1   6  -2   10.90    7.23
  -1   6  -2    6.52    5.02
  -1   6  -3    3.03    3.82
  -1   6  -3    1.90    4.69
  -1   6  -3    1.02    3.93
  -1   5   5   24.13    3.09
  -1   5   5   32.24    3.00
  -1   5   5   25.92    2.72
  -1   5   5   25.00    2.68
  -1   5   4   23.41    3.47
  -1   5   4   29.15    4.62
  -1   5   4   18.48    2.82
   1  -5  -4   17.93    4.71
   1  -5  -4   27.67    4.24
   1  -5  -4   19.09    5.41
  -1   5   4   21.59    3.47
   1  -5  -4   17.82    5.38
  -1   5   4   22.08    3.71
  -1   5   3   36.00    4.37
  -1   5   3   40.37    5.45
  -1   5   3   40.87    5.07
  -1   5   3   34.02    3.67
  -1   5   3   46.86    5.07
   1  -5  -3   46.07    7.18
   1  -5  -3   39.67    4.83
   1  -5  -3   48.40    5.46
  -1   5   3   41.43    4.61
  -1   5   3   37.04    4.45
  -1   5   3   53.87    5.30
   1  -5  -3   46.42    5.50
   1  -5  -3   42.71    6.99
  -1   5   3   41.65    5.03
   1  -5  -3   32.40    5.34
   1  -5  -3   47.50    7.90
   1  -5  -3   55.71    8.81
  -1   5   2    0.70    0.77
   1  -5  -2   -0.08    0.89
   1  -5  -2    0.23    0.68
   1  -5  -2    2.32    1.98
   1  -5  -2    1.83    1.24
  -1   5   2    2.03    0.84
   1  -5  -2    2.69    1.82
   1  -5  -1   -0.26    1.40
   1  -5  -1    0.54    1.79
   1  -5  -1    2.52    1.00
   1  -5  -1    2.59    1.14
   1  -5  -1    1.49    1.27
   1  -5  -1    3.47    1.95
   1  -5   0   47.79    6.35
   1  -5   0   44.43    3.16
   1  -5   0   44.32    3.15
   1  -5   0   44.74    4.64
   1  -5   0   44.59    6.05
   1  -5   1  276.91   14.84
  -1   5  -1  303.80   10.49
   1  -5   1  284.00   11.59
  -1   5  -1  297.71   15.91
   1  -5   1  275.67   15.50
  -1   5  -2   60.13   13.15
  -1   5  -2   67.31   12.70
  -1   5  -2   34.30   10.24
  -1   5  -2   58.40    5.06
  -1   5  -2   65.06    6.04
  -1   5  -2   70.39    8.61
   1  -5   2   59.20    7.71
  -1   5  -3   67.37   14.53
  -1   5  -3   59.52    5.31
  -1   5  -3   61.06    5.72
  -1   5  -3   87.67   13.95
  -1   5  -4   25.44    7.31
  -1   5  -4   66.14   11.38
  -1   4   5   30.07    3.19
  -1   4   5   20.94    3.20
  -1   4   5   18.99    2.42
   1  -4  -5   14.80    5.18
  -1   4   5   24.36    3.05
  -1   4   5   23.47    2.80
  -1   4   4    0.66    1.22
  -1   4   4    2.91    1.35
   1  -4  -4    2.33    1.58
   1  -4  -4   -0.01    2.22
   1  -4  -4    3.86    3.32
  -1   4   4    2.75    1.51
   1  -4  -4    0.93    3.20
  -1   4   3   41.64    4.50
  -1   4   3   43.86    5.56
  -1   4   3   39.69    4.77
  -1   4   3   46.67    4.38
  -1   4   3   48.40    5.09
   1  -4  -3   39.95    6.14
   1  -4  -3   43.98    4.94
  -1   4   3   47.19    5.00
   1  -4  -3   42.75    4.87
   1  -4  -3   40.47    6.69
  -1   4   3   36.06    4.05
   1  -4  -3   47.18    5.16
   1  -4  -3   38.76    5.67
  -1   4   3   45.97    5.13
   1  -4  -3   46.15    7.43
   1  -4  -2    1.75    1.71
  -1   4   2    2.01    0.93
  -1   4   2    6.47    1.57
  -1   4   2    8.37    3.68
   1  -4  -2    5.17    1.60
   1  -4  -2    5.61    1.81
   1  -4  -2    7.11    2.64
  -1   4   2    5.80    1.52
   1  -4  -2    6.10    2.49
   1  -4  -1    5.71    1.19
   1  -4  -1    5.36    2.17
  -1   4   1    6.68    1.32
   1  -4  -1    8.81    3.15
   1  -4  -1    9.05    2.22
   1  -4  -1    8.00    1.65
   1  -4  -1    8.86    1.65
  -1   4   1    7.72    1.20
   1  -4  -1    8.38    2.61
   1  -4   0    0.76    1.55
   1  -4   0    1.46    0.57
   1  -4   0    5.44    2.45
  -1   4   0   -0.62    1.89
   1  -4   0    1.51    0.68
   1  -4   0    2.08    0.71
   1  -4   0    1.12    0.98
   1  -4   0    2.32    1.88
   1  -4   1  191.34    6.37
   1  -4   1  191.40   10.72
  -1   4  -1  207.28    7.78
   1  -4   1  179.73    8.42
  -1   4  -1  206.74   11.51
   1  -4   1  181.56   11.08
  -1   4  -2   39.92    4.46
   1  -4   2   30.58    3.18
   1  -4   2   37.63    2.87
  -1   4  -2   38.76    5.92
  -1   4  -3   10.10    5.72
  -1   4  -3   11.00    2.75
  -1   4  -3    5.54    4.93
  -1   4  -3   16.36    2.91
  -1   4  -4   -0.58    2.45
  -1   4  -4   -4.51    3.79
  -1   4  -4   -0.57    1.55
  -1   3   5    3.25    1.42
  -1   3   5    5.07    1.45
   1  -3  -5    1.33    2.79
   1  -3  -5    4.86    1.71
  -1   3   5    4.04    1.55
  -1   3   5    3.81    1.18
  -1   3   4    2.52    1.54
  -1   3   4    3.90    1.32
   1  -3  -4    4.44    2.48
   1  -3  -4    3.82    2.16
   1  -3  -4    0.23    2.13
  -1   3   4    5.42    1.98
  -1   3   3   58.42    5.57
   1  -3  -3   49.07    5.04
   1  -3  -3   62.80    5.48
  -1   3   3   59.81    5.51
   1  -3  -3   59.90    5.33
  -1   3   3   48.97    4.19
  -1   3   2   26.67    3.13
   1  -3  -2   20.14    2.84
   1  -3  -2   24.13    3.87
   1  -3  -2   23.11    2.88
   1  -3  -2   22.88    2.82
  -1   3   2   20.80    1.97
   1  -3  -2   19.76    3.83
  -1   3   1    0.56    0.75
   1  -3  -1    1.29    0.91
   1  -3  -1    1.43    1.41
   1  -3  -1    1.53    1.98
  -1   3   1   -0.01    1.99
   1  -3  -1    0.78    0.83
   1  -3  -1    1.34    1.67
   1  -3  -1    0.53    0.84
  -1   3   1    2.09    0.53
   1  -3  -1    0.41    1.40
   1  -3   0  344.18    6.57
   1  -3   0  325.59   11.50
  -1   3   0  364.72    3.86
   1  -3   0  330.55    9.53
   1  -3   0  342.56    2.92
   1  -3   0  310.55    6.48
   1  -3   0  319.35    6.60
   1  -3   0  317.40   11.49
  -1   3  -1  251.69    7.43
   1  -3   1  227.06   10.00
   1  -3   1  280.17    7.37
   1  -3   1  255.55    4.01
  -1   3  -1  312.33   22.78
   1  -3   1  335.45   15.82
   1  -3   1  200.59    7.86
   1  -3   1  238.09    5.22
  -1   3  -1  235.48   10.47
   1  -3   2  107.32    4.35
  -1   3  -2  120.00    7.07
   1  -3   2  108.67    4.99
  -1   3  -2  123.50    9.11
   1  -3   3    0.12    0.77
  -1   3  -3    0.30    1.40
  -1   3  -3    3.72    5.11
  -1   3  -3    1.32    1.31
  -1   3  -3   -2.48    3.25
  -1   3  -4    9.00    6.42
  -1   3  -4   10.37    2.66
  -1   3  -5    0.04    2.22
   1  -2  -5    5.52    1.71
  -1   2   5    9.20    2.35
  -1   2   4   49.12    5.45
  -1   2   4   49.89    5.66
   1  -2  -4   38.76   14.64
   1  -2  -4   43.89    5.28
  -1   2   4   46.08    5.37
   1  -2  -4   26.98    6.25
  -1   2   4   42.37    4.97
   1  -2  -4   27.12    6.05
  -1   2   4   47.56    5.12
  -1   2   3  409.21   14.39
  -1   2   3  393.80   13.44
   1  -2  -3  381.77   12.31
   1  -2  -3  383.82   12.47
  -1   2   3  381.41   12.15
   1  -2  -2  133.42    5.31
   1  -2  -2  130.74    6.02
   1  -2  -2  134.49    6.07
   1  -2  -2  128.71    7.61
  -1   2   2  131.79    5.37
   1  -2  -2  129.10    8.14
  -1   2   2  126.42    5.67
   1  -2  -1   79.95    3.84
   1  -2  -1   80.31    4.57
   1  -2  -1   84.06    7.33
   1  -2  -1   82.10    3.74
   1  -2  -1   79.70    3.71
   1  -2  -1   84.56    4.69
  -1   2   1   84.30    2.69
  -1   2   1   76.84    4.07
   1  -2  -1   86.89    5.08
   1  -2   0  725.64   13.76
   1  -2   0  782.14    8.18
  -1   2   0  798.70    5.23
   1  -2   0  742.10    4.59
   1  -2   0  748.76   11.97
   1  -2   0  741.21    8.13
   1  -2   1  306.39    5.33
  -1   2  -1  310.89    7.22
   1  -2   1  320.80    3.00
   1  -2   1  287.96    8.84
   1  -2   1  331.02    3.96
  -1   2  -1  299.71    9.82
   1  -2   2    0.45    0.61
  -1   2  -2    1.44    1.12
   1  -2   2    0.39    0.43
  -1   2  -2    1.10    0.93
   1  -2   3  252.53    9.05
   1  -2   3  259.94    9.53
  -1   2  -3  256.10   11.68
  -1   2  -3  280.09   10.45
  -1   2  -4    0.54    4.02
  -1   2  -4    3.61    1.92
  -1   2  -4    3.94    3.44
  -1   2  -5   10.55    1.73
   1  -1  -5   -0.09    2.84
  -1   1   5    2.21    1.24
  -1   1   4  179.74   10.29
  -1   1   4  199.82   10.80
   1  -1  -4  165.04    9.80
   1  -1  -4  182.09    9.54
  -1   1   4  181.21   10.31
  -1   1   4  182.40   10.12
  -1   1   3   38.44    4.36
   1  -1  -3   34.24    3.30
  -1   1   3   33.52    3.87
   1  -1  -3   38.10    3.49
  -1   1   3   31.72    3.69
  -1   1   2   11.56    2.23
   1  -1  -2    9.81    1.60
   1  -1  -2    9.48    1.56
  -1   1   2   10.49    1.53
   1  -1  -2    6.50    2.00
   1  -1  -1 1431.25   14.11
   1  -1  -1 1467.12   13.15
   1  -1  -1 1442.27   16.30
   1  -1  -1 1466.30   13.24
  -1   1   1 1465.46   13.55
   1  -1  -1 1492.66   15.56
   1  -1   0 1134.34   12.18
   1  -1   0 1173.70    7.87
   1  -1   0 1159.24    8.67
   1  -1   0 1176.71   11.23
   1  -1   0 1120.67    7.31
  -1   1  -1 9999.00   97.56
   1  -1   1 5398.13   26.50
   1  -1   2  221.56    6.36
  -1   1  -2  196.74   18.94
   1  -1   2  208.84    6.21
   1  -1   2  235.23    6.67
   1  -1   3   76.98    4.72
   1  -1   3   77.05    5.24
   1  -1   3   78.94    4.94
  -1   1  -4   37.69    4.33
  -1   1  -4    6.71    5.35
  -1   1  -5    4.37    2.92
   1   0  -5   17.66    5.72
   1   0  -5   25.65    2.90
  -1   0   4   -0.18    1.03
  -1   0   4    2.21    1.12
  -1   0   4    0.09    0.98
  -1   0   3    9.41    2.18
  -1   0   3    8.56    1.95
   1   0  -2  314.61    6.89
   1   0  -2  310.58    6.88
  -1   0   2  330.84    8.45
   1   0  -1  406.48    6.94
   1   0  -1  411.33    5.65
  -1   0   1  423.32    7.11
  -1   0   0 1116.85   11.42
   1   0   0 1179.53    7.75
   1   0   0  969.47    5.62
  -1   0   0 1028.22    9.14
   1   0   1  426.80    6.66
  -1   0  -1  439.65    5.88
  -1   0  -1  440.72    5.88
   1   0   1  421.03    6.52
   1   0   1  431.83    3.77
   1   0   2   43.20    3.14
  -1   0  -2   40.85    2.45
   1   0   2   37.14    2.88
  -1   0  -2   38.60    2.37
   1   0   3    6.68    1.72
   1   0   3    5.90    1.50
   1   0   3    6.05    1.64
   1   0   4   27.67    3.74
   1   0   4   21.14    3.15
   1   0   4   27.78    3.55
  -1   0  -4   23.29    3.46
  -1   0  -4    6.49    5.58
  -1   0  -4   27.10   12.68
   1   0   5    5.33    1.29
  -1   0  -5   -2.98    4.25
   1   1  -5    0.35    2.35
   1   1  -5    4.49    1.43
   1   1  -4   17.89    3.73
   1   1  -4    1.04    4.01
  -1  -1   3  441.29   13.16
  -1  -1   3  390.55   11.62
   1   1  -2   41.43    3.71
  -1  -1   2   40.11    3.41
   1   1  -1  632.71    9.50
   1   1  -1  612.48    4.42
   1   1  -1  627.79    7.55
   1   1  -1  641.75   12.47
   1   1   0  193.66    2.31
   1   1   0  164.37    2.78
  -1  -1   0  178.98    7.56
  -1  -1   0  176.06    3.26
   1   1   0  174.53    2.17
   1   1   0  165.94    2.42
  -1  -1   0  186.51    3.26
  -1  -1   0  190.42    3.24
  -1  -1   0  189.72    1.98
  -1  -1   0  176.66    4.89
   1   1   1   71.69    3.06
  -1  -1  -1   74.05    7.19
   1   1   1   68.21    2.89
  -1  -1  -1   70.69    3.00
  -1  -1  -1   71.92    3.01
  -1  -1  -1   61.04    3.64
  -1  -1  -1   64.52    4.53
   1   1   2  161.18    6.29
  -1  -1  -2  155.13    5.61
  -1  -1  -2  151.04    5.56
   1   1   2  165.47    6.26
   1   1   3   26.75    3.36
   1   1   3   30.94    3.52
  -1  -1  -3   31.25    3.01
   1   1   3   34.39    3.74
  -1  -1  -3   30.77    3.03
   1   1   4    0.84    0.94
   1   1   4   -0.63    0.72
  -1  -1  -4   -0.01    1.12
   1   1   4   -2.04    1.17
  -1  -1  -5  119.47   16.22
   1   1   5  290.31    9.66
   1   2  -5   -1.42    2.93
   1   2  -5   -0.95    1.21
   1   2  -4    2.10    3.36
   1   2  -4    2.89    4.79
   1   2  -4    0.54    1.27
   1   2  -4    3.36    1.94
   1   2  -3    0.87    5.26
   1   2  -3    1.39    1.50
   1   2  -3    1.24    1.43
   1   2  -3    3.97    5.67
   1   2  -3   -0.02    2.82
  -1  -2   3    0.41    0.99
   1   2  -2  182.53    8.31
  -1  -2   2  162.78    7.77
   1   2  -2  169.24    9.75
   1   2  -1   89.23    4.09
   1   2  -1   81.10    5.34
   1   2  -1   86.73    2.96
  -1  -2   0   35.23    0.86
   1   2   0   35.96    1.60
  -1  -2   0   40.53    4.96
   1   2   0   -0.01    1.20
   1   2   0   -0.33    1.38
  -1  -2   0   40.20    1.95
   1   2   0   36.12    1.29
  -1  -2   0   37.54    2.24
  -1  -2   0   40.27    1.97
  -1  -2   0   38.85    0.75
  -1  -2   0   37.01    3.25
   1   2   1  192.56    4.43
   1   2   1  190.84    5.30
  -1  -2  -1  198.56   11.94
  -1  -2  -1  198.98    7.29
  -1  -2  -1  196.33    5.86
   1   2   1  197.76    5.21
   1   2   1  193.64    3.39
  -1  -2  -1  199.93    5.88
  -1  -2  -1  200.11    8.45
   1   2   2  447.75   10.99
   1   2   2  419.66    9.75
  -1  -2  -2  469.83   24.61
   1   2   2  444.18   10.79
  -1  -2  -2  426.68   10.81
  -1  -2  -2  423.99   10.71
  -1  -2  -2  407.90   17.09
   1   2   3   87.03    5.77
   1   2   3   81.93    5.92
  -1  -2  -3   86.61    5.71
  -1  -2  -3   82.89    5.61
   1   2   3   80.35    5.86
   1   2   4    2.72    1.67
   1   2   4    1.50    1.34
   1   2   4    0.44    0.83
  -1  -2  -4   -0.27    1.35
   1   2   4    0.87    0.91
  -1  -2  -4   -0.90    2.13
   1   2   5   73.26    5.45
   1   2   5   84.28    4.69
   1   2   5   78.68    5.31
   1   3  -5   -0.28    1.12
   1   3  -5   -1.40    2.43
   1   3  -4   19.59    3.90
   1   3  -4   15.16    6.01
   1   3  -4   28.23    3.89
   1   3  -3    1.16    4.34
   1   3  -3    2.24    1.71
   1   3  -3    5.98    2.24
   1   3  -3    2.89    3.66
  -1  -3   3    3.84    1.51
   1   3  -2   56.36    5.12
  -1  -3   2   49.43    4.86
   1   3  -2   59.10    6.39
  -1  -3   2   46.38    5.15
   1   3  -1  113.84    5.31
  -1  -3   1   87.31    4.14
   1   3  -1  104.31    3.52
  -1  -3   1   90.70    6.38
   1   3  -1   96.62    6.76
  -1  -3   0  292.67    2.91
   1   3   0  327.97    5.49
  -1  -3   0  314.93    6.49
  -1  -3   0  319.77    6.56
   1   3   0  310.18    3.87
  -1  -3   0  317.15    8.21
  -1  -3   0  341.89   11.72
   1   3   1   32.48    1.70
   1   3   1   30.35    2.34
  -1  -3  -1   35.23    6.05
  -1  -3  -1   32.22    2.76
   1   3   1   31.21    2.21
  -1  -3  -1   32.78    2.76
   1   3   1   28.91    0.89
  -1  -3  -1   30.00    3.33
  -1  -3  -1   32.22    4.13
   1   3   2  614.69   11.68
   1   3   2  617.62   13.57
  -1  -3  -2  583.80   14.63
  -1  -3  -2  648.38   30.78
  -1  -3  -2  603.13   14.09
  -1  -3  -2  604.49   14.22
   1   3   2  619.02    9.13
   1   3   2  643.21   13.48
  -1  -3  -2  624.61   22.51
   1   3   3   -1.18    1.04
   1   3   3    0.09    0.86
   1   3   3    0.52    0.85
  -1  -3  -3   -0.31    1.47
  -1  -3  -3   -1.93    1.25
   1   3   3   -0.68    0.90
  -1  -3  -3   -1.11    1.54
  -1  -3  -3   -0.01    0.96
  -1  -3  -3    0.09    0.90
   1   3   3    1.12    1.13
  -1  -3  -3    0.82    0.84
  -1  -3  -3    1.17    2.22
  -1  -3  -3    0.49    1.49
  -1  -3  -4    8.26    2.32
   1   3   4    7.25    2.38
  -1  -3  -4    4.09    2.94
   1   3   4    7.15    1.92
   1   3   5    5.85    1.65
   1   3   5    5.84    1.44
   1   3   5    4.85    1.53
   1   3   5    4.99    1.63
   1   4  -4    9.21    5.01
   1   4  -4   14.21    2.97
   1   4  -4   14.53    6.50
   1   4  -4   12.63    2.50
   1   4  -3   41.81    4.42
   1   4  -3   29.86    9.46
   1   4  -3   34.66    5.05
   1   4  -3   17.57    7.94
   1   4  -3   43.27    9.26
  -1  -4   2    1.82    3.59
   1   4  -2    0.49    1.10
   1   4  -2   -0.23    1.21
  -1  -4   2   -1.52    1.29
   1   4  -1    0.25    3.09
  -1  -4   1  143.84   12.69
   1   4  -1    0.33    1.52
   1   4  -1  133.91    6.55
   1   4  -1  114.24    8.57
  -1  -4   1  115.99    8.58
  -1  -4   0   12.61    1.52
  -1  -4   0   13.20    1.57
  -1  -4   0   10.67    1.89
  -1  -4   0   13.35    3.00
   1   4   1   15.23    1.87
  -1  -4  -1   18.87    4.90
   1   4   1   14.32    1.55
  -1  -4  -1   17.46    2.24
  -1  -4  -1   15.97    2.76
  -1  -4  -1   16.87    2.22
  -1  -4  -1   19.06    3.83
  -1  -4  -2   25.86    3.92
   1   4   2   34.82    3.48
   1   4   2   33.12    2.58
   1   4   2   18.40    6.37
  -1  -4  -2   28.47    7.42
  -1  -4  -2   32.67    3.64
  -1  -4  -2   30.45    3.49
   1   4   2   30.17    3.11
  -1  -4  -2   28.74    4.56
  -1  -4  -2   34.77    5.90
   1   4   3   16.18    2.67
   1   4   3   21.79    3.71
   1   4   3   20.36    2.71
   1   4   3   20.53    3.22
  -1  -4  -3   12.65    2.70
  -1  -4  -3   14.65    3.95
   1   4   3   16.62    2.89
  -1  -4  -3   19.59    3.26
  -1  -4  -3   29.52    7.26
  -1  -4  -3   12.13    3.94
  -1  -4  -3   19.72    3.24
  -1  -4  -3   12.93    3.31
  -1  -4  -3   16.29    4.86
  -1  -4  -3   16.58    5.07
  -1  -4  -3   19.05    5.05
   1   4   3   20.75    3.33
   1   4   4   12.26    3.08
   1   4   4   11.77    2.23
  -1  -4  -4   14.55    3.21
  -1  -4  -4    7.68    3.43
  -1  -4  -4    5.53    3.01
   1   4   4   12.71    2.73
  -1  -4  -4    7.04    4.20
   1   4   4   14.44    2.79
   1   4   5    0.78    0.77
   1   4   5    1.58    0.91
   1   4   5    0.55    0.78
   1   4   5    1.14    0.76
   1   5  -4   43.23    3.83
   1   5  -4   22.30    6.97
   1   5  -3   35.67    4.15
   1   5  -3   36.99    5.11
   1   5  -3   18.84    8.28
   1   5  -3   35.51    9.01
   1   5  -2    2.86    4.24
   1   5  -2    2.04    2.00
   1   5  -2   -0.79    3.17
   1   5  -2   -4.46    1.82
   1   5  -2   -7.18    4.85
   1   5  -2    2.54    1.73
   1   5  -2    2.04    1.59
  -1  -5   2   -1.82    1.55
  -1  -5   1   -1.86    2.64
   1   5  -1    0.65    1.14
  -1  -5   1   -0.30    1.31
   1   5  -1   -0.47    1.43
  -1  -5   0   89.71    6.02
  -1  -5   0   75.84    4.03
  -1  -5   0   80.97    4.14
   1   5   0   90.31    4.21
   1   5   0   80.96    7.39
  -1  -5   0   87.96    8.40
   1   5   1    4.61    1.07
  -1  -5  -1    2.89    1.98
  -1  -5  -1    5.96    3.43
  -1  -5  -1    5.16    1.37
  -1  -5  -1    4.34    1.30
  -1  -5  -1    4.99    1.78
  -1  -5  -1    5.10    2.43
   1   5   2    0.63    0.69
   1   5   2    0.15    0.62
  -1  -5  -2    0.33    1.48
   1   5   2    0.68    1.01
  -1  -5  -2   -1.16    3.39
   1   5   2    0.20    1.55
  -1  -5  -2    0.85    0.83
  -1  -5  -2    0.94    1.09
   1   5   2   -0.23    0.71
  -1  -5  -2    1.18    1.06
   1   5   2   -0.18    0.68
  -1  -5  -2    0.21    2.02
   1   5   3   91.14    6.08
   1   5   3   92.54    6.73
   1   5   3   99.92    8.12
   1   5   3  103.01    7.28
  -1  -5  -3   85.82    9.43
  -1  -5  -3   85.58    7.25
  -1  -5  -3   97.68    7.63
  -1  -5  -3  105.23   14.23
  -1  -5  -3   99.24    7.66
   1   5   3   96.25    6.79
  -1  -5  -3   80.17    9.31
   1   5   3   98.60    6.83
   1   5   3   92.04    7.23
  -1  -5  -3   74.05    7.71
  -1  -5  -3  120.35   13.44
  -1  -5  -3  106.20   13.73
  -1  -5  -3   99.08   11.54
   1   5   4  107.95    7.06
   1   5   4   89.49    5.99
   1   5   4  103.50    8.04
   1   5   4   96.84    6.43
  -1  -5  -4   71.74    8.77
   1   5   4  105.21    7.00
  -1  -5  -4   92.60   11.55
   1   5   4   97.48    6.99
  -1  -5  -4   85.54   11.16
   1   5   5   52.31    3.52
   1   5   5   34.00    2.62
   1   5   5   38.10    3.43
   1   5   5   45.49    3.36
   1   6  -3  205.20   22.18
   1   6  -3  256.54   22.22
   1   6  -3  214.10    9.90
   1   6  -2    1.54    2.21
   1   6  -2    0.82    4.19
   1   6  -2    1.45    1.04
   1   6  -2    2.29    5.57
   1   6  -1    5.28    4.07
   1   6  -1   12.40    6.98
   1   6  -1    3.12    1.50
  -1  -6   1    3.01    2.42
  -1  -6   1    3.74    2.37
   1   6  -1    3.19    2.09
   1   6   0   22.01    7.91
  -1  -6   0   19.15    4.75
   1   6   0   18.08    3.39
   1   6   0   16.13    3.95
  -1  -6   0   17.87    4.23
  -1  -6  -1   82.73    9.51
   1   6   1   75.82    6.36
   1   6   1   71.24    5.43
   1   6   1  143.38   12.56
   1   6   1  149.40   14.74
  -1  -6  -1   71.55    5.31
  -1  -6  -1   71.23    5.29
  -1  -6  -1   76.66    7.25
  -1  -6  -1   83.00    9.66
  -1  -6  -1   86.64    8.29
   1   6   1   72.56    5.87
   1   6   2  451.14   16.41
   1   6   2  441.02   12.72
  -1  -6  -2  453.64   20.84
   1   6   2  430.82   14.42
  -1  -6  -2  457.88   19.67
  -1  -6  -2  433.45   15.01
  -1  -6  -2  424.80   19.70
  -1  -6  -2  440.90   15.06
   1   6   2  433.67   12.65
  -1  -6  -2  490.41   26.18
   1   6   2  448.60   15.44
  -1  -6  -2  493.25   22.59
   1   6   3  139.69    7.91
   1   6   3  134.68    8.36
   1   6   3  143.63    9.75
   1   6   3  134.42    6.73
  -1  -6  -3  118.18   11.18
   1   6   3  142.70    7.86
  -1  -6  -3  148.42   17.41
  -1  -6  -3  115.95   10.46
  -1  -6  -3  147.63   14.01
   1   6   3  131.72    8.68
  -1  -6  -3  162.14   15.87
   1   6   4    0.86    0.99
   1   6   4   -0.50    0.69
   1   6   4   -0.49    1.06
  -1  -6  -4    0.07    1.50
   1   6   4    0.29    0.86
  -1  -6  -4   -0.44    2.31
  -1  -6  -4    0.28    2.03
   1   6   4   -0.25    0.97
   1   6   5    5.88    1.01
   1   6   5    4.03    0.85
   1   7  -3   72.22   10.24
   1   7  -2   26.25    8.36
   1   7  -1    5.06    5.33
   1   7  -1   33.89    6.62
   1   7   0    9.47    4.57
   1   7   0   28.33    8.93
  -1  -7   0   24.45    5.64
  -1  -7   0   23.95    5.43
   1   7   0   19.70    4.74
  -1  -7  -1  917.92   33.43
   1   7   1  951.87   24.50
   1   7   1  864.63   21.86
  -1  -7  -1  959.79   28.88
  -1  -7  -1  939.11   35.39
   1   7   2   97.59    7.04
   1   7   2   95.91    7.91
  -1  -7  -2   87.88    8.69
   1   7   2  101.06    5.91
  -1  -7  -2   92.31   10.03
   1   7   2   99.95    7.61
   1   7   3    7.89    2.12
   1   7   3    8.07    2.53
   1   7   3    7.21    1.73
  -1  -7  -3    6.34    2.82
  -1  -7  -3   13.17    6.14
   1   7   3    7.56    1.85
  -1  -7  -3    9.48    3.49
   1   7   3    8.59    2.28
  -1  -7  -3   11.07    4.63
   1   7   4   -0.71    1.26
   1   7   4    1.79    0.87
   1   7   4    0.56    0.65
  -1  -7  -4    3.36    1.88
  -1  -7  -4    1.43    1.52
   1   7   4    1.92    0.96
   1   8  -2   78.67   11.73
   1   8  -1    0.95    3.89
   1   8  -1   30.87    5.51
   1   8   0    3.51    4.04
   1   8   0  341.66   20.55
   1   8   1   17.47    5.12
   1   8   1    7.84    2.59
   1   8   2    3.98    2.09
  -1  -8  -2    0.07    1.01
  -1  -8  -2    5.39    3.88
  -1  -8  -2    1.94    2.31
   1   8   2    4.09    1.77
  -1  -8  -2    3.99    2.21
   1   8   3   11.04    2.48
  -1  -8  -3    6.35    2.16
  -1  -8  -3   15.16    4.74
  -1  -8  -3    8.16    2.97
  -1  -8  -3   11.95    4.17
   1   8   3   10.22    2.21
   1   8   4    0.22    0.53
  -1  -8  -4   -0.34    1.01
   1   9  -1   -3.71    2.90
   1   9  -1   17.68    3.84
   1   9   0    6.44    3.19
  -1  -9   0    7.45    2.68
   1   9   1   12.68    4.04
  -1  -9  -1   17.86    4.42
   1   9   2   18.48    2.93
   1   9   2   11.40    3.20
  -1  -9  -2   14.17    4.40
  -1  -9  -2   14.10    3.88
  -1  -9  -2    8.84    2.37
   1   9   3   68.40    4.66
  -1  -9  -3   53.46    5.97
   1  10   0    0.91    1.30
  -1 -10   0   10.65    2.63
  -1 -10  -1   24.37    4.43
  -1 -10  -1   20.27    3.19
  -1 -10  -2    0.46    0.91
   2 -10  -2  111.56    7.30
  -2  10   1    2.28    1.50
   2 -10  -1    4.47    2.02
   2 -10  -1    5.57    2.00
  -2  10   0    1.87    1.18
   2 -10   0    2.20    1.26
   2  -9  -3   21.25    2.88
  -2   9   3   32.42    2.95
   2  -9  -3   33.78    4.53
   2  -9  -3   32.15    4.42
  -2   9   2   -0.63    0.81
   2  -9  -2    0.07    0.78
   2  -9  -2   -0.97    2.43
   2  -9  -2    2.39    2.08
   2  -9  -2   -0.87    2.19
  -2   9   1   10.94    4.07
   2  -9  -1   60.71    6.42
  -2   9   0   20.71    5.65
  -2   9   0   12.93    5.06
  -2   9  -1    0.57    2.55
  -2   9  -1    5.28    2.33
  -2   9  -2   12.48    3.35
  -2   8   4    0.63    0.61
   2  -8  -4   -0.38    1.11
  -2   8   4    1.28    0.77
  -2   8   3   15.34    2.76
  -2   8   3   17.73    2.76
   2  -8  -3   14.66    3.53
   2  -8  -3    9.87    2.53
   2  -8  -3   21.89    4.91
   2  -8  -3   16.18    4.61
  -2   8   3   16.17    2.72
   2  -8  -2   66.22    7.39
  -2   8   2   67.33    5.98
  -2   8   2   62.47    5.33
  -2   8   2   67.86    5.76
   2  -8  -2   76.10    8.82
   2  -8  -1    4.15    2.08
  -2   8   1   10.78    2.71
   2  -8  -1    5.76    2.59
  -2   8   0    0.02    4.18
  -2   8   0    4.39    3.02
   2  -8   0   -1.95    1.22
  -2   8  -1   94.70   10.03
  -2   8  -1  237.77   23.68
  -2   8  -2    0.51    3.02
  -2   7   4    1.57    0.95
  -2   7   4    1.51    1.17
  -2   7   4    0.38    0.72
   2  -7  -4    2.41    1.95
   2  -7  -4    1.28    1.16
  -2   7   4    1.29    0.63
  -2   7   4    1.18    0.95
   2  -7  -4   -1.26    1.97
  -2   7   3   -0.97    0.82
  -2   7   3   -0.22    1.09
  -2   7   3   -0.27    1.03
  -2   7   3   -2.18    1.51
   2  -7  -3   -1.12    2.18
   2  -7  -3   -0.05    1.48
  -2   7   3   -0.06    1.35
   2  -7  -3   -1.54    1.37
   2  -7  -3    0.35    1.71
   2  -7  -3   -3.83    2.71
  -2   7   2  524.37   17.51
  -2   7   2  530.66   16.57
  -2   7   2  548.11   20.47
   2  -7  -2  546.68   22.53
   2  -7  -2  557.13   22.59
  -2   7   2  527.12   16.99
  -2   7   1   31.37    4.05
   2  -7  -1   31.04    5.95
  -2   7   1   30.44    3.65
   2  -7  -1   27.39    4.84
  -2   7   1   24.38    6.97
  -2   7   1   36.64    6.79
   2  -7  -1   27.89    4.92
   2  -7  -1   37.54    6.11
   2  -7  -1   29.75    5.89
  -2   7   1   28.40    3.76
  -2   7   0    6.33    5.86
   2  -7   0    0.87    1.91
  -2   7   0    0.25    1.55
   2  -7   0    0.68    1.56
  -2   7  -1   28.31    9.12
  -2   7  -1   27.24    6.14
  -2   7  -1   20.24    7.79
  -2   7  -2   14.37    7.28
  -2   7  -2    9.54    6.63
  -2   7  -3    6.17    3.85
  -2   7  -3    8.01    3.62
  -2   6   5    3.82    0.92
  -2   6   5    1.95    0.85
  -2   6   5    2.47    0.73
  -2   6   5    2.57    0.86
  -2   6   4    3.80    1.56
  -2   6   4    7.17    2.36
   2  -6  -4    2.20    1.92
  -2   6   4    3.19    1.33
   2  -6  -4    0.53    2.07
   2  -6  -4    5.27    3.19
  -2   6   4    4.20    1.79
  -2   6   3  116.73    9.12
  -2   6   3  115.50    8.15
  -2   6   3  111.09    8.88
   2  -6  -3  130.67   11.93
   2  -6  -3  116.70    8.06
   2  -6  -3  104.83   11.08
  -2   6   3  119.05    7.12
  -2   6   3  117.76    8.61
   2  -6  -3  133.82   13.41
   2  -6  -3  107.30    9.52
  -2   6   2  508.15   16.00
  -2   6   2  535.95   17.54
   2  -6  -2  494.63   21.02
  -2   6   2  519.12   18.94
   2  -6  -2  462.69   14.06
   2  -6  -2  554.41   22.35
   2  -6  -2  554.30   23.14
   2  -6  -2  527.83   22.11
   2  -6  -2  524.73   16.97
   2  -6  -2  515.96   16.96
  -2   6   2  489.28   17.18
   2  -6  -2  575.57   26.47
   2  -6  -2  617.87   25.70
  -2   6   2  517.18   16.64
   2  -6  -2  494.98   18.60
   2  -6  -1   20.40    4.79
  -2   6   1   19.48    2.99
  -2   6   1   19.91    2.86
  -2   6   1   25.17    4.13
   2  -6  -1   20.89    3.86
  -2   6   1   23.89    5.36
   2  -6  -1   20.64    3.89
   2  -6  -1   20.71    2.99
   2  -6  -1   20.25    2.95
   2  -6  -1   21.97    4.28
  -2   6   1   19.73    2.94
   2  -6  -1   24.61    5.20
   2  -6   0    0.16    1.99
  -2   6   0    3.92    4.30
   2  -6   0   -0.42    1.40
   2  -6   0   -0.84    2.02
  -2   6  -1   26.05    8.50
  -2   6  -1   37.23   10.25
   2  -6   1   32.43    5.61
  -2   6  -1   37.82    6.53
   2  -6   1   30.43    5.94
  -2   6  -2   49.28   12.94
  -2   6  -2   62.19   13.65
  -2   6  -2   24.28    9.24
  -2   6  -3    6.19    3.76
  -2   6  -3    4.90    4.66
  -2   6  -3   -1.28    4.69
  -2   5   5   75.47    4.02
  -2   5   5   80.29    5.65
  -2   5   5   82.52    4.80
  -2   5   5   82.67    5.01
  -2   5   4   -0.89    1.61
  -2   5   4    0.18    0.89
  -2   5   4   -0.38    1.04
   2  -5  -4    0.04    1.69
   2  -5  -4    1.29    1.52
  -2   5   4    0.41    1.12
   2  -5  -4   -0.27    2.53
  -2   5   4    0.62    1.20
   2  -5  -4    1.02    2.54
  -2   5   3    1.05    1.07
  -2   5   3    4.99    1.91
  -2   5   3    1.08    1.47
  -2   5   3    3.29    1.52
   2  -5  -3    1.88    2.22
   2  -5  -3    0.80    1.11
   2  -5  -3    0.22    2.02
   2  -5  -3    1.51    1.24
  -2   5   3    2.42    1.43
   2  -5  -3    2.08    1.23
  -2   5   3    3.82    1.49
  -2   5   3    0.76    1.23
   2  -5  -3    0.56    1.50
   2  -5  -3    1.95    2.57
   2  -5  -3   -0.57    1.63
   2  -5  -2    0.65    1.00
  -2   5   2    0.79    0.71
  -2   5   2    0.60    1.89
   2  -5  -2    1.30    1.21
  -2   5   2    0.33    0.65
   2  -5  -2    0.39    0.79
   2  -5  -2    0.67    1.77
   2  -5  -2    1.46    2.21
   2  -5  -1   43.43    5.73
   2  -5  -1   44.29    4.02
   2  -5  -1   45.40    4.11
   2  -5  -1   45.05    5.27
   2  -5  -1   51.26    6.53
   2  -5   0    2.41    2.00
  -2   5   0   -0.22    1.99
   2  -5   0    1.86    0.72
   2  -5   0    3.59    1.70
   2  -5   0    2.60    0.78
   2  -5   0    1.79    1.61
   2  -5   1   27.17    4.76
   2  -5   1   26.40    3.82
  -2   5  -1   29.33    5.17
   2  -5   1   23.69    4.71
  -2   5  -2    2.07    1.69
  -2   5  -2    1.90    4.02
  -2   5  -2   -5.73    5.06
  -2   5  -2    0.69    3.79
   2  -5   2    6.26    3.03
  -2   5  -2    1.02    1.52
  -2   5  -3  300.00   11.44
  -2   5  -3  332.23   31.74
  -2   5  -4    2.66    3.24
  -2   5  -4    7.25    3.55
  -2   4   5    3.10    1.53
  -2   4   5    1.93    1.06
   2  -4  -5    1.69    1.12
  -2   4   5    1.19    0.93
  -2   4   5    1.88    1.01
  -2   4   4    5.63    2.49
  -2   4   4    6.38    1.99
   2  -4  -4    8.63    3.42
   2  -4  -4    4.12    1.96
   2  -4  -4    5.85    3.50
  -2   4   4    6.47    2.32
   2  -4  -4    7.37    4.29
  -2   4   3   -0.41    0.49
  -2   4   3    0.27    0.81
  -2   4   3    2.18    1.40
  -2   4   3    1.37    0.87
  -2   4   3   -0.04    1.12
   2  -4  -3    0.07    1.31
   2  -4  -3    1.07    1.20
   2  -4  -3    1.80    1.14
   2  -4  -3   -4.83    2.46
  -2   4   3    1.84    1.37
   2  -4  -3    0.82    0.78
   2  -4  -3   -2.55    1.21
  -2   4   3    0.34    1.12
   2  -4  -3    0.87    2.47
   2  -4  -3    0.17    1.17
  -2   4   3   -0.73    0.74
  -2   4   2    2.58    1.12
   2  -4  -2    0.57    0.92
   2  -4  -2    3.53    2.21
   2  -4  -2    1.92    1.05
   2  -4  -2    4.11    1.54
   2  -4  -2    1.63    1.13
   2  -4  -1   76.58    6.76
  -2   4   1   89.46    4.27
   2  -4  -1   81.81    4.59
   2  -4  -1   94.76    8.43
   2  -4  -1   82.37    6.37
   2  -4  -1   85.54    5.08
   2  -4  -1   83.18    4.97
   2  -4  -1   87.15    7.37
   2  -4   0  140.65    9.08
   2  -4   0  145.50    5.42
   2  -4   0  142.22    5.32
   2  -4   0  148.69    5.40
   2  -4   0  139.55    7.60
   2  -4   0  142.47    9.51
  -2   4  -1  117.26    5.60
   2  -4   1  113.83    5.18
   2  -4   1  117.28    8.36
   2  -4   1  107.73    6.90
   2  -4   1  126.79    3.75
  -2   4  -1  119.65    8.89
  -2   4  -2  184.56    9.13
   2  -4   2  135.81    7.02
  -2   4  -2  173.58    7.99
  -2   4  -2  130.39   18.64
   2  -4   2  174.27    6.02
   2  -4   2  141.29    8.73
  -2   4  -2  200.26   13.04
  -2   4  -3   11.67    5.39
  -2   4  -3   10.75    2.68
  -2   4  -3   14.84    2.89
  -2   4  -3    6.72    6.20
   2  -4   3    3.76    1.40
  -2   4  -4    5.47    4.59
  -2   4  -4   -0.62    3.40
  -2   4  -4    3.63    1.90
   2  -3  -5   74.48    5.89
  -2   3   5   73.67    6.40
  -2   3   5   63.94    4.95
  -2   3   4   31.82    4.05
   2  -3  -4   39.17    5.32
   2  -3  -4   28.12    5.23
   2  -3  -4   29.20    6.35
  -2   3   4   35.86    4.81
   2  -3  -4   24.61    5.76
  -2   3   3  105.19    7.85
   2  -3  -3   80.36    6.70
   2  -3  -3  113.57   21.99
   2  -3  -3   89.64    6.68
   2  -3  -3   88.39    6.66
   2  -3  -3   82.99    9.21
  -2   3   3   85.22    5.34
   2  -3  -3   71.77    7.59
   2  -3  -2   81.53    5.60
  -2   3   2   99.45    6.15
   2  -3  -2   96.76    7.42
   2  -3  -2   91.48    5.72
   2  -3  -2   89.23    5.58
   2  -3  -2   85.83    6.98
  -2   3   2   84.60    3.86
   2  -3  -1 1771.72   20.11
   2  -3  -1 1730.69   26.23
   2  -3  -1 1943.13   34.49
   2  -3  -1 1951.23   26.80
   2  -3  -1 1851.09   20.74
   2  -3  -1 1846.29   20.57
  -2   3   1 1757.92   10.88
   2  -3  -1 1972.12   29.04
  -2   3   0  142.06    2.05
   2  -3   0  136.51    4.61
   2  -3   0  132.17    7.34
   2  -3   0  146.04    6.50
   2  -3   0  132.55    2.75
   2  -3   0  129.34    4.34
   2  -3   0  134.92    6.52
   2  -3   1  141.93    5.57
  -2   3  -1  134.52    5.25
   2  -3   1  134.15    7.52
   2  -3   1  141.78    3.17
   2  -3   1  135.21    3.96
   2  -3   1  117.26    6.51
  -2   3  -1  128.98    7.78
   2  -3   2   40.41    3.94
   2  -3   2   43.09    2.72
   2  -3   2   41.18    3.05
  -2   3  -2   48.13    5.69
   2  -3   3    0.81    0.63
  -2   3  -3    1.65    3.49
  -2   3  -3    2.38    1.40
  -2   3  -3    1.54    1.31
  -2   3  -3    5.44    5.34
  -2   3  -3    7.02    5.17
   2  -3   3    3.26    1.23
  -2   3  -4   -6.40    5.19
  -2   3  -4    2.64    3.45
  -2   3  -5   -0.28    1.82
   2  -2  -5   41.68    4.42
  -2   2   5   38.22    4.78
  -2   2   5   32.63    3.51
  -2   2   4   40.22    4.30
  -2   2   4   52.49    5.99
  -2   2   4   48.19    5.59
   2  -2  -4   39.86    5.23
  -2   2   4   47.50    5.70
   2  -2  -4   33.11    6.71
   2  -2  -4   25.23    5.66
  -2   2   4   43.77    5.23
  -2   2   4   40.99    4.72
  -2   2   3  566.00   17.64
   2  -2  -3  556.11   14.99
   2  -2  -3  540.54   14.95
  -2   2   3  504.77   13.73
   2  -2  -2   18.58    2.23
  -2   2   2   24.86    3.34
  -2   2   2    1.98    2.50
   2  -2  -2    0.44    4.91
   2  -2  -2   18.39    2.41
   2  -2  -2   17.85    2.43
   2  -2  -2   15.32    2.70
  -2   2   2   15.77    2.32
   2  -2  -2   14.45    2.63
  -2   2   2   17.45    2.02
   2  -2  -1  428.62    9.33
   2  -2  -1  430.02   10.80
   2  -2  -1  433.42    8.71
   2  -2  -1  469.94   11.18
  -2   2   1  438.86    6.22
  -2   2   1  435.70   10.28
   2  -2  -1  477.83   11.29
   2  -2   0 3431.45   30.24
   2  -2   0 3361.00   18.89
   2  -2   0 3372.61   27.44
   2  -2   1    5.33    1.39
   2  -2   1    5.73    0.81
  -2   2  -1    5.28    1.14
   2  -2   1    7.08    1.34
   2  -2   1    5.73    0.55
   2  -2   1    5.54    0.61
  -2   2  -1    5.41    0.59
   2  -2   1    4.63    0.85
  -2   2  -1    6.51    1.64
   2  -2   2  255.04    7.06
   2  -2   2  249.21    7.39
   2  -2   2  269.72    6.12
   2  -2   3    0.63    0.54
  -2   2  -3   -0.41    1.53
  -2   2  -3   -2.40    3.89
  -2   2  -3    3.07    1.49
   2  -2   3    1.22    0.91
  -2   2  -4   52.59    4.67
  -2   2  -4   39.11    9.93
   2  -1  -5    4.14    3.27
   2  -1  -5    3.72    1.57
   2  -1  -5    3.65    1.43
  -2   1   4    4.20    1.84
  -2   1   4    3.66    1.81
   2  -1  -4    4.72    2.10
   2  -1  -4    3.99    2.05
  -2   1   4    5.53    2.20
  -2   1   4    6.03    2.30
  -2   1   3    8.42    2.40
   2  -1  -3    4.14    1.28
   2  -1  -3    4.98    1.36
  -2   1   3    3.84    1.84
   2  -1  -2   50.40    2.82
  -2   1   2  102.78    7.37
  -2   1   2   -0.89    0.92
   2  -1  -2   54.49    3.58
   2  -1  -2   52.92    3.55
   2  -1  -2   45.21    4.06
  -2   1   2   56.96    3.86
  -2   1   2   53.69    3.63
   2  -1  -1  543.21    9.61
   2  -1  -1  526.10    9.63
  -2   1   1  506.44    8.38
   2  -1  -1  553.16    9.89
   2  -1  -1  500.31    8.02
  -2   1   1  551.58    9.67
   2  -1  -1  492.16    7.92
   2  -1  -1  555.94    8.21
  -2   1   1  513.62    7.34
   2  -1   0 1795.97   12.21
   2  -1   0 1822.05   17.16
   2  -1   0 1768.19    9.16
   2  -1   0 1728.46   15.82
  -2   1   0 1836.61   11.99
  -2   1   0 1797.22    8.74
  -2   1   0 1835.75   15.20
   2  -1   1   48.31    2.29
   2  -1   1   48.41    1.85
   2  -1   1   50.22    2.72
   2  -1   1   49.40    2.10
  -2   1  -1   49.61    1.89
   2  -1   1   46.13    2.28
  -2   1  -1   50.00    1.92
  -2   1  -1   52.13    3.17
   2  -1   2 1183.91   13.86
   2  -1   2 1166.11   15.72
   2  -1   2 1166.49   14.54
  -2   1  -2 1135.80   46.45
   2  -1   3    0.30    0.69
   2  -1   3   -0.25    0.84
   2  -1   3   -0.48    0.61
  -2   1  -4    0.59    1.19
  -2   1  -5   19.74    6.23
   2   0  -5    0.82    2.68
   2   0  -5   -0.88    1.12
  -2   0   4    3.06    1.51
   2   0  -4    1.85    0.99
   2   0  -4    0.55    1.37
   2   0  -4    1.87    1.60
  -2   0   4    0.58    1.10
  -2   0   4    1.05    1.40
  -2   0   3    9.10    2.17
  -2   0   3    5.91    2.02
   2   0  -2   63.71    3.33
   2   0  -2   64.84    3.35
   2   0  -2   57.87    3.68
  -2   0   2   62.14    4.03
  -2   0   2   67.31    4.34
   2   0  -1 4096.48   22.11
   2   0  -1 4011.87   20.87
  -2   0   1 4041.70   25.68
  -2   0   1 4088.24   21.93
   2   0  -1 3988.59   21.25
   2   0   0   70.22    2.69
   2   0   0   65.77    1.77
   2   0   0   64.67    1.95
  -2   0   0   72.48    4.12
  -2   0   0   74.03    2.24
   2   0   0   68.51    1.91
  -2   0   0   72.36    2.25
   2   0   0   65.52    1.79
  -2   0   0   68.77    2.35
  -2   0   0   64.15    3.25
   2   0   0   68.73    1.84
  -2   0   0   66.98    1.71
   2   0   1  306.37    5.56
   2   0   1  303.83    5.72
   2   0   1  296.18    5.29
   2   0   1  309.70    5.81
  -2   0  -1  326.72    5.71
  -2   0  -1  324.91    5.71
  -2   0  -1  329.95   13.99
   2   0   2   19.95    2.15
   2   0   2   20.49    2.11
  -2   0  -2   19.75    1.79
  -2   0  -2   19.33    1.79
   2   0   2   20.74    2.15
   2   0   3   32.55    3.45
   2   0   3   35.10    3.43
   2   0   3   32.57    3.35
   2   0   3   32.06    3.35
  -2   0  -4    1.65    4.57
  -2   0  -5    8.18    4.63
   2   1  -5    4.29    1.79
   2   1  -4   23.15    4.21
   2   1  -4   23.54    4.02
  -2  -1   3   95.90    6.68
  -2  -1   3   85.98    6.06
   2   1  -2  561.46   13.51
  -2  -1   2  561.10   13.66
   2   1  -2  536.16   10.91
   2   1  -1 4147.10   57.27
   2   1  -1 4970.33   36.12
  -2  -1   1 4954.26   32.75
  -2  -1   1 4976.52   25.12
  -2  -1   1 4429.91   25.45
   2   1   0   70.75    1.93
   2   1   0   63.39    2.05
   2   1   0   69.29    1.53
   2   1   0   64.76    1.96
  -2  -1   0   66.51    2.33
  -2  -1   0   67.31    2.39
   2   1   0   67.87    1.89
  -2  -1   0   69.98    1.76
   2   1   0   61.44    2.72
  -2  -1   0   67.44    3.39
   2   1   1   46.58    2.47
   2   1   1   44.89    2.23
  -2  -1  -1   44.66    5.92
  -2  -1  -1   47.14    2.60
   2   1   1   45.96    2.46
   2   1   1   46.24    1.97
  -2  -1  -1   48.23    2.64
  -2  -1  -1   43.31    1.26
  -2  -1  -1   43.27    4.23
   2   1   2  282.91    8.08
   2   1   2  276.21    7.77
   2   1   2  278.61    8.06
  -2  -1  -2  268.69    7.64
  -2  -1  -2  267.68    7.61
   2   1   3   66.96    5.11
   2   1   3   74.85    5.29
  -2  -1  -3   70.56    4.52
   2   1   3   69.72    4.62
  -2  -1  -3   71.45    4.54
   2   1   3   69.75    5.17
   2   1   4    1.97    1.04
   2   1   4   -1.02    0.88
   2   1   4    1.86    1.29
  -2  -1  -4   -3.91    8.20
  -2  -1  -5   45.45   10.23
   2   1   5  105.43    5.36
   2   2  -5    7.43    3.42
   2   2  -5    1.62    1.16
   2   2  -4  133.09    9.70
   2   2  -4  149.32    8.68
   2   2  -3   22.28    7.12
   2   2  -3   36.82    4.83
   2   2  -3   36.90    4.06
  -2  -2   3   30.62    3.71
   2   2  -2   27.02    3.45
  -2  -2   2   24.61    3.27
  -2  -2   2   25.67    2.69
   2   2  -2   24.42    2.42
   2   2  -2   30.83    4.35
  -2  -2   2   20.95    2.82
   2   2  -1    9.52    1.63
  -2  -2   1    9.29    0.88
  -2  -2   1   11.03    0.78
  -2  -2   1   10.62    0.77
   2   2  -1   10.97    2.21
   2   2  -1   10.95    1.30
  -2  -2   1    8.30    1.63
  -2  -2   1   12.25    1.35
   2   2   0  117.94    3.37
   2   2   0  135.68    2.76
  -2  -2   0  127.95    3.77
  -2  -2   0  127.88    3.76
  -2  -2   0  130.67    4.06
   2   2   0  111.12    2.92
  -2  -2   0  120.62    1.99
  -2  -2   0  126.74    6.02
   2   2   1  139.08    4.62
   2   2   1  135.45    3.73
  -2  -2  -1  123.92   10.04
  -2  -2  -1  130.94    6.18
  -2  -2  -1  145.03    5.15
   2   2   1  141.49    4.47
  -2  -2  -1  140.78    5.10
   2   2   1  144.27    3.01
  -2  -2  -1  141.83    7.81
   2   2   2  511.93   11.61
   2   2   2  511.61   10.59
  -2  -2  -2  510.96   26.88
   2   2   2  542.17   11.75
  -2  -2  -2  499.66   11.66
  -2  -2  -2  504.92   11.79
   2   2   2  511.08    8.99
   2   2   3    2.94    1.26
   2   2   3    3.49    1.41
   2   2   3    4.13    1.39
   2   2   3    3.20    1.05
  -2  -2  -3    3.60    1.31
  -2  -2  -3    3.68    1.24
   2   2   4  161.76    9.79
  -2  -2  -4  130.39    8.46
   2   2   5   14.60    1.79
   2   2   5   12.64    2.07
   2   3  -5    7.97    1.66
   2   3  -5    4.47    2.53
   2   3  -4    8.14    5.08
   2   3  -4   17.70    3.81
   2   3  -4   23.93    3.71
   2   3  -4    5.75    5.36
   2   3  -3    0.34    2.87
   2   3  -3   -0.14    1.49
   2   3  -3    0.68    1.36
   2   3  -3    1.38    3.02
  -2  -3   3    1.67    1.21
   2   3  -2  117.12    7.54
   2   3  -2  105.41    8.70
  -2  -3   2  100.59    7.01
  -2  -3   2  100.43    5.27
  -2  -3   2  103.20    7.28
   2   3  -1    3.39    1.17
  -2  -3   1    4.93    3.28
  -2  -3   1    3.98    0.71
  -2  -3   1    4.66    0.87
   2   3  -1    4.40    0.99
  -2  -3   1    4.07    1.56
   2   3  -1    3.90    1.64
   2   3   0    0.59    0.46
  -2  -3   0    2.03    2.46
   2   3   0   -0.58    1.71
  -2  -3   0    0.73    0.53
  -2  -3   0    0.83    0.57
   2   3   0    0.82    0.48
  -2  -3   0    1.00    0.69
  -2  -3   0    1.08    1.54
   2   3   1   30.77    2.38
   2   3   1   33.55    1.79
  -2  -3  -1   31.17    6.17
  -2  -3  -1   28.70    3.32
  -2  -3  -1   30.63    2.75
   2   3   1   32.72    1.28
  -2  -3  -1   33.08    2.88
   2   3   1   30.21    2.26
  -2  -3  -1   29.48    4.28
   2   3   2   79.85    4.90
   2   3   2   73.32    3.99
  -2  -3  -2   75.64    5.45
  -2  -3  -2   77.04   11.57
  -2  -3  -2   76.34    5.05
  -2  -3  -2   76.52    5.09
   2   3   2   77.01    3.17
   2   3   2   77.50    4.69
  -2  -3  -2   77.08    8.61
   2   3   3  206.80    9.64
   2   3   3  205.78    8.58
   2   3   3  195.56   10.34
  -2  -3  -3  181.08   12.42
  -2  -3  -3  119.84    8.07
  -2  -3  -3  137.42   11.54
  -2  -3  -3  200.99    9.71
  -2  -3  -3  199.32    9.57
   2   3   3  200.61    9.46
  -2  -3  -3  186.47   15.30
  -2  -3  -3  179.23   16.59
  -2  -3  -3  179.88   14.18
   2   3   3  175.27    8.64
   2   3   4    0.96    1.26
  -2  -3  -4    0.29    1.10
   2   3   4    1.66    1.46
  -2  -3  -4    1.51    2.37
   2   3   5    2.01    0.74
   2   3   5    1.75    1.08
   2   3   5    2.82    1.11
   2   4  -4    1.31    1.60
   2   4  -4   -0.19    1.63
  -2  -4   3   55.60   13.04
   2   4  -3   66.57   11.48
   2   4  -3   70.81    7.26
   2   4  -3   77.75    5.95
   2   4  -3   52.02   12.08
   2   4  -2   29.63    9.12
  -2  -4   2   34.26    8.95
   2   4  -2   46.57    5.21
  -2  -4   2   35.10    4.79
  -2  -4   2   37.52    5.12
   2   4  -2   40.31    5.95
  -2  -4   1    3.79    3.24
   2   4  -1    7.29    1.79
  -2  -4   1    5.86    1.99
   2   4  -1    7.10    2.32
  -2  -4   0   17.66    4.93
  -2  -4   0   11.27    1.48
  -2  -4   0   12.47    1.97
  -2  -4   0   11.82    1.54
  -2  -4   0   15.24    3.25
   2   4   0   10.05    2.39
   2   4   0   12.81    1.54
   2   4   1  147.61    5.57
  -2  -4  -1  145.27    6.47
   2   4   1  159.26    5.08
  -2  -4  -1  148.35    6.51
  -2  -4  -1  151.38    8.22
  -2  -4  -1  169.47   11.03
   2   4   2   20.95    2.76
  -2  -4  -2   11.41    2.92
   2   4   2   23.02    2.17
  -2  -4  -2    9.66    5.71
   2   4   2   23.09    2.74
  -2  -4  -2   22.43    3.06
  -2  -4  -2   21.46    3.01
  -2  -4  -2   22.60    5.27
   2   4   3   25.59    2.96
   2   4   3   23.39    3.47
   2   4   3   21.67    3.63
   2   4   3   17.29    2.73
  -2  -4  -3   22.51    4.99
  -2  -4  -3   18.45    3.26
  -2  -4  -3   19.39    6.45
  -2  -4  -3   22.44    3.51
   2   4   3   18.34    3.01
   2   4   3   26.02    3.50
  -2  -4  -3   24.32    4.81
  -2  -4  -3   22.54    3.55
  -2  -4  -3   27.66    6.83
  -2  -4  -3   20.02    5.92
  -2  -4  -3   20.17    4.95
   2   4   3   19.31    3.05
   2   4   4    6.55    1.62
   2   4   4    6.24    2.01
   2   4   4    5.83    2.01
   2   4   4    5.74    1.77
   2   4   4    8.48    2.29
  -2  -4  -4    9.55    4.15
   2   4   4    4.49    1.43
  -2  -4  -4    2.69    2.57
   2   4   5    4.25    1.20
   2   4   5    3.28    1.16
   2   4   5    3.03    1.09
   2   4   5    3.55    1.08
   2   5  -4   87.24    5.11
   2   5  -4  104.93    6.53
   2   5  -3   -0.11    3.89
   2   5  -3    1.90    1.89
   2   5  -3   -2.61    3.44
   2   5  -3    0.24    1.40
   2   5  -3    2.26    4.64
   2   5  -2  644.37   37.60
  -2  -5   2  642.31   34.28
   2   5  -2  598.58   15.70
   2   5  -2  653.87   20.04
   2   5  -2  567.35   38.63
   2   5  -2  704.02   21.68
   2   5  -2  625.77   25.16
  -2  -5   2  574.60   20.63
  -2  -5   1    7.52    3.79
   2   5  -1    9.45    2.17
   2   5  -1    6.88    2.62
  -2  -5   1    9.45    2.84
  -2  -5   0   21.88    6.13
  -2  -5   0   13.89    2.36
  -2  -5   0   13.46    1.75
  -2  -5   0   13.49    1.75
   2   5   0   17.34    2.00
   2   5   0   14.25    3.28
  -2  -5   0   15.23    3.60
   2   5   1   38.51    3.06
  -2  -5  -1   48.95    9.22
  -2  -5  -1   37.60    3.60
  -2  -5  -1   36.19    3.50
  -2  -5  -1   37.99    4.62
  -2  -5  -1   47.69    6.72
   2   5   2  189.02    9.92
  -2  -5  -2  176.66   11.93
   2   5   2  170.27    7.82
   2   5   2  176.58    8.56
   2   5   2  168.58    9.35
   2   5   2  180.78    7.37
   2   5   2  188.44    8.31
  -2  -5  -2  194.98   21.06
  -2  -5  -2  165.08   11.36
  -2  -5  -2  174.71    8.95
  -2  -5  -2  277.26   21.55
   2   5   2  178.49    7.99
  -2  -5  -2  174.19    8.97
   2   5   2  197.84    7.72
  -2  -5  -2  189.33   15.66
  -2  -5  -2  264.15   17.89
  -2  -5  -2  190.56   13.43
   2   5   2  180.10    9.01
   2   5   3  222.50    9.95
   2   5   3  221.25   10.55
   2   5   3  185.60    8.45
   2   5   3  180.64    9.20
   2   5   3  202.68   11.26
  -2  -5  -3  180.36   13.60
  -2  -5  -3  203.62   10.78
  -2  -5  -3  159.43   12.44
   2   5   3  203.42    9.69
   2   5   3  198.94    9.49
  -2  -5  -3  249.86   22.76
  -2  -5  -3  210.95   10.91
  -2  -5  -3  207.81   16.58
  -2  -5  -3  254.92   19.71
  -2  -5  -3  197.37   19.27
   2   5   3  191.99   10.13
   2   5   4  122.18    7.20
   2   5   4  113.03    6.63
   2   5   4  116.63    8.22
   2   5   4  110.48    6.38
   2   5   4  109.37    6.97
  -2  -5  -4  105.25   12.05
  -2  -5  -4   89.44   11.21
   2   5   4  104.20    6.91
   2   5   5    0.76    0.59
   2   5   5    1.52    0.68
   2   5   5    1.80    0.84
   2   5   5    2.29    0.85
   2   6  -3   -1.48    1.80
   2   6  -3   -0.60    2.94
   2   6  -3   -0.42    1.27
   2   6  -2   29.04    9.22
   2   6  -2   23.43    8.94
   2   6  -2   30.84    4.09
   2   6  -2   38.07    4.92
   2   6  -1    1.43    0.96
   2   6  -1   -0.82    3.28
   2   6  -1    0.18    2.02
   2   6  -1    0.10    4.37
  -2  -6   1    0.94    1.50
   2   6  -1    1.69    1.01
   2   6  -1    2.79    1.80
  -2  -6   1    1.07    1.90
   2   6   0   14.88    5.75
  -2  -6   0   12.41    5.03
   2   6   0    3.42    3.61
   2   6   0   15.42    3.20
  -2  -6   0   17.32    4.53
   2   6   0   10.39    3.13
  -2  -6   0   15.70    4.12
   2   6   1  642.97   18.81
   2   6   1  583.93   15.70
  -2  -6  -1  686.55   27.52
  -2  -6  -1  552.32   14.69
  -2  -6  -1  576.13   19.55
  -2  -6  -1  565.49   14.87
   2   6   1  623.17   17.41
  -2  -6  -1  660.00   27.50
   2   6   2  143.85    9.32
   2   6   2  135.28    7.05
   2   6   2  146.05    6.74
   2   6   2  127.60    7.89
  -2  -6  -2  133.54   18.98
  -2  -6  -2  139.04   10.73
  -2  -6  -2  138.73    8.45
  -2  -6  -2  147.31    8.78
   2   6   2  137.23    7.27
  -2  -6  -2  231.47   21.21
   2   6   2  135.69    8.53
  -2  -6  -2  137.95   12.10
  -2  -6  -2  159.24   15.51
  -2  -6  -2  209.18   17.13
   2   6   3  237.43   10.05
   2   6   3  233.96   12.18
   2   6   3  233.32   10.74
   2   6   3  240.67    9.17
  -2  -6  -3  197.88   13.97
   2   6   3  228.61   10.02
  -2  -6  -3  293.64   24.96
  -2  -6  -3  297.19   21.75
   2   6   3  235.48   11.42
  -2  -6  -3  230.06   17.36
   2   6   4    5.40    1.42
   2   6   4    4.02    1.63
   2   6   4    6.04    1.51
   2   6   4    4.23    1.45
   2   6   4    6.30    1.72
  -2  -6  -4    5.20    2.54
  -2  -6  -4    1.49    2.04
   2   6   4    5.24    1.67
   2   6   5    1.85    0.55
   2   6   5    1.62    0.56
   2   7  -2    2.23    1.32
   2   7  -2    1.75    4.79
   2   7  -1   26.05    8.77
   2   7  -1   22.21    3.41
   2   7   0   55.28    8.42
   2   7   0   88.73    6.14
   2   7   0   88.00   14.14
  -2  -7   0   91.93   10.82
   2   7   0   74.20    5.95
   2   7   0   74.17    8.90
  -2  -7   0   96.45   10.91
  -2  -7  -1   68.39    9.41
   2   7   1   73.17    7.04
   2   7   1   67.06    6.27
  -2  -7  -1   75.55   10.16
   2   7   1   62.10    7.88
   2   7   2   10.75    2.53
   2   7   2    8.60    2.69
  -2  -7  -2   13.93    3.63
  -2  -7  -2   16.24    6.78
   2   7   2   12.43    2.25
   2   7   2    9.72    2.59
  -2  -7  -2   13.68    4.90
  -2  -7  -2   11.19    3.79
   2   7   3    3.78    1.85
   2   7   3    2.36    1.36
   2   7   3    0.36    0.74
   2   7   3    2.32    1.03
  -2  -7  -3   -0.49    1.73
  -2  -7  -3    3.71    3.98
   2   7   3   -0.20    0.73
  -2  -7  -3    0.80    2.32
   2   7   3    2.97    1.44
  -2  -7  -3   -0.88    2.25
   2   7   4    0.24    0.56
   2   7   4    1.76    0.71
   2   7   4    1.28    0.91
   2   7   4    2.70    1.00
  -2  -7  -4    0.57    1.87
  -2  -7  -4    0.47    1.29
   2   7   4    1.60    0.98
   2   8  -2   90.98   12.40
   2   8  -1   21.69    7.03
   2   8  -1    9.19    3.41
   2   8   0  147.31   17.36
   2   8   0   -0.34    2.21
   2   8   1   19.81    5.33
   2   8   1   12.95    3.26
  -2  -8  -1   18.43    4.96
   2   8   2   -0.25    1.14
  -2  -8  -2    0.18    2.53
  -2  -8  -2    2.31    2.23
   2   8   2   -0.32    0.97
  -2  -8  -2   -0.23    1.26
   2   8   3    1.86    1.20
   2   8   3    2.49    0.86
  -2  -8  -3    3.69    2.93
  -2  -8  -3    3.17    1.84
   2   8   3    2.83    1.34
  -2  -8  -3    4.02    2.76
   2   8   4    3.11    1.02
   2   9  -1    1.41    1.73
   2   9   0    7.17    2.92
  -2  -9   0   25.59    4.16
  -2  -9  -1   26.63    6.43
  -2  -9  -1   18.72    4.36
  -2  -9  -2   32.56    6.61
  -2  -9  -2   36.34    6.01
  -2  -9  -3   62.63    6.23
  -2 -10   0   17.90    3.21
   2  10   0   14.53    2.68
  -2 -10  -1    7.65    1.88
   2  10   1    6.33    1.85
  -2 -10  -1    8.91    2.77
   3 -10  -2   60.39    5.22
  -3  10   1   -0.24    1.07
   3 -10  -1   -0.95    1.56
   3 -10  -1    2.55    1.40
  -3  10   0    0.19    0.88
   3 -10   0    2.07    1.21
   3  -9  -3    1.77    1.06
   3  -9  -3   -0.43    1.19
   3  -9  -3    2.45    1.47
   3  -9  -2   10.94    2.43
   3  -9  -2   11.49    3.48
   3  -9  -2   18.22    4.44
   3  -9  -2   12.11    3.22
  -3   9   1   19.84    5.19
   3  -9  -1    7.32    2.60
  -3   9   0    5.27    2.13
  -3   9   0   45.23    7.70
  -3   9  -1    0.92    1.34
  -3   9  -1    1.19    2.29
  -3   9  -2   14.55    3.36
   3  -8  -4    7.87    1.94
  -3   8   4   10.29    1.61
  -3   8   4    5.41    1.24
   3  -8  -4    8.58    2.38
  -3   8   4   10.60    1.72
  -3   8   3   11.10    2.23
  -3   8   3    8.96    2.19
   3  -8  -3    7.80    2.66
   3  -8  -3    6.75    2.36
  -3   8   3   10.09    2.22
   3  -8  -3    7.29    3.07
   3  -8  -3   15.26    4.10
  -3   8   2    0.23    0.80
  -3   8   2   -2.48    1.25
   3  -8  -2    0.76    1.58
  -3   8   2    3.40    2.64
   3  -8  -2    0.47    1.40
   3  -8  -2    3.16    2.17
  -3   8   2   -0.32    0.86
   3  -8  -1   83.01    7.80
   3  -8  -1   98.35    9.68
  -3   8   0   -8.55    5.37
  -3   8   0  156.71   14.68
  -3   8  -1   35.31    9.13
  -3   8  -1   28.97    5.90
  -3   8  -2    2.65    3.01
  -3   7   4    2.75    1.30
  -3   7   4    2.28    0.87
  -3   7   4    2.21    1.25
   3  -7  -4    2.74    1.86
   3  -7  -4    3.84    2.26
  -3   7   4    2.92    1.30
   3  -7  -4    1.73    1.87
  -3   7   3    2.56    1.81
  -3   7   3    3.69    1.80
  -3   7   3    0.73    1.48
   3  -7  -3    0.51    2.10
   3  -7  -3    2.02    2.42
   3  -7  -3    2.84    1.80
   3  -7  -3    1.87    2.57
  -3   7   3    3.16    1.80
   3  -7  -3    4.14    2.25
  -3   7   2  419.37   14.77
  -3   7   2  431.61   18.33
  -3   7   2  401.29   14.74
   3  -7  -2  457.72   20.78
   3  -7  -2  448.31   20.88
  -3   7   2  429.24   15.19
   3  -7  -2  415.51   17.19
   3  -7  -1   12.37    4.16
  -3   7   1    7.46    2.68
  -3   7   1    5.98    3.06
   3  -7  -1    8.03    2.73
   3  -7  -1   11.96    3.32
   3  -7  -1   12.96    3.45
   3  -7  -1    7.13    2.89
   3  -7   0   39.02    6.46
  -3   7   0   36.79   10.31
   3  -7   0   40.61    5.76
   3  -7   0   42.64    7.40
  -3   7   0   41.77    7.34
  -3   7  -1    6.13    4.42
  -3   7  -1    9.53    5.39
  -3   7  -2    7.25    5.97
  -3   7  -2    8.12    6.10
  -3   7  -3   40.57    7.58
  -3   7  -3   30.92    7.55
  -3   6   5   16.22    2.14
  -3   6   5   16.17    1.94
  -3   6   4    6.05    2.32
  -3   6   4    5.53    1.87
  -3   6   4    6.23    1.98
   3  -6  -4    5.38    2.72
   3  -6  -4    4.72    1.76
   3  -6  -4    4.58    3.07
  -3   6   4    3.60    1.32
   3  -6  -4    3.11    2.64
  -3   6   4    6.06    2.00
  -3   6   3   33.21    4.54
  -3   6   3   29.37    4.51
  -3   6   3   32.19    4.96
   3  -6  -3   31.21    4.29
   3  -6  -3   28.54    5.76
  -3   6   3   29.62    4.33
  -3   6   3   30.46    3.63
   3  -6  -3   35.78    6.67
  -3   6   3   31.65    4.58
   3  -6  -3   33.58    5.65
   3  -6  -3   34.92    7.00
   3  -6  -3   44.51    7.85
  -3   6   2   86.57    6.76
  -3   6   2   87.18    7.94
  -3   6   2   89.61    7.07
   3  -6  -2   81.92    8.56
   3  -6  -2  103.67    9.87
   3  -6  -2   97.65    9.88
   3  -6  -2  105.91   10.22
   3  -6  -2   94.66    7.45
   3  -6  -2   88.46    7.17
  -3   6   2   87.09    7.38
   3  -6  -2  112.81   11.12
  -3   6   2   93.18    7.10
   3  -6  -2  103.98   11.28
   3  -6  -2   83.41    7.92
   3  -6  -1   61.10    7.77
  -3   6   1   51.26    4.51
  -3   6   1   49.89    5.68
  -3   6   1   55.54    7.87
   3  -6  -1   56.50    6.49
   3  -6  -1   56.66    4.98
   3  -6  -1   56.35    5.03
  -3   6   1   57.79    5.57
   3  -6  -1   63.45    7.07
   3  -6  -1   53.46    6.50
   3  -6  -1   60.43    8.08
   3  -6   0   40.19    6.26
  -3   6   0   41.68    9.80
   3  -6   0   39.54    5.37
   3  -6   0   37.13    6.40
   3  -6   1    2.34    1.52
  -3   6  -1    2.14    4.64
   3  -6   1    5.50    1.99
  -3   6  -1    2.83    1.98
   3  -6   1    4.03    2.82
  -3   6  -2   -0.81    5.27
  -3   6  -2   -0.61    5.56
  -3   6  -2   -1.77    3.99
  -3   6  -3  176.65   18.59
  -3   6  -3  143.14   19.67
  -3   5   5   75.33    4.22
  -3   5   5   81.99    5.71
  -3   5   5   82.02    4.64
  -3   5   5   84.51    5.20
  -3   5   4   54.09    5.44
  -3   5   4   57.61    6.61
  -3   5   4   31.93    3.33
  -3   5   4   43.85    5.01
   3  -5  -4   57.01    8.00
   3  -5  -4   53.65    5.74
  -3   5   4   50.58    5.19
   3  -5  -4   53.45    8.71
   3  -5  -4   51.10    7.14
   3  -5  -4   43.02    8.04
  -3   5   4   58.28    6.08
  -3   5   3  132.49    8.83
  -3   5   3  127.78    9.41
  -3   5   3  131.77    9.72
  -3   5   3  142.56    9.18
   3  -5  -3  142.68   12.29
   3  -5  -3  139.32    9.14
   3  -5  -3  141.69    9.70
  -3   5   3  124.19    8.56
   3  -5  -3  137.17   12.38
   3  -5  -3  140.46    9.70
   3  -5  -3  136.95   12.92
  -3   5   3  137.43    8.95
   3  -5  -3  125.32   10.74
   3  -5  -3  142.76   13.30
  -3   5   3  133.26    9.26
  -3   5   2   -1.14    1.07
   3  -5  -2   -2.94    1.68
  -3   5   2    0.03    0.91
  -3   5   2    2.10    1.27
  -3   5   2   -0.15    1.07
   3  -5  -2    1.32    1.73
  -3   5   2    0.61    2.17
  -3   5   2   -0.72    1.79
   3  -5  -2    0.81    1.60
  -3   5   2   -1.86    1.08
   3  -5  -2   -0.99    1.71
   3  -5  -2    0.81    0.93
   3  -5  -2   -0.03    0.72
  -3   5   2    1.00    0.93
   3  -5  -2    0.53    1.91
   3  -5  -2    0.68    1.54
   3  -5  -1   -0.43    1.64
   3  -5  -1   -0.20    0.83
   3  -5  -1   -0.02    0.87
   3  -5  -1    0.40    1.26
   3  -5  -1    0.83    0.92
   3  -5  -1    0.87    1.56
   3  -5   0   21.61    4.16
   3  -5   0   23.81    2.70
   3  -5   0   27.02    2.70
   3  -5   0   24.37    3.83
   3  -5   0   22.48    2.48
   3  -5   0   24.03    4.65
   3  -5   1    1.26    1.27
   3  -5   1    0.58    0.61
  -3   5  -1   -3.72    2.77
   3  -5   1    1.64    1.36
   3  -5   1   -0.09    2.04
  -3   5  -1   -0.47    1.84
  -3   5  -2  102.08    6.92
  -3   5  -2  132.39   18.63
  -3   5  -2  108.55   18.35
  -3   5  -2   57.61   12.35
  -3   5  -2  176.42   13.59
   3  -5   2  129.80   12.16
  -3   5  -3  434.69   30.75
  -3   5  -3  356.74   33.20
  -3   5  -4   -1.26    3.09
  -3   5  -4    2.32    3.15
  -3   4   5   46.97    3.57
  -3   4   5   58.66    5.48
   3  -4  -5   55.62    4.82
  -3   4   5   55.66    4.56
  -3   4   5   55.17    4.63
  -3   4   4  109.96    9.39
  -3   4   4  103.85    7.66
   3  -4  -4  102.35   10.32
   3  -4  -4   99.84    8.18
   3  -4  -4   88.99   11.18
   3  -4  -4   99.00   11.35
  -3   4   4  110.55    8.66
   3  -4  -4   93.00    9.79
  -3   4   3    7.95    2.17
  -3   4   3   10.61    2.64
  -3   4   3    6.51    2.36
  -3   4   3    6.33    1.92
  -3   4   3    6.25    1.87
   3  -4  -3    4.91    1.84
   3  -4  -3    6.20    2.31
   3  -4  -3    7.43    2.27
  -3   4   3    8.62    2.49
   3  -4  -3    8.43    2.43
   3  -4  -3    4.38    2.16
   3  -4  -3   10.49    3.96
  -3   4   3    7.31    2.02
  -3   4   3    8.55    2.54
   3  -4  -3    9.17    3.31
   3  -4  -3    5.05    2.85
   3  -4  -3    4.55    1.69
   3  -4  -2   94.94    7.19
  -3   4   2  129.01    7.38
   3  -4  -2  124.19    7.42
   3  -4  -2  122.64    9.30
   3  -4  -2  121.29    7.43
   3  -4  -2  130.57    9.67
  -3   4   1    0.66    0.62
   3  -4  -1   -0.30    1.35
   3  -4  -1    0.07    0.82
   3  -4  -1    0.56    0.76
   3  -4  -1    0.45    1.07
   3  -4  -1   -0.03    0.68
   3  -4  -1   -0.13    1.12
   3  -4   0 3013.03   26.69
   3  -4   0 2955.38   41.07
   3  -4   0 3060.04   25.76
   3  -4   0 3049.35   25.51
   3  -4   0 3006.84   37.11
   3  -4   0 2917.71   43.62
   3  -4   1    9.27    2.50
  -3   4  -1    7.47    1.54
   3  -4   1    9.78    1.73
  -3   4  -1    1.62    1.69
   3  -4   1    8.54    2.16
   3  -4   1   11.00    1.22
  -3   4  -1   11.04    2.92
   3  -4   2   89.14    5.74
  -3   4  -2  101.10    6.26
  -3   4  -2   93.07   14.47
  -3   4  -2   83.50   15.36
   3  -4   2  119.61    5.07
   3  -4   2   93.05    7.49
  -3   4  -3   28.37    9.69
  -3   4  -3   39.13    4.35
  -3   4  -4   -0.71    3.57
  -3   4  -4    2.44    3.81
   3  -3  -5    1.07    1.13
  -3   3   5    0.09    1.03
  -3   3   5   -1.06    1.14
  -3   3   4    7.47    2.09
   3  -3  -4    5.36    2.92
   3  -3  -4    3.84    2.48
   3  -3  -4    2.44    2.71
   3  -3  -4    4.66    3.15
  -3   3   4    3.96    1.90
   3  -3  -4    3.31    2.58
  -3   3   3  129.67    8.03
  -3   3   3  162.95   10.18
   3  -3  -3  150.47    9.14
   3  -3  -3  155.59    8.97
   3  -3  -3  132.47   11.83
   3  -3  -3  150.20    8.85
   3  -3  -3  108.49    8.37
  -3   3   3  133.95    6.50
   3  -3  -3  127.13   10.32
  -3   3   2    5.67    1.80
   3  -3  -2    4.20    1.50
   3  -3  -2    4.40    1.47
   3  -3  -2    4.54    1.51
   3  -3  -2    6.43    2.01
  -3   3   2    5.60    1.16
  -3   3   2    5.08    1.84
   3  -3  -2    1.40    1.26
   3  -3  -1  109.98    6.78
   3  -3  -1  119.22    5.70
   3  -3  -1  111.09    5.28
   3  -3  -1  122.20    7.00
  -3   3   1  112.10    6.75
  -3   3   1  111.75    3.16
   3  -3  -1  122.81    7.36
   3  -3   0   12.78    1.65
  -3   3   0   14.82    0.89
  -3   3   0   12.89    0.97
   3  -3   0   13.41    2.61
   3  -3   0   12.34    1.47
   3  -3   0   11.77    2.38
   3  -3   0   11.76    1.03
   3  -3   1  491.14   14.33
  -3   3  -1  494.63    9.73
   3  -3   1  504.91    6.64
   3  -3   1  564.76   11.40
   3  -3   1  453.77   13.73
   3  -3   1  522.59    8.02
  -3   3  -1  518.56   15.70
   3  -3   2    3.72    1.48
   3  -3   2    4.68    0.99
   3  -3   2    4.79    1.17
  -3   3  -2    6.84    2.46
   3  -3   3    5.16    1.72
   3  -3   3    7.46    1.60
  -3   3  -3    7.61    2.18
  -3   3  -3    2.92    4.52
  -3   3  -3   10.76    2.51
  -3   3  -3    5.49    5.02
  -3   3  -4    5.79    5.91
  -3   3  -4    0.22    1.48
  -3   3  -4   -2.92    3.56
  -3   3  -5   34.50    6.25
   3  -2  -5  100.24    6.84
  -3   2   5   87.64    7.32
  -3   2   5   80.52    5.80
  -3   2   4   18.34    3.13
   3  -2  -4   17.82    3.69
   3  -2  -4    7.53    3.33
  -3   2   3  114.92    8.49
   3  -2  -3  104.43    6.76
   3  -2  -3  100.00    6.70
  -3   2   3   88.52    5.79
   3  -2  -2   71.14    4.59
  -3   2   2  119.13    7.82
  -3   2   2   -0.83    1.54
   3  -2  -2    0.31    4.12
   3  -2  -2   76.15    5.88
   3  -2  -2   74.49    4.90
   3  -2  -2   76.45    4.97
  -3   2   2   71.99    3.92
  -3   2   2   69.66    5.07
   3  -2  -2   61.13    4.54
   3  -2  -1   14.32    2.27
   3  -2  -1   14.55    2.06
   3  -2  -1   14.21    1.78
  -3   2   1   13.46    1.88
   3  -2  -1   15.97    2.36
  -3   2   1   15.20    1.35
   3  -2  -1   14.32    2.14
  -3   2   1   14.97    2.21
   3  -2   0  207.68    3.85
   3  -2   0  204.56    7.98
  -3   2   0  190.40    2.25
   3  -2   0  210.95    5.62
   3  -2   0  211.01    4.03
  -3   2   0  226.64    5.72
   3  -2   0  238.16    8.06
  -3   2   0  191.86    7.14
  -3   2   0  204.25    3.88
   3  -2   1    0.81    0.79
   3  -2   1    1.82    1.22
   3  -2   1    1.06    0.53
   3  -2   1    2.30    0.57
   3  -2   1    2.54    0.92
  -3   2  -1    1.73    0.53
  -3   2  -1    1.88    0.56
  -3   2  -1    0.29    1.06
   3  -2   2  166.12    5.68
   3  -2   2  169.98    4.97
   3  -2   2  163.19    5.99
   3  -2   3   59.92    5.77
   3  -2   3   68.99    4.52
  -3   2  -3   56.22    5.37
  -3   2  -3   75.97    5.32
  -3   2  -3   36.92   10.77
  -3   2  -3   52.85   12.30
   3  -2   3   69.43    4.77
  -3   2  -4   -0.80    1.61
  -3   2  -4    0.23    3.39
  -3   2  -4    1.54    5.35
   3  -1  -5   17.29    2.77
   3  -1  -5   10.88    2.42
  -3   1   5   13.37    2.35
  -3   1   4    4.87    1.93
   3  -1  -4    5.10    3.59
   3  -1  -4   -0.39    1.32
  -3   1   4    5.14    1.92
  -3   1   4    2.52    1.36
  -3   1   3    5.29    2.03
   3  -1  -3    0.32    4.80
   3  -1  -3    4.23    1.34
   3  -1  -3    3.17    1.20
  -3   1   3    1.39    1.48
   3  -1  -2   14.32    1.88
  -3   1   2    0.17    1.01
   3  -1  -2   -0.58    3.93
   3  -1  -2   11.62    2.15
   3  -1  -2   14.15    1.95
   3  -1  -2   11.69    1.86
  -3   1   2   13.30    2.21
  -3   1   2   13.02    1.98
   3  -1  -1  100.65    4.72
   3  -1  -1   98.03    4.55
   3  -1  -1   91.85    3.82
  -3   1   1   97.76    4.11
   3  -1  -1  102.95    4.60
   3  -1  -1   95.89    3.82
   3  -1  -1  104.41    3.14
  -3   1   1  102.95    4.79
  -3   1   1   96.54    3.38
   3  -1   0  309.40    7.92
   3  -1   0  305.96    4.62
   3  -1   0  312.54    4.68
   3  -1   0  326.60    5.01
  -3   1   0  315.09    5.94
  -3   1   0  318.21    5.99
  -3   1   0  311.60    7.10
   3  -1   0  313.88    4.37
  -3   1   0  309.14    4.48
   3  -1   1   46.58    1.91
   3  -1   1   47.55    2.29
   3  -1   1   52.56    3.09
  -3   1  -1   94.37   11.03
  -3   1  -1    0.76    3.21
   3  -1   1   45.32    2.16
   3  -1   1   48.29    2.33
  -3   1  -1   47.16    2.25
  -3   1  -1   49.18    2.31
  -3   1  -1   50.73    3.05
   3  -1   2  784.50   11.14
   3  -1   2  791.54   12.84
   3  -1   2  815.74   12.98
  -3   1  -2  725.21    9.61
   3  -1   2  797.14   12.11
  -3   1  -2  741.41    9.57
  -3   1  -2  684.40   37.61
   3  -1   3    7.68    1.64
   3  -1   3    9.53    1.71
   3  -1   3    9.26    1.91
  -3   1  -5    2.53    3.29
   3   0  -5    3.68    1.72
   3   0  -5    3.31    2.98
   3   0  -4    6.55    2.59
   3   0  -4   -0.46    2.48
   3   0  -4    4.09    2.32
   3   0  -4    4.00    1.99
  -3   0   3   18.61    3.60
  -3   0   3    9.24    2.07
   3   0  -2   25.78    2.89
   3   0  -2   33.10    2.57
   3   0  -2   26.92    2.74
  -3   0   2   31.42    3.31
  -3   0   2   24.06    2.54
   3   0  -1    1.67    2.93
   3   0   0  756.06    8.04
   3   0   0  794.53   11.12
   3   0   0  755.10    7.37
  -3   0   0  777.07   16.62
  -3   0   0  771.91    8.89
   3   0   0  787.35    7.83
   3   0   0  736.64    7.32
  -3   0   0  774.54    8.95
  -3   0   0  754.58    9.64
   3   0   0  789.34    7.50
  -3   0   0  775.84    7.20
   3   0   1   14.55    1.36
   3   0   1   17.15    1.51
   3   0   1   19.15    1.61
   3   0   1   17.77    1.57
  -3   0  -1   16.60    1.54
  -3   0  -1   16.70    1.55
   3   0   1   20.42    1.60
  -3   0  -1   13.17    3.70
   3   0   2   35.03    2.70
   3   0   2   38.37    2.90
   3   0   2   33.46    2.72
  -3   0  -2   33.14    2.43
  -3   0  -2   33.07    2.43
   3   0   2   39.61    2.84
   3   0   3   69.94    4.91
   3   0   3   64.08    4.54
   3   0   3   69.45    4.65
   3   0   3   63.23    4.66
  -3   0  -4    5.39    6.41
  -3   0  -5   10.28    5.02
   3   1  -5    2.87    2.98
   3   1  -5    5.07    1.79
   3   1  -4   60.58    6.70
   3   1  -4   69.59    6.41
  -3  -1   3   25.04    3.97
  -3  -1   3   18.67    2.91
   3   1  -2   67.30    4.96
  -3  -1   2   70.15    5.22
  -3  -1   2   64.95    4.18
   3   1  -2   57.50    3.88
   3   1  -1 1715.68   16.63
  -3  -1   1 1613.00   13.54
  -3  -1   1 1637.92   13.48
   3   1  -1 1757.37   22.60
  -3  -1   1 1690.34   14.90
  -3  -1   1 1686.86   20.77
  -3  -1   1 1659.09   14.40
   3   1  -1 1743.53   15.96
   3   1   0   11.62    0.96
   3   1   0   11.36    0.99
  -3  -1   0   11.97    3.29
  -3  -1   0   11.81    1.21
   3   1   0   11.02    1.07
  -3  -1   0   12.14    1.23
   3   1   0   13.18    1.11
  -3  -1   0   11.30    0.92
   3   1   0   10.24    1.28
  -3  -1   0   11.51    1.71
   3   1   0   11.23    1.13
  -3  -1   0   11.09    1.45
   3   1   1   31.35    1.92
   3   1   1   32.12    2.13
  -3  -1  -1   31.05    5.51
  -3  -1  -1   33.55    2.37
   3   1   1   33.31    2.16
   3   1   1   33.20    1.73
  -3  -1  -1   31.70    2.31
  -3  -1  -1   32.37    1.39
  -3  -1  -1   27.07    3.88
   3   1   2   22.34    2.34
   3   1   2   23.64    2.39
   3   1   2   22.66    2.38
  -3  -1  -2   19.63    2.20
  -3  -1  -2   21.31    2.33
   3   1   2   20.39    1.98
  -3  -1  -2   19.73    4.45
   3   1   3   70.73    4.99
   3   1   3   68.33    4.94
  -3  -1  -3   67.49    4.52
   3   1   3   67.64    4.45
   3   1   3   68.80    5.07
  -3  -1  -3   65.10    4.46
  -3  -1  -5   -0.65    3.07
   3   1   5    0.76    0.54
   3   2  -5    3.78    2.12
   3   2  -5    0.34    1.02
   3   2  -4  229.17   10.83
   3   2  -4  204.53   12.10
   3   2  -3   12.29    4.79
   3   2  -3    8.54    2.39
   3   2  -3    8.09    2.48
  -3  -2   3    6.24    1.81
   3   2  -2   59.54    5.06
   3   2  -2   51.83    3.75
  -3  -2   2   54.01    3.79
  -3  -2   2   55.01    5.05
   3   2  -1  458.31    9.95
  -3  -2   1  478.06   21.39
  -3  -2   1  395.77    6.37
  -3  -2   1  401.11    6.42
  -3  -2   1  397.16   10.26
   3   2  -1  408.31   12.54
   3   2  -1  433.10    8.61
  -3  -2   1  394.46    7.35
   3   2   0  293.32    5.84
   3   2   0  287.76    4.92
  -3  -2   0  294.24   14.83
   3   2   0  288.50    4.92
   3   2   0  276.81    5.11
  -3  -2   0  291.70    6.23
  -3  -2   0  287.15    6.20
  -3  -2   0  295.34    4.11
   3   2   0  286.43    5.85
   3   2   1   76.79    3.59
   3   2   1   83.45    3.02
  -3  -2  -1   91.02    9.88
  -3  -2  -1   82.52    4.13
  -3  -2  -1   81.72    4.14
   3   2   1   86.60    2.61
   3   2   1   82.18    3.49
  -3  -2  -1   85.60    6.60
   3   2   2  263.07    8.34
   3   2   2  267.26    7.61
  -3  -2  -2  266.06    8.69
   3   2   2  256.38    8.19
   3   2   2  266.74    6.41
  -3  -2  -2  262.70    8.69
  -3  -2  -2  245.22   15.29
   3   2   3   41.72    4.12
   3   2   3   37.25    3.65
  -3  -2  -3   22.14    4.24
   3   2   3   39.55    3.30
   3   2   3   36.55    3.88
  -3  -2  -3   36.99    3.80
  -3  -2  -3   38.17    3.84
  -3  -2  -3   26.09    5.40
   3   2   4  708.69   19.04
   3   2   4  709.67   16.55
   3   2   4  714.15   18.08
   3   2   5    0.49    0.73
  -3  -2  -5    2.03    2.78
   3   2   5    0.50    0.68
   3   3  -5    0.43    0.92
   3   3  -4   66.12    6.88
   3   3  -4   70.00    5.78
   3   3  -3   12.74    3.10
   3   3  -3   18.00    3.35
   3   3  -3   11.69    6.40
   3   3  -3   17.34    3.97
  -3  -3   3   12.56    2.41
  -3  -3   2  337.77   23.92
   3   3  -2  352.26   13.42
   3   3  -2  311.89   15.07
  -3  -3   2  298.05    8.85
  -3  -3   2  287.87   12.57
  -3  -3   1    0.06    2.67
  -3  -3   1   -0.02    0.49
   3   3  -1    0.29    0.86
  -3  -3   1   -0.35    0.47
   3   3  -1   -0.21    0.63
   3   3  -1    0.94    1.33
  -3  -3   1    0.38    0.82
   3   3   0    8.79    1.04
  -3  -3   0    8.09    1.34
  -3  -3   0    7.69    1.20
  -3  -3   0    8.29    1.25
  -3  -3   0    8.58    0.59
   3   3   0    5.35    1.58
   3   3   0    6.81    1.13
  -3  -3   0    8.17    2.19
   3   3   1 2041.51   14.71
   3   3   1 2058.66   19.66
  -3  -3  -1 2068.56   22.42
  -3  -3  -1 2049.07   22.42
   3   3   1 2082.25   12.21
   3   3   1 2058.64   18.06
   3   3   2  290.79    9.25
   3   3   2  292.34    7.80
  -3  -3  -2  246.93   20.96
  -3  -3  -2  274.35    9.77
  -3  -3  -2  271.33    9.67
   3   3   2  290.68    9.01
   3   3   2  280.95    6.10
  -3  -3  -2  262.63   16.54
   3   3   3   16.74    2.73
   3   3   3   16.11    2.90
   3   3   3   17.77    2.52
  -3  -3  -3   15.04    4.04
  -3  -3  -3    6.46    1.89
   3   3   3   20.06    3.01
   3   3   3   15.19    2.59
  -3  -3  -3   26.69    6.84
  -3  -3  -3   18.55    2.98
  -3  -3  -3   13.37    3.65
  -3  -3  -3   19.33    3.05
   3   3   3   13.31    2.29
  -3  -3  -3   19.77    5.74
  -3  -3  -3   14.86    4.33
  -3  -3  -3   22.26    5.75
   3   3   4    0.91    0.81
   3   3   4    1.09    0.81
   3   3   4    0.03    0.98
  -3  -3  -4    0.45    1.92
  -3  -3  -4   -0.04    2.03
   3   3   5   25.18    2.73
   3   3   5   28.85    2.62
   3   3   5   26.77    2.68
   3   4  -4   48.81    5.51
   3   4  -4   46.14    4.36
   3   4  -3   76.77    7.62
   3   4  -3   91.18    6.49
   3   4  -3   78.73   12.83
   3   4  -2  119.48   15.20
  -3  -4   2  168.35   17.80
   3   4  -2  158.08    7.80
   3   4  -2  146.64    9.27
   3   4  -2  100.66   15.12
   3   4  -2  144.07    9.41
   3   4  -2  125.98   10.52
  -3  -4   2  111.85    8.64
   3   4  -1  226.16   12.10
  -3  -4   1  242.29   11.92
   3   4  -1  256.13    7.77
  -3  -4   0  111.66    4.75
  -3  -4   0  113.57    5.64
  -3  -4   0  113.41    4.80
  -3  -4   0  124.82    8.80
   3   4   0  107.31    7.37
   3   4   0  119.24    4.85
   3   4   1   44.36    3.15
  -3  -4  -1   45.89    8.90
  -3  -4  -1   41.80    3.55
   3   4   1   37.27    2.63
  -3  -4  -1   40.50    4.34
  -3  -4  -1   40.07    3.51
  -3  -4  -1   46.63    6.09
   3   4   2  287.56    7.47
   3   4   2  289.49    9.80
  -3  -4  -2  276.92   25.40
  -3  -4  -2  274.74   10.60
  -3  -4  -2  266.69   10.50
   3   4   2  280.66    9.24
  -3  -4  -2  289.82   18.46
   3   4   3  108.39    7.17
   3   4   3   96.37    6.36
   3   4   3  103.90    6.64
   3   4   3   98.73    7.52
   3   4   3   95.06    6.16
   3   4   3   97.63    5.54
  -3  -4  -3   84.26    9.09
  -3  -4  -3  100.30   14.32
   3   4   3  103.17    6.74
   3   4   3  103.75    6.76
  -3  -4  -3  105.10    7.43
  -3  -4  -3  104.04    7.43
  -3  -4  -3   70.90    8.28
  -3  -4  -3   82.62   10.24
  -3  -4  -3   89.83   12.99
   3   4   3   89.16    6.40
  -3  -4  -3  118.91   13.29
   3   4   4  121.65    7.20
   3   4   4  100.33    6.69
   3   4   4  100.45    7.40
  -3  -4  -4   73.62   11.46
   3   4   4  117.67    7.31
  -3  -4  -4   70.55    9.90
  -3  -4  -4   98.08   12.15
   3   4   4  108.64    6.64
   3   4   5    0.12    0.48
   3   4   5    0.58    0.69
   3   4   5    0.85    0.70
   3   5  -4   19.73    2.61
   3   5  -4   24.42    3.27
   3   5  -3   98.93    6.49
   3   5  -3  102.67    8.52
   3   5  -2   22.33    7.51
   3   5  -2   19.98    3.05
   3   5  -2   10.62    6.51
  -3  -5   2   22.68    6.79
   3   5  -2   26.52    4.39
   3   5  -2   13.35    7.08
   3   5  -2   21.67    4.03
   3   5  -2   20.63    4.66
  -3  -5   2   21.76    4.12
   3   5  -1   39.42    8.83
  -3  -5   1   38.29    8.36
   3   5  -1   30.25    8.02
   3   5  -1   42.42    4.55
   3   5  -1   33.53    5.36
  -3  -5   1   38.69    5.59
  -3  -5   0    5.32    1.10
  -3  -5   0    5.91    1.20
   3   5   0    7.19    1.47
  -3  -5   0    7.11    2.75
   3   5   0    5.35    2.15
   3   5   1    4.47    1.12
  -3  -5  -1    7.83    4.53
  -3  -5  -1    4.31    1.30
  -3  -5  -1    4.13    1.74
  -3  -5  -1    4.40    1.36
  -3  -5  -1    3.02    1.94
   3   5   2  181.99    7.61
   3   5   2  183.59    8.18
   3   5   2  163.81    8.20
   3   5   2  165.43    7.60
   3   5   2  170.13    9.40
  -3  -5  -2  142.63   10.56
  -3  -5  -2  171.57   21.18
  -3  -5  -2  170.91    8.93
   3   5   2  170.00    7.87
  -3  -5  -2  240.63   20.48
   3   5   2  168.20    7.22
  -3  -5  -2  170.07    8.85
  -3  -5  -2  240.35   17.40
   3   5   2  163.64    8.58
  -3  -5  -2  176.01   13.09
  -3  -5  -2  197.25   16.73
   3   5   3    4.09    1.56
   3   5   3    4.33    1.83
   3   5   3    3.71    1.37
   3   5   3    3.81    1.49
   3   5   3    7.38    2.09
  -3  -5  -3    6.27    2.96
  -3  -5  -3    8.04    2.47
  -3  -5  -3    8.65    2.45
   3   5   3    5.59    1.74
   3   5   3    5.68    1.80
  -3  -5  -3    5.96    4.80
  -3  -5  -3    5.92    3.60
  -3  -5  -3    4.75    2.93
  -3  -5  -3   12.03    5.93
   3   5   3    4.74    1.57
   3   5   4   23.66    3.48
   3   5   4   32.30    3.36
   3   5   4   34.30    3.57
   3   5   4   36.30    3.86
   3   5   4   30.18    3.64
  -3  -5  -4   28.00    7.39
  -3  -5  -4   17.99    5.31
   3   5   4   30.05    3.50
  -3  -5  -4   30.81    6.58
   3   5   5    2.36    0.77
   3   5   5    1.20    0.55
   3   5   5    1.03    0.62
   3   6  -3    1.71    1.52
   3   6  -3    0.14    1.26
   3   6  -3    5.13    4.34
   3   6  -2    0.49    1.02
   3   6  -2    0.53    1.60
   3   6  -2   -1.98    5.16
   3   6  -1    3.22    4.35
   3   6  -1    1.52    1.40
   3   6  -1    2.62    2.25
   3   6  -1    4.67    1.92
   3   6  -1    3.57    2.50
  -3  -6   1    0.78    1.58
  -3  -6   0    4.46    3.75
   3   6   0    6.93    4.11
   3   6   0    6.42    2.25
   3   6   0    6.28    2.63
  -3  -6   0    8.10    3.08
  -3  -6  -1    1.06    1.67
   3   6   1    6.61    1.55
   3   6   1    5.93    1.98
  -3  -6  -1    9.08    6.14
  -3  -6  -1    5.76    1.51
  -3  -6  -1    4.96    1.50
   3   6   1    4.62    1.42
   3   6   1    7.01    2.05
   3   6   1    6.33    1.58
  -3  -6  -1    5.82    2.96
   3   6   1    4.39    1.95
   3   6   2    0.83    0.84
   3   6   2    0.33    0.83
   3   6   2    0.15    0.84
   3   6   2    0.67    1.07
  -3  -6  -2   -1.54    1.88
  -3  -6  -2  -12.05    7.02
  -3  -6  -2   -9.66    4.94
  -3  -6  -2    2.46    1.11
  -3  -6  -2    0.41    0.65
   3   6   2    0.47    0.73
   3   6   2    1.02    1.06
  -3  -6  -2   -0.30    1.67
  -3  -6  -2    3.48    3.24
  -3  -6  -2   -0.09    2.37
   3   6   3  118.95    8.49
   3   6   3  122.28    7.56
   3   6   3  124.23    7.08
   3   6   3  134.87    6.91
  -3  -6  -3   90.76    9.32
   3   6   3  133.76    7.45
  -3  -6  -3  140.54   17.28
  -3  -6  -3  135.88   14.74
  -3  -6  -3  100.52   11.31
   3   6   3  121.29    7.99
   3   6   4    0.24    0.66
   3   6   4    0.87    0.78
   3   6   4    0.36    0.79
   3   6   4    1.41    1.11
  -3  -6  -4   -0.42    2.05
  -3  -6  -4   -0.12    2.23
  -3  -6  -4   -0.13    2.00
   3   6   4    0.43    0.68
   3   7  -3    0.43    0.63
   3   7  -2    1.56    1.78
   3   7  -2   -0.04    0.98
   3   7  -2   -1.36    4.58
   3   7  -1   10.92    2.55
   3   7  -1   11.55    6.53
   3   7   0  624.43   16.83
   3   7   0  612.15   36.18
   3   7   1   58.67    6.39
   3   7   1   55.52    4.72
   3   7   2   29.47    4.64
   3   7   2   35.34    3.35
  -3  -7  -2   24.90    4.32
   3   7   2   29.56    3.46
  -3  -7  -2   33.84    9.04
  -3  -7  -2   44.95    8.21
   3   7   2   31.83    4.38
  -3  -7  -2   29.73    5.72
   3   7   3    0.43    0.78
   3   7   3    0.41    1.20
   3   7   3    0.06    0.60
  -3  -7  -3   -0.26    1.47
  -3  -7  -3    0.52    3.94
   3   7   3   -0.41    0.94
  -3  -7  -3    0.75    2.25
   3   7   3   -0.42    0.92
  -3  -7  -3   -0.38    1.58
   3   7   4    3.49    0.97
   3   7   4    3.95    1.42
   3   7   4    2.19    0.71
   3   7   4    4.30    1.13
  -3  -7  -4    3.45    2.23
   3   7   4    3.38    1.08
   3   8  -1   81.62   13.01
   3   8  -1   45.77    6.68
   3   8   0  171.80   18.44
   3   8   0  149.48    7.67
   3   8   1   -0.26    0.66
  -3  -8  -1    0.35    1.63
   3   8   2    2.13    1.48
   3   8   2   -4.11    2.17
  -3  -8  -2    1.34    3.61
   3   8   2    1.76    0.85
  -3  -8  -2    2.59    2.52
   3   8   3    9.46    2.21
  -3  -8  -3    2.66    2.54
   3   8   3    8.91    1.53
  -3  -8  -3    4.21    2.80
  -3  -8  -3    8.65    2.72
   3   9  -1   17.79    3.46
  -3  -9   1   -3.58    1.84
   3   9   0    8.76    4.00
  -3  -9   0   70.65    9.02
  -3  -9  -1    6.22    3.05
  -3  -9  -1    9.71    3.03
  -3  -9  -2   12.92    2.83
  -3  -9  -2   12.28    4.23
  -3  -9  -2    9.26    3.14
  -3  -9  -3   54.22    5.36
   3  10   0    4.80    1.78
  -3 -10  -1   22.72    2.93
  -3 -10  -1   29.57    4.30
  -4  10   1   -1.02    1.02
   4 -10  -1    0.84    1.13
   4 -10  -1   -0.06    0.90
   4 -10   0    1.24    1.09
   4  -9  -3    2.69    1.26
   4  -9  -3    1.43    1.06
   4  -9  -2   19.64    3.25
  -4   9   2    5.82    2.12
   4  -9  -2    1.30    1.89
   4  -9  -2   29.56    5.42
   4  -9  -2   25.70    4.49
  -4   9   1   63.39    8.19
   4  -9  -1   12.04    3.00
  -4   9   0   30.47    6.75
   4  -9   0   25.80    3.81
  -4   9  -1    1.68    2.30
  -4   9  -1    9.96    2.62
   4  -8  -4    3.31    1.37
  -4   8   4    2.85    0.91
  -4   8   4    2.93    0.91
   4  -8  -4    2.50    1.32
  -4   8   3    8.66    1.97
  -4   8   3    9.73    2.02
   4  -8  -3    9.86    2.88
   4  -8  -3    9.87    3.12
   4  -8  -3   12.28    3.50
  -4   8   3    8.84    1.93
   4  -8  -3   14.15    4.10
   4  -8  -3    5.76    1.76
  -4   8   2   -0.03    0.67
   4  -8  -2    4.72    2.43
   4  -8  -2    1.55    1.84
   4  -8  -2    0.63    2.13
  -4   8   2    1.38    0.86
   4  -8  -1   14.17    3.52
  -4   8   1   25.80    6.61
   4  -8  -1   13.79    3.35
   4  -8  -1   12.86    3.74
  -4   8   0   54.57   11.54
   4  -8   0   55.84    6.30
  -4   8  -1    7.27    5.23
  -4   8  -1   32.41    5.89
  -4   8  -2    4.87    3.48
  -4   7   4    1.40    0.73
  -4   7   4    2.15    1.17
  -4   7   4    1.71    1.14
   4  -7  -4   -0.22    1.59
   4  -7  -4    0.30    1.37
   4  -7  -4    1.78    1.62
  -4   7   4    2.58    1.23
  -4   7   3   20.72    3.54
  -4   7   3   13.48    2.96
  -4   7   3   23.07    4.23
   4  -7  -3   23.41    5.23
   4  -7  -3   17.73    4.74
   4  -7  -3   21.97    5.03
   4  -7  -3   16.98    3.98
   4  -7  -3   19.00    5.15
  -4   7   3   17.06    3.26
  -4   7   2   15.63    3.72
  -4   7   2   15.96    2.95
  -4   7   2   15.49    2.91
   4  -7  -2   19.99    4.72
   4  -7  -2   19.68    4.79
  -4   7   2   15.01    2.95
   4  -7  -2   22.17    5.32
   4  -7  -2   18.47    3.80
  -4   7   1   11.03    2.93
   4  -7  -1   16.26    4.52
   4  -7  -1   13.60    3.73
  -4   7   1   13.65    4.52
   4  -7  -1   13.49    3.63
   4  -7  -1   16.05    4.01
   4  -7  -1   23.47    5.58
  -4   7   0   69.47    8.66
  -4   7   0   72.86   14.37
   4  -7   0   66.60    7.44
   4  -7   0   87.26   10.58
  -4   7   0   72.19    9.48
  -4   7  -1   35.53    9.05
  -4   7  -1   47.41   11.57
  -4   7  -2   14.42    6.51
  -4   7  -2    9.88    6.82
  -4   7  -3   19.23    5.00
  -4   7  -3   17.21    5.22
  -4   6   5    1.48    0.65
  -4   6   5    1.38    0.78
  -4   6   5    0.42    0.56
  -4   6   4    5.45    1.81
  -4   6   4    8.35    2.30
  -4   6   4    7.82    2.23
   4  -6  -4    5.14    2.52
   4  -6  -4    5.35    1.84
   4  -6  -4    0.82    2.58
  -4   6   4    4.35    1.37
  -4   6   4    4.75    1.92
   4  -6  -4    3.65    2.16
   4  -6  -4    1.87    2.17
  -4   6   3  598.42   18.83
  -4   6   3  604.22   21.47
  -4   6   3  560.96   19.08
   4  -6  -3  656.65   26.51
   4  -6  -3  553.21   17.06
   4  -6  -3  654.95   28.27
  -4   6   3  605.51   19.77
   4  -6  -3  586.97   23.17
  -4   6   3  591.56   19.36
   4  -6  -3  715.26   30.30
   4  -6  -2   21.57    4.49
  -4   6   2   23.23    3.58
  -4   6   2   26.82    4.58
  -4   6   2   25.28    3.72
  -4   6   2   22.74    3.89
   4  -6  -2   23.98    4.96
  -4   6   2   21.71    5.93
   4  -6  -2   24.41    3.85
   4  -6  -2   25.94    5.40
  -4   6   2   25.51    4.21
   4  -6  -2   23.82    3.94
   4  -6  -2   26.16    5.18
   4  -6  -2   19.62    3.79
  -4   6   2   23.57    3.55
   4  -6  -2   27.92    5.90
   4  -6  -1   49.02    6.93
  -4   6   1   57.47    6.16
  -4   6   1   52.45   10.30
  -4   6   1   59.54    8.54
   4  -6  -1   47.58    4.75
   4  -6  -1   55.22    6.80
  -4   6   1   51.09    5.29
   4  -6  -1   50.81    4.96
   4  -6  -1   50.66    5.62
   4  -6  -1   56.76    7.80
   4  -6   0    0.30    1.56
  -4   6   0    5.20    2.06
  -4   6   0    3.65    4.98
  -4   6   0    0.61    1.55
   4  -6   0    0.68    1.12
   4  -6   0    0.80    2.03
   4  -6   1   38.19    5.89
  -4   6  -1   33.41   10.29
  -4   6  -1   16.56    7.36
   4  -6   1   30.76    5.00
  -4   6  -1   41.93    6.89
   4  -6   1   32.53    6.27
  -4   6  -2   -2.89    6.83
  -4   6  -2   -3.27    4.65
  -4   6  -2    0.63    5.14
  -4   6  -3  237.04   21.07
  -4   6  -3  183.18   21.91
  -4   5   5   46.45    4.23
  -4   5   5   42.86    3.27
  -4   5   5   39.78    3.11
  -4   5   5   46.16    3.89
  -4   5   4  199.47   11.96
  -4   5   4  178.09   10.38
  -4   5   4  189.26   10.36
   4  -5  -4  177.70   13.51
   4  -5  -4  191.00   10.70
  -4   5   4  178.52    9.31
   4  -5  -4  201.13   16.17
  -4   5   4  205.35   11.51
   4  -5  -4  183.03   13.36
   4  -5  -4  179.97   14.70
  -4   5   3   25.07    4.12
  -4   5   3   15.55    3.54
  -4   5   3   20.33    3.99
  -4   5   3   21.09    3.64
  -4   5   3   21.50    3.77
   4  -5  -3   24.44    5.36
   4  -5  -3   19.31    3.48
   4  -5  -3   26.21    4.25
   4  -5  -3   22.28    4.98
  -4   5   3   20.71    3.71
   4  -5  -3   22.67    4.00
   4  -5  -3   25.91    5.86
  -4   5   3   19.93    3.60
   4  -5  -3   23.52    5.78
   4  -5  -3   22.54    3.79
  -4   5   3   19.03    3.74
   4  -5  -3   17.80    4.20
  -4   5   2   13.08    2.38
  -4   5   2   11.70    2.47
   4  -5  -2    7.62    2.52
  -4   5   2   11.97    2.67
  -4   5   2   10.98    4.79
  -4   5   2   13.24    2.93
   4  -5  -2   12.19    3.04
  -4   5   2   11.93    4.01
   4  -5  -2   13.03    3.54
   4  -5  -2   11.77    2.55
   4  -5  -2   12.57    2.77
   4  -5  -2    9.30    3.10
  -4   5   2   12.98    2.77
   4  -5  -2   15.90    4.18
  -4   5   2   12.78    2.59
   4  -5  -2   12.67    3.16
   4  -5  -1  371.12   16.72
   4  -5  -1  396.28   12.72
   4  -5  -1  394.30   12.63
   4  -5  -1  405.96   16.76
   4  -5  -1  392.65   12.73
   4  -5  -1  420.73   18.88
   4  -5   0   40.91    5.64
   4  -5   0   50.76    4.18
   4  -5   0   44.72    3.65
   4  -5   0   45.46    3.70
   4  -5   0   48.86    5.69
   4  -5   0   51.55    6.93
   4  -5   1  719.11   23.23
   4  -5   1  628.94   15.21
  -4   5  -1  512.05   35.34
   4  -5   1  631.54   20.66
  -4   5  -1  776.69   27.18
   4  -5   1  649.69   26.04
   4  -5   2  103.47    6.50
  -4   5  -2  146.71   20.01
  -4   5  -2  126.40   20.31
   4  -5   2  126.45    9.65
  -4   5  -3   48.32   13.83
  -4   5  -3   66.64   12.34
  -4   5  -4   14.99    5.24
  -4   5  -4    2.57    2.95
  -4   4   5   38.46    3.33
  -4   4   5   45.49    4.74
   4  -4  -5   48.99    4.62
  -4   4   5   46.06    4.08
  -4   4   5   41.96    4.11
  -4   4   4   -1.65    1.10
  -4   4   4    0.69    1.07
  -4   4   4    4.21    2.39
   4  -4  -4    2.41    2.27
   4  -4  -4    3.78    2.30
   4  -4  -4   -1.01    2.67
   4  -4  -4    1.97    2.55
   4  -4  -4   -6.08    2.94
  -4   4   4    4.20    2.14
  -4   4   3   -0.18    1.21
  -4   4   3    0.74    1.07
  -4   4   3   -3.18    1.49
  -4   4   3   -0.93    1.44
   4  -4  -3   -0.18    1.42
   4  -4  -3   -2.21    1.97
   4  -4  -3    2.81    1.64
   4  -4  -3   -3.72    2.48
   4  -4  -3    0.79    1.20
   4  -4  -3    0.03    1.08
  -4   4   3   -0.31    1.07
   4  -4  -3   -0.21    1.48
  -4   4   3   -0.36    1.11
   4  -4  -3    2.39    2.71
   4  -4  -3   -0.87    1.45
   4  -4  -2  112.59    8.03
  -4   4   2  156.20    8.57
   4  -4  -2  129.45    7.84
   4  -4  -2  136.12    8.08
   4  -4  -2  137.34    9.93
   4  -4  -1  139.28    9.08
   4  -4  -1  146.76    7.54
  -4   4   1  184.29    6.94
   4  -4  -1  147.12    7.06
   4  -4  -1  165.42    9.56
   4  -4  -1  155.41    7.30
   4  -4  -1  168.65   10.31
   4  -4   0   10.81    2.73
   4  -4   0   12.99    2.85
   4  -4   0   10.75    1.68
   4  -4   1  246.72   12.02
   4  -4   1  225.66    8.24
   4  -4   1  239.21    6.03
  -4   4  -1  254.20   13.44
   4  -4   2    9.91    2.02
  -4   4  -2    6.04    4.27
  -4   4  -2    9.73    5.25
  -4   4  -2   10.84    2.56
   4  -4   2   13.48    1.80
   4  -4   2    9.82    2.68
  -4   4  -3    2.02    4.83
  -4   4  -3    2.05    4.00
  -4   4  -3    3.08    2.29
  -4   4  -4   13.86    6.05
  -4   4  -4    6.06    4.23
   4  -3  -5    8.94    2.15
  -4   3   5    7.18    2.26
  -4   3   5    6.28    1.79
  -4   3   4    2.12    1.29
   4  -3  -4    8.28    2.90
   4  -3  -4    3.37    1.71
   4  -3  -4    3.21    2.96
   4  -3  -4    2.36    2.02
  -4   3   4    2.45    2.07
  -4   3   3    0.05    0.95
  -4   3   3   -2.95    1.63
  -4   3   3    1.17    1.22
  -4   3   3   -0.04    1.04
   4  -3  -3    2.68    1.61
   4  -3  -3    0.08    1.11
   4  -3  -3    1.55    2.11
   4  -3  -3    0.12    0.87
   4  -3  -3    1.10    1.29
  -4   3   3    0.38    0.53
   4  -3  -3    0.73    1.47
   4  -3  -3   -0.75    1.02
  -4   3   3   -0.53    1.05
   4  -3  -2  101.56    6.75
   4  -3  -2  125.51    8.55
   4  -3  -2  111.57    6.72
   4  -3  -2  118.76    6.88
  -4   3   2  103.93    7.49
  -4   3   2  100.44    4.32
   4  -3  -1   26.76    3.59
   4  -3  -1   31.32    3.35
   4  -3  -1   34.20    4.02
   4  -3  -1   28.49    2.82
   4  -3  -1   30.08    3.78
  -4   3   1   29.19    1.80
  -4   3   1   26.35    3.56
   4  -3   0    1.41    0.94
  -4   3   0    2.49    0.80
   4  -3   0    0.74    0.60
   4  -3   0    1.15    0.61
   4  -3   0    1.22    1.30
  -4   3   0    0.62    0.74
  -4   3   0    0.68    0.57
   4  -3   1   48.40    4.64
   4  -3   1   51.93    2.41
   4  -3   1   46.01    3.50
   4  -3   1   43.90    4.67
   4  -3   1   48.02    2.52
   4  -3   1   50.49    2.66
  -4   3  -1   45.64    4.83
   4  -3   2    3.59    1.36
   4  -3   2    5.11    1.06
   4  -3   2    4.57    1.16
   4  -3   3    1.41    1.19
  -4   3  -3   -1.30    4.37
  -4   3  -3    1.67    1.59
   4  -3   3    3.55    1.19
  -4   3  -4   -2.42    4.71
  -4   3  -4   -1.30    1.34
  -4   3  -4    0.61    3.79
  -4   3  -5    2.78    2.12
   4  -2  -5   -0.17    1.21
   4  -2  -5    0.16    1.23
  -4   2   5    1.06    1.65
  -4   2   5    1.61    1.28
  -4   2   4  195.10   10.42
   4  -2  -4  212.28   12.06
   4  -2  -3   32.30    4.06
   4  -2  -3   34.42    4.19
  -4   2   3   26.65    3.28
   4  -2  -2   38.32    3.67
  -4   2   2    0.76    1.86
   4  -2  -2    1.53    3.10
   4  -2  -2   39.05    3.68
   4  -2  -2   34.31    4.02
  -4   2   2   36.86    4.07
  -4   2   2   30.92    2.72
   4  -2  -1  164.04    7.45
   4  -2  -1  178.16    7.12
   4  -2  -1  158.34    5.86
   4  -2  -1  181.59    7.69
   4  -2  -1  155.37    5.15
  -4   2   1  170.26    6.50
   4  -2  -1  150.75    5.25
  -4   2   1  171.09    7.56
   4  -2  -1  166.59    6.84
  -4   2   1  160.22    4.42
   4  -2   0   27.33    3.10
   4  -2   0   27.20    1.66
   4  -2   0   31.11    2.45
   4  -2   0   27.97    3.06
  -4   2   0   31.44    2.44
   4  -2   0   30.63    1.85
  -4   2   0   28.23    1.74
   4  -2   0   27.48    1.56
  -4   2   0   26.11    2.99
   4  -2   1  144.65    5.68
   4  -2   1  127.73    6.24
   4  -2   1  122.96    3.72
   4  -2   1  124.20    3.64
  -4   2  -1  127.84    4.32
  -4   2  -1  125.41    4.26
   4  -2   1  125.42    4.06
  -4   2  -1  120.14    6.34
   4  -2   2  146.12    5.35
   4  -2   2  136.27    4.71
   4  -2   2  146.96    5.62
   4  -2   3   10.43    1.74
   4  -2   3    9.96    2.47
  -4   2  -3    9.56    2.22
  -4   2  -3    9.53    6.70
  -4   2  -3    6.89    5.21
   4  -2   3   14.50    2.22
  -4   2  -4   -6.31    4.43
  -4   2  -4   -0.37    1.42
  -4   2  -4    2.55    4.76
  -4   2  -5    8.21    3.55
   4  -1  -5   24.41    3.30
   4  -1  -5   30.06    3.67
  -4   1   5   26.25    3.36
   4  -1  -4    8.99    2.56
  -4   1   4   12.58    2.71
  -4   1   3    3.05    2.11
   4  -1  -3    5.27    4.75
   4  -1  -3    2.05    0.97
   4  -1  -3    2.25    1.06
  -4   1   3    2.04    1.11
   4  -1  -2   22.49    2.56
   4  -1  -2   19.91    2.54
   4  -1  -2   22.69    2.86
  -4   1   2   24.11    3.17
   4  -1  -2   22.00    2.70
  -4   1   2   19.77    2.35
   4  -1  -1    0.45    0.91
   4  -1  -1   -0.19    0.45
   4  -1  -1   -0.20    1.00
   4  -1  -1   -0.38    0.78
   4  -1  -1   -0.23    0.81
  -4   1   1    0.18    0.68
   4  -1  -1    0.14    0.61
   4  -1  -1    0.26    0.36
  -4   1   1    0.20    0.64
  -4   1   1   -0.03    0.84
   4  -1   0 1102.76   16.52
   4  -1   0 1071.53   12.33
   4  -1   0 1069.49   10.03
   4  -1   0 1134.16   10.91
   4  -1   0 1102.99   10.24
  -4   1   0 1134.97   13.12
  -4   1   0 1125.93   13.09
  -4   1   0 1105.91   14.98
  -4   1   0 1146.47   10.14
   4  -1   0 1091.45    9.69
   4  -1   1  119.04    3.36
   4  -1   1  142.41    5.58
   4  -1   1  125.75    3.86
   4  -1   1  144.88    5.38
   4  -1   1  132.28    3.97
   4  -1   1  125.66    3.93
  -4   1  -1  126.66    4.28
  -4   1  -1  124.35    4.26
  -4   1  -1  137.55    4.67
   4  -1   1  125.26    2.83
   4  -1   2  156.09    5.00
   4  -1   2  153.63    5.66
   4  -1   2  151.10    5.44
  -4   1  -2  138.48    4.68
   4  -1   2  157.34    5.73
  -4   1  -2  139.97    4.77
  -4   1  -2  145.14   17.92
   4  -1   3    0.50    0.67
   4  -1   3    0.12    0.55
   4  -1   3    0.28    0.70
  -4   1  -4  -11.01    6.26
  -4   1  -5    1.39    2.51
   4   0  -5   -0.34    1.20
   4   0  -4    7.14    2.62
   4   0  -4   10.71    2.87
   4   0  -4   11.37    3.46
  -4   0   3   48.00    5.13
  -4   0   3   36.26    3.86
   4   0  -2   39.10    3.50
   4   0  -2   44.12    3.17
   4   0  -2   47.39    3.81
  -4   0   2   45.30    4.30
  -4   0   2   45.58    3.48
   4   0  -1 1951.23   16.51
   4   0  -1 2083.15   21.02
   4   0  -1 2017.88   22.19
  -4   0   1 2029.20   18.58
   4   0  -1 2052.42   15.09
  -4   0   1 2015.92   18.38
  -4   0   1 2020.56   22.97
   4   0  -1 1990.52   18.66
  -4   0   1 2012.24   16.73
   4   0   0    0.42    0.80
   4   0   0    0.32    0.50
   4   0   0    0.33    0.48
  -4   0   0   -0.16    1.57
   4   0   0    0.42    0.50
   4   0   0    0.42    0.54
  -4   0   0    0.57    0.62
  -4   0   0    0.31    0.53
  -4   0   0   -0.15    0.57
   4   0   0    0.41    0.42
  -4   0   0    0.33    0.55
   4   0   1  549.68    8.09
   4   0   1  568.76   10.46
   4   0   1  533.54    8.05
  -4   0  -1  562.55   20.74
   4   0   1  545.92    8.63
   4   0   1  526.02    7.52
  -4   0  -1  541.26    9.30
  -4   0  -1  538.46    9.27
  -4   0  -1  525.50    7.30
   4   0   2   62.08    3.57
   4   0   2   65.48    3.82
  -4   0  -2   64.52    3.61
  -4   0  -2   60.04    3.49
   4   0   2   66.03    3.64
   4   0   2   65.22    3.80
  -4   0  -2    0.24    2.90
  -4   0  -2   15.49    7.25
   4   0   3    1.89    1.02
   4   0   3    3.74    1.15
   4   0   3    3.93    1.26
   4   0   3    3.35    1.15
  -4   0  -3   -2.88    8.12
  -4   0  -3   -4.01    3.61
  -4   0  -4    0.03    4.93
  -4   0  -5   -5.92    3.91
   4   0   5    1.49    0.62
   4   1  -5    5.98    1.68
   4   1  -4   23.75    4.30
   4   1  -4   22.38    3.93
   4   1  -3   14.26    3.14
  -4  -1   3   21.23    4.10
  -4  -1   3   12.14    2.44
  -4  -1   3   15.79    3.15
   4   1  -2  238.84    9.35
   4   1  -2  232.09    6.39
  -4  -1   2  231.81   10.15
   4   1  -2  235.86    8.40
  -4  -1   2  228.34    7.59
   4   1  -1   21.32    2.08
  -4  -1   1   20.87    1.88
  -4  -1   1   20.94    1.89
  -4  -1   1   19.92    2.58
  -4  -1   1   23.59    1.82
  -4  -1   1   21.95    1.88
   4   1  -1   21.11    2.04
   4   1   0  314.87    5.82
   4   1   0  369.44    5.98
  -4  -1   0  389.10   15.87
  -4  -1   0  348.60    7.11
   4   1   0  334.35    6.10
   4   1   0  357.16    6.06
  -4  -1   0  354.97    7.18
   4   1   0  328.87    6.84
  -4  -1   0  370.18    5.69
  -4  -1   0  318.44   10.00
  -4  -1   0  335.29    8.03
   4   1   0  326.05    6.39
   4   1   1   10.65    1.23
   4   1   1   11.78    1.42
   4   1   1   12.72    1.46
  -4  -1  -1   13.39    4.25
   4   1   1    9.66    1.35
  -4  -1  -1   10.67    1.49
   4   1   1   10.75    1.13
  -4  -1  -1   10.51    1.49
  -4  -1  -1   11.45    1.11
  -4  -1  -1    9.27    2.78
   4   1   2   28.06    2.60
   4   1   2   33.37    2.72
  -4  -1  -2   32.75    2.90
   4   1   2   32.70    2.47
   4   1   2   32.38    2.86
  -4  -1  -2   31.69    2.85
  -4  -1  -2   22.54    5.10
   4   1   3  127.49    6.69
   4   1   3  130.56    6.72
   4   1   3  130.65    6.89
   4   1   3  138.14    6.30
  -4  -1  -3  125.87    6.32
  -4  -1  -3  122.52    6.24
   4   1   4  430.43   12.83
  -4  -1  -5   34.26    8.57
  -4  -1  -5   27.02    3.60
   4   2  -5    0.19    1.17
   4   2  -4   24.95    4.48
   4   2  -4   25.76    4.14
   4   2  -3  617.53   20.30
   4   2  -3  630.22   17.44
   4   2  -3  489.95   31.37
   4   2  -3  617.49   21.00
  -4  -2   3  568.99   19.25
  -4  -2   3  538.49   14.58
   4   2  -2   50.18    4.77
  -4  -2   2   48.34    5.04
  -4  -2   2   47.11    3.60
   4   2  -2   51.10    4.06
   4   2  -1  175.33    6.35
  -4  -2   1  186.25   14.55
  -4  -2   1  144.78    4.59
  -4  -2   1  149.01    4.67
   4   2  -1  157.40    8.09
  -4  -2   1  172.18    6.87
   4   2  -1  165.17    5.73
  -4  -2   1  153.51    4.66
  -4  -2   1  159.35    7.73
   4   2   0  116.05    3.62
  -4  -2   0  124.39   10.58
  -4  -2   0  116.49    4.39
   4   2   0  110.45    3.74
   4   2   0  115.03    3.62
  -4  -2   0  117.56    4.42
  -4  -2   0  118.56    3.03
   4   2   0  105.33    5.08
   4   2   0  109.24    4.04
  -4  -2   0  112.24    5.52
  -4  -2   0  119.49    6.62
   4   2   1  148.14    5.08
   4   2   1  151.52    4.32
   4   2   1  132.71    3.57
  -4  -2  -1  154.31   13.19
  -4  -2  -1  146.94    5.76
   4   2   1  150.30    3.91
   4   2   1  149.82    4.91
  -4  -2  -1  151.73    5.85
   4   2   1  131.26    4.21
  -4  -2  -1  145.85    9.53
  -4  -2  -1  138.02    4.82
   4   2   2  865.80   15.26
   4   2   2  872.97   13.72
  -4  -2  -2  919.66   40.99
  -4  -2  -2  852.99   16.07
  -4  -2  -2  853.23   16.03
   4   2   2  891.36   11.91
   4   2   2  887.18   15.16
   4   2   3   61.75    4.59
   4   2   3   67.20    5.15
   4   2   3   65.22    4.74
  -4  -2  -3   63.04   10.97
   4   2   3   58.59    4.73
  -4  -2  -3   62.16    4.96
  -4  -2  -3   64.85    5.07
   4   2   3   65.85    5.15
   4   2   3   70.09    4.32
  -4  -2  -3   43.54    6.89
  -4  -2  -3   64.11    9.12
   4   2   4   67.98    4.96
   4   2   4   64.68    5.14
  -4  -2  -4   33.87    8.69
  -4  -2  -4   37.86    7.18
   4   2   5    1.15    0.82
   4   2   5   -0.10    0.41
   4   3  -5   47.84    3.14
   4   3  -4    9.53    3.09
   4   3  -4    7.52    2.50
   4   3  -4    2.88    2.86
   4   3  -3  165.26   11.16
   4   3  -3  173.32    9.12
  -4  -3   3  163.21   20.58
   4   3  -3  177.93   18.19
   4   3  -3  133.53   17.68
   4   3  -3  196.66   12.69
  -4  -3   3  142.54    7.34
  -4  -3   3  130.83    9.77
  -4  -3   2   41.62    9.26
   4   3  -2   36.03    4.44
  -4  -3   2   34.26    4.60
   4   3  -2   37.18    3.57
  -4  -3   2   32.29    2.95
   4   3  -2   35.09    5.26
  -4  -3   1    5.02    3.52
   4   3  -1    7.69    1.77
  -4  -3   1    7.25    2.10
   4   3  -1    7.28    2.28
  -4  -3   1    7.65    1.12
  -4  -3   1    6.95    1.92
   4   3  -1    3.67    0.98
   4   3   0    6.09    0.97
  -4  -3   0    5.84    3.30
   4   3   0    4.69    0.90
  -4  -3   0    6.12    1.17
  -4  -3   0    5.67    1.16
   4   3   0    4.32    1.44
  -4  -3   0    4.81    1.95
  -4  -3   0    6.43    0.68
   4   3   0    4.20    1.03
   4   3   1  976.14   14.07
   4   3   1  926.22   10.93
   4   3   1  945.80   13.05
   4   3   1  984.94    9.91
  -4  -3  -1  956.95   16.05
  -4  -3  -1  948.13   15.96
   4   3   2  475.28   10.17
   4   3   2  490.63   12.21
  -4  -3  -2  465.47   30.42
   4   3   2  470.54    8.41
   4   3   2  472.26   11.80
  -4  -3  -2  481.34   13.22
  -4  -3  -2  479.06   13.15
  -4  -3  -2  450.69   23.32
   4   3   3   20.06    2.78
   4   3   3   23.23    2.85
   4   3   3   17.22    2.95
   4   3   3   21.43    3.11
  -4  -3  -3   16.88    5.97
  -4  -3  -3   22.94    3.31
   4   3   3   22.19    3.17
   4   3   3   20.02    2.99
  -4  -3  -3   20.77    3.22
  -4  -3  -3   19.24    5.38
  -4  -3  -3   12.83    4.12
  -4  -3  -3   16.49    5.74
   4   3   4   19.22    2.91
   4   3   4   17.15    2.84
   4   3   4   19.51    3.05
  -4  -3  -4    9.73    4.49
   4   3   4   17.80    2.85
  -4  -3  -4   16.93    5.41
   4   3   5   -0.08    0.69
   4   3   5   -0.38    0.39
   4   3   5   -0.92    0.58
   4   4  -4   34.58    4.66
   4   4  -4   36.55    3.82
   4   4  -3   31.35    3.93
   4   4  -3   34.78    5.31
   4   4  -3   33.74    8.56
   4   4  -2  174.72   10.36
   4   4  -2  194.47    8.65
   4   4  -2  173.70   18.54
  -4  -4   2  146.90   18.20
   4   4  -2  152.85   18.69
   4   4  -2  190.61   11.14
  -4  -4   2  142.86   10.00
   4   4  -2  168.54   12.27
  -4  -4   1    1.48    2.93
   4   4  -1    2.38    1.33
   4   4  -1    2.89    1.05
   4   4  -1    2.07    1.57
  -4  -4   1    0.54    0.91
  -4  -4   0   -1.71    2.96
  -4  -4   0    0.03    0.39
  -4  -4   0   -0.16    0.50
   4   4   0    0.29    0.93
  -4  -4   0   -0.52    1.45
   4   4   0    0.00    0.51
   4   4   1   96.07    4.84
  -4  -4  -1  105.49   13.84
  -4  -4  -1   89.21    5.33
   4   4   1   95.29    4.35
  -4  -4  -1   92.78    5.41
  -4  -4  -1   92.18    9.10
   4   4   1   81.17    5.83
   4   4   2   12.57    2.13
   4   4   2   12.03    1.63
  -4  -4  -2    9.84    6.00
   4   4   2   13.38    2.09
  -4  -4  -2   11.98    2.39
  -4  -4  -2   13.52    2.47
  -4  -4  -2    9.35    3.91
   4   4   3   26.42    3.58
   4   4   3   26.88    3.24
   4   4   3   27.56    3.49
   4   4   3   27.92    3.38
   4   4   3   24.81    3.71
  -4  -4  -3   18.99    4.49
   4   4   3   27.79    3.51
  -4  -4  -3   19.36    6.64
  -4  -4  -3   27.04    3.82
   4   4   3   28.00    3.57
  -4  -4  -3   29.85    4.00
  -4  -4  -3   27.97    7.73
  -4  -4  -3   28.95    7.11
  -4  -4  -3   19.82    5.25
   4   4   3   25.87    3.47
   4   4   4    2.38    1.28
   4   4   4    1.82    1.22
   4   4   4    2.48    1.54
   4   4   4    3.49    1.52
   4   4   5    9.96    1.41
   4   4   5    6.57    1.24
   4   4   5    7.77    1.33
   4   5  -4   11.39    2.29
   4   5  -4    5.72    1.60
   4   5  -3   75.65    7.36
   4   5  -3   74.39    5.49
   4   5  -2    1.88    2.38
  -4  -5   2   14.33    7.05
   4   5  -2   14.06    3.45
   4   5  -2   14.55    2.70
   4   5  -2   16.04    6.56
   4   5  -2   17.65    3.79
   4   5  -2   12.85    3.90
  -4  -5   2   15.54    3.57
   4   5  -1   13.32    5.32
   4   5  -1   -1.95    1.84
  -4  -5   1   11.43    5.20
   4   5  -1   12.21    2.58
   4   5  -1   11.09    2.41
  -4  -5   1   12.90    3.32
   4   5  -1    8.87    2.90
  -4  -5   1   10.19    2.78
  -4  -5   0   11.82    6.05
   4   5   0    7.68    2.43
  -4  -5   0    9.39    2.99
   4   5   0    8.17    1.56
   4   5   1   25.25    2.69
  -4  -5  -1   27.36    8.60
  -4  -5  -1   21.09    2.80
  -4  -5  -1   21.11    2.80
   4   5   1   21.47    3.50
  -4  -5  -1   20.74    4.92
   4   5   2   13.47    2.32
   4   5   2   15.43    2.41
   4   5   2   15.18    2.93
   4   5   2   15.63    2.31
   4   5   2   15.41    2.58
  -4  -5  -2   13.56    3.41
  -4  -5  -2   26.83    9.25
   4   5   2   14.87    2.53
  -4  -5  -2   23.63    6.82
   4   5   2   17.38    2.40
  -4  -5  -2   16.30    2.81
  -4  -5  -2   16.45    2.84
  -4  -5  -2   23.28    5.63
  -4  -5  -2   11.04    4.46
   4   5   2   15.21    2.80
  -4  -5  -2   13.18    3.65
   4   5   3   53.83    4.83
   4   5   3   60.65    4.92
   4   5   3   57.14    4.97
   4   5   3   52.75    5.57
  -4  -5  -3   50.88    7.14
   4   5   3   52.83    4.95
  -4  -5  -3   61.47   12.05
   4   5   3   53.92    5.19
  -4  -5  -3   52.29    8.36
  -4  -5  -3   56.95    9.79
   4   5   4   30.74    3.30
   4   5   4   21.31    3.12
   4   5   4   30.73    3.47
   4   5   4   29.34    3.46
  -4  -5  -4   23.18    6.40
  -4  -5  -4   25.32    6.11
   4   5   4   25.15    3.05
  -4  -5  -4   26.68    5.82
   4   5   5   -0.20    0.43
   4   5   5    1.24    0.52
   4   5   5    0.83    0.53
   4   6  -3    9.89    2.46
   4   6  -3    7.53    2.01
   4   6  -2    0.53    1.35
   4   6  -2    5.20    2.66
   4   6  -2   -0.37    3.06
   4   6  -1    1.78    2.65
  -4  -6   1    0.61    6.02
   4   6  -1    1.61    1.24
   4   6  -1   -2.12    3.58
   4   6  -1   -1.04    1.15
   4   6  -1   -1.56    1.50
  -4  -6   1   -3.57    1.87
   4   6   0   36.19    8.74
  -4  -6   0   55.20   12.10
   4   6   0    9.71    3.82
   4   6   0   31.16    3.70
   4   6   0   31.96    5.25
  -4  -6   0   40.39    6.64
   4   6   0   30.43    3.60
   4   6   1   78.22    7.12
   4   6   1   90.02    5.47
  -4  -6  -1  127.37   18.17
   4   6   1   89.31    5.92
  -4  -6  -1   74.50    5.48
  -4  -6  -1   74.51    5.49
  -4  -6  -1  124.53   12.21
  -4  -6  -1   86.50   10.68
   4   6   1   79.64    6.58
   4   6   1   86.00    5.62
   4   6   2   30.51    3.26
   4   6   2   26.76    3.17
   4   6   2   28.03    3.32
   4   6   2   29.40    4.28
  -4  -6  -2   34.09   11.09
  -4  -6  -2   25.00    4.55
   4   6   2   30.79    3.52
  -4  -6  -2   26.70    3.68
  -4  -6  -2   43.05    9.50
  -4  -6  -2   26.40    3.67
  -4  -6  -2   39.40    7.75
   4   6   2   25.95    3.74
  -4  -6  -2   31.26    7.63
  -4  -6  -2   26.45    5.33
   4   6   3   69.83    4.99
   4   6   3   64.05    6.20
   4   6   3   57.55    4.73
   4   6   3   62.83    5.08
  -4  -6  -3   72.53   12.80
  -4  -6  -3   50.15    7.90
   4   6   3   56.87    5.33
  -4  -6  -3   62.23    9.92
   4   6   4   -0.40    0.73
   4   6   4    0.46    0.64
   4   6   4   -0.45    0.82
   4   6   4    0.19    0.69
  -4  -6  -4   -0.50    2.81
  -4  -6  -4    2.00    2.07
   4   6   4    0.55    0.78
   4   7  -3    0.95    0.78
   4   7  -2    3.56    2.02
   4   7  -2    0.90    1.03
   4   7  -2    4.61    3.92
   4   7  -1    1.55    1.52
   4   7  -1    0.12    3.73
   4   7   0  804.47   19.67
   4   7   0  678.09   37.88
   4   7   1   12.48    3.24
   4   7   1    9.06    1.87
  -4  -7  -1   15.90    4.95
   4   7   1   10.35    1.97
   4   7   2    0.75    0.58
   4   7   2    0.66    0.77
   4   7   2    2.55    1.59
   4   7   2    0.62    0.78
  -4  -7  -2    1.80    3.12
  -4  -7  -2    1.00    2.47
  -4  -7  -2   -1.64    1.34
   4   7   2    2.49    1.71
   4   7   3    0.27    0.54
  -4  -7  -3    0.62    1.25
   4   7   3   -0.47    1.36
   4   7   3    0.26    0.73
  -4  -7  -3   -0.13    2.73
   4   7   3    0.24    0.93
  -4  -7  -3   -0.18    1.47
   4   7   3   -0.50    0.95
  -4  -7  -3   -1.26    3.11
   4   7   4    5.73    1.12
   4   7   4    4.26    0.94
   4   7   4    4.16    1.25
   4   7   4    6.74    1.33
  -4  -7  -4    3.63    1.93
   4   8  -2    1.68    0.65
   4   8  -1    3.52    1.41
   4   8  -1  198.84   13.42
   4   8   0  370.40   19.95
   4   8   0   18.52    2.74
  -4  -8  -1   52.38    9.53
  -4  -8  -1   48.08    7.18
  -4  -8  -2    0.70    1.84
   4   8   2   -0.34    1.17
  -4  -8  -2   -4.14    3.66
   4   8   2    0.72    0.80
  -4  -8  -2    2.71    1.46
  -4  -8  -2    0.54    1.95
   4   8   3    0.75    0.96
  -4  -8  -3   -0.05    2.45
   4   8   3    1.44    0.77
  -4  -8  -3    0.93    1.66
  -4  -8  -3    0.94    1.11
   4   9  -1    0.89    1.69
   4   9   0   66.12    7.44
  -4  -9   0    0.57    1.48
  -4  -9  -1   58.52    8.39
  -4  -9  -1   53.43    6.36
  -4  -9  -2   55.30    5.52
  -4  -9  -2   59.04    8.10
  -4  -9  -2   46.49    5.90
   4  10   0   -0.86    0.94
   5 -10  -1   -1.58    1.16
   5  -9  -3    6.61    1.65
   5  -9  -3    5.72    1.95
   5  -9  -2    4.67    1.86
  -5   9   2    1.37    1.86
   5  -9  -2    3.27    1.30
   5  -9  -2    5.58    2.38
   5  -9  -2    3.51    1.95
   5  -9  -1   21.72    3.20
  -5   9   1   14.51    4.08
   5  -9  -1   20.58    3.18
   5  -9  -1   23.77    4.12
  -5   9   0    5.38    3.28
   5  -9   0   -0.57    1.01
  -5   9  -1    5.35    3.28
  -5   9  -1   10.96    2.53
   5  -8  -4   -0.70    0.89
  -5   8   4    0.80    0.50
   5  -8  -4    0.42    0.68
  -5   8   4    0.28    0.38
  -5   8   3   10.09    1.96
   5  -8  -3    8.52    2.71
   5  -8  -3    7.18    2.80
   5  -8  -3    6.46    1.99
  -5   8   3    7.75    1.65
   5  -8  -3   10.31    3.29
  -5   8   2    7.42    2.63
  -5   8   2    9.98    1.95
   5  -8  -2    6.15    2.64
   5  -8  -2   11.08    3.32
   5  -8  -2    9.43    2.32
   5  -8  -2    5.71    2.78
   5  -8  -1    6.01    2.62
  -5   8   1    3.93    4.39
  -5   8   1    5.90    3.26
   5  -8  -1    8.55    2.86
   5  -8  -1    3.46    2.47
  -5   8   0  159.90   19.56
   5  -8   0  167.78   10.92
  -5   8  -1    8.96    5.60
  -5   8  -1  125.05   11.51
  -5   8  -2   11.94    4.50
  -5   7   4    1.85    0.89
  -5   7   4    1.73    0.95
  -5   7   4    2.08    1.17
  -5   7   4    0.71    0.78
   5  -7  -4    0.20    1.17
   5  -7  -4   -0.48    1.58
  -5   7   4    1.00    0.88
   5  -7  -4    1.59    1.57
  -5   7   3   59.85    5.56
  -5   7   3   64.51    6.99
  -5   7   3   43.49    4.57
   5  -7  -3   63.87    8.11
   5  -7  -3   64.75    8.41
  -5   7   3   55.77    5.33
   5  -7  -3   67.32    9.04
   5  -7  -3   53.57    6.59
  -5   7   2   60.74    5.49
  -5   7   2   67.47    7.39
   5  -7  -2   65.47    8.18
  -5   7   2   65.52    6.69
   5  -7  -2   70.39    8.76
   5  -7  -2   69.85    7.42
  -5   7   2   59.01    5.25
   5  -7  -2   75.77    9.51
  -5   7   1   59.77    6.64
   5  -7  -1   65.51    7.72
  -5   7   1   70.98    9.76
   5  -7  -1   63.69    7.77
   5  -7  -1   61.84    6.47
  -5   7   0  154.06   13.28
  -5   7   0  124.36   19.38
  -5   7  -1    2.82    4.14
  -5   7  -1  383.05   25.49
  -5   7  -2    5.90    4.98
  -5   7  -2   -0.46    4.55
  -5   7  -3   -2.78    2.30
  -5   7  -3    2.35    2.48
  -5   6   5   16.89    1.83
  -5   6   4  107.20    7.70
  -5   6   4  115.44    7.41
  -5   6   4  102.64    7.37
   5  -6  -4  109.18    6.99
   5  -6  -4  117.73   10.10
   5  -6  -4  117.98   11.33
  -5   6   4   75.40    4.69
   5  -6  -4  103.34    8.96
  -5   6   4  118.02    7.86
   5  -6  -4  104.69    9.93
  -5   6   3  656.83   22.81
  -5   6   3  561.58   18.56
  -5   6   3  648.79   19.75
   5  -6  -3  720.11   27.64
   5  -6  -3  622.09   17.79
  -5   6   3  674.77   21.21
   5  -6  -3  709.50   29.50
   5  -6  -3  797.01   31.67
  -5   6   3  636.68   19.83
   5  -6  -3  632.46   24.50
  -5   6   2    0.19    0.77
  -5   6   2    0.78    1.72
   5  -6  -2    2.40    2.11
  -5   6   2   -1.36    1.70
  -5   6   2    0.71    1.33
   5  -6  -2    0.98    2.11
  -5   6   2   -0.40    3.07
   5  -6  -2    0.74    1.20
   5  -6  -2    1.84    2.34
   5  -6  -2    0.60    1.69
   5  -6  -2    1.89    1.14
   5  -6  -2   -0.88    1.56
  -5   6   2    1.89    1.34
   5  -6  -2   -0.19    2.22
  -5   6   2    1.27    1.52
   5  -6  -1   19.29    4.21
  -5   6   1   18.64    3.60
  -5   6   1   25.00    3.85
  -5   6   1   25.92    5.88
   5  -6  -1   19.53    3.16
   5  -6  -1   22.02    4.49
   5  -6  -1   20.86    3.32
  -5   6   1   18.68    3.28
   5  -6  -1   24.09    5.24
   5  -6  -1   25.05    4.22
   5  -6   0  324.15   17.37
  -5   6   0  330.42   14.11
  -5   6   0  344.07   19.48
   5  -6   0  344.63   16.87
   5  -6   0  345.37   19.97
   5  -6   1   14.33    3.62
  -5   6  -1   10.85    6.94
  -5   6  -1    6.54    6.56
   5  -6   1   10.01    2.92
  -5   6  -1    9.50    2.98
   5  -6   1    7.71    2.74
  -5   6  -2   45.38   12.66
  -5   6  -2   52.98   13.26
  -5   6  -2   29.77    8.91
  -5   6  -3   -1.74    4.62
  -5   6  -3   -0.31    2.48
  -5   5   5    1.76    0.83
  -5   5   5    0.89    0.72
   5  -5  -5    2.08    1.00
  -5   5   5    0.54    0.59
  -5   5   5    0.27    0.58
  -5   5   4   64.02    6.10
  -5   5   4   49.76    5.98
  -5   5   4   44.55    5.39
   5  -5  -4   63.25    7.94
   5  -5  -4   64.04    6.25
  -5   5   4   56.13    5.41
   5  -5  -4   49.31    8.29
   5  -5  -4   42.96    6.85
  -5   5   4   52.99    5.95
   5  -5  -4   47.25    7.20
  -5   5   3   10.27    2.95
  -5   5   3   18.93    3.69
  -5   5   3   15.15    3.66
  -5   5   3   12.69    2.97
  -5   5   3   15.92    3.32
   5  -5  -3   10.09    2.55
   5  -5  -3   14.87    4.22
   5  -5  -3   16.53    3.59
  -5   5   3   14.51    3.21
   5  -5  -3   12.32    4.51
  -5   5   3   17.56    3.44
   5  -5  -3   16.82    4.57
   5  -5  -3   15.38    3.44
   5  -5  -3   14.65    4.12
  -5   5   3   13.26    3.20
   5  -5  -3   22.92    5.71
   5  -5  -3    6.47    1.81
  -5   5   2   23.19    3.43
  -5   5   2   26.52    4.25
   5  -5  -2   21.83    4.20
  -5   5   2   25.54    3.89
  -5   5   2   33.44    6.49
   5  -5  -2   29.66    5.13
   5  -5  -2   26.36    4.00
   5  -5  -2   35.68    5.85
  -5   5   2   25.87    4.04
   5  -5  -2   36.74    6.11
   5  -5  -2   26.33    4.03
   5  -5  -2   30.96    5.05
  -5   5   2   24.08    3.61
   5  -5  -2   36.19    6.21
   5  -5  -1  158.31   11.14
   5  -5  -1  169.52    9.02
   5  -5  -1  164.31    8.50
   5  -5  -1  165.56    8.57
   5  -5  -1  163.83   11.07
   5  -5  -1  184.15   12.65
   5  -5   0  119.44    9.65
   5  -5   0  117.84    6.79
   5  -5   0  118.38    6.26
   5  -5   0  116.67    9.07
   5  -5   0  118.48    6.26
   5  -5   0  124.34   10.92
   5  -5   1   50.96    6.19
   5  -5   1   44.95    4.32
  -5   5  -1   42.47   11.44
  -5   5  -1   37.19   10.12
  -5   5  -1   54.71    7.13
   5  -5   1   41.82    5.70
  -5   5  -1   54.99    7.39
   5  -5   2  471.46   14.44
   5  -5   2  568.36   20.80
  -5   5  -2  610.18   41.69
  -5   5  -2  587.51   43.66
  -5   5  -3    1.29    4.98
  -5   5  -3    5.81    5.46
  -5   5  -3   -1.26    4.35
  -5   5  -4   -0.08    2.93
  -5   5  -4    2.24    2.36
  -5   4   5    6.81    2.01
  -5   4   5    3.27    1.00
   5  -4  -5    6.23    1.81
  -5   4   5    5.05    1.49
  -5   4   5    6.28    1.73
  -5   4   4   -1.93    1.41
  -5   4   4    0.28    1.62
  -5   4   4    0.82    1.00
   5  -4  -4    0.70    1.48
   5  -4  -4    0.48    1.38
   5  -4  -4   -1.25    2.77
  -5   4   4   -0.71    1.36
   5  -4  -4   -4.09    2.54
  -5   4   4   -1.10    0.76
   5  -4  -4    0.77    1.25
   5  -4  -3    3.21    1.91
  -5   4   3    1.97    1.33
  -5   4   3    1.36    1.12
  -5   4   3    0.75    1.20
  -5   4   3    1.41    1.09
   5  -4  -3    1.14    1.52
   5  -4  -3    0.48    1.22
   5  -4  -3    2.19    1.40
   5  -4  -3    1.65    1.37
   5  -4  -3   -0.53    1.90
   5  -4  -3    0.80    1.25
   5  -4  -3    1.65    1.12
  -5   4   3    0.57    1.15
  -5   4   3    1.47    1.29
   5  -4  -3    1.64    2.07
   5  -4  -3    2.60    1.80
  -5   4   2   41.71    4.73
   5  -4  -2   27.36    4.07
   5  -4  -2   26.19    4.04
   5  -4  -2   34.30    4.20
   5  -4  -2   34.86    5.19
   5  -4  -2   35.14    4.32
  -5   4   2   28.70    4.71
   5  -4  -1  422.20   16.07
   5  -4  -1  461.54   14.05
   5  -4  -1  457.80   13.05
   5  -4  -1  486.82   17.20
   5  -4  -1  488.75   17.96
  -5   4   1  423.50    7.35
   5  -4   0    0.98    0.74
   5  -4   0    2.01    1.54
   5  -4   0    1.56    0.91
   5  -4   0    1.54    0.51
   5  -4   0    2.41    1.55
   5  -4   1  126.38    8.66
   5  -4   1  112.16    6.34
   5  -4   1  120.63    4.66
   5  -4   1  107.70    8.23
  -5   4  -1  134.88    9.94
   5  -4   2  172.00    8.38
  -5   4  -2  183.82   11.95
  -5   4  -2  175.97   20.95
  -5   4  -2  160.92   22.79
   5  -4   2  194.30   11.76
   5  -4   2  216.88    7.26
  -5   4  -3    2.81    5.67
  -5   4  -3    1.76    3.58
  -5   4  -4    2.71    3.28
  -5   4  -4   -0.85    2.76
   5  -3  -5    4.64    1.43
   5  -3  -5    9.54    2.32
  -5   3   5    5.26    1.35
  -5   3   5    5.10    1.83
  -5   3   5    7.17    1.95
  -5   3   4   39.72    5.16
  -5   3   4   35.08    4.61
   5  -3  -4   40.68    5.38
   5  -3  -4   33.81    7.05
   5  -3  -4   28.38    5.88
  -5   3   4   42.20    5.65
  -5   3   3   72.72    7.58
   5  -3  -3   47.15    5.78
  -5   3   3   52.86    5.92
  -5   3   3   50.90    5.19
   5  -3  -3   57.86    5.95
   5  -3  -3   55.01    6.80
  -5   3   3   52.16    5.34
   5  -3  -3   52.77    5.59
   5  -3  -3   53.09    6.77
   5  -3  -3   57.37    5.86
   5  -3  -3   54.38    8.10
   5  -3  -3   56.93    7.17
  -5   3   3   43.01    3.72
   5  -3  -3   55.74    6.41
   5  -3  -2  142.32    8.95
   5  -3  -2  129.06    7.92
   5  -3  -2  146.37    8.07
   5  -3  -2  155.91    9.85
  -5   3   2  143.43    9.33
  -5   3   2  133.19    5.15
   5  -3  -1  579.71   16.61
   5  -3  -1  642.58   15.59
   5  -3  -1  601.95   13.55
  -5   3   1  635.31   15.08
   5  -3  -1  666.45   17.91
  -5   3   1  626.08   17.77
  -5   3   1  576.85    8.70
   5  -3  -1  634.23   17.40
   5  -3   0   14.77    2.75
   5  -3   0   17.90    2.27
   5  -3   0   18.03    1.59
   5  -3   0   16.91    1.98
  -5   3   0   16.72    2.18
   5  -3   0   17.05    1.57
   5  -3   0   18.99    3.21
  -5   3   0   16.73    1.65
   5  -3   1    1.27    0.86
   5  -3   1    1.17    0.60
   5  -3   1    0.46    0.84
   5  -3   1    0.80    0.46
   5  -3   1    0.94    0.55
   5  -3   1    0.88    1.17
  -5   3  -1    0.91    0.64
   5  -3   2    6.43    1.72
   5  -3   2    7.00    1.19
   5  -3   2    9.33    1.54
   5  -3   3    2.70    1.48
  -5   3  -3    1.82    5.54
  -5   3  -3    5.52    2.11
  -5   3  -3   -2.47    5.33
   5  -3   3    5.32    1.44
  -5   3  -4    1.87    3.91
   5  -2  -5    3.61    1.79
   5  -2  -5    1.21    1.23
  -5   2   5    1.53    1.15
  -5   2   4  146.87    9.48
  -5   2   4  153.56    9.57
   5  -2  -4  176.85   11.31
   5  -2  -4  134.81   13.00
  -5   2   3   19.37    4.17
  -5   2   3   15.68    3.20
   5  -2  -3   10.48    2.60
   5  -2  -3   13.17    2.75
   5  -2  -3   17.56    3.08
   5  -2  -3    8.84    3.01
   5  -2  -3   13.22    2.69
  -5   2   3   14.34    3.12
  -5   2   3    9.35    2.05
   5  -2  -3   13.06    3.44
   5  -2  -3   14.82    3.41
   5  -2  -2    1.60    1.17
   5  -2  -2    6.56    2.13
   5  -2  -2    5.25    1.51
   5  -2  -2    9.41    2.19
  -5   2   2    2.42    1.05
  -5   2   2    4.05    1.59
   5  -2  -1  116.82    6.70
   5  -2  -1  142.47    6.82
   5  -2  -1  126.82    5.72
  -5   2   1  136.22    6.33
   5  -2  -1  149.43    7.52
   5  -2  -1  121.81    5.04
  -5   2   1  136.34    7.23
  -5   2   1  126.31    4.25
   5  -2  -1  136.14    6.37
   5  -2  -1  119.87    5.04
   5  -2   0  116.17    3.80
   5  -2   0  118.99    5.01
   5  -2   0  119.84    6.65
  -5   2   0  125.08    5.27
   5  -2   0  114.37    3.85
   5  -2   0   98.95    6.26
  -5   2   0  119.56    6.47
  -5   2   0  116.09    3.86
   5  -2   0  113.86    3.52
   5  -2   1   47.70    4.05
   5  -2   1   42.78    2.42
   5  -2   1   49.67    3.51
  -5   2  -1   47.99    3.01
  -5   2  -1   45.91    2.96
   5  -2   1   41.69    2.51
   5  -2   1   48.87    2.59
  -5   2  -1   47.20    4.02
   5  -2   2    2.29    1.17
   5  -2   2    2.27    0.85
   5  -2   2    2.25    0.83
   5  -2   2    2.37    0.98
  -5   2  -2    4.92    7.19
   5  -2   3    4.93    1.75
   5  -2   3    8.94    1.69
  -5   2  -3   -2.51    3.89
  -5   2  -3    2.13    5.51
  -5   2  -3    1.30    1.20
   5  -2   3    8.86    1.76
  -5   2  -4    1.81    4.34
  -5   2  -4    1.04    3.32
  -5   2  -5    0.73    2.07
   5  -1  -5   -0.69    1.55
   5  -1  -5   -0.19    1.11
  -5   1   5    1.47    1.18
   5  -1  -4    4.09    1.74
  -5   1   3   13.01    3.57
   5  -1  -3    9.64    2.64
   5  -1  -3    9.31    2.23
   5  -1  -3    9.64    2.14
  -5   1   3    8.33    2.11
  -5   1   3    8.84    2.37
   5  -1  -3    5.88    2.50
   5  -1  -2  118.76    6.54
   5  -1  -2  113.02    6.28
   5  -1  -2  116.11    5.98
  -5   1   2  113.26    6.19
   5  -1  -2  107.20    6.10
  -5   1   2  113.54    7.21
  -5   1   2  104.47    5.04
   5  -1  -1   12.87    1.26
   5  -1  -1   10.04    1.99
   5  -1  -1   14.45    2.48
   5  -1  -1   19.50    2.58
   5  -1  -1   24.67    2.60
  -5   1   1   11.15    2.02
  -5   1   1    9.00    1.96
  -5   1   1   19.00    1.99
   5  -1  -1    9.87    1.19
   5  -1  -1   11.26    1.73
   5  -1   0   13.33    1.72
   5  -1   0   15.77    1.47
   5  -1   0   14.93    2.29
  -5   1   0   15.70    2.56
   5  -1   0   14.06    1.49
  -5   1   0   16.11    1.89
   5  -1   0   15.60    1.53
  -5   1   0   14.34    1.77
  -5   1   0   15.52    2.17
  -5   1   0   17.36    1.59
   5  -1   0   13.76    1.33
   5  -1   1  952.95   10.57
   5  -1   1  920.70   11.02
   5  -1   1 1061.48   14.71
   5  -1   1  992.52   16.23
   5  -1   1  927.23   11.69
  -5   1  -1  940.88   13.19
   5  -1   1  960.61   11.33
  -5   1  -1  939.11   13.18
  -5   1  -1 1040.07   10.81
   5  -1   1  963.85    8.98
   5  -1   2    4.86    1.66
   5  -1   2    4.33    1.09
   5  -1   2    3.85    0.87
  -5   1  -2    2.61    0.91
   5  -1   2    4.70    1.07
   5  -1   2    5.54    1.26
  -5   1  -2    2.13    0.81
  -5   1  -2    1.41    5.04
   5  -1   3   44.73    3.76
   5  -1   3   37.60    4.53
  -5   1  -3   31.29    9.84
   5  -1   3   48.20    3.93
   5  -1   3   40.48    3.44
  -5   1  -4   -2.08    5.90
  -5   1  -4    0.36    4.19
  -5   1  -4    2.21    1.57
  -5   1  -5    3.40    3.09
   5   0  -5    0.63    1.37
   5   0  -5   -0.62    0.97
  -5   0   5    1.34    0.95
   5   0  -4   12.78    3.08
   5   0  -4   14.35    3.52
   5   0  -4   14.55    3.36
   5   0  -3    4.54    1.85
   5   0  -3    9.15    2.37
  -5   0   3   13.96    4.23
  -5   0   3    3.78    1.26
   5   0  -3    7.99    2.44
  -5   0   3    8.85    2.47
   5   0  -2  411.79   11.46
   5   0  -2  421.09   10.86
  -5   0   2  404.46   10.99
  -5   0   2  431.23   14.14
   5   0  -2  440.21   12.16
  -5   0   2  419.45   10.15
   5   0  -1  222.99    8.35
   5   0  -1  229.72    7.67
   5   0  -1  221.60    5.83
   5   0  -1  223.77    6.94
   5   0  -1  229.39    5.51
  -5   0   1  232.76    7.09
  -5   0   1  227.43    7.02
  -5   0   1  229.37    8.53
  -5   0   1  228.92    5.96
   5   0  -1  236.26    6.91
   5   0   0  436.43   11.09
   5   0   0  404.02    7.04
   5   0   0  385.49    7.61
  -5   0   0  441.00   15.69
   5   0   0  422.15    7.49
   5   0   0  405.22    7.04
  -5   0   0  426.85    8.81
  -5   0   0  435.34    8.93
   5   0   0  429.97    7.33
  -5   0   0  447.92    7.19
  -5   0   0  419.41    9.50
   5   0   1  236.43    5.80
   5   0   1  242.13    5.68
   5   0   1  253.30    6.71
   5   0   1  242.15    6.13
  -5   0  -1  242.58    6.93
   5   0   1  239.70    5.51
  -5   0  -1  239.84    6.88
  -5   0  -1  241.97    6.05
   5   0   1  220.88    5.11
   5   0   2    8.33    1.39
   5   0   2    9.38    1.53
   5   0   2   11.23    2.04
   5   0   2    7.83    1.42
   5   0   2    8.49    1.46
  -5   0  -2    8.48    1.46
  -5   0  -2    9.04    1.54
   5   0   3   10.83    1.95
   5   0   3    5.93    1.78
   5   0   3    8.87    1.73
   5   0   3   10.22    1.95
   5   0   3   10.39    1.84
  -5   0  -3   11.69    5.06
  -5   0  -3    6.25    3.28
  -5   0  -4    5.53    6.43
  -5   0  -5   12.58    4.67
   5   0   5   17.97    1.60
   5   1  -5    9.52    1.94
   5   1  -4   98.24    8.22
   5   1  -4  111.19    8.01
   5   1  -4   97.68    7.81
   5   1  -3   22.96    3.81
   5   1  -3   25.12    3.77
  -5  -1   3   20.69    3.04
  -5  -1   3   24.63    4.11
   5   1  -2 4887.61   43.07
   5   1  -2 5108.71   33.56
  -5  -1   2 4811.41   33.98
  -5  -1   2 4893.94   49.61
   5   1  -2 5120.15   42.13
  -5  -1   2 4930.94   35.62
   5   1  -1    5.00    1.25
   5   1  -1    6.59    1.49
  -5  -1   1    4.59    3.22
  -5  -1   1    7.47    1.33
  -5  -1   1    6.60    1.28
   5   1  -1    5.00    1.28
  -5  -1   1    8.61    1.39
  -5  -1   1    9.44    2.10
  -5  -1   1    8.13    1.48
   5   1   0   40.46    2.32
   5   1   0   44.44    2.44
  -5  -1   0   33.72    5.86
   5   1   0   40.90    2.41
  -5  -1   0   43.06    2.86
  -5  -1   0   42.28    2.84
   5   1   0   43.16    2.41
  -5  -1   0   41.80    3.17
  -5  -1   0   35.53    4.14
  -5  -1   0   42.38    2.22
   5   1   0   38.08    2.45
   5   1   1  717.50   11.03
   5   1   1  711.79    9.87
   5   1   1  706.30   10.13
  -5  -1  -1  817.10   29.61
  -5  -1  -1  756.34   12.90
  -5  -1  -1  741.04   12.84
   5   1   1  752.22   11.32
   5   1   1  729.67    9.65
  -5  -1  -1  741.57   10.18
  -5  -1  -1  667.44   21.85
   5   1   2  174.61    6.70
   5   1   2  198.53    6.60
   5   1   2  194.69    7.60
  -5  -1  -2  182.11   18.07
  -5  -1  -2  185.73    7.18
   5   1   2  197.01    6.02
  -5  -1  -2  187.21    7.23
   5   1   2  189.13    6.97
   5   1   3  154.39    6.77
   5   1   3  154.26    7.33
   5   1   3  170.97    7.58
   5   1   3  139.18    8.10
   5   1   3  145.37    6.96
  -5  -1  -3  140.07   16.24
   5   1   3  168.49    6.93
   5   1   3  155.05    7.58
  -5  -1  -3  116.12   12.32
   5   1   4  256.42    9.08
  -5  -1  -5    0.12    3.03
  -5  -1  -5   -0.90    1.13
   5   1   5    0.55    0.52
   5   2  -5   98.44    4.91
   5   2  -4  109.55    8.89
   5   2  -4  119.72    7.96
   5   2  -3    5.32    2.04
   5   2  -3    6.24    2.45
   5   2  -3    9.11    2.86
   5   2  -3    6.08    2.33
  -5  -2   3    4.58    1.48
  -5  -2   3    7.17    2.58
   5   2  -2   37.90    4.33
  -5  -2   2   32.72    4.41
  -5  -2   2   31.27    2.92
   5   2  -2   41.31    4.02
   5   2  -1  463.45   10.58
  -5  -2   1  528.49   25.52
  -5  -2   1  408.08    8.70
  -5  -2   1  413.16    8.79
   5   2  -1  460.65   14.18
  -5  -2   1  482.47   14.25
  -5  -2   1  473.05    8.54
   5   2  -1  453.87   10.18
  -5  -2   1  488.77   12.27
   5   2   0   69.12    2.44
   5   2   0   64.89    3.08
  -5  -2   0   79.77    9.19
  -5  -2   0   67.76    3.70
   5   2   0   66.89    3.22
   5   2   0   69.52    3.24
  -5  -2   0   66.14    3.65
   5   2   0   60.70    3.97
   5   2   0   64.16    3.44
  -5  -2   0   65.05    4.46
  -5  -2   0   69.75    2.65
  -5  -2   0   66.12    5.61
   5   2   1 1297.17   16.33
   5   2   1 1279.21   13.58
   5   2   1  985.44   10.26
  -5  -2  -1 1671.94   46.95
   5   2   1 1329.47   15.85
   5   2   1 1359.33   13.34
  -5  -2  -1 1372.31   18.60
  -5  -2  -1 1361.70   18.55
  -5  -2  -1 1305.75   15.88
  -5  -2  -1 1287.42   30.48
   5   2   2   32.72    2.75
   5   2   2   28.43    2.93
   5   2   2   31.06    2.74
   5   2   2   35.26    2.51
  -5  -2  -2   32.39    3.32
   5   2   2   31.80    3.13
  -5  -2  -2   31.58    3.27
  -5  -2  -2   32.38    6.42
   5   2   3  858.96   16.90
   5   2   3  858.06   18.55
   5   2   3  930.17   17.57
   5   2   3  675.92   16.62
   5   2   3  908.29   18.98
   5   2   3  836.48   17.34
   5   2   3  943.07   15.93
  -5  -2  -3  832.39   40.02
  -5  -2  -3  847.82   18.68
  -5  -2  -3  863.75   18.77
  -5  -2  -3  641.37   26.56
  -5  -2  -3  838.53   34.31
   5   2   4   44.70    4.40
   5   2   4   49.87    4.11
   5   2   4   46.37    4.13
  -5  -2  -4   26.10    7.62
  -5  -2  -4   30.72    6.72
   5   2   5    0.44    0.52
   5   3  -5    1.77    0.80
   5   3  -4    3.17    2.12
   5   3  -4    3.09    2.09
  -5  -3   3   24.79    9.10
   5   3  -3   27.09    7.36
   5   3  -3   35.00    5.56
   5   3  -3   36.16    4.54
   5   3  -3   42.15    5.91
  -5  -3   3   29.99    4.86
  -5  -3   3   28.58    3.21
  -5  -3   2  121.33   15.95
   5   3  -2  115.20    8.00
   5   3  -2  118.22    6.89
  -5  -3   2  104.06    8.27
  -5  -3   2   96.61    4.91
  -5  -3   1    1.58    2.52
  -5  -3   1   -0.38    0.40
  -5  -3   1   -0.39    0.40
   5   3  -1   -0.08    0.51
   5   3  -1   -0.55    0.93
  -5  -3   1    0.09    0.59
  -5  -3   1    0.41    0.63
  -5  -3   1    0.85    1.45
   5   3   0  175.18    5.26
  -5  -3   0  157.49    5.88
   5   3   0  162.43    5.25
  -5  -3   0  157.37    5.87
  -5  -3   0  162.03    9.50
  -5  -3   0  166.66    3.81
   5   3   0  160.32    7.70
  -5  -3   0  161.98    7.98
   5   3   0  166.49    5.98
   5   3   1   29.09    2.68
   5   3   1   30.72    2.23
  -5  -3  -1   30.48    8.33
   5   3   1   31.29    2.57
  -5  -3  -1   32.33    3.14
   5   3   1   30.13    2.08
  -5  -3  -1   31.73    3.09
  -5  -3  -1   29.88    3.00
  -5  -3  -1   35.40    5.65
   5   3   2   15.54    2.39
   5   3   2   14.74    1.89
  -5  -3  -2   10.31    6.27
   5   3   2   14.86    2.14
  -5  -3  -2   16.51    2.62
  -5  -3  -2   14.13    2.43
  -5  -3  -2   15.87    4.85
   5   3   3   72.79    5.34
   5   3   3   81.46    5.90
   5   3   3   73.05    5.28
   5   3   3   77.65    5.03
   5   3   3   71.05    5.43
  -5  -3  -3   75.40    6.01
  -5  -3  -3   81.90   13.25
   5   3   3   74.25    5.63
  -5  -3  -3   76.88    6.06
  -5  -3  -3   47.95    7.84
  -5  -3  -3   88.27   11.82
   5   3   4   22.43    2.97
   5   3   4   21.69    3.00
   5   3   4   26.97    3.29
   5   3   5    0.79    0.55
   5   3   5   -0.18    0.53
  -5  -3  -5   -1.99    3.01
   5   3   5   -0.27    0.52
   5   3   5    0.15    0.38
   5   4  -4    0.43    1.52
   5   4  -4    0.84    1.20
   5   4  -3   16.75    6.46
   5   4  -3   24.43    4.47
   5   4  -3   28.25    3.80
  -5  -4   2   16.45    6.01
   5   4  -2   28.07    4.28
   5   4  -2   22.01    3.17
   5   4  -2   27.75    7.81
   5   4  -2   10.99    5.13
   5   4  -2   24.41    4.17
  -5  -4   2   32.04    4.93
  -5  -4   1   26.02    7.41
   5   4  -1   25.89    3.41
   5   4  -1   24.17    4.14
  -5  -4   1   25.63    4.04
  -5  -4   1   22.73    3.76
   5   4  -1   27.52    2.96
  -5  -4   0  139.10    5.95
  -5  -4   0  134.34    5.86
   5   4   0  147.01    8.63
  -5  -4   0  163.82   11.00
  -5  -4   0  143.98    8.59
   5   4   0  153.67    6.28
   5   4   1   74.21    4.60
  -5  -4  -1   84.99   13.22
   5   4   1   73.08    4.03
  -5  -4  -1   74.77    5.06
  -5  -4  -1   73.94    5.03
  -5  -4  -1   82.96    9.28
  -5  -4  -1   77.88    5.57
   5   4   2    2.03    0.98
   5   4   2    1.60    0.80
   5   4   2    0.81    0.64
  -5  -4  -2    0.65    1.97
   5   4   2   -0.06    0.85
   5   4   2    0.61    0.42
   5   4   2    0.22    0.45
  -5  -4  -2    3.24    2.78
  -5  -4  -2   -0.63    0.63
  -5  -4  -2    0.44    0.80
  -5  -4  -2    0.94    2.92
   5   4   2    0.21    0.84
   5   4   2    1.41    0.92
  -5  -4  -2    0.63    0.77
  -5  -4  -2   -5.40    2.88
   5   4   2    2.68    1.20
  -5  -4  -2    2.36    3.15
  -5  -4  -2    2.62    2.06
   5   4   3   25.45    3.44
   5   4   3   20.89    2.76
   5   4   3   22.15    3.04
   5   4   3   20.65    3.23
   5   4   3   18.04    2.77
  -5  -4  -3   18.57    7.30
   5   4   3   24.69    3.36
   5   4   3   25.27    3.32
  -5  -4  -3   26.98    3.88
  -5  -4  -3   24.50    3.69
  -5  -4  -3   22.13    6.62
   5   4   3   21.96    3.05
  -5  -4  -3   13.11    4.79
  -5  -4  -3   28.97    8.20
   5   4   4    0.05    0.76
   5   4   4   -1.09    0.89
   5   4   4    0.60    1.01
   5   4   4   -2.39    1.18
  -5  -4  -4    1.97    2.76
   5   4   5    5.87    0.96
   5   4   5    4.69    0.94
  -5  -4  -5    5.89    3.54
   5   4   5    5.93    1.00
   5   5  -4    0.71    0.82
   5   5  -4   -0.12    0.95
   5   5  -3  144.12    7.26
   5   5  -3  169.62   10.87
   5   5  -2    2.28    1.75
   5   5  -2   -7.37    4.72
   5   5  -2    0.11    1.28
  -5  -5   2    3.02    5.85
   5   5  -2    0.55    1.14
  -5  -5   2   -0.59    1.57
  -5  -5   1   -0.91    3.67
   5   5  -1    3.34    1.93
   5   5  -1   -0.31    1.08
   5   5  -1   -1.82    3.25
   5   5  -1    0.04    1.10
   5   5  -1    0.35    1.06
  -5  -5   1    0.56    0.92
  -5  -5   0    0.12    0.75
  -5  -5   0    2.71    3.05
   5   5   0    4.23    1.86
   5   5   0    3.23    1.24
   5   5   0    5.71    1.45
  -5  -5   0    3.95    2.09
   5   5   0    3.35    1.75
  -5  -5   0    2.58    1.23
   5   5   1   62.10    4.40
   5   5   1   60.06    5.51
  -5  -5  -1   76.83   13.88
   5   5   1   66.11    4.80
  -5  -5  -1   55.15    4.60
  -5  -5  -1   54.60    4.61
  -5  -5  -1   82.26    9.47
  -5  -5  -1   61.10    5.62
  -5  -5  -1   61.18    8.66
   5   5   1   55.17    5.08
   5   5   1   62.65    4.60
   5   5   2   22.26    2.91
   5   5   2   24.94    3.19
   5   5   2   29.21    3.97
   5   5   2   27.24    3.15
  -5  -5  -2    0.37    0.60
  -5  -5  -2   16.18    3.72
  -5  -5  -2   44.74   12.50
  -5  -5  -2   28.45    7.76
   5   5   2   22.84    2.78
   5   5   2   21.89    3.05
  -5  -5  -2   23.12    3.38
  -5  -5  -2   25.48    3.54
  -5  -5  -2   33.65    7.01
   5   5   2   20.50    3.15
  -5  -5  -2   21.13    4.89
  -5  -5  -2   26.40    7.18
   5   5   3   41.27    4.09
  -5  -5  -3   44.83    6.85
   5   5   3   41.12    4.68
   5   5   3   42.40    4.10
  -5  -5  -3   37.59    9.74
   5   5   3   43.74    4.27
  -5  -5  -3   28.38    6.06
   5   5   3   37.15    4.20
  -5  -5  -3   36.88    8.36
   5   5   4    8.08    1.75
   5   5   4    9.11    1.88
   5   5   4    8.38    1.86
   5   5   4    8.69    1.80
  -5  -5  -4    6.09    3.71
  -5  -5  -4    4.23    2.98
   5   6  -3   -0.96    1.55
   5   6  -3   -0.18    1.31
   5   6  -2    2.27    2.18
   5   6  -2   -0.26    1.29
   5   6  -2    0.96    3.73
   5   6  -1    0.04    1.19
   5   6  -1    2.38    2.55
  -5  -6   1    7.58    7.12
   5   6  -1    5.66    5.04
   5   6  -1   -1.22    1.20
   5   6  -1   -3.39    1.96
  -5  -6   1   -0.48    0.90
   5   6   0   64.59    8.24
   5   6   0   73.58   12.26
  -5  -6   0   68.16    7.14
   5   6   0   60.85    7.05
  -5  -6   0   71.85    8.95
   5   6   0   72.64    5.62
   5   6   1   96.07    5.85
   5   6   1   93.46    7.73
  -5  -6  -1  121.13   19.24
   5   6   1  179.69   13.30
  -5  -6  -1   -1.60    1.02
   5   6   1   96.51    6.27
  -5  -6  -1   82.08    5.77
  -5  -6  -1  142.68   16.02
  -5  -6  -1   75.47    5.57
  -5  -6  -1  120.32   12.22
  -5  -6  -1  109.48   12.44
   5   6   1   95.61    6.11
   5   6   2   39.58    3.80
   5   6   2   48.69    4.19
   5   6   2   43.64    5.09
   5   6   2   44.90    4.36
  -5  -6  -2   52.19   10.83
  -5  -6  -2   50.49    8.79
   5   6   2   41.14    4.75
  -5  -6  -2   37.12    6.14
   5   6   3    0.02    0.74
   5   6   3    0.61    0.92
  -5  -6  -3   -0.16    1.87
   5   6   3   -0.49    1.33
  -5  -6  -3   -3.63    3.63
   5   6   3   -0.24    0.95
  -5  -6  -3   -2.07    2.54
   5   6   3    1.19    1.22
  -5  -6  -3    1.97    1.63
   5   6   4    0.05    0.58
   5   6   4    1.22    0.75
   5   6   4    0.25    0.55
   5   6   4   -0.63    0.97
  -5  -6  -4   -1.05    2.35
  -5  -6  -4    0.16    1.52
   5   7  -3    8.22    1.47
   5   7  -2    2.02    1.45
   5   7  -2    5.37    2.33
   5   7  -1   85.69    7.01
   5   7  -1   79.70   13.96
   5   7   0 1552.15   41.32
   5   7   0  235.72   10.76
   5   7   1   11.61    3.29
   5   7   1   25.47    5.57
   5   7   1   10.13    2.22
  -5  -7  -1   15.71    5.83
  -5  -7  -1   14.54    4.26
   5   7   1   10.77    2.17
   5   7   2   88.87    5.21
  -5  -7  -2  122.81   11.34
   5   7   2  108.40    5.99
   5   7   2  114.98    8.36
  -5  -7  -2   98.00   10.81
   5   7   2  108.01    6.55
  -5  -7  -2  107.42   14.53
  -5  -7  -2  127.30   13.35
   5   7   3    0.72    0.75
  -5  -7  -3   -1.72    1.64
   5   7   3    1.07    0.79
   5   7   3   -0.11    0.84
  -5  -7  -3    3.21    3.37
   5   7   3    0.43    0.84
  -5  -7  -3   -0.01    2.37
  -5  -7  -3    0.39    1.55
   5   7   4    5.26    0.95
   5   7   4    4.74    0.89
   5   7   4    4.39    1.03
   5   7   4    6.24    1.15
   5   8  -2   -0.22    0.57
   5   8  -1  349.66   11.61
   5   8  -1    7.61    3.13
   5   8   0   96.76    6.30
  -5  -8   0  111.50   12.28
  -5  -8  -1   10.15    4.48
  -5  -8  -1    8.09    3.23
  -5  -8  -2   27.93    4.84
   5   8   2   27.46    3.94
   5   8   2   27.68    3.02
  -5  -8  -2   27.89    5.09
  -5  -8  -2   26.09    6.55
   5   8   2   26.76    2.61
  -5  -8  -2   23.50    5.17
   5   8   3    1.42    1.07
   5   8   3   -0.31    0.29
   5   8   3    0.77    0.51
  -5  -8  -3    1.24    1.53
   5   9  -1   30.26    4.10
  -5  -9   0   29.11    4.10
  -5  -9   0   29.83    5.08
  -5  -9  -1    1.30    1.50
   5   9   1    0.36    1.26
  -5  -9  -1    0.26    1.93
  -5  -9  -1    1.43    1.19
  -5  -9  -2   19.68    3.10
  -5  -9  -2   18.17    4.43
  -5  -9  -2   15.46    3.30
   6 -10  -1    9.31    1.89
   6  -9  -3   37.17    3.54
   6  -9  -3   40.71    4.18
   6  -9  -2   -0.28    0.94
   6  -9  -2    0.53    1.05
   6  -9  -2   -0.97    1.63
   6  -9  -2    2.48    1.82
   6  -9  -1    4.57    1.56
   6  -9  -1    6.47    1.84
   6  -9  -1    8.67    2.64
  -6   9   0   12.21    4.14
  -6   9   0   17.05    4.50
   6  -9   0    8.13    1.98
   6  -9   0    9.73    2.48
  -6   9  -1    8.98    3.42
  -6   8   3   17.28    3.20
  -6   8   3   14.70    2.21
   6  -8  -3   17.19    3.52
   6  -8  -3   17.34    3.86
  -6   8   3   13.41    2.02
   6  -8  -3   18.27    3.99
   6  -8  -3   15.89    2.88
  -6   8   2   21.45    3.97
   6  -8  -2   20.50    4.34
   6  -8  -2   19.26    4.12
   6  -8  -2   27.10    5.35
   6  -8  -2   17.43    3.21
  -6   8   1    0.71    2.84
   6  -8  -1   -0.36    1.29
   6  -8  -1    0.13    1.65
   6  -8  -1    1.91    2.47
   6  -8  -1    4.08    1.75
  -6   8   0   12.94    6.08
  -6   8   0   13.15    3.63
   6  -8   0   11.16    2.66
   6  -8   0   13.40    3.22
  -6   8  -1   40.67    9.87
  -6   8  -1  151.90   12.00
  -6   8  -2   15.61    4.85
  -6   7   4   21.44    2.20
  -6   7   4   20.76    2.99
  -6   7   4   13.85    1.96
  -6   7   4   22.31    2.77
   6  -7  -4   19.69    3.41
   6  -7  -4   17.68    3.57
  -6   7   4   20.30    2.64
   6  -7  -4   13.42    2.85
  -6   7   3  172.50    9.17
  -6   7   3  135.48    7.35
  -6   7   3  181.69   11.37
   6  -7  -3  170.59   12.37
  -6   7   3  180.33   10.34
   6  -7  -3  183.70   13.66
   6  -7  -3  171.48   11.59
  -6   7   3  158.58    8.44
   6  -7  -3  198.33   14.18
  -6   7   2    4.07    1.64
  -6   7   2    5.20    2.44
   6  -7  -2    7.02    3.21
  -6   7   2    7.77    4.07
   6  -7  -2    7.15    3.14
   6  -7  -2    5.52    2.35
   6  -7  -2    8.09    3.53
  -6   7   2    5.49    2.12
  -6   7   1   -0.28    1.36
   6  -7  -1    0.36    1.85
  -6   7   1    2.04    3.17
   6  -7  -1    3.01    2.40
  -6   7   1    0.33    1.17
   6  -7  -1   -0.20    1.10
  -6   7   0  107.06   11.41
   6  -7   0   98.64    7.75
  -6   7  -1    2.10    3.14
  -6   7  -1  182.90   23.09
  -6   7  -2   25.90    7.50
  -6   7  -2   42.23   10.56
  -6   7  -3    0.30    1.28
  -6   7  -3   -0.08    1.83
  -6   6   4   18.46    3.04
  -6   6   4   25.81    3.46
  -6   6   4   22.64    3.61
   6  -6  -4   22.90    4.29
   6  -6  -4   23.30    3.17
   6  -6  -4   19.20    4.50
  -6   6   4   21.96    3.33
   6  -6  -4   18.79    3.90
   6  -6  -4   24.39    4.47
  -6   6   3   69.03    7.53
  -6   6   3   69.42    6.46
  -6   6   3   55.18    5.56
  -6   6   3   80.67    7.45
   6  -6  -3   71.91    8.94
   6  -6  -3   69.41    5.88
  -6   6   3   85.56    7.66
   6  -6  -3   77.76    9.79
   6  -6  -3   70.35    9.19
  -6   6   3   67.29    6.38
   6  -6  -3   73.80    8.44
  -6   6   2   87.56    8.21
  -6   6   2   84.37    6.61
   6  -6  -2   79.75    8.53
  -6   6   2   92.13    7.88
  -6   6   2   98.42   12.23
   6  -6  -2   87.31    9.46
   6  -6  -2  104.93   10.62
   6  -6  -2   91.85    7.82
  -6   6   2   88.86    7.80
   6  -6  -2   91.80    9.94
   6  -6  -2   95.41    8.01
   6  -6  -2   95.12    8.94
   6  -6  -2  105.13   11.06
  -6   6   2   72.10    6.04
   6  -6  -1   49.19    6.87
  -6   6   1   49.18    5.78
  -6   6   1   22.13    7.73
  -6   6   1   50.77    5.41
  -6   6   1   51.00    8.53
   6  -6  -1   53.03    5.34
  -6   6   1   49.06    5.45
   6  -6  -1   53.45    7.14
   6  -6  -1   48.73    5.13
   6  -6  -1   52.35    6.16
   6  -6  -1   56.72    7.90
   6  -6   0   66.74    7.95
  -6   6   0   48.26   12.04
  -6   6   0   65.18    8.91
   6  -6   0   69.83    7.88
   6  -6   0   67.45    8.87
  -6   6  -1   17.82    7.84
  -6   6  -1   16.51    8.32
  -6   6  -1   20.11    4.69
   6  -6   1   27.05    4.96
   6  -6   1   24.10    5.62
  -6   6  -2   77.66   15.46
  -6   6  -2   60.05   14.38
  -6   6  -3  104.61   13.10
  -6   6  -3   67.48   12.14
  -6   5   5   57.12    3.56
  -6   5   5   47.69    3.77
   6  -5  -5   55.54    3.82
  -6   5   5   58.47    4.04
  -6   5   4   69.49    6.66
  -6   5   4   63.09    6.30
  -6   5   4   80.64    6.72
   6  -5  -4   74.43    7.83
   6  -5  -4   68.49    6.18
  -6   5   4   72.53    6.21
   6  -5  -4   69.77    9.25
   6  -5  -4   63.25    7.51
   6  -5  -4   70.83    8.19
  -6   5   4   79.74    6.98
  -6   5   3    6.10    2.17
  -6   5   3    5.37    2.41
  -6   5   3    7.87    2.72
  -6   5   3    7.06    2.43
   6  -5  -3    7.44    3.42
   6  -5  -3    6.94    2.28
   6  -5  -3    5.68    3.48
   6  -5  -3    6.03    2.79
  -6   5   3   11.14    2.86
  -6   5   3    6.80    2.46
   6  -5  -3    6.19    3.10
   6  -5  -3    7.12    2.54
   6  -5  -2   18.82    3.99
  -6   5   2   22.59    4.07
  -6   5   2   23.11    3.59
   6  -5  -2   21.97    3.48
  -6   5   2   20.18    3.71
  -6   5   2   25.76    6.19
   6  -5  -2   29.26    5.59
   6  -5  -2   26.01    3.98
   6  -5  -2   23.29    4.89
   6  -5  -2   22.44    4.61
   6  -5  -2   26.19    4.13
  -6   5   2   20.39    3.65
   6  -5  -2   22.33    4.37
  -6   5   2   17.94    3.16
   6  -5  -2   19.52    3.47
   6  -5  -1   22.63    4.47
   6  -5  -1   22.17    3.44
  -6   5   1   29.66    6.03
   6  -5  -1   24.80    3.50
   6  -5  -1   26.22    3.62
   6  -5  -1   27.46    4.84
   6  -5  -1   29.29    5.08
   6  -5  -1   30.59    4.49
   6  -5   0   97.04    8.73
   6  -5   0   87.38    6.26
  -6   5   0   97.08   10.02
   6  -5   0   93.83    5.85
   6  -5   0   97.48    8.78
   6  -5   0   95.94    5.94
   6  -5   0   92.76    9.76
   6  -5   1    6.98    1.86
   6  -5   1    8.38    2.89
  -6   5  -1    9.67    7.01
  -6   5  -1   -5.63    3.42
  -6   5  -1    7.27    4.60
  -6   5  -1    8.95    3.27
   6  -5   1    8.04    2.72
  -6   5  -1   11.26    3.14
  -6   5  -2  478.53   20.83
  -6   5  -2  461.40   36.59
  -6   5  -2  404.58   36.85
  -6   5  -3    4.17    5.85
  -6   5  -3   -0.46    3.98
  -6   5  -3   -1.13    2.78
  -6   5  -4    1.64    2.66
  -6   4   5   -0.43    0.98
  -6   4   5    0.88    0.79
   6  -4  -5   -0.26    0.82
  -6   4   5    0.65    0.87
  -6   4   5   -0.38    0.74
  -6   4   4   -0.01    1.00
  -6   4   4    2.02    1.62
  -6   4   4    2.06    1.96
   6  -4  -4    0.14    1.52
   6  -4  -4    4.15    2.23
   6  -4  -4    3.51    3.73
  -6   4   4    1.51    1.39
  -6   4   4    0.44    1.09
   6  -4  -4    2.21    2.51
  -6   4   3    1.60    1.41
  -6   4   3    0.13    1.45
  -6   4   3   -1.44    1.29
   6  -4  -3   -0.22    1.40
  -6   4   3   -3.02    1.69
   6  -4  -3    0.67    1.85
   6  -4  -3    0.04    1.16
   6  -4  -3   -1.18    2.24
   6  -4  -3   -2.17    1.79
   6  -4  -3   -0.41    1.24
   6  -4  -3    1.30    1.85
  -6   4   3   -0.09    1.01
   6  -4  -3    1.35    1.70
  -6   4   3    0.25    0.69
   6  -4  -3    2.09    1.57
  -6   4   2   37.52    4.92
   6  -4  -2   29.21    4.39
  -6   4   2   51.22    5.89
   6  -4  -2   37.61    5.13
  -6   4   2   35.53    4.50
   6  -4  -2   38.00    4.61
  -6   4   2   33.71    4.40
   6  -4  -2   41.70    5.93
   6  -4  -2   36.54    4.52
  -6   4   2   36.72    5.61
   6  -4  -2   34.66    5.27
  -6   4   2   29.70    2.45
   6  -4  -1  690.04   21.06
   6  -4  -1  738.50   18.63
   6  -4  -1  723.30   17.19
   6  -4  -1  827.31   23.51
  -6   4   1  743.94   23.17
   6  -4  -1  795.52   23.00
  -6   4   1  674.69   10.25
   6  -4   0   34.49    4.81
   6  -4   0   35.12    3.65
   6  -4   0   37.20    3.37
   6  -4   0   38.16    2.74
  -6   4   0   46.01    4.15
   6  -4   0   40.25    5.17
   6  -4   1    8.75    1.92
   6  -4   1   10.57    2.73
   6  -4   1   11.63    1.62
   6  -4   1   11.06    2.80
  -6   4  -1   14.13    3.40
   6  -4   2   69.51    5.58
  -6   4  -2   47.31   10.60
  -6   4  -2   62.59   12.89
  -6   4  -2   69.01    7.59
  -6   4  -2   73.24   16.38
   6  -4   2   67.33    7.34
   6  -4   2   81.28    4.72
  -6   4  -3    5.87    7.36
  -6   4  -3   -1.48    4.40
  -6   4  -3    3.87    5.12
  -6   4  -4   10.74    5.62
  -6   4  -4    4.38    3.26
   6  -3  -5    3.25    1.45
   6  -3  -5    4.18    1.63
  -6   3   5    3.76    1.24
  -6   3   5    2.53    1.30
  -6   3   5    3.77    1.37
  -6   3   4   18.27    3.64
  -6   3   4   18.58    3.57
   6  -3  -4   16.90    3.59
   6  -3  -4   12.00    4.36
   6  -3  -4   11.11    3.56
  -6   3   3   -0.53    0.73
  -6   3   3    0.21    1.24
   6  -3  -3    2.47    2.11
  -6   3   3    0.23    0.87
   6  -3  -3   -0.25    0.95
   6  -3  -3    2.42    1.69
   6  -3  -3    1.76    1.24
   6  -3  -3    0.23    2.57
   6  -3  -3    3.23    1.64
   6  -3  -3    0.56    1.91
  -6   3   3    0.73    1.56
  -6   3   3    1.26    0.91
  -6   3   3    1.42    1.09
   6  -3  -3    1.74    1.48
   6  -3  -2   27.84    3.91
  -6   3   2   72.04    8.09
   6  -3  -2   34.92    4.75
  -6   3   2   66.32    9.79
   6  -3  -2   36.23    4.21
   6  -3  -2   41.98    5.23
  -6   3   2   33.70    4.95
  -6   3   2   29.55    2.63
   6  -3  -1   42.46    4.78
   6  -3  -1   44.37    4.32
   6  -3  -1   45.34    4.00
   6  -3  -1   39.26    3.18
   6  -3  -1   48.46    5.16
  -6   3   1   51.24    4.64
  -6   3   1   46.29    5.23
  -6   3   1   38.32    2.48
   6  -3  -1   39.49    4.42
   6  -3   0    9.28    1.34
   6  -3   0   10.38    2.54
   6  -3   0    9.47    1.89
   6  -3   0    9.07    1.66
   6  -3   0    6.52    1.13
  -6   3   0   11.99    2.03
   6  -3   0   10.19    2.67
  -6   3   0    9.00    1.39
  -6   3   0   10.79    2.60
   6  -3   1   18.55    3.08
   6  -3   1   17.29    1.74
   6  -3   1   15.11    2.31
  -6   3  -1   11.97    1.76
   6  -3   1   16.33    1.84
   6  -3   1   14.24    3.10
  -6   3  -1   15.65    3.14
   6  -3   2    2.07    1.13
   6  -3   2    1.54    0.69
  -6   3  -2    2.53    3.41
  -6   3  -2    1.01    1.33
   6  -3   2    2.28    0.95
  -6   3  -3   19.62    9.43
  -6   3  -3    7.14    5.47
  -6   3  -3   23.44    4.44
  -6   3  -4   12.10    5.61
   6  -2  -5    8.20    2.12
   6  -2  -5    9.51    2.40
  -6   2   5    8.12    1.94
  -6   2   4   34.06    4.85
  -6   2   4   30.50    4.57
   6  -2  -4   33.86    5.01
   6  -2  -4   24.07    5.53
   6  -2  -4   25.81    4.85
  -6   2   3    6.27    2.85
  -6   2   3    2.99    1.34
   6  -2  -3    4.36    2.41
  -6   2   3    6.12    1.88
   6  -2  -3    5.08    2.00
   6  -2  -3    6.38    2.91
   6  -2  -3    3.77    1.56
   6  -2  -3    3.33    1.53
   6  -2  -3    4.16    2.11
  -6   2   3    4.21    2.07
   6  -2  -3    5.37    2.52
  -6   2   3    2.27    1.30
  -6   2   3    5.36    1.69
   6  -2  -2   92.20    7.35
   6  -2  -2   79.95    6.04
   6  -2  -2   88.03    6.20
   6  -2  -2  101.97    7.11
  -6   2   2   85.76    7.08
  -6   2   2   79.56    4.32
   6  -2  -2   84.99    5.73
   6  -2  -1   46.08    4.31
   6  -2  -1   44.82    4.50
  -6   2   1   36.57    4.90
   6  -2  -1   50.96    3.97
   6  -2  -1   47.29    3.50
   6  -2  -1   49.49    4.60
  -6   2   1   54.15    4.37
  -6   2   1   48.87    4.71
  -6   2   1   43.27    2.67
   6  -2  -1   50.75    4.02
   6  -2  -1   46.31    3.40
   6  -2   0  152.71    7.96
   6  -2   0  149.11    4.80
   6  -2   0  146.08    5.99
   6  -2   0  132.02    7.34
   6  -2   0  143.49    4.78
  -6   2   0  162.04    6.64
  -6   2   0  162.57    6.71
  -6   2   0  158.26    8.06
  -6   2   0  149.91    4.96
   6  -2   0  145.58    4.46
   6  -2   1   26.08    3.24
   6  -2   1   22.83    1.95
   6  -2   1   23.07    2.65
   6  -2   1   25.76    2.08
  -6   2  -1   24.00    2.44
   6  -2   1   25.49    2.21
  -6   2  -1   24.46    2.47
   6  -2   2  102.90    4.80
   6  -2   2   93.51    6.21
   6  -2   2  100.41    4.56
   6  -2   2  110.45    5.16
   6  -2   3    2.09    1.29
   6  -2   3    3.43    1.14
  -6   2  -3    0.58    4.44
  -6   2  -3    0.61    1.20
  -6   2  -3    1.72    4.73
   6  -2   3    4.30    1.31
  -6   2  -4   78.69    6.89
  -6   2  -4  118.73   17.59
   6  -1  -5   17.16    2.89
   6  -1  -5   15.30    2.65
  -6   1   5   15.73    2.65
   6  -1  -4   45.51    5.68
  -6   1   4   42.55    5.28
   6  -1  -3   17.44    3.55
   6  -1  -3   17.50    3.41
  -6   1   3   19.48    3.16
  -6   1   3   14.80    3.44
  -6   1   3   15.25    2.50
   6  -1  -3   16.35    3.69
   6  -1  -2   76.77    5.72
  -6   1   2   90.71    6.00
   6  -1  -2   90.98    5.72
  -6   1   2   84.33    6.71
  -6   1   2   78.33    4.43
   6  -1  -2   89.43    5.87
   6  -1  -1    5.31    0.82
   6  -1  -1    0.46    0.91
   6  -1  -1   -0.37    1.01
  -6   1   1    0.45    2.04
  -6   1   1    0.69    1.50
   6  -1  -1    0.28    0.98
   6  -1  -1    0.06    0.76
  -6   1   1   -0.14    0.80
  -6   1   1    0.17    0.98
  -6   1   1    0.67    0.80
   6  -1  -1    4.65    1.28
   6  -1   0    3.02    1.06
   6  -1   0    4.88    1.03
   6  -1   0    7.05    1.77
  -6   1   0    3.99    1.77
  -6   1   0    3.15    1.08
   6  -1   0    5.83    1.15
   6  -1   0    4.51    1.01
  -6   1   0    4.18    1.25
   6  -1   0    4.55    0.91
  -6   1   0    3.71    1.37
  -6   1   0    5.83    1.14
   6  -1   1  500.36    8.93
   6  -1   1  561.67   13.53
   6  -1   1  529.93   11.06
  -6   1  -1  519.36   10.90
   6  -1   1  510.26    9.57
  -6   1  -1  522.82   10.92
   6  -1   1  530.59    9.32
  -6   1  -1  548.59   12.43
   6  -1   1  526.29    7.49
   6  -1   2   11.51    1.51
   6  -1   2   12.80    1.84
   6  -1   2   11.77    2.28
  -6   1  -2   13.43    1.87
   6  -1   2   10.73    1.74
   6  -1   2   13.50    1.88
  -6   1  -2   12.36    1.85
  -6   1  -2    5.84    6.50
   6  -1   3   51.25    4.06
   6  -1   3   41.10    4.52
   6  -1   3   42.34    3.64
   6  -1   3   56.48    4.31
  -6   1  -4    0.47    4.78
  -6   1  -4    3.17    2.11
   6   0  -5   -2.24    1.11
   6   0  -5   -0.93    1.69
  -6   0   5    0.70    0.80
   6   0  -4   34.00    4.61
   6   0  -4   40.16    5.53
   6   0  -4   42.72    5.46
   6   0  -3  167.74    9.52
   6   0  -3  205.07   11.05
  -6   0   3  173.68   11.11
  -6   0   3  171.59    8.05
   6   0  -3  168.24   10.89
   6   0  -2  994.53   18.06
   6   0  -2 1046.40   18.18
  -6   0   2 1004.71   18.58
  -6   0   2  993.60   23.07
  -6   0   2 1008.70   16.01
   6   0  -2 1070.10   20.09
   6   0  -1 2064.35   28.07
   6   0  -1 2078.96   18.58
   6   0  -1 2111.89   22.94
   6   0  -1 2069.54   18.29
  -6   0   1 2092.91   23.27
  -6   0   1 2101.33   23.20
  -6   0   1 2049.75   27.68
  -6   0   1 2084.13   18.78
   6   0  -1 2123.43   22.31
   6   0   0   64.63    3.14
   6   0   0   66.20    3.55
   6   0   0   75.35    5.18
  -6   0   0   68.69    7.29
   6   0   0   74.34    3.56
   6   0   0   61.41    3.13
  -6   0   0   70.79    4.05
  -6   0   0   71.61    4.06
  -6   0   0   69.00    4.36
  -6   0   0   75.18    3.28
   6   0   0   66.63    3.27
   6   0   1 1001.66   13.05
   6   0   1  985.62   12.36
   6   0   1 1012.87   14.13
  -6   0  -1  953.20   30.78
   6   0   1 1031.84   13.70
  -6   0  -1 1055.00   15.86
  -6   0  -1 1056.68   15.96
   6   0   1  989.53   12.58
  -6   0  -1 1126.83   15.30
   6   0   1  990.82   11.99
   6   0   2  280.22    7.95
   6   0   2  306.32    8.38
   6   0   2  295.98    9.78
   6   0   2  292.34    8.71
   6   0   2  312.30    8.18
  -6   0  -2  294.80    8.97
  -6   0  -2  289.83    8.92
   6   0   3   38.09    3.58
   6   0   3   29.30    3.75
   6   0   3   39.23    3.74
  -6   0  -3   31.77    8.14
   6   0   3   40.97    3.60
   6   0   4   75.74    4.78
  -6   0  -5    1.80    1.56
   6   1  -5   -1.71    1.32
   6   1  -4   42.76    5.39
   6   1  -4   48.05    5.49
   6   1  -4   45.76    5.52
   6   1  -3  147.44    9.48
  -6  -1   3  145.24   10.41
  -6  -1   3  137.98    7.25
   6   1  -3  152.63    9.36
   6   1  -2  297.39   10.85
   6   1  -2  324.18    9.47
  -6  -1   2  294.86    9.33
  -6  -1   2  322.58   13.67
  -6  -1   2  299.34    8.81
   6   1  -2  329.28   11.51
   6   1  -1  254.68    7.27
   6   1  -1  286.36    8.72
  -6  -1   1  252.02    7.75
  -6  -1   1  248.05    7.73
  -6  -1   1  286.53   10.79
  -6  -1   1  279.65    6.89
   6   1  -1  271.70    8.16
   6   1   0    1.02    0.69
   6   1   0    0.19    0.62
  -6  -1   0    1.24    2.18
  -6  -1   0    1.23    0.96
   6   1   0    4.40    1.29
  -6  -1   0    0.72    0.87
   6   1   0    3.01    1.04
   6   1   0    1.23    0.77
  -6  -1   0    0.50    0.90
  -6  -1   0    0.32    1.47
  -6  -1   0    1.76    0.82
   6   1   1   84.62    4.21
   6   1   1   89.53    3.81
   6   1   1   73.00    3.48
  -6  -1  -1  113.38   12.32
   6   1   1   89.13    4.19
   6   1   1   82.41    3.57
  -6  -1  -1   91.58    4.89
  -6  -1  -1   93.75    4.96
  -6  -1  -1   96.05    4.27
  -6  -1  -1   76.10    8.21
   6   1   1   76.21    3.67
   6   1   2  573.65   12.19
   6   1   2  609.34   11.84
   6   1   2  592.49   12.88
   6   1   2  573.45   12.61
   6   1   2  591.50   10.97
  -6  -1  -2  604.83   13.74
  -6  -1  -2  595.25   13.67
   6   1   3   79.69    4.83
   6   1   3   78.62    5.23
   6   1   3   90.78    5.57
   6   1   3   62.79    5.29
   6   1   3   83.36    5.58
   6   1   3   87.76    5.10
  -6  -1  -3   62.44   11.21
  -6  -1  -3   67.99    9.79
   6   1   4   72.23    5.04
  -6  -1  -5   -0.36    2.00
  -6  -1  -5   -2.14    1.15
   6   1   5   -1.32    0.53
   6   2  -5   84.77    4.28
   6   2  -4   46.51    5.60
   6   2  -4   46.71    5.06
   6   2  -3   12.58    3.27
   6   2  -3   18.00    3.65
   6   2  -3   14.02    2.99
  -6  -2   3    3.79    5.39
   6   2  -3   11.34    2.97
  -6  -2   3   13.06    3.19
  -6  -2   3   11.22    2.20
  -6  -2   2   16.08    6.44
   6   2  -2   21.78    3.34
  -6  -2   2   23.28    3.91
  -6  -2   2   17.39    2.28
   6   2  -2   24.92    3.36
   6   2  -1    0.39    0.81
  -6  -2   1   -0.21    2.18
  -6  -2   1    0.21    0.67
  -6  -2   1   -0.02    0.47
   6   2  -1    0.39    0.64
  -6  -2   1   -0.16    1.09
  -6  -2   1    0.55    0.68
   6   2   0   11.76    1.54
  -6  -2   0    9.20    4.52
   6   2   0   12.53    1.63
   6   2   0   12.01    1.68
  -6  -2   0   13.40    1.86
  -6  -2   0   12.26    1.79
  -6  -2   0   12.43    2.18
  -6  -2   0   14.56    1.44
  -6  -2   0   13.23    2.96
   6   2   0   13.35    1.76
   6   2   1   42.10    3.08
   6   2   1   41.74    2.72
   6   2   1   31.22    2.08
  -6  -2  -1   37.01    8.36
   6   2   1   41.88    3.03
   6   2   1   39.89    2.59
  -6  -2  -1   46.30    3.74
  -6  -2  -1   43.15    3.60
  -6  -2  -1   41.48    3.15
  -6  -2  -1   40.62    6.21
   6   2   2   13.65    2.12
   6   2   2   13.62    1.86
   6   2   2    9.89    1.52
  -6  -2  -2    5.63    4.77
   6   2   2   14.08    2.17
   6   2   2   14.84    1.78
  -6  -2  -2   13.97    2.30
  -6  -2  -2   13.90    2.29
  -6  -2  -2   14.21    4.62
   6   2   3  662.12   15.00
   6   2   3  722.44   16.60
   6   2   3  682.82   15.35
   6   2   3  780.33   16.18
   6   2   3  714.36   14.19
   6   2   3  733.99   17.22
   6   2   3  701.27   15.62
  -6  -2  -3  648.76   36.67
  -6  -2  -3  693.62   17.25
  -6  -2  -3  692.01   17.26
  -6  -2  -3  660.46   31.20
   6   2   4    1.31    0.60
   6   2   4    1.96    1.16
   6   2   4    3.35    1.21
  -6  -2  -5    2.41    1.10
   6   2   5    1.90    0.58
   6   2   5    4.35    0.87
   6   3  -4   -0.55    1.62
   6   3  -4   -0.81    1.65
   6   3  -3    0.41    1.52
   6   3  -3   -0.66    1.47
   6   3  -3   -3.21    1.61
  -6  -3   2    0.02    3.08
   6   3  -2   -0.92    1.46
   6   3  -2    0.56    0.97
   6   3  -2   -0.46    1.06
  -6  -3   2   -0.01    1.12
   6   3  -1   65.00    4.72
  -6  -3   1   69.02   10.96
  -6  -3   1   55.73    3.58
  -6  -3   1   52.33    3.45
   6   3  -1   65.15    6.14
  -6  -3   1   69.57    6.31
  -6  -3   1   70.21    3.43
   6   3  -1   65.27    4.42
   6   3   0  504.15    9.96
   6   3   0  475.58    9.91
   6   3   0  484.56    9.80
  -6  -3   0  456.03   10.87
  -6  -3   0  438.42   10.69
   6   3   0  482.62   13.38
  -6  -3   0  482.30   14.43
  -6  -3   0  504.87   18.46
  -6  -3   0  515.71    7.75
   6   3   0  497.95   10.96
   6   3   1   66.01    4.26
   6   3   1   65.33    3.59
  -6  -3  -1   75.74   12.62
   6   3   1   63.46    3.95
   6   3   1   63.08    3.30
  -6  -3  -1   66.74    4.71
  -6  -3  -1   67.04    4.75
  -6  -3  -1   63.00    4.46
  -6  -3  -1   68.27    8.24
   6   3   1   63.93    4.16
   6   3   2   79.70    5.23
   6   3   2   83.51    4.49
  -6  -3  -2   74.58   16.57
   6   3   2   82.48    5.18
  -6  -3  -2   75.46    5.64
  -6  -3  -2   79.24    5.78
  -6  -3  -2   73.25   10.78
   6   3   3   56.40    4.58
   6   3   3   56.78    5.06
   6   3   3   55.59    4.55
   6   3   3   51.23    4.12
   6   3   3   56.02    4.85
   6   3   3   51.85    4.46
  -6  -3  -3   57.50    5.31
  -6  -3  -3   46.14   10.23
  -6  -3  -3   55.47    5.24
  -6  -3  -3   34.14    6.67
  -6  -3  -3   49.38    9.28
   6   3   4    3.39    1.22
   6   3   4    2.89    1.17
   6   3   4    1.86    1.06
   6   3   5   -0.34    0.49
   6   3   5    0.01    0.40
   6   4  -4    4.55    1.52
   6   4  -4    5.44    2.07
   6   4  -3   37.64    5.27
   6   4  -3   41.35    4.31
   6   4  -2   57.97    6.20
   6   4  -2   58.63    5.53
   6   4  -2   53.13   11.08
  -6  -4   2   59.09   11.88
   6   4  -2   53.81    5.96
  -6  -4   2   53.85    6.50
  -6  -4   1   66.04   11.25
   6   4  -1   60.31    5.41
   6   4  -1   65.09   11.42
   6   4  -1   59.96    5.06
   6   4  -1   51.60    6.16
  -6  -4   1   59.57    6.34
   6   4  -1   58.63    4.51
  -6  -4   0  147.16   17.21
  -6  -4   0  116.54    5.74
  -6  -4   0  118.79    5.81
  -6  -4   0  133.83   10.53
   6   4   0  134.20    8.26
  -6  -4   0  132.13    8.48
   6   4   0  135.51    6.32
   6   4   1   11.31    1.96
  -6  -4  -1    0.05    0.73
  -6  -4  -1   16.46    7.49
   6   4   1   10.46    1.64
  -6  -4  -1   11.44    2.13
  -6  -4  -1   12.90    2.24
  -6  -4  -1   11.70    4.02
   6   4   1   12.69    2.08
   6   4   2   11.68    2.02
   6   4   2   14.53    2.39
  -6  -4  -2   18.48    4.32
   6   4   2   14.55    2.58
   6   4   2   13.18    2.08
  -6  -4  -2   14.87    8.52
  -6  -4  -2   19.99    6.41
   6   4   2   14.15    2.25
   6   4   2   12.83    2.28
  -6  -4  -2   10.34    3.45
  -6  -4  -2   12.97    2.43
  -6  -4  -2   12.26    2.38
  -6  -4  -2   19.76    5.38
   6   4   2   13.35    1.81
   6   4   2   14.22    2.43
  -6  -4  -2    6.72    2.25
  -6  -4  -2   10.66    4.64
   6   4   3   35.87    3.80
  -6  -4  -3   34.89    6.55
   6   4   3   37.83    3.86
   6   4   3   36.76    4.10
  -6  -4  -3   28.66    8.69
   6   4   3   40.81    4.06
   6   4   3   40.04    3.36
  -6  -4  -3   26.94    5.76
  -6  -4  -3   32.69    7.70
   6   4   4    5.37    1.42
   6   4   4    5.87    1.59
   6   4   4    6.66    1.63
  -6  -4  -4    5.82    4.25
  -6  -4  -4    3.98    3.11
   6   4   4    6.53    1.33
   6   4   5    7.59    1.04
   6   5  -4    1.79    1.02
   6   5  -4    1.53    0.90
   6   5  -3   48.30    5.80
   6   5  -3   45.71    3.97
   6   5  -2    3.39    2.27
   6   5  -2    0.25    1.79
   6   5  -1   -0.27    0.96
   6   5  -1   -1.35    2.13
  -6  -5   1   -4.33    4.05
   6   5  -1    0.35    3.07
   6   5  -1    0.30    0.87
   6   5  -1    0.47    0.76
  -6  -5   1   -0.37    1.48
   6   5   0    0.38    0.80
  -6  -5   0    3.20    4.94
   6   5   0    0.29    1.69
   6   5   0    0.96    0.70
   6   5   0    2.40    1.08
  -6  -5   0    2.87    1.98
   6   5   0    2.03    1.07
  -6  -5   0    2.15    1.45
   6   5   1    1.86    0.85
   6   5   1    3.64    1.29
   6   5   1    4.78    1.39
  -6  -5  -1   -0.07    0.80
  -6  -5  -1    4.30    4.85
   6   5   1    1.46    1.86
  -6  -5  -1    4.38    1.34
   6   5   1    5.36    1.75
  -6  -5  -1    2.83    1.16
  -6  -5  -1    4.62    2.59
   6   5   1    3.20    1.13
  -6  -5  -1    5.60    3.17
  -6  -5  -1    4.88    3.29
   6   5   2    1.13    0.92
  -6  -5  -2    0.42    1.71
   6   5   2    1.79    0.84
   6   5   2    3.77    1.44
   6   5   2    2.80    1.23
  -6  -5  -2   -0.49    6.83
   6   5   2    1.66    1.19
  -6  -5  -2    2.87    1.25
  -6  -5  -2    1.20    2.48
  -6  -5  -2    5.43    4.05
  -6  -5  -2    3.02    1.40
  -6  -5  -2    2.85    1.75
   6   5   2    2.18    1.25
  -6  -5  -2    1.65    1.38
  -6  -5  -2    3.31    3.77
   6   5   3    6.32    1.78
  -6  -5  -3    4.68    2.74
   6   5   3    7.65    1.89
   6   5   3    8.03    2.17
  -6  -5  -3    8.58    5.13
   6   5   3   10.18    2.18
  -6  -5  -3    2.57    2.55
   6   5   3    8.70    1.96
  -6  -5  -3    2.91    2.18
   6   5   4    0.04    0.71
   6   5   4    0.43    0.72
  -6  -5  -4   -1.77    3.05
   6   5   4   -0.02    0.69
  -6  -5  -4    0.60    1.71
   6   6  -3    0.19    1.37
   6   6  -2    3.04    2.10
   6   6  -2    6.07    2.74
   6   6  -1   32.15    4.47
   6   6  -1    1.95    2.44
  -6  -6   0    3.19    5.63
   6   6   0   -0.95    1.01
  -6  -6   0    0.78    0.85
  -6  -6   0    1.77    2.38
   6   6   1   46.17    3.90
   6   6   1   54.61    4.54
   6   6   1   55.17    6.15
  -6  -6  -1   71.18   14.51
   6   6   1   55.16    4.87
  -6  -6  -1   74.26   11.80
  -6  -6  -1   45.91    4.41
  -6  -6  -1   40.79    4.22
  -6  -6  -1   56.07    8.31
  -6  -6  -1   59.37    9.52
   6   6   1   52.91    4.67
   6   6   2  127.60    6.77
  -6  -6  -2  153.96   13.00
   6   6   2  132.01    8.66
   6   6   2  143.38    7.13
  -6  -6  -2  152.78   14.53
   6   6   2  134.34    7.47
  -6  -6  -2  149.07   14.87
   6   6   2  122.45    8.12
   6   6   3    4.40    1.44
   6   6   3    5.25    1.49
  -6  -6  -3    6.70    2.85
   6   6   3    6.46    1.94
  -6  -6  -3    4.14    4.04
   6   6   3    3.92    1.52
  -6  -6  -3    4.49    3.74
  -6  -6  -3    2.55    1.73
   6   6   4   -0.48    0.59
   6   6   4   -0.20    0.54
   6   6   4    0.48    0.59
   6   6   4    0.73    0.56
  -6  -6  -4    0.91    1.99
  -6  -6  -4    0.36    1.42
   6   7  -3    0.31    0.59
   6   7  -2   -0.11    1.18
   6   7  -2   15.85    2.84
   6   7  -1  161.18   13.16
   6   7  -1   92.70    7.17
   6   7   0  162.74    9.04
  -6  -7   0  178.36   16.37
   6   7   1  126.27    7.39
  -6  -7  -1  143.93   13.24
   6   7   1  126.38    6.99
   6   7   2   -0.16    0.75
   6   7   2    0.21    0.64
   6   7   2   -0.60    1.70
  -6  -7  -2    0.20    1.93
  -6  -7  -2   -0.45    1.90
  -6  -7  -2   -1.74    3.88
   6   7   2    0.65    1.00
  -6  -7  -2    0.69    2.19
   6   7   3    3.33    0.99
  -6  -7  -3    4.62    2.21
   6   7   3    4.09    1.06
   6   7   3    3.86    1.62
  -6  -7  -3    1.65    2.92
   6   7   3    4.54    1.37
  -6  -7  -3    1.73    1.80
   6   7   4   54.62    2.86
   6   8  -2   85.53    4.27
   6   8  -1  651.12   25.28
   6   8  -1  330.87   11.07
   6   8   0   75.55    8.71
   6   8   0   64.23    5.14
  -6  -8   0   69.32    9.07
  -6  -8  -1   11.74    3.29
   6   8   1   13.82    2.35
   6   8   1   13.94    3.79
  -6  -8  -1   10.76    4.37
  -6  -8  -1   14.53    3.86
  -6  -8  -2    7.01    2.47
   6   8   2    5.10    1.24
  -6  -8  -2    7.47    3.84
   6   8   2    7.75    1.61
  -6  -8  -2    9.28    3.16
  -6  -8  -2    6.99    3.11
  -6  -8  -3   14.62    3.80
   6   8   3   22.40    2.12
  -6  -8  -3   15.60    3.37
   6   8   3   13.40    1.45
  -6  -9   1    2.81    1.24
   6   9  -1    3.53    1.79
  -6  -9   0   12.78    2.44
   6   9   0    2.67    1.99
  -6  -9  -1   40.29    4.63
  -6  -9  -1   41.67    5.23
  -6  -9  -1   38.63    5.83
   6   9   1   -0.73    1.29
   6   9   1   -0.33    0.30
  -6  -9  -2   25.45    3.15
  -6  -9  -2   22.67    4.08
   7  -9  -2   11.82    2.40
   7  -9  -2   10.19    2.21
   7  -9  -2   14.71    2.88
   7  -9  -2   13.46    2.89
   7  -9  -1   58.10    5.03
   7  -9  -1   61.76    5.44
   7  -9  -1   68.60    6.52
  -7   9   0   11.60    3.67
   7  -9   0    6.53    1.63
   7  -9   0    8.87    2.33
  -7   9  -1   75.18    8.34
  -7   8   3   38.14    4.37
  -7   8   3   33.72    2.99
   7  -8  -3   38.89    4.90
   7  -8  -3   37.50    5.04
   7  -8  -3   32.91    4.05
   7  -8  -3   41.98    5.53
  -7   8   2    0.71    0.93
   7  -8  -2    2.29    1.84
   7  -8  -2    0.50    1.90
   7  -8  -2   -0.70    1.81
   7  -8  -2    1.00    1.82
   7  -8  -1   66.92    7.04
  -7   8   1   86.47   10.17
   7  -8  -1   69.69    7.49
   7  -8  -1   74.04    6.43
   7  -8  -1   82.16    8.59
   7  -8   0   70.49    6.54
  -7   8   0   46.17    8.15
  -7   8   0   75.40    8.40
  -7   8   0   57.26   11.44
   7  -8   0   71.32    7.12
  -7   8  -1    2.05    1.88
  -7   8  -1   49.16   10.39
  -7   8  -2    1.33    2.29
  -7   7   4   11.81    2.19
  -7   7   4   13.45    1.98
   7  -7  -4    9.85    2.13
   7  -7  -4   13.18    2.95
  -7   7   4   12.29    1.86
   7  -7  -4   10.44    2.32
   7  -7  -4    4.86    1.56
  -7   7   3    1.97    1.06
  -7   7   3    2.34    1.92
   7  -7  -3    0.79    1.65
   7  -7  -3   -1.03    2.45
  -7   7   3    2.30    1.18
   7  -7  -3    2.75    1.58
  -7   7   3    1.67    1.42
   7  -7  -3    0.53    1.75
  -7   7   2    0.76    1.66
  -7   7   2    1.19    0.82
   7  -7  -2    3.00    2.42
  -7   7   2    6.62    4.10
   7  -7  -2    5.48    3.04
  -7   7   2    4.48    2.09
   7  -7  -2    4.71    2.20
   7  -7  -2    3.85    3.28
  -7   7   1  239.74   12.60
   7  -7  -1  246.36   15.17
  -7   7   1  283.85   20.04
  -7   7   1  242.57   11.70
   7  -7  -1  274.11   16.06
   7  -7  -1  234.78   13.00
  -7   7   0   -2.04    6.55
  -7   7   0    1.13    1.72
   7  -7   0    0.20    0.87
  -7   7  -1    1.35    1.65
  -7   7  -1    0.47    2.38
  -7   7  -2   80.29   13.07
  -7   7  -2   48.22    9.47
  -7   7  -3   -1.12    1.41
  -7   6   4  375.74   14.04
  -7   6   4  404.49   13.04
  -7   6   4  317.26   10.92
   7  -6  -4  351.72   14.54
   7  -6  -4  337.31   10.84
  -7   6   4  375.39   12.66
   7  -6  -4  345.94   16.92
  -7   6   4  374.45   12.63
   7  -6  -4  319.41   13.92
   7  -6  -4  352.85   15.33
  -7   6   3   -0.41    1.57
  -7   6   3   -0.19    0.84
  -7   6   3   -0.18    0.73
  -7   6   3    0.83    1.42
   7  -6  -3    0.07    1.92
   7  -6  -3    0.08    0.97
   7  -6  -3   -0.40    2.80
  -7   6   3   -0.31    1.69
  -7   6   3   -0.19    1.00
   7  -6  -3    1.06    1.83
   7  -6  -3    0.60    0.71
   7  -6  -3   -0.11    1.74
  -7   6   2    5.16    2.40
  -7   6   2    6.58    2.04
  -7   6   2    5.24    2.21
   7  -6  -2    7.09    3.51
  -7   6   2    5.26    3.99
   7  -6  -2    8.01    3.67
  -7   6   2    5.62    2.03
   7  -6  -2    9.19    2.99
   7  -6  -2    7.56    3.53
   7  -6  -2    7.17    2.19
  -7   6   1    8.85    2.60
   7  -6  -1    8.93    3.28
  -7   6   1    7.64    2.43
  -7   6   1    3.53    3.22
   7  -6  -1   10.25    2.53
   7  -6  -1    7.43    2.70
   7  -6  -1    5.39    1.79
   7  -6  -1    6.13    2.25
  -7   6   1    8.41    2.46
   7  -6  -1    9.37    2.35
   7  -6   0    7.66    2.67
  -7   6   0    4.33    3.10
  -7   6   0   -2.50    4.41
  -7   6   0    7.97    3.49
   7  -6   0   14.83    3.92
   7  -6   0    6.75    1.71
   7  -6   0    5.67    2.93
  -7   6  -1   29.11   10.16
  -7   6  -1   31.34   10.13
  -7   6  -1   31.75    6.08
  -7   6  -2   59.78   13.17
  -7   6  -2   49.63   12.85
  -7   6  -3   17.13    6.19
  -7   6  -3   29.55    6.49
   7  -5  -5   25.66    2.37
  -7   5   5   35.90    2.61
  -7   5   5   25.91    2.37
  -7   5   5   35.48    2.89
  -7   5   4  120.76    8.15
  -7   5   4  130.91    9.04
  -7   5   4  148.12    8.93
   7  -5  -4  127.98    9.44
   7  -5  -4  129.39    8.25
  -7   5   4  130.33    8.18
   7  -5  -4  132.13   11.64
  -7   5   4  140.07    8.94
   7  -5  -4  133.51   10.50
  -7   5   3   -0.01    1.26
  -7   5   3   -0.54    1.11
  -7   5   3    1.48    1.49
   7  -5  -3    0.51    1.03
  -7   5   3    1.52    1.61
   7  -5  -3    0.48    1.11
   7  -5  -3    2.46    2.24
   7  -5  -3   -0.74    2.62
   7  -5  -3   -5.22    2.77
  -7   5   3    0.43    1.00
  -7   5   3    0.39    1.47
   7  -5  -3    2.24    1.95
   7  -5  -3    2.55    1.65
   7  -5  -2    1.14    1.27
  -7   5   2    0.84    1.23
  -7   5   2   -0.21    1.18
   7  -5  -2    5.22    2.36
   7  -5  -2    0.51    1.07
  -7   5   2    2.17    3.41
  -7   5   2    0.72    1.21
   7  -5  -2    1.95    1.56
  -7   5   2    3.03    2.93
   7  -5  -2    2.34    1.41
   7  -5  -2    1.68    1.62
   7  -5  -2    2.89    2.20
   7  -5  -2    0.88    1.07
   7  -5  -2    0.57    1.92
  -7   5   2    1.33    1.42
  -7   5   2   -0.75    0.81
   7  -5  -2    2.92    1.47
  -7   5   1   12.75    2.74
   7  -5  -1   14.64    3.13
   7  -5  -1   12.71    2.51
   7  -5  -1   11.77    3.26
  -7   5   1   15.93    3.05
  -7   5   1    2.37    4.03
  -7   5   1   21.41    5.26
   7  -5  -1   14.79    2.87
   7  -5  -1   17.93    4.03
   7  -5  -1   15.13    2.83
  -7   5   1   15.55    2.93
  -7   5   1   10.77    3.76
   7  -5  -1   14.85    3.22
   7  -5  -1   13.91    2.77
   7  -5   0  175.83   11.85
   7  -5   0  174.85    9.32
  -7   5   0  182.90   14.23
   7  -5   0  190.45   12.56
  -7   5   0  179.42   15.32
   7  -5   0  183.44   13.99
   7  -5   1   52.84    6.36
   7  -5   1   46.19    4.78
  -7   5  -1   38.13   11.44
  -7   5  -1   31.24    9.82
  -7   5  -1   55.64    7.84
   7  -5   1   43.24    6.14
  -7   5  -2   51.32   13.81
  -7   5  -2   78.01    8.49
  -7   5  -2   76.52   15.78
  -7   5  -3    1.35    4.30
  -7   5  -3    9.19    5.35
  -7   5  -3   -2.45    2.72
  -7   5  -4   30.13    6.04
  -7   4   5    4.02    1.12
  -7   4   5    3.42    1.29
   7  -4  -5    0.74    0.80
   7  -4  -5    1.18    0.86
  -7   4   5    1.97    0.84
  -7   4   5    4.11    1.22
  -7   4   4   -0.47    1.23
  -7   4   4    0.44    1.15
  -7   4   4   -0.97    1.45
  -7   4   4   -0.19    1.74
   7  -4  -4    0.76    1.36
   7  -4  -4    1.73    2.56
  -7   4   4    0.71    0.91
  -7   4   4   -0.05    1.47
   7  -4  -4    1.49    1.84
   7  -4  -3   16.29    3.63
  -7   4   3   17.41    3.87
  -7   4   3   20.99    4.29
  -7   4   3   16.82    3.47
  -7   4   3   17.25    3.48
   7  -4  -3   21.58    4.88
   7  -4  -3   18.21    3.63
   7  -4  -3   23.03    4.23
  -7   4   3   17.43    3.57
   7  -4  -3   13.55    4.49
   7  -4  -3   20.75    4.01
   7  -4  -3   17.92    4.54
   7  -4  -3   15.33    3.78
   7  -4  -2   -0.18    0.97
  -7   4   2    1.87    1.49
  -7   4   2    0.78    1.40
   7  -4  -2    1.79    1.35
   7  -4  -2    2.18    1.41
  -7   4   2    0.22    1.05
  -7   4   2   -1.32    2.16
   7  -4  -2    0.31    0.89
   7  -4  -2    0.42    1.53
   7  -4  -2    1.22    2.00
   7  -4  -2    1.11    1.21
  -7   4   2    0.19    1.07
  -7   4   2    0.64    1.22
   7  -4  -2   -0.05    1.10
  -7   4   2    0.69    0.77
   7  -4  -2    0.79    1.46
   7  -4  -1  153.39   10.27
   7  -4  -1  171.36    9.45
   7  -4  -1  169.08    8.73
   7  -4  -1  178.72   11.19
  -7   4   1  178.91   11.90
   7  -4  -1  162.62   10.43
  -7   4   1  154.39    5.38
   7  -4   0   68.87    6.84
   7  -4   0   71.60    5.54
   7  -4   0   78.57    5.28
   7  -4   0   73.82    7.27
   7  -4   0   74.47    4.14
  -7   4   0   88.81    6.16
   7  -4   1  400.20   15.82
   7  -4   1  345.12   12.23
   7  -4   1  366.46    9.44
   7  -4   1  340.79   16.22
  -7   4  -1  344.15   20.13
  -7   4  -1  347.57   17.76
   7  -4   2    5.74    1.74
  -7   4  -2    3.03    5.07
  -7   4  -2    6.26    5.60
  -7   4  -2    6.24    2.88
   7  -4   2    5.09    1.25
   7  -4   2    8.22    2.76
  -7   4  -3    1.91    5.88
  -7   4  -3   -1.01    4.41
  -7   4  -3    2.14    3.05
  -7   4  -3   -4.05    1.92
  -7   4  -4    7.93    4.09
  -7   4  -4   -3.96    2.50
   7  -3  -5    0.52    1.16
   7  -3  -5   -0.20    0.97
  -7   3   5    1.04    0.73
  -7   3   5   -0.70    1.09
  -7   3   5   -0.10    0.81
  -7   3   4    0.49    0.91
  -7   3   4    0.46    1.39
   7  -3  -4    1.35    1.55
   7  -3  -4   -0.31    1.98
  -7   3   4    0.35    1.01
   7  -3  -4    4.40    2.30
  -7   3   3   -0.55    1.77
  -7   3   3   -3.52    1.72
   7  -3  -3   -0.08    1.60
   7  -3  -3    0.38    1.31
   7  -3  -3    0.06    1.17
   7  -3  -3    0.88    1.74
   7  -3  -3    0.52    1.14
   7  -3  -3   -0.61    1.65
  -7   3   3    0.20    1.76
  -7   3   3   -2.72    1.19
  -7   3   3   -2.92    1.51
   7  -3  -3   -1.76    1.79
   7  -3  -2   17.15    3.29
   7  -3  -2   22.71    4.07
   7  -3  -2   22.09    3.50
   7  -3  -2   25.15    4.05
  -7   3   2   17.70    2.10
   7  -3  -1   59.00    5.78
   7  -3  -1   68.97    5.67
   7  -3  -1   70.96    5.33
   7  -3  -1   66.85    4.42
   7  -3  -1   76.62    6.60
  -7   3   1   79.46    6.14
  -7   3   1   79.62    7.16
  -7   3   1   65.30    3.44
   7  -3   0  101.16    7.50
   7  -3   0   99.84    4.52
   7  -3   0   98.70    5.92
   7  -3   0   94.58    4.49
  -7   3   0  111.23    6.45
   7  -3   0   98.96    7.55
  -7   3   0  103.00    7.97
  -7   3   0  100.29    4.73
   7  -3   1    3.15    1.45
   7  -3   1    4.93    1.44
   7  -3   1    3.64    0.97
   7  -3   1    2.55    0.77
   7  -3   1    1.74    1.03
  -7   3  -1    2.75    1.03
   7  -3   2    6.76    2.04
  -7   3  -2    2.42    3.12
  -7   3  -2    6.54    2.59
   7  -3   2   10.14    1.71
  -7   3  -3   26.38    9.91
  -7   3  -3   13.99    5.98
  -7   3  -3   42.11    5.86
  -7   3  -4   10.65    4.53
  -7   3  -4   56.40   11.19
   7  -2  -5   77.32    5.03
   7  -2  -5   73.20    5.62
  -7   2   5   57.97    3.98
  -7   2   5   72.06    5.41
  -7   2   4    0.68    1.34
  -7   2   4    1.77    1.35
   7  -2  -4    1.88    2.13
   7  -2  -4    1.90    1.45
   7  -2  -4    0.11    1.30
  -7   2   3  227.21   12.90
   7  -2  -3  222.95   12.83
  -7   2   3  208.52   10.83
   7  -2  -3  242.12   12.53
   7  -2  -3  229.78   11.84
   7  -2  -3  222.78   11.73
  -7   2   3  217.61   11.52
   7  -2  -3  223.92   14.82
  -7   2   3  203.13   13.04
  -7   2   3  205.17    8.62
   7  -2  -3  219.05   13.30
   7  -2  -3  216.24   13.44
   7  -2  -2   48.02    5.60
   7  -2  -2   37.56    4.44
   7  -2  -2   47.95    4.72
   7  -2  -2   53.15    5.09
  -7   2   2   51.17    5.24
  -7   2   2   45.60    5.50
  -7   2   2   42.78    3.42
   7  -2  -2   41.99    4.27
   7  -2  -1    9.79    2.46
   7  -2  -1   11.70    2.40
  -7   2   1   13.87    2.45
   7  -2  -1    8.17    1.97
   7  -2  -1   11.88    2.02
  -7   2   1   11.44    2.58
  -7   2   1   10.94    1.58
   7  -2  -1   12.69    1.98
   7  -2   0   49.94    4.85
   7  -2   0   43.92    2.92
   7  -2   0   41.00    3.68
   7  -2   0   40.78    2.86
  -7   2   0   51.66    4.17
   7  -2   0   39.87    4.44
  -7   2   0   49.53    4.11
  -7   2   0   46.69    4.75
  -7   2   0   46.91    3.06
   7  -2   0   44.51    2.74
   7  -2   1  106.64    6.78
   7  -2   1   98.30    4.44
   7  -2   1   97.57    5.47
   7  -2   1   93.70    4.37
   7  -2   1   96.46    4.51
  -7   2  -1   98.28    5.35
  -7   2  -1  100.53    5.42
   7  -2   2   14.94    1.94
   7  -2   2   14.21    2.52
   7  -2   2   11.83    1.66
  -7   2  -2    8.16    3.32
   7  -2   2   16.50    2.14
  -7   2  -2   14.14    3.46
  -7   2  -3   21.31    9.96
  -7   2  -3   16.53    7.17
  -7   2  -3   26.76    4.73
   7  -2   3   27.53    2.90
  -7   2  -4    1.72    2.97
  -7   2  -4    1.78    1.21
   7  -1  -5   17.50    2.68
   7  -1  -5   17.23    2.68
  -7   1   5   13.78    2.32
   7  -1  -4    7.45    2.45
  -7   1   4   12.08    3.01
   7  -1  -3  107.50    8.74
   7  -1  -3  118.63    8.81
  -7   1   3  105.02    7.80
  -7   1   3   95.34    8.81
   7  -1  -3  103.92    8.93
  -7   1   3  100.17    6.16
   7  -1  -2  493.79   15.99
   7  -1  -2  550.66   15.23
  -7   1   2  511.06   15.52
  -7   1   2  499.56   17.43
  -7   1   2  507.39   11.41
   7  -1  -2  519.01   14.86
   7  -1  -1   79.41    5.46
   7  -1  -1   81.86    6.08
  -7   1   1   84.83    5.46
   7  -1  -1   79.40    4.77
   7  -1  -1   77.43    4.97
  -7   1   1   80.56    6.07
  -7   1   1   78.73    3.86
   7  -1  -1   76.02    4.61
   7  -1   0    3.70    1.17
   7  -1   0    2.07    1.18
   7  -1   0    5.40    1.16
  -7   1   0    5.35    2.21
  -7   1   0    6.08    1.51
   7  -1   0    5.29    1.23
   7  -1   0    5.34    1.20
   7  -1   0    2.05    1.20
  -7   1   0    5.82    1.44
   7  -1   0    4.59    1.01
  -7   1   0    3.76    1.20
  -7   1   0    3.14    1.45
   7  -1   1   80.33    3.93
   7  -1   1   92.36    6.06
   7  -1   1   81.44    4.66
   7  -1   1   83.22    4.25
   7  -1   1   85.76    4.11
  -7   1  -1   88.47    4.97
  -7   1  -1   90.70    5.04
  -7   1  -1   84.41    5.48
   7  -1   1   85.59    3.41
   7  -1   2  279.66    8.28
   7  -1   2  266.23    9.91
   7  -1   2  261.34    8.35
   7  -1   2  294.40    8.58
  -7   1  -2  276.32    8.92
  -7   1  -2  276.61    8.93
   7  -1   3   66.29    4.64
   7  -1   3   69.99    4.93
  -7   1  -4    7.63    4.54
  -7   1  -4   10.08    2.72
   7   0  -5    1.61    1.27
   7   0  -5    3.69    1.21
  -7   0   5    3.10    1.15
   7   0  -4   25.22    3.82
   7   0  -4   32.99    4.83
   7   0  -4   24.92    4.33
  -7   0   4   29.28    4.36
   7   0  -3   13.74    2.87
   7   0  -3   13.29    3.20
  -7   0   3   12.09    2.22
  -7   0   3   11.82    3.14
   7   0  -3   14.79    3.15
   7   0  -3   10.35    2.81
   7   0  -2  989.56   18.42
   7   0  -2 1066.14   20.39
  -7   0   2  992.26   20.42
  -7   0   2 1048.63   25.42
  -7   0   2 1024.47   16.65
   7   0  -2 1049.10   21.10
   7   0  -1   83.82    6.32
   7   0  -1   91.28    4.12
   7   0  -1   79.62    5.28
   7   0  -1   97.73    5.39
  -7   0   1   89.46    5.30
  -7   0   1   87.71    5.26
  -7   0   1   94.07    6.46
  -7   0   1   97.17    4.40
   7   0  -1   88.55    5.00
   7   0   0  684.74   16.99
   7   0   0  618.71   10.59
   7   0   0  636.55   12.00
  -7   0   0  700.97   24.23
  -7   0   0  658.34   13.62
   7   0   0  631.67   11.32
   7   0   0  606.96   10.74
  -7   0   0  658.67   13.67
  -7   0   0  649.77   14.44
  -7   0   0  692.79   10.75
   7   0   0  638.36   11.06
   7   0   1   26.10    2.29
   7   0   1   27.02    2.57
  -7   0  -1   29.02    6.22
   7   0   1   37.34    2.88
   7   0   1   31.59    2.52
  -7   0  -1   28.61    2.91
  -7   0  -1   30.79    3.01
  -7   0  -1   25.32    2.65
   7   0   1   26.66    2.14
   7   0   2    6.84    1.39
   7   0   2    7.65    1.50
   7   0   2    8.80    1.82
   7   0   2    6.53    1.60
   7   0   2    9.87    1.66
  -7   0  -2    6.79    1.59
  -7   0  -2    6.84    1.59
   7   0   3  267.54    9.44
   7   0   3  180.13    9.05
   7   0   3  235.08    9.15
   7   0   3  277.46    9.53
  -7   0  -3  176.86   18.66
  -7   0  -5    3.96    1.75
   7   0   5   15.95    1.41
   7   1  -5   15.76    2.12
  -7  -1   5    7.34    1.34
   7   1  -4    3.58    1.80
   7   1  -4    7.75    3.03
   7   1  -4    2.31    1.68
   7   1  -3  496.76   17.19
  -7  -1   3  548.20   21.07
  -7  -1   3  516.67   13.78
   7   1  -2   73.51    5.49
   7   1  -2   95.50    5.75
  -7  -1   2   80.31    5.53
  -7  -1   2   88.85    7.58
  -7  -1   2   83.52    4.80
   7   1  -2   86.98    6.19
   7   1  -1   46.37    3.28
   7   1  -1   42.50    3.76
  -7  -1   1   44.25    8.45
  -7  -1   1   43.05    3.55
  -7  -1   1   42.36    3.54
  -7  -1   1   50.57    4.90
   7   1  -1   48.76    3.77
  -7  -1   1   48.94    3.17
   7   1   0   46.15    3.06
   7   1   0   44.73    3.16
  -7  -1   0   44.59    7.36
   7   1   0   48.95    3.22
   7   1   0   49.03    3.24
  -7  -1   0   54.26    3.91
  -7  -1   0   53.26    3.88
  -7  -1   0   48.58    4.13
  -7  -1   0   42.87    5.51
  -7  -1   0   54.20    3.00
   7   1   0   47.66    3.25
   7   1   1    4.58    1.15
   7   1   1   10.38    1.55
  -7  -1  -1    5.11    4.69
   7   1   1    9.82    1.60
   7   1   1   11.62    1.64
  -7  -1  -1   11.39    1.98
  -7  -1  -1   10.24    1.87
  -7  -1  -1    7.69    3.11
   7   1   1    9.76    1.51
   7   1   2    3.24    1.08
   7   1   2    3.24    1.13
   7   1   2    3.93    1.14
  -7  -1  -2   -0.19    2.80
  -7  -1  -2    5.15    1.33
   7   1   2    3.67    1.21
   7   1   2    3.46    1.00
  -7  -1  -2    5.03    1.36
   7   1   2    4.76    1.21
   7   1   3  225.45    8.11
   7   1   3  233.09    8.98
   7   1   3  219.94    8.30
   7   1   3  254.38    9.27
   7   1   3  148.56    7.84
   7   1   3  230.75    9.42
   7   1   3  259.31    8.90
  -7  -1  -3  201.35   20.51
  -7  -1  -3  186.57   16.52
   7   1   4   65.67    4.27
  -7  -1  -5    3.15    2.12
  -7  -1  -5    0.13    0.77
   7   1   5    4.75    0.83
   7   2  -5    8.12    1.31
   7   2  -4   83.49    6.22
   7   2  -4   79.88    6.41
   7   2  -3  178.18   10.87
   7   2  -3  211.86   10.60
   7   2  -3  179.17   11.13
  -7  -2   3  177.60   12.17
  -7  -2   3  169.59    7.81
   7   2  -3  189.86   10.89
  -7  -2   2    7.26    5.07
   7   2  -2   14.69    2.67
  -7  -2   2   14.26    3.31
  -7  -2   2   11.40    1.88
   7   2  -2   13.36    2.65
   7   2  -1    8.99    1.71
  -7  -2   1    3.99    3.83
  -7  -2   1    7.88    1.52
  -7  -2   1    7.63    1.51
  -7  -2   1    8.91    2.33
  -7  -2   1    8.25    1.45
   7   2  -1    8.56    1.75
   7   2   0   56.91    3.48
  -7  -2   0   59.79    9.69
   7   2   0   53.16    3.47
   7   2   0   56.78    3.57
  -7  -2   0   53.52    3.95
  -7  -2   0   51.92    3.91
  -7  -2   0   52.46    4.58
  -7  -2   0   59.56    3.11
   7   2   0   55.70    3.70
   7   2   1   84.71    4.67
   7   2   1   88.21    4.34
  -7  -2  -1   99.39   13.75
   7   2   1   81.62    4.62
   7   2   1   91.48    4.24
  -7  -2  -1   87.69    5.45
  -7  -2  -1   91.48    5.56
  -7  -2  -1   86.90    9.66
   7   2   1   82.64    4.59
   7   2   2    3.62    1.03
   7   2   2    5.90    1.57
  -7  -2  -2    3.41    5.02
  -7  -2  -2    3.64    1.28
   7   2   2    4.43    1.36
   7   2   2    5.76    1.29
  -7  -2  -2    3.63    1.29
  -7  -2  -2    2.05    2.94
   7   2   3  386.78   11.33
   7   2   3  421.15   12.90
  -7  -2  -3  380.59   20.10
   7   2   3  406.49   11.53
   7   2   3  439.96   12.23
   7   2   3  421.63   13.14
   7   2   3  418.27   11.69
   7   2   3  408.84   11.12
  -7  -2  -3  374.36   28.48
  -7  -2  -3  390.63   13.34
  -7  -2  -3  390.33   13.35
  -7  -2  -3  339.57   23.19
   7   2   4    0.18    0.41
   7   2   4   -0.81    0.87
   7   2   4    0.13    0.71
  -7  -2  -4    0.90    2.66
  -7  -2  -5   -0.46    1.91
  -7  -2  -5    0.88    0.78
   7   2   5    0.65    0.44
   7   3  -4    6.62    2.22
   7   3  -4    6.71    1.91
   7   3  -3    2.51    1.73
   7   3  -3    3.88    2.10
   7   3  -3    3.98    1.75
  -7  -3   2    3.00    3.95
   7   3  -2    2.69    1.36
   7   3  -2    1.33    1.07
   7   3  -2    4.52    1.56
  -7  -3   2    6.56    2.42
  -7  -3   2    2.47    0.89
   7   3  -1   36.92    3.73
  -7  -3   1   40.56    8.99
  -7  -3   1   28.06    2.80
  -7  -3   1   27.05    2.76
  -7  -3   1   36.35    4.79
  -7  -3   1   36.49    2.56
   7   3  -1   35.78    3.52
   7   3   0  731.90   13.02
  -7  -3   0  734.05   35.78
   7   3   0  702.93   13.07
   7   3   0  665.23   12.70
  -7  -3   0  625.39   13.72
  -7  -3   0  625.13   13.79
  -7  -3   0  676.69   18.00
  -7  -3   0  690.57   23.87
   7   3   0  678.87   13.69
   7   3   1   18.72    2.10
  -7  -3  -1   18.39    7.69
   7   3   1   16.85    2.20
   7   3   1   17.27    1.95
  -7  -3  -1   15.90    2.43
  -7  -3  -1   17.89    2.59
  -7  -3  -1   18.84    4.78
   7   3   1   17.57    2.33
   7   3   2   41.51    3.67
   7   3   2   39.69    3.80
  -7  -3  -2   54.01    7.53
   7   3   2   43.20    3.43
   7   3   2   46.59    3.74
  -7  -3  -2   46.34   13.46
  -7  -3  -2   44.45    7.61
   7   3   2   41.68    3.79
   7   3   2   38.95    3.63
  -7  -3  -2   43.98    4.48
  -7  -3  -2   50.18    9.55
  -7  -3  -2   42.48    4.40
   7   3   2   46.01    3.36
  -7  -3  -2   41.52    8.43
  -7  -3  -2   32.83    5.51
  -7  -3  -2   46.79    7.87
   7   3   3    6.70    1.74
   7   3   3    7.04    1.60
   7   3   3    5.80    1.65
  -7  -3  -3    6.35    2.76
  -7  -3  -3    0.57   10.87
  -7  -3  -3    2.06    2.64
   7   3   3    5.92    1.57
  -7  -3  -3    7.39    4.75
   7   3   4    0.09    0.62
   7   3   4   -0.43    0.69
   7   3   4   -0.20    0.60
  -7  -3  -4    3.16    3.56
  -7  -3  -4    1.07    2.11
   7   3   4    0.73    0.75
  -7  -3  -5    2.79    1.51
  -7  -3  -5    5.40    1.42
   7   4  -4    3.12    1.38
   7   4  -4    2.21    1.05
   7   4  -3   20.96    2.93
   7   4  -3   23.99    4.42
  -7  -4   2    2.89    5.26
   7   4  -2    2.55    1.63
   7   4  -2    0.78    1.95
   7   4  -2    5.69    2.12
   7   4  -2    3.82    1.65
  -7  -4   2    5.93    2.73
  -7  -4   1   -3.42    3.58
   7   4  -1   -4.01    2.39
   7   4  -1    0.86    0.89
   7   4  -1    1.48    1.04
   7   4  -1    2.00    1.27
   7   4  -1    1.23    0.73
  -7  -4   1    2.58    1.48
  -7  -4   0   20.14    7.11
   7   4   0   13.60    2.43
  -7  -4   0   14.15    2.16
  -7  -4   0   14.88    2.20
  -7  -4   0   17.57    3.24
  -7  -4   0   20.06    4.83
   7   4   0   14.72    2.26
   7   4   0   15.82    2.35
   7   4   1   33.42    3.20
  -7  -4  -1   48.63    6.73
   7   4   1   38.93    4.22
   7   4   1   38.99    3.39
  -7  -4  -1   35.47   11.36
   7   4   1   37.83    3.28
   7   4   1   33.93    3.43
  -7  -4  -1   36.94    3.92
  -7  -4  -1   50.22    8.64
  -7  -4  -1   32.90    3.67
  -7  -4  -1   49.19    7.47
  -7  -4  -1   38.24    7.37
   7   4   1   39.73    3.73
   7   4   2    1.17    0.84
   7   4   2   -2.19    1.01
  -7  -4  -2   -1.37    1.72
   7   4   2   -0.71    0.77
   7   4   2    0.16    0.61
  -7  -4  -2   -2.88    8.11
  -7  -4  -2    0.81    0.93
  -7  -4  -2    0.39    2.93
  -7  -4  -2    1.21    1.87
   7   4   2   -0.37    0.74
   7   4   2    1.22    0.85
  -7  -4  -2    1.17    0.87
   7   4   2   -0.13    0.64
  -7  -4  -2    1.62    2.43
   7   4   2    0.63    1.10
  -7  -4  -2    3.28    1.73
   7   4   2   -0.14    0.60
  -7  -4  -2   -5.42    3.56
   7   4   3    8.27    1.93
   7   4   3   11.31    2.15
  -7  -4  -3    9.52    3.71
  -7  -4  -3   11.36    5.50
   7   4   3    9.25    2.04
  -7  -4  -3    7.60    4.24
   7   4   3    9.06    1.72
   7   4   4   25.50    2.71
   7   4   4   28.83    2.88
   7   4   4   25.94    2.77
  -7  -4  -4   24.06    6.85
  -7  -4  -4   21.35    5.47
   7   4   4   28.67    2.47
   7   5  -4   10.86    1.74
   7   5  -3   13.89    3.05
   7   5  -2    5.53    2.11
   7   5  -2    0.85    1.32
  -7  -5   1   60.68   12.04
   7   5  -1   60.25    6.04
   7   5  -1   63.19    5.97
  -7  -5   1   55.57    6.71
   7   5   0    6.85    1.83
  -7  -5   0   14.27    6.62
   7   5   0   -0.68    1.78
   7   5   0    5.49    1.68
  -7  -5   0   11.01    3.98
   7   5   0    7.95    1.75
  -7  -5   0   10.42    2.80
  -7  -5   0    7.79    3.13
   7   5   1   40.06    3.70
   7   5   1   43.86    3.97
   7   5   1   40.87    4.84
  -7  -5  -1   58.33   13.04
   7   5   1   43.19    4.27
  -7  -5  -1   35.61    3.94
  -7  -5  -1   61.05   10.29
  -7  -5  -1   36.32    3.98
  -7  -5  -1   55.81    8.26
  -7  -5  -1   40.53    7.63
   7   5   1   45.41    4.30
   7   5   2    1.43    0.84
   7   5   2    2.79    1.06
  -7  -5  -2    1.11    2.47
   7   5   2    2.72    1.22
  -7  -5  -2    3.62    3.91
   7   5   2    3.47    1.38
  -7  -5  -2    1.95    2.45
  -7  -5  -2    2.79    2.78
   7   5   2    2.77    0.89
   7   5   3   18.10    2.70
  -7  -5  -3   23.75    5.22
   7   5   3   22.13    2.86
   7   5   3   18.70    2.97
  -7  -5  -3   22.10    7.68
   7   5   3   23.14    3.02
  -7  -5  -3    6.98    4.05
   7   5   3   18.99    2.14
   7   5   4   15.92    2.05
   7   5   4   16.96    2.08
   7   5   4   16.70    2.13
  -7  -5  -4    7.79    3.84
  -7  -5  -4   11.75    3.74
   7   6  -3   -0.98    1.26
   7   6  -2   47.91    5.65
   7   6  -2   -0.63    1.82
   7   6  -1   60.75    8.58
   7   6  -1    0.32    1.33
  -7  -6   0   27.92    6.81
   7   6   0   19.83    3.22
   7   6   1   80.52    5.17
   7   6   1   89.11    7.61
   7   6   1  120.92   11.10
  -7  -6  -1  109.64   14.29
   7   6   1   83.66    6.31
  -7  -6  -1   85.12   10.36
   7   6   1   87.70    5.85
   7   6   2  106.80    6.11
  -7  -6  -2  121.78   11.67
   7   6   2  112.13    6.35
   7   6   2  109.72    8.16
  -7  -6  -2  118.67   12.76
   7   6   2  119.15    6.97
  -7  -6  -2  140.31   17.18
  -7  -6  -2  104.68   12.35
   7   6   3   16.71    2.36
  -7  -6  -3   11.91    3.61
   7   6   3   15.11    2.64
   7   6   3   19.34    2.47
  -7  -6  -3   15.68    6.06
   7   6   3   22.56    2.95
  -7  -6  -3   14.86    4.69
   7   6   4    0.88    0.54
   7   6   4    0.89    0.51
   7   6   4   -0.55    0.60
  -7  -6  -4   -1.46    1.76
  -7  -6  -4    0.12    1.45
   7   7  -2   30.48    3.66
   7   7  -1  202.39   14.12
   7   7  -1  817.25   20.42
   7   7   0   46.30    4.78
  -7  -7   0   36.41    7.08
  -7  -7  -1  129.75   11.36
  -7  -7  -1  114.51   14.08
   7   7   1  101.88    6.63
   7   7   1  100.00    6.18
  -7  -7  -1  105.55   10.99
   7   7   2    3.86    1.15
  -7  -7  -2    4.02    2.32
   7   7   2    3.45    1.28
   7   7   2    4.57    1.83
  -7  -7  -2    7.18    4.68
   7   7   2    4.44    1.57
  -7  -7  -2    3.23    2.48
  -7  -7  -2    7.17    3.60
   7   7   3   40.84    3.05
  -7  -7  -3   34.28    4.59
   7   7   3   45.11    3.66
  -7  -7  -3   37.38    7.30
  -7  -7  -3   36.27    6.17
   7   7   3   45.17    3.23
   7   8  -1  114.18   11.06
   7   8  -1   13.59    2.22
  -7  -8   0    1.45    1.53
   7   8   0    0.43    0.96
  -7  -8   0    0.75    1.83
  -7  -8  -1    0.11    2.00
   7   8   1    0.55    0.99
  -7  -8  -1   -1.22    2.27
  -7  -8  -1    0.94    2.10
  -7  -8  -1   -1.64    1.57
   7   8   2    5.35    1.24
  -7  -8  -2    4.95    1.99
  -7  -8  -2    5.28    2.88
  -7  -8  -2    5.96    2.25
  -7  -8  -2    2.90    1.93
  -7  -8  -3   12.96    3.15
  -7  -8  -3    9.65    2.33
  -7  -9   0    4.24    1.40
   7   9   0   -0.41    1.62
  -7  -9  -1    0.48    0.92
   7   9   1   -0.30    1.04
  -7  -9  -1    1.69    1.39
  -7  -9  -1   -0.75    1.35
   8  -9  -2    4.48    1.35
   8  -9  -2    5.35    1.59
   8  -9  -2    3.82    1.57
   8  -9  -1    5.50    1.45
  -8   9   1    8.41    2.65
   8  -9  -1    7.41    2.02
   8  -9  -1    7.57    2.04
  -8   9   0   32.26    4.13
   8  -9   0   37.73    3.61
   8  -9   0   45.64    4.48
  -8   8   3    2.43    1.32
  -8   8   3   -0.73    0.46
   8  -8  -3    0.84    1.01
   8  -8  -3    2.27    1.62
   8  -8  -3   -0.05    0.94
   8  -8  -3    0.08    1.02
  -8   8   2    5.65    1.94
  -8   8   2   10.62    5.12
   8  -8  -2    6.53    2.42
   8  -8  -2    6.69    2.70
   8  -8  -2    5.19    1.83
   8  -8  -2    4.95    2.24
   8  -8  -1    5.58    2.01
  -8   8   1    8.27    3.63
   8  -8  -1    7.11    2.86
   8  -8  -1    4.96    1.90
   8  -8  -1    6.80    2.65
  -8   8   0   16.12    6.21
   8  -8   0   11.60    2.64
  -8   8   0   16.82    4.08
  -8   8   0   15.67    5.05
   8  -8   0   15.78    3.45
   8  -8   0   13.98    2.51
  -8   8  -1    6.96    4.21
  -8   8  -1    0.83    1.16
  -8   8  -2   26.15    5.17
  -8   7   4   14.00    2.26
  -8   7   4   13.35    1.78
   8  -7  -4   12.13    2.01
   8  -7  -4    9.05    2.23
  -8   7   4   11.19    1.46
  -8   7   3   62.03    6.22
  -8   7   3   55.45    4.58
   8  -7  -3   64.30    6.99
  -8   7   3   64.68    5.93
   8  -7  -3   59.24    7.29
  -8   7   3   47.11    3.87
   8  -7  -3   60.94    6.90
   8  -7  -3   56.58    6.22
  -8   7   2    1.45    1.57
   8  -7  -2   -0.73    1.65
  -8   7   2   -0.30    3.72
   8  -7  -2    2.21    2.27
  -8   7   2    1.02    1.28
   8  -7  -2   -0.37    1.70
   8  -7  -2   -0.49    1.14
  -8   7   1   79.54    7.02
  -8   7   1   93.52   11.65
   8  -7  -1   81.44    8.78
  -8   7   1   85.32    6.76
   8  -7  -1  104.15    9.95
   8  -7  -1   95.32    8.28
  -8   7   0    9.90    6.58
  -8   7   0   12.22    4.28
   8  -7   0   14.28    3.06
  -8   7  -1    1.84    4.20
  -8   7  -1    2.97    2.19
  -8   7  -1    4.61    3.37
  -8   7  -2    4.05    3.19
  -8   7  -2    2.56    3.40
  -8   6   4  293.33   11.89
  -8   6   4  320.32   10.90
   8  -6  -4  273.25   11.32
   8  -6  -4  246.39    8.32
  -8   6   4  298.29   10.81
   8  -6  -4  283.34   14.11
  -8   6   4  283.59   10.05
   8  -6  -4  275.27   12.61
  -8   6   3    3.32    2.26
  -8   6   3    0.03    1.01
  -8   6   3    1.70    1.37
   8  -6  -3    0.06    1.52
   8  -6  -3    0.62    1.73
   8  -6  -3    0.26    1.58
  -8   6   3    0.27    1.00
   8  -6  -3   -1.08    2.21
   8  -6  -3    0.98    1.19
  -8   6   3    1.30    1.36
  -8   6   2   -0.70    1.17
  -8   6   2   -1.60    1.07
   8  -6  -2   -1.20    1.05
  -8   6   2   -0.78    1.71
  -8   6   2   -1.06    2.92
   8  -6  -2   -0.54    1.56
   8  -6  -2    0.05    1.53
  -8   6   2    0.83    1.21
   8  -6  -2    0.94    1.42
   8  -6  -2    0.61    1.58
   8  -6  -2    0.33    1.10
  -8   6   1   -0.20    1.00
  -8   6   1    2.07    1.27
  -8   6   1    6.58    4.54
  -8   6   1    0.72    2.42
   8  -6  -1    6.84    2.27
   8  -6  -1    3.75    1.51
   8  -6  -1    2.19    1.27
  -8   6   1    0.02    0.95
   8  -6  -1    2.81    1.41
  -8   6   0    5.05    5.95
  -8   6   0    4.42    3.44
   8  -6   0    7.16    3.25
   8  -6   0    8.75    2.17
  -8   6  -1   13.36    5.57
  -8   6  -1   22.97    5.13
  -8   6  -2    2.33    3.70
  -8   6  -2    4.44    4.74
  -8   6  -2    0.80    1.43
  -8   6  -3    3.93    4.14
  -8   6  -3    4.50    2.73
  -8   5   4   34.91    4.68
  -8   5   4   39.44    4.45
  -8   5   4   32.19    3.88
   8  -5  -4   35.93    4.51
   8  -5  -4   40.02    4.37
  -8   5   4   39.36    4.41
   8  -5  -4   37.99    5.73
  -8   5   4   38.17    4.42
   8  -5  -4   32.31    4.89
  -8   5   3    1.18    1.75
  -8   5   3    1.19    1.12
   8  -5  -3    2.56    1.42
  -8   5   3    1.41    1.39
   8  -5  -3    0.84    1.25
   8  -5  -3   -0.02    1.52
   8  -5  -3    0.97    2.04
   8  -5  -3    3.35    2.73
  -8   5   3    4.57    2.30
  -8   5   3   -1.29    1.23
   8  -5  -3    0.35    1.42
   8  -5  -3    1.19    1.45
   8  -5  -2   16.25    3.67
  -8   5   2   15.52    3.57
  -8   5   2   15.52    3.03
   8  -5  -2   21.00    4.15
   8  -5  -2   16.03    3.31
  -8   5   2   15.29    3.41
  -8   5   2   18.92    5.33
   8  -5  -2   19.20    4.60
   8  -5  -2   22.67    4.04
   8  -5  -2   18.91    4.14
   8  -5  -2   17.48    4.45
   8  -5  -2   17.64    3.57
  -8   5   2   14.79    3.24
   8  -5  -2   16.40    3.84
   8  -5  -2   18.24    3.65
  -8   5   1    0.81    0.72
   8  -5  -1   -2.14    1.75
   8  -5  -1   -0.47    0.97
   8  -5  -1   -2.01    1.01
  -8   5   1   -0.02    2.85
  -8   5   1    0.48    0.73
  -8   5   1    0.88    2.07
   8  -5  -1   -0.01    1.11
   8  -5  -1    0.45    0.84
  -8   5   1    2.22    1.82
   8  -5  -1    0.71    1.02
  -8   5   1    0.46    0.99
   8  -5  -1    1.75    1.20
   8  -5   0   10.47    2.41
   8  -5   0   11.69    2.17
   8  -5   0   13.00    3.35
  -8   5   0   11.41    3.87
   8  -5   0   12.13    3.16
  -8   5   0    8.83    3.40
   8  -5   0   17.34    4.69
   8  -5   1  475.74   15.78
  -8   5  -1  518.77   23.79
  -8   5  -1  378.50   34.15
  -8   5  -1  375.09   34.05
   8  -5   1  473.18   20.46
  -8   5  -2   12.11    8.65
  -8   5  -2   10.40    6.88
  -8   5  -2    8.50    3.07
  -8   5  -3   -0.05    2.91
  -8   5  -3    1.77    3.39
   8  -4  -5    5.64    1.16
   8  -4  -5    7.37    1.54
  -8   4   5    8.73    1.47
  -8   4   5    7.23    1.44
  -8   4   5    7.85    1.53
  -8   4   4   -0.30    1.29
  -8   4   4    0.06    1.08
  -8   4   4    0.71    1.07
  -8   4   4    0.04    0.90
   8  -4  -4   -0.38    1.52
   8  -4  -4   -0.22    2.17
  -8   4   4    0.31    1.15
  -8   4   4   -0.90    1.12
   8  -4  -4    0.31    1.32
  -8   4   3    0.21    1.67
  -8   4   3    1.30    1.54
   8  -4  -3   -1.37    1.54
  -8   4   3    0.51    1.47
   8  -4  -3    1.36    1.47
   8  -4  -3    1.90    1.86
   8  -4  -3   -5.25    2.84
   8  -4  -3   -0.06    1.32
  -8   4   3    0.92    1.30
   8  -4  -3   -0.10    1.67
   8  -4  -2    3.28    1.76
  -8   4   2    6.99    2.52
  -8   4   2    8.81    2.70
   8  -4  -2    6.59    2.40
   8  -4  -2    4.45    1.70
  -8   4   2    8.15    2.43
  -8   4   2    4.60    2.52
   8  -4  -2    7.11    2.19
   8  -4  -2    6.98    2.67
   8  -4  -2    4.23    2.57
  -8   4   2    6.38    2.60
  -8   4   2    6.32    2.25
  -8   4   2    7.65    1.50
   8  -4  -2    9.31    2.92
   8  -4  -2    8.14    2.47
   8  -4  -1    2.59    1.11
  -8   4   1   -4.74    2.17
   8  -4  -1    0.27    1.10
   8  -4  -1    0.34    0.96
  -8   4   1    0.78    1.24
  -8   4   1    0.30    2.13
   8  -4  -1    1.69    1.34
   8  -4  -1    2.50    1.75
  -8   4   1    0.52    1.16
  -8   4   1    1.30    0.86
   8  -4  -1    1.51    1.35
   8  -4   0  171.21   11.01
  -8   4   0  156.00   11.65
   8  -4   0  177.58    9.11
   8  -4   0  163.27    8.12
   8  -4   0  171.48    6.83
   8  -4   0  181.97   11.73
  -8   4   0  172.35   14.04
  -8   4   0  204.58   10.00
  -8   4   0  165.67   12.90
   8  -4   1  443.04   14.69
  -8   4  -1  418.67   20.24
   8  -4   1  435.05   10.96
   8  -4   1  435.88   18.74
  -8   4  -1  437.95   23.65
  -8   4  -2    2.42    5.83
  -8   4  -2   -1.24    4.96
  -8   4  -2    2.07    2.25
  -8   4  -3   -0.22    4.24
  -8   4  -3    3.32    3.53
  -8   4  -3    3.15    1.76
  -8   4  -4   29.03    6.77
   8  -3  -5    2.66    1.13
   8  -3  -5    2.08    1.10
  -8   3   5    1.66    0.63
  -8   3   5    3.32    1.23
  -8   3   5    4.53    1.33
  -8   3   4   55.91    6.29
  -8   3   4   62.67    6.27
   8  -3  -4   55.25    6.21
   8  -3  -4   39.21    6.42
  -8   3   4   46.52    5.11
   8  -3  -4   45.56    6.19
  -8   3   3   15.66    4.23
  -8   3   3   12.11    3.37
   8  -3  -3   11.51    3.24
  -8   3   3   13.48    3.19
   8  -3  -3   12.82    3.16
   8  -3  -3   10.34    2.69
   8  -3  -3    8.00    2.98
   8  -3  -3   11.65    2.91
   8  -3  -3   14.00    3.76
  -8   3   3   13.46    3.92
  -8   3   3    7.34    1.52
  -8   3   3   10.79    2.71
   8  -3  -3   12.24    3.59
  -8   3   2  990.35   25.19
   8  -3  -2  997.66   26.75
   8  -3  -2  914.25   24.32
   8  -3  -2 1035.07   24.99
  -8   3   2  998.97   23.98
   8  -3  -2 1077.90   25.13
   8  -3  -2 1083.28   26.19
   8  -3  -2 1013.69   28.96
  -8   3   2  992.17   24.30
  -8   3   2 1030.61   29.75
   8  -3  -2 1044.58   26.85
  -8   3   2  926.69   15.02
   8  -3  -2  996.75   25.08
   8  -3  -1    0.41    1.17
   8  -3  -1    0.97    1.04
   8  -3  -1    1.16    0.82
   8  -3  -1    1.13    0.74
   8  -3  -1    0.75    0.87
  -8   3   1    0.45    0.94
  -8   3   1    1.34    1.40
  -8   3   1    0.33    0.91
   8  -3  -1    0.24    0.69
   8  -3   0   -0.88    1.21
   8  -3   0    0.64    0.61
   8  -3   0   -0.87    1.25
   8  -3   0    0.00    0.66
   8  -3   0   -0.69    1.09
  -8   3   0    0.67    0.88
  -8   3   0   -0.39    0.85
  -8   3   0    0.84    1.56
   8  -3   1    1.26    1.03
   8  -3   1    2.02    0.76
   8  -3   1    2.50    1.39
   8  -3   1    2.02    0.93
   8  -3   1    2.46    1.53
  -8   3  -1    2.33    1.17
   8  -3   2    3.40    1.53
  -8   3  -2    6.01    4.83
  -8   3  -2    0.92    1.69
   8  -3   2    2.27    0.96
   8  -3   2    1.62    1.29
  -8   3  -3   60.70    7.04
  -8   3  -3   70.40   16.98
  -8   3  -4   36.82    9.08
  -8   3  -4    2.30    1.90
   8  -2  -5   35.38    3.41
   8  -2  -5   34.93    3.61
  -8   2   5   28.74    2.63
  -8   2   5   34.28    3.80
  -8   2   5   33.26    3.48
  -8   2   4   37.12    5.25
   8  -2  -4   33.59    4.94
  -8   2   4   30.88    4.11
   8  -2  -4   18.89    4.50
  -8   2   3   74.92    7.65
   8  -2  -3   76.60    7.75
  -8   2   3   60.61    6.16
   8  -2  -3   76.53    7.16
   8  -2  -3   78.01    7.25
   8  -2  -3   59.84    7.72
   8  -2  -3   67.95    6.81
  -8   2   3   72.87    6.94
  -8   2   3   56.24    7.30
  -8   2   3   67.86    5.00
   8  -2  -3   69.45    7.73
   8  -2  -3   64.60    7.29
   8  -2  -2    1.37    1.45
   8  -2  -2    5.14    1.99
   8  -2  -2    2.12    1.26
  -8   2   2    4.65    1.81
  -8   2   2    5.90    2.29
  -8   2   2    2.61    1.18
   8  -2  -2    3.16    1.35
   8  -2  -1  328.24   13.48
   8  -2  -1  353.06   12.60
   8  -2  -1  353.39   12.86
  -8   2   1  383.65   13.32
   8  -2  -1  307.27   10.00
  -8   2   1  348.23   14.32
  -8   2   1  335.95    8.32
   8  -2  -1  330.58   10.14
   8  -2   0   32.95    2.81
   8  -2   0   32.16    4.24
   8  -2   0   32.42    3.40
   8  -2   0   30.71    2.74
  -8   2   0   40.49    3.99
   8  -2   0   29.80    4.01
  -8   2   0   38.12    3.90
  -8   2   0   36.32    4.47
  -8   2   0   36.29    3.00
   8  -2   0   33.43    2.60
   8  -2   1   67.33    3.95
   8  -2   1   78.36    6.26
   8  -2   1   62.91    4.86
   8  -2   1   69.88    4.12
   8  -2   1   65.42    4.03
  -8   2  -1   73.08    5.00
  -8   2  -1   76.28    5.11
   8  -2   2    1.07    1.04
   8  -2   2    0.33    0.52
  -8   2  -2   -0.05    1.89
   8  -2   2   -0.03    0.71
  -8   2  -2   -0.32    1.61
  -8   2  -3  173.63   11.97
  -8   2  -3  169.61   24.75
  -8   2  -4   20.94    7.25
  -8   2  -4   17.05    3.18
   8  -1  -5   38.81    3.68
  -8   1   5   42.12    3.79
   8  -1  -4    7.77    2.64
  -8   1   4   11.90    2.75
   8  -1  -3   16.97    3.55
  -8   1   3   13.68    3.07
   8  -1  -3   17.65    3.58
  -8   1   3   16.83    3.37
  -8   1   3   19.28    4.23
  -8   1   3   17.04    2.62
   8  -1  -3   16.20    3.83
  -8   1   2   26.74    6.94
   8  -1  -2   40.83    4.40
  -8   1   2   38.77    4.53
  -8   1   2   34.09    4.85
  -8   1   2   34.01    3.17
   8  -1  -2   37.21    4.22
   8  -1  -1   61.90    5.13
   8  -1  -1   57.41    5.63
   8  -1  -1   56.47    4.31
   8  -1  -1   53.45    4.32
  -8   1   1   63.89    5.11
  -8   1   1   61.22    5.71
  -8   1   1   60.49    3.63
   8  -1  -1   68.32    4.68
   8  -1   0  244.94    7.38
   8  -1   0  246.70    8.62
   8  -1   0  278.85   11.65
   8  -1   0  250.85    7.55
  -8   1   0  288.09   10.08
   8  -1   0  220.31    9.50
  -8   1   0  285.01   10.04
  -8   1   0  286.58   11.12
  -8   1   0  284.66    7.88
   8  -1   0  251.63    7.34
   8  -1   1   12.25    2.66
   8  -1   1   10.02    1.61
   8  -1   1    8.53    1.76
   8  -1   1    8.40    1.49
   8  -1   1   11.14    1.74
  -8   1  -1   10.03    1.94
  -8   1  -1    9.92    1.90
   8  -1   2    6.59    1.87
  -8   1  -2    6.69    2.78
   8  -1   2   10.08    1.80
  -8   1  -2    9.05    3.26
   8  -1   2    7.12    1.50
   8  -1   2    8.87    1.66
  -8   1  -2    9.53    1.83
  -8   1  -2    6.37    2.86
  -8   1  -2    9.89    1.87
  -8   1  -3   11.31    3.63
  -8   1  -4   58.47    6.12
  -8   1  -4   69.64   12.94
   8   0  -5    2.31    0.92
  -8   0   5    3.40    1.04
   8   0  -4    7.97    2.24
   8   0  -4    8.66    2.72
   8   0  -4    6.11    2.35
  -8   0   4    8.40    2.44
   8   0  -3  102.37    8.36
   8   0  -3   83.22    7.64
  -8   0   3   91.13    8.97
  -8   0   3   90.82    5.89
   8   0  -3   89.69    7.70
   8   0  -3   97.47    8.58
   8   0  -2   68.49    4.93
   8   0  -2   81.49    5.90
  -8   0   2   72.43    5.82
  -8   0   2   78.44    7.41
  -8   0   2   74.61    4.65
   8   0  -2   73.13    5.87
   8   0  -1   29.05    2.48
   8   0  -1   31.72    3.60
  -8   0   1   26.80    6.38
   8   0  -1   29.97    3.27
  -8   0   1   30.19    3.41
  -8   0   1   27.53    3.28
  -8   0   1   29.84    3.95
  -8   0   1   32.22    2.78
   8   0  -1   30.62    3.17
   8   0   0  544.81   10.96
   8   0   0  573.79   12.51
  -8   0   0  612.58   25.10
   8   0   0  571.45   11.76
   8   0   0  562.87   11.25
  -8   0   0  599.65   14.16
  -8   0   0  591.72   14.11
  -8   0   0  589.02   15.04
  -8   0   0  639.91   11.49
   8   0   0  558.90   11.33
   8   0   1   93.13    4.61
   8   0   1   92.83    5.03
  -8   0  -1   79.98   11.22
   8   0   1   93.37    4.89
   8   0   1   97.07    4.67
  -8   0  -1  105.87    5.99
  -8   0  -1  107.04    6.06
   8   0   1   94.01    4.33
   8   0   2   -0.24    0.61
   8   0   2   -0.23    0.59
  -8   0  -2    0.24    0.62
   8   0   2    0.23    0.51
   8   0   2    0.98    0.86
  -8   0  -2    0.37    0.53
  -8   0  -2    0.14    2.13
   8   0   3    4.07    1.38
   8   0   3    5.22    1.42
   8   0   3    2.64    0.90
   8   0   3    1.87    0.86
  -8   0  -3    2.02    2.84
  -8   0  -4   -0.87    3.09
  -8   0  -4    8.33    2.75
   8   1  -5    0.24    0.71
   8   1  -4   -0.81    1.26
   8   1  -4    1.82    1.91
   8   1  -4    0.89    1.19
   8   1  -3  881.00   22.47
  -8  -1   3  894.84   27.78
  -8  -1   3  860.96   17.84
   8   1  -2   13.54    2.52
  -8  -1   2    5.87    5.13
   8   1  -2   16.27    3.03
  -8  -1   2   11.09    2.22
  -8  -1   2   16.15    3.56
  -8  -1   2   12.69    2.10
   8   1  -2   10.56    2.34
   8   1  -2   14.94    2.81
   8   1  -1   20.00    2.31
   8   1  -1   18.44    2.69
  -8  -1   1   17.15    5.42
  -8  -1   1   18.82    2.59
  -8  -1   1   19.72    2.69
  -8  -1   1   22.13    3.53
  -8  -1   1   19.96    2.19
   8   1  -1   19.66    2.61
   8   1   0    6.21    1.48
   8   1   0    7.46    1.42
  -8  -1   0    5.57    4.39
   8   1   0    9.54    1.65
   8   1   0    8.52    1.55
  -8  -1   0    8.97    1.83
  -8  -1   0    8.11    1.75
  -8  -1   0    8.03    1.87
  -8  -1   0    8.21    1.42
   8   1   0    7.72    1.51
   8   1   1   41.20    3.15
   8   1   1   33.25    2.84
  -8  -1  -1   29.98    8.77
   8   1   1   39.51    3.25
   8   1   1   40.52    3.10
  -8  -1  -1   43.59    3.96
  -8  -1  -1   41.54    3.90
   8   1   1   38.78    3.03
   8   1   2    6.38    1.35
   8   1   2   11.40    1.73
   8   1   2   10.25    1.87
  -8  -1  -2   11.77    3.72
   8   1   2   11.12    1.87
  -8  -1  -2    0.54    5.41
   8   1   2    8.99    1.83
  -8  -1  -2    6.61    3.28
   8   1   2   11.89    1.86
  -8  -1  -2   10.30    2.03
  -8  -1  -2   11.54    2.13
  -8  -1  -2   13.78    5.21
  -8  -1  -2    6.88    3.06
   8   1   2    9.15    1.58
   8   1   3  100.29    5.39
   8   1   3   90.29    5.63
  -8  -1  -3   87.18   10.04
   8   1   3   93.84    5.31
   8   1   3  107.41    6.20
  -8  -1  -3   81.57   10.72
   8   1   3   98.37    6.28
   8   1   3   99.77    5.86
  -8  -1  -3   71.24   12.59
  -8  -1  -3   63.21    9.83
  -8  -1  -4    2.99    3.54
   8   1   4    6.83    1.23
   8   1   5   43.64    2.03
   8   2  -4   19.87    3.27
   8   2  -4   23.81    3.34
   8   2  -4   26.28    3.63
   8   2  -3   41.42    5.21
   8   2  -3   51.84    5.32
   8   2  -3   56.25    6.17
  -8  -2   2    8.37    4.87
   8   2  -2    4.58    1.49
   8   2  -2    4.81    1.58
   8   2  -2    5.92    1.65
  -8  -2   2    7.38    2.47
  -8  -2   2    7.05    1.63
   8   2  -2    9.55    2.33
   8   2  -1    0.19    0.64
  -8  -2   1   -0.21    2.38
  -8  -2   1   -0.18    0.49
  -8  -2   1   -0.14    0.50
   8   2  -1    0.34    0.94
  -8  -2   1    0.48    1.17
  -8  -2   1    0.31    0.70
   8   2   0    2.38    0.97
  -8  -2   0    0.30    2.61
  -8  -2   0    2.80    1.12
   8   2   0    2.52    0.93
   8   2   0    1.55    0.70
  -8  -2   0    3.31    1.18
   8   2   0    2.33    1.01
  -8  -2   0    2.84    1.36
  -8  -2   0    2.82    2.05
  -8  -2   0    1.12    0.65
   8   2   1  147.77    6.01
   8   2   1  143.69    6.38
   8   2   1  153.00    6.05
  -8  -2  -1  153.66    7.64
  -8  -2  -1  149.24    7.56
  -8  -2  -1  123.99   12.39
   8   2   1  144.06    6.34
   8   2   2  368.07   10.66
   8   2   2  383.60   11.52
  -8  -2  -2  393.31   20.05
   8   2   2  400.25   10.38
   8   2   2  384.08   10.59
  -8  -2  -2  444.86   35.44
  -8  -2  -2  391.33   22.96
   8   2   2  380.67   11.47
   8   2   2  392.67   10.70
   8   2   2  407.19   10.45
  -8  -2  -2  381.98   26.27
  -8  -2  -2  398.64   13.27
  -8  -2  -2  401.80   13.35
   8   2   2  405.44    9.91
   8   2   2  380.19   10.84
  -8  -2  -2  367.83   22.19
   8   2   3    9.85    1.93
   8   2   3    9.61    1.90
  -8  -2  -3   10.19    3.80
  -8  -2  -3   15.30   10.09
   8   2   3    9.27    1.82
  -8  -2  -3    5.86    5.71
  -8  -2  -3    5.25    3.24
   8   2   4    7.13    1.41
   8   2   4    6.95    1.44
  -8  -2  -4    3.71    3.91
   8   2   4    8.02    1.55
   8   3  -4    1.43    1.11
   8   3  -4    1.37    1.12
   8   3  -3   19.88    3.91
   8   3  -3   22.45    3.45
   8   3  -3   20.92    3.64
  -8  -3   2    9.22    4.97
   8   3  -2    7.83    2.36
   8   3  -2    8.98    2.46
  -8  -3   2    7.92    2.51
   8   3  -2   12.19    2.67
  -8  -3   1   59.62   10.95
   8   3  -1   57.33    4.86
   8   3  -1   43.76    4.14
  -8  -3   1   49.97    5.82
   8   3  -1   44.56    4.24
   8   3  -1   45.64    4.21
   8   3   0  192.25    7.32
   8   3   0  200.54    7.66
  -8  -3   0  170.41    7.79
  -8  -3   0  164.80    7.64
  -8  -3   0  185.16    9.88
  -8  -3   0  174.08   13.22
   8   3   0  170.52    7.37
   8   3   1   92.12    5.24
  -8  -3  -1  117.76   10.40
   8   3   1   96.57    5.10
   8   3   1   92.52    4.88
  -8  -3  -1  118.95   17.16
  -8  -3  -1  107.29   11.25
   8   3   1   94.22    5.34
   8   3   1   90.43    5.35
  -8  -3  -1   95.46    6.27
  -8  -3  -1   94.29    6.27
  -8  -3  -1   89.86   11.19
   8   3   1   92.60    5.50
   8   3   2  406.65   11.67
   8   3   2  406.51   12.45
  -8  -3  -2  449.90   22.19
   8   3   2  436.40   11.44
   8   3   2  389.65   10.91
  -8  -3  -2  511.90   39.90
  -8  -3  -2  467.94   25.65
   8   3   2  392.99   11.93
   8   3   2  407.59   11.62
  -8  -3  -2  454.13   29.76
  -8  -3  -2  406.73   13.96
  -8  -3  -2  421.15   14.18
   8   3   2  435.64   10.55
  -8  -3  -2  351.93   25.31
   8   3   2  401.29   12.11
  -8  -3  -2  408.57   24.32
   8   3   3    3.10    1.27
   8   3   3    3.64    1.35
  -8  -3  -3    0.46    1.94
  -8  -3  -3    2.59    4.37
   8   3   3    3.51    1.18
  -8  -3  -3   -1.02    2.83
   8   3   3    4.68    1.42
   8   3   4    3.26    0.98
   8   3   4    3.31    1.02
   8   3   4    4.91    1.20
  -8  -3  -4    0.53    2.69
   8   3   4    4.58    1.19
   8   4  -4   40.26    3.78
   8   4  -4   31.16    2.51
   8   4  -3    3.40    1.81
   8   4  -3    2.54    1.53
   8   4  -3    1.56    1.06
   8   4  -2   -0.02    1.20
   8   4  -2   -2.18    1.37
  -8  -4   1  281.34   24.84
   8   4  -1  320.22   12.48
   8   4  -1  291.74   11.72
  -8  -4   1  295.89   15.07
   8   4  -1  280.67   10.94
   8   4  -1  282.20   10.88
   8   4   0  150.55    7.08
  -8  -4   0  200.36   13.52
  -8  -4   0  196.62   21.67
   8   4   0  148.89    7.83
  -8  -4   0  137.98    7.16
  -8  -4   0  135.62    7.11
   8   4   0  153.94    7.06
   8   4   0  155.22    7.46
  -8  -4   0  163.11   10.13
  -8  -4   0  157.14   13.42
   8   4   0  167.01    7.82
   8   4   1   15.63    2.36
  -8  -4  -1   23.59    5.01
   8   4   1   21.38    2.68
   8   4   1   17.32    3.05
  -8  -4  -1   17.23    7.61
   8   4   1    0.81    2.07
  -8  -4  -1   21.50    6.41
   8   4   1   19.05    2.51
   8   4   1   19.29    2.77
  -8  -4  -1   16.08    4.97
  -8  -4  -1   17.18    2.77
  -8  -4  -1   17.86    2.84
  -8  -4  -1   17.09    5.22
  -8  -4  -1   20.77    4.97
   8   4   1   16.81    2.17
   8   4   1   20.44    2.80
   8   4   2   10.18    2.00
  -8  -4  -2    9.34    3.79
   8   4   2   14.30    2.35
  -8  -4  -2   10.41    8.48
  -8  -4  -2   10.14    5.14
   8   4   2   10.31    2.03
   8   4   2   10.56    2.10
  -8  -4  -2   17.48    5.47
  -8  -4  -2   16.12    2.97
  -8  -4  -2   10.63    2.37
  -8  -4  -2   13.23    5.00
   8   4   2   10.67    1.82
  -8  -4  -2    1.33    2.39
   8   4   2   11.81    2.26
   8   4   3    1.72    1.12
   8   4   3    0.60    0.84
  -8  -4  -3    2.38    2.04
  -8  -4  -3   -1.48    3.89
   8   4   3    1.28    1.17
  -8  -4  -3   -0.43    2.39
   8   4   3    0.09    0.67
   8   4   4    4.92    1.18
   8   4   4    5.05    1.20
   8   4   4    5.88    1.28
  -8  -4  -4    3.48    2.72
  -8  -4  -4    3.36    1.99
   8   4   4    6.05    1.11
   8   5  -3    0.68    1.26
   8   5  -2    4.44    2.05
   8   5  -2   -0.07    1.21
   8   5  -2    5.73    2.04
   8   5  -1   52.41    5.43
   8   5  -1    0.55    2.12
  -8  -5   0  117.78   17.92
   8   5   0  102.87    6.07
  -8  -5   0  131.35   11.47
   8   5   0  115.60    7.10
  -8  -5   0  109.35    8.80
   8   5   0  103.25    6.54
   8   5   0  111.99    6.32
   8   5   1   26.84    3.07
  -8  -5  -1   38.46    6.58
   8   5   1   27.38    3.31
   8   5   1   28.03    4.25
   8   5   1   24.57    5.40
  -8  -5  -1   40.32   13.49
  -8  -5  -1   30.94    7.57
   8   5   1   27.62    3.44
  -8  -5  -1   28.96    3.63
  -8  -5  -1   26.72    3.52
   8   5   1   28.58    2.98
  -8  -5  -1   26.48    6.00
  -8  -5  -1   28.27    6.73
   8   5   1   29.69    3.55
   8   5   2   48.19    4.26
  -8  -5  -2   57.67    8.45
   8   5   2   48.77    4.20
   8   5   2   51.89    5.15
  -8  -5  -2   47.63    8.65
   8   5   2   54.65    4.81
  -8  -5  -2   58.91   11.42
   8   5   2   48.40    3.61
  -8  -5  -2   52.09    9.03
   8   5   3   -0.01    0.82
  -8  -5  -3    0.34    1.55
   8   5   3   -0.15    0.70
  -8  -5  -3   -0.04    3.77
   8   5   3   -0.02    0.74
  -8  -5  -3    2.19    3.23
   8   5   3    0.45    0.61
   8   5   4   71.35    3.87
   8   5   4   70.46    3.68
   8   5   4   73.48    4.00
  -8  -5  -4   48.76    7.58
  -8  -5  -4   48.35    6.54
   8   6  -3    0.60    0.87
   8   6  -2   25.77    3.89
   8   6  -1    0.02    1.28
   8   6  -1   -0.22    2.13
  -8  -6   0  276.31   16.45
  -8  -6   0  270.56   19.83
   8   6   0  227.80   10.46
   8   6   1   19.02    2.53
  -8  -6  -1   25.38    5.36
  -8  -6  -1   26.46    7.05
   8   6   1   20.70    3.23
  -8  -6  -1   19.40    5.13
   8   6   1   21.14    3.03
   8   6   2    0.62    0.88
   8   6   2    0.41    1.04
  -8  -6  -2   -0.19    2.00
   8   6   2    1.45    1.21
  -8  -6  -2   -0.79    3.19
   8   6   2    0.57    0.97
  -8  -6  -2    2.87    3.20
  -8  -6  -2   -0.60    1.81
   8   6   3    1.09    0.76
   8   6   3    0.33    0.70
  -8  -6  -3    1.98    1.89
   8   6   3   -0.13    0.83
  -8  -6  -3    1.12    2.00
   8   6   4   11.96    1.31
   8   6   4    9.85    1.17
   8   6   4   12.59    1.39
   8   7  -2    5.77    1.67
   8   7  -1  357.90   20.05
   8   7  -1   12.43    2.67
  -8  -7   0   12.94    3.71
   8   7   0   10.59    2.45
  -8  -7   0    9.98    3.49
  -8  -7  -1   34.15    5.72
  -8  -7  -1   35.02    6.46
  -8  -7  -1   39.57    8.04
   8   7   1   44.46    4.16
  -8  -7  -1   35.52    5.87
   8   7   2    0.47    0.56
   8   7   2    0.23    0.88
  -8  -7  -2   -0.33    2.02
  -8  -7  -2    0.52    2.84
   8   7   2    1.22    1.14
  -8  -7  -2    0.23    2.01
  -8  -7  -2    1.72    2.63
   8   7   3    0.42    0.40
  -8  -7  -3    0.36    1.22
   8   7   3    1.16    0.67
  -8  -7  -3    1.05    2.04
   8   7   3    0.75    0.79
  -8  -7  -3    0.70    1.41
  -8  -8   1    3.96    1.80
   8   8  -1    2.95    1.03
  -8  -8   0   23.52    3.90
  -8  -8   0   21.60    4.61
   8   8   0   26.70    3.11
  -8  -8  -1    3.71    2.04
   8   8   1    0.26    1.56
   8   8   1    3.79    1.25
  -8  -8  -1    3.70    2.15
  -8  -8  -1    5.92    2.86
  -8  -8  -2    0.33    1.22
  -8  -8  -2    1.45    2.03
  -8  -8  -2    0.84    0.80
  -8  -8  -2    0.59    0.68
   9  -9  -2   13.93    2.05
   9  -9  -2   10.77    1.96
   9  -9  -2   13.21    2.25
   9  -9  -1    4.44    1.22
  -9   9   1    3.98    1.70
   9  -9  -1    3.66    1.41
   9  -9  -1    5.28    1.66
   9  -9   0    8.67    1.68
   9  -9   0    8.99    1.88
   9  -8  -3    0.34    0.97
   9  -8  -3    0.22    0.93
   9  -8  -3   -1.04    0.98
   9  -8  -3    0.03    0.76
  -9   8   2    8.25    1.95
   9  -8  -2    9.01    2.66
  -9   8   2    3.21    3.41
   9  -8  -2    9.20    2.62
   9  -8  -2   11.01    2.47
   9  -8  -2   10.64    2.84
   9  -8  -1    3.24    1.76
  -9   8   1    4.87    3.06
  -9   8   1    1.89    3.33
   9  -8  -1    2.39    1.61
   9  -8  -1    1.72    1.18
   9  -8  -1    1.33    1.41
  -9   8   0    2.04    2.24
   9  -8   0    5.66    1.86
  -9   8   0    6.85    2.64
   9  -8   0    7.28    2.47
   9  -8   0    6.64    1.77
  -9   8  -1    1.10    2.23
  -9   8  -1    0.82    0.77
  -9   7   4    6.64    1.38
   9  -7  -4    8.17    1.81
  -9   7   3   11.26    2.58
  -9   7   3   10.00    1.80
   9  -7  -3   12.53    3.07
  -9   7   3   14.21    2.72
   9  -7  -3   13.36    3.61
   9  -7  -3   12.08    2.87
   9  -7  -3   13.38    3.12
  -9   7   2   53.83    5.79
   9  -7  -2   60.21    7.06
  -9   7   2   65.52    9.36
  -9   7   2   59.93    5.80
   9  -7  -2   53.62    7.00
   9  -7  -2   63.29    6.76
   9  -7  -2   68.28    7.74
  -9   7   1   59.67    5.79
   9  -7  -1   70.98    8.04
  -9   7   1   70.92    9.94
  -9   7   1   58.18    5.26
   9  -7  -1   69.17    7.93
   9  -7  -1   70.06    7.03
   9  -7  -1   60.90    5.34
  -9   7   0    1.58    4.86
  -9   7   0    0.30    2.30
   9  -7   0    0.86    1.31
   9  -7   0    0.63    0.94
  -9   7  -1   22.49    9.12
  -9   7  -1   22.50    4.56
  -9   7  -1    3.58    2.59
   9  -7   1   16.95    2.44
  -9   7  -2    4.10    2.45
  -9   7  -2    1.58    3.27
  -9   6   4   48.88    4.58
  -9   6   4   52.72    4.11
  -9   6   4   50.17    4.16
   9  -6  -4   45.36    5.10
  -9   6   4   46.60    3.60
   9  -6  -4   45.00    4.63
  -9   6   3   20.37    3.90
  -9   6   3   15.35    2.88
  -9   6   3   19.15    3.54
   9  -6  -3   21.64    4.21
   9  -6  -3   20.36    4.52
  -9   6   3   21.06    3.73
   9  -6  -3   18.79    4.00
  -9   6   3   14.65    2.45
   9  -6  -3   17.27    3.67
   9  -6  -3   16.15    3.28
  -9   6   2   10.04    2.97
  -9   6   2   13.13    2.46
   9  -6  -2   15.63    3.07
  -9   6   2   11.73    3.11
   9  -6  -2   12.42    3.87
  -9   6   2   15.93    5.17
  -9   6   2   16.81    3.51
   9  -6  -2    8.15    3.12
   9  -6  -2   15.97    3.93
   9  -6  -2   11.26    3.56
   9  -6  -2   15.85    3.31
  -9   6   1   11.09    2.62
   9  -6  -1   11.13    2.33
  -9   6   1   13.92    3.07
  -9   6   1    2.14    3.45
  -9   6   1   10.85    4.95
   9  -6  -1   11.03    3.58
   9  -6  -1   14.10    3.49
  -9   6   1   11.49    2.68
   9  -6  -1    9.09    2.20
  -9   6   0    0.68    4.79
  -9   6   0   -0.49    2.36
   9  -6   0    4.25    1.77
  -9   6  -1   -1.00    4.68
  -9   6  -1   -2.00    6.19
  -9   6  -1    0.99    1.74
  -9   6  -2   81.18    7.63
  -9   6  -2   75.24   13.31
  -9   6  -2   66.37   12.78
  -9   6  -3   -0.89    2.00
  -9   5   4   15.21    2.99
  -9   5   4   15.47    2.68
  -9   5   4    6.87    1.59
   9  -5  -4   13.33    2.35
   9  -5  -4   11.68    3.15
  -9   5   4   12.47    2.47
  -9   5   4   16.07    2.68
   9  -5  -4   10.06    2.61
  -9   5   3    4.94    2.25
  -9   5   3    3.77    1.84
   9  -5  -3    7.01    2.47
  -9   5   3    6.99    2.49
   9  -5  -3    2.20    2.01
   9  -5  -3    3.02    1.43
   9  -5  -3    2.84    2.49
   9  -5  -3    6.99    3.19
  -9   5   3    8.31    2.79
  -9   5   3    3.18    1.72
   9  -5  -3    5.76    2.49
  -9   5   2   -2.89    1.80
  -9   5   2    0.43    0.74
   9  -5  -2    1.26    1.04
  -9   5   2   -0.24    1.15
   9  -5  -2    1.00    1.87
  -9   5   2   -0.72    1.76
   9  -5  -2   -0.01    1.60
  -9   5   2    0.19    0.84
   9  -5  -2   -3.21    2.14
   9  -5  -2   -0.56    1.50
   9  -5  -2    1.16    1.20
   9  -5  -1    0.21    0.95
   9  -5  -1   -2.46    1.58
  -9   5   1   -0.70    0.98
   9  -5  -1   -2.63    1.56
  -9   5   1    1.05    1.56
  -9   5   1    1.62    2.68
   9  -5  -1   -2.02    1.25
   9  -5  -1    3.16    1.72
  -9   5   1    1.99    1.79
  -9   5   1    0.91    1.24
   9  -5  -1   -2.07    1.55
   9  -5  -1    0.10    0.96
   9  -5   0    4.19    1.78
   9  -5   0    0.68    1.18
   9  -5   0    0.76    1.53
  -9   5   0    1.34    2.82
   9  -5   0    0.85    1.20
  -9   5   0    3.97    3.26
   9  -5   0    4.80    2.39
  -9   5  -1  331.39   32.32
  -9   5  -1  333.13   32.19
  -9   5  -2   -3.41    8.74
  -9   5  -2    3.55    5.42
  -9   5  -2    0.07    1.46
  -9   5  -3    1.75    4.04
  -9   5  -3   -1.14    2.80
   9  -4  -5    3.85    0.97
  -9   4   5   10.39    1.48
  -9   4   4    7.10    2.33
  -9   4   4    6.05    1.96
  -9   4   4    4.81    1.64
  -9   4   4    5.77    1.74
   9  -4  -4    5.76    2.06
   9  -4  -4    2.35    2.26
  -9   4   4    6.25    1.88
  -9   4   4    7.68    2.30
   9  -4  -4    6.65    2.14
  -9   4   3  194.89   12.65
  -9   4   3  185.33   11.16
   9  -4  -3  183.44   11.83
  -9   4   3  191.36   11.52
   9  -4  -3  186.87   12.15
   9  -4  -3  176.60   10.33
  -9   4   3  210.46   12.25
   9  -4  -3  187.87   13.99
   9  -4  -3  180.69   12.59
  -9   4   3  188.93   11.11
   9  -4  -3  189.38   12.44
  -9   4   2  133.80    9.82
   9  -4  -2  121.91    9.69
   9  -4  -2  133.97   10.32
   9  -4  -2  131.31    9.17
  -9   4   2  139.64    9.70
  -9   4   2  131.17   12.76
   9  -4  -2  157.29   10.39
   9  -4  -2  132.93   10.22
   9  -4  -2  145.63   11.52
  -9   4   2  132.49    9.53
  -9   4   2  137.98   12.16
   9  -4  -2  132.42   10.34
  -9   4   2  123.27    5.62
   9  -4  -2  139.55    9.80
  -9   4   1  212.55   10.96
  -9   4   1  197.65   13.72
   9  -4  -1  221.60   13.01
   9  -4  -1  229.36   12.03
   9  -4  -1  238.17   10.89
  -9   4   1  232.05   11.28
  -9   4   1  242.98   16.62
   9  -4  -1  237.49   11.51
   9  -4  -1  252.73   13.83
  -9   4   1  279.40   13.86
  -9   4   1  206.74   15.93
  -9   4   1  230.93   11.15
  -9   4   1  241.50   15.13
  -9   4   1  218.19    7.60
   9  -4  -1  215.61   10.93
  -9   4   0   29.90    5.57
   9  -4   0   37.85    4.56
   9  -4   0   41.93    5.71
   9  -4   0   34.58    3.83
   9  -4   0   30.31    3.73
   9  -4   0   30.97    3.13
  -9   4   0   39.77    4.70
   9  -4   0   38.13    5.59
  -9   4   0   31.41    6.20
  -9   4   0   41.18    6.88
   9  -4   1  230.51   12.49
   9  -4   1  223.19   10.90
  -9   4  -1  212.60   15.03
   9  -4   1  203.14    7.99
   9  -4   1  210.13   13.43
  -9   4  -1  203.28   16.71
  -9   4  -2   28.02   11.09
  -9   4  -2   37.04   11.43
  -9   4  -2   33.35    5.81
  -9   4  -3    9.35    6.99
  -9   4  -3    7.59    2.41
  -9   4  -4   41.81    6.80
   9  -3  -5    6.15    1.30
   9  -3  -5    4.98    1.30
  -9   3   5    5.86    1.11
  -9   3   5    4.49    1.10
  -9   3   5    9.01    1.60
  -9   3   4   13.83    3.21
  -9   3   4   12.35    2.79
  -9   3   4   12.44    2.45
   9  -3  -4   14.64    3.25
   9  -3  -4    8.29    2.94
  -9   3   4   15.51    2.94
   9  -3  -4   12.64    3.01
   9  -3  -4    6.99    2.79
  -9   3   3  130.58   10.38
   9  -3  -3  130.72   10.18
  -9   3   3  124.06    9.09
   9  -3  -3  125.06    8.98
  -9   3   3  129.18    9.54
   9  -3  -3  121.38   10.91
   9  -3  -3  120.76   10.05
   9  -3  -3  127.05   10.27
   9  -3  -2    8.88    2.80
  -9   3   2    6.34    2.31
   9  -3  -2    5.70    2.27
   9  -3  -2    6.05    2.24
  -9   3   2    8.96    2.58
  -9   3   2    6.64    3.23
   9  -3  -2    5.15    2.00
   9  -3  -2    8.86    2.53
   9  -3  -2    8.54    2.97
  -9   3   2    2.21    1.58
  -9   3   2    8.16    2.51
   9  -3  -2    8.75    2.17
   9  -3  -2    5.47    2.34
  -9   3   2    6.19    1.46
   9  -3  -2    5.93    2.32
   9  -3  -1   87.69    7.76
   9  -3  -1  104.47    7.66
   9  -3  -1   99.74    6.73
   9  -3  -1  108.85    7.40
   9  -3  -1   90.57    5.85
   9  -3  -1  100.58    7.90
  -9   3   1  120.55    8.53
  -9   3   1  109.82    9.30
  -9   3   1  104.79    5.12
   9  -3  -1   96.21    5.70
   9  -3  -1   87.46    6.64
   9  -3   0   37.38    4.99
   9  -3   0   31.26    3.99
   9  -3   0   34.08    3.19
  -9   3   0   42.61    4.65
   9  -3   0   35.62    5.00
  -9   3   0   41.40    5.71
  -9   3   0   34.71    3.32
   9  -3   1    1.34    1.02
   9  -3   1    1.52    0.70
   9  -3   1    1.96    1.38
  -9   3  -1    1.32    2.13
  -9   3  -1    3.51    2.96
   9  -3   1    3.31    1.15
   9  -3   1    0.88    1.08
  -9   3  -1    4.81    3.09
  -9   3  -1    4.36    2.73
   9  -3   2  199.97   10.30
  -9   3  -2  185.01   13.08
   9  -3   2  174.55   12.08
  -9   3  -3    3.12    5.42
  -9   3  -3    6.17    2.59
  -9   3  -4   80.08   11.66
   9  -2  -5    9.33    1.60
   9  -2  -5    4.62    1.32
  -9   2   5    4.27    0.95
  -9   2   5    7.15    1.55
  -9   2   5    8.16    1.58
  -9   2   4   60.16    6.34
   9  -2  -4   68.29    6.80
  -9   2   4   57.70    5.38
  -9   2   3    3.56    2.48
  -9   2   3    2.85    1.73
   9  -2  -3    1.52    1.88
  -9   2   3    2.29    1.47
   9  -2  -3    0.29    1.21
   9  -2  -3    1.06    1.12
   9  -2  -3    3.05    1.96
  -9   2   3    3.86    2.55
  -9   2   3    3.65    1.31
   9  -2  -3    0.42    1.44
   9  -2  -3    0.60    1.29
  -9   2   3    2.55    1.60
   9  -2  -2   35.97    5.21
   9  -2  -2   34.55    4.57
   9  -2  -2   33.28    4.84
  -9   2   2   31.26    4.34
   9  -2  -2   41.45    4.73
   9  -2  -2   34.21    4.46
  -9   2   2   33.75    4.85
  -9   2   2   34.41    4.60
  -9   2   2   35.03    5.48
   9  -2  -2   32.90    4.61
  -9   2   2   33.52    3.29
   9  -2  -2   36.45    4.34
   9  -2  -2   30.11    4.49
   9  -2  -2   33.97    4.20
   9  -2  -1    1.42    1.25
   9  -2  -1    2.08    1.41
  -9   2   1   -1.37    2.05
   9  -2  -1    3.60    1.44
   9  -2  -1    3.65    1.59
  -9   2   1    4.11    1.81
  -9   2   1    3.63    1.88
  -9   2   1    2.89    1.12
   9  -2  -1    3.99    1.32
   9  -2   0    0.81    0.92
   9  -2   0    2.58    1.01
   9  -2   0    0.92    1.02
  -9   2   0    2.78    1.24
   9  -2   0    1.40    0.79
   9  -2   0    2.59    1.10
  -9   2   0    2.12    1.02
  -9   2   0    3.41    1.45
  -9   2   0    1.31    0.95
   9  -2   1   -0.45    0.80
   9  -2   1    1.17    0.69
  -9   2  -1   -4.73    2.65
   9  -2   1   -0.04    0.85
  -9   2  -1    1.60    0.88
  -9   2  -1    6.44    3.93
   9  -2   1    0.69    0.52
   9  -2   1    0.41    0.78
   9  -2   1   -1.24    1.14
  -9   2  -1    1.14    1.02
  -9   2  -1   -3.05    2.69
  -9   2  -1    1.55    1.76
   9  -2   2    0.75    0.63
   9  -2   2   -0.39    0.67
  -9   2  -2   -0.54    1.62
   9  -2   2   -1.31    0.89
  -9   2  -2    0.64    2.08
  -9   2  -3   11.29    8.46
  -9   2  -3    9.70    3.19
  -9   2  -4    1.22    3.28
  -9   2  -4    0.06    0.69
   9  -2   4    0.28    0.29
   9  -1  -5    3.36    1.10
   9  -1  -5    2.29    0.96
  -9   1   5    3.45    1.11
   9  -1  -4    1.07    1.35
  -9   1   4    1.63    1.41
  -9   1   4    2.12    1.27
   9  -1  -3   58.91    6.72
  -9   1   3   57.74    5.93
   9  -1  -3   65.37    6.72
  -9   1   3   58.43    6.22
  -9   1   3   54.75    7.26
  -9   1   3   58.29    4.66
   9  -1  -3   57.31    6.76
   9  -1  -2    7.60    2.28
  -9   1   2    6.57    2.29
   9  -1  -2    5.84    1.89
   9  -1  -2    3.47    1.47
  -9   1   2    5.23    1.96
   9  -1  -2    6.25    1.93
  -9   1   2    6.34    2.64
  -9   1   2    4.41    1.44
   9  -1  -2    5.70    1.83
   9  -1  -2    4.59    1.65
   9  -1  -1   54.59    5.18
   9  -1  -1   50.93    5.70
   9  -1  -1   56.10    4.58
  -9   1   1   58.84    5.33
  -9   1   1   54.80    5.80
  -9   1   1   57.34    3.71
   9  -1  -1   54.08    4.43
   9  -1   0  279.05    8.62
   9  -1   0  274.58    9.88
   9  -1   0  315.30   13.51
   9  -1   0  281.34    8.67
  -9   1   0  313.56   11.43
   9  -1   0  254.27   10.73
  -9   1   0  308.57   11.39
  -9   1   0  298.07   12.29
  -9   1   0  320.30    9.12
   9  -1   0  278.99    8.45
   9  -1   1   17.35    2.19
   9  -1   1   13.93    2.36
   9  -1   1   16.17    2.20
   9  -1   1   14.82    2.07
  -9   1  -1   18.35    2.77
  -9   1  -1   17.24    2.66
  -9   1  -2   35.37    6.71
   9  -1   2   44.46    3.79
   9  -1   2   37.95    4.08
  -9   1  -2   30.97    5.26
  -9   1  -2   27.62    6.96
   9  -1   2   39.03    3.51
   9  -1   2   44.23    3.79
  -9   1  -2   48.09    9.50
  -9   1  -3   10.78    3.61
  -9   1  -4   14.83    6.15
  -9   1  -4    2.76    1.94
  -9   1  -4    8.10    2.38
   9  -1   4   13.76    1.59
   9   0  -5    3.16    0.87
  -9   0   5    4.79    1.13
   9   0  -4   -0.61    1.86
   9   0  -4   -0.66    1.69
  -9   0   4   -0.12    0.93
  -9   0   3   85.22    6.78
   9   0  -3  100.25    8.23
   9   0  -3   97.11    8.11
  -9   0   3  100.09    9.70
  -9   0   3  107.14    6.39
   9   0  -3  108.28    8.57
   9   0  -3   99.41    8.68
   9   0  -2  168.85    9.60
   9   0  -2  191.90   10.06
   9   0  -2  171.88    8.99
  -9   0   2  153.36    9.09
  -9   0   2  173.38   11.60
  -9   0   2  172.01    7.25
   9   0  -2  164.02    9.19
   9   0  -2  171.35    9.34
   9   0  -2  168.90    9.87
   9   0  -1   34.23    4.05
  -9   0   1   24.60    6.90
   9   0  -1   38.33    3.94
  -9   0   1   35.56    3.98
  -9   0   1   36.21    4.02
  -9   0   1   37.85    4.84
  -9   0   1   36.10    3.05
   9   0  -1   34.00    3.55
   9   0   0  253.38    8.17
   9   0   0  262.45    9.25
  -9   0   0  283.66   18.80
   9   0   0  259.44    8.43
  -9   0   0  280.85   10.54
  -9   0   0  280.28   10.58
  -9   0   0  290.83   11.53
  -9   0   0  298.47    8.60
   9   0   0  249.68    8.21
   9   0   1    3.80    1.23
   9   0   1    3.48    1.08
  -9   0  -1    5.74    1.69
   9   0   1    3.95    1.22
   9   0   1    6.62    1.50
  -9   0  -1    5.59    1.58
   9   0   1    6.06    1.23
   9   0   2   -1.47    0.95
   9   0   2    0.22    0.63
  -9   0  -2    0.07    1.88
  -9   0  -2   -0.90    0.96
  -9   0  -2   -1.27    2.02
   9   0   2    0.53    0.61
   9   0   2    0.91    0.96
  -9   0  -2    0.04    0.89
  -9   0  -2    3.08    2.77
  -9   0  -3   -0.65    1.44
  -9   0  -3   -1.15    2.44
  -9   0  -3    1.92    4.49
  -9   0  -4   -0.05    1.13
   9   0   4    0.04    0.54
   9   1  -4    0.12    0.84
   9   1  -4    1.48    1.55
   9   1  -4    1.02    1.48
   9   1  -3  371.94   14.25
   9   1  -3  454.33   17.27
  -9  -1   2   14.32    6.53
   9   1  -2   27.39    3.96
  -9  -1   2   24.80    4.61
  -9  -1   2   19.03    2.54
   9   1  -2   25.06    3.76
   9   1  -2   24.88    3.62
   9   1  -1    6.03    1.43
   9   1  -1    6.39    1.77
  -9  -1   1    8.32    4.02
  -9  -1   1    6.65    1.77
  -9  -1   1    4.26    1.42
   9   1  -1    5.71    1.65
  -9  -1   1    6.28    2.15
  -9  -1   1    5.09    1.26
   9   1   0    8.24    1.56
   9   1   0    6.19    1.54
  -9  -1   0    5.09    4.15
  -9  -1   0    4.73    1.51
   9   1   0    4.49    1.36
   9   1   0    5.86    1.49
  -9  -1   0    4.81    1.46
   9   1   0    5.89    1.43
  -9  -1   0    6.72    1.93
  -9  -1   0    7.36    1.48
   9   1   1   13.43    1.98
   9   1   1   11.99    1.89
  -9  -1  -1    9.86    5.77
   9   1   1   13.77    2.12
   9   1   1   13.82    1.96
  -9  -1  -1   14.08    2.48
  -9  -1  -1   14.13    2.48
   9   1   1   13.02    1.93
   9   1   2   -0.21    0.58
   9   1   2    0.71    0.79
  -9  -1  -2    0.39    1.48
  -9  -1  -2   -0.18    0.94
  -9  -1  -2    4.58    3.61
   9   1   2    0.64    0.64
   9   1   2    0.40    0.82
  -9  -1  -2    0.39    0.62
  -9  -1  -2    0.93    2.76
   9   1   2   -0.02    0.50
  -9  -1  -2    1.19    2.79
   9   1   2   -0.16    0.56
   9   1   3   25.79    2.74
  -9  -1  -3   19.23    4.77
   9   1   3   21.28    2.40
  -9  -1  -3   16.77    6.04
  -9  -1  -4    1.91    1.67
   9   1   4    3.81    1.16
   9   2  -4   11.92    2.26
   9   2  -4   18.33    2.85
   9   2  -4   15.30    2.34
   9   2  -3    1.29    1.14
   9   2  -3    2.77    1.72
   9   2  -3   -1.13    1.63
  -9  -2   2   -0.67    3.84
   9   2  -2    2.51    1.28
   9   2  -2    3.83    1.56
   9   2  -2    4.28    1.83
   9   2  -2    2.18    1.26
  -9  -2   2    4.56    2.25
   9   2  -2    1.64    0.95
  -9  -2   2    3.46    1.16
   9   2  -1    2.20    1.14
  -9  -2   1    2.20    2.91
  -9  -2   1    2.37    1.03
  -9  -2   1    3.39    1.24
   9   2  -1    1.08    0.68
   9   2  -1    1.87    0.96
  -9  -2   1    2.03    1.47
  -9  -2   1    1.88    0.88
   9   2   0   24.80    2.80
  -9  -2   0   15.61    6.71
   9   2   0   23.66    2.75
  -9  -2   0   21.47    2.95
  -9  -2   0   22.28    2.98
  -9  -2   0   25.34    3.68
  -9  -2   0   18.85    4.43
  -9  -2   0   19.61    2.23
   9   2   0   20.84    2.63
   9   2   1   84.37    5.11
  -9  -2  -1   89.30    9.24
   9   2   1   79.52    4.74
  -9  -2  -1   86.99   15.63
  -9  -2  -1   82.92   10.09
   9   2   1   83.12    5.18
   9   2   1   85.30    4.92
  -9  -2  -1   83.59    6.04
  -9  -2  -1   86.52    6.15
   9   2   1   82.14    4.36
   9   2   1   86.37    5.23
   9   2   2  832.11   16.66
  -9  -2  -2  855.63   31.00
   9   2   2  868.90   15.52
   9   2   2  862.55   16.82
  -9  -2  -2  933.58   51.67
  -9  -2  -2  863.99   35.59
   9   2   2  816.45   17.44
   9   2   2  867.48   16.28
   9   2   2  872.05   16.25
  -9  -2  -2  816.71   39.50
  -9  -2  -2  875.17   20.46
  -9  -2  -2  880.36   20.63
   9   2   2  864.06   14.97
   9   2   2  828.80   16.60
  -9  -2  -2  750.68   32.71
   9   2   3   26.44    2.99
   9   2   3   28.87    2.99
  -9  -2  -3   21.60    5.44
   9   2   3   33.38    3.16
  -9  -2  -3   17.32    5.33
  -9  -2  -3   17.04    6.57
  -9  -2  -3   18.95    5.93
   9   2   3   30.05    2.95
  -9  -2  -4    1.07    3.03
   9   2   4    5.12    1.12
   9   2   4    2.47    0.76
   9   2   4    4.50    1.13
   9   3  -4    1.26    0.98
   9   3  -4    1.83    0.99
   9   3  -3    1.74    1.67
   9   3  -3   -0.51    1.40
   9   3  -3   -0.91    1.31
   9   3  -2   37.39    4.89
   9   3  -2   48.27    5.52
   9   3  -2   40.25    5.00
  -9  -3   2   46.14    6.37
   9   3  -2   38.58    4.57
   9   3  -1   11.92    2.42
   9   3  -1    0.02    1.54
  -9  -3   1   14.32    6.65
   9   3  -1   10.40    2.19
   9   3  -1    9.77    2.13
  -9  -3   1   12.37    3.11
   9   3  -1   11.02    2.25
   9   3   0  223.58    8.79
  -9  -3   0  269.93   15.77
  -9  -3   0  273.52   24.76
  -9  -3   0  280.11   18.25
   9   3   0  212.40    9.07
  -9  -3   0  214.14    9.29
  -9  -3   0  212.60    9.26
   9   3   0  224.47    8.26
   9   3   0  217.36    8.46
  -9  -3   0  261.40   12.35
   9   3   0  237.08    9.25
   9   3   1  175.85    7.71
  -9  -3  -1  208.12   14.74
   9   3   1  179.08    7.20
   9   3   1  171.74    7.11
  -9  -3  -1  226.45   24.86
  -9  -3  -1  201.56   16.42
   9   3   1  167.98    7.48
   9   3   1  175.75    7.89
  -9  -3  -1  183.39    9.16
  -9  -3  -1  179.75   17.21
  -9  -3  -1  176.01    8.99
   9   3   1  173.32    6.71
  -9  -3  -1  156.41   15.34
   9   3   1  180.99    8.05
  -9  -3  -1  169.74   14.49
   9   3   2  121.49    6.57
  -9  -3  -2  122.01   12.09
   9   3   2  124.22    6.20
   9   3   2  112.59    6.13
  -9  -3  -2  124.28   21.22
  -9  -3  -2  111.04   13.18
   9   3   2  106.02    6.44
   9   3   2  114.06    6.34
  -9  -3  -2  124.28    8.00
  -9  -3  -2  112.35   15.36
  -9  -3  -2  123.68    8.00
   9   3   2  119.60    5.72
   9   3   2  119.98    6.74
  -9  -3  -2  118.40   13.39
   9   3   3    2.00    1.10
  -9  -3  -3    1.05    2.52
   9   3   3    0.62    0.81
   9   3   3    1.51    0.82
  -9  -3  -3    0.28    2.94
  -9  -3  -3    2.71    3.07
   9   3   3    1.76    1.02
   9   3   4    8.48    1.40
   9   3   4    9.90    1.44
   9   3   4    9.77    1.40
   9   4  -4   -0.80    0.75
   9   4  -3    7.14    2.24
   9   4  -3    5.05    1.78
   9   4  -2   61.05    6.12
   9   4  -2   60.97    6.13
   9   4  -1  189.20    9.82
   9   4  -1  173.10    9.34
  -9  -4   1  171.43   11.71
   9   4  -1  166.49    8.77
   9   4  -1  171.60    8.82
   9   4   0  196.61    8.52
  -9  -4   0  257.17   16.05
  -9  -4   0  220.76   24.44
  -9  -4   0  171.68    8.38
  -9  -4   0  174.46    8.48
  -9  -4   0  208.31   11.72
   9   4   0  202.90    8.87
   9   4   0  211.77    9.24
   9   4   0  200.59    8.40
   9   4   1   34.13    3.51
  -9  -4  -1   40.06    6.71
   9   4   1   37.27    3.62
  -9  -4  -1   29.39    9.77
  -9  -4  -1   43.26    8.06
   9   4   1   31.28    3.34
   9   4   1   39.78    4.05
  -9  -4  -1   37.03    4.22
  -9  -4  -1   52.69    9.77
  -9  -4  -1   38.17    4.34
   9   4   1   36.94    3.36
  -9  -4  -1   37.04    7.93
   9   4   1   35.14    3.77
  -9  -4  -1   33.02    6.69
   9   4   2    5.92    1.69
   9   4   2    9.00    1.85
  -9  -4  -2    6.55    3.56
  -9  -4  -2   11.60    5.91
   9   4   2    6.44    1.74
  -9  -4  -2    3.03    2.22
  -9  -4  -2    5.81    3.54
   9   4   2    6.59    1.49
   9   4   3   33.06    3.38
   9   4   3   33.48    3.21
  -9  -4  -3   23.70    5.19
  -9  -4  -3   22.91    7.47
   9   4   3   28.63    3.26
  -9  -4  -3   25.30    6.06
   9   4   3   29.49    2.77
   9   4   4    4.13    0.99
   9   4   4    4.47    1.00
   9   4   4    2.96    0.79
  -9  -4  -4    1.41    1.79
   9   4   4    5.20    0.94
   9   5  -3    1.07    1.15
   9   5  -2   19.69    3.57
   9   5  -2   19.57    3.22
   9   5  -1   86.97    6.84
   9   5  -1    0.39    1.65
  -9  -5   0   39.63    6.51
   9   5   0   30.96    3.81
   9   5   0   28.57    3.31
   9   5   1   39.12    3.81
  -9  -5  -1   49.87    7.78
  -9  -5  -1   41.25    8.11
   9   5   1   37.67    4.23
  -9  -5  -1   55.28   10.15
   9   5   1   42.69    3.74
   9   5   1   41.62    4.00
  -9  -5  -1   34.12    6.61
   9   5   2    1.78    1.24
   9   5   2    1.64    1.13
  -9  -5  -2    2.60    2.28
  -9  -5  -2    3.18    1.85
  -9  -5  -2    1.56    3.10
   9   5   2    1.03    0.72
  -9  -5  -2    0.38    2.38
  -9  -5  -2    0.89    2.10
   9   5   2    3.40    1.30
   9   5   3    5.86    1.46
  -9  -5  -3    2.82    1.89
   9   5   3    4.31    1.28
  -9  -5  -3    5.72    4.51
   9   5   3    5.17    1.47
  -9  -5  -3    4.14    3.13
   9   5   3    5.53    1.19
   9   5   4   31.30    2.24
   9   5   4   30.58    2.10
   9   5   4   31.14    2.15
   9   6  -3    4.62    1.20
   9   6  -2    0.17    1.03
   9   6  -1   -2.07    2.13
   9   6  -1   10.83    2.70
   9   6   0   10.35    2.61
  -9  -6   0    4.60    2.46
   9   6   1  104.29    5.86
  -9  -6  -1  128.94   11.74
  -9  -6  -1  114.81   12.79
   9   6   1   98.59    6.88
  -9  -6  -1  114.41   13.93
   9   6   1  106.86    6.53
  -9  -6  -1   87.54    9.62
   9   6   2   15.21    2.25
  -9  -6  -2   14.94    4.24
  -9  -6  -2   15.77    2.96
  -9  -6  -2   10.09    4.50
   9   6   2   14.64    2.56
  -9  -6  -2   12.39    4.57
  -9  -6  -2   11.85    4.16
   9   6   2   14.67    2.31
   9   6   3    2.55    0.89
  -9  -6  -3    1.21    1.08
   9   6   3    2.90    0.94
  -9  -6  -3    3.85    3.63
   9   6   3    2.11    0.95
  -9  -6  -3    1.44    1.88
   9   7  -2   90.20    5.17
  -9  -7   1   16.55    3.92
   9   7  -1   15.04    2.70
  -9  -7   0   14.63    3.49
   9   7   0   18.58    3.04
  -9  -7   0   20.24    5.00
  -9  -7  -1   54.42    6.99
  -9  -7  -1   54.40    7.98
  -9  -7  -1   45.83    7.70
   9   7   1   51.83    4.38
   9   7   2    0.02    0.64
   9   7   2    2.19    0.79
  -9  -7  -2    0.97    1.82
  -9  -7  -2    1.12    3.17
  -9  -7  -2    3.20    2.12
  -9  -7  -2    0.11    1.52
   9   7   3    1.21    0.50
   9   7   3    2.03    0.65
  -9  -7  -3   -0.68    1.70
  -9  -7  -3    0.51    0.86
  -9  -8   1   -0.38    0.68
   9   8  -1    0.25    0.52
  -9  -8   0   -1.40    0.96
  -9  -8   0    1.90    1.57
   9   8   0    0.39    0.66
  -9  -8  -1    5.41    1.86
  -9  -8  -1    7.69    1.71
  -9  -8  -1    0.22    1.42
  -9  -8  -1    7.36    2.41
   9   8   1    6.39    1.34
  -9  -8  -2    0.95    0.95
   9   8   2    0.90    0.68
  -9  -8  -2    0.06    1.08
  10  -9  -1    2.56    0.97
  10  -8  -3    3.16    1.05
  10  -8  -3    1.70    1.01
  10  -8  -3    4.10    1.17
  10  -8  -2   10.27    2.43
  10  -8  -2    9.14    2.45
  10  -8  -2    8.59    2.01
  10  -8  -2    8.85    2.29
  10  -8  -1    4.06    1.80
 -10   8   1    3.99    2.23
 -10   8   1    0.14    2.75
  10  -8  -1    4.80    2.12
  10  -8  -1    3.79    1.54
  10  -8  -1    2.74    1.76
  10  -8   0   34.38    3.99
 -10   8   0   26.19    4.97
 -10   8   0   39.74    5.41
 -10   8   0   32.46    7.15
  10  -8   0   32.10    4.09
  10  -8   0   32.61    3.35
 -10   8  -1   24.05    5.50
  10  -8   1   17.47    2.50
 -10   7   3    0.04    1.01
 -10   7   3   -0.72    0.52
  10  -7  -3   -0.25    1.29
  10  -7  -3   -1.03    1.53
 -10   7   3    0.69    0.93
  10  -7  -3    2.33    1.19
  10  -7  -3    2.30    1.54
 -10   7   2  118.09    7.80
  10  -7  -2  144.32   10.35
 -10   7   2  164.98   13.86
 -10   7   2  137.16    8.03
  10  -7  -2  145.06   10.65
  10  -7  -2  141.35    9.53
  10  -7  -2  161.88   10.99
  10  -7  -2  133.34    7.53
  10  -7  -1   22.66    4.32
 -10   7   1   23.27    5.75
  10  -7  -1   24.19    4.58
 -10   7   1   20.30    2.85
  10  -7  -1   21.66    3.83
  10  -7  -1   23.67    3.29
 -10   7   0    2.23    2.08
  10  -7   0    1.19    1.27
  10  -7   0    2.30    1.20
 -10   7  -1   29.61    8.26
 -10   7  -1   39.37    5.68
  10  -7   1   27.96    3.46
  10  -7   1   28.40    2.97
 -10   7  -2   14.29    4.38
 -10   6   4    1.08    0.95
 -10   6   4    0.95    0.53
  10  -6  -4    1.66    1.04
 -10   6   4    1.00    0.69
  10  -6  -4    0.28    0.76
 -10   6   3    9.57    2.58
 -10   6   3    7.92    1.85
 -10   6   3    7.74    2.20
  10  -6  -3   10.78    2.90
  10  -6  -3    7.71    2.73
 -10   6   3   11.30    2.61
  10  -6  -3    6.75    2.08
  10  -6  -3    8.83    2.65
 -10   6   2   47.17    5.62
  10  -6  -2   58.55    5.53
 -10   6   2   49.21    5.65
  10  -6  -2   52.48    6.92
 -10   6   2   56.06    8.84
 -10   6   2   51.84    5.61
  10  -6  -2   47.20    6.69
  10  -6  -2   53.04    6.42
  10  -6  -2   59.28    7.27
  10  -6  -2   52.07    5.69
 -10   6   1    1.24    0.92
  10  -6  -1    1.51    1.25
 -10   6   1   -0.15    0.77
 -10   6   1    0.80    2.35
  10  -6  -1   -0.25    2.00
 -10   6   1    0.31    0.86
  10  -6  -1   -1.94    1.32
  10  -6  -1    0.48    1.35
 -10   6   0   -0.24    4.29
 -10   6   0    1.50    2.83
  10  -6   0   -0.33    0.46
  10  -6   0    2.19    1.26
 -10   6  -1    4.20    3.99
 -10   6  -1    3.91    4.15
 -10   6  -1    6.37    3.43
 -10   6  -2    4.18    3.65
 -10   6  -2    4.96    4.61
 -10   6  -2    3.57    1.95
 -10   5   4    6.45    1.87
 -10   5   4    7.75    1.75
  10  -5  -4    5.47    1.41
  10  -5  -4    5.90    1.98
 -10   5   4    5.77    1.68
 -10   5   4    5.81    1.55
  10  -5  -4    4.75    1.77
 -10   5   3   13.00    3.30
 -10   5   3   13.57    3.00
  10  -5  -3   18.94    3.54
 -10   5   3   17.33    3.56
  10  -5  -3   10.22    2.96
  10  -5  -3   15.30    2.57
  10  -5  -3   12.22    3.85
 -10   5   3   18.50    3.60
  10  -5  -3   15.86    3.86
 -10   5   3   14.00    2.57
  10  -5  -3   16.55    3.62
 -10   5   2  219.14   12.36
 -10   5   2  208.53   10.21
  10  -5  -2  235.24   12.19
 -10   5   2  238.55   12.78
  10  -5  -2  241.84   14.63
 -10   5   2  264.73   18.77
 -10   5   2  238.06   12.56
  10  -5  -2  239.56   15.00
  10  -5  -2  242.76   14.07
  10  -5  -2  266.67   14.83
  10  -5  -2  230.32   12.59
 -10   5   1   58.44    5.86
  10  -5  -1   61.24    5.86
 -10   5   1   63.14    6.08
 -10   5   1   61.17    9.32
 -10   5   1   51.10    8.71
 -10   5   1   60.50    5.88
  10  -5  -1   60.37    6.73
  10  -5  -1   58.46    5.98
  10  -5   0    0.56    0.56
 -10   5   0    1.78    2.79
 -10   5   0    2.05    2.28
  10  -5   0    0.51    1.01
 -10   5  -1   40.22   12.19
 -10   5  -1   22.23    9.49
 -10   5  -1   36.69    6.67
  10  -5   1   39.47    3.97
 -10   5  -2   11.60    6.82
 -10   5  -2    6.12    5.84
 -10   5  -2   21.34    4.42
 -10   5  -3  162.19   17.03
 -10   4   4    7.03    2.18
 -10   4   4   11.50    2.37
 -10   4   4    5.61    1.51
 -10   4   4   11.55    2.27
  10  -4  -4    8.64    2.18
  10  -4  -4    7.46    2.24
 -10   4   4    8.76    2.04
 -10   4   4    7.74    1.99
  10  -4  -4    7.35    2.20
 -10   4   3   49.89    6.38
 -10   4   3   47.43    5.57
  10  -4  -3   50.17    6.09
 -10   4   3   53.29    6.09
  10  -4  -3   42.60    5.11
 -10   4   3   53.12    6.27
  10  -4  -3   43.94    6.51
  10  -4  -3   44.31    6.07
 -10   4   3   43.41    5.22
  10  -4  -3   44.40    6.10
 -10   4   2  205.16   12.14
  10  -4  -2  208.91   13.07
  10  -4  -2  187.90   12.31
  10  -4  -2  194.57   11.27
 -10   4   2  214.58   12.17
 -10   4   2  206.04   15.72
  10  -4  -2  238.98   12.98
  10  -4  -2  218.02   13.83
 -10   4   2  196.16   11.58
 -10   4   2  209.70   15.41
  10  -4  -2  219.94   13.18
  10  -4  -2  201.73   11.80
 -10   4   1   66.42    6.29
 -10   4   1   59.15    7.81
  10  -4  -1   66.92    7.45
  10  -4  -1   71.36    7.00
  10  -4  -1   73.29    6.27
 -10   4   1   68.27    6.29
 -10   4   1   66.71    9.00
  10  -4  -1   81.67    6.97
  10  -4  -1   68.26    7.33
 -10   4   1   91.36    8.23
 -10   4   1   63.89    9.12
 -10   4   1   64.86    6.07
 -10   4   1   73.10    8.61
 -10   4   1   61.14    4.30
  10  -4  -1   65.70    6.34
 -10   4   0  439.52   21.04
  10  -4   0  495.44   19.47
  10  -4   0  509.88   17.25
  10  -4   0  490.98   14.92
 -10   4   0  535.86   24.82
  10  -4   0  462.43   14.95
  10  -4   0  447.82   12.74
 -10   4   0  545.30   18.13
  10  -4   0  483.11   20.01
 -10   4   0  459.20   24.80
  10  -4   0  471.22   12.26
  10  -4   1    1.95    1.16
 -10   4  -1    1.34    2.34
  10  -4   1    2.70    1.87
 -10   4  -1    0.19    2.41
  10  -4   1    1.85    0.72
 -10   4  -2    3.48    4.49
 -10   4  -2    5.18    5.77
 -10   4  -2    1.48    1.71
 -10   4  -3   97.92    7.83
 -10   4  -3  105.48   16.94
  10  -3  -5    0.70    0.46
 -10   3   4   -0.32    0.77
  10  -3  -4    0.34    1.29
 -10   3   4   -0.23    0.96
 -10   3   4    0.99    1.43
 -10   3   4    0.86    0.89
 -10   3   4   -0.59    1.22
 -10   3   4    0.15    1.07
  10  -3  -4    0.49    1.00
 -10   3   3  199.24   12.77
  10  -3  -3  192.07   11.88
 -10   3   3  207.54   11.82
  10  -3  -3  194.09   11.02
 -10   3   3  204.87   12.03
  10  -3  -3  193.64   13.09
  10  -3  -3  197.78   12.23
  10  -3  -3  192.05   12.47
 -10   3   2   -0.52    1.30
  10  -3  -2   -1.46    2.27
  10  -3  -2    0.19    1.10
  10  -3  -2   -0.32    1.48
 -10   3   2    0.96    1.70
  10  -3  -2    0.73    1.16
  10  -3  -2   -0.23    0.99
  10  -3  -2   -3.20    2.10
 -10   3   2    1.38    1.23
 -10   3   2   -5.47    2.52
  10  -3  -2   -0.41    1.41
  10  -3  -2    0.45    1.04
 -10   3   2   -0.42    0.99
  10  -3  -2    0.24    1.40
 -10   3   1   42.87    5.02
 -10   3   1   36.68    5.76
  10  -3  -1   45.80    5.34
  10  -3  -1   41.99    5.70
  10  -3  -1   41.39    4.78
 -10   3   1   39.21    4.69
 -10   3   1   35.39    6.11
  10  -3  -1   42.78    4.92
 -10   3   1   41.39    4.80
  10  -3  -1   36.85    4.16
  10  -3  -1   42.12    5.28
 -10   3   1   52.25    6.03
 -10   3   1   41.00    7.03
 -10   3   1   41.86    6.12
 -10   3   1   41.41    3.50
  10  -3  -1   38.06    3.86
  10  -3  -1   39.45    4.76
 -10   3   0   39.49    6.03
  10  -3   0   48.32    5.99
  10  -3   0   44.87    4.87
  10  -3   0   43.93    4.30
 -10   3   0   47.13    6.87
 -10   3   0   34.61    7.12
  10  -3   0   43.60    4.52
  10  -3   0   39.58    3.76
 -10   3   0   49.30    5.28
  10  -3   0   39.77    5.45
 -10   3   0   31.77    6.38
 -10   3   0   50.44    6.54
  10  -3   0   41.54    3.62
  10  -3   1    1.66    1.25
  10  -3   1    0.75    0.73
 -10   3  -1   -0.01    1.40
 -10   3  -1   -0.25    1.48
  10  -3   1   -1.18    0.85
  10  -3   1    0.98    1.12
 -10   3  -1    0.94    1.66
 -10   3  -2    0.60    3.93
 -10   3  -2   -1.63    2.04
 -10   3  -3   13.06    7.60
 -10   3  -3   17.98    3.86
 -10   3  -4    7.71    2.89
  10  -3   4    5.86    0.89
  10  -2  -5    0.15    0.70
  10  -2  -5   -0.47    0.66
 -10   2   5    0.08    0.45
 -10   2   4   11.49    2.87
 -10   2   4   12.41    2.69
  10  -2  -4   14.36    3.10
 -10   2   4   11.50    2.43
 -10   2   3   69.75    7.57
  10  -2  -3   65.81    6.96
 -10   2   3   60.72    6.32
  10  -2  -3   68.71    6.67
 -10   2   3   63.38    6.67
  10  -2  -3   63.76    7.27
  10  -2  -2   38.77    5.51
  10  -2  -2   34.30    5.21
  10  -2  -2   35.30    4.85
 -10   2   2   35.05    4.79
  10  -2  -2   35.86    4.56
  10  -2  -2   35.61    4.77
 -10   2   2   39.91    5.38
 -10   2   2   35.42    4.88
 -10   2   2   29.19    5.56
  10  -2  -2   33.60    4.76
 -10   2   2   41.37    6.12
 -10   2   2   36.41    3.40
  10  -2  -2   33.11    4.15
  10  -2  -2   35.58    4.41
  10  -2  -2   37.44    5.08
  10  -2  -1    6.63    1.76
 -10   2   1    6.56    2.39
  10  -2  -1    7.92    2.74
  10  -2  -1    8.01    2.33
 -10   2   1    2.28    2.06
 -10   2   1    7.16    2.03
 -10   2   1    3.26    1.66
  10  -2  -1    9.02    2.01
 -10   2   1    9.40    2.58
 -10   2   1    7.55    2.63
  10  -2  -1    5.72    1.54
 -10   2   1    7.22    1.55
  10  -2  -1    7.03    2.11
  10  -2  -1    6.94    1.73
  10  -2   0   16.26    2.34
 -10   2   0   17.06    3.76
  10  -2   0   12.67    2.66
  10  -2   0   15.76    3.43
 -10   2   0   15.24    4.28
  10  -2   0   15.36    2.32
 -10   2   0   20.74    3.40
  10  -2   0   12.83    2.83
 -10   2   0   17.27    3.49
 -10   2   0   16.10    2.42
  10  -2   0   15.70    2.25
  10  -2   1    0.58    0.81
  10  -2   1    0.48    0.75
 -10   2  -1   -0.62    1.89
 -10   2  -1    0.57    1.92
  10  -2   1   -0.34    1.15
 -10   2  -1    0.02    0.62
 -10   2  -1    1.05    3.13
  10  -2   1   -0.53    0.86
  10  -2   1    0.91    1.39
 -10   2  -1    1.67    1.04
 -10   2  -1    4.06    2.67
 -10   2  -1   -0.29    1.99
 -10   2  -1   -0.51    2.29
  10  -2   2    2.26    1.17
  10  -2   2    2.71    1.03
 -10   2  -2    1.58    1.29
  10  -2   2    3.55    1.27
 -10   2  -3   30.65    5.03
  10  -2   3   35.48    2.55
 -10   2  -4    1.54    2.94
 -10   2  -4    0.39    0.87
  10  -1  -5    1.29    0.62
  10  -1  -5    0.03    0.59
 -10   1   5    1.03    0.60
 -10   1   4   16.26    3.20
  10  -1  -4   18.86    3.35
 -10   1   4   14.22    2.68
  10  -1  -3   21.48    4.05
 -10   1   3   17.79    3.34
  10  -1  -3   21.50    4.05
 -10   1   3   19.02    3.66
  10  -1  -3   20.22    4.19
  10  -1  -2    0.24    1.17
 -10   1   2   -0.59    1.49
  10  -1  -2    0.44    0.94
 -10   1   2    2.21    1.52
  10  -1  -2   -0.09    1.18
 -10   1   2    0.28    0.83
 -10   1   2   -2.20    1.62
  10  -1  -2    0.95    1.51
 -10   1   2   -0.09    0.86
  10  -1  -2   -0.48    1.34
  10  -1  -2    0.31    1.00
  10  -1  -1    1.76    1.26
  10  -1  -1   -0.32    1.28
  10  -1  -1    2.29    1.42
 -10   1   1    1.13    1.05
  10  -1  -1    1.34    0.99
 -10   1   1    1.40    1.56
  10  -1  -1    1.98    0.98
 -10   1   1    1.65    0.95
  10  -1   0   -0.22    0.81
  10  -1   0    0.80    0.89
  10  -1   0   -0.55    1.18
 -10   1   0   -1.26    2.77
 -10   1   0    0.83    1.11
  10  -1   0    0.54    0.77
  10  -1   0    0.89    0.94
 -10   1   0    0.74    0.97
  10  -1   0    1.41    0.81
 -10   1   0    0.92    1.60
 -10   1   0   -0.48    0.96
 -10   1  -1   43.26    6.94
 -10   1  -1   41.47    5.44
  10  -1   1   41.66    3.55
  10  -1   1   44.52    4.31
 -10   1  -1   38.13    5.67
 -10   1  -1   33.82    7.02
  10  -1   1   43.34    3.80
  10  -1   1   44.36    3.74
 -10   1  -1   44.26    4.52
 -10   1  -1   39.06    6.16
 -10   1  -1   47.15    4.67
  10  -1   1   41.27    2.91
  10  -1   2    1.31    0.96
  10  -1   2    1.35    0.82
 -10   1  -2    0.98    1.41
 -10   1  -2    0.94    3.62
  10  -1   2    0.48    0.55
  10  -1   2    1.41    1.05
  10  -1   2    1.27    0.67
 -10   1  -3    0.92    2.04
  10  -1   3    1.12    0.76
 -10   1  -4    0.58    0.88
  10  -1   4   -0.59    0.56
  10   0  -4   -1.52    1.84
  10   0  -4    0.74    1.11
 -10   0   4    0.17    0.97
 -10   0   3   45.05    5.04
  10   0  -3   58.99    6.28
  10   0  -3   54.46    5.95
  10   0  -3   51.61    6.20
  10   0  -2    9.24    2.45
 -10   0   2    2.35    2.91
  10   0  -2   11.66    2.75
 -10   0   2    5.97    1.94
  10   0  -2    7.38    2.09
 -10   0   2    8.65    2.48
  10   0  -2    7.89    2.22
 -10   0   2    9.26    2.87
 -10   0   2    9.43    1.89
  10   0  -2    7.69    2.37
  10   0  -2    7.33    2.12
  10   0  -1  359.70   13.52
  10   0  -1  347.50   12.13
 -10   0   1  349.64   13.29
 -10   0   1  333.82   17.56
 -10   0   1  343.40   13.21
 -10   0   1  360.08   15.48
 -10   0   1  363.39    9.92
  10   0  -1  324.74   11.23
  10   0  -1  336.18   11.81
  10   0   0   14.37    2.21
  10   0   0   14.15    2.46
  10   0   0   14.84    2.27
 -10   0   0   17.69    2.90
 -10   0   0   16.34    2.81
 -10   0   0   13.80    2.79
 -10   0   0   17.73    2.39
  10   0   0   17.07    2.41
  10   0   1    0.71    0.89
  10   0   1    0.00    0.54
  10   0   1    0.19    0.46
 -10   0  -1    0.12    1.73
 -10   0  -1    1.59    1.19
 -10   0  -1    2.57    2.12
 -10   0  -1    9.43    3.08
 -10   0  -1    0.97    0.96
  10   0   1    0.43    0.74
 -10   0  -1   -1.68    1.75
  10   0   1    1.12    0.96
 -10   0  -1    0.87    0.92
 -10   0  -1   -8.07    3.82
  10   0   1    1.77    0.86
  10   0   1    0.83    0.63
  10   0   2   41.63    3.51
 -10   0  -2   38.23    6.91
  10   0   2   46.75    4.05
  10   0   2   27.17    3.39
  10   0   2   40.09    3.86
 -10   0  -2   34.75    7.42
  10   0   2   45.52    3.97
 -10   0  -2   42.11    9.33
 -10   0  -2   39.94    4.30
 -10   0  -2   42.13    4.41
  10   0   2   42.88    3.29
 -10   0  -3    3.71    3.08
 -10   0  -3    5.51    2.84
 -10   0  -3    7.68    4.21
  10   0   3    6.29    1.37
 -10   0  -4    5.72    1.86
  10   0   4    9.15    1.29
  10   1  -4   97.29    5.72
  10   1  -4  106.59    7.11
 -10  -1   4   85.83    6.34
  10   1  -3   34.13    4.18
  10   1  -3   48.06    5.61
  10   1  -2   70.32    6.37
 -10  -1   2   69.17    8.42
 -10  -1   2   60.63    7.18
 -10  -1   2   61.19    4.42
  10   1  -2   58.95    5.84
  10   1  -2   60.36    5.86
 -10  -1   1    3.20    1.65
 -10  -1   1    2.45    2.69
 -10  -1   1    0.93    0.99
 -10  -1   1    1.69    1.11
  10   1  -1    0.97    0.96
 -10  -1   1    1.79    1.24
  10   1  -1    1.62    0.95
  10   1  -1    3.00    1.25
 -10  -1   1    0.92    0.59
  10   1   0   18.49    2.53
  10   1   0   18.14    2.48
 -10  -1   0   21.67    3.95
 -10  -1   0   19.73    6.64
  10   1   0   20.94    2.78
 -10  -1   0   22.29    3.27
 -10  -1   0   21.95    3.25
  10   1   0   23.04    2.45
 -10  -1   0   20.60    3.43
 -10  -1   0   21.67    2.58
  10   1   0   20.84    2.74
  10   1   1    3.34    1.15
  10   1   1    4.09    1.12
 -10  -1  -1    5.94    2.90
 -10  -1  -1    2.40    1.21
 -10  -1  -1    2.77    3.97
 -10  -1  -1    5.07    2.22
 -10  -1  -1    8.06    3.67
 -10  -1  -1    4.97    1.69
  10   1   1    3.03    1.20
 -10  -1  -1   -0.32    2.40
  10   1   1    5.93    1.54
 -10  -1  -1    4.15    1.56
 -10  -1  -1   -1.45    1.93
  10   1   1    4.48    1.26
  10   1   1    3.37    0.92
  10   1   1    4.15    1.24
  10   1   2    1.16    0.93
  10   1   2    1.61    0.84
 -10  -1  -2   -0.07    1.54
 -10  -1  -2    1.08    0.86
 -10  -1  -2    0.95    2.80
  10   1   2   -0.01    0.86
  10   1   2    1.81    1.10
 -10  -1  -2    1.38    0.90
 -10  -1  -2    1.97    3.46
 -10  -1  -2    4.94    3.42
  10   1   2    1.52    0.79
  10   1   3  106.86    5.40
 -10  -1  -3   92.80   10.31
 -10  -1  -3   79.65   11.26
 -10  -1  -3   94.46   14.25
  10   1   3  119.87    5.59
 -10  -1  -4    8.05    2.35
  10   1   4   12.54    1.54
  10   2  -4  356.97    9.31
  10   2  -4  383.04   11.71
  10   2  -3    2.16    1.37
  10   2  -3    1.38    1.27
 -10  -2   2    1.82    3.80
  10   2  -2    3.06    1.59
  10   2  -2    2.33    1.66
  10   2  -2    5.45    1.94
 -10  -2   2    5.22    2.14
  10   2  -2    1.20    1.24
 -10  -2   2    2.17    0.77
  10   2  -1   89.39    5.83
 -10  -2   1  108.56    8.93
 -10  -2   1   59.43   11.34
  10   2  -1  102.19    6.40
 -10  -2   1   78.75    5.96
 -10  -2   1   77.28    5.92
 -10  -2   1  104.09    8.80
 -10  -2   1  102.75    5.09
  10   2  -1   92.68    6.41
  10   2  -1   97.52    6.59
  10   2  -1   89.84    5.96
  10   2   0   45.92    4.07
 -10  -2   0   53.76    7.24
  10   2   0   50.04    4.20
 -10  -2   0   49.75    5.93
 -10  -2   0   65.81   11.83
 -10  -2   0   58.47    8.46
  10   2   0   53.12    4.49
 -10  -2   0   46.83    4.62
 -10  -2   0   46.77    4.63
  10   2   0   45.67    3.68
 -10  -2   0   55.79    5.71
  10   2   0   41.93    3.65
 -10  -2   0   49.76    3.71
  10   2   0   52.52    4.20
  10   2   0   51.32    4.39
  10   2   1   84.93    5.37
 -10  -2  -1   89.15    9.88
  10   2   1   80.94    4.68
 -10  -2  -1   87.39    7.86
  10   2   1   75.31    4.91
 -10  -2  -1  103.33   16.20
 -10  -2  -1   83.00   10.92
  10   2   1   78.42    5.31
  10   2   1   78.34    5.21
  10   2   1   86.55    5.32
 -10  -2  -1   80.63    6.26
 -10  -2  -1   67.93   10.72
 -10  -2  -1   86.90    8.90
 -10  -2  -1   83.54    6.41
  10   2   1   80.02    4.55
  10   2   1   77.14    4.78
  10   2   1   80.71    5.32
 -10  -2  -1   62.35    8.89
  10   2   2  454.08   12.57
 -10  -2  -2  438.80   23.10
  10   2   2  515.53   11.90
  10   2   2  486.74   13.02
 -10  -2  -2  575.54   42.66
 -10  -2  -2  451.72   26.84
  10   2   2  459.59   13.56
  10   2   2  499.89   12.64
  10   2   2  450.42   12.29
 -10  -2  -2  412.23   28.75
 -10  -2  -2  490.35   15.83
 -10  -2  -2  496.99   15.99
  10   2   2  458.51   11.15
  10   2   2  444.05   12.40
 -10  -2  -2  388.73   24.11
  10   2   3    4.29    1.21
 -10  -2  -3    1.06    1.87
  10   2   3    4.32    1.13
 -10  -2  -3    2.51    1.86
  10   2   3    5.48    1.44
 -10  -2  -4    2.99    1.49
  10   2   4   -0.17    0.22
  10   3  -4    5.44    1.23
 -10  -3   4    5.99    1.27
  10   3  -3   10.17    2.40
  10   3  -3    4.69    1.76
  10   3  -2   25.92    3.84
  10   3  -2   32.13    4.58
 -10  -3   2   22.98    3.75
  10   3  -1  566.91   15.73
  10   3  -1  638.98   17.06
 -10  -3   1  637.50   22.41
  10   3  -1  601.32   16.76
  10   3  -1  588.77   16.01
  10   3   0   -0.36    0.73
  10   3   0   -0.11    0.66
 -10  -3   0   -3.51    2.10
 -10  -3   0   -1.72    3.57
 -10  -3   0    0.33    0.68
 -10  -3   0   -1.00    1.91
 -10  -3   0   -1.45    0.90
  10   3   0   -1.25    0.88
 -10  -3   0    0.51    1.27
  10   3   0   -0.01    0.73
  10   3   1  456.99   12.79
 -10  -3  -1  498.64   23.65
  10   3   1  449.46   11.84
  10   3   1  433.44   12.04
 -10  -3  -1  520.76   19.47
 -10  -3  -1  539.58   39.99
 -10  -3  -1  482.71   26.36
  10   3   1  426.05   12.53
  10   3   1  452.48   13.14
 -10  -3  -1  464.56   15.23
 -10  -3  -1  468.25   28.91
 -10  -3  -1  546.16   22.38
 -10  -3  -1  469.98   15.34
  10   3   1  444.11   11.33
  10   3   1  468.64   13.50
 -10  -3  -1  430.91   23.47
  10   3   2   35.49    3.63
 -10  -3  -2   33.26    6.77
  10   3   2   36.88    3.39
 -10  -3  -2   24.29    7.24
  10   3   2   37.83    3.74
 -10  -3  -2   27.11    7.28
 -10  -3  -2   23.89    6.35
  10   3   2   34.03    3.18
  10   3   3   22.34    2.72
  10   3   3   20.56    2.41
 -10  -3  -3    9.67    3.59
  10   3   3   19.90    2.58
 -10  -3  -3    7.61    3.50
 -10  -3  -3   19.85    6.52
 -10  -3  -3   13.81    5.04
  10   3   3   22.15    2.43
  10   3   4   45.59    2.71
  10   3   4   44.90    2.50
  10   3   4   53.20    2.86
  10   4  -3   -0.32    0.93
  10   4  -3   -0.25    1.01
  10   4  -2   33.01    4.32
  10   4  -2   39.49    4.65
 -10  -4   2   27.00    4.04
  10   4  -1   -0.57    0.88
  10   4  -1    0.42    0.84
 -10  -4   0   16.40    4.17
 -10  -4   0   13.06    7.18
 -10  -4   0    8.13    1.94
 -10  -4   0   18.80    5.64
 -10  -4   0    9.35    2.03
  10   4   0   15.49    2.70
  10   4   0   13.62    2.51
  10   4   0   12.35    2.33
  10   4   1    6.20    1.65
  10   4   1    4.57    1.48
 -10  -4  -1    7.99    3.30
 -10  -4  -1    7.82    4.07
  10   4   1    3.67    1.54
 -10  -4  -1    4.81    4.00
 -10  -4  -1   -1.29    1.65
  10   4   1    4.26    1.31
  10   4   2   18.71    2.82
 -10  -4  -2   14.43    4.55
  10   4   2   19.60    2.61
 -10  -4  -2   20.41    7.12
  10   4   2   16.85    2.71
 -10  -4  -2   15.87    5.75
 -10  -4  -2   14.49    4.65
  10   4   2   19.14    2.43
  10   4   3   16.13    2.33
  10   4   3   14.84    2.10
 -10  -4  -3   14.53    4.14
  10   4   3   16.35    2.33
 -10  -4  -3   12.38    3.72
 -10  -4  -3   14.26    6.29
 -10  -4  -3   11.68    4.30
  10   4   3   15.92    1.99
  10   4   4   49.41    2.68
  10   4   4   45.29    2.40
  10   4   4   49.69    2.38
  10   5  -3    5.01    1.49
 -10  -5   2    6.90    1.90
  10   5  -2    5.65    1.97
  10   5  -2    4.18    1.62
  10   5  -1   27.66    4.01
 -10  -5   1   24.19    5.62
  10   5   0   -0.30    1.16
 -10  -5   0   -4.64    2.44
  10   5   0    1.52    2.36
 -10  -5   0   -0.25    2.57
  10   5   0    0.20    0.81
  10   5   1   30.99    3.46
 -10  -5  -1   33.79    6.17
 -10  -5  -1   31.63    7.52
  10   5   1   31.58    3.89
 -10  -5  -1   28.56    6.55
 -10  -5  -1   18.33    4.58
  10   5   1   32.46    3.63
  10   5   1   31.42    3.30
  10   5   2    4.10    1.47
  10   5   2    6.55    1.64
 -10  -5  -2    5.46    3.00
 -10  -5  -2    5.95    2.13
 -10  -5  -2    6.88    4.17
  10   5   2    6.97    1.86
 -10  -5  -2    0.60    2.00
 -10  -5  -2    7.95    4.05
  10   5   2    4.79    1.29
  10   5   3    3.17    1.04
 -10  -5  -3    0.60    1.24
  10   5   3    2.40    0.97
  10   5   3    2.45    1.01
 -10  -5  -3    1.99    3.35
 -10  -5  -3    0.40    1.77
  10   5   3    1.61    0.67
  10   6  -2    0.74    0.91
 -10  -6   1    1.33    1.63
  10   6  -1   -1.15    1.16
 -10  -6   0    1.34    1.55
  10   6   0   -0.55    2.20
  10   6   0    3.94    1.81
 -10  -6   0    3.04    2.99
  10   6   1   43.60    3.74
 -10  -6  -1   38.79    6.27
 -10  -6  -1   38.67    7.01
 -10  -6  -1   35.52    7.23
  10   6   1   41.22    3.92
  10   6   2   10.18    1.75
 -10  -6  -2    6.44    2.53
 -10  -6  -2    3.31    2.64
  10   6   2    9.99    2.01
 -10  -6  -2    8.64    3.73
 -10  -6  -2    8.86    3.15
  10   6   2    9.73    1.87
  10   6   3    0.76    0.56
 -10  -6  -3   -0.80    1.09
  10   6   3    0.59    0.54
  10   6   3    0.27    0.52
 -10  -6  -3   -1.81    2.55
 -10  -7   2   77.07    4.81
  10   7  -2  122.22    5.01
 -10  -7   1   37.90    3.87
  10   7  -1   42.81    3.85
 -10  -7   0   16.95    3.27
 -10  -7   0   21.23    4.75
  10   7   0   24.83    3.16
 -10  -7  -1    6.01    2.43
 -10  -7  -1    7.40    2.04
  10   7   1    5.26    1.62
 -10  -7  -1    5.09    2.89
 -10  -7  -1    4.32    2.15
  10   7   2    4.90    1.16
 -10  -7  -2    3.69    1.90
 -10  -7  -2    1.40    2.03
 -10  -7  -2    5.75    2.12
 -10  -7  -2    3.92    1.75
 -10  -8   0    4.85    1.23
 -10  -8   0    1.33    0.93
  10   8   0    3.75    0.97
 -10  -8  -1    8.93    2.03
 -10  -8  -1    5.37    1.16
  10   8   1    9.50    1.45
 -10  -8  -1    9.06    2.35
  11  -8  -2   14.64    2.44
  11  -8  -2   16.15    2.74
  11  -8  -2   14.70    2.42
  11  -8  -2   13.40    2.16
  11  -8  -1    4.27    1.62
 -11   8   1    7.30    2.61
  11  -8  -1    3.92    1.58
  11  -8  -1    5.09    1.50
  11  -8  -1    6.90    2.06
  11  -8   0   38.44    3.75
 -11   8   0   51.44    5.40
 -11   8   0   36.73    6.28
  11  -8   0   43.43    4.30
  11  -8   0   34.47    3.08
 -11   8  -1   14.71    3.55
  11  -8   1   15.28    1.93
 -11   7   3    1.68    0.96
  11  -7  -3    1.45    0.85
  11  -7  -3    1.06    1.14
 -11   7   3    1.37    0.90
  11  -7  -3    2.36    1.15
 -11   7   2    2.45    1.04
  11  -7  -2    3.80    1.86
 -11   7   2    1.02    2.18
  11  -7  -2    5.72    2.31
  11  -7  -2    2.91    1.74
 -11   7   2    2.87    1.35
  11  -7  -2    2.21    1.24
  11  -7  -2    2.70    1.24
  11  -7  -1    8.16    2.55
 -11   7   1    7.83    3.40
  11  -7  -1    7.05    2.39
  11  -7  -1    8.57    2.52
  11  -7  -1    7.48    1.82
 -11   7   0    0.75    2.97
 -11   7   0    4.58    2.31
  11  -7   0    4.10    1.93
  11  -7   0    3.55    1.13
  11  -7   0    5.73    1.89
 -11   7  -1    3.91    3.02
 -11   7  -1    2.52    1.22
  11  -7   1    6.62    1.59
  11  -7   1    7.84    1.44
 -11   7  -2   -0.29    1.86
 -11   6   4    1.22    0.70
 -11   6   3   20.92    3.41
 -11   6   3   16.70    2.33
 -11   6   3   23.16    3.52
  11  -6  -3   22.36    3.41
 -11   6   3   22.63    3.40
  11  -6  -3   19.72    3.68
  11  -6  -3   20.47    3.13
  11  -6  -3   22.01    3.58
 -11   6   2   37.17    4.68
  11  -6  -2   37.80    4.39
 -11   6   2   44.11    5.02
  11  -6  -2   48.17    6.20
 -11   6   2   42.79    7.22
 -11   6   2   43.40    4.91
  11  -6  -2   45.52    6.38
  11  -6  -2   38.88    5.33
  11  -6  -2   49.14    5.97
  11  -6  -2   41.05    4.93
  11  -6  -1  127.77    7.71
 -11   6   1  112.86    7.43
 -11   6   1  142.16   13.67
 -11   6   1  110.82    7.13
  11  -6  -1  120.86   10.10
  11  -6  -1  124.31    9.39
  11  -6  -1  115.00    7.93
 -11   6   0   28.36    9.72
 -11   6   0   44.95    7.78
  11  -6   0   34.91    3.78
  11  -6   0   44.05    4.71
 -11   6  -1   23.55    4.94
  11  -6   1   16.92    2.71
 -11   6  -2    0.98    2.20
 -11   6  -2    0.35    2.38
 -11   6  -2    2.23    1.46
  11  -6   2    1.64    0.81
 -11   5   4   15.84    2.52
 -11   5   4   15.27    2.13
  11  -5  -4    8.09    1.28
 -11   5   4   16.54    2.30
  11  -5  -4    2.80    0.97
 -11   5   4   11.77    1.63
  11  -5  -4   10.41    1.95
 -11   5   3   39.61    5.04
 -11   5   3   37.52    4.23
  11  -5  -3   38.10    4.71
 -11   5   3   46.62    5.31
  11  -5  -3   39.10    4.77
  11  -5  -3   42.11    5.80
 -11   5   3   43.17    5.08
  11  -5  -3   39.28    5.10
  11  -5  -3   37.89    5.14
 -11   5   2   18.66    3.67
 -11   5   2   18.50    2.99
  11  -5  -2   26.08    4.12
 -11   5   2   24.74    4.05
  11  -5  -2   21.45    4.28
 -11   5   2   27.50    6.01
  11  -5  -2   22.96    4.68
 -11   5   2   24.43    4.05
  11  -5  -2   25.29    4.63
  11  -5  -2   24.37    4.25
  11  -5  -1   46.72    5.10
 -11   5   1   43.85    5.03
 -11   5   1   52.22    8.42
 -11   5   1   38.46    7.59
 -11   5   1   42.58    4.76
  11  -5  -1   43.20    6.22
  11  -5  -1   53.12    6.29
  11  -5  -1   51.95    5.69
  11  -5   0  193.58    9.67
 -11   5   0  179.10   16.29
  11  -5   0  197.66   10.50
 -11   5  -1   18.41    8.54
 -11   5  -1   18.16    8.98
 -11   5  -1   20.24    5.22
  11  -5   1   25.52    3.22
 -11   5  -2   39.08   10.06
 -11   5  -2   37.99    9.49
 -11   5  -2   38.51    5.57
  11  -5   2   31.33    3.01
 -11   5  -3   40.54    7.40
 -11   4   4   35.89    4.20
 -11   4   4   37.34    3.81
 -11   4   4   34.30    3.37
  11  -4  -4   29.61    3.28
 -11   4   4   35.42    3.68
 -11   4   4   37.30    3.66
  11  -4  -4   26.58    3.31
 -11   4   3    0.88    1.24
 -11   4   3    0.70    1.12
  11  -4  -3    0.71    1.58
 -11   4   3    0.79    1.39
  11  -4  -3    0.01    0.91
  11  -4  -3    1.20    1.48
  11  -4  -3    0.59    1.43
 -11   4   3    0.70    1.13
 -11   4   3    1.48    1.25
  11  -4  -3   -0.06    1.41
 -11   4   2   66.94    6.97
 -11   4   2   63.98    5.93
  11  -4  -2   75.66    7.00
 -11   4   2   71.23    7.09
  11  -4  -2   67.42    7.36
 -11   4   2   83.20    9.71
  11  -4  -2   72.32    7.84
 -11   4   2   73.93    7.10
 -11   4   2   61.07    8.74
  11  -4  -2   74.94    7.55
  11  -4  -2   65.61    5.47
  11  -4  -2   64.26    6.75
 -11   4   1   36.29    4.56
 -11   4   1   39.06    6.61
  11  -4  -1   44.64    5.71
  11  -4  -1   37.36    5.65
  11  -4  -1   39.77    4.80
 -11   4   1   41.29    5.01
 -11   4   1   42.13    7.36
  11  -4  -1   39.54    5.05
  11  -4  -1   46.02    6.03
 -11   4   1   50.27    6.30
 -11   4   1   40.82    4.82
 -11   4   1   39.18    7.52
 -11   4   1   41.53    6.77
  11  -4  -1   42.13    5.53
  11  -4  -1   43.37    4.18
 -11   4   1   42.72    3.89
  11  -4  -1   43.04    5.21
 -11   4   0  497.24   22.82
  11  -4   0  561.56   21.18
  11  -4   0  592.44   19.29
  11  -4   0  529.25   16.17
 -11   4   0  608.32   26.86
  11  -4   0  485.13   15.75
 -11   4   0  583.87   19.44
  11  -4   0  547.89   21.79
 -11   4   0  535.32   27.26
  11  -4   0  546.87   13.66
 -11   4  -1    3.79    2.90
  11  -4   1    7.04    1.65
 -11   4  -2    2.99    4.41
 -11   4  -2    2.05    2.24
  11  -4   2    0.34    0.50
 -11   4  -3    0.42    3.21
 -11   4  -3   -1.15    1.22
  11  -4   3    0.19    0.36
 -11   3   4   -0.62    0.59
  11  -3  -4   -0.45    0.98
 -11   3   4    0.26    1.05
 -11   3   4    0.59    0.82
 -11   3   4   -0.98    1.21
 -11   3   4   -0.40    1.02
 -11   3   3  136.54   10.29
  11  -3  -3  126.13    9.28
 -11   3   3  147.83    9.79
  11  -3  -3  120.21    8.50
 -11   3   3  153.26   10.23
  11  -3  -3  135.82   10.23
  11  -3  -3  134.36    9.52
 -11   3   2   -0.51    1.44
  11  -3  -2    0.23    1.16
 -11   3   2    0.82    1.17
  11  -3  -2    1.41    1.21
  11  -3  -2   -0.20    1.55
 -11   3   2    0.40    1.09
  11  -3  -2    1.64    1.29
  11  -3  -2   -0.63    1.49
  11  -3  -1    1.05    1.13
 -11   3   1    2.24    1.03
  11  -3  -1    1.57    1.39
 -11   3   1    4.14    2.41
  11  -3  -1    2.39    1.51
 -11   3   1    1.91    1.50
  11  -3  -1    3.04    1.28
 -11   3   1    3.33    1.78
  11  -3  -1    2.00    1.41
 -11   3   1    1.61    2.16
 -11   3   1    2.06    1.80
 -11   3   1    1.79    1.42
  11  -3  -1    1.57    0.96
 -11   3   1    2.96    1.15
  11  -3  -1    0.15    1.08
 -11   3   0   23.52    4.76
  11  -3   0   23.11    3.72
  11  -3   0   25.91    4.65
  11  -3   0   25.29    3.45
 -11   3   0   20.95    3.24
 -11   3   0   24.52    5.46
  11  -3   0   23.94    3.56
 -11   3   0   22.70    6.22
  11  -3   0   23.06    3.12
  11  -3   0   21.37    4.16
 -11   3   0   27.55    4.24
 -11   3   0   18.85    5.31
 -11   3   0   25.79    4.87
  11  -3   0   21.99    2.83
  11  -3   1    1.52    1.21
 -11   3  -1   -0.31    1.79
 -11   3  -1    2.61    1.98
 -11   3  -1    1.01    2.53
  11  -3   1    1.84    1.15
  11  -3   1    0.95    1.31
 -11   3  -1    2.62    2.30
  11  -3   1    0.35    0.72
 -11   3  -2   -1.78    5.23
 -11   3  -2    0.69    1.86
 -11   3  -3    6.36    3.87
 -11   3  -3    4.20    1.48
  11  -2  -4    3.56    1.63
 -11   2   4    2.77    1.54
 -11   2   4    3.17    1.35
 -11   2   4    6.07    1.80
 -11   2   3    1.69    1.49
  11  -2  -3    5.25    2.35
 -11   2   3    2.34    1.99
  11  -2  -3    1.49    1.56
 -11   2   3    3.92    2.00
  11  -2  -3    1.02    1.55
  11  -2  -2    9.85    2.92
  11  -2  -2   12.38    3.09
 -11   2   2   11.47    2.89
  11  -2  -2   10.53    2.82
 -11   2   2    9.68    3.32
  11  -2  -2    8.31    2.42
 -11   2   2    9.14    2.64
 -11   2   2   15.25    4.14
 -11   2   2    6.44    2.30
 -11   2   2   10.63    1.99
  11  -2  -2   12.21    2.65
  11  -2  -2    8.87    2.74
  11  -2  -2   12.13    2.67
  11  -2  -1   10.98    2.49
 -11   2   1   12.98    3.64
  11  -2  -1   14.56    3.36
  11  -2  -1   12.19    3.08
 -11   2   1   -1.10    2.61
 -11   2   1   11.14    2.60
 -11   2   1   14.83    4.29
  11  -2  -1   19.30    3.40
  11  -2  -1   15.38    2.88
 -11   2   1   18.29    3.59
 -11   2   1   13.92    2.86
 -11   2   1   12.53    2.07
 -11   2   1   14.50    3.63
  11  -2  -1    9.94    2.02
  11  -2  -1   12.57    2.73
  11  -2  -1    9.83    2.06
  11  -2   0    2.32    1.43
  11  -2   0    1.16    0.88
 -11   2   0   -0.32    1.42
  11  -2   0    2.14    1.66
 -11   2   0   -0.25    2.92
 -11   2   0    4.87    1.74
 -11   2   0    4.88    2.55
 -11   2   0    3.12    2.73
 -11   2   0    5.90    3.64
  11  -2   0    1.83    1.11
  11  -2   0    4.55    1.91
 -11   2   0    3.21    1.58
 -11   2   0    3.74    1.77
  11  -2   0    1.64    0.96
 -11   2   0    1.59    1.21
 -11   2  -1   36.41    5.67
  11  -2   1   46.80    4.10
  11  -2   1   46.91    4.90
 -11   2  -1   32.04    5.59
 -11   2  -1   37.26    7.85
  11  -2   1   49.56    4.24
 -11   2  -1   48.85    5.11
  11  -2   1   44.58    6.01
 -11   2  -1   33.78    6.41
  11  -2   1   47.77    3.96
 -11   2  -2   36.30    5.89
 -11   2  -2   27.99    7.53
 -11   2  -3    0.41    3.91
 -11   2  -3    0.18    1.27
 -11   2  -4    6.42    1.45
  11  -2   4   10.34    1.20
 -11   1   4    8.74    2.27
  11  -1  -4    9.12    2.08
  11  -1  -4   11.08    2.49
 -11   1   4    9.89    2.00
 -11   1   3    1.49    1.48
  11  -1  -3    2.80    1.90
  11  -1  -3    1.93    1.55
 -11   1   3    1.79    1.38
  11  -1  -3    0.38    1.36
  11  -1  -2    2.01    1.69
 -11   1   2    2.59    1.66
  11  -1  -2    4.83    1.92
 -11   1   2    0.49    2.15
  11  -1  -2    3.57    1.82
 -11   1   2    2.04    0.76
 -11   1   2    1.51    1.27
  11  -1  -2    3.69    1.78
 -11   1   2    2.31    0.95
  11  -1  -2    2.06    1.44
  11  -1  -2    2.35    1.17
 -11   1   1   35.66    5.45
  11  -1  -1   44.69    5.19
  11  -1  -1   43.40    4.58
  11  -1  -1   49.95    4.81
  11  -1  -1   44.04    4.63
 -11   1   1   45.61    5.29
 -11   1   1   40.35    6.78
 -11   1   1   49.14    6.18
 -11   1   1   50.04    3.94
  11  -1  -1   45.42    4.40
  11  -1  -1   41.47    4.39
  11  -1  -1   39.14    4.60
  11  -1  -1   37.74    3.53
 -11   1   0   35.23    6.24
  11  -1   0   36.17    3.67
 -11   1   0   36.82    5.50
  11  -1   0   38.82    4.33
  11  -1   0   34.86    3.80
 -11   1   0   37.14    5.59
 -11   1   0   26.75    6.16
  11  -1   0   35.53    3.67
 -11   1   0   43.55    4.96
 -11   1   0   40.39    6.50
 -11   1   0   44.42    5.04
  11  -1   0   36.62    3.04
 -11   1   0   42.15    5.35
 -11   1   0   46.55    4.13
  11  -1   0   39.81    3.68
  11  -1   0   35.22    3.49
 -11   1  -1   15.88    4.68
  11  -1   1   18.55    2.53
 -11   1  -1   10.70    2.79
  11  -1   1   17.86    2.92
 -11   1  -1   19.39    4.26
 -11   1  -1   14.73    3.87
 -11   1  -1   16.89    5.59
  11  -1   1   20.91    2.80
 -11   1  -1   16.83    2.98
  11  -1   1   12.32    3.07
 -11   1  -1   16.60    2.97
  11  -1   1   16.60    1.99
  11  -1   1   16.85    2.37
 -11   1  -2   32.30    6.92
 -11   1  -2   51.60    7.04
 -11   1  -2   38.64    8.60
  11  -1   2   56.61    3.72
 -11   1  -3    6.43    2.37
  11  -1   3   10.31    1.49
 -11   1  -4    2.95    1.33
  11  -1   4    3.38    0.57
 -11   0   4   33.17    4.05
  11   0  -4   35.76    3.53
  11   0  -4   38.55    4.35
 -11   0   4   27.39    2.99
 -11   0   3    1.17    1.19
  11   0  -3    0.99    1.40
 -11   0   3    1.87    1.27
  11   0  -2    0.68    1.06
  11   0  -2    3.39    1.98
 -11   0   2    5.58    2.48
  11   0  -2    4.93    1.76
 -11   0   2    5.04    1.77
 -11   0   2    4.11    2.27
  11   0  -2    2.30    1.55
 -11   0   2    3.34    1.25
  11   0  -2    3.66    1.62
  11   0  -2    3.04    1.55
 -11   0   1  227.40   13.49
  11   0  -1  227.69   11.19
  11   0  -1  217.96   10.06
 -11   0   1  232.67   11.50
 -11   0   1  230.44   15.46
 -11   0   1  227.58   12.97
 -11   0   1  239.57    8.35
  11   0  -1  215.99    9.64
  11   0  -1  216.80   10.06
  11   0  -1  198.04    8.32
 -11   0   0   43.96    6.86
  11   0   0   50.41    4.32
 -11   0   0   50.16    6.29
  11   0   0   45.82    4.65
  11   0   0   37.83    3.85
 -11   0   0   40.30    7.35
  11   0   0   52.56    4.53
 -11   0   0   52.97    5.39
 -11   0   0   58.13    7.65
 -11   0   0   49.53    5.21
  11   0   0   46.33    3.56
 -11   0   0   50.13    5.60
 -11   0   0   54.08    4.31
  11   0   0   45.28    3.99
  11   0   0   46.95    4.18
  11   0   1   42.72    3.88
 -11   0  -1   37.80    6.77
 -11   0  -1   41.31    5.59
  11   0   1   40.60    3.77
  11   0   1   38.16    4.03
 -11   0  -1   33.76    5.16
 -11   0  -1   37.88    7.62
  11   0   1   39.86    3.98
  11   0   1   43.66    3.98
 -11   0  -1   37.62    7.95
 -11   0  -1   48.22    5.04
 -11   0  -1   38.59    6.65
 -11   0  -1   42.80    4.75
  11   0   1   41.04    3.21
  11   0   1   39.16    3.61
  11   0   2   14.44    2.15
 -11   0  -2    8.96    3.41
 -11   0  -2    7.66    2.97
 -11   0  -2    5.86    4.05
 -11   0  -2    9.88    5.09
  11   0   2   11.51    1.82
 -11   0  -3    4.53    2.58
  11   0   3    7.66    1.45
 -11   0  -4    0.53    0.90
  11   0   4    1.69    0.51
  11   1  -4  214.89    7.35
 -11  -1   4  229.65    9.58
 -11  -1   3   40.39    4.34
  11   1  -3   51.12    4.77
  11   1  -3   52.36    5.71
 -11  -1   2    5.80    3.77
  11   1  -2    5.28    2.00
 -11  -1   2    7.14    2.74
 -11  -1   2    0.02    1.84
  11   1  -2    1.88    1.60
 -11  -1   2    1.14    0.67
  11   1  -2    1.70    1.49
 -11  -1   1  142.04   10.60
 -11  -1   1  127.06    8.16
 -11  -1   1  123.17    8.07
 -11  -1   1  157.93   12.79
 -11  -1   1  143.83   10.46
 -11  -1   1  141.63    6.42
  11   1  -1  135.34    7.82
  11   1  -1  139.83    8.19
  11   1  -1  130.93    7.07
 -11  -1   0  122.93   11.45
  11   1   0  128.90    6.99
 -11  -1   0  131.25   10.09
 -11  -1   0  121.68   12.86
  11   1   0  139.97    7.52
 -11  -1   0  132.56    8.25
 -11  -1   0  137.60   11.72
 -11  -1   0  134.62    8.34
  11   1   0  118.24    5.89
 -11  -1   0  146.45    9.44
 -11  -1   0  145.60    6.92
  11   1   0  124.99    6.70
  11   1   0  128.57    7.12
  11   1   1   34.68    3.59
 -11  -1  -1   32.07    6.20
 -11  -1  -1   35.53    5.34
  11   1   1   34.12    3.48
 -11  -1  -1   32.04    4.88
 -11  -1  -1   30.40    6.93
  11   1   1   34.25    3.69
  11   1   1   34.10    3.60
 -11  -1  -1   44.87    8.67
 -11  -1  -1   38.28    4.54
 -11  -1  -1   36.52    6.26
 -11  -1  -1   33.45    4.22
  11   1   1   30.42    2.86
  11   1   1   31.18    3.24
  11   1   1   31.33    3.42
  11   1   2   77.80    5.12
 -11  -1  -2   66.19    9.39
 -11  -1  -2   59.93    7.10
 -11  -1  -2   60.34   10.25
 -11  -1  -2   62.33   11.60
  11   1   2   85.74    4.78
  11   1   3    8.75    1.54
 -11  -1  -3    4.40    2.25
 -11  -1  -3    4.24    2.10
 -11  -1  -3    4.51    3.68
  11   1   3   10.41    1.67
 -11  -1  -4    9.08    2.10
  11   1   4   13.35    1.42
  11   1   4   11.03    1.34
  11   2  -4   39.80    3.42
 -11  -2   4   30.47    3.05
  11   2  -3   -2.43    1.21
  11   2  -3    0.22    1.11
 -11  -2   2    2.70    1.41
  11   2  -2    5.94    1.85
  11   2  -2    6.17    2.15
 -11  -2   2    4.49    2.54
  11   2  -2    2.12    1.51
 -11  -2   1   39.01    5.69
 -11  -2   1   19.79    6.98
 -11  -2   1   31.61    3.99
 -11  -2   1   30.14    3.93
 -11  -2   1   37.25    5.49
 -11  -2   1   36.86    3.29
  11   2  -1   34.14    4.17
  11   2  -1   39.06    4.42
  11   2  -1   32.44    3.77
 -11  -2   0  614.59   25.75
 -11  -2   0  636.33   22.28
 -11  -2   0  504.27   34.78
 -11  -2   0  587.17   28.52
  11   2   0  613.71   16.00
 -11  -2   0  558.92   16.90
 -11  -2   0  663.12   25.86
 -11  -2   0  586.54   17.29
  11   2   0  569.37   13.61
  11   2   0  585.48   14.78
 -11  -2   0  664.36   14.37
  11   2   0  570.44   14.05
  11   2   0  577.34   15.43
  11   2   1  203.56    8.76
 -11  -2  -1  209.66   15.68
  11   2   1  192.28    8.28
 -11  -2  -1  220.19   13.00
 -11  -2  -1  189.89   22.27
 -11  -2  -1  207.31   17.66
  11   2   1  198.64    8.87
  11   2   1  199.46    8.59
  11   2   1  199.54    8.56
 -11  -2  -1  181.50   17.70
 -11  -2  -1  222.47   10.89
 -11  -2  -1  218.81   14.66
 -11  -2  -1  216.68   10.72
  11   2   1  191.86    7.44
  11   2   1  205.87    7.73
  11   2   1  204.05    8.11
  11   2   1  193.73    8.66
 -11  -2  -1  167.14   14.74
  11   2   2    1.92    0.99
 -11  -2  -2   -4.00    2.80
  11   2   2    2.54    1.01
 -11  -2  -2   -1.76    2.69
 -11  -2  -2   -0.14    2.57
 -11  -2  -2    0.10    1.57
  11   2   2    1.23    0.93
  11   2   2    1.74    1.01
  11   2   3   13.74    2.03
  11   2   3   11.89    1.59
 -11  -2  -3   12.74    4.18
 -11  -2  -3    8.99    2.68
 -11  -2  -3   12.25    4.06
 -11  -2  -3    4.12    3.26
  11   2   3    9.11    1.63
  11   2   3   12.55    1.86
 -11  -2  -4   74.81    5.59
  11   2   4  105.41    3.80
  11   3  -3    5.65    1.52
  11   3  -3    5.45    1.74
  11   3  -2   -0.56    1.19
  11   3  -2    1.06    1.24
 -11  -3   2    3.33    1.50
 -11  -3   1    7.28    2.77
  11   3  -1    5.20    1.90
 -11  -3   1    5.17    1.81
  11   3  -1    3.92    1.79
 -11  -3   0  108.26   10.92
 -11  -3   0  102.89    9.18
 -11  -3   0   97.38   11.79
 -11  -3   0   89.50    6.65
 -11  -3   0   84.82    6.48
  11   3   0   88.06    5.75
  11   3   0   93.50    6.10
  11   3   0   99.90    6.65
  11   3   1  287.51   10.44
 -11  -3  -1  299.89   18.86
  11   3   1  270.85   10.03
 -11  -3  -1  298.59   15.24
 -11  -3  -1  303.23   21.62
  11   3   1  275.06   10.64
 -11  -3  -1  282.20   22.19
 -11  -3  -1  325.10   17.71
  11   3   1  285.15    9.62
  11   3   1  268.35    9.16
 -11  -3  -1  251.53   17.53
  11   3   2    1.73    0.99
 -11  -3  -2    3.86    2.86
  11   3   2    1.19    0.77
  11   3   2    1.29    0.91
 -11  -3  -2    0.70    2.81
 -11  -3  -2    7.59    4.76
 -11  -3  -2    3.89    3.51
  11   3   2    2.26    1.02
  11   3   3   -0.25    0.57
 -11  -3  -3    0.98    1.98
  11   3   3    0.81    0.73
 -11  -3  -3   -1.63    1.97
  11   3   3   -0.10    0.55
 -11  -3  -3   -0.81    3.04
  11   3   3    0.29    0.62
 -11  -3  -4    4.48    1.29
  11   3   4    7.27    0.96
  11   4  -3   -0.72    0.98
  11   4  -3   -1.31    0.96
  11   4  -2   76.88    6.02
 -11  -4   2   69.97    6.28
 -11  -4   1    1.50    1.40
  11   4  -1    2.69    1.47
  11   4  -1    0.46    1.10
 -11  -4   0   44.64    6.97
 -11  -4   0   53.19    8.97
  11   4   0   44.20    4.49
  11   4   0   41.95    4.06
  11   4   1    5.30    1.60
  11   4   1    6.41    1.72
 -11  -4  -1    6.24    2.79
 -11  -4  -1    4.62    1.63
 -11  -4  -1    6.40    3.15
 -11  -4  -1    3.64    2.26
  11   4   1    7.82    2.07
 -11  -4  -1    7.97    4.49
  11   4   1    6.33    1.65
  11   4   2    5.48    1.55
  11   4   2    6.61    1.53
 -11  -4  -2    5.27    3.18
 -11  -4  -2    5.10    2.18
 -11  -4  -2    6.82    4.15
  11   4   2    6.06    1.78
 -11  -4  -2    2.19    3.18
 -11  -4  -2    7.42    3.62
  11   4   2    5.09    1.39
  11   4   3    5.19    1.24
 -11  -4  -3    7.15    2.67
  11   4   3    5.21    1.13
 -11  -4  -3    4.09    1.47
  11   4   3    5.16    1.28
 -11  -4  -3    6.31    2.92
 -11  -4  -3    1.72    2.28
 -11  -4  -3    1.77    1.83
  11   4   3    5.23    1.05
  11   5  -3    9.14    1.50
  11   5  -2    8.63    2.00
  11   5  -2    5.83    1.68
 -11  -5   1    5.66    2.37
  11   5  -1    7.45    2.01
 -11  -5   1    7.38    3.02
 -11  -5   0    2.95    1.83
  11   5   0    0.95    1.13
 -11  -5   0    0.90    2.45
  11   5   0    0.09    0.88
  11   5   1   14.49    2.41
 -11  -5  -1   21.93    5.08
 -11  -5  -1   16.87    3.55
 -11  -5  -1   16.47    5.39
 -11  -5  -1   14.68    3.80
 -11  -5  -1   14.22    5.13
  11   5   1   22.40    2.93
  11   5   1   18.67    2.52
  11   5   2    3.00    1.18
  11   5   2    3.44    1.23
 -11  -5  -2    2.42    1.96
 -11  -5  -2    4.06    3.74
  11   5   2    4.07    1.45
 -11  -5  -2    3.13    2.06
 -11  -5  -2    4.36    3.08
  11   5   2    4.00    1.13
  11   5   3   10.58    1.56
 -11  -5  -3    8.12    2.36
  11   5   3   11.22    1.63
 -11  -5  -3    7.84    3.27
  11   5   3   11.34    1.32
  11   5   3   12.01    1.58
 -11  -6   2    0.44    1.00
  11   6  -2    0.52    0.70
 -11  -6   1    4.45    1.65
 -11  -6   1    2.99    1.47
  11   6  -1    5.10    1.68
 -11  -6   0    2.62    1.65
 -11  -6   0    6.51    3.18
  11   6   0    4.23    1.49
  11   6   1    2.43    1.19
 -11  -6  -1    3.63    2.16
 -11  -6  -1    1.53    1.34
 -11  -6  -1    3.87    2.49
 -11  -6  -1    3.06    1.38
 -11  -6  -1    2.22    2.65
  11   6   2    6.98    1.36
  11   6   2    5.32    1.23
 -11  -6  -2    6.56    2.54
 -11  -6  -2    4.25    2.49
 -11  -6  -2    8.07    3.63
 -11  -6  -2    6.56    2.53
 -11  -6  -3    3.14    1.93
  11   6   3   10.28    1.23
 -11  -7   1    1.67    0.85
 -11  -7   1    4.05    1.40
  11   7  -1    1.91    0.88
 -11  -7   0   47.57    4.63
 -11  -7   0   69.15    5.36
 -11  -7   0   62.99    6.88
 -11  -7   0   66.31    5.71
  11   7   0   70.08    4.58
 -11  -7  -1   -0.09    1.19
 -11  -7  -1   -0.45    0.73
 -11  -7  -1   -1.04    1.44
  11   7   1    0.55    0.67
  11   7   2    2.26    0.74
 -11  -7  -2    3.45    1.53
  12  -8  -1   16.94    2.39
 -12   8   1   22.93    3.58
  12  -8  -1   17.48    2.55
  12  -8  -1   15.67    2.08
  12  -8  -1   14.56    2.24
  12  -8   0    5.32    1.17
 -12   8   0    5.32    1.59
  12  -8   0    5.11    1.32
  12  -8   0    3.89    1.22
  12  -7  -3   80.00    4.66
 -12   7   2   94.03    5.17
  12  -7  -2  157.88    8.69
 -12   7   2  132.88    6.11
  12  -7  -2  157.24    9.09
  12  -7  -2  146.62    8.14
  12  -7  -2   78.96    5.69
  12  -7  -2  138.55    6.43
  12  -7  -1   15.74    3.22
 -12   7   1   22.28    4.85
  12  -7  -1   18.56    3.49
  12  -7  -1   16.67    2.97
  12  -7  -1   18.09    3.30
  12  -7  -1   16.12    2.47
 -12   7   0   -1.00    2.87
 -12   7   0    0.40    1.31
  12  -7   0    1.81    1.46
  12  -7   0    0.72    0.94
  12  -7   0    1.16    0.68
 -12   7  -1    0.66    1.90
 -12   7  -1    4.24    1.70
  12  -7   1    2.27    0.93
  12  -7   1    2.68    0.78
 -12   6   3   74.27    5.44
 -12   6   3   89.85    5.89
  12  -6  -3    3.68    1.11
 -12   6   3   89.76    5.77
  12  -6  -3   78.70    6.14
  12  -6  -3   78.55    5.37
  12  -6  -3   88.52    6.21
 -12   6   2    7.62    2.00
  12  -6  -2    8.06    2.03
 -12   6   2    6.57    2.03
  12  -6  -2    8.03    2.56
 -12   6   2    6.38    2.66
  12  -6  -2    8.83    2.69
 -12   6   2    7.66    2.04
  12  -6  -2    7.86    2.43
  12  -6  -2    6.44    1.99
  12  -6  -1    0.89    0.74
 -12   6   1    1.61    1.02
 -12   6   1    2.21    2.94
 -12   6   1    4.29    2.77
  12  -6  -1    0.29    1.65
  12  -6  -1    0.35    1.42
  12  -6  -1    0.85    0.96
 -12   6   0   26.08    9.13
 -12   6   0   40.84    6.81
  12  -6   0   32.37    3.50
  12  -6   0   38.78    4.85
  12  -6   0   32.24    3.95
 -12   6  -1    1.91    3.11
 -12   6  -1    4.79    2.30
  12  -6   1    4.00    1.07
  12  -6   1    4.54    1.41
 -12   6  -2    0.10    0.66
  12  -6   2    0.10    0.48
 -12   5   4    7.39    1.50
 -12   5   4    7.07    1.20
 -12   5   4    5.31    1.12
 -12   5   3   29.64    4.01
 -12   5   3   26.24    3.12
  12  -5  -3   29.10    3.82
 -12   5   3   31.66    4.09
  12  -5  -3   31.19    4.26
 -12   5   3   32.15    4.10
  12  -5  -3   29.49    4.06
  12  -5  -3   31.73    4.24
 -12   5   2    0.67    0.85
  12  -5  -2   -0.57    1.26
 -12   5   2    1.33    1.19
  12  -5  -2    1.25    1.72
  12  -5  -2   -0.36    1.43
 -12   5   2   -0.24    0.99
  12  -5  -2    0.33    1.23
  12  -5  -2    0.62    1.18
  12  -5  -1   11.88    2.60
 -12   5   1   13.77    2.90
 -12   5   1   15.11    4.72
 -12   5   1   10.52    2.42
  12  -5  -1    9.27    3.19
 -12   5   1   11.29    4.18
  12  -5  -1   11.27    3.15
  12  -5  -1   14.80    3.31
  12  -5   0  218.83   10.14
 -12   5   0  196.17   16.46
  12  -5   0  223.88   10.99
 -12   5  -1   18.07    6.76
 -12   5  -1   27.44    5.48
  12  -5   1   31.25    3.48
 -12   5  -2   33.14    8.27
 -12   5  -2   45.68    5.62
 -12   5  -2   43.09    9.18
  12  -5   2   34.86    2.87
 -12   4   4    1.80    0.78
  12  -4  -4    0.27    0.49
 -12   4   4    2.47    1.06
 -12   4   4    2.06    0.85
 -12   4   4    4.08    1.33
 -12   4   4    2.07    0.74
 -12   4   3    8.15    2.38
  12  -4  -3    5.83    1.60
 -12   4   3    6.30    2.20
 -12   4   3    5.50    1.79
  12  -4  -3    5.79    2.04
 -12   4   3    7.79    2.45
  12  -4  -3    4.50    2.19
  12  -4  -3    6.01    1.99
 -12   4   2   45.43    5.47
 -12   4   2   40.71    4.45
  12  -4  -2   47.37    5.48
 -12   4   2   45.42    5.54
  12  -4  -2   44.11    5.59
 -12   4   2   47.64    7.05
 -12   4   2   48.36    5.57
  12  -4  -2   38.99    5.57
 -12   4   2   41.11    6.98
  12  -4  -2   46.52    5.87
  12  -4  -2   45.47    4.42
  12  -4  -2   43.77    5.57
 -12   4   1   26.25    5.50
  12  -4  -1   33.46    4.47
 -12   4   1   31.06    4.30
 -12   4   1   33.63    6.48
 -12   4   1   30.52    4.15
 -12   4   1   30.80    6.58
  12  -4  -1   32.71    4.96
  12  -4  -1   28.55    4.51
  12  -4  -1   30.00    3.53
  12  -4  -1   27.88    4.24
 -12   4   0  151.90   12.79
  12  -4   0  179.66    9.53
 -12   4   0  192.13   15.22
 -12   4   0  152.56   14.58
  12  -4   0  167.85    7.74
  12  -4   0  170.41    9.67
  12  -4   1    3.20    1.35
 -12   4  -1    1.36    1.91
 -12   4  -1    3.37    3.47
  12  -4   1    5.63    1.45
 -12   4  -2    7.93    6.47
 -12   4  -2   -0.47    4.57
 -12   4  -2    2.66    1.79
  12  -4   2    2.46    0.84
 -12   4  -3    0.52    2.73
 -12   4  -3    2.83    1.24
  12  -4   3    1.10    0.58
  12  -4   3    1.34    0.48
 -12   3   4    4.13    1.09
  12  -3  -4    4.07    1.36
 -12   3   4    4.90    1.62
 -12   3   4    7.70    1.84
 -12   3   4    3.64    1.20
 -12   3   4    4.74    1.33
 -12   3   3   37.53    5.32
  12  -3  -3   38.43    5.04
 -12   3   3   46.68    5.27
  12  -3  -3   39.87    4.42
 -12   3   3   50.03    5.72
  12  -3  -3   43.07    5.62
  12  -3  -3   36.15    4.66
 -12   3   2   43.44    5.56
 -12   3   2   40.23    6.25
  12  -3  -2   45.03    5.47
 -12   3   2   42.67    5.46
 -12   3   2   47.85    5.74
 -12   3   2   39.98    7.05
  12  -3  -2   40.99    5.20
  12  -3  -2   42.25    4.60
  12  -3  -2   40.01    5.33
 -12   3   1   70.25    8.61
  12  -3  -1   76.90    6.61
 -12   3   1   79.90    7.01
 -12   3   1   84.22    9.43
 -12   3   1   77.83    6.62
 -12   3   1   74.14    9.92
 -12   3   1   81.38    9.03
  12  -3  -1   81.20    7.15
  12  -3  -1   70.22    5.66
  12  -3  -1   73.99    6.70
  12  -3   0    0.48    0.89
  12  -3   0    1.03    1.20
 -12   3   0    0.18    1.37
  12  -3   0   -2.86    1.99
 -12   3   0    2.28    1.07
 -12   3   0   -0.12    1.72
  12  -3   0   -0.81    1.45
  12  -3   0    1.32    0.94
 -12   3   0    2.72    1.51
 -12   3   0    1.00    2.19
  12  -3   0    0.52    0.95
  12  -3   0    0.15    1.21
 -12   3  -1   19.12    4.43
 -12   3  -1   24.11    5.48
 -12   3  -1   12.96    4.89
  12  -3   1   20.47    2.66
 -12   3  -2    4.39    6.06
 -12   3  -2    8.28    3.15
  12  -3   2    8.65    1.64
 -12   3  -3   14.73    6.57
 -12   3  -3   14.16    2.97
  12  -3   3   18.42    1.88
 -12   2   4   13.54    2.52
 -12   2   4   10.53    2.09
  12  -2  -4    9.77    2.10
 -12   2   4    9.22    1.84
 -12   2   3    2.46    1.53
  12  -2  -3    0.26    1.08
 -12   2   3    2.10    1.91
  12  -2  -3    1.16    1.45
 -12   2   3    2.79    1.81
  12  -2  -3    1.91    1.75
 -12   2   2    1.64    1.81
 -12   2   2   -1.57    1.19
  12  -2  -2   -0.56    1.15
 -12   2   2   -0.43    1.24
  12  -2  -2    0.39    1.04
 -12   2   2   -3.33    2.35
 -12   2   2    0.33    1.21
  12  -2  -2   -1.79    1.29
  12  -2  -2   -0.56    1.48
  12  -2  -1    2.92    1.60
 -12   2   1    1.50    0.86
 -12   2   1    4.01    2.24
  12  -2  -1    2.13    1.58
 -12   2   1    2.54    1.51
 -12   2   1    0.10    2.28
  12  -2  -1    3.50    1.63
 -12   2   1    5.95    2.44
  12  -2  -1    4.01    1.80
 -12   2   1    4.77    2.41
 -12   2   1    1.56    1.51
  12  -2  -1    2.35    1.26
 -12   2   1    3.15    1.44
  12  -2  -1    3.39    1.87
  12  -2   0    1.33    1.19
  12  -2   0   -0.32    0.81
 -12   2   0   -1.15    1.80
 -12   2   0    4.25    3.50
 -12   2   0    0.69    1.03
 -12   2   0    1.63    2.00
 -12   2   0    2.73    3.26
 -12   2   0    1.32    1.52
 -12   2   0    4.40    3.23
  12  -2   0    0.37    0.72
  12  -2   0   -2.64    1.42
 -12   2  -1   19.25    4.34
 -12   2  -1   21.95    4.88
 -12   2  -1   22.64    6.37
 -12   2  -1   14.79    4.83
  12  -2   1   24.71    3.00
 -12   2  -2   88.43    9.13
 -12   2  -2   65.75   10.65
 -12   2  -3    7.80    5.09
 -12   2  -3    6.68    2.33
  12  -2   3    6.74    1.34
  12  -1  -4    6.94    1.74
  12  -1  -4    8.44    2.00
 -12   1   4    8.83    2.05
 -12   1   4    7.03    1.51
 -12   1   3    6.86    2.17
  12  -1  -3    5.06    2.18
 -12   1   3    4.51    2.26
  12  -1  -3    5.65    2.15
 -12   1   3    5.90    2.01
  12  -1  -3    2.88    1.83
 -12   1   2    7.27    2.64
  12  -1  -2    7.10    2.45
 -12   1   2   12.27    3.12
  12  -1  -2    6.98    2.24
 -12   1   2   12.03    3.92
  12  -1  -2    9.42    2.40
  12  -1  -2    9.54    2.91
 -12   1   1   99.51    9.58
  12  -1  -1  115.29    8.69
  12  -1  -1  109.61    7.64
  12  -1  -1  134.78    7.95
 -12   1   1  132.11    9.49
 -12   1   1  115.99   11.69
 -12   1   1  130.55   10.46
 -12   1   1  126.74    6.55
  12  -1  -1  111.93    7.20
  12  -1  -1  115.36    7.54
  12  -1  -1  115.89    7.98
  12  -1  -1  105.93    6.09
  12  -1   0    4.05    1.53
 -12   1   0    3.96    1.24
 -12   1   0    4.04    1.93
  12  -1   0    4.66    1.83
 -12   1   0    4.06    2.17
 -12   1   0   -1.15    1.88
 -12   1   0    7.02    2.14
 -12   1   0   -2.12    1.76
  12  -1   0    4.39    1.41
 -12   1   0    7.97    2.42
  12  -1   0    6.58    1.47
  12  -1   0    4.04    1.43
 -12   1   0    4.50    1.60
  12  -1   0    5.32    1.90
 -12   1  -1   44.74    7.74
  12  -1   1   62.18    4.86
 -12   1  -1   51.87    6.84
  12  -1   1   51.32    5.12
 -12   1  -1   49.49    6.79
 -12   1  -1   45.49    8.61
  12  -1   1   62.30    4.96
 -12   1  -1   59.41    5.85
 -12   1  -1   53.78    8.11
 -12   1  -1   65.95    6.20
  12  -1   1   54.51    3.64
  12  -1   1   56.22    4.47
 -12   1  -2   -0.14    2.21
 -12   1  -2   -0.61    1.43
 -12   1  -2    0.38    2.10
  12  -1   2    0.19    0.52
 -12   1  -3    4.38    2.13
  12  -1   3    8.74    1.28
 -12   1  -4    4.45    1.25
  12  -1   4    7.63    0.95
  12   0  -4    4.33    1.26
  12   0  -4    6.81    1.79
 -12   0   4    6.32    1.61
 -12   0   4    4.52    1.09
 -12   0   3   16.33    2.92
  12   0  -3   24.73    3.87
 -12   0   3   21.91    3.75
 -12   0   2   17.67    3.82
  12   0  -2   17.66    3.34
 -12   0   2   21.75    3.81
  12   0  -2   24.74    3.90
 -12   0   2   21.60    5.32
  12   0  -2   20.40    3.48
  12   0  -2   20.54    3.59
 -12   0   1  116.74   10.17
  12   0  -1  117.60    7.58
  12   0  -1  133.92    8.26
 -12   0   1  118.22    8.63
 -12   0   1  117.25   11.67
 -12   0   1  118.24    9.80
 -12   0   1  129.27    6.55
  12   0  -1  107.25    7.11
  12   0  -1  111.55    7.52
  12   0  -1  103.63    6.25
 -12   0   0  134.40   12.59
 -12   0   0  146.94   11.31
  12   0   0  138.07    7.54
 -12   0   0  145.52   14.70
  12   0   0  170.46    8.57
 -12   0   0  184.02   10.48
 -12   0   0  162.45   13.33
 -12   0   0  183.22   10.47
  12   0   0  146.72    6.66
 -12   0   0  182.50    8.48
  12   0   0  153.70    7.64
  12   0   0  145.95    7.75
 -12   0  -1   21.33    5.50
  12   0   1   24.68    3.12
 -12   0  -1   20.75    4.60
 -12   0  -1   21.71    4.20
 -12   0  -1   17.22    4.72
 -12   0  -1   17.44    5.62
  12   0   1   28.63    3.44
 -12   0  -1   27.60    4.05
 -12   0  -1   24.35    3.80
  12   0   1   20.51    2.35
  12   0   1   20.94    2.82
 -12   0  -2    4.63    3.07
 -12   0  -2    7.74    2.59
 -12   0  -2    7.47    4.74
  12   0   2   14.09    1.97
  12   0   2   10.75    2.01
 -12   0  -3    0.89    1.07
 -12   0  -3    2.73    2.84
  12   0   3    0.76    0.61
 -12   0  -4   17.73    2.46
  12   0   4   17.92    1.43
  12   1  -4  238.51    8.46
 -12  -1   4  240.08    8.52
 -12  -1   3    3.08    1.26
  12   1  -3   -0.79    1.70
 -12  -1   2    7.59    2.44
  12   1  -2    6.71    2.19
  12   1  -2    8.30    2.54
 -12  -1   1   86.26    8.55
 -12  -1   1   76.70    6.68
 -12  -1   1   92.76   10.34
 -12  -1   1   85.70    8.34
 -12  -1   1   87.00    5.24
  12   1  -1   79.85    6.21
  12   1  -1   80.52    6.51
  12   1  -1   72.77    5.43
 -12  -1   0   10.25    3.53
 -12  -1   0    9.22    3.00
 -12  -1   0   11.62    3.75
 -12  -1   0    9.52    2.47
 -12  -1   0    5.62    2.93
  12   1   0    8.03    2.00
 -12  -1   0   10.78    2.58
  12   1   0    6.79    1.75
  12   1   0    9.56    1.90
  12   1   0    7.48    1.83
 -12  -1   0    9.61    1.99
  12   1   1  186.99    8.51
 -12  -1  -1  163.46   14.19
  12   1   1  172.31    8.21
 -12  -1  -1  171.81   11.78
 -12  -1  -1  161.03   16.04
  12   1   1  179.15    8.51
 -12  -1  -1  136.92   15.06
 -12  -1  -1  192.59   10.46
 -12  -1  -1  193.11   14.33
 -12  -1  -1  196.16   10.56
  12   1   1  163.51    6.81
  12   1   1  164.75    7.63
  12   1   2   14.48    2.27
 -12  -1  -2    9.02    3.95
 -12  -1  -2   11.37    3.29
 -12  -1  -2    6.67    3.95
 -12  -1  -2    9.34    5.22
  12   1   2   17.04    2.21
  12   1   2   14.44    2.23
 -12  -1  -3    0.12    1.63
 -12  -1  -3   -0.62    1.26
 -12  -1  -3    0.62    1.87
  12   1   3    0.44    0.63
  12   1   3    1.03    0.80
 -12  -1  -4  114.07    5.98
  12   1   4  148.07    3.76
  12   2  -4    7.55    1.33
 -12  -2   4    7.52    1.33
  12   2  -3    6.27    1.92
 -12  -2   2   13.19    3.02
  12   2  -2   16.87    3.35
 -12  -2   2   18.91    4.74
  12   2  -2   13.51    3.01
 -12  -2   1   11.49    3.42
 -12  -2   1    8.78    3.45
  12   2  -1    8.95    2.29
  12   2  -1    5.82    2.10
 -12  -2   0   14.68    4.09
 -12  -2   0    9.61    3.28
 -12  -2   0   11.48    3.90
 -12  -2   0    9.14    2.25
 -12  -2   0    5.05    2.71
  12   2   0    9.49    2.23
 -12  -2   0    9.48    2.31
  12   2   0    9.58    2.02
  12   2   0   10.11    2.17
  12   2   0   11.12    2.28
  12   2   1  509.24   14.12
 -12  -2  -1  498.36   24.72
 -12  -2  -1  522.04   20.44
 -12  -2  -1  499.60   27.82
 -12  -2  -1  517.66   23.01
  12   2   1  479.32   12.03
  12   2   1  497.77   12.97
  12   2   1  508.51   12.32
  12   2   2   45.76    4.01
 -12  -2  -2   36.75    6.91
 -12  -2  -2   30.55    4.66
 -12  -2  -2   31.38    7.54
 -12  -2  -2   27.23    7.58
  12   2   2   48.75    3.67
  12   2   2   42.17    3.60
  12   2   2   44.95    3.34
  12   2   3   -0.19    0.45
 -12  -2  -3    0.44    1.80
 -12  -2  -3   -0.12    0.88
 -12  -2  -3   -0.56    1.97
 -12  -2  -3    0.49    2.44
  12   2   3   -0.35    0.78
  12   2   3    0.63    0.51
 -12  -2  -4    2.14    0.90
  12   2   4    1.79    0.46
  12   3  -3    7.33    1.50
  12   3  -3    8.69    2.01
 -12  -3   2   12.85    2.89
  12   3  -2    5.89    1.56
  12   3  -2   10.07    2.41
 -12  -3   2    9.16    3.02
 -12  -3   1    7.71    2.73
  12   3  -1    9.11    2.27
 -12  -3   1    5.91    2.66
  12   3  -1    2.50    1.70
  12   3  -1    1.75    1.49
 -12  -3   0    7.50    3.22
 -12  -3   0    6.50    2.72
 -12  -3   0    8.27    3.68
 -12  -3   0    5.96    3.45
  12   3   0    6.57    1.93
  12   3   1  315.13   11.15
 -12  -3  -1  298.93   18.87
 -12  -3  -1  328.34   16.05
 -12  -3  -1  343.85   23.21
 -12  -3  -1  288.24   21.49
 -12  -3  -1  354.16   18.46
  12   3   1  303.95    9.91
  12   3   1  313.12   10.15
  12   3   2    0.87    0.91
 -12  -3  -2   -0.87    2.23
  12   3   2    0.60    0.62
 -12  -3  -2    0.41    0.97
  12   3   2    0.96    0.76
 -12  -3  -2    2.24    3.80
 -12  -3  -2    1.47    2.17
 -12  -3  -2    0.17    1.60
  12   3   2   -0.02    0.76
  12   3   3    0.90    0.61
  12   3   3    1.53    0.70
 -12  -3  -3    0.79    0.79
 -12  -3  -3    0.40    1.67
 -12  -3  -3    0.23    1.91
  12   3   3    0.49    0.57
  12   4  -3    0.71    0.60
  12   4  -3    0.07    0.45
 -12  -4   3    1.26    0.43
 -12  -4   2  131.83    7.85
 -12  -4   2  171.75   11.54
  12   4  -2  146.40    7.58
  12   4  -2  160.11    8.46
 -12  -4   1    7.31    2.52
  12   4  -1    5.28    1.97
 -12  -4   1    7.60    3.62
 -12  -4   0    2.17    1.72
 -12  -4   0    2.67    2.06
  12   4   0    1.58    1.28
 -12  -4   0    0.35    1.44
 -12  -4   0    2.67    2.49
  12   4   0    0.94    1.09
  12   4   1    0.11    0.82
  12   4   1   -0.78    0.75
 -12  -4  -1   -1.12    1.68
 -12  -4  -1   -0.66    1.71
 -12  -4  -1   -1.96    1.55
 -12  -4  -1    3.04    2.39
 -12  -4  -1    1.61    2.90
  12   4   1    0.89    0.94
  12   4   2    3.87    1.33
 -12  -4  -2    4.50    3.00
  12   4   2    3.92    1.19
 -12  -4  -2    4.43    2.94
 -12  -4  -2    1.49    2.66
 -12  -4  -2    3.96    2.89
  12   4   2    4.18    1.19
  12   4   3    4.97    1.11
 -12  -4  -3    3.19    1.58
 -12  -4  -3    0.84    1.01
 -12  -4  -3    4.11    2.74
  12   4   3    5.50    1.06
  12   4   3    5.63    1.04
 -12  -5   2    6.37    2.04
  12   5  -2    4.48    1.39
  12   5  -2    0.70    0.78
 -12  -5   1    3.42    1.93
  12   5  -1    4.30    1.46
 -12  -5   1    3.90    2.05
 -12  -5   0    0.99    1.63
 -12  -5   0    1.76    1.92
  12   5   0    0.92    1.03
 -12  -5   0    0.44    1.48
 -12  -5   0    0.42    2.86
  12   5   0    0.81    1.14
  12   5   1    0.40    0.75
 -12  -5  -1    2.26    2.39
 -12  -5  -1    0.91    1.43
 -12  -5  -1   -0.31    1.38
 -12  -5  -1    0.64    2.67
  12   5   1    1.33    0.98
  12   5   2    9.02    1.62
 -12  -5  -2   10.30    3.17
 -12  -5  -2    6.91    3.17
 -12  -5  -2   10.21    3.71
 -12  -5  -2    7.15    2.43
  12   5   2   10.47    1.71
  12   5   2   10.67    1.54
 -12  -5  -3   38.01    3.89
 -12  -5  -3   33.32    5.06
  12   5   3   48.78    2.55
 -12  -6   2    3.80    1.22
  12   6  -2    4.87    0.97
 -12  -6   1    8.88    1.96
 -12  -6   1    8.06    2.40
 -12  -6   1    6.05    2.15
  12   6  -1    8.91    1.76
 -12  -6   0   22.61    3.75
 -12  -6   0   35.45    4.21
 -12  -6   0   26.69    5.00
 -12  -6   0   35.39    4.87
  12   6   0   33.89    3.40
 -12  -6  -1    9.82    2.86
 -12  -6  -1   11.90    2.41
  12   6   1   13.59    2.11
 -12  -6  -1   12.77    3.74
 -12  -6  -2   26.05    3.93
 -12  -6  -2   29.68    4.48
 -12  -6  -2   19.85    3.89
  12   6   2   36.79    2.78
 -12  -7   0   48.84    3.82
 -12  -7   0   40.95    4.68
 -12  -7   0   44.03    3.72
 -12  -7  -1   12.80    2.24
 -12  -7  -1   11.73    1.73
  12   7   1   16.27    1.78
 -12  -7  -1   11.06    2.50
  13  -7  -2   -0.36    0.59
  13  -7  -2   -0.13    0.71
  13  -7  -2    0.48    0.62
  13  -7  -2    0.46    0.43
  13  -7  -1    1.47    1.15
 -13   7   1    0.85    1.42
  13  -7  -1   -0.77    1.05
  13  -7  -1   -0.54    0.76
  13  -7  -1    1.82    1.00
  13  -7  -1   -0.07    0.64
 -13   7   0   22.67    5.44
  13  -7   0   21.51    2.96
 -13   7   0   26.76    4.13
  13  -7   0   22.63    3.09
  13  -7   0   21.89    2.70
  13  -7   0   22.36    2.25
 -13   7  -1   13.71    3.59
  13  -7   1   13.17    1.83
 -13   6   3   50.93    3.70
 -13   6   3   57.67    3.91
  13  -6  -3   53.78    3.82
  13  -6  -3   56.98    4.12
 -13   6   2   21.37    2.66
  13  -6  -2   25.05    3.03
 -13   6   2   29.35    3.41
  13  -6  -2   26.29    3.65
 -13   6   2   28.18    4.64
 -13   6   2   23.06    2.85
  13  -6  -2   28.71    3.88
  13  -6  -2   30.00    3.90
  13  -6  -2   28.57    3.54
  13  -6  -1    2.05    0.72
 -13   6   1    0.67    0.67
 -13   6   1    4.00    3.17
 -13   6   1    0.89    1.79
  13  -6  -1    2.79    1.74
  13  -6  -1    2.38    1.53
  13  -6  -1    4.28    1.68
  13  -6   0    2.49    1.10
 -13   6   0   -0.12    2.84
 -13   6   0   -0.35    1.91
  13  -6   0    1.53    1.22
  13  -6   0    2.15    1.35
  13  -6   0    2.08    1.17
 -13   6  -1    9.85    4.78
 -13   6  -1   12.74    3.07
  13  -6   1    8.46    1.29
  13  -6   1   11.31    2.11
  13  -6   1   11.24    1.84
 -13   5   3    6.44    1.77
 -13   5   3    3.80    1.34
 -13   5   3    3.01    0.88
 -13   5   3    3.98    1.50
  13  -5  -3    4.35    1.55
  13  -5  -3    4.18    1.61
 -13   5   2    3.05    1.34
  13  -5  -2    4.11    1.59
 -13   5   2    2.50    1.28
  13  -5  -2    3.55    1.57
 -13   5   2    2.67    1.79
  13  -5  -2    2.80    1.34
 -13   5   2    4.53    1.61
  13  -5  -2    5.25    2.02
  13  -5  -2    5.34    2.16
  13  -5  -1    0.51    0.85
 -13   5   1   -0.42    0.86
 -13   5   1   -3.57    2.44
  13  -5  -1    0.48    1.45
 -13   5   1   -0.08    1.84
 -13   5   1   -1.40    0.91
  13  -5  -1    0.13    1.04
  13  -5  -1   -0.37    1.33
  13  -5   0    1.02    0.97
 -13   5   0    1.61    1.82
 -13   5   0   -0.60    2.69
  13  -5   0    2.00    1.40
 -13   5  -1    2.49    2.82
 -13   5  -1    2.30    3.82
 -13   5  -1    3.68    2.26
  13  -5   1    2.07    0.75
  13  -5   1    3.14    1.39
 -13   5  -2   94.99    7.09
 -13   5  -2   78.23   10.25
 -13   5  -2   67.18    9.68
  13  -5   2   69.38    3.55
  13  -5   2   76.35    4.45
 -13   4   4   -0.84    0.72
 -13   4   4    0.58    0.39
 -13   4   3   10.61    2.42
 -13   4   3   11.31    2.14
  13  -4  -3    9.58    2.28
 -13   4   3   10.78    2.33
 -13   4   3   12.07    2.59
  13  -4  -3    9.02    2.13
  13  -4  -3    9.44    2.40
 -13   4   2   -0.59    1.35
  13  -4  -2    1.00    1.25
 -13   4   2    0.27    1.11
 -13   4   2    0.06    2.02
 -13   4   2    0.06    0.94
  13  -4  -2   -0.45    1.27
  13  -4  -2    0.36    0.79
  13  -4  -2    1.72    1.62
  13  -4  -1  358.31   14.08
 -13   4   1  329.83   13.28
 -13   4   1  377.80   20.03
 -13   4   1  331.78   12.65
  13  -4  -1  341.97   15.30
 -13   4   1  303.51   19.97
  13  -4  -1  350.85   14.92
  13  -4  -1  328.45   11.21
  13  -4  -1  340.20   14.08
  13  -4   0    1.42    1.32
 -13   4   0    0.61    1.69
 -13   4   0   -0.69    1.82
 -13   4   0   -0.51    2.24
  13  -4   0    1.46    0.95
  13  -4   0    0.82    1.20
  13  -4   1   12.43    2.31
 -13   4  -1   15.91    4.48
 -13   4  -1    8.46    4.14
  13  -4   1   12.72    2.01
 -13   4  -2    2.61    2.76
 -13   4  -2    1.56    2.97
 -13   4  -2    0.57    1.26
  13  -4   2    0.89    0.70
  13  -4   2    1.77    0.70
 -13   4  -3    1.67    1.63
  13  -4   3    2.10    0.60
  13  -3  -4    3.55    0.99
 -13   3   4    7.09    1.56
 -13   3   4    5.35    1.22
 -13   3   4    5.97    1.22
 -13   3   4    5.05    1.05
 -13   3   3   -0.06    0.94
  13  -3  -3    1.46    0.95
 -13   3   3    0.83    1.20
 -13   3   3   -0.15    0.92
  13  -3  -3   -2.84    1.55
 -13   3   3   -1.05    1.23
 -13   3   3    1.11    0.88
  13  -3  -3    0.14    1.15
 -13   3   2   60.21    6.17
 -13   3   2   51.24    6.58
  13  -3  -2   56.39    5.92
 -13   3   2   64.24    6.48
 -13   3   2   65.44    6.40
 -13   3   2   56.74    8.05
  13  -3  -2   56.78    5.71
  13  -3  -2   58.02    5.31
  13  -3  -2   57.23    6.12
 -13   3   1  107.28   10.58
  13  -3  -1  115.04    8.04
 -13   3   1  116.92    8.26
 -13   3   1  113.02   10.52
 -13   3   1  108.89    7.57
 -13   3   1  107.22   11.95
  13  -3  -1  108.61    8.10
  13  -3  -1  106.55    6.91
  13  -3  -1  108.88    8.02
  13  -3   0    6.34    1.92
 -13   3   0    5.14    2.96
 -13   3   0    7.66    3.16
 -13   3   0    4.81    3.34
  13  -3   0    6.19    1.64
  13  -3   0    4.91    1.94
  13  -3   1    0.30    0.93
 -13   3  -1    2.10    2.83
 -13   3  -1    0.88    2.02
 -13   3  -1    2.37    3.01
  13  -3   1   -0.23    0.76
 -13   3  -2    1.90    3.46
 -13   3  -2    3.79    2.35
  13  -3   2    5.09    1.33
 -13   3  -3   45.16    4.51
 -13   3  -3   34.87    7.63
  13  -3   3   36.55    2.60
  13  -3   3   44.72    2.49
 -13   2   4  138.89    6.75
 -13   2   4  144.88    6.26
  13  -2  -4   76.89    3.95
  13  -2  -4   93.34    5.14
 -13   2   4  121.90    5.38
 -13   2   4  129.60    5.68
 -13   2   3    0.12    0.95
  13  -2  -3    2.02    1.33
 -13   2   3    0.45    1.06
  13  -2  -3    0.42    1.23
 -13   2   3    0.81    0.98
  13  -2  -3    0.17    1.15
 -13   2   2    0.23    1.39
 -13   2   2    0.76    1.03
  13  -2  -2   -0.45    1.60
 -13   2   2   -0.05    1.24
  13  -2  -2   -0.29    0.91
 -13   2   2   -0.82    1.67
 -13   2   2   -0.03    1.40
  13  -2  -2   -0.41    1.04
  13  -2  -2   -0.18    1.19
  13  -2  -1    7.20    2.19
 -13   2   1    8.10    3.01
 -13   2   1    6.03    2.26
 -13   2   1    6.78    3.10
 -13   2   1    6.27    2.10
  13  -2  -1    7.89    2.16
  13  -2  -1    8.65    2.57
  13  -2   0    4.53    1.77
 -13   2   0    2.23    2.36
 -13   2   0    4.92    1.71
 -13   2   0    3.60    1.82
 -13   2   0    0.30    1.83
 -13   2   0    2.28    2.67
  13  -2   0    3.97    1.46
  13  -2   0    3.24    1.76
 -13   2  -1   28.81    5.40
 -13   2  -1   34.01    5.88
 -13   2  -1   32.46    7.46
 -13   2  -1   31.34    6.45
  13  -2   1   39.55    3.77
 -13   2  -2   56.94    6.94
  13  -2   2   64.97    4.39
 -13   2  -3    9.82    2.43
  13  -2   3   12.46    1.59
  13  -1  -4   -1.83    0.82
  13  -1  -4    0.97    0.87
 -13   1   4   -0.50    0.63
 -13   1   4   -0.60    0.58
 -13   1   4    0.69    0.55
 -13   1   3   24.87    4.00
  13  -1  -3   23.33    3.49
 -13   1   3   23.52    3.45
  13  -1  -3   26.43    3.75
 -13   1   3   25.75    3.83
  13  -1  -3   21.43    3.50
 -13   1   2    2.41    1.52
  13  -1  -2    2.57    1.72
 -13   1   2    1.27    1.52
  13  -1  -2    3.77    1.87
 -13   1   2    1.09    1.70
 -13   1   2    0.06    1.11
  13  -1  -2    4.68    2.02
  13  -1  -2    1.28    1.59
 -13   1   1   72.96    8.42
  13  -1  -1   79.70    6.40
 -13   1   1   80.09    6.99
  13  -1  -1   92.04    6.57
 -13   1   1   77.82    9.95
  13  -1  -1   79.46    6.12
  13  -1  -1   81.34    6.71
  13  -1  -1   80.26    5.31
 -13   1   0   14.26    4.60
 -13   1   0   19.54    4.60
  13  -1   0   17.05    2.91
 -13   1   0   20.44    3.27
 -13   1   0   22.23    5.60
 -13   1   0   20.35    5.94
  13  -1   0   22.87    3.10
  13  -1   0   19.44    3.23
  13  -1   0   23.48    2.72
 -13   1  -1  110.06   11.94
 -13   1  -1  118.80   10.22
 -13   1  -1  130.14   10.77
 -13   1  -1  124.85   14.34
 -13   1  -1  121.51   12.14
  13  -1   1  133.54    5.82
  13  -1   1  134.13    6.97
 -13   1  -2   10.68    3.28
 -13   1  -2    5.56    3.79
  13  -1   2   12.74    1.65
  13  -1   2   12.57    2.09
 -13   1  -3    5.17    5.16
 -13   1  -3    3.24    1.54
  13  -1   3    1.81    0.51
  13  -1   3    2.98    1.01
  13   0  -4   10.78    1.75
 -13   0   4   12.45    1.90
 -13   0   3    6.09    1.65
  13   0  -3    2.45    1.15
  13   0  -3   10.01    2.47
 -13   0   3    6.72    1.92
 -13   0   2   49.81    6.09
  13   0  -2   46.22    4.88
 -13   0   2   51.88    5.61
  13   0  -2   54.79    5.57
 -13   0   2   44.04    7.00
  13   0  -2   44.96    4.95
 -13   0   1   31.42    5.44
  13   0  -1   34.03    4.11
  13   0  -1   37.33    4.47
 -13   0   1   39.15    7.01
  13   0  -1   30.25    3.83
  13   0  -1   27.75    3.31
 -13   0   0   62.68    8.78
 -13   0   0   74.56    8.31
  13   0   0   66.28    5.45
 -13   0   0   66.44   10.11
 -13   0   0   69.34    9.05
  13   0   0   72.04    5.44
  13   0   0   67.72    4.73
 -13   0  -1   13.90    4.77
 -13   0  -1   11.15    3.51
 -13   0  -1   11.53    3.27
 -13   0  -1   13.84    4.49
 -13   0  -1    7.60    3.81
  13   0   1   13.19    1.98
  13   0   1   15.86    2.46
 -13   0  -2   37.73    7.15
 -13   0  -2   42.61    5.90
 -13   0  -2   30.57    7.09
  13   0   2   55.19    3.61
  13   0   2   50.55    4.00
  13   0   3    2.38    0.67
  13   0   3    1.61    0.73
  13   1  -4    0.33    0.46
 -13  -1   4    0.08    0.46
 -13  -1   3    8.18    1.82
  13   1  -3   12.51    2.52
 -13  -1   3    9.83    2.19
 -13  -1   2   66.21    6.91
 -13  -1   2   77.23    6.46
  13   1  -2   96.79    7.31
 -13  -1   2   82.75    9.29
  13   1  -2   77.18    6.38
 -13  -1   1   26.17    4.69
  13   1  -1   31.26    4.33
 -13  -1   1   30.38    6.18
  13   1  -1   28.92    3.77
  13   1  -1   27.47    3.43
 -13  -1   0    4.34    2.60
 -13  -1   0    4.72    2.56
 -13  -1   0    2.15    2.60
 -13  -1   0    3.00    2.22
  13   1   0    4.84    1.44
  13   1   0    5.21    1.74
  13   1   1    3.57    1.35
 -13  -1  -1    6.73    3.33
 -13  -1  -1   -0.23    2.13
 -13  -1  -1    0.83    2.02
 -13  -1  -1    3.74    3.20
  13   1   1    2.25    0.95
  13   1   1    1.81    1.07
 -13  -1  -2   38.34    6.95
 -13  -1  -2   40.17    5.38
 -13  -1  -2   42.81    8.27
  13   1   2   51.66    3.57
  13   1   2   46.58    3.79
 -13  -1  -3    1.19    1.15
  13   1   3   -0.40    0.65
  13   1   3   -0.14    0.62
  13   2  -3    8.65    2.00
 -13  -2   3    8.53    1.82
 -13  -2   2    2.55    1.41
  13   2  -2    5.84    2.05
 -13  -2   2    3.96    1.97
  13   2  -2    2.67    1.56
 -13  -2   1    1.87    1.62
 -13  -2   1    2.33    2.11
  13   2  -1   -0.25    1.22
  13   2  -1    1.20    1.43
 -13  -2   0   -0.01    1.41
 -13  -2   0    0.07    2.26
 -13  -2   0    0.80    2.12
  13   2   0    1.26    1.02
  13   2   0    2.97    1.42
 -13  -2  -1  173.65   14.42
 -13  -2  -1  186.88   12.23
 -13  -2  -1  182.14   16.92
 -13  -2  -1  202.86   14.26
  13   2   1  185.68    7.59
  13   2   1  193.31    8.09
  13   2   2    8.93    1.82
 -13  -2  -2    4.87    2.78
 -13  -2  -2    4.66    1.64
 -13  -2  -2    2.28    3.21
 -13  -2  -2   -0.66    2.90
  13   2   2    6.48    1.42
  13   2   2    6.85    1.42
 -13  -2  -3   23.52    4.22
 -13  -2  -3   19.86    2.98
 -13  -2  -3   18.70    4.00
  13   2   3   23.58    2.07
 -13  -3   3    8.98    1.51
  13   3  -3   13.73    2.13
 -13  -3   2   25.46    3.63
  13   3  -2   35.79    4.14
 -13  -3   2   31.96    5.22
 -13  -3   1   25.92    4.59
  13   3  -1   25.01    3.09
 -13  -3   1   31.68    5.73
  13   3  -1   22.69    3.22
 -13  -3   0  165.62   12.98
 -13  -3   0  194.13   12.52
 -13  -3   0  180.70   16.07
 -13  -3   0  176.47   13.56
  13   3   0  158.39    7.68
 -13  -3  -1   27.81    6.03
 -13  -3  -1   25.63    4.53
 -13  -3  -1   18.23    4.41
 -13  -3  -1   29.62    6.89
  13   3   1   27.35    3.00
  13   3   1   30.35    3.13
  13   3   2   16.24    2.32
 -13  -3  -2   12.96    4.11
 -13  -3  -2   13.76    4.81
 -13  -3  -2   13.14    4.57
  13   3   2   15.55    2.08
  13   3   2   13.89    1.87
 -13  -3  -3   -0.19    1.47
 -13  -3  -3    0.51    0.57
  13   3   3    0.56    0.45
 -13  -4   2   15.71    3.37
 -13  -4   2   14.03    1.93
  13   4  -2   17.18    2.26
  13   4  -2   14.85    2.50
 -13  -4   1   22.12    3.85
  13   4  -1   20.05    2.78
 -13  -4   1   25.81    5.09
 -13  -4   0   46.86    6.52
 -13  -4   0   51.27    6.03
  13   4   0   57.87    4.50
 -13  -4   0   54.58    8.18
 -13  -4   0   41.58    6.28
  13   4   0   42.98    3.89
 -13  -4  -1    9.71    3.41
 -13  -4  -1   13.12    3.09
 -13  -4  -1   10.28    2.90
 -13  -4  -1    8.85    3.89
  13   4   1   10.46    1.99
  13   4   1   11.13    1.93
 -13  -4  -2    2.62    2.11
  13   4   2    2.76    0.93
 -13  -4  -2    1.49    2.45
 -13  -4  -2    2.74    2.81
  13   4   2    2.14    0.85
 -13  -4  -3    0.56    0.91
  13   4   3    1.27    0.49
 -13  -5   2   28.52    3.53
  13   5  -2   25.46    2.22
 -13  -5   1   10.64    2.41
  13   5  -1    9.84    1.77
  13   5  -1    3.33    1.46
 -13  -5   1    7.06    2.34
 -13  -5   1    4.91    1.70
 -13  -5   0   10.03    2.71
 -13  -5   0   11.62    2.79
  13   5   0    8.11    1.66
 -13  -5   0    7.86    2.52
 -13  -5   0    4.70    2.27
  13   5   0    8.19    1.65
 -13  -5  -1    4.46    2.22
 -13  -5  -1    6.78    1.98
  13   5   1    5.36    1.30
 -13  -5  -1    4.25    2.87
  13   5   1    5.68    1.30
 -13  -5  -2    2.17    1.55
  13   5   2    2.72    0.80
 -13  -5  -2    2.53    1.75
 -13  -5  -2    0.73    1.73
  13   5   2    3.00    0.78
 -13  -6   1    5.66    1.32
 -13  -6   1    6.59    1.70
  13   6  -1    6.88    1.24
 -13  -6   0   25.31    3.16
 -13  -6   0   20.78    3.79
 -13  -6   0   23.16    3.33
  13   6   0   25.58    2.47
 -13  -6  -1   -0.60    1.24
 -13  -6  -1   -0.66    1.01
  13   6   1    0.29    0.56
 -13  -6  -1    1.77    1.65
  14  -7  -1    1.79    0.79
 -14   7   1   -0.53    0.99
  14  -7  -1    0.90    0.69
  14  -7   0    8.26    1.47
 -14   7   0    9.68    2.10
  14  -7   0    7.78    1.35
  14  -6  -2    7.17    1.47
 -14   6   2    7.15    1.43
  14  -6  -2    6.03    1.40
  14  -6  -2    6.06    1.54
 -14   6   2    4.88    1.13
  14  -6  -2    7.42    1.64
  14  -6  -1   24.81    2.70
 -14   6   1   22.31    5.73
  14  -6  -1   28.15    3.70
 -14   6   1   31.21    4.84
  14  -6  -1   27.15    3.42
  14  -6  -1   27.28    3.43
  14  -6  -1   26.49    3.14
  14  -6   0    3.02    1.04
 -14   6   0    4.17    3.61
 -14   6   0    7.36    2.49
  14  -6   0    2.82    1.30
  14  -6   0    3.89    1.40
  14  -6   0    4.05    1.28
 -14   6  -1    8.94    3.45
 -14   6  -1    8.45    2.12
  14  -6   1    8.20    1.57
  14  -6   1    8.23    1.57
  14  -6   1    7.94    1.35
 -14   5   3    0.09    0.65
 -14   5   3   -0.86    0.73
 -14   5   3    0.55    0.58
  14  -5  -3    0.88    0.84
 -14   5   2    3.01    1.31
 -14   5   2    3.95    1.61
 -14   5   2    1.36    0.85
  14  -5  -2    1.93    0.97
  14  -5  -2    2.90    1.43
 -14   5   2    3.23    1.28
  14  -5  -2    2.96    1.52
  14  -5  -1   22.06    3.20
 -14   5   1   21.64    2.84
 -14   5   1   24.91    4.82
  14  -5  -1   22.04    3.49
  14  -5  -1   20.52    3.34
  14  -5  -1   20.95    3.30
  14  -5   0   33.72    3.58
 -14   5   0   28.77    8.54
 -14   5   0   39.48    6.06
  14  -5   0   33.58    4.26
  14  -5   0   38.28    4.40
  14  -5   0   35.13    3.96
 -14   5  -1    0.45    2.74
 -14   5  -1    0.23    3.10
 -14   5  -1   -0.39    1.08
  14  -5   1   -0.01    0.61
  14  -5   1   -0.07    0.75
 -14   5  -2   67.89    5.05
  14  -5   2   72.91    3.53
 -14   4   3    0.72    0.91
 -14   4   3    0.72    0.74
 -14   4   3    2.02    0.84
  14  -4  -3    1.23    0.98
 -14   4   3    1.23    1.06
  14  -4  -3    0.04    1.19
 -14   4   2    8.71    2.02
  14  -4  -2    9.49    2.38
 -14   4   2   12.77    2.75
 -14   4   2   11.79    2.44
 -14   4   2   10.16    3.43
  14  -4  -2    8.09    2.09
  14  -4  -2   11.80    2.05
  14  -4  -2   11.43    2.75
  14  -4  -1  371.23   13.42
 -14   4   1  357.15   12.84
 -14   4   1  372.59   18.19
 -14   4   1  320.82   11.27
 -14   4   1  319.37   19.45
  14  -4  -1  353.43   13.89
  14  -4  -1  345.94   10.86
  14  -4  -1  356.53   13.73
  14  -4   0   -0.15    0.91
 -14   4   0    0.50    1.90
 -14   4   0    0.98    2.11
  14  -4   0   -1.49    1.24
  14  -4   0    1.11    0.85
  14  -4   0    0.63    1.23
 -14   4  -1    4.91    4.60
 -14   4  -1    4.78    3.65
 -14   4  -1   12.83    3.52
  14  -4   1    8.81    1.87
  14  -4   1    9.35    1.60
  14  -4   1   10.99    2.22
 -14   4  -2    2.73    3.87
 -14   4  -2    2.72    2.47
 -14   4  -2    0.10    0.94
  14  -4   2    0.12    0.52
  14  -4   2    0.71    0.48
  14  -4   2   -0.26    0.64
 -14   3   3   28.47    3.62
 -14   3   3   25.92    3.04
  14  -3  -3   27.23    3.43
 -14   3   3   27.92    3.48
  14  -3  -3   23.11    2.56
 -14   3   3   29.59    3.63
  14  -3  -3   26.36    3.48
 -14   3   2   -0.06    1.03
  14  -3  -2    0.03    1.11
 -14   3   2   -0.30    1.25
 -14   3   2   -0.50    2.25
 -14   3   2    1.84    1.38
  14  -3  -2    0.50    0.97
  14  -3  -2   -0.18    1.36
 -14   3   1  145.30   11.73
  14  -3  -1  150.69    8.92
 -14   3   1  165.18    9.45
 -14   3   1  150.35   11.23
 -14   3   1  144.20    8.23
 -14   3   1  146.41   13.60
  14  -3  -1  151.32    9.00
  14  -3  -1  148.11    7.83
  14  -3  -1  153.55    9.17
 -14   3   0    8.38    3.53
  14  -3   0   14.36    2.86
 -14   3   0   18.46    4.65
 -14   3   0    7.87    4.11
  14  -3   0   16.14    2.48
  14  -3   0   13.85    2.89
  14  -3   1    4.73    1.52
 -14   3  -1    4.79    2.42
 -14   3  -1    4.06    1.81
 -14   3  -1    5.91    3.07
  14  -3   1    5.24    1.34
  14  -3   1    5.22    1.73
 -14   3  -2   22.19    7.85
 -14   3  -2   22.34    6.27
 -14   3  -2   33.15    4.89
  14  -3   2   30.70    2.98
  14  -3   2   32.31    2.71
 -14   2   3    2.02    1.12
  14  -2  -3    3.10    1.06
 -14   2   3    2.71    1.49
  14  -2  -3    0.18    1.03
 -14   2   3    2.83    1.38
  14  -2  -3    1.46    1.06
 -14   2   2   21.40    3.53
 -14   2   2   24.32    4.31
  14  -2  -2   28.37    3.94
 -14   2   2   29.67    4.33
  14  -2  -2   32.77    3.67
 -14   2   2   27.17    4.14
 -14   2   2   20.09    4.50
  14  -2  -2   30.57    3.88
  14  -2  -2   25.42    3.91
 -14   2   1   -1.48    2.12
  14  -2  -1    0.29    0.92
 -14   2   1    0.35    1.08
 -14   2   1   -0.32    1.88
 -14   2   1    1.14    1.19
  14  -2  -1    0.57    0.95
  14  -2  -1    0.98    1.25
 -14   2   0  239.42   14.99
  14  -2   0  240.80   10.79
 -14   2   0  254.38   10.68
 -14   2   0  264.13   15.01
 -14   2   0  208.64   17.32
 -14   2   0  234.72   17.10
  14  -2   0  264.41   10.19
  14  -2   0  244.10   10.96
 -14   2  -1   25.23    4.49
  14  -2   1   30.73    3.67
 -14   2  -1   34.64    5.70
 -14   2  -1   23.38    6.52
 -14   2  -1   21.28    5.42
  14  -2   1   32.01    3.40
  14  -2   1   28.61    3.57
 -14   2  -2   20.66    6.45
 -14   2  -2   30.48    4.65
  14  -2   2   30.83    2.92
 -14   2  -3   12.39    4.47
 -14   2  -3    9.09    1.93
  14  -2   3    9.67    1.31
  14  -2   3   12.51    1.33
  14  -1  -4    6.21    1.14
 -14   1   4   19.60    1.82
 -14   1   3    2.05    1.00
  14  -1  -3    4.04    1.46
 -14   1   3    3.72    1.63
 -14   1   3    4.09    1.55
  14  -1  -3    2.73    1.17
 -14   1   2   20.37    3.72
 -14   1   2   22.48    4.24
  14  -1  -2   20.51    3.28
 -14   1   2   24.52    3.98
  14  -1  -2   19.05    3.03
 -14   1   2   25.58    4.06
 -14   1   2   14.23    3.95
  14  -1  -2   22.76    3.50
  14  -1  -2   15.19    2.82
 -14   1   1   11.74    3.62
  14  -1  -1    9.77    2.22
 -14   1   1   11.90    2.96
 -14   1   1    8.94    3.79
 -14   1   1    9.54    2.54
  14  -1  -1   10.51    2.35
  14  -1  -1   10.33    2.37
 -14   1   0   26.72    5.19
  14  -1   0   34.99    4.08
 -14   1   0   31.24    3.96
 -14   1   0   27.73    5.92
 -14   1   0   32.20    7.06
  14  -1   0   35.21    3.89
  14  -1   0   30.39    3.78
  14  -1   0   34.42    3.20
  14  -1   1    1.23    0.91
 -14   1  -1    0.68    1.42
 -14   1  -1    1.50    1.25
 -14   1  -1    0.89    2.57
 -14   1  -1    1.22    2.18
  14  -1   1    2.51    0.88
  14  -1   1    1.94    1.06
  14  -1   1   -0.55    0.87
 -14   1  -2    3.14    1.78
 -14   1  -2    5.00    3.29
  14  -1   2    2.54    0.66
  14  -1   2    4.83    1.36
 -14   1  -3    4.12    3.30
 -14   1  -3    1.34    0.80
  14  -1   3    0.99    0.56
  14  -1   3    2.54    0.74
 -14   0   3    3.11    1.24
  14   0  -3    1.86    1.30
 -14   0   3    1.70    1.06
 -14   0   3    1.83    1.15
 -14   0   2  109.36    8.56
  14   0  -2  137.72    7.75
 -14   0   2  140.55    8.80
  14   0  -2  150.71    8.52
 -14   0   2  112.71   10.53
  14   0  -2  137.71    8.15
 -14   0   1    7.31    2.72
  14   0  -1    6.20    1.81
 -14   0   1    7.79    2.36
  14   0  -1    8.84    2.18
 -14   0   1    6.35    3.34
  14   0  -1    4.77    1.43
  14   0  -1    6.39    1.93
  14   0   0   10.19    2.16
 -14   0   0    9.28    3.52
 -14   0   0   13.20    3.90
 -14   0   0    9.10    3.62
 -14   0   0   11.26    4.33
  14   0   0   10.87    2.24
  14   0   0   11.23    2.01
 -14   0  -1   24.21    5.71
 -14   0  -1   21.68    4.44
  14   0   1   21.21    2.93
 -14   0  -1   25.49    4.32
 -14   0  -1   28.34    6.90
 -14   0  -1   24.79    5.63
  14   0   1   27.00    2.81
  14   0   1   28.59    3.30
 -14   0  -2    7.32    2.25
 -14   0  -2   10.70    4.55
  14   0   2    9.57    1.46
  14   0   2   10.26    1.85
 -14   0  -3    4.24    1.39
  14   0   3    3.59    0.86
  14   0   3    3.94    0.66
  14   0   3    5.48    1.00
 -14  -1   3   -0.02    0.63
  14   1  -3   -0.24    0.84
 -14  -1   3    1.88    1.14
 -14  -1   2   28.55    4.25
 -14  -1   2   37.30    4.30
  14   1  -2   46.72    4.85
 -14  -1   2   33.78    5.68
  14   1  -2   38.67    4.32
 -14  -1   1    0.18    1.43
  14   1  -1    3.75    1.74
 -14  -1   1    1.32    2.29
  14   1  -1    2.04    1.23
  14   1  -1    0.41    1.23
 -14  -1   0   -0.12    2.07
 -14  -1   0    1.31    1.87
 -14  -1   0    0.02    2.10
 -14  -1   0    1.11    1.57
  14   1   0    1.85    1.14
  14   1   0    1.52    1.27
 -14  -1  -1    1.14    1.75
 -14  -1  -1    0.05    1.45
 -14  -1  -1    0.91    2.39
 -14  -1  -1   -1.31    2.28
  14   1   1    1.57    0.91
  14   1   1    0.64    0.75
  14   1   2    0.25    0.54
 -14  -1  -2    1.54    2.10
 -14  -1  -2    0.67    0.99
  14   1   2    1.74    0.80
  14   1   2    0.72    0.60
 -14  -1  -3   34.22    3.58
 -14  -1  -3   40.99    7.07
  14   1   3   44.27    2.45
  14   1   3   41.36    2.43
  14   2  -3   -0.01    0.76
 -14  -2   3   -0.21    0.52
 -14  -2   2   14.27    2.78
 -14  -2   2   16.89    2.67
  14   2  -2   21.41    3.21
 -14  -2   2   16.59    3.88
 -14  -2   1   30.81    5.01
  14   2  -1   28.96    3.89
 -14  -2   1   25.55    5.40
  14   2  -1   24.21    3.27
  14   2  -1   25.24    3.24
 -14  -2   0   17.67    4.41
 -14  -2   0   20.06    4.20
 -14  -2   0   18.67    4.91
 -14  -2   0   20.32    5.29
  14   2   0   17.67    2.75
  14   2   0   20.43    2.77
 -14  -2  -1    2.30    2.14
 -14  -2  -1    0.72    1.38
 -14  -2  -1    1.98    1.69
 -14  -2  -1   -1.30    2.85
  14   2   1   -0.16    0.85
  14   2   1    0.94    0.71
 -14  -2  -2    0.20    1.82
 -14  -2  -2   -0.37    1.75
  14   2   2    2.04    0.89
  14   2   2    1.75    0.73
  14   2   3   97.69    3.58
  14   3  -3    0.09    0.48
 -14  -3   2    0.97    1.32
 -14  -3   2   -0.97    0.73
  14   3  -2    0.11    0.88
 -14  -3   1    0.73    1.46
  14   3  -1   -0.20    1.20
 -14  -3   1   -1.25    2.25
 -14  -3   0  401.53   17.01
 -14  -3   0  337.72   20.46
 -14  -3   0  385.44   18.71
  14   3   0  372.16   11.29
 -14  -3  -1    0.35    2.13
 -14  -3  -1    1.08    1.33
 -14  -3  -1    1.69    1.52
 -14  -3  -1   -1.00    3.03
  14   3   1    2.35    1.16
 -14  -3  -2    9.57    3.12
 -14  -3  -2    8.02    3.37
  14   3   2   12.77    1.75
  14   3   3    0.08    0.34
 -14  -4   2   23.46    3.39
 -14  -4   2   19.92    1.90
  14   4  -2   23.59    2.60
 -14  -4   1   60.33    5.65
 -14  -4   1   68.64    7.12
 -14  -4   0   20.95    3.93
 -14  -4   0   24.65    4.07
  14   4   0   25.03    2.58
 -14  -4   0   24.08    5.01
 -14  -4   0   23.58    4.30
  14   4   0   22.32    2.64
 -14  -4  -1    6.07    2.53
 -14  -4  -1    9.08    2.37
  14   4   1    9.36    1.53
 -14  -4  -1    6.00    1.98
 -14  -4  -1    4.78    2.65
  14   4   1   10.11    1.65
 -14  -4  -2   29.86    4.51
 -14  -4  -2   26.38    4.65
  14   4   2   39.10    2.66
 -14  -5   1    4.94    1.49
 -14  -5   1    3.05    1.69
  14   5  -1    3.15    0.84
  14   5  -1    0.67    0.82
 -14  -5   0    7.28    1.77
 -14  -5   0   10.15    2.20
  14   5   0    7.33    1.28
 -14  -5   0    7.31    2.19
 -14  -5   0    9.35    2.94
 -14  -5  -1   28.52    4.12
 -14  -5  -1   35.20    3.67
  14   5   1   32.53    2.41
 -14  -5  -1   24.68    4.38
  14   5   1   36.40    2.61
 -14  -5  -2    6.56    1.78
 -14  -5  -2    4.07    1.50
 -14  -6   0    0.34    0.50
  15  -6  -1   27.44    2.85
 -15   6   1   31.59    3.84
  15  -6  -1   26.17    2.23
  15  -6  -1   27.45    2.82
  15  -6  -1   29.90    2.77
 -15   6   0    2.09    1.54
 -15   6   0    2.98    1.35
  15  -6   0    0.92    0.63
  15  -6   0    0.56    0.40
 -15   5   2    0.11    0.61
  15  -5  -2   -0.23    0.63
  15  -5  -2    1.20    0.71
 -15   5   2    1.32    0.75
  15  -5  -2   -0.42    0.91
  15  -5  -1   47.90    4.47
 -15   5   1   55.29    5.77
  15  -5  -1   52.23    4.24
  15  -5  -1   55.94    4.69
  15  -5  -1   56.58    4.75
 -15   5   0    2.30    2.87
 -15   5   0    7.76    2.34
  15  -5   0    5.95    1.40
  15  -5   0    6.40    1.59
  15  -5   0    5.03    1.45
 -15   5  -1   44.80    4.74
 -15   5  -1   36.34    6.82
  15  -5   1   35.45    2.61
  15  -5   1   38.70    3.30
  15  -5   1   40.45    3.11
 -15   4   3   15.93    1.89
 -15   4   3   18.28    2.15
 -15   4   3   22.31    2.38
  15  -4  -3   21.88    2.40
  15  -4  -2   17.53    2.72
 -15   4   2   18.04    2.77
 -15   4   2   17.16    2.57
  15  -4  -2   17.22    2.86
  15  -4  -1  118.96    7.04
 -15   4   1  117.16    6.50
 -15   4   1  114.08    8.68
 -15   4   1  115.23   10.80
  15  -4  -1  122.80    7.17
  15  -4  -1  114.34    5.64
  15  -4  -1  127.48    7.63
  15  -4   0   21.13    2.96
 -15   4   0   20.42    4.14
 -15   4   0   18.53    4.58
  15  -4   0   23.70    3.26
  15  -4   0   21.89    2.41
  15  -4   0   22.71    3.16
 -15   4  -1   74.42    7.10
 -15   4  -1   62.08   10.43
 -15   4  -1   48.54    8.65
  15  -4   1   70.42    4.52
  15  -4   1   67.54    3.59
  15  -4   1   73.40    4.90
 -15   4  -2    0.02    0.63
  15  -4   2    0.88    0.48
  15  -4   2    1.10    0.55
 -15   3   3   27.00    2.96
 -15   3   3   24.75    2.29
 -15   3   3   29.55    2.99
 -15   3   3   30.62    3.11
  15  -3  -3   28.55    2.96
 -15   3   2   67.23    5.09
  15  -3  -2   83.20    5.99
 -15   3   2   91.03    6.47
 -15   3   2   84.46    5.98
 -15   3   2   64.92    7.27
  15  -3  -2   77.65    5.18
  15  -3  -2   85.06    6.20
 -15   3   1   31.08    5.20
  15  -3  -1   33.12    4.00
 -15   3   1   27.82    3.56
 -15   3   1   26.16    3.20
 -15   3   1   22.82    5.14
  15  -3  -1   26.50    3.31
  15  -3  -1   28.57    3.26
  15  -3  -1   32.56    4.07
  15  -3   0   -0.13    0.92
 -15   3   0   -1.01    2.33
 -15   3   0   -2.34    1.67
 -15   3   0    0.29    2.36
  15  -3   0    0.12    0.79
  15  -3   0   -0.78    1.08
  15  -3   0    1.27    1.16
  15  -3   1  133.89    6.77
 -15   3  -1  138.33   10.08
 -15   3  -1  140.81   11.25
  15  -3   1  136.99    5.99
  15  -3   1  131.58    6.86
 -15   3  -2   14.99    5.31
 -15   3  -2    7.10    2.94
 -15   3  -2   19.35    3.12
  15  -3   2   17.89    2.00
  15  -3   2   18.10    1.73
  15  -3   2   15.64    1.93
 -15   2   3    0.23    0.57
  15  -2  -3    0.72    0.58
 -15   2   3    0.53    0.82
 -15   2   3    0.50    0.50
 -15   2   3    1.58    0.96
  15  -2  -3    0.43    0.63
 -15   2   2    0.58    0.74
 -15   2   2   -0.51    0.95
  15  -2  -2    0.56    0.88
 -15   2   2    1.78    1.28
 -15   2   2    1.96    1.73
 -15   2   2    0.60    1.15
  15  -2  -2    0.69    0.81
  15  -2  -2    0.53    0.99
 -15   2   1    8.70    2.94
  15  -2  -1    9.62    2.28
 -15   2   1    8.66    2.18
 -15   2   1   10.05    3.79
 -15   2   1    8.59    2.01
  15  -2  -1    7.25    1.93
  15  -2  -1    8.91    2.25
  15  -2   0    1.46    0.79
 -15   2   0    1.14    1.97
 -15   2   0    4.65    1.50
 -15   2   0    3.88    1.53
 -15   2   0    1.07    2.16
  15  -2   0    3.53    1.47
  15  -2   0    4.85    1.69
 -15   2  -1   69.38    7.07
  15  -2   1   74.81    5.27
 -15   2  -1   73.21    7.30
 -15   2  -1   77.80    8.73
  15  -2   1   76.00    4.86
  15  -2   1   71.10    5.06
 -15   2  -2    1.01    1.09
  15  -2   2    1.58    0.78
  15  -2   2    1.29    0.69
  15  -2   2    1.28    0.67
 -15   1   3    3.30    1.10
  15  -1  -3    2.26    0.97
 -15   1   3    2.30    0.97
 -15   1   3    3.34    1.23
 -15   1   2    3.49    1.37
 -15   1   2    0.48    0.94
  15  -1  -2    4.84    1.64
 -15   1   2    3.47    1.55
  15  -1  -2    1.69    0.77
 -15   1   2    1.68    1.85
 -15   1   2    3.58    1.59
  15  -1  -2    3.65    1.47
  15  -1  -2    4.28    1.47
 -15   1   1    2.30    1.64
  15  -1  -1    0.69    0.89
 -15   1   1    3.41    1.65
 -15   1   1    3.20    2.55
 -15   1   1    2.33    1.25
  15  -1  -1    3.41    1.50
  15  -1  -1    5.99    1.74
  15  -1   0    0.10    0.68
 -15   1   0    1.23    2.03
 -15   1   0    0.35    0.73
 -15   1   0    1.04    1.41
  15  -1   0    0.78    0.75
  15  -1   0    0.55    1.11
  15  -1   0    0.81    0.87
 -15   1  -1   38.46    5.39
  15  -1   1   34.68    3.50
 -15   1  -1   35.64    4.93
 -15   1  -1   31.72    6.52
 -15   1  -1   37.56    6.11
  15  -1   1   39.40    3.65
  15  -1   1   36.05    3.52
  15  -1   1   38.52    2.88
 -15   1  -2    1.60    1.25
  15  -1   2    0.16    0.52
  15  -1   2    0.64    0.54
 -15   0   3    3.65    0.99
  15   0  -3    3.88    1.17
 -15   0   3    4.95    1.41
 -15   0   3    4.63    1.34
 -15   0   2   11.50    2.39
 -15   0   2    6.63    2.04
 -15   0   2   11.60    2.37
  15   0  -2   11.43    2.26
 -15   0   2   10.78    3.41
 -15   0   2   12.30    2.53
  15   0  -2   12.58    2.40
 -15   0   1    9.55    2.96
  15   0  -1   17.17    2.64
 -15   0   1   14.54    2.96
  15   0  -1   11.83    2.33
 -15   0   1   11.66    3.89
  15   0  -1   12.79    2.55
  15   0   0    1.98    1.03
 -15   0   0    1.11    2.43
 -15   0   0    0.74    1.04
 -15   0   0    0.69    2.13
 -15   0   0    0.19    1.58
  15   0   0    2.40    1.03
  15   0   0    1.61    1.14
  15   0   1   -0.18    0.80
 -15   0  -1   -0.37    1.60
 -15   0  -1    0.30    1.31
 -15   0  -1   -4.17    3.09
 -15   0  -1   -0.75    1.82
  15   0   1   -0.21    0.68
  15   0   1   -0.17    1.06
  15   0   2    1.49    0.73
 -15   0  -2    1.66    0.91
 -15   0  -2    2.37    2.06
  15   0   2    2.44    0.84
  15   0   2    0.66    0.68
 -15  -1   3   13.01    1.98
  15   1  -3   12.72    1.87
 -15  -1   3   13.45    1.85
 -15  -1   2    0.87    1.10
 -15  -1   2    3.62    1.43
  15   1  -2    2.26    1.04
 -15  -1   2    1.76    1.44
  15   1  -2    3.30    1.30
 -15  -1   1    6.19    2.39
  15   1  -1    7.66    2.14
 -15  -1   1    6.97    3.23
  15   1  -1    7.96    1.91
 -15  -1   0   20.44    4.50
 -15  -1   0   21.52    4.27
  15   1   0    9.45    2.14
 -15  -1   0   13.19    3.86
 -15  -1   0   22.59    5.60
  15   1   0   27.20    3.28
  15   1   0   26.13    2.92
 -15  -1  -1   -1.11    1.39
 -15  -1  -1   -0.22    1.29
 -15  -1  -1    1.08    2.43
 -15  -1  -1   -2.81    1.92
  15   1   1    0.42    0.73
  15   1   1    0.84    0.76
 -15  -1  -2    2.22    2.16
  15   1   2    2.55    0.79
  15   1   2    4.45    1.06
 -15  -2   3    0.91    0.57
  15   2  -3    0.28    0.42
 -15  -2   2    7.65    1.62
  15   2  -2    7.94    1.74
 -15  -2   2    9.41    2.94
 -15  -2   1    0.47    1.19
  15   2  -1    0.30    0.94
 -15  -2   1    0.89    2.01
  15   2  -1    2.07    1.21
 -15  -2   0   66.83    7.36
 -15  -2   0   82.65    7.70
 -15  -2   0   63.79    8.62
 -15  -2   0   86.49    8.93
  15   2   0   88.07    5.33
  15   2   0   81.56    5.05
 -15  -2  -1   42.66    6.47
 -15  -2  -1   45.04    5.30
 -15  -2  -1   39.56    7.11
 -15  -2  -1   46.29    5.79
  15   2   1   56.36    3.84
  15   2   1   50.34    3.66
 -15  -2  -2    5.68    2.13
 -15  -2  -2    3.51    1.83
  15   2   2    7.28    1.23
 -15  -3   2    6.07    1.86
 -15  -3   2    6.87    1.25
  15   3  -2    6.90    1.46
 -15  -3   1   18.29    3.24
  15   3  -1   15.34    2.40
 -15  -3   1   18.18    3.88
 -15  -3   0  286.38   13.13
 -15  -3   0  294.87   15.02
  15   3   0  285.64    9.05
 -15  -3  -1    7.87    2.55
 -15  -3  -1    9.49    2.43
 -15  -3  -1   11.45    2.63
 -15  -3  -1    6.77    2.78
  15   3   1    8.75    1.56
 -15  -3  -2    1.25    1.07
 -15  -3  -2   -0.35    1.54
  15   3   2    1.58    0.65
 -15  -4   1   66.99    5.02
 -15  -4   1   77.10    6.52
 -15  -4   0    3.25    1.38
 -15  -4   0    6.32    2.08
 -15  -4   0    4.36    1.93
 -15  -4  -1   10.63    2.51
 -15  -4  -1   17.20    2.60
 -15  -4  -1   13.67    3.54
  15   4   1   16.01    1.82
 -15  -4  -2   48.70    4.29
 -15  -4  -2   48.06    4.80
  15   4   2   60.15    2.61
 -15  -5   0    0.21    0.64
  15   5   0   -0.02    0.52
 -15  -5   0    0.59    0.75
 -15  -5  -1    9.96    2.39
  16  -5  -2    3.47    0.93
  16  -5  -1   16.88    1.99
  16  -5  -1   15.54    1.91
  16  -5  -1   18.87    2.27
 -16   5   0    7.06    3.17
 -16   5   0    9.11    2.01
  16  -5   0    9.54    1.41
  16  -5   0    8.91    1.51
  16  -5   0   11.17    1.70
  16  -4  -2  109.88    5.38
 -16   4   2  103.11    5.17
  16  -4  -2  109.33    5.53
  16  -4  -1    2.97    1.17
 -16   4   1    1.22    0.65
 -16   4   1    1.47    1.77
  16  -4  -1   -1.52    0.70
  16  -4  -1    2.23    0.65
  16  -4  -1    2.42    1.06
 -16   4   0   97.62    7.18
  16  -4   0   99.36    5.37
  16  -4   0   89.34    5.07
  16  -4   0   92.51    4.10
  16  -4   0   99.58    5.57
 -16   4  -1    3.91    2.34
 -16   4  -1    9.85    2.09
  16  -4   1   10.26    1.50
  16  -4   1    8.87    1.38
  16  -4   1   10.34    1.51
  16  -3  -2  225.50    8.35
 -16   3   2  233.67    8.77
 -16   3   2  221.61    8.01
  16  -3  -2  228.63    8.40
  16  -3  -1    6.55    1.69
 -16   3   1    7.56    1.66
 -16   3   1    6.56    2.63
  16  -3  -1    7.73    1.63
  16  -3  -1    7.99    1.84
  16  -3   0    6.85    1.64
 -16   3   0    7.22    2.04
 -16   3   0    8.97    3.18
  16  -3   0    7.25    1.49
  16  -3   0    7.50    1.73
 -16   3  -1    4.33    3.70
 -16   3  -1    2.91    1.72
  16  -3   1    1.22    0.81
  16  -3   1    2.64    0.92
  16  -3   1    2.78    0.91
  16  -3   1    2.63    1.00
 -16   2   3   -0.10    0.35
 -16   2   3    0.34    0.37
 -16   2   2    1.14    0.59
  16  -2  -2    8.67    1.76
 -16   2   2    8.88    1.91
 -16   2   2    4.42    1.88
 -16   2   2    7.06    1.71
  16  -2  -2    7.38    1.60
  16  -2  -2    7.98    1.70
 -16   2   1   11.38    3.06
  16  -2  -1    8.29    1.88
 -16   2   1    9.31    2.03
 -16   2   1    9.15    3.16
 -16   2   1    8.59    1.65
  16  -2  -1    9.31    1.90
  16  -2  -1   11.61    2.15
  16  -2   0   -0.19    0.76
 -16   2   0    1.24    1.99
 -16   2   0    1.08    2.28
  16  -2   0   -0.43    0.72
  16  -2   0   -1.38    0.95
 -16   2  -1   15.53    2.99
  16  -2   1   16.35    2.24
 -16   2  -1   15.29    2.92
 -16   2  -1   15.43    3.57
  16  -2   1   16.21    2.07
  16  -2   1   14.53    1.97
 -16   2  -2    0.57    0.73
  16  -2   2    1.09    0.59
  16  -2   2    0.75    0.53
 -16   1   3    4.28    1.01
 -16   1   3    4.17    1.01
 -16   1   2    0.76    0.54
  16  -1  -2    0.74    0.64
 -16   1   2    1.37    0.93
  16  -1  -2    4.08    0.98
 -16   1   2   -0.06    1.23
 -16   1   2    1.41    1.00
  16  -1  -2    1.08    0.66
 -16   1   1    1.79    1.62
  16  -1  -1    5.40    1.55
 -16   1   1    3.48    1.41
 -16   1   1    2.92    2.08
 -16   1   1    2.70    1.09
  16  -1  -1    2.57    1.17
 -16   1   0   26.85    4.45
  16  -1   0   28.08    3.10
 -16   1   0   30.83    3.25
 -16   1   0   19.25    4.52
 -16   1   0   24.07    4.95
  16  -1   0   30.19    3.25
  16  -1   1    0.15    0.55
 -16   1  -1    0.37    1.17
 -16   1  -1   -0.23    1.87
  16  -1   1    0.70    0.82
 -16   1  -2   11.10    2.06
  16  -1   2   10.44    1.39
  16  -1   2   13.76    1.55
 -16   0   3   24.65    2.10
 -16   0   2    3.46    1.21
 -16   0   2    3.14    1.14
  16   0  -2    1.45    0.84
 -16   0   2   -0.28    1.32
 -16   0   2    3.74    1.31
  16   0  -2    2.65    1.07
 -16   0   1    2.11    1.57
 -16   0   1    2.76    1.26
 -16   0   1    5.26    2.65
 -16   0   1    4.13    1.35
  16   0  -1    2.54    1.07
 -16   0   0   17.19    3.69
  16   0   0   14.00    2.04
 -16   0   0   15.72    2.43
 -16   0   0   14.97    4.18
 -16   0   0   14.91    4.01
  16   0   0   15.70    2.32
  16   0   0   12.77    1.86
 -16   0  -1   12.75    2.81
  16   0   1   12.92    1.84
 -16   0  -1    9.65    3.64
 -16   0  -1   14.23    3.30
  16   0   1   15.70    2.09
  16   0   1   13.60    1.71
  16   0   2    0.93    0.44
  16   0   2    0.32    0.39
 -16  -1   2    6.87    1.51
 -16  -1   2    8.65    1.65
  16   1  -2    9.71    1.73
 -16  -1   2    8.70    1.76
 -16  -1   2    6.59    2.00
 -16  -1   1   12.20    2.79
 -16  -1   1   12.91    2.31
  16   1  -1    6.93    1.64
 -16  -1   1    8.90    2.81
  16   1  -1   12.01    2.05
 -16  -1   0    8.57    2.49
 -16  -1   0    7.71    1.84
 -16  -1   0    7.91    2.93
 -16  -1   0    4.98    2.45
  16   1   0    7.74    1.50
  16   1   0    8.30    1.69
 -16  -1  -1    4.22    1.63
 -16  -1  -1    3.48    2.11
 -16  -1  -1    5.52    1.94
  16   1   1    4.46    1.10
  16   1   1    6.12    1.35
 -16  -1  -2   -0.77    1.44
  16   1   2    0.03    0.35
  16   1   2    0.56    0.40
 -16  -2   2    5.55    1.12
 -16  -2   2    4.87    1.07
  16   2  -2    6.48    1.28
 -16  -2   2    4.75    1.46
 -16  -2   2    6.25    1.28
 -16  -2   1   24.50    3.57
 -16  -2   1   26.75    3.00
  16   2  -1   14.54    2.27
 -16  -2   1   23.34    4.21
  16   2  -1   28.59    2.69
 -16  -2   0   77.81    6.63
 -16  -2   0   73.89    7.27
  16   2   0   87.77    4.56
  16   2   0   83.82    4.59
 -16  -2  -1    2.60    1.78
 -16  -2  -1    2.25    1.20
 -16  -2  -1    2.53    2.23
 -16  -2  -1    2.24    1.10
  16   2   1    2.41    0.84
  16   2   1   -0.30    0.34
 -16  -2  -2    2.09    1.21
  16   2   2    0.84    0.41
 -16  -3   1   76.60    5.27
 -16  -3   1   81.33    4.48
 -16  -3   1   78.47    6.47
 -16  -3   0   15.35    2.77
 -16  -3   0   13.59    3.17
 -16  -3   0   16.38    3.14
  16   3   0   14.61    1.87
 -16  -3  -1   18.05    3.13
 -16  -3  -1   21.69    2.81
 -16  -3  -1   23.63    4.10
  16   3   1   24.79    2.16
 -16  -4   1   36.70    3.50
 -16  -4   0    6.53    1.55
 -16  -4   0    6.33    1.56
  17  -4  -1   20.62    2.06
  17  -4  -1   21.75    2.11
  17  -4   0   13.56    1.63
  17  -4   0   12.26    1.53
 -17   3   2   64.31    3.53
  17  -3  -2   63.97    3.38
  17  -3  -1   -0.13    0.61
 -17   3   1   -0.73    1.38
  17  -3  -1   -0.25    0.59
  17  -3  -1    0.23    0.51
  17  -3   0    1.42    0.70
 -17   3   0    1.68    1.37
  17  -3   0    0.91    0.50
  17  -3   0    0.93    0.59
 -17   3  -1   -2.85    1.86
  17  -3   1    0.98    0.55
 -17   2   2    0.91    0.60
  17  -2  -2    0.88    0.49
 -17   2   2    1.82    0.68
 -17   2   1   28.61    3.82
  17  -2  -1   33.03    2.93
 -17   2   1   30.27    2.88
 -17   2   1   27.67    4.37
  17  -2  -1   29.41    2.80
 -17   2   0    0.02    1.28
  17  -2   0    0.31    0.67
 -17   2   0    0.48    1.45
  17  -2   0   -0.33    0.74
  17  -2   1    6.32    1.11
  17  -2   1    6.54    1.12
 -17   1   2    1.24    0.73
 -17   1   2   -0.33    0.53
 -17   1   1   -0.68    1.36
  17  -1  -1   -0.04    0.44
 -17   1   1    1.66    0.89
 -17   1   1   -0.01    1.29
 -17   1   1    1.56    0.58
  17  -1  -1    1.13    0.83
 -17   1   0   49.55    5.25
  17  -1   0   50.49    3.46
 -17   1   0   49.93    5.99
  17  -1   0   52.42    3.73
 -17   1  -1    2.89    1.33
  17  -1   1    1.44    0.60
 -17   1  -1    1.94    1.06
  17  -1   1    2.21    0.77
 -17   0   2    3.65    0.96
 -17   0   2    4.38    1.00
 -17   0   1    9.87    2.37
 -17   0   1   12.56    2.01
 -17   0   1    9.45    1.50
 -17   0   1    9.76    2.54
  17   0  -1   10.47    1.76
 -17   0   0    3.25    1.62
 -17   0   0    3.72    0.97
 -17   0   0    2.80    1.91
  17   0   0    3.56    1.07
 -17   0  -1   12.72    2.35
 -17   0  -1    7.09    1.77
  17   0   1   13.71    1.65
 -17  -1   2   32.62    2.37
 -17  -1   2   36.88    2.55
 -17  -1   1    1.27    0.94
 -17  -1   1    1.26    0.65
 -17  -1   1    3.61    1.94
 -17  -1   1    1.59    0.71
  17   1  -1    3.31    0.97
 -17  -1   0    3.93    1.66
 -17  -1   0    5.04    1.16
 -17  -1   0    0.69    1.24
 -17  -1   0    4.28    1.85
  17   1   0    3.71    0.99
 -17  -1  -1    2.60    1.15
 -17  -1  -1    3.30    1.45
  17   1   1    2.52    0.71
  17   1   1    1.34    0.51
 -17  -2   1    9.81    1.83
 -17  -2   1    9.23    1.30
 -17  -2   1    9.38    2.23
 -17  -2   1   12.31    1.67
 -17  -2   0    1.71    1.02
 -17  -2   0    2.00    0.73
 -17  -2   0    1.59    1.13
 -17  -2  -1   11.23    2.39
  17   2   1   10.19    1.17
 -17  -3   0    9.91    1.70
  18  -2  -1    3.01    0.71
 -18   2   0    5.80    1.62
  18  -2   0    7.70    1.06
 -18   1   1   11.77    2.38
  18  -1  -1   15.38    1.63
 -18   1   0   27.53    3.06
 -18   1   0   30.53    3.66
  18  -1   0   34.72    2.38
 -18   0   1   41.66    4.06
  18   0  -1   46.39    2.63
 -18   0   0    1.53    0.88
 -18   0   0    1.53    1.11
  18   0   0    2.56    0.69
 -18  -1   0   -0.28    0.57
   0   0   0    0.00    0.00


TITL 2019_11_03_JD_AntOC6_100K_02 in P-1
REM P-1 (#2 in standard setting)
CELL 1.54184  14.514507   8.229709   4.605923  82.1222  93.7357  94.1101
ZERR    1.00   0.000593   0.000315   0.000185   0.0033   0.0036   0.0033
LATT  1
SFAC C H O
UNIT 26.00 32.00 4.00
TREF
HKLF 4
END
_computing_structure_solution     'SHELXT 2018/2 (Sheldrick, 2018)'
;
_shelx_hkl_checksum              65687
_olex2_date_sample_data_collection 2019-11-03
_olex2_submission_special_instructions 'No special instructions were received'
_oxdiff_exptl_absorpt_empirical_details
;
Empirical correction (ABSPACK) includes:
- Absorption correction using spherical harmonics
- Frame scaling
;
_oxdiff_exptl_absorpt_empirical_full_max 5.215
_oxdiff_exptl_absorpt_empirical_full_min 0.364
loop_
_space_group_symop_operation_xyz
'x, y, z'
'-x, -y, -z'
loop_
_atom_site_label
_atom_site_type_symbol
_atom_site_fract_x
_atom_site_fract_y
_atom_site_fract_z
_atom_site_U_iso_or_equiv
_atom_site_adp_type
_atom_site_occupancy
_atom_site_site_symmetry_order
_atom_site_calc_flag
_atom_site_refinement_flags_posn
_atom_site_refinement_flags_adp
_atom_site_refinement_flags_occupancy
_atom_site_disorder_assembly
_atom_site_disorder_group
O2 O 0.21452(7) 0.30941(14) 0.6800(3) 0.0252(3) Uani 1 1 d . . . . .
C11 C 0.41963(10) 0.6924(2) 0.8701(4) 0.0253(4) Uani 1 1 d . . . . .
H11A H 0.396784 0.783994 0.949847 0.030 Uiso 1 1 calc R . . . .
H11B H 0.438528 0.612249 1.033724 0.030 Uiso 1 1 calc R . . . .
C10 C 0.34142(10) 0.6142(2) 0.6874(4) 0.0242(4) Uani 1 1 d . . . . .
H10A H 0.363029 0.517901 0.619479 0.029 Uiso 1 1 calc R . . . .
H10B H 0.325720 0.691625 0.515913 0.029 Uiso 1 1 calc R . . . .
C7 C 0.07870(10) -0.0363(2) 0.2001(4) 0.0206(4) Uani 1 1 d . . . . .
C4 C 0.16601(10) 0.2034(2) 0.5187(4) 0.0227(4) Uani 1 1 d . . . . .
C2 C 0.04691(10) 0.1216(2) 0.1698(4) 0.0204(4) Uani 1 1 d . . . . .
C3 C 0.08944(10) 0.2422(2) 0.3292(4) 0.0222(4) Uani 1 1 d . . . . .
H3 H 0.067052 0.346460 0.309104 0.027 Uiso 1 1 calc R . . . .
C8 C 0.18083(10) 0.4703(2) 0.6841(4) 0.0233(4) Uani 1 1 d . . . . .
H8A H 0.122453 0.460960 0.778130 0.028 Uiso 1 1 calc R . . . .
H8B H 0.171741 0.526201 0.485841 0.028 Uiso 1 1 calc R . . . .
C6 C 0.15541(10) -0.0726(2) 0.3938(4) 0.0234(4) Uani 1 1 d . . . . .
H6 H 0.177353 -0.177311 0.416615 0.028 Uiso 1 1 calc R . . . .
C9 C 0.25430(10) 0.5637(2) 0.8564(4) 0.0241(4) Uani 1 1 d . . . . .
H9A H 0.271067 0.495456 1.038347 0.029 Uiso 1 1 calc R . . . .
H9B H 0.228801 0.661439 0.906033 0.029 Uiso 1 1 calc R . . . .
C5 C 0.19852(11) 0.0451(2) 0.5502(4) 0.0236(4) Uani 1 1 d . . . . .
H5 H 0.249412 0.019576 0.677370 0.028 Uiso 1 1 calc R . . . .
C12 C 0.50357(11) 0.7535(2) 0.6939(4) 0.0304(4) Uani 1 1 d . . . . .
H12A H 0.485308 0.837991 0.536682 0.036 Uiso 1 1 calc R . . . .
H12B H 0.524190 0.663230 0.605007 0.036 Uiso 1 1 calc R . . . .
C13 C 0.58406(12) 0.8233(3) 0.8785(5) 0.0359(5) Uani 1 1 d . . . . .
H13A H 0.633949 0.862691 0.755088 0.054 Uiso 1 1 calc GR . . . .
H13B H 0.604771 0.738808 1.028244 0.054 Uiso 1 1 calc GR . . . .
H13C H 0.564143 0.912453 0.968255 0.054 Uiso 1 1 calc GR . . . .
O1 O -0.06001(7) 0.30618(14) -0.0746(3) 0.0262(3) Uani 1 1 d . . . . .
C1 C -0.03343(10) 0.1664(2) -0.0387(4) 0.0215(4) Uani 1 1 d . . . . .
loop_
_atom_site_aniso_label
_atom_site_aniso_U_11
_atom_site_aniso_U_22
_atom_site_aniso_U_33
_atom_site_aniso_U_23
_atom_site_aniso_U_13
_atom_site_aniso_U_12
O2 0.0279(6) 0.0178(7) 0.0307(7) -0.0085(5) -0.0019(5) 0.0002(5)
C11 0.0268(8) 0.0216(9) 0.0287(10) -0.0082(8) 0.0032(7) -0.0004(6)
C10 0.0261(8) 0.0203(9) 0.0275(9) -0.0073(7) 0.0036(7) 0.0000(6)
C7 0.0220(7) 0.0178(9) 0.0227(9) -0.0044(7) 0.0060(6) -0.0007(6)
C4 0.0247(7) 0.0189(9) 0.0255(9) -0.0069(7) 0.0063(6) -0.0044(6)
C2 0.0216(7) 0.0190(9) 0.0215(9) -0.0042(7) 0.0059(6) -0.0007(6)
C3 0.0247(8) 0.0174(9) 0.0259(9) -0.0055(7) 0.0073(6) -0.0001(6)
C8 0.0254(8) 0.0175(9) 0.0281(10) -0.0066(7) 0.0026(6) -0.0004(6)
C6 0.0258(8) 0.0171(9) 0.0283(9) -0.0042(7) 0.0045(6) 0.0027(6)
C9 0.0259(8) 0.0223(9) 0.0259(9) -0.0094(7) 0.0032(6) -0.0004(6)
C5 0.0229(7) 0.0220(10) 0.0259(9) -0.0031(7) 0.0015(6) 0.0019(6)
C12 0.0285(8) 0.0288(10) 0.0340(11) -0.0049(8) 0.0053(7) -0.0019(7)
C13 0.0272(8) 0.0347(11) 0.0453(12) -0.0054(9) 0.0046(8) -0.0046(7)
O1 0.0287(6) 0.0176(7) 0.0332(7) -0.0074(5) -0.0014(5) 0.0038(5)
C1 0.0234(7) 0.0169(9) 0.0253(9) -0.0052(7) 0.0070(6) -0.0003(6)
loop_
_atom_type_symbol
_atom_type_description
_atom_type_scat_dispersion_real
_atom_type_scat_dispersion_imag
_atom_type_scat_source
C C 0.0181 0.0091 'International Tables Vol C Tables 4.2.6.8 and 6.1.1.4'
H H 0.0000 0.0000 'International Tables Vol C Tables 4.2.6.8 and 6.1.1.4'
O O 0.0492 0.0322 'International Tables Vol C Tables 4.2.6.8 and 6.1.1.4'
loop_
_exptl_crystal_face_index_h
_exptl_crystal_face_index_k
_exptl_crystal_face_index_l
_exptl_crystal_face_perp_dist
9 0 0 0.0214
0 0 -3 0.2006
-9 0 0 0.0214
-1 -5 0 0.0766
0 4 -2 0.1169
0 -2 3 0.1435
1 5 0 0.0221
loop_
_geom_angle_atom_site_label_1
_geom_angle_atom_site_label_2
_geom_angle_atom_site_label_3
_geom_angle
_geom_angle_site_symmetry_1
_geom_angle_site_symmetry_3
_geom_angle_publ_flag
C4 O2 C8 118.98(12) . . ?
C12 C11 C10 112.92(14) . . ?
C11 C10 C9 113.28(13) . . ?
C2 C7 C6 118.63(14) . . ?
C2 C7 C1 122.18(15) . 2 ?
C6 C7 C1 119.19(15) . 2 ?
O2 C4 C3 124.80(15) . . ?
O2 C4 C5 115.10(14) . . ?
C3 C4 C5 120.09(14) . . ?
C7 C2 C3 121.37(16) . . ?
C7 C2 C1 120.33(14) . . ?
C3 C2 C1 118.29(15) . . ?
C4 C3 C2 118.92(16) . . ?
O2 C8 C9 106.07(12) . . ?
C5 C6 C7 120.69(16) . . ?
C8 C9 C10 112.86(13) . . ?
C6 C5 C4 120.30(16) . . ?
C11 C12 C13 113.28(15) . . ?
C7 C1 C2 117.45(14) 2 . ?
O1 C1 C7 121.61(15) . 2 ?
O1 C1 C2 120.94(14) . . ?
loop_
_geom_bond_atom_site_label_1
_geom_bond_atom_site_label_2
_geom_bond_distance
_geom_bond_site_symmetry_2
_geom_bond_publ_flag
O2 C4 1.3527(18) . ?
O2 C8 1.4466(18) . ?
C11 C10 1.526(2) . ?
C11 C12 1.525(2) . ?
C10 C9 1.530(2) . ?
C7 C2 1.396(2) . ?
C7 C6 1.403(2) . ?
C7 C1 1.478(2) 2 ?
C4 C3 1.395(2) . ?
C4 C5 1.403(2) . ?
C2 C3 1.399(2) . ?
C2 C1 1.496(2) . ?
C8 C9 1.516(2) . ?
C6 C5 1.377(2) . ?
C12 C13 1.525(2) . ?
O1 C1 1.2255(19) . ?
loop_
_exptl_oxdiff_crystal_face_indexfrac_h
_exptl_oxdiff_crystal_face_indexfrac_k
_exptl_oxdiff_crystal_face_indexfrac_l
_exptl_oxdiff_crystal_face_x
_exptl_oxdiff_crystal_face_y
_exptl_oxdiff_crystal_face_z
9.3857 -0.4744 -0.4534 -0.9974 0.0251 0.0678
-0.3347 -0.3878 -2.9696 -0.0184 -0.6795 0.7335
-9.3857 0.4744 0.4534 0.9974 -0.0251 -0.0678
-0.5150 -5.2253 0.1108 -0.0158 -0.6697 -0.7425
0.1930 3.7296 -1.8322 0.0011 0.1072 0.9942
0.0223 -2.2602 2.5092 0.0074 0.2309 -0.9730
0.5180 5.2320 -0.0871 0.0159 0.6755 0.7371
