#------------------------------------------------------------------------------
#$Date: 2021-05-01 00:29:21 +0300 (Sat, 01 May 2021) $
#$Revision: 264734 $
#$URL: file:///home/coder/svn-repositories/cod/cif/4/51/86/4518651.cif $
#------------------------------------------------------------------------------
#
# This file is available in the Crystallography Open Database (COD),
# http://www.crystallography.net/
#
# All data on this site have been placed in the public domain by the
# contributors.
#
data_4518651
loop_
_publ_author_name
'Yang, Feng'
'Xu, Yuangang'
'Wang, Pengcheng'
'Lin, Qiuhan'
'Lu, Ming'
_publ_section_title
;
 Oxygen-Enriched Metal--Organic Frameworks Based on
 1-(Trinitromethyl)-1H-1,2,4-Triazole-3-Carboxylic Acid and Their Thermal
 Decomposition and Effects on the Decomposition of Ammonium Perchlorate
;
_journal_name_full               'ACS Applied Materials &amp; Interfaces'
_journal_paper_doi               10.1021/acsami.1c03110
_journal_year                    2021
_chemical_formula_moiety         'C4 H2 K N5 O6'
_chemical_formula_sum            'C4 H2 K N5 O6'
_chemical_formula_weight         255.21
_space_group_crystal_system      monoclinic
_space_group_IT_number           7
_space_group_name_Hall           'P -2yac'
_space_group_name_H-M_alt        'P 1 n 1'
_atom_sites_solution_hydrogens   mixed
_audit_creation_method           SHELXL-2018/3
_cell_angle_alpha                90
_cell_angle_beta                 99.428(3)
_cell_angle_gamma                90
_cell_formula_units_Z            2
_cell_length_a                   8.1507(7)
_cell_length_b                   5.0435(3)
_cell_length_c                   10.4445(8)
_cell_measurement_reflns_used    4580
_cell_measurement_temperature    296(2)
_cell_measurement_theta_max      28.24
_cell_measurement_theta_min      2.96
_cell_volume                     423.55(5)
_computing_cell_refinement       'Bruker SAINT'
_computing_data_collection       'Bruker APEX3'
_computing_data_reduction        'Bruker SAINT'
_computing_molecular_graphics    'Bruker SHELXTL'
_computing_publication_material  'Bruker SHELXTL'
_computing_structure_refinement  'SHELXL-2018/3 (Sheldrick, 2018)'
_computing_structure_solution    'SHELXT 2014/5 (Sheldrick, 2014)'
_diffrn_ambient_temperature      296(2)
_diffrn_detector_area_resol_mean 10.42
_diffrn_measured_fraction_theta_full 0.997
_diffrn_measured_fraction_theta_max 0.996
_diffrn_measurement_device_type  'Bruker D8 QUEST PHOTON 100'
_diffrn_measurement_method       '\f and \w scans'
_diffrn_radiation_type           MoK\a
_diffrn_radiation_wavelength     0.71073
_diffrn_reflns_av_R_equivalents  0.0271
_diffrn_reflns_av_unetI/netI     0.0300
_diffrn_reflns_Laue_measured_fraction_full 0.997
_diffrn_reflns_Laue_measured_fraction_max 0.996
_diffrn_reflns_limit_h_max       10
_diffrn_reflns_limit_h_min       -10
_diffrn_reflns_limit_k_max       6
_diffrn_reflns_limit_k_min       -6
_diffrn_reflns_limit_l_max       13
_diffrn_reflns_limit_l_min       -13
_diffrn_reflns_number            6204
_diffrn_reflns_point_group_measured_fraction_full 0.978
_diffrn_reflns_point_group_measured_fraction_max 0.973
_diffrn_reflns_theta_full        25.242
_diffrn_reflns_theta_max         28.239
_diffrn_reflns_theta_min         2.947
_diffrn_source.source            'Ius 2.0'
_diffrn_source.type              microfocus
_exptl_absorpt_coefficient_mu    0.656
_exptl_absorpt_correction_T_max  0.7457
_exptl_absorpt_correction_T_min  0.6728
_exptl_absorpt_correction_type   multi-scan
_exptl_absorpt_process_details   sadabs
_exptl_crystal_colour            colourless
_exptl_crystal_density_diffrn    2.001
_exptl_crystal_description       block
_exptl_crystal_F_000             256
_exptl_crystal_size_max          0.220
_exptl_crystal_size_mid          0.200
_exptl_crystal_size_min          0.100
_refine_diff_density_max         0.204
_refine_diff_density_min         -0.293
_refine_diff_density_rms         0.069
_refine_ls_abs_structure_details
;
 Flack x determined using 879 quotients [(I+)-(I-)]/[(I+)+(I-)]
 (Parsons, Flack and Wagner, Acta Cryst. B69 (2013) 249-259).
;
_refine_ls_abs_structure_Flack   0.015(16)
_refine_ls_extinction_method     none
_refine_ls_goodness_of_fit_ref   1.117
_refine_ls_hydrogen_treatment    constr
_refine_ls_matrix_type           full
_refine_ls_number_parameters     145
_refine_ls_number_reflns         2039
_refine_ls_number_restraints     2
_refine_ls_restrained_S_all      1.116
_refine_ls_R_factor_all          0.0284
_refine_ls_R_factor_gt           0.0260
_refine_ls_shift/su_max          0.000
_refine_ls_shift/su_mean         0.000
_refine_ls_structure_factor_coef Fsqd
_refine_ls_weighting_details
'w=1/[\s^2^(Fo^2^)+(0.0338P)^2^] where P=(Fo^2^+2Fc^2^)/3'
_refine_ls_weighting_scheme      calc
_refine_ls_wR_factor_gt          0.0603
_refine_ls_wR_factor_ref         0.0612
_reflns_Friedel_coverage         0.947
_reflns_Friedel_fraction_full    0.959
_reflns_Friedel_fraction_max     0.949
_reflns_number_gt                1947
_reflns_number_total             2039
_reflns_threshold_expression     'I > 2\s(I)'
_cod_data_source_file            am1c03110_si_002.cif
_cod_data_source_block           YF033_a
_cod_original_sg_symbol_H-M      'P n'
_cod_database_code               4518651
_shelx_shelxl_version_number     2018/3
_shelx_space_group_comment
;
The symmetry employed for this shelxl refinement is uniquely defined
by the following loop, which should always be used as a source of
symmetry information in preference to the above space-group names.
They are only intended as comments.
;
_shelx_estimated_absorpt_t_min   0.869
_shelx_estimated_absorpt_t_max   0.937
_shelx_res_file
;
TITL YF033_a.res in Pn
    YF033_a.res
    created by SHELXL-2018/3 at 16:48:20 on 10-Oct-2020
CELL 0.71073 8.1507 5.0435 10.4445 90.000 99.428 90.000
ZERR 2.00 0.0007 0.0003 0.0008 0.000 0.003 0.000
LATT -1
SYMM x+1/2, -y, z+1/2
SFAC C  H  N  O  K
UNIT 8  4  10  12  2
L.S. 10
ACTA
BOND $H
FMAP 2
PLAN -5
size 0.22 0.20 0.10
CONF
HTAB O1 O6_$12
HTAB O1 O5_$12
HTAB O1 N4_$12
EQIV $12 x-1/2, -y, z+1/2
HTAB C1 O4_$11
EQIV $11 x+1/2, -y+2, z+1/2
TEMP 23.000
WGHT    0.033800
FVAR       1.75640
C1    1    0.629542    0.701128    0.665877    11.00000    0.03044    0.02538 =
         0.02507   -0.00240    0.00750   -0.00867
AFIX  43
H1    2    0.704380    0.835753    0.655872    11.00000   -1.20000
AFIX   0
C2    1    0.484873    0.417459    0.741083    11.00000    0.02439    0.02110 =
         0.01999   -0.00035    0.00533   -0.00028
C3    1    0.415036    0.248044    0.835477    11.00000    0.02319    0.02355 =
         0.02131    0.00236    0.00518    0.00259
C4    1    0.526807    0.600192    0.433453    11.00000    0.02733    0.02128 =
         0.01924    0.00144    0.00862    0.00183
K1    5    0.593451    0.771954    0.048083    11.00000    0.03437    0.03534 =
         0.02113    0.00399    0.00282    0.00236
N1    3    0.533848    0.571882    0.567032    11.00000    0.02672    0.02168 =
         0.01854   -0.00155    0.00998   -0.00458
N2    3    0.439110    0.387925    0.615688    11.00000    0.02785    0.02340 =
         0.02036   -0.00093    0.00799   -0.00610
N3    3    0.601351    0.608756    0.778071    11.00000    0.03297    0.02790 =
         0.02326   -0.00213    0.00389   -0.00939
N4    3    0.603731    0.413369    0.369898    11.00000    0.02989    0.02044 =
         0.02165    0.00087    0.00968    0.00117
N5    3    0.409663    0.780379    0.368343    11.00000    0.02785    0.02320 =
         0.02994    0.00019    0.00677    0.00124
O1    4    0.310623    0.071691    0.776730    11.00000    0.04239    0.03093 =
         0.02557    0.00657    0.00488   -0.01395
AFIX   3
H2    2    0.269052   -0.034393    0.831184    11.00000   -1.50000
AFIX   0
O2    4    0.452352    0.271468    0.951636    11.00000    0.04237    0.03882 =
         0.01947    0.00385    0.00549   -0.00533
O3    4    0.319019    0.890288    0.434879    11.00000    0.04324    0.04772 =
         0.04357   -0.00803    0.01181    0.02147
O4    4    0.403647    0.825642    0.251853    11.00000    0.04669    0.04936 =
         0.03147    0.01734    0.01093    0.01804
O5    4    0.691412    0.240688    0.440378    11.00000    0.04344    0.02935 =
         0.02569    0.00319    0.00871    0.01496
O6    4    0.592832    0.406305    0.250519    11.00000    0.06517    0.03430 =
         0.01817    0.00177    0.01553    0.01114
HKLF 4 1 1 0 0 0 1 0 0 0 1




REM  YF033_a.res in Pn
REM wR2 = 0.0612, GooF = S = 1.117, Restrained GooF = 1.116 for all data
REM R1 = 0.0260 for 1947 Fo > 4sig(Fo) and 0.0284 for all 2039 data
REM 145 parameters refined using 2 restraints

END

WGHT      0.0341      0.0000

REM Highest difference peak  0.204,  deepest hole -0.293,  1-sigma level  0.069
Q1    1   0.7876  0.8664  0.5963  11.00000  0.05    0.20
Q2    1   0.7978  1.1233  0.0840  11.00000  0.05    0.20
Q3    1   0.7497  0.7713  0.5360  11.00000  0.05    0.20
Q4    1   0.7551  1.1996  0.1685  11.00000  0.05    0.20
Q5    1   0.7418  0.8089  0.4595  11.00000  0.05    0.19
;
_shelx_res_checksum              18187
_shelx_hkl_file
;
  -1   0   0    0.30    0.40
  -1   0   0    0.10    0.20
   1   0   0    1.40    0.40
   1   0   0    0.90    0.50
   1   0   0   -0.20    0.20
  -1   0   0    0.10    0.20
   2   0   0 7988.20  267.87
  -3   0   0    0.10    0.70
   3   0   0    0.40    0.60
  -3   0   0    1.00    1.30
   3   0   0    1.60    1.10
   3   0   0   -0.50    1.50
  -4   0   0 3263.57  115.79
   4   0   0 3333.97  114.09
  -4   0   0 3538.75  116.59
   4   0   0 3420.46  115.89
   4   0   0 3429.26  116.79
   4   0   0 3394.16  114.39
   5   0   0    1.50    1.30
   5   0   0   -2.40    1.90
   5   0   0    3.40    2.50
  -5   0   0    2.90    2.70
   5   0   0    1.60    1.00
  -5   0   0    0.20    1.50
   6   0   0 2058.59   68.59
   6   0   0 2034.70   72.99
   6   0   0 2163.38   68.39
   6   0   0 1916.01   71.29
  -6   0   0 1892.51   71.99
  -6   0   0 2046.80   71.59
  -7   0   0    0.80    2.70
   7   0   0   -2.40    3.90
   8   0   0  222.98   15.30
  -8   0   0  215.88   15.00
  -9   0   0   -3.00    4.60
   9   0   0   -1.00    6.20
  10   0   0  421.96   25.90
 -10   0   0  379.26   22.00
   0  -1   0 2871.21   93.99
   0   1   0 2698.93   93.99
   1  -1   0 1497.45   49.99
   1  -1   0 1461.55   49.99
  -1  -1   0 1460.45   49.40
   1  -1   0 1505.85   50.09
  -1  -1   0 1420.76   49.70
  -1  -1   0 1432.16   49.90
   1   1   0 1477.15   49.90
  -1   1   0 1521.95   50.29
   1   1   0 1467.75   49.90
  -1   1   0 1510.25   49.90
  -1   1   0 1392.26   49.90
   1   1   0 1436.96   49.40
  -3  -1   0 4010.60  134.99
  -3  -1   0 4145.08  136.39
   3  -1   0 4111.59  135.99
   3  -1   0 3950.90  135.19
   3  -1   0 3998.20  136.59
  -3  -1   0 3954.30  135.49
   3   1   0 3753.12  135.29
  -3   1   0 4146.89  135.49
   3   1   0 4154.18  134.59
  -3   1   0 3778.52  135.89
   3   1   0 3997.40  136.09
  -3   1   0 4100.39  136.09
   4  -1   0   42.40    3.30
   4  -1   0   40.40    3.90
  -4  -1   0   39.40    4.60
  -4  -1   0   40.70    3.50
   4  -1   0   40.70    4.60
  -4  -1   0   40.60    3.10
  -4   1   0   43.30    3.90
   4   1   0   43.50    4.30
   4   1   0   40.80    2.50
   4   1   0   44.70    3.60
  -4   1   0   42.80    4.20
  -4   1   0   43.60    3.80
   5  -1   0 2379.46   86.29
   5  -1   0 2414.36   85.09
  -5  -1   0 2473.05   84.59
  -5  -1   0 2479.35   85.79
  -5   1   0 2590.44   85.59
   5   1   0 2463.85   82.99
   5   1   0 2296.47   82.29
  -5   1   0 2256.37   84.99
   5   1   0 2460.35   85.69
   5   1   0 2597.24   84.79
  -6  -1   0   68.49    8.10
  -6  -1   0   85.59    6.50
   6  -1   0   91.09    5.30
   6  -1   0  101.09    8.90
   6   1   0   98.09    8.00
  -6   1   0   88.39    6.30
   6   1   0  104.09    7.00
   6   1   0   89.59    4.10
   6   1   0   86.89    4.50
  -6   1   0   99.89    7.20
  -7  -1   0   24.50    4.30
   7  -1   0   20.90    2.90
   7  -1   0   25.30    6.10
  -7   1   0   12.00    3.60
   7   1   0   21.20    4.90
  -7   1   0   18.60    3.70
  -8  -1   0   75.89    8.40
   8  -1   0   92.49   11.50
   8   1   0   91.79   10.50
  -8   1   0   75.89    8.80
   9  -1   0  138.29   15.10
  -9  -1   0  149.69   12.00
   9   1   0  157.38   14.50
  -9   1   0  111.79   11.80
  10  -1   0   -9.80    8.70
 -10  -1   0    2.10    6.20
  10   1   0   14.40    8.90
 -10   1   0    5.50    6.50
   0  -2   0 4645.04  153.18
   0  -2   0 4300.97  152.28
   0   2   0 4582.64  152.18
   0   2   0 4403.66  153.38
   0   2   0 4608.54  152.08
   0   2   0 4639.44  152.38
   1  -2   0 1751.32   61.29
  -1  -2   0 1749.43   60.69
   1  -2   0 1853.51   61.89
   1  -2   0 1860.51   61.19
  -1  -2   0 1858.21   61.69
  -1   2   0 1725.03   61.99
   1   2   0 1771.92   60.29
  -1   2   0 1843.82   60.89
   1   2   0 1737.13   60.29
   1   2   0 1812.52   61.19
  -1   2   0 1786.02   61.09
   1   2   0 1637.54   61.59
   2  -2   0  352.26   14.20
  -2  -2   0  405.46   14.40
  -2  -2   0  390.66   14.70
   2  -2   0  363.66   14.80
   2  -2   0  338.27   14.50
  -2  -2   0  372.46   13.10
  -2  -2   0  367.66   13.80
   2   2   0  338.57   14.20
   2   2   0  358.46   13.30
  -2   2   0  362.66   14.30
  -2   2   0  337.97   14.80
  -2   2   0  372.16   14.10
  -3  -2   0  640.04   22.50
   3  -2   0  607.44   22.90
   3  -2   0  606.74   23.70
  -3  -2   0  599.94   22.40
  -3  -2   0  607.44   21.70
  -3  -2   0  579.74   23.20
   3  -2   0  604.34   22.80
   3   2   0  631.24   21.80
   3   2   0  592.94   22.30
  -3   2   0  607.04   22.70
  -3   2   0  586.24   23.00
  -3   2   0  569.94   23.10
   4  -2   0 1944.51   64.59
   4  -2   0 1901.71   65.19
  -4  -2   0 1861.01   63.69
  -4  -2   0 1801.22   64.09
   4  -2   0 1850.81   66.09
  -4  -2   0 1685.73   65.29
  -4  -2   0 1780.02   64.49
  -4   2   0 1856.11   64.89
  -4   2   0 1900.11   65.19
   4   2   0 1912.31   63.89
   4   2   0 1854.51   63.69
  -4   2   0 1808.62   65.19
   5  -2   0  653.93   26.40
   5  -2   0  714.83   25.40
  -5  -2   0  623.54   26.70
  -5  -2   0  634.84   25.00
  -5  -2   0  652.73   25.00
   5  -2   0  678.83   27.80
   5   2   0  685.13   24.40
   5   2   0  657.33   26.10
   5   2   0  694.23   25.20
  -5   2   0  654.83   25.90
  -5   2   0  641.74   26.40
  -5   2   0  687.23   27.80
  -6  -2   0  956.80   33.70
  -6  -2   0  876.51   35.70
  -6  -2   0  857.61   34.80
   6  -2   0  952.40   37.10
   6  -2   0  904.31   33.20
  -6   2   0  943.71   35.50
  -6   2   0  909.01   34.30
   6   2   0  917.01   34.90
   6   2   0  887.81   33.60
   6   2   0  784.02   32.80
  -7  -2   0  351.86   16.10
   7  -2   0  362.06   15.20
   7   2   0  346.67   17.30
  -7   2   0  341.07   16.60
   7   2   0  352.66   13.70
   7   2   0  335.77   14.50
   8  -2   0   37.20    8.30
  -8  -2   0   52.69    7.20
   8   2   0   47.20    7.90
  -8   2   0   53.69   10.60
  -8   2   0   37.90    6.30
   9  -2   0   68.29   11.60
  -9  -2   0   59.79    7.80
   9   2   0   61.59    9.00
  -9   2   0   59.79    9.30
  10  -2   0   88.29   14.90
 -10  -2   0   96.69   12.30
 -10   2   0   77.79   11.50
  10   2   0  100.99   12.30
   0  -3   0  102.09    6.60
   0  -3   0   99.69    5.50
   0   3   0  105.39    5.60
   0   3   0  100.89    5.20
   0   3   0   92.89    6.70
   0   3   0  105.19    5.10
   1  -3   0  538.45   20.30
   1  -3   0  513.05   20.80
   1  -3   0  538.55   21.40
  -1  -3   0  540.25   20.10
  -1  -3   0  576.44   21.60
   1   3   0  536.95   20.70
  -1   3   0  567.54   20.40
   1   3   0  532.85   21.70
   1   3   0  540.65   19.40
  -1   3   0  558.54   20.30
   1   3   0  523.45   19.50
   2  -3   0   48.00    4.70
   2  -3   0   46.80    5.00
  -2  -3   0   46.60    3.50
  -2  -3   0   48.40    4.70
  -2   3   0   47.20    5.30
   2   3   0   46.80    3.00
   2   3   0   48.70    3.00
   2   3   0   44.70    5.00
   2   3   0   46.60    4.60
  -2   3   0   47.50    4.10
  -2   3   0   41.00    3.70
  -3  -3   0 1065.69   35.50
  -3  -3   0 1015.50   36.40
   3  -3   0 1032.70   37.40
   3  -3   0 1074.69   38.70
   3  -3   0 1004.80   37.60
  -3  -3   0  989.30   37.40
  -3  -3   0  945.61   37.70
   3   3   0 1022.60   35.60
  -3   3   0  936.71   36.60
   3   3   0 1087.99   37.70
  -3   3   0  998.60   38.40
  -3   3   0 1033.80   37.60
  -4  -3   0   68.29    5.10
  -4  -3   0   58.59    6.80
   4  -3   0   67.69    6.40
  -4  -3   0   61.59    4.20
  -4  -3   0   65.79    6.00
   4  -3   0   68.59    7.10
   4  -3   0   65.39    6.30
   4   3   0   75.79    5.90
  -4   3   0   70.59    6.90
  -4   3   0   54.89    5.80
   4   3   0   66.09    4.60
  -5  -3   0  992.40   41.10
  -5  -3   0 1075.89   39.20
  -5  -3   0 1026.50   39.50
  -5  -3   0 1080.29   38.10
   5  -3   0 1121.59   42.40
   5  -3   0 1041.20   39.70
  -5   3   0 1039.30   40.80
  -5   3   0 1038.10   40.50
   5   3   0 1105.49   38.30
   5   3   0 1120.79   39.30
  -6  -3   0   75.39    7.00
  -6  -3   0   73.99    8.10
  -6  -3   0   74.59    5.90
   6   3   0   63.89    6.30
  -6   3   0   68.99    7.60
  -6   3   0   72.29    8.50
   6   3   0   59.39    6.30
  -7  -3   0  550.54   22.00
  -7  -3   0  546.45   23.20
   7  -3   0  518.95   26.90
  -7   3   0  516.35   24.30
  -7   3   0  547.65   24.70
   7   3   0  505.35   22.40
   7   3   0  539.65   21.30
   8  -3   0   -0.80    8.00
  -8  -3   0    8.00    4.10
  -8   3   0    4.70    6.70
  -8   3   0   15.50    6.10
  -9  -3   0  209.78   13.80
   9  -3   0  208.78   21.00
  -9  -3   0  206.98   15.40
  -9   3   0  180.88   16.10
   0  -4   0   24.10    3.50
   0   4   0   23.10    3.30
   0   4   0   18.10    3.90
   0   4   0   17.50    3.10
   0   4   0   24.40    3.30
   1  -4   0  301.57   13.70
  -1  -4   0  314.87   12.70
  -1   4   0  303.97   12.60
   1   4   0  291.47   13.50
  -1   4   0  298.07   15.30
  -1   4   0  292.47   12.50
   1   4   0  248.58   12.50
   1   4   0  291.47   14.90
   2  -4   0   48.80    5.80
   2  -4   0   42.60    4.90
  -2  -4   0   36.80    3.90
  -2   4   0   42.30    4.70
   2   4   0   50.49    6.50
   2   4   0   34.50    4.90
  -2   4   0   33.90    5.60
   2   4   0   41.50    3.40
   2   4   0   35.40    3.20
  -3  -4   0    8.30    4.80
  -3  -4   0   11.90    2.40
   3  -4   0    5.80    3.20
   3  -4   0    8.70    3.60
   3   4   0    8.70    1.90
   3   4   0   12.70    2.10
  -3   4   0   14.70    3.40
   3   4   0    2.20    3.40
  -3   4   0   12.70    4.50
   4  -4   0  272.97   15.50
  -4  -4   0  251.17   11.90
  -4   4   0  262.77   13.80
  -4   4   0  258.77   15.40
   4   4   0  299.67   14.60
   5  -4   0  119.79   13.00
  -5  -4   0  103.29    7.20
  -5  -4   0  100.59    6.10
   5   4   0  106.99    9.10
  -5   4   0  113.09    9.10
   5   4   0  102.09    6.40
  -5   4   0   90.69   10.70
  -6  -4   0  129.19    8.80
  -6  -4   0  127.59    7.40
   6  -4   0  121.69   12.90
   6   4   0  106.29    9.90
  -6   4   0  125.59   10.80
   7  -4   0  120.99   15.20
   7   4   0  103.59   10.30
  -7   4   0  109.59   14.20
  -7   4   0  109.29   11.80
  -8  -4   0   17.80    6.00
   8  -4   0   20.20   10.30
  -8   4   0   22.50    7.90
  -8   4   0   31.60    9.50
   0  -5   0  997.30   37.80
   0   5   0  962.80   35.90
   0   5   0 1041.90   36.10
  -1  -5   0   41.30    5.50
   1  -5   0   36.10    5.80
  -1   5   0   37.00    5.10
   1   5   0   42.80    4.60
  -1   5   0   28.40    4.30
   1   5   0   45.80    4.20
  -2  -5   0  729.73   27.90
   2   5   0  688.23   25.70
  -2   5   0  692.03   28.30
  -2   5   0  782.72   28.60
  -2   5   0  748.23   32.30
   3  -5   0  219.88   14.90
  -3  -5   0  236.88   11.60
  -3   5   0  243.88   16.20
  -3   5   0  247.98   13.10
   4  -5   0   83.99   11.60
  -4   5   0   77.49   10.80
  -4   5   0   75.19    8.60
   5  -5   0  146.59   15.10
  -5   5   0  149.99   12.00
  -5   5   0  148.09   15.60
  -6  -5   0  148.09   10.10
   6  -5   0  139.39   16.60
  -6   5   0  151.28   17.00
  -6   5   0  150.58   13.50
   7  -5   0   -5.40    9.90
  -7  -5   0    1.30    4.60
  -7   5   0   14.00   10.00
  -7   5   0    6.60    7.80
   0  -6   0 1153.88   44.60
   0   6   0 1146.79   48.10
   1  -6   0   42.30    7.40
  -1  -6   0   44.10    6.20
  -1   6   0   23.20    7.10
   1   6   0   38.70    8.10
   2  -6   0  160.78   14.40
  -2  -6   0  197.08   11.90
   2   6   0  192.18   16.40
  -2   6   0  214.38   17.40
   3  -6   0    2.40    7.10
  -3  -6   0   12.70    4.60
  -3   6   0   11.10    5.30
   3   6   0   15.60    8.00
  -3   6   0   11.60    8.00
   4  -6   0   27.60    9.70
  -4  -6   0   52.99    6.70
  -4   6   0   64.19   12.00
  -4   6   0   36.60    7.70
   4   6   0   41.10    9.60
  10   0  -1    7.30    8.70
 -10   0   1    9.20    5.90
   9   0  -1  460.85   24.80
  -9   0   1  453.65   22.20
  -8   0   1    3.20    3.50
   7   0  -1  279.37   15.60
  -7   0   1  251.47   13.20
   6   0  -1    0.40    3.30
   6   0  -1    1.10    2.50
  -6   0   1    0.80    1.90
  -6   0   1    0.20    3.90
   5   0  -1  958.20   37.40
  -5   0   1 1006.90   36.10
   5   0  -1  979.10   36.10
  -5   0   1  994.10   37.30
  -4   0   1   -0.20    1.10
   4   0  -1   -0.50    1.90
  -4   0   1    2.20    1.90
   4   0  -1    0.40    1.30
  -3   0   1 2469.95   80.69
   3   0  -1 2232.58   80.59
  -3   0   1 2345.77   79.79
   3   0  -1 2296.07   79.69
  -2   0   1    0.60    0.90
   2   0  -1    0.50    0.60
  -2   0   1    0.40    0.60
   2   0  -1    0.50    0.90
  -1   0   1  100.69    4.50
   1   0  -1  118.09    4.30
  -1   0   1   94.09    4.20
  -1   0   1   99.59    4.00
   1   0  -1  117.69    4.60
   0   0  -1    0.10    0.10
   0   0   1   -0.20    0.30
   0   0   1   -0.20    0.10
   0   0   1   -0.20    0.20
   0   0  -1    0.20    0.30
   0   0  -1    0.10    0.20
   1   0   1 1955.00   62.59
  -1   0  -1 1808.72   62.49
  -1   0  -1 1784.42   61.99
   1   0   1 1925.91   62.09
   1   0   1 1867.41   62.29
  -1   0  -1 1706.53   62.29
  -2   0  -1    0.40    0.70
  -2   0  -1    0.20    0.80
  -2   0  -1    0.90    0.80
   2   0   1    0.60    0.80
   2   0   1    1.70    0.90
   2   0   1   -0.80    0.70
   3   0   1   80.39    4.70
  -3   0  -1  112.09    5.40
  -3   0  -1  101.89    6.10
   3   0   1   81.69    6.20
   3   0   1   87.59    5.10
  -3   0  -1  108.59    5.20
  -4   0  -1    1.60    1.50
   4   0   1   -0.70    1.80
  -4   0  -1   -2.50    1.70
   4   0   1    0.40    1.30
   4   0   1   -2.20    1.40
   5   0   1 4246.58  141.39
   5   0   1 4105.09  143.29
   5   0   1 4233.58  142.69
   5   0   1 4265.57  140.99
  -5   0  -1 4111.89  142.59
  -5   0  -1 4050.09  142.59
  -6   0  -1    3.70    2.40
   6   0   1   -1.60    1.90
   6   0   1    0.20    2.30
   6   0   1    0.10    3.10
  -6   0  -1   -3.80    3.20
   7   0   1 1157.88   40.40
  -7   0  -1 1124.59   43.50
   7   0   1 1140.49   44.70
   7   0   1 1148.49   40.50
   8   0   1   -3.60    2.20
  -8   0  -1    2.00    3.90
   8   0   1    2.00    5.10
   9   0   1  248.58   18.30
  -9   0  -1  256.27   16.10
  10   0   1    6.30    9.00
 -10   0  -1    0.30    6.30
 -10  -1   1  295.27   18.40
  10  -1  -1  316.07   23.20
 -10   1   1  301.77   19.20
  10   1  -1  279.67   21.20
  -9  -1   1   14.20    5.30
   9  -1  -1   10.70    7.70
  -9   1   1    9.80    4.90
   9   1  -1    8.30    6.70
  -8  -1   1  271.37   14.30
   8  -1  -1  281.67   17.40
  -8   1   1  245.08   14.70
   8   1  -1  265.67   18.50
   7  -1  -1    0.50    4.30
   7  -1  -1    6.50    1.90
  -7  -1   1   11.40    3.40
   7   1  -1    2.40    3.90
  -7   1   1    3.90    3.00
  -7   1   1    4.10    2.60
   6  -1  -1  437.46   16.50
   6  -1  -1  445.56   21.00
  -6  -1   1  426.96   20.30
  -6  -1   1  447.66   18.40
   6   1  -1  447.46   18.60
   6   1  -1  451.95   20.20
  -6   1   1  463.65   17.40
  -6   1   1  449.56   19.30
   5  -1  -1  351.16   16.30
  -5  -1   1  355.76   14.20
  -5  -1   1  341.97   15.90
   5  -1  -1  336.87   15.00
   5  -1  -1  345.37   13.00
   5   1  -1  349.17   14.30
  -5   1   1  336.07   15.40
  -5   1   1  319.17   14.80
  -5   1   1  341.07   13.50
   5   1  -1  339.17   15.60
   4  -1  -1 2198.58   77.09
   4  -1  -1 2328.57   76.09
  -4  -1   1 2030.30   76.49
  -4  -1   1 2089.29   74.99
  -4  -1   1 2255.67   73.79
   4  -1  -1 2247.38   74.39
   4   1  -1 2106.29   73.59
   4   1  -1 2321.27   75.19
  -4   1   1 2138.19   75.99
  -4   1   1 2272.57   74.69
   4   1  -1 2080.29   76.29
  -4   1   1 2166.38   76.29
  -3  -1   1   41.20    4.00
   3  -1  -1   39.50    2.70
   3  -1  -1   44.10    3.50
  -3  -1   1   41.20    2.30
   3  -1  -1   39.90    3.90
  -3  -1   1   40.90    2.70
  -3   1   1   41.40    2.90
  -3   1   1   35.70    3.60
   3   1  -1   50.29    2.50
   3   1  -1   42.00    3.70
   3   1  -1   44.10    2.80
  -2   1   1 9999.00  335.77
   1  -1  -1 1566.54   51.39
  -1  -1   1 1470.45   51.19
  -1  -1   1 1436.26   51.09
   1  -1  -1 1539.45   51.29
   1  -1  -1 1498.55   51.29
  -1   1   1 1494.05   51.29
   1   1  -1 1579.74   51.49
  -1   1   1 1459.65   51.39
  -1   1   1 1568.24   51.19
   1   1  -1 1396.96   51.19
   0  -1  -1 2277.07   79.49
   0  -1   1 2480.35   79.69
   0  -1   1 2321.47   79.09
   0  -1  -1 2304.37   78.79
   0  -1  -1 2266.67   79.09
   0   1   1 2346.67   78.69
   0   1  -1 2424.76   79.79
   0   1   1 2400.36   79.49
   0   1  -1 2234.18   79.09
   0   1   1 2419.76   79.19
  -1  -1  -1 3790.02  123.09
   1  -1   1 3584.04  122.69
  -1  -1  -1 3684.53  122.39
   1  -1   1 3658.73  122.59
  -1   1  -1 3700.83  123.29
   1   1   1 3571.94  122.79
   1   1   1 3659.03  122.59
  -1   1  -1 3691.83  122.49
  -1   1  -1 3475.75  122.59
  -3  -1  -1 3977.80  129.89
   3  -1   1 3894.21  130.59
  -3  -1  -1 4036.60  130.09
  -3  -1  -1 3499.45  130.89
   3  -1   1 3937.21  130.29
  -3   1  -1 3931.01  130.09
  -3   1  -1 3588.34  130.19
   3   1   1 3642.04  129.29
   3   1   1 3906.11  129.89
   3   1   1 3920.61  130.29
  -4  -1  -1  305.67   13.50
  -4  -1  -1  332.47   13.20
   4  -1   1  307.27   13.40
   4  -1   1  290.57   13.90
   4  -1   1  310.57   12.70
   4   1   1  290.27   13.30
   4   1   1  317.17   13.20
  -4   1  -1  333.87   13.70
  -4   1  -1  339.47   13.60
   4   1   1  289.67   12.80
  -4   1  -1  332.17   13.50
   4   1   1  307.87   12.20
  -5  -1  -1   30.70    3.80
   5  -1   1   36.80    4.60
   5  -1   1   31.80    3.80
   5  -1   1   29.30    4.40
  -5  -1  -1   31.90    4.40
   5   1   1   32.60    3.30
   5   1   1   27.70    4.00
  -5   1  -1   22.70    3.50
  -5   1  -1   33.30    4.30
   5   1   1   32.70    4.80
   5   1   1   30.50    4.10
  -5   1  -1   30.10    4.20
   6  -1   1  415.56   19.50
  -6  -1  -1  370.36   18.00
  -6  -1  -1  414.26   17.60
   6  -1   1  425.96   16.40
  -6   1  -1  401.06   17.20
   6   1   1  404.06   18.40
   6   1   1  401.16   17.70
   6   1   1  401.66   15.40
   6   1   1  396.76   16.10
  -6   1  -1  407.06   18.20
   7  -1   1   36.60    6.20
   7  -1   1   42.50    5.00
  -7  -1  -1   30.70    4.80
  -7   1  -1   46.50    6.30
   7   1   1   39.20    4.90
   7   1   1   43.40    3.70
   7   1   1   39.40    6.00
  -7   1  -1   39.60    5.20
   8  -1   1  800.92   35.30
   8  -1   1  811.72   31.00
   8   1   1  798.82   34.10
  -8   1  -1  812.62   33.60
  -9  -1  -1   14.90    5.20
   9  -1   1    8.00    7.20
   9   1   1    5.60    6.50
  -9   1  -1    9.90    5.40
  10  -1   1   80.19   12.80
 -10  -1  -1   63.29    8.90
  10   1   1   54.89   10.70
 -10   1  -1   94.79   13.80
  10  -2  -1   65.59   12.30
 -10  -2   1   56.09    8.00
  10   2  -1   60.19   10.60
 -10   2   1   43.30    8.50
   9  -2  -1   75.39   11.30
  -9  -2   1   68.89    9.10
  -9   2   1   68.59   10.70
   9   2  -1   66.39    9.40
   8  -2  -1   42.00    8.80
  -8  -2   1   48.20    6.90
   8   2  -1   35.10    6.60
  -8   2   1   39.20    5.70
  -7  -2   1  184.48   10.30
   7  -2  -1  197.08    9.90
   7   2  -1  180.68   11.00
   7   2  -1  202.18   12.40
  -7   2   1  179.88   10.70
   6  -2  -1  706.63   30.40
  -6  -2   1  729.43   25.90
  -6  -2   1  732.13   26.90
   6  -2  -1  744.93   26.70
  -6   2   1  683.63   27.20
   6   2  -1  705.73   28.60
   6   2  -1  676.53   25.30
   6   2  -1  665.73   26.80
  -6   2   1  712.23   28.70
  -5  -2   1  315.57   13.20
  -5  -2   1  330.67   13.20
   5  -2  -1  302.07   14.80
   5  -2  -1  345.37   13.70
   5  -2  -1  330.97   16.40
  -5  -2   1  299.67   15.50
   5   2  -1  309.47   13.00
   5   2  -1  330.07   13.40
  -5   2   1  310.87   15.10
  -5   2   1  340.07   14.30
   5   2  -1  342.17   15.00
  -5   2   1  317.57   14.90
  -4  -2   1 2538.45  101.09
  -4  -2   1 2829.02  100.99
   4  -2  -1 2989.90  103.29
   4  -2  -1 3262.27  102.49
  -4  -2   1 2839.62  102.79
  -4  -2   1 3070.39  101.99
   4  -2  -1 3104.59  101.29
  -4   2   1 3042.40  102.29
  -4   2   1 3010.10  101.89
  -4   2   1 3194.08  101.89
   4   2  -1 2760.52  101.29
   4   2  -1 2813.82  100.99
  -3  -2   1 1836.32   64.19
   3  -2  -1 1788.32   65.09
  -3  -2   1 1788.12   63.39
   3  -2  -1 1850.01   64.09
   3  -2  -1 1868.01   64.59
  -3  -2   1 1910.11   65.19
  -3  -2   1 1844.32   62.59
   3   2  -1 1900.91   63.89
  -3   2   1 1785.32   64.49
   3   2  -1 1867.61   62.69
  -3   2   1 1827.92   64.49
  -3   2   1 1881.71   64.29
  -2  -2   1 3581.94  114.79
  -2  -2   1 3439.06  113.79
   2  -2  -1 3428.66  114.29
   2  -2  -1 3470.55  114.29
  -2  -2   1 3369.56  113.79
  -2  -2   1 3376.46  112.19
   2  -2  -1 3376.46  114.59
   2   2  -1 3081.99  114.09
  -2   2   1 3349.47  114.19
  -2   2   1 3502.55  113.89
   2   2  -1 3008.90  112.19
  -2   2   1 3265.97  114.39
  -1  -2   1 1621.74   57.89
   1  -2  -1 1702.83   58.19
  -1  -2   1 1711.23   57.39
   1  -2  -1 1602.14   58.49
   1  -2  -1 1683.33   57.79
  -1   2   1 1610.54   58.79
  -1   2   1 1791.42   57.29
   1   2  -1 1648.34   58.29
  -1   2   1 1658.03   58.29
   1   2  -1 1701.73   57.89
   0  -2  -1 3539.15  129.79
   0  -2   1 3948.51  128.99
   0  -2   1 4155.88  130.59
   0  -2   1 3917.51  129.59
   0  -2  -1 3947.00  130.49
   0   2  -1 3855.81  130.79
   0   2   1 3882.51  130.39
   0   2  -1 3927.61  129.69
   0   2   1 3971.80  129.69
   0   2   1 3313.77  129.59
   0   2  -1 3651.73  128.89
   0   2   1 4004.60  129.59
  -1  -2  -1 4448.85  145.99
  -1  -2  -1 4456.55  144.79
   1  -2   1 4430.66  146.09
   1  -2   1 4127.79  145.29
  -1  -2  -1 4298.37  144.49
   1  -2   1 4273.07  144.89
  -1   2  -1 4160.08  144.99
   1   2   1 4333.27  144.89
  -1   2  -1 4342.47  146.39
  -1   2  -1 4505.65  145.09
   1   2   1 3983.00  145.49
   1   2   1 4284.17  144.79
  -2  -2  -1  427.56   15.70
   2  -2   1  443.46   16.30
  -2  -2  -1  459.75   16.90
   2  -2   1  409.86   16.70
   2  -2   1  419.66   16.90
  -2  -2  -1  383.16   17.00
  -2   2  -1  428.26   16.40
  -2   2  -1  435.76   17.40
   2   2   1  426.76   15.80
  -2   2  -1  428.06   16.10
   2   2   1  404.86   16.30
  -3  -2  -1 1296.67   43.70
  -3  -2  -1 1227.48   42.70
   3  -2   1 1155.98   43.30
   3  -2   1 1156.08   43.50
   3  -2   1 1177.08   44.10
  -3  -2  -1 1256.27   42.70
  -3  -2  -1 1269.77   43.70
  -3   2  -1 1232.48   43.70
  -3   2  -1 1245.98   43.10
  -3   2  -1 1260.67   44.30
   3   2   1 1141.99   42.80
   3   2   1 1203.08   42.80
  -4  -2  -1 1148.99   42.60
   4  -2   1 1219.88   44.50
  -4  -2  -1 1190.58   42.60
   4  -2   1 1224.58   43.50
  -4  -2  -1 1228.78   43.40
   4  -2   1 1237.98   43.30
  -4  -2  -1 1176.78   43.60
   4   2   1 1173.68   42.30
  -4   2  -1 1178.78   43.80
   4   2   1 1254.37   42.80
  -4   2  -1 1206.48   43.90
  -4   2  -1 1146.19   42.90
   5  -2   1 1007.40   40.10
   5  -2   1 1021.20   38.10
  -5  -2  -1 1028.00   39.10
  -5  -2  -1 1057.59   38.00
  -5  -2  -1 1039.40   38.40
   5   2   1 1064.09   38.50
  -5   2  -1 1075.89   39.40
   5   2   1 1033.60   38.10
   5   2   1 1018.70   37.10
  -5   2  -1 1075.09   39.30
   6  -2   1   94.39    9.20
  -6  -2  -1   82.89    8.80
   6  -2   1   86.39    6.80
  -6  -2  -1   75.49    6.40
  -6   2  -1   85.39    7.60
  -6   2  -1   84.79    8.10
   6   2   1   78.09    7.10
   6   2   1   91.89    7.40
   6   2   1   94.39    5.60
   6   2   1   86.89    7.50
  -7  -2  -1  471.55   20.30
   7  -2   1  446.76   19.40
   7   2   1  455.85   19.30
  -7   2  -1  447.36   20.90
   7   2   1  480.55   18.00
   7   2   1  476.25   21.10
   8  -2   1   56.49    9.70
  -8  -2  -1   43.20    6.10
   8   2   1   69.19    9.40
  -8   2  -1   38.20    6.30
  -8   2  -1   55.89    7.60
   9  -2   1   41.90    9.90
  -9  -2  -1   33.00    6.60
   9   2   1   24.40    7.30
  -9   2  -1   24.40    6.50
 -10  -2  -1   63.99    8.90
  10  -2   1   54.09   12.80
 -10   2  -1   43.90    9.30
  10   2   1   63.99   10.80
  -9  -3   1   50.29    8.40
  -9  -3   1   50.79    7.00
   9  -3  -1   44.70   10.70
  -9   3   1   58.89    9.50
  -8  -3   1  100.39   10.70
  -8  -3   1   93.99    8.40
   8  -3  -1  102.49   13.30
  -8   3   1   78.99   11.00
  -8   3   1   96.39   11.20
  -7  -3   1   10.60    3.30
  -7  -3   1   13.00    4.50
   7   3  -1   10.70    3.40
   7   3  -1   12.60    5.20
  -7   3   1   13.90    4.60
  -7   3   1    6.60    4.90
  -6  -3   1 1416.66   54.79
  -6  -3   1 1580.54   56.29
   6  -3  -1 1440.26   55.59
  -6  -3   1 1560.74   54.19
  -6   3   1 1585.04   57.49
   6   3  -1 1568.14   54.39
   6   3  -1 1625.04   54.89
  -6   3   1 1540.75   56.89
  -5  -3   1  418.26   17.60
   5  -3  -1  419.26   18.30
   5  -3  -1  425.96   20.40
  -5  -3   1  420.16   16.10
  -5  -3   1  402.96   17.90
   5   3  -1  428.06   17.70
   5   3  -1  445.66   16.30
  -5   3   1  410.16   18.90
  -5   3   1  405.16   18.90
  -4  -3   1 3752.02  118.99
  -4  -3   1 3539.95  116.79
  -4  -3   1 3540.55  118.89
   4  -3  -1 3486.45  121.19
   4  -3  -1 3129.79  119.39
   4  -3  -1 3546.75  119.59
  -4  -3   1 3598.24  120.99
  -4   3   1 3490.75  119.89
  -4   3   1 3292.67  119.89
   4   3  -1 3340.97  119.09
   4   3  -1 3401.16  116.89
  -3  -3   1  476.35   20.10
   3  -3  -1  524.45   19.90
  -3  -3   1  466.85   18.90
   3  -3  -1  447.76   20.10
   3  -3  -1  473.65   19.30
  -3  -3   1  479.05   18.50
  -3  -3   1  481.65   16.60
   3   3  -1  450.65   19.40
   3   3  -1  482.75   16.70
  -3   3   1  462.45   20.00
  -3   3   1  459.15   19.20
  -3   3   1  471.85   18.60
  -2  -3   1  523.65   20.60
   2  -3  -1  546.75   21.20
   2  -3  -1  494.25   20.80
  -2  -3   1  514.95   19.60
   2  -3  -1  511.35   20.30
   2   3  -1  537.45   21.30
  -2   3   1  504.95   19.60
   2   3  -1  529.05   20.90
  -2   3   1  519.35   20.30
  -2   3   1  528.05   21.50
  -1  -3   1  114.69    5.90
   1  -3  -1  116.29    7.10
   1  -3  -1  102.39    6.40
  -1  -3   1  114.79    6.80
   1   3  -1  108.29    4.60
  -1   3   1  121.49    6.30
  -1   3   1  128.49    5.90
   1   3  -1  110.09    6.50
  -1   3   1  121.59    7.40
   1   3  -1  101.99    7.20
   1   3  -1  108.79    4.60
   0  -3  -1 1044.80   37.00
   0  -3   1 1057.29   36.20
   0  -3   1 1042.30   38.20
   0  -3  -1 1029.70   38.20
   0  -3   1 1054.29   37.10
   0   3   1 1071.19   36.80
   0   3   1 1015.90   38.40
   0   3  -1 1018.60   36.10
   0   3   1 1073.99   36.90
   0   3   1 1048.20   37.00
   0   3  -1 1020.90   37.20
   0   3  -1 1020.30   38.80
  -1  -3  -1 1486.65   53.09
   1  -3   1 1497.75   53.19
   1  -3   1 1487.65   51.59
  -1  -3  -1 1507.95   51.39
   1  -3   1 1459.15   52.39
   1   3   1 1517.15   51.99
  -1   3  -1 1457.85   51.89
  -1   3  -1 1441.26   53.79
   1   3   1 1527.45   51.89
  -1   3  -1 1454.45   51.59
   1   3   1 1467.15   51.39
   1   3   1 1531.05   53.29
   2  -3   1 3651.03  125.19
  -2  -3  -1 3616.64  125.09
  -2  -3  -1 3452.55  122.99
   2  -3   1 3795.82  125.19
  -2  -3  -1 3590.44  123.09
   2  -3   1 3802.92  124.19
  -2   3  -1 3711.43  123.89
  -2   3  -1 3474.05  123.99
   2   3   1 3720.13  124.29
  -2   3  -1 3523.75  125.99
   2   3   1 3689.13  124.99
   2   3   1 3650.13  123.29
  -3  -3  -1   52.79    5.60
  -3  -3  -1   60.79    5.40
   3  -3   1   49.40    5.50
   3  -3   1   44.20    4.70
  -3  -3  -1   55.59    3.90
  -3  -3  -1   53.09    3.80
   3  -3   1   44.30    5.40
  -3   3  -1   54.59    5.00
  -3   3  -1   52.19    4.60
   3   3   1   47.80    4.00
  -3   3  -1   57.59    6.30
   3   3   1   56.59    5.10
  -4  -3  -1   61.69    6.70
   4  -3   1   57.89    6.10
  -4  -3  -1   64.99    4.80
  -4  -3  -1   64.79    6.80
   4  -3   1   60.69    7.10
  -4  -3  -1   67.19    4.70
   4  -3   1   60.89    6.80
  -4   3  -1   70.09    7.00
  -4   3  -1   67.69    6.10
   4   3   1   60.89    4.90
   4   3   1   66.79    5.60
   5  -3   1   93.79    9.00
  -5  -3  -1   91.79    6.40
  -5  -3  -1   89.49    6.10
  -5  -3  -1   87.89    8.90
  -5  -3  -1   96.89    8.40
   5   3   1   93.79    6.80
  -5   3  -1   89.09    7.70
  -5   3  -1   86.39    8.70
   5   3   1  100.69    6.90
   6  -3   1  149.59   12.30
  -6  -3  -1  127.09   10.90
  -6  -3  -1  141.39    8.90
  -6  -3  -1  130.29    8.40
   6   3   1  145.99    9.40
   6   3   1  168.28    9.00
  -6   3  -1  141.29   11.40
  -6   3  -1  128.39   11.20
  -7  -3  -1   73.49    7.40
  -7  -3  -1   63.09    7.70
   7  -3   1   66.69    9.70
  -7   3  -1   63.09    8.60
   7   3   1   64.59    6.80
  -7   3  -1   62.89    9.20
   8  -3   1    2.30    7.60
  -8  -3  -1    2.70    4.40
  -8   3  -1    0.10    7.00
  -8   3  -1    6.60    5.60
  -9  -3  -1    0.80    6.40
  -9  -3  -1   -5.70    5.10
   9  -3   1    9.30   10.80
  -9   3  -1    5.60    6.70
  -8  -4   1  231.18   14.70
   8  -4  -1  188.68   21.50
  -8   4   1  260.77   17.90
  -8   4   1  211.38   18.30
   7  -4  -1  157.28   17.10
  -7  -4   1  185.18   11.70
   7   4  -1  162.48   11.60
  -7   4   1  160.68   14.40
  -7   4   1  160.78   13.40
   6  -4  -1  116.29   13.10
  -6  -4   1   83.79    5.70
  -6   4   1   91.09   11.20
  -6   4   1  104.09    9.80
   6   4  -1   99.79    9.30
  -5  -4   1  157.88    9.20
  -5  -4   1  148.79    6.80
   5   4  -1  165.78   10.80
  -5   4   1  155.88   12.30
  -5   4   1  161.28   10.80
   5   4  -1  160.08    7.20
  -4  -4   1  887.61   33.20
   4  -4  -1  887.61   36.50
  -4   4   1  916.51   34.90
  -4   4   1  904.41   36.10
   4   4  -1  860.71   35.00
  -3  -4   1  306.57   13.00
   3  -4  -1  259.87   13.90
   3  -4  -1  295.17   15.50
   3   4  -1  288.67   15.10
  -3   4   1  313.27   16.00
  -3   4   1  314.67   14.20
   2  -4  -1  104.69    8.10
   2  -4  -1  105.49    7.20
  -2  -4   1  105.69    6.50
   2   4  -1  122.79    9.00
  -2   4   1  102.59    7.10
  -2   4   1  114.79    9.00
   1  -4  -1 1122.29   40.50
  -1  -4   1 1087.59   39.40
  -1   4   1 1144.19   39.60
   1   4  -1 1083.99   42.00
  -1   4   1 1069.39   39.20
   1   4  -1 1078.39   37.50
   1   4  -1 1060.09   37.50
  -1   4   1 1064.99   41.80
  -1   4   1 1118.29   39.70
   0  -4   1  229.28   10.80
   0  -4  -1  225.48   10.60
   0   4   1  236.98   12.60
   0   4   1  220.48   10.00
   0   4   1  203.08   10.20
   0   4   1  219.78   10.00
   0   4  -1  206.98    9.60
   0   4  -1  231.58   12.80
   1  -4   1  612.74   23.00
   1  -4   1  614.94   24.30
  -1  -4  -1  617.34   23.20
  -1   4  -1  636.04   26.50
   1   4   1  605.14   22.70
   1   4   1  606.04   22.90
   1   4   1  596.94   23.80
  -1   4  -1  641.74   23.20
   1   4   1  574.94   25.30
   2  -4   1  421.66   18.70
  -2  -4  -1  434.16   16.70
   2  -4   1  417.96   17.30
   2   4   1  393.36   17.90
   2   4   1  427.56   16.40
   2   4   1  432.46   19.20
  -2   4  -1  424.26   17.40
   2   4   1  416.96   16.30
  -2   4  -1  417.16   20.10
  -3  -4  -1  238.58   10.20
  -3  -4  -1  218.78   12.50
   3  -4   1  206.38   11.40
   3  -4   1  210.18   12.60
   3   4   1  200.38   12.10
  -3   4  -1  236.98   14.10
  -3   4  -1  239.28   11.60
   3   4   1  214.38   10.00
  -4  -4  -1    5.00    2.30
  -4  -4  -1    8.40    2.20
  -4  -4  -1    5.10    5.30
   4   4   1    6.70    2.70
  -4   4  -1    5.10    3.30
  -4   4  -1    0.40    4.40
   4   4   1    4.80    3.50
  -5  -4  -1   81.89    6.30
  -5  -4  -1   82.59    6.20
   5   4   1   84.19    7.00
   5   4   1   91.09    8.50
  -5   4  -1   86.39   10.60
  -5   4  -1   81.09    8.50
  -6  -4  -1  282.77   13.20
  -6  -4  -1  294.47   13.70
   6  -4   1  306.47   18.80
  -6   4  -1  290.77   16.60
  -6   4  -1  276.57   18.40
   6   4   1  289.67   15.50
  -7  -4  -1  164.18   10.00
   7  -4   1  121.69   16.10
  -7   4  -1  144.09   13.40
  -7   4  -1  158.48   16.20
   7   4   1  147.09   11.60
  -8  -4  -1   70.79    9.90
   8  -4   1   46.90   12.10
  -8   4  -1   39.80   10.90
  -8   4  -1   53.19    9.00
  -7  -5   1   31.30    6.10
   7  -5  -1   37.00   11.60
  -7   5   1   40.90    8.80
  -7   5   1   36.10   10.10
  -6  -5   1   19.60    4.60
   6  -5  -1   30.50    9.40
  -6   5   1   24.40    6.80
  -6   5   1    8.80    8.20
   5  -5  -1  114.99   14.60
  -5  -5   1  142.19    9.50
  -5   5   1  157.28   15.30
  -5   5   1  134.39   11.80
   4  -5  -1  104.09   12.10
  -4   5   1   97.49    9.50
  -4   5   1   80.49   11.50
   3  -5  -1  350.36   19.60
  -3   5   1  365.66   17.30
  -3   5   1  378.46   20.20
  -2  -5   1  352.26   16.00
  -2   5   1  327.37   15.50
  -2   5   1  336.47   19.10
  -1  -5   1   19.70    3.80
   1  -5  -1   19.40    4.30
  -1   5   1   20.40    3.80
  -1   5   1   21.90    4.00
   0  -5  -1   75.49    7.10
   0   5   1   74.99    6.60
   0   5   1   79.99    6.10
   0   5  -1   68.89    5.30
   0   5  -1   75.19    5.30
  -1  -5  -1  194.98   10.40
  -1   5  -1  178.18    9.80
   1   5   1  199.48    9.70
  -1   5  -1  193.98    9.70
   1   5   1  197.98    9.50
  -2  -5  -1  352.36   15.30
   2  -5   1  324.67   15.60
   2  -5   1  356.66   18.20
  -2   5  -1  359.96   20.00
  -2   5  -1  366.86   15.80
   2   5   1  333.57   14.10
  -3  -5  -1  282.67   13.00
   3  -5   1  278.77   16.50
  -3   5  -1  279.17   18.00
  -3   5  -1  287.17   14.40
   3   5   1  282.37   12.10
   4  -5   1  114.89   12.30
  -4  -5  -1   93.69    7.20
  -4   5  -1   98.29   13.40
  -4   5  -1  101.99    9.50
  -5  -5  -1   60.09    7.90
   5  -5   1   57.39   10.30
   5   5   1   63.39    9.60
  -5   5  -1   61.39    8.10
  -5   5  -1   66.29   10.40
   6  -5   1   10.80    8.90
  -6  -5  -1   13.80    4.70
   6   5   1   12.90    7.10
  -6   5  -1    9.60    6.20
  -6   5  -1    7.80    9.50
   4  -6  -1   69.59   11.30
  -4  -6   1   86.89    9.20
   4   6  -1   75.99   11.00
  -4   6   1   94.69   13.30
  -4   6   1   79.19   11.80
  -3  -6   1   83.69    8.90
   3  -6  -1   76.39   10.60
  -3   6   1   72.09   10.80
   3   6  -1  111.09   14.20
   2  -6  -1   39.40    7.70
  -2  -6   1   22.50    4.80
  -2   6   1   33.10    5.70
   2   6  -1   53.49    9.70
  -2   6   1   35.20    9.30
   1  -6  -1   54.89    8.10
  -1  -6   1   73.09    8.40
   1   6  -1   61.49   10.10
  -1   6   1   56.89   10.10
   0  -6  -1  173.28   12.80
   0  -6   1  182.58   12.80
   0   6   1  198.48   16.40
   0   6  -1  182.18   16.30
   1  -6   1  116.19   11.40
  -1  -6  -1  100.09   10.00
   1   6   1  116.59   14.10
  -1   6  -1  119.09   14.60
  -2  -6  -1  115.69    9.80
   2  -6   1  117.09   12.40
  -2   6  -1  136.09   15.60
   2   6   1  111.69   14.20
  -3  -6  -1   66.69    8.40
   3  -6   1   57.49    9.10
   3   6   1   60.49   10.20
  -3   6  -1   59.49   10.70
   4  -6   1   22.50    9.20
  -4  -6  -1    5.80    5.00
  -4   6  -1   13.40    9.70
  -4   6  -1   10.50    6.70
   4   6   1   16.10    8.20
 -10   0   2   81.19   11.70
  10   0  -2   74.39   11.40
  -9   0   2   -5.40    4.20
   9   0  -2   -3.60    6.60
   8   0  -2  486.15   24.80
  -8   0   2  484.15   21.80
  -7   0   2    1.20    2.50
   7   0  -2    6.90    4.30
  -6   0   2  238.48   13.50
   6   0  -2  200.38   12.50
  -6   0   2  230.98   11.00
   6   0  -2  198.28   11.10
   5   0  -2   -0.10    1.80
   5   0  -2    2.20    2.40
  -5   0   2   -5.80    2.70
  -5   0   2    0.00    1.50
   4   0  -2 1029.80   37.30
  -4   0   2 1114.39   38.80
  -4   0   2 1020.50   37.20
   4   0  -2 1000.40   38.50
  -3   0   2    0.00    1.60
   3   0  -2    0.30    1.10
  -3   0   2    0.40    0.60
  -3   0   2    0.40    0.40
  -3   0   2    0.20    1.00
   3   0  -2   -1.10    1.40
   2   0  -2 3240.28  111.69
  -2   0   2 3358.96  110.49
  -2   0   2 3245.58  110.99
  -2   0   2 3392.76  110.59
   2   0  -2 3105.49  110.89
  -2   0   2 3377.56  111.69
  -1   0   2    0.40    0.40
  -1   0   2   -0.50    0.40
  -1   0   2    0.40    0.60
   1   0  -2   -0.50    0.60
  -1   0   2    0.10    0.60
  -1   0   2    0.00    0.70
   0   0  -2 2171.58   72.89
   0   0   2 2096.49   72.89
   0   0   2 2162.38   73.59
   0   0  -2 2205.28   72.49
  -1   0  -2   -0.70    0.80
   1   0   2    2.00    0.50
  -1   0  -2    0.00    0.30
  -1   0  -2    0.70    0.60
   1   0   2   -0.10    1.00
  -2   0  -2 4263.07  138.09
   2   0   2 4118.69  138.89
   2   0   2 4272.07  139.29
  -2   0  -2 3788.32  138.79
  -2   0  -2 4174.68  139.39
   2   0   2 4038.80  138.29
  -3   0  -2    2.20    1.90
   3   0   2   -1.00    1.90
  -3   0  -2    0.40    1.20
   3   0   2    0.90    1.30
   4   0   2   55.29    4.90
   4   0   2   60.39    5.20
   4   0   2   62.19    4.90
   4   0   2   65.89    5.10
  -5   0  -2    4.10    2.60
   5   0   2    5.50    2.60
   5   0   2   -0.40    2.20
   5   0   2    1.80    2.50
  -5   0  -2    2.10    2.10
   5   0   2    1.10    2.10
  -6   0  -2   20.50    4.10
   6   0   2   26.40    3.70
   6   0   2   30.80    5.20
  -6   0  -2   17.30    3.90
   6   0   2   23.90    3.80
   7   0   2    1.60    3.10
  -7   0  -2    3.50    3.40
   7   0   2   -1.10    3.00
   7   0   2   -2.50    4.00
   8   0   2   14.40    5.70
  -8   0  -2   12.50    4.80
   8   0   2   12.20    3.60
  -9   0  -2   -1.40    5.20
   9   0   2   -4.20    7.00
 -10   0  -2   33.80    8.30
  10   0   2   23.00   10.00
 -10  -1   2  109.19   12.60
  10  -1  -2   82.79   13.10
 -10   1   2   94.59   11.50
  10   1  -2  112.79   13.80
  -9  -1   2   98.19    9.80
   9  -1  -2   78.59   11.20
   9   1  -2   63.59    9.80
  -9   1   2   83.19   10.20
   8  -1  -2  551.94   26.70
  -8  -1   2  533.85   23.00
  -8   1   2  537.75   24.10
   8   1  -2  514.55   25.80
   7  -1  -2  330.17   12.50
   7  -1  -2  346.57   18.50
  -7  -1   2  329.87   15.20
   7   1  -2  336.07   17.80
  -7   1   2  325.47   12.70
   7   1  -2  327.97   17.40
  -7   1   2  325.77   16.10
   6  -1  -2   54.39    7.10
  -6  -1   2   56.59    9.70
   6  -1  -2   45.60    3.40
  -6  -1   2   50.79    4.70
  -6   1   2   39.10    5.10
   6   1  -2   40.20    4.90
  -6   1   2   44.20    3.80
   6   1  -2   47.60    6.60
   5  -1  -2 1430.66   53.69
   5  -1  -2 1474.15   52.39
  -5  -1   2 1455.15   51.09
  -5  -1   2 1439.86   53.39
   5  -1  -2 1486.65   50.09
  -5   1   2 1519.15   50.19
   5   1  -2 1378.66   52.89
  -5   1   2 1532.95   52.39
   5   1  -2 1399.26   51.19
  -5   1   2 1402.16   52.69
   4  -1  -2  366.46   15.10
  -4  -1   2  329.17   12.50
   4  -1  -2  379.26   13.60
   4  -1  -2  366.16   16.10
  -4  -1   2  372.16   13.90
  -4  -1   2  336.87   15.70
   4   1  -2  358.36   15.60
  -4   1   2  359.26   15.40
  -4   1   2  336.67   13.50
   4   1  -2  377.26   14.20
   4   1  -2  348.57   12.70
  -4   1   2  359.96   14.90
   3  -1  -2 7513.25  249.58
   3  -1  -2 7342.47  247.68
   3  -1  -2 7712.03  248.88
  -3   1   2 7647.04  249.08
   3   1  -2 7376.06  247.58
  -3   1   2 6909.51  248.58
  -3   1   2 7307.97  247.58
   3   1  -2 7295.27  249.18
  -2  -1   2 3161.08  112.49
  -2  -1   2 3579.94  114.49
   2  -1  -2 3392.26  113.49
  -2  -1   2 3209.58  112.99
   2   1  -2 3387.06  112.69
  -2   1   2 3116.19  113.19
   2   1  -2 3439.76  113.29
   2   1  -2 3520.25  114.19
  -2   1   2 3397.26  113.99
   1  -1  -2 6135.49  211.18
   1  -1  -2 6275.07  211.58
  -1  -1   2 6202.18  211.28
  -1   1   2 6203.48  211.48
   1   1  -2 6275.47  211.48
  -1   1   2 6464.45  211.08
   1   1  -2 6521.15  211.48
   0  -1   2  611.44   21.60
   0  -1   2  636.24   21.40
   0  -1  -2  580.64   22.50
   0  -1  -2  612.24   21.90
   0  -1  -2  670.73   21.30
   0  -1   2  596.84   22.30
   0   1  -2  608.84   21.70
   0   1   2  616.64   22.00
   0   1   2  572.34   21.00
   0   1  -2  622.54   21.40
   0   1  -2  634.44   22.70
   0   1   2  636.34   22.40
   1  -1   2 2214.58   73.89
   1  -1   2 2248.68   72.89
   1  -1   2 2229.98   72.79
  -1  -1  -2 2076.49   72.89
  -1  -1  -2 2050.99   71.69
  -1  -1  -2 1999.10   73.59
  -1  -1  -2 2230.48   71.99
  -1   1  -2 2134.39   74.89
   1   1   2 2160.28   73.49
  -1   1  -2 2082.69   72.89
  -1   1  -2 2106.69   72.49
   1   1   2 2193.28   72.99
  -2  -1  -2 2851.51   90.59
   2  -1   2 2725.93   91.29
   2  -1   2 2693.43   91.69
  -2  -1  -2 2637.34   91.09
   2  -1   2 2590.74   91.09
  -2   1  -2 2732.93   92.19
  -2   1  -2 2548.15   91.29
  -2   1  -2 2647.24   90.69
   2   1   2 2639.44   91.19
   2   1   2 2710.43   90.39
  -3  -1  -2 2653.13   91.19
  -3  -1  -2 2598.64   90.59
   3  -1   2 2600.54   90.99
   3  -1   2 2669.53   90.89
  -3  -1  -2 2639.54   90.19
   3  -1   2 2690.13   90.89
   3   1   2 2648.54   90.19
   3   1   2 2746.23   90.79
  -3   1  -2 2546.85   90.89
   3   1   2 2656.93   90.59
  -3   1  -2 2607.04   90.19
  -3   1  -2 2684.43   91.49
  -4  -1  -2  446.46   17.50
  -4  -1  -2  411.46   17.50
   4  -1   2  453.75   18.00
   4  -1   2  419.46   18.20
   4  -1   2  436.56   17.60
  -4   1  -2  430.66   18.10
   4   1   2  445.56   17.80
   4   1   2  452.85   18.10
   4   1   2  460.65   17.60
   4   1   2  434.46   17.20
  -4   1  -2  432.06   17.30
  -5  -1  -2   89.89    6.00
  -5  -1  -2   86.09    6.20
   5  -1   2   58.69    5.30
   5  -1   2   61.59    6.20
   5  -1   2   60.99    6.40
   5   1   2   55.69    5.60
   5   1   2   68.39    6.00
  -5   1  -2   81.39    6.60
   5   1   2   75.89    5.20
  -5   1  -2   87.09    6.40
  -5   1  -2   83.19    5.90
   5   1   2   63.69    6.00
  -6  -1  -2  311.77   15.30
  -6  -1  -2  341.67   15.40
   6  -1   2  331.27   14.40
   6  -1   2  330.47   16.80
  -6   1  -2  320.47   15.40
   6   1   2  325.57   14.60
   6   1   2  326.37   13.70
   6   1   2  316.57   15.60
  -6   1  -2  337.87   15.90
  -7  -1  -2  281.77   14.70
   7  -1   2  275.87   13.50
   7  -1   2  292.47   16.70
   7   1   2  281.07   13.50
  -7   1  -2  289.07   15.00
   7   1   2  299.97   12.40
   7   1   2  289.37   15.60
  -8  -1  -2  166.48   11.70
   8  -1   2  161.68   11.70
   8  -1   2  158.48   14.20
   8   1   2  161.48   12.90
   8   1   2  156.28    8.10
  -8   1  -2  155.48   12.20
   9  -1   2  117.49   15.30
  -9  -1  -2   97.79   11.30
   9   1   2  112.09   13.40
  -9   1  -2  119.29   12.60
 -10  -1  -2   41.30    8.10
  10  -1   2   21.20   10.40
 -10   1  -2   42.40    9.30
  10   1   2   24.10    9.50
 -10  -2   2   96.19   11.40
  10  -2  -2   93.19   14.10
  10   2  -2   80.39   12.10
 -10   2   2   76.09   10.50
  -9  -2   2   22.60    6.50
   9  -2  -2   24.20    8.40
  -9   2   2   27.10    6.70
   9   2  -2    6.10    6.70
   8  -2  -2 1212.68   50.49
  -8  -2   2 1265.17   45.80
  -8   2   2 1243.48   44.80
   8   2  -2 1227.38   48.30
  -8   2   2 1173.68   47.60
   7  -2  -2  185.58   10.00
  -7  -2   2  197.98   10.40
   7   2  -2  183.68   10.80
  -7   2   2  192.08   10.40
   7   2  -2  199.08   12.60
  -6  -2   2  573.14   23.40
   6  -2  -2  632.04   23.50
  -6  -2   2  662.23   22.30
   6  -2  -2  628.14   27.60
   6   2  -2  628.14   25.90
   6   2  -2  619.64   22.10
   6   2  -2  612.44   23.70
  -6   2   2  572.34   23.80
  -6   2   2  599.54   25.50
  -5  -2   2   26.30    5.30
   5  -2  -2   46.50    6.80
  -5  -2   2   34.50    3.50
   5  -2  -2   35.20    4.10
  -5  -2   2   36.70    3.40
   5  -2  -2   30.50    5.10
  -5   2   2   35.00    4.20
   5   2  -2   40.00    4.00
   5   2  -2   29.90    3.60
   5   2  -2   27.50    4.00
  -5   2   2   32.80    4.60
  -5   2   2   22.40    4.10
   4  -2  -2 1770.92   63.29
  -4  -2   2 1930.71   62.29
  -4  -2   2 1773.02   64.19
   4  -2  -2 1716.23   64.29
   4  -2  -2 1828.72   65.49
  -4  -2   2 1790.92   65.29
   4   2  -2 1773.92   62.19
  -4   2   2 1895.91   63.79
  -4   2   2 1898.91   64.39
  -4   2   2 1805.62   64.39
  -3  -2   2 1688.23   60.49
   3  -2  -2 1807.42   60.99
   3  -2  -2 1716.33   61.39
  -3  -2   2 1759.02   58.39
  -3  -2   2 1565.64   61.09
   3  -2  -2 1709.73   60.29
  -3  -2   2 1880.31   59.79
  -3   2   2 1658.33   60.29
  -3   2   2 1785.52   60.99
  -3   2   2 1728.93   60.39
   3   2  -2 1639.44   59.99
   3   2  -2 1790.22   58.49
  -2  -2   2 3894.41  126.89
   2  -2  -2 3758.22  127.29
   2  -2  -2 3965.90  127.49
  -2  -2   2 3805.02  127.79
  -2  -2   2 3732.23  126.79
   2  -2  -2 3851.41  127.59
   2   2  -2 3420.06  127.09
  -2   2   2 3715.23  127.19
  -2   2   2 3630.34  126.59
  -2   2   2 3612.44  127.29
  -1  -2   2  363.46   13.80
   1  -2  -2  340.27   14.50
   1  -2  -2  366.16   14.10
  -1  -2   2  369.46   14.50
   1   2  -2  363.36   14.90
  -1   2   2  347.27   14.30
  -1   2   2  352.46   14.10
  -1   2   2  364.16   13.40
  -1   2   2  367.36   14.30
   0  -2  -2 2873.01   96.69
   0  -2   2 2870.61   97.99
   0  -2   2 2815.32   96.09
   0  -2   2 2726.63   96.89
   0  -2  -2 3143.09   98.39
   0   2   2 2804.22   97.79
   0   2  -2 2913.01   97.29
   0   2   2 2854.41   97.39
   0   2  -2 2894.81   96.29
   0   2   2 2761.32   97.19
   0   2  -2 2802.02   98.49
   0   2   2 2854.81   96.29
  -1  -2  -2  402.46   16.90
   1  -2   2  400.86   16.70
   1  -2   2  430.26   15.60
  -1  -2  -2  409.96   15.80
  -1  -2  -2  435.26   15.00
   1  -2   2  433.46   16.10
  -1   2  -2  424.76   15.80
   1   2   2  432.26   15.30
   1   2   2  434.66   16.00
   1   2   2  402.46   16.40
  -1   2  -2  421.56   17.30
  -1   2  -2  418.36   15.80
  -2  -2  -2 2092.49   73.39
   2  -2   2 2217.98   75.09
  -2  -2  -2 2278.47   75.79
   2  -2   2 2274.97   74.59
  -2  -2  -2 2105.89   74.29
   2  -2   2 2272.57   75.59
  -2  -2  -2 2027.90   74.09
  -2   2  -2 2041.40   74.69
  -2   2  -2 2131.69   76.09
   2   2   2 2290.67   75.09
  -2   2  -2 2133.89   74.29
   2   2   2 2173.78   74.49
  -3  -2  -2 1053.79   39.20
   3  -2   2 1074.39   40.20
  -3  -2  -2 1101.29   39.20
  -3  -2  -2 1187.78   40.70
   3  -2   2 1116.29   39.60
   3  -2   2 1107.39   40.20
  -3  -2  -2 1069.99   38.60
   3   2   2 1147.09   39.50
  -3   2  -2 1049.30   40.70
  -3   2  -2 1095.29   39.10
   3   2   2 1149.58   39.50
  -3   2  -2 1067.69   39.90
  -4  -2  -2 1692.93   61.19
   4  -2   2 1754.12   60.79
  -4  -2  -2 1853.31   60.59
  -4  -2  -2 1667.93   59.39
   4  -2   2 1662.03   60.49
   4  -2   2 1733.73   61.69
  -4  -2  -2 1714.43   59.99
   4   2   2 1699.73   59.79
  -4   2  -2 1757.02   61.89
   4   2   2 1699.83   60.19
  -4   2  -2 1683.33   60.99
  -4   2  -2 1621.04   59.89
   5  -2   2   15.60    3.40
   5  -2   2    6.70    3.70
  -5  -2  -2    9.00    2.60
  -5  -2  -2    9.10    3.30
  -5  -2  -2   10.50    3.80
   5   2   2   10.30    2.40
   5   2   2    7.20    2.60
  -5   2  -2   10.50    3.60
  -5   2  -2   11.60    3.40
   5   2   2   11.80    3.00
   6  -2   2  295.67   16.10
  -6  -2  -2  259.07   14.50
   6  -2   2  281.27   13.90
  -6  -2  -2  261.67   13.70
  -6   2  -2  291.07   15.40
   6   2   2  298.17   12.60
   6   2   2  288.67   14.70
  -6   2  -2  309.47   15.20
   6   2   2  298.37   13.90
  -7  -2  -2  363.66   16.70
   7  -2   2  350.46   19.90
   7  -2   2  321.97   16.40
  -7   2  -2  285.57   21.30
   7   2   2  357.36   16.80
  -7   2  -2  366.16   18.20
   7   2   2  361.76   14.50
   7   2   2  317.87   16.80
  -8  -2  -2  197.18   12.60
   8  -2   2  182.58   16.60
  -8   2  -2  197.28   14.00
   8   2   2  188.28   13.00
  -8   2  -2  168.38   14.00
   9  -2   2    0.10    8.50
  -9  -2  -2   12.80    5.90
   9   2   2    9.60    6.70
  -9   2  -2    7.30    6.50
  -9  -3   2   11.20    7.10
   9  -3  -2   29.00   10.60
  -9   3   2   12.30    7.10
  -8  -3   2  100.79    8.20
  -8  -3   2  105.89   11.10
   8  -3  -2  115.59   16.00
  -8   3   2   91.09   11.30
  -8   3   2  105.09   11.00
  -7  -3   2  217.68   10.40
   7  -3  -2  215.18   16.30
   7  -3  -2  195.08   12.90
  -7   3   2  218.38   13.70
   7   3  -2  197.18   10.40
  -7   3   2  180.98   12.40
   6  -3  -2   37.80    5.50
  -6  -3   2   32.10    4.30
  -6  -3   2   41.10    5.70
  -6  -3   2   25.60    4.00
   6   3  -2   41.30    5.70
   6   3  -2   31.50    4.70
  -6   3   2   41.00    6.50
  -6   3   2   28.40    5.30
   5  -3  -2 1582.84   56.49
  -5  -3   2 1441.66   55.09
   5  -3  -2 1606.94   59.19
  -5  -3   2 1575.14   56.59
  -5  -3   2 1578.84   53.89
  -5   3   2 1519.35   56.79
  -5   3   2 1540.65   57.29
   5   3  -2 1658.23   54.09
   5   3  -2 1587.64   55.99
   4  -3  -2  249.68   13.90
  -4  -3   2  267.97   11.80
   4  -3  -2  251.07   13.90
   4  -3  -2  253.87   12.80
  -4  -3   2  278.87   12.40
  -4  -3   2  243.58   14.30
   4   3  -2  262.97   12.60
   4   3  -2  255.67    9.60
  -4   3   2  283.67   13.40
  -4   3   2  265.47   13.00
  -3  -3   2  269.57   14.10
   3  -3  -2  302.67   13.70
  -3  -3   2  309.77   13.00
   3  -3  -2  313.57   14.60
   3  -3  -2  296.17   13.50
  -3  -3   2  285.37   12.70
  -3   3   2  285.47   13.50
  -3   3   2  294.77   13.80
  -3   3   2  271.97   12.50
   3   3  -2  317.27   13.90
   2  -3  -2  423.06   17.50
  -2  -3   2  407.16   16.20
   2  -3  -2  437.26   17.10
  -2  -3   2  372.46   16.70
   2  -3  -2  416.26   17.50
   2   3  -2  420.46   17.90
   2   3  -2  386.06   17.30
  -2   3   2  423.86   17.10
  -2   3   2  404.66   16.00
  -2   3   2  421.46   17.70
   1  -3  -2  226.38   10.70
   1  -3  -2  218.48   11.40
  -1  -3   2  249.28   10.30
  -1  -3   2  243.28   11.40
  -1   3   2  253.47    9.90
  -1   3   2  238.48   11.50
   1   3  -2  228.08   11.00
  -1   3   2  249.28   10.80
  -1   3   2  245.88   10.90
   1   3  -2  225.08   11.90
   0  -3  -2  131.39    6.50
   0  -3   2  124.19    7.60
   0  -3   2  118.69    5.50
   0  -3   2  125.29    6.50
   0  -3  -2  134.29    8.10
   0   3  -2  138.39    7.10
   0   3   2  119.19    5.90
   0   3   2  118.89    6.70
   0   3  -2  144.89    8.70
   0   3   2  124.29    7.50
   0   3  -2  128.49    5.60
   0   3   2  118.59    6.40
   1  -3   2 2145.79   76.49
   1  -3   2 2200.88   74.59
  -1  -3  -2 2150.78   74.29
   1  -3   2 2226.48   75.59
  -1  -3  -2 2089.19   76.59
  -1   3  -2 2089.19   74.69
   1   3   2 2181.58   75.09
  -1   3  -2 2158.48   77.49
   1   3   2 2260.77   74.79
   1   3   2 2164.28   76.19
  -1   3  -2 2200.68   75.29
   1   3   2 2267.67   75.09
   2  -3   2  875.11   34.00
  -2  -3  -2  906.21   32.40
  -2  -3  -2  942.51   31.70
   2  -3   2  920.11   33.80
  -2  -3  -2  910.51   34.50
   2  -3   2  901.71   32.70
  -2   3  -2  894.91   32.90
   2   3   2  866.71   33.50
   2   3   2  921.31   32.70
  -2   3  -2  907.21   35.30
   2   3   2  866.01   32.50
  -2   3  -2  891.11   32.70
  -3  -3  -2   85.59    7.50
  -3  -3  -2   93.59    5.50
   3  -3   2   76.39    5.80
  -3  -3  -2   93.59    4.80
   3  -3   2   80.79    7.10
  -3  -3  -2  106.89    6.50
   3  -3   2   75.39    6.80
  -3   3  -2   88.19    7.80
  -3   3  -2  107.79    6.70
   3   3   2   77.39    6.10
   3   3   2   77.99    5.60
  -4  -3  -2  562.44   23.70
  -4  -3  -2  608.14   22.00
  -4  -3  -2  644.44   25.20
  -4  -3  -2  603.34   22.70
   4  -3   2  568.64   23.70
   4  -3   2  597.44   25.20
  -4   3  -2  608.64   24.20
  -4   3  -2  568.44   25.40
   4   3   2  560.14   23.20
   4   3   2  589.84   23.10
  -5  -3  -2  594.44   22.60
  -5  -3  -2  529.45   23.80
   5  -3   2  569.54   25.60
  -5  -3  -2  573.34   22.00
  -5  -3  -2  561.64   24.80
  -5   3  -2  566.14   25.60
   5   3   2  615.84   23.10
  -5   3  -2  588.14   24.50
   5   3   2  534.75   22.80
  -6  -3  -2   86.79   11.20
   6  -3   2   87.89   10.20
  -6  -3  -2   84.49   11.00
  -6  -3  -2   70.69    6.60
  -6  -3  -2   89.09    7.30
   6   3   2   86.69    7.00
  -6   3  -2   95.59   10.60
  -7  -3  -2  130.89    9.60
  -7  -3  -2  132.39    9.90
   7  -3   2  130.29   13.80
  -7   3  -2  137.19   12.00
   7   3   2  142.49    9.20
  -7   3  -2  145.99   13.90
   8  -3   2   46.70   10.40
  -8  -3  -2   49.40    6.70
  -8  -3  -2   50.99    6.90
  -8   3  -2   47.20    9.40
  -8   3  -2   36.40    7.40
  -9  -3  -2  111.29   12.30
   9  -3   2   90.89   15.10
  -9   3  -2  100.29   14.10
   8  -4  -2  406.76   27.10
  -8  -4   2  380.26   20.10
  -8   4   2  399.76   22.20
  -8   4   2  379.96   22.30
   7  -4  -2   23.40    9.10
  -7  -4   2   12.40    4.90
  -7   4   2   25.00    6.90
   6  -4  -2  336.57   20.20
   6   4  -2  313.27   16.30
  -6   4   2  305.37   17.70
  -6   4   2  311.07   17.20
  -5  -4   2    3.70    4.90
  -5  -4   2   14.90    3.40
  -5   4   2   15.30    5.50
  -5   4   2   17.20    5.40
   5   4  -2   14.30    4.40
  -4  -4   2  458.05   18.80
   4  -4  -2  433.46   21.60
   4   4  -2  442.16   20.60
  -4   4   2  441.86   19.80
  -4   4   2  475.75   21.40
   3  -4  -2 1068.59   41.40
  -3  -4   2 1079.39   38.90
  -3   4   2 1085.79   41.50
  -3   4   2 1069.59   40.00
   3   4  -2 1015.30   41.00
   2  -4  -2 1555.24   56.99
  -2  -4   2 1535.85   55.09
   2   4  -2 1559.74   57.89
  -2   4   2 1598.24   57.79
  -2   4   2 1588.54   56.09
  -2   4   2 1520.55   55.89
  -1  -4   2  827.92   31.20
   1  -4  -2  858.51   32.10
  -1   4   2  805.92   30.60
  -1   4   2  826.62   31.40
  -1   4   2  863.01   33.50
  -1   4   2  873.11   31.70
   1   4  -2  829.92   34.00
   0  -4  -2  791.22   29.60
   0  -4   2  783.12   29.60
   0   4   2  764.22   29.20
   0   4   2  775.72   29.50
   0   4   2  758.92   28.90
   0   4   2  758.42   31.30
   0   4  -2  802.72   27.80
   0   4  -2  808.72   27.90
   0   4  -2  826.82   32.70
   1  -4   2  375.16   15.20
  -1  -4  -2  377.66   15.50
   1  -4   2  381.16   16.70
   1   4   2  381.66   15.90
   1   4   2  382.56   15.70
  -1   4  -2  384.46   19.10
   1   4   2  397.56   15.90
   1   4   2  376.56   17.70
  -1   4  -2  380.26   15.30
  -2  -4  -2  539.65   20.90
   2  -4   2  587.44   23.50
   2  -4   2  540.35   21.70
   2   4   2  619.04   24.10
   2   4   2  556.14   21.60
  -2   4  -2  531.55   21.80
   2   4   2  544.95   21.50
   2   4   2  542.05   22.30
  -2   4  -2  554.04   25.70
   3  -4   2  138.99    9.00
  -3  -4  -2  150.18    7.90
  -3  -4  -2  145.89    7.20
  -3  -4  -2  140.29    9.50
  -3   4  -2  144.09   11.50
   3   4   2  135.69    8.20
  -3   4  -2  147.69    8.90
   3   4   2  134.29    9.60
  -4  -4  -2 1122.29   40.70
  -4  -4  -2 1158.78   40.20
  -4  -4  -2 1076.29   42.80
   4   4   2 1108.49   42.80
  -4   4  -2 1138.39   42.70
  -4   4  -2 1145.99   45.60
   4   4   2 1141.69   41.30
  -5  -4  -2  101.29   12.50
  -5  -4  -2  121.09    8.10
   5  -4   2  116.39   12.10
  -5  -4  -2  124.49    7.20
   5   4   2  118.19    9.60
   5   4   2  125.69    9.40
  -5   4  -2  119.79   12.30
  -5   4  -2  130.29    9.90
  -6  -4  -2   97.19    8.30
   6  -4   2  114.29   13.00
  -6  -4  -2  109.29    7.60
   6   4   2  109.19   10.10
  -6   4  -2  125.29   14.00
  -6   4  -2  105.29   10.70
  -7  -4  -2   21.20    4.50
  -7  -4  -2   20.60    5.20
   7  -4   2   29.00    9.60
  -7   4  -2   31.50    7.00
   7   4   2   33.70    6.40
  -7   4  -2   24.90    9.40
   8  -4   2   87.89   14.10
  -8   4  -2   65.59   12.70
  -8   4  -2   97.59   14.10
  -7  -5   2   41.30    6.60
   7  -5  -2   33.60   12.30
  -7   5   2   42.20    8.50
  -7   5   2   46.70   10.90
   6  -5  -2    8.30    8.70
  -6  -5   2    1.30    4.20
  -6   5   2   16.00    8.60
  -6   5   2   13.40    6.40
   5  -5  -2  140.79   15.30
  -5  -5   2  146.99   10.00
  -5   5   2  150.98   12.20
  -5   5   2  159.48   14.50
   4  -5  -2    3.90    6.30
  -4  -5   2   11.20    3.70
  -4   5   2    2.60    5.80
  -3  -5   2  147.29   12.10
  -3   5   2  146.39   12.70
  -3   5   2  148.89   10.10
   2  -5  -2  135.89   10.90
  -2   5   2  121.49   11.70
  -2   5   2  122.59    8.80
   1  -5  -2  596.54   25.10
  -1   5   2  628.24   24.20
  -1   5   2  548.25   24.00
   0  -5  -2   -0.20    3.20
   0   5   2    4.70    2.90
   0   5   2    0.50    3.50
   0   5   2    2.50    4.80
   0   5  -2   -9.00    5.50
   0   5  -2    2.50    2.40
  -1  -5  -2  301.47   14.10
   1  -5   2  302.07   16.40
   1   5   2  277.47   13.70
   1   5   2  293.57   18.10
  -1   5  -2  304.57   14.50
   1   5   2  304.67   13.70
  -1   5  -2  320.87   13.50
   2  -5   2   90.49    9.20
  -2  -5  -2   96.69    7.00
   2  -5   2   79.59    7.70
  -2   5  -2   98.99    7.60
   2   5   2   92.99    6.80
   2   5   2   87.29   10.60
  -2   5  -2   98.99   12.10
  -3  -5  -2   99.89    7.00
   3  -5   2   92.89   10.20
   3   5   2   89.99    6.90
  -3   5  -2   94.39   12.10
   3   5   2  102.09   10.60
  -3   5  -2   99.59    8.70
   4  -5   2   93.49   12.00
  -4  -5  -2  104.99    7.20
   4   5   2   95.59   11.40
  -4   5  -2  111.99   13.80
   4   5   2   99.89    7.70
  -4   5  -2  114.19    9.90
   5  -5   2   69.49   10.00
  -5  -5  -2   77.29    6.90
   5   5   2   84.49   10.00
  -5   5  -2   95.19   10.40
  -5   5  -2   99.49   14.70
   6  -5   2   -0.40    8.70
   6   5   2    1.40    7.20
  -6   5  -2    2.90    6.40
  -6   5  -2    1.10    9.80
  -4  -6   2   15.60    5.00
   4  -6  -2    3.20    8.60
  -4   6   2   26.00    7.10
  -4   6   2   15.00    8.90
   4   6  -2   14.00    9.00
   3  -6  -2  115.99   14.30
  -3  -6   2  112.99   10.10
   3   6  -2  108.09   15.30
  -3   6   2  118.89   15.30
   2  -6  -2   37.90    7.90
  -2  -6   2   26.40    5.60
   2   6  -2   14.30    8.30
  -2   6   2   14.60    5.40
  -2   6   2   24.20    9.10
   1  -6  -2  118.49   12.00
  -1  -6   2  105.59    9.90
  -1   6   2  113.89   14.00
   1   6  -2  113.39   15.00
  -1   6   2  114.79    9.60
   0  -6  -2   74.19    9.70
   0  -6   2   61.49    7.50
   0   6   2   78.59   11.30
   0   6  -2   45.00    9.80
   1  -6   2   17.80    5.90
  -1  -6  -2   18.50    5.50
  -1   6  -2    3.40    7.10
   1   6   2   25.90    7.90
   2  -6   2   48.50    8.30
  -2  -6  -2   40.10    7.40
   2   6   2   44.40   10.10
  -2   6  -2   47.90    9.70
  -3  -6  -2   26.60    5.60
   3  -6   2   43.70    8.80
  -3   6  -2   23.70    9.70
   3   6   2   46.50    9.50
   4  -6   2   42.30    9.50
   4   6   2   27.10    9.50
  -4   6  -2   14.10   10.80
  10   0  -3  -12.70    8.50
 -10   0   3    8.60    6.20
   9   0  -3  420.96   24.60
  -9   0   3  457.45   21.50
  -8   0   3   -2.60    3.30
   8   0  -3    0.40    5.30
   7   0  -3  943.41   38.70
  -7   0   3  937.61   36.10
   6   0  -3    1.00    3.50
  -6   0   3   -0.80    1.90
   6   0  -3    1.60    3.00
   5   0  -3 1457.85   51.19
  -5   0   3 1383.46   50.69
   5   0  -3 1500.95   52.99
  -5   0   3 1367.86   52.39
   4   0  -3    4.30    1.70
  -4   0   3   -0.30    2.40
  -4   0   3    0.00    1.30
  -4   0   3    0.00    0.60
   4   0  -3    0.30    2.10
  -4   0   3   -0.20    1.00
  -3   0   3 8719.43  284.47
  -3   0   3 8331.87  282.57
   3   0  -3 8440.66  283.37
   3   0  -3 8251.17  284.27
   2   0  -3   -0.40    0.90
  -2   0   3    0.10    0.90
  -2   0   3   -0.90    1.10
  -2   0   3    0.00    0.90
   1   0  -3 4508.55  152.48
   1   0  -3 4542.85  152.48
  -1   0   3 4528.55  152.58
  -1   0   3 4892.11  153.38
  -1   0   3 4495.05  153.08
  -1   0   3 4217.78  152.28
   0   0   3   -0.90    0.60
   0   0  -3    0.20    0.70
   0   0   3    1.40    1.20
   0   0   3    0.40    0.40
   0   0   3    0.60    0.60
   0   0  -3   -1.00    1.20
   1   0   3 3456.45  115.69
  -1   0  -3 3235.28  116.49
   1   0   3 3549.45  117.89
  -2   0  -3    0.70    0.60
   2   0   3    2.10    1.70
  -2   0  -3    2.10    1.10
  -2   0  -3    0.20    1.90
   2   0   3   -1.00    0.80
   2   0   3    2.60    1.30
   3   0   3 3537.05  118.49
  -3   0  -3 3201.88  118.29
  -3   0  -3 3483.25  119.19
   3   0   3 3641.64  119.19
  -4   0  -3   -0.40    1.60
   4   0   3    0.90    2.50
  -4   0  -3   -0.70    1.70
   4   0   3    0.80    2.00
   4   0   3   -0.10    2.50
   4   0   3   -0.30    2.10
  -5   0  -3 1946.91   69.29
   5   0   3 1945.61   70.39
  -5   0  -3 2103.49   70.99
   5   0   3 2030.60   70.29
   5   0   3 1986.60   70.59
   5   0   3 1916.71   70.39
   6   0   3    0.30    3.30
   6   0   3    1.60    3.40
  -6   0  -3    1.60    3.10
   6   0   3   -0.10    3.10
   7   0   3  555.24   23.20
   7   0   3  565.74   25.30
   7   0   3  575.64   23.70
   8   0   3   -7.00    5.30
   8   0   3   -9.40    4.00
  -8   0  -3   -2.00    4.20
  -9   0  -3  174.98   14.20
   9   0   3  172.18   16.40
 -10   0  -3   -3.50    6.80
  10   0   3   -0.60    9.20
  10  -1  -3   77.89   11.70
 -10  -1   3   86.89   10.00
  10   1  -3   88.39   12.00
 -10   1   3  106.89   12.80
   9  -1  -3  105.99   15.00
  -9  -1   3  124.39   10.40
  -9   1   3  110.19   11.20
   9   1  -3  134.99   13.70
  -8  -1   3  234.08   12.40
  -8   1   3  215.08   13.30
   8   1  -3  195.08   14.40
   7  -1  -3  328.37   12.80
  -7  -1   3  348.07   15.50
   7   1  -3  336.67   16.40
  -7   1   3  355.96   16.60
   7   1  -3  357.36   18.20
  -6  -1   3 2127.79   75.79
   6  -1  -3 2175.98   79.09
   6  -1  -3 2174.88   74.39
  -6   1   3 2181.18   77.19
   6   1  -3 2174.08   78.39
  -6   1   3 2206.68   74.09
   6   1  -3 2181.08   76.29
   5  -1  -3   41.70    3.60
  -5  -1   3   39.80    3.70
  -5  -1   3   29.10    4.50
   5  -1  -3   41.50    5.60
   5  -1  -3   37.50    5.00
   5   1  -3   43.20    4.20
   5   1  -3   37.80    5.30
  -5   1   3   36.50    4.30
  -5   1   3   44.00    6.00
  -5   1   3   37.70    3.30
   4  -1  -3  419.96   17.40
   4  -1  -3  434.86   16.20
  -4  -1   3  412.26   18.30
  -4  -1   3  432.66   15.00
  -4  -1   3  412.16   16.00
   4  -1  -3  411.86   18.30
   4   1  -3  407.76   17.80
  -4   1   3  426.36   15.80
  -4   1   3  455.85   17.50
   4   1  -3  426.26   16.30
  -4   1   3  395.26   17.60
   4   1  -3  404.56   15.50
  -3  -1   3 1236.98   43.80
  -3  -1   3 1200.18   41.50
   3  -1  -3 1206.78   43.50
  -3  -1   3 1192.28   41.50
   3  -1  -3 1220.58   42.30
   3  -1  -3 1162.28   42.80
   3   1  -3 1192.28   43.20
   3   1  -3 1188.38   41.60
   3   1  -3 1157.18   41.90
  -3   1   3 1267.97   43.30
  -3   1   3 1146.89   41.70
  -3   1   3 1239.98   43.00
  -2  -1   3  662.63   23.80
  -2  -1   3  658.03   24.30
   2  -1  -3  608.24   25.40
  -2  -1   3  677.23   23.10
  -2  -1   3  708.33   23.20
  -2  -1   3  685.63   24.90
  -2   1   3  644.04   25.10
  -2   1   3  668.33   24.50
   2   1  -3  615.94   24.10
  -1  -1   3 1095.19   38.10
  -1  -1   3 1137.89   37.40
  -1  -1   3 1031.30   38.50
   1  -1  -3 1103.49   39.20
   1  -1  -3 1109.79   38.10
  -1   1   3 1140.89   37.90
   1   1  -3 1109.29   38.50
  -1   1   3 1079.69   38.40
   1   1  -3 1086.29   37.40
  -1   1   3 1087.09   38.60
  -1   1   3 1066.09   38.80
   1   1  -3 1069.69   39.10
   0  -1  -3 3924.81  132.39
   0  -1  -3 3747.02  130.19
   0  -1   3 3801.12  130.69
   0  -1   3 4015.00  132.09
   0  -1  -3 3745.63  131.29
   0   1  -3 3791.82  130.69
   0   1  -3 4122.19  132.59
   0   1   3 3882.21  131.39
   0   1   3 3944.11  131.99
  -1  -1  -3  953.20   34.10
  -1  -1  -3  926.31   32.90
   1  -1   3  954.20   33.80
   1  -1   3  878.41   32.90
  -1   1  -3  918.01   32.70
   1   1   3  901.21   33.60
   1   1   3  922.21   32.90
  -1   1  -3  960.50   34.20
  -2  -1  -3 3829.62  129.39
   2  -1   3 3832.92  128.19
   2  -1   3 3937.31  129.09
   2  -1   3 3691.73  127.79
  -2  -1  -3 3746.83  126.49
  -2  -1  -3 3764.12  128.19
   2   1   3 3798.92  128.29
  -2   1  -3 3694.83  127.19
   2   1   3 3645.54  128.79
  -2   1  -3 3614.74  128.19
  -2   1  -3 3751.82  129.39
   2   1   3 3987.60  126.59
  -3  -1  -3  313.57   13.30
  -3  -1  -3  311.87   12.00
   3  -1   3  324.97   13.40
   3  -1   3  315.17   13.20
   3  -1   3  314.57   13.80
  -3   1  -3  310.37   12.30
   3   1   3  315.97   14.20
   3   1   3  303.47   12.10
  -3   1  -3  305.77   13.50
  -3   1  -3  305.77   14.20
   3   1   3  310.97   13.30
   3   1   3  324.27   13.80
   4  -1   3 2626.54   90.19
   4  -1   3 2596.14   90.19
  -4  -1  -3 2522.25   89.89
  -4  -1  -3 2543.95   88.79
   4  -1   3 2668.83   90.09
   4   1   3 2735.93   90.19
  -4   1  -3 2460.35   88.89
   4   1   3 2757.32   89.29
  -4   1  -3 2496.35   90.89
  -4   1  -3 2515.05   90.39
   4   1   3 2543.25   89.89
   4   1   3 2652.63   90.69
  -5  -1  -3  243.48   12.00
  -5  -1  -3  263.57   11.40
   5  -1   3  233.28   12.40
   5  -1   3  230.68   11.80
  -5   1  -3  226.98   11.10
  -5   1  -3  249.97   13.10
   5   1   3  242.88   11.70
  -5   1  -3  264.77   12.80
   5   1   3  230.88   12.40
   5   1   3  238.78   11.60
   5   1   3  221.38   12.00
  -6  -1  -3  459.95   20.80
  -6  -1  -3  457.75   20.20
   6  -1   3  498.05   20.50
   6  -1   3  516.15   22.40
   6   1   3  475.25   20.90
  -6   1  -3  481.35   21.60
  -6   1  -3  500.45   21.70
   6   1   3  474.55   20.80
   6   1   3  499.95   20.10
   7  -1   3   19.20    5.90
  -7  -1  -3    6.30    3.80
   7  -1   3   18.40    4.60
  -7  -1  -3   14.10    5.40
   7   1   3   16.90    3.80
   7   1   3   10.60    5.10
   7   1   3   19.30    4.80
  -7   1  -3   12.20    5.30
   8  -1   3  183.08   15.10
   8  -1   3  171.18   13.20
  -8  -1  -3  191.38   12.80
   8   1   3  183.88   13.30
  -8   1  -3  161.48   12.80
   8   1   3  161.78    9.80
   9  -1   3   66.19   11.30
  -9  -1  -3   85.89   11.60
  -9   1  -3   92.99   11.80
   9   1   3   71.29    9.60
 -10  -2   3    8.00    6.00
  10  -2  -3    7.60   11.00
  10   2  -3    9.10    9.00
 -10   2   3   11.40    6.90
   9  -2  -3   51.69   10.90
  -9  -2   3   42.80    6.70
   9   2  -3   40.20    8.90
  -9   2   3   39.00    7.30
  -8  -2   3  122.89    9.40
   8  -2  -3  107.69   18.10
  -8   2   3  121.29   10.80
  -8   2   3  113.39    8.40
   8   2  -3  132.99   12.20
   7  -2  -3    4.90    3.40
  -7  -2   3    3.40    2.50
   7   2  -3    3.20    3.50
   7   2  -3   -7.40    3.60
  -7   2   3    4.30    3.20
  -6  -2   3  345.47   12.40
   6  -2  -3  324.57   14.20
   6  -2  -3  334.87   18.00
  -6  -2   3  301.67   13.50
   6   2  -3  324.87   12.60
   6   2  -3  337.17   14.10
  -6   2   3  308.07   15.60
   6   2  -3  322.07   16.10
  -6   2   3  315.17   14.00
  -5  -2   3  347.17   16.50
   5  -2  -3  344.37   17.90
  -5  -2   3  369.16   14.40
   5  -2  -3  356.46   15.40
  -5  -2   3  362.96   13.90
  -5  -2   3  366.46   20.10
   5   2  -3  400.96   14.80
  -5   2   3  377.66   15.40
  -5   2   3  361.86   16.60
   5   2  -3  373.46   14.90
  -4  -2   3  101.89    4.70
   4  -2  -3   87.99    6.80
   4  -2  -3   92.49    6.10
   4  -2  -3   88.09    7.50
  -4  -2   3   87.59    7.90
  -4  -2   3  103.69    5.30
  -4  -2   3   96.09    6.70
  -4   2   3   93.89    5.90
  -4   2   3   90.59    6.60
   4   2  -3  101.59    4.90
  -4   2   3   97.69    6.70
   4   2  -3   84.39    5.90
  -3  -2   3 1647.14   56.39
  -3  -2   3 1620.34   57.89
   3  -2  -3 1722.03   59.29
   3  -2  -3 1679.23   59.69
   3  -2  -3 1687.73   58.89
  -3  -2   3 1641.84   58.69
  -3  -2   3 1691.53   59.89
  -3  -2   3 1656.33   56.39
  -3   2   3 1648.14   59.09
  -3   2   3 1624.44   58.29
  -3   2   3 1640.44   58.59
   3   2  -3 1774.02   58.79
   2  -2  -3  711.23   26.90
  -2  -2   3  695.13   27.20
  -2  -2   3  707.63   26.30
   2  -2  -3  706.73   27.00
  -2  -2   3  692.53   26.30
   2  -2  -3  739.43   26.90
  -2   2   3  759.92   26.10
  -2   2   3  696.83   26.50
   2   2  -3  723.83   27.10
  -2   2   3  708.93   26.90
  -1  -2   3 5273.37  172.18
  -1  -2   3 4941.81  171.18
   1  -2  -3 5125.29  172.68
  -1   2   3 4780.62  171.88
   1   2  -3 5052.79  172.68
  -1   2   3 5258.47  171.98
  -1   2   3 4956.80  171.88
   1   2  -3 5242.58  172.08
   0  -2   3 2016.10   69.69
   0  -2   3 2003.30   67.69
   0  -2  -3 2042.20   67.99
   0  -2  -3 2009.50   68.89
   0  -2  -3 2086.79   70.19
   0  -2   3 1923.61   68.39
   0   2  -3 2019.40   68.79
   0   2   3 1864.21   69.19
   0   2  -3 1945.51   67.79
   0   2   3 2020.20   68.99
   0   2   3 2039.30   67.39
   0   2  -3 1985.00   70.29
  -1  -2  -3  425.26   16.10
  -1  -2  -3  447.36   18.90
   1  -2   3  479.85   18.70
  -1  -2  -3  434.66   17.50
   1  -2   3  482.65   17.50
   1  -2   3  486.25   17.20
   1   2   3  473.95   16.30
  -1   2  -3  417.96   18.90
   1   2   3  492.45   18.40
  -1   2  -3  439.76   17.20
   1   2   3  471.75   17.80
  -1   2  -3  435.66   17.20
  -2  -2  -3  188.38   10.30
  -2  -2  -3  199.28    7.10
   2  -2   3  184.18    9.80
  -2  -2  -3  181.48    8.70
   2  -2   3  191.08    9.00
   2  -2   3  187.08    8.70
  -2  -2  -3  201.58    8.00
   2   2   3  181.58    8.80
   2   2   3  182.78    9.20
  -2   2  -3  184.18    8.90
  -2   2  -3  194.98   10.40
  -2   2  -3  188.68    8.30
  -3  -2  -3  910.21   30.50
   3  -2   3  856.01   32.20
  -3  -2  -3  826.22   29.40
  -3  -2  -3  846.62   32.80
   3  -2   3  850.51   31.40
   3  -2   3  847.02   31.80
  -3  -2  -3  828.12   31.10
   3   2   3  850.31   31.60
  -3   2  -3  838.02   30.60
   3   2   3  817.32   31.30
  -3   2  -3  824.92   33.00
  -3   2  -3  858.31   31.80
   4  -2   3  249.88   12.40
  -4  -2  -3  257.17   11.60
  -4  -2  -3  270.17   13.70
  -4  -2  -3  272.17   10.90
   4  -2   3  241.88   12.60
   4  -2   3  265.67   13.00
  -4  -2  -3  273.47   12.10
  -4   2  -3  279.77   14.10
  -4   2  -3  240.28   11.40
   4   2   3  241.08   11.90
   4   2   3  261.97   12.30
  -4   2  -3  274.57   12.90
   5  -2   3  464.55   20.30
   5  -2   3  476.95   21.30
  -5  -2  -3  481.95   19.60
  -5  -2  -3  475.25   19.90
   5   2   3  490.05   19.60
  -5   2  -3  498.75   22.00
  -5   2  -3  485.55   21.10
   5   2   3  488.75   18.90
   5   2   3  462.55   20.30
   5   2   3  448.96   21.00
  -6  -2  -3  140.59    9.00
   6  -2   3  126.19   10.60
  -6  -2  -3  120.79    9.30
   6  -2   3  109.69   10.00
  -6   2  -3  133.89   10.90
   6   2   3  124.69    8.00
  -6   2  -3  126.79    9.80
   6   2   3  130.69   10.90
   6   2   3  124.09    8.20
  -7  -2  -3  465.95   20.30
  -7  -2  -3  390.66   20.00
   7  -2   3  434.36   22.30
   7   2   3  424.66   22.10
   7   2   3  422.66   17.90
  -7   2  -3  427.36   21.20
   7   2   3  418.86   19.10
  -7   2  -3  431.76   21.80
  -8  -2  -3   15.90    5.40
   8  -2   3   -0.20    7.20
   8   2   3    9.30    4.00
   8   2   3    8.60    5.20
  -8   2  -3    7.60    6.80
  -8   2  -3   14.00    6.30
  -9  -2  -3   51.99    8.30
   9  -2   3   70.59   11.70
  -9   2  -3   46.20    8.80
   9   2   3   54.39    8.50
   9  -3  -3   12.70    9.40
  -9  -3   3    9.10    7.00
  -9   3   3   10.40    6.40
   8  -3  -3   41.10    9.60
  -8  -3   3   41.60    5.20
  -8  -3   3   41.10    7.20
  -8   3   3   49.99    7.00
  -8   3   3   46.90    7.90
   7  -3  -3  136.39   14.70
   7  -3  -3  114.09   11.10
  -7  -3   3  137.69    7.80
  -7  -3   3  127.29   11.10
  -7   3   3  141.39   11.50
   7   3  -3  127.89    8.70
  -7   3   3  146.19   10.70
   6  -3  -3  752.72   30.70
  -6  -3   3  759.72   27.70
  -6  -3   3  792.72   31.20
  -6  -3   3  741.43   28.60
   6   3  -3  777.02   29.40
  -6   3   3  759.32   30.50
   6   3  -3  801.42   28.00
  -5  -3   3  193.78    9.90
  -5  -3   3  221.68   11.50
   5  -3  -3  204.78   12.10
   5  -3  -3  199.78   13.50
  -5  -3   3  213.58    8.30
   5   3  -3  210.18   11.20
   5   3  -3  205.28    8.40
  -5   3   3  210.58   11.60
  -5   3   3  219.88   12.10
   4  -3  -3  136.09    9.80
   4  -3  -3  126.49    8.90
  -4  -3   3  104.69    6.90
  -4  -3   3  110.99    7.50
  -4   3   3  108.09    8.00
   4   3  -3  136.99    8.40
  -4   3   3  106.19    8.00
   3  -3  -3   67.19    6.30
  -3  -3   3   72.99    5.60
  -3  -3   3   76.99    7.70
   3  -3  -3   80.89    7.20
  -3  -3   3   79.99    5.50
   3  -3  -3   75.79    6.90
  -3   3   3   69.99    6.20
   3   3  -3   75.99    6.70
  -3   3   3   77.69    6.20
  -3   3   3   78.89    5.30
  -2  -3   3  287.47   12.90
   2  -3  -3  282.37   13.70
  -2  -3   3  286.67   12.20
   2  -3  -3  281.47   13.20
  -2   3   3  285.97   13.30
   2   3  -3  277.67   13.90
   2   3  -3  271.97   13.60
  -2   3   3  288.37   13.10
  -2   3   3  282.57   12.80
  -2   3   3  280.17   11.70
  -1  -3   3   39.30    4.90
   1  -3  -3   42.10    5.60
   1  -3  -3   41.40    4.40
  -1  -3   3   42.50    3.70
  -1   3   3   45.70    4.50
  -1   3   3   42.60    4.50
   1   3  -3   40.90    4.80
  -1   3   3   44.60    3.30
   1   3  -3   39.40    5.50
  -1   3   3   48.90    4.40
   0  -3  -3 2676.13   92.69
   0  -3   3 2464.75   91.69
   0  -3  -3 2666.03   90.29
   0  -3   3 2641.34   89.19
   0  -3   3 2602.74   90.59
   0   3  -3 2672.13   93.19
   0   3   3 2642.44   91.79
   0   3  -3 2650.83   89.39
   0   3   3 2675.13   89.59
   0   3   3 2641.14   90.99
   0   3  -3 2666.73   91.19
   0   3   3 2661.03   91.19
  -1  -3  -3   44.50    3.30
  -1  -3  -3   46.50    6.20
   1  -3   3   47.30    4.20
   1  -3   3   41.30    3.50
  -1  -3  -3   40.80    4.00
  -1   3  -3   38.30    5.80
  -1   3  -3   45.00    4.30
  -1   3  -3   37.40    3.70
   1   3   3   51.19    3.60
   1   3   3   47.20    4.40
   1   3   3   41.00    4.60
  -2  -3  -3 1726.33   63.49
  -2  -3  -3 1810.02   59.79
  -2  -3  -3 1758.02   60.79
  -2  -3  -3 1803.02   61.29
   2  -3   3 1721.13   61.99
   2  -3   3 1587.24   62.49
   2  -3   3 1767.12   60.99
  -2   3  -3 1696.73   61.09
   2   3   3 1781.62   61.59
  -2   3  -3 1828.52   64.39
   2   3   3 1751.62   62.29
  -2   3  -3 1751.92   61.49
  -3  -3  -3   30.40    5.50
  -3  -3  -3   35.10    4.10
   3  -3   3   35.70    5.00
  -3  -3  -3   36.20    4.70
   3  -3   3   35.60    4.50
  -3  -3  -3   34.80    2.70
   3   3   3   26.00    3.80
  -3   3  -3   39.40    4.70
   3   3   3   28.20    3.80
  -3   3  -3   26.50    5.10
  -4  -3  -3  882.31   32.30
  -4  -3  -3  734.53   34.10
   4  -3   3  858.81   34.20
  -4  -3  -3  885.61   32.20
  -4  -3  -3  879.31   30.40
   4   3   3  900.31   32.80
   4   3   3  847.42   32.60
  -4   3  -3  839.02   33.20
  -4   3  -3  870.61   35.30
  -5  -3  -3   15.30    6.60
  -5  -3  -3   14.50    2.70
   5  -3   3   16.40    5.10
  -5  -3  -3   14.30    4.80
  -5  -3  -3   22.90    3.80
   5   3   3   16.40    3.60
  -5   3  -3   22.70    4.60
  -5   3  -3   22.70    5.80
   5   3   3    7.90    5.10
  -6  -3  -3  130.09   11.20
  -6  -3  -3  144.99    8.10
   6  -3   3  128.69   12.40
  -6  -3  -3  137.29    9.30
  -6   3  -3  157.58   13.40
   6   3   3  124.89    9.00
  -7  -3  -3   25.70    6.00
  -7  -3  -3   24.60    4.50
   7  -3   3   35.90    8.30
   7   3   3   23.00    4.80
  -7   3  -3   21.50    7.80
  -7   3  -3   15.50    6.20
  -8  -3  -3   42.00    7.20
   8  -3   3   47.20   10.70
  -8  -3  -3   41.20    7.50
  -8   3  -3   35.60    8.00
  -8   3  -3   40.80   10.00
  -8  -4   3   36.20    7.30
   8  -4  -3   23.80   10.30
  -8   4   3   44.30    8.80
  -8   4   3   29.20    8.30
  -7  -4   3   10.40    5.00
   7  -4  -3   10.90    9.90
  -7   4   3    5.40    5.80
  -6  -4   3  278.67   14.70
   6  -4  -3  260.47   18.90
   6   4  -3  268.97   15.50
  -6   4   3  276.97   16.30
  -6   4   3  295.17   16.40
  -5  -4   3  363.46   18.80
   5   4  -3  371.46   18.70
  -5   4   3  404.86   19.40
   4  -4  -3  108.59   10.30
  -4  -4   3   97.79    7.40
  -4   4   3  105.89    8.70
   4   4  -3  108.59    9.60
  -4   4   3  106.39    9.60
  -3  -4   3  415.06   17.70
   3  -4  -3  444.86   20.30
  -3   4   3  430.56   19.10
  -3   4   3  415.46   19.80
   3   4  -3  431.86   20.50
  -2  -4   3  121.29    7.00
   2  -4  -3  108.39    8.50
  -2   4   3  118.39    7.90
   2   4  -3  109.69    9.60
  -2   4   3  114.49    9.10
  -2   4   3  104.19    8.50
  -2   4   3  104.29    6.80
  -1  -4   3  546.35   21.40
   1  -4  -3  544.75   22.20
  -1   4   3  519.25   20.50
  -1   4   3  540.75   22.10
   1   4  -3  517.15   24.20
  -1   4   3  576.14   23.60
  -1   4   3  541.05   22.00
   0  -4   3   39.20    3.10
   0  -4   3   35.50    4.30
   0  -4  -3   29.20    4.00
   0   4  -3   29.30    3.00
   0   4   3   40.80    5.00
   0   4   3   39.00    4.70
   0   4   3   27.00    3.90
   0   4   3   26.50    4.40
   0   4  -3   23.10    4.80
   1  -4   3  159.08    8.90
  -1  -4  -3  141.79    7.70
   1  -4   3  147.49    7.50
   1   4   3  145.69    8.00
  -1   4  -3  143.29    7.60
  -1   4  -3  168.08   11.60
   1   4   3  152.08    8.40
   1   4   3  138.49    8.40
   1   4   3  140.29    9.60
  -2  -4  -3  164.48    8.10
   2  -4   3  170.58    9.00
   2   4   3  196.58   11.00
  -2   4  -3  166.88   12.50
  -2   4  -3  162.28    9.20
   2   4   3  172.68    9.60
  -3  -4  -3  117.49    7.30
  -3  -4  -3  127.49    6.20
  -3  -4  -3  117.79    8.60
   3  -4   3   99.99    8.10
   3   4   3  103.79    8.50
  -3   4  -3  120.79    8.20
  -3   4  -3  103.39   10.60
   3   4   3   98.99    7.80
  -4  -4  -3  209.28    9.00
  -4  -4  -3  185.78   10.40
  -4  -4  -3  189.58   12.30
  -4   4  -3  186.98   14.60
   4   4   3  194.38   11.70
   4   4   3  214.68   12.20
  -4   4  -3  198.68   11.80
   5  -4   3   65.99    9.00
  -5  -4  -3   72.79    7.40
  -5  -4  -3   74.49    5.40
  -5   4  -3   64.99    9.50
   5   4   3   87.39    9.00
  -6  -4  -3   16.00    4.60
   6  -4   3   22.70    7.50
  -6  -4  -3   17.20    3.40
  -6   4  -3   25.60    8.80
  -6   4  -3   23.30    6.20
   6   4   3   13.60    5.20
   7  -4   3  185.88   18.40
  -7  -4  -3  184.78   13.90
   7   4   3  173.68   13.40
  -7   4  -3  181.58   19.90
  -7   4  -3  172.08   15.30
  -7  -5   3  123.79   11.80
   7  -5  -3  140.59   16.80
  -7   5   3  115.49   14.80
  -7   5   3  123.99   14.70
  -6  -5   3  185.38   12.20
   6  -5  -3  180.98   19.30
  -6   5   3  179.78   14.80
  -6   5   3  167.18   17.00
   5  -5  -3  101.89   14.40
  -5  -5   3  101.49    9.00
  -5   5   3  111.09   10.90
  -5   5   3  116.89   13.60
  -4  -5   3  172.08   10.50
   4  -5  -3  199.18   15.10
  -4   5   3  188.18   14.50
  -4   5   3  142.09   13.60
  -3  -5   3   41.60    6.10
  -3   5   3   42.00    7.80
  -3   5   3   38.70    6.10
  -2  -5   3   36.10    4.90
   2  -5  -3   22.60    5.30
  -2   5   3   31.60    7.00
  -2   5   3   37.00    5.50
  -1  -5   3  378.66   17.30
   1  -5  -3  398.16   18.70
  -1   5   3  380.86   17.70
   1   5  -3  408.06   22.00
   0  -5   3  133.09    9.50
   0  -5  -3  152.78    9.90
   0   5  -3  151.58   13.60
   0   5   3  159.78   12.70
   0   5   3  155.78   11.90
   0   5   3  151.08    9.50
   0   5  -3  144.49    6.60
  -1  -5  -3   84.29    7.30
   1  -5   3   75.89    7.80
   1   5   3   69.19    9.70
   1   5   3   81.49    8.20
   1   5   3   80.19    7.20
  -1   5  -3   69.99    6.00
   2  -5   3   39.10    6.00
  -2  -5  -3   39.40    5.60
  -2   5  -3   49.80    6.30
   2   5   3   43.30    5.40
  -2   5  -3   49.10    9.10
   2   5   3   37.50    7.40
  -3  -5  -3   80.69    6.60
   3  -5   3   84.59    9.70
   3   5   3   88.99   10.60
  -3   5  -3   89.29   12.80
  -3   5  -3   89.39    8.60
   3   5   3   84.59    7.50
   4  -5   3   82.19   11.90
  -4  -5  -3   61.59    6.20
  -4   5  -3   66.19   11.20
   4   5   3   82.99   11.00
  -4   5  -3   61.69    9.20
   4   5   3   78.39    7.70
   5  -5   3   21.10    7.50
  -5   5  -3   25.80    6.80
   5   5   3   22.40    7.20
  -5   5  -3   30.70   10.40
   6  -5   3   77.19   12.50
  -6   5  -3   90.19   13.80
  -6   5  -3   88.29   15.70
   6   5   3  110.79   13.60
   4  -6  -3   24.80    9.50
  -4  -6   3   15.30    5.20
   4   6  -3   10.00    9.60
  -4   6   3    8.90    9.10
  -4   6   3   15.40    7.30
  -3  -6   3  123.09   10.70
   3  -6  -3  113.89   15.50
  -3   6   3  114.19   11.90
  -3   6   3  125.39   16.20
   3   6  -3  129.69   16.30
   2  -6  -3  185.08   15.70
  -2  -6   3  179.88   12.20
   2   6  -3  182.18   18.00
  -2   6   3  196.38   17.20
  -1  -6   3   44.70    6.40
   1  -6  -3   52.49    8.40
  -1   6   3   45.30    6.60
  -1   6   3   30.80    8.10
   1   6  -3   44.70    9.70
   0  -6  -3   86.29   11.30
   0  -6   3  110.59   10.60
   0   6   3  113.49   14.50
   0   6   3  104.69    9.60
   0   6  -3   87.69   12.20
   1  -6   3  123.29   12.00
   1   6   3  115.09   15.30
  -1   6  -3  140.09   16.40
   2  -6   3   93.29   11.90
   2   6   3  107.29   12.90
  -2   6  -3   67.99   11.80
   3  -6   3   15.00    7.40
  -3   6  -3   11.10    9.80
   3   6   3   -6.90    7.80
 -10   0   4  378.46   21.10
  10   0  -4  395.06   25.10
   9   0  -4   -9.10    6.60
  -9   0   4    0.00    4.50
  -8   0   4  241.68   13.40
  -7   0   4   -3.10    2.50
  -6   0   4 1172.98   41.50
   6   0  -4 1076.29   41.60
   6   0  -4 1103.99   43.70
  -5   0   4   -0.80    3.20
   5   0  -4    1.70    2.00
  -5   0   4    0.30    1.70
  -5   0   4    1.40    1.30
   5   0  -4   -1.40    2.80
   4   0  -4 4825.62  166.98
  -4   0   4 5064.99  167.18
   4   0  -4 4962.00  165.68
  -4   0   4 4702.73  165.48
  -4   0   4 4932.91  164.08
  -4   0   4 4785.22  164.48
   3   0  -4   -0.50    1.70
   3   0  -4    3.80    1.50
  -3   0   4    1.00    1.60
  -3   0   4   -1.40    1.30
  -3   0   4    0.00    2.00
  -3   0   4   -0.70    1.20
  -2   0   4 1462.95   49.20
   2   0  -4 1371.56   48.90
  -2   0   4 1347.37   50.09
  -2   0   4 1434.46   50.59
  -2   0   4 1345.17   48.30
  -2   0   4 1379.66   48.60
   1   0  -4    1.00    1.00
  -1   0   4    0.10    0.90
   1   0  -4    0.60    1.00
  -1   0   4    0.00    1.50
  -1   0   4   -0.30    1.80
  -1   0   4    0.60    1.20
   0   0   4 1753.62   60.79
   0   0   4 1790.22   61.99
   0   0  -4 1819.32   63.49
   0   0  -4 1823.42   61.99
   0   0   4 1848.62   61.29
   0   0   4 1777.82   63.39
   0   0   4 1787.22   63.39
  -1   0  -4    0.20    1.10
   1   0   4    1.90    1.10
   1   0   4    1.50    0.60
  -1   0  -4   -0.30    0.50
   1   0   4    0.50    1.90
  -1   0  -4   -0.80    1.90
  -2   0  -4 2140.09   75.19
   2   0   4 2127.79   73.79
  -2   0  -4 2069.99   73.79
  -2   0  -4 2099.99   71.89
   2   0   4 2229.58   75.29
   2   0   4 2121.99   72.39
   3   0   4   -0.30    1.70
   3   0   4   -0.90    2.60
  -3   0  -4    2.10    1.50
   3   0   4    2.60    2.40
   4   0   4 1217.58   43.00
   4   0   4 1136.09   44.20
   4   0   4 1204.18   44.80
  -4   0  -4 1227.28   41.90
   4   0   4 1134.29   43.60
  -4   0  -4 1236.58   44.00
   5   0   4   -3.90    3.30
   5   0   4    1.90    3.70
  -5   0  -4   -0.40    2.10
  -5   0  -4    1.70    2.10
   5   0   4   -0.50    2.70
   6   0   4 1262.37   46.90
  -6   0  -4 1293.57   47.00
   6   0   4 1212.38   46.30
   6   0   4 1183.28   46.10
  -6   0  -4 1223.58   44.70
   7   0   4    2.30    4.50
   7   0   4   -3.60    4.40
  -7   0  -4   -0.60    3.60
   7   0   4    0.20    5.30
   8   0   4  175.48   13.00
   8   0   4  199.68   14.80
  -8   0  -4  175.08   13.00
   9   0   4   -6.30    7.60
  -9   0  -4    4.00    6.40
  10  -1  -4   28.50   10.40
 -10  -1   4   16.70    6.90
  10   1  -4   12.90    9.00
 -10   1   4   24.90    7.70
  -9  -1   4  351.36   18.00
   9  -1  -4  356.76   22.60
   9   1  -4  384.46   22.10
  -9   1   4  356.16   19.20
  -8  -1   4   47.10    6.50
  -8   1   4   34.70    6.10
   8   1  -4   35.50    7.10
  -7  -1   4  365.46   16.00
   7   1  -4  366.06   18.70
   7   1  -4  290.27   16.40
  -7   1   4  363.46   13.80
  -7   1   4  371.56   17.30
  -7   1   4  372.26   13.30
  -6  -1   4   37.40    4.40
   6  -1  -4   38.90    4.60
   6  -1  -4   38.20    6.20
  -6   1   4   38.40    3.80
   6   1  -4   40.50    6.10
  -6   1   4   33.00    4.70
   6   1  -4   37.60    5.20
  -5  -1   4  928.61   33.10
   5  -1  -4  974.60   36.30
  -5  -1   4  909.71   31.70
   5  -1  -4  897.01   34.20
  -5  -1   4  946.11   31.30
  -5  -1   4  810.82   35.50
   5   1  -4  954.30   35.60
  -5   1   4  894.21   35.30
  -5   1   4  921.61   34.40
   5   1  -4  941.81   33.50
  -5   1   4  812.92   32.70
  -4  -1   4  144.39    6.70
  -4  -1   4  149.88    7.10
   4  -1  -4  149.88    9.30
   4  -1  -4  152.78    7.90
   4   1  -4  148.89    8.80
  -4   1   4  143.09    8.80
  -4   1   4  137.79    8.10
   4   1  -4  147.89    7.40
  -4   1   4  154.38    7.00
   4   1  -4  156.58    7.40
   3  -1  -4  218.38   11.30
  -3  -1   4  258.07   12.00
   3  -1  -4  213.38   10.70
   3  -1  -4  222.98   10.70
  -3  -1   4  263.77   10.30
  -3   1   4  264.47   11.40
  -3   1   4  251.47   10.30
   3   1  -4  212.38   10.70
  -3   1   4  246.28   11.10
  -2  -1   4  590.24   23.10
  -2  -1   4  655.43   23.40
  -2  -1   4  647.24   22.40
   2  -1  -4  606.24   23.80
   2  -1  -4  610.04   23.40
  -2  -1   4  607.84   23.80
  -2  -1   4  618.84   22.10
  -2   1   4  636.24   23.30
  -2   1   4  597.54   23.40
   2   1  -4  626.64   23.80
  -2   1   4  623.24   23.10
  -1  -1   4 4564.14  150.08
  -1  -1   4 4694.83  149.69
   1  -1  -4 4127.89  149.29
  -1  -1   4 4392.96  148.49
   1  -1  -4 4706.83  150.78
   1  -1  -4 4441.46  148.79
  -1  -1   4 4332.77  148.79
  -1   1   4 4417.96  148.59
   1   1  -4 4362.86  148.49
  -1   1   4 4410.36  149.99
  -1   1   4 4240.48  149.39
   1   1  -4 4260.67  150.38
   0  -1  -4  105.19    5.70
   0  -1   4  105.19    6.50
   0  -1   4   99.39    4.80
   0  -1  -4  105.09    4.30
   0  -1  -4  104.49    6.60
   0   1  -4  107.09    5.30
   0   1   4  107.59    4.20
   0   1   4  105.89    5.60
   0   1  -4  102.49    6.70
   0   1   4  102.59    6.40
  -1  -1  -4 3083.89   99.39
   1  -1   4 2935.11   97.29
   1  -1   4 2955.40   98.79
  -1  -1  -4 2716.63   97.39
   1  -1   4 2816.82   96.49
  -1   1  -4 2817.92   97.29
   1   1   4 2757.02   98.49
  -1   1  -4 2777.22   96.49
  -1   1  -4 2802.82   99.09
   2  -1   4  378.06   14.60
   2  -1   4  392.36   16.40
  -2  -1  -4  373.26   15.30
   2  -1   4  377.26   15.20
   2   1   4  374.56   15.40
  -2   1  -4  365.26   16.70
  -2   1  -4  376.76   14.10
   2   1   4  398.26   16.90
  -2   1  -4  369.86   15.30
   2   1   4  334.87   15.90
  -3  -1  -4  469.15   18.80
  -3  -1  -4  479.55   16.60
   3  -1   4  452.05   18.30
   3  -1   4  452.15   19.50
   3  -1   4  451.05   18.60
  -3   1  -4  464.05   20.30
   3   1   4  442.26   19.50
  -3   1  -4  496.15   17.50
   3   1   4  456.15   16.90
   3   1   4  475.15   20.30
  -3   1  -4  468.45   19.00
   4  -1   4    4.80    2.40
  -4  -1  -4    2.70    1.90
   4  -1   4   -0.10    2.60
   4  -1   4    7.90    3.10
   4   1   4    2.50    2.40
   4   1   4    1.50    2.50
   4   1   4    3.30    3.50
  -4   1  -4    2.40    3.10
  -4   1  -4    6.50    1.70
  -4   1  -4    7.20    2.40
  -5  -1  -4  528.35   19.60
   5  -1   4  488.75   21.50
  -5  -1  -4  522.55   21.40
   5  -1   4  515.05   21.60
   5   1   4  490.65   21.30
  -5   1  -4  497.85   19.70
   5   1   4  487.65   20.00
  -5   1  -4  501.05   21.60
   5   1   4  468.35   21.90
  -5   1  -4  515.45   22.60
  -6  -1  -4    8.60    3.20
  -6  -1  -4   13.40    3.50
   6  -1   4   14.00    4.90
   6  -1   4    9.30    4.30
  -6   1  -4    8.30    4.60
   6   1   4    7.40    5.20
   6   1   4   11.10    3.50
   6   1   4    3.60    3.80
  -7  -1  -4  177.08   12.00
   7  -1   4  189.58   13.90
  -7  -1  -4  208.28   12.60
   7   1   4  197.38   14.10
   7   1   4  191.58   12.40
  -7   1  -4  198.88   14.10
   7   1   4  196.78   11.80
   8  -1   4   57.29    8.70
  -8  -1  -4   48.60    7.50
   8  -1   4   34.00    8.50
  -8   1  -4   58.39    8.30
   8   1   4   44.40    6.20
   8   1   4   44.90    7.40
  -9  -1  -4  279.27   18.10
   9  -1   4  307.47   21.90
  -9   1  -4  276.07   18.80
   9   1   4  312.77   18.90
 -10  -2   4  156.48   13.80
  10  -2  -4  115.89   15.60
 -10   2   4  152.18   15.60
  10   2  -4  158.48   18.00
   9  -2  -4   24.50    9.00
  -9  -2   4   27.00    5.50
  -9   2   4   22.40    6.80
   9   2  -4   26.90    7.70
  -8  -2   4  151.08   10.10
   8  -2  -4  185.78   15.70
  -8   2   4  158.48   12.10
  -8   2   4  152.48    9.40
   8   2  -4  172.38   13.60
  -7  -2   4  149.99    8.70
   7  -2  -4  149.79    9.60
   7   2  -4  143.79   11.40
  -7   2   4  159.98    9.00
   7   2  -4  144.19    9.60
   6  -2  -4  553.24   22.90
   6  -2  -4  585.64   26.50
  -6  -2   4  614.94   20.50
  -6  -2   4  590.74   21.90
  -6   2   4  550.44   22.30
   6   2  -4  556.94   24.70
   6   2  -4  550.84   21.20
  -6   2   4  581.64   26.90
   6   2  -4  553.94   22.10
   5  -2  -4  358.66   18.20
  -5  -2   4  370.56   14.40
  -5  -2   4  378.06   17.10
   5  -2  -4  383.46   16.20
  -5  -2   4  326.97   14.20
  -5   2   4  371.56   16.90
  -5   2   4  377.46   15.50
   5   2  -4  378.96   15.50
   5   2  -4  376.86   14.70
   4  -2  -4 1060.39   40.60
  -4  -2   4 1095.09   36.90
   4  -2  -4 1043.50   39.70
  -4  -2   4 1048.20   37.70
  -4  -2   4 1045.60   39.50
  -4  -2   4 1026.60   40.80
  -4  -2   4 1104.49   36.90
   4  -2  -4 1039.30   39.10
  -4   2   4 1060.49   39.30
   4   2  -4 1019.30   38.70
  -4   2   4 1063.99   38.40
  -4   2   4 1115.89   39.90
  -3  -2   4  217.98    8.20
   3  -2  -4  194.48   10.60
   3  -2  -4  199.38   10.70
  -3  -2   4  216.98   11.60
  -3  -2   4  258.37   10.30
  -3  -2   4  228.78    8.30
  -3  -2   4  218.38   10.40
   3  -2  -4  209.48   11.30
  -3   2   4  222.98   10.90
  -3   2   4  216.38   10.10
   3   2  -4  210.78   10.80
  -3   2   4  220.18   10.30
  -2  -2   4  195.68    9.50
   2  -2  -4  199.18   10.30
  -2  -2   4  195.58    7.40
   2  -2  -4  203.18    9.80
  -2  -2   4  190.68    9.00
  -2  -2   4  187.98    7.40
  -2  -2   4  190.08   10.00
  -2   2   4  198.48    9.60
  -2   2   4  190.48    9.30
  -2   2   4  202.48    8.80
  -2   2   4  201.98    9.90
   2   2  -4  195.38   10.20
   1  -2  -4  628.54   25.20
  -1  -2   4  710.93   25.60
  -1  -2   4  699.03   23.10
   1  -2  -4  654.53   26.00
  -1  -2   4  613.94   24.00
   1   2  -4  648.04   26.10
  -1   2   4  676.13   25.30
  -1   2   4  680.33   25.10
  -1   2   4  605.54   23.90
  -1   2   4  628.74   25.10
   1   2  -4  678.13   25.10
   1   2  -4  678.63   23.10
   0  -2  -4    3.60    2.80
   0  -2  -4    8.30    2.00
   0  -2   4   12.10    3.00
   0  -2   4    7.40    1.60
   0  -2   4    9.10    1.60
   0   2   4    6.90    1.90
   0   2   4    7.50    2.10
   0   2  -4    3.00    1.60
   0   2  -4    3.00    2.30
   0   2   4    9.50    1.20
  -1  -2  -4  336.67   12.30
  -1  -2  -4  340.77   14.30
   1  -2   4  347.27   15.30
  -1  -2  -4  325.57   15.90
   1  -2   4  363.06   13.70
   1  -2   4  359.26   13.80
  -1   2  -4  338.77   13.80
  -1   2  -4  362.46   13.90
   1   2   4  350.56   14.50
   1   2   4  327.47   14.90
  -1   2  -4  344.27   16.10
   2  -2   4  687.13   28.60
   2  -2   4  718.33   27.40
  -2  -2  -4  742.83   27.60
   2  -2   4  717.93   27.20
  -2  -2  -4  750.02   29.70
  -2   2  -4  782.72   30.10
  -2   2  -4  773.52   27.00
  -2   2  -4  764.42   27.80
   2   2   4  716.93   28.30
   2   2   4  711.13   27.80
   3  -2   4   91.99    6.30
  -3  -2  -4   88.19    8.00
  -3  -2  -4   96.19    4.70
   3  -2   4   89.29    7.50
  -3  -2  -4   95.89    6.20
   3  -2   4   95.19    6.40
  -3  -2  -4   94.69    3.90
  -3   2  -4   98.49    8.20
   3   2   4   91.79    6.90
  -3   2  -4   88.19    6.50
  -3   2  -4   97.69    5.50
   3   2   4   91.89    6.50
   4  -2   4  628.24   25.50
  -4  -2  -4  622.54   22.80
   4  -2   4  585.84   25.50
   4  -2   4  651.33   25.50
  -4  -2  -4  611.34   22.20
  -4  -2  -4  628.24   26.50
  -4  -2  -4  622.94   24.60
   4   2   4  602.24   25.00
  -4   2  -4  625.34   25.40
  -4   2  -4  568.74   23.30
  -4   2  -4  636.84   26.90
   4   2   4  650.03   25.00
  -5  -2  -4  115.89    6.50
   5  -2   4  113.29    9.20
  -5  -2  -4  119.59    8.30
  -5  -2  -4  128.29    7.40
  -5   2  -4  111.59   10.30
   5   2   4  108.29   11.40
   5   2   4  114.09    8.20
  -5   2  -4  117.19    8.90
  -6  -2  -4  316.97   15.20
  -6  -2  -4  311.07   14.10
   6  -2   4  292.07   16.60
   6   2   4  264.37   17.50
   6   2   4  289.27   13.30
   6   2   4  279.07   14.20
  -6   2  -4  301.07   17.50
   7  -2   4   48.80    7.90
  -7  -2  -4   53.19    7.90
   7   2   4   63.69    7.30
  -7   2  -4   47.50    8.60
   7   2   4   47.80    7.00
  -7   2  -4   41.10    7.00
   8  -2   4   52.49   10.40
  -8  -2  -4   50.29    7.40
   8   2   4   51.99    7.00
  -8   2  -4   49.99    8.30
   8   2   4   50.39    7.10
  -8   2  -4   64.19   10.10
  -9  -2  -4    3.50    6.20
   9  -2   4    9.50   10.00
  -9   2  -4   21.60    7.90
   9  -3  -4   29.50   11.90
  -9  -3   4   51.59    9.00
  -9   3   4   84.89   12.60
   8  -3  -4    8.40    8.40
  -8  -3   4    1.50    5.90
  -8   3   4   -1.90    5.30
  -8   3   4    6.60    5.30
   7  -3  -4  168.48   15.50
  -7  -3   4  173.38   12.30
  -7  -3   4  169.98    8.70
  -7   3   4  172.28   11.40
  -7   3   4  163.38   12.50
   7   3  -4  160.48   10.00
  -6  -3   4   24.10    3.60
   6  -3  -4   26.30    7.00
  -6   3   4   28.00    5.10
   6   3  -4   26.30    4.70
   6   3  -4   26.00    4.90
   5  -3  -4  189.48   12.70
  -5  -3   4  220.48   12.00
  -5  -3   4  227.48   10.60
   5  -3  -4  213.48   14.20
  -5   3   4  233.88   12.70
  -5   3   4  221.48   12.00
   5   3  -4  212.08   11.90
   4  -3  -4    6.60    3.90
   4  -3  -4   12.10    4.50
  -4  -3   4    6.50    2.60
  -4  -3   4    4.90    2.60
  -4   3   4    5.80    2.80
  -4   3   4    4.20    2.90
   4   3  -4    2.70    3.30
   3  -3  -4  976.00   37.10
  -3  -3   4  925.81   35.40
   3  -3  -4  942.91   37.10
  -3  -3   4  923.01   35.40
  -3   3   4  897.41   34.80
  -3   3   4  980.30   36.70
  -3   3   4 1020.90   38.40
   3   3  -4  995.70   37.10
  -3   3   4  978.00   36.20
   2  -3  -4  432.26   17.80
  -2  -3   4  434.56   16.80
   2  -3  -4  378.06   18.50
  -2  -3   4  422.66   17.60
  -2   3   4  394.36   17.50
   2   3  -4  371.26   18.30
  -2   3   4  428.66   17.90
  -2   3   4  406.46   17.60
  -2   3   4  422.96   16.00
   2   3  -4  397.46   18.60
   1  -3  -4  784.92   28.90
   1  -3  -4  732.93   30.80
  -1  -3   4  789.42   28.60
  -1  -3   4  757.52   29.90
  -1   3   4  795.32   29.90
  -1   3   4  796.02   29.50
   1   3  -4  759.52   31.00
  -1   3   4  770.82   27.40
  -1   3   4  787.42   29.70
   1   3  -4  731.23   29.60
   0  -3   4  183.98    7.60
   0  -3  -4  166.28   11.10
   0  -3   4  172.38   10.40
   0  -3   4  187.48    8.80
   0  -3  -4  186.28    8.60
   0   3  -4  197.38   11.60
   0   3   4  181.88    9.90
   0   3  -4  194.48    8.00
   0   3   4  169.18    9.20
   0   3  -4  181.08    9.60
   0   3   4  186.38    7.60
   0   3   4  183.08    9.50
  -1  -3  -4  350.26   14.70
   1  -3   4  346.27   14.50
   1  -3   4  313.47   16.10
  -1  -3  -4  344.47   17.10
   1  -3   4  335.97   13.50
  -1   3  -4  337.17   17.10
   1   3   4  333.67   14.70
  -1   3  -4  343.27   13.90
   1   3   4  341.07   15.40
  -2  -3  -4  142.19    7.90
  -2  -3  -4  145.79    7.00
   2  -3   4  137.79    8.20
  -2  -3  -4  141.69    6.20
   2  -3   4  132.89    7.40
   2   3   4  122.79    8.10
  -2   3  -4  144.29    8.00
   2   3   4  145.19    8.70
  -2   3  -4  148.89   10.50
  -3  -3  -4  127.09    6.10
  -3  -3  -4  125.59    7.80
   3  -3   4  133.49    8.00
   3  -3   4  130.39    8.70
  -3   3  -4  139.59   10.90
   3   3   4  129.69    8.70
  -3   3  -4  126.89    8.30
   3   3   4  132.39    8.50
   4  -3   4  129.59    9.70
  -4  -3  -4  110.39    7.70
  -4  -3  -4  116.69    7.90
  -4  -3  -4  120.59    5.50
  -4   3  -4  117.79    8.80
   4   3   4  124.09    8.70
  -4   3  -4  121.19   11.00
  -5  -3  -4  104.99    8.30
  -5  -3  -4  111.39    5.80
  -5  -3  -4  112.09    8.40
   5   3   4  112.09    8.40
  -5   3  -4  110.19   12.10
  -5   3  -4  120.89    9.40
  -6  -3  -4   63.59    7.50
  -6  -3  -4   66.19    5.40
   6  -3   4   57.59    8.40
  -6   3  -4   72.09    9.00
   6   3   4   51.79    7.30
  -7  -3  -4  231.48   13.90
   7  -3   4  218.08   17.30
   7   3   4  199.88   12.50
  -7   3  -4  230.68   18.80
  -7   3  -4  220.68   15.60
   8  -3   4   19.70    9.50
  -8  -3  -4   25.40    6.60
  -8   3  -4   19.90    7.90
  -8   3  -4    7.50    9.80
   8  -4  -4   36.40   10.90
  -8  -4   4   27.10    6.90
  -8   4   4   29.00    8.60
  -8   4   4   30.60    8.50
  -7  -4   4   96.69   10.40
   7  -4  -4  114.59   14.00
  -7   4   4  101.99   11.80
  -7   4   4  106.19   12.00
  -6  -4   4   18.40    4.80
   6  -4  -4   17.50    7.50
   6   4  -4   21.70    6.20
  -6   4   4   20.10    5.60
  -5  -4   4   18.80    4.10
  -5   4   4   21.40    6.40
  -5   4   4   26.70    5.60
   5   4  -4   18.50    5.90
   4  -4  -4  377.26   20.20
  -4   4   4  421.26   19.30
  -4   4   4  391.96   19.30
   4   4  -4  400.56   19.90
   3  -4  -4  214.88   13.20
  -3  -4   4  209.68   10.80
   3   4  -4  210.58   13.70
  -3   4   4  207.58   12.60
  -3   4   4  214.08   12.20
  -2  -4   4   16.60    3.30
   2  -4  -4   12.10    3.90
   2   4  -4   11.80    5.00
  -2   4   4   17.70    4.00
  -2   4   4   10.90    3.60
  -2   4   4   10.70    2.70
   1  -4  -4  434.66   18.90
  -1  -4   4  449.56   18.30
  -1   4   4  439.66   20.00
  -1   4   4  437.56   17.20
  -1   4   4  451.05   19.30
   1   4  -4  432.36   21.60
   0  -4   4   88.49    9.10
   0  -4   4   72.19    4.30
   0  -4  -4   72.09    6.20
   0   4   4   66.89    6.90
   0   4   4   82.89    5.10
   0   4  -4   63.39    4.30
   0   4  -4   74.39    9.10
   0   4   4   78.29    7.60
   0   4   4   76.59    6.70
  -1  -4  -4  162.48    8.20
   1  -4   4  150.98    7.70
   1   4   4  163.38   10.20
   1   4   4  140.49    9.60
  -1   4  -4  154.38    8.00
   1   4   4  147.59    8.00
   1   4   4  162.38    9.40
  -2  -4  -4  134.09    8.20
   2  -4   4  116.69    7.50
  -2  -4  -4  122.69    7.90
  -2  -4  -4  139.19    6.90
   2  -4   4  130.19    9.10
   2   4   4  115.59    9.20
  -2   4  -4  135.19    8.20
  -2   4  -4  124.89   11.70
   2   4   4  130.89    9.40
   3  -4   4  611.04   25.80
  -3  -4  -4  567.24   23.40
   3  -4   4  532.35   23.80
  -3  -4  -4  612.64   21.80
  -3  -4  -4  594.34   23.90
  -3   4  -4  616.04   24.60
  -3   4  -4  578.64   28.10
   3   4   4  617.64   25.30
  -4  -4  -4  217.78    9.60
  -4  -4  -4  224.68   12.00
   4  -4   4  224.68   14.60
  -4   4  -4  228.88   13.30
  -4   4  -4  237.38   17.20
   4   4   4  236.28   13.70
  -5  -4  -4   78.69    8.20
   5  -4   4   79.19   11.20
  -5  -4  -4   75.39    5.10
  -5   4  -4  104.99   14.40
   6  -4   4   85.49   11.60
  -6  -4  -4   92.49   13.70
  -6   4  -4   80.69   11.20
  -6   4  -4   83.49   13.00
   7  -4   4   26.00    9.30
  -7  -4  -4   22.80    5.90
  -7   4  -4   14.10    6.90
   7   4   4    8.70    6.80
  -7   4  -4   13.40   11.10
   6  -5  -4  104.49   14.10
  -6  -5   4   82.39    9.80
  -6   5   4   69.99   10.50
  -6   5   4   77.39   12.10
  -5  -5   4   15.30    4.70
   5  -5  -4   13.10    8.30
  -5   5   4   15.50    5.50
  -5   5   4    6.80    7.20
   4  -5  -4  316.27   19.40
  -4  -5   4  298.87   15.10
  -4   5   4  293.87   16.60
  -4   5   4  289.17   18.30
  -3  -5   4   97.39    8.20
  -3   5   4  102.99   11.60
   3   5  -4   87.59   13.00
  -2  -5   4  129.69    9.10
   2  -5  -4  147.89   11.80
   2   5  -4  133.19   13.50
  -2   5   4  136.59   10.30
  -2   5   4  138.99   12.20
  -1  -5   4   60.49    6.80
   1  -5  -4   74.09    8.90
  -1   5   4   59.99    7.70
   1   5  -4   52.09    8.50
  -1   5   4   79.89    9.80
   0  -5   4  234.18   12.50
   0  -5  -4  221.18   12.60
   0   5   4  204.38   14.10
   0   5   4  220.98   12.60
   0   5  -4  204.98   16.20
   1  -5   4  496.85   22.10
  -1  -5  -4  484.35   20.80
  -1   5  -4  487.05   26.10
   1   5   4  503.55   23.80
  -1   5  -4  491.65   19.30
   1   5   4  508.05   21.60
  -2  -5  -4  197.88   11.00
   2  -5   4  220.08   13.70
  -2   5  -4  212.08   17.20
   2   5   4  209.28   12.10
   2   5   4  223.18   14.30
  -2   5  -4  211.98   11.40
  -3  -5  -4  137.69    8.30
   3  -5   4  140.29   11.90
  -3   5  -4  133.19   10.20
   3   5   4  113.29   11.80
  -3   5  -4  133.99   15.60
   3   5   4  129.19    9.80
   4  -5   4   62.59    9.50
  -4  -5  -4   57.19    8.00
  -4   5  -4   61.39   11.20
   4   5   4   72.89   10.40
  -4   5  -4   63.39    8.00
  -5  -5  -4   34.60    7.50
   5  -5   4   29.40    8.90
  -5   5  -4   32.50    7.40
   5   5   4   24.30    7.80
  -5   5  -4   25.50   10.90
  -4  -6   4  212.78   13.90
   4  -6  -4  198.18   20.80
   4   6  -4  216.48   22.10
  -4   6   4  201.48   19.80
  -4   6   4  220.18   16.20
  -3  -6   4  200.28   13.20
   3  -6  -4  198.68   18.50
   3   6  -4  211.38   20.50
  -3   6   4  198.58   15.20
  -3   6   4  228.38   19.80
   2  -6  -4   23.60    8.30
  -2  -6   4   11.60    5.50
   2   6  -4   37.30   10.30
  -2   6   4   32.20    9.30
  -2   6   4   29.30    6.70
   1  -6  -4  100.49   12.90
  -1  -6   4   93.79   10.30
   1   6  -4   86.59   13.00
  -1   6   4   99.39   12.70
   0  -6   4   40.00    6.60
   0   6  -4   45.20   10.70
   0   6   4   66.89    9.30
   0   6   4   32.30    9.20
  -1  -6  -4   47.00   10.70
   1  -6   4   52.99    8.30
   1   6   4   58.19   10.30
  -1   6  -4   55.99   11.50
   2  -6   4   93.39   12.50
  -2   6  -4   90.69   14.40
   3  -6   4   80.49   11.10
  -3   6  -4   59.59   13.10
   3   6   4   82.59   11.90
  10   0  -5   -0.70    8.80
 -10   0   5   -1.40    6.00
   9   0  -5   16.20    7.80
  -9   0   5   27.70    6.20
  -8   0   5   -3.00    4.50
  -7   0   5  351.06   16.50
  -6   0   5   -3.60    2.10
   6   0  -5    0.20    3.20
   6   0  -5    2.70    4.10
  -6   0   5    0.30    1.00
  -6   0   5    0.10    1.50
  -5   0   5 1070.09   36.60
  -5   0   5 1020.50   36.00
  -5   0   5  998.50   37.90
   5   0  -5 1073.19   38.40
  -5   0   5  940.71   39.50
   5   0  -5 1054.79   39.90
   4   0  -5    2.50    2.60
  -4   0   5   -2.30    2.70
  -4   0   5   -1.50    2.20
  -4   0   5    0.00    1.60
   4   0  -5    1.30    2.00
  -4   0   5    0.90    1.70
  -3   0   5 2473.65   83.39
  -3   0   5 2431.06   82.69
  -3   0   5 2312.57   83.69
  -3   0   5 2334.07   82.79
   3   0  -5 2409.46   83.59
  -3   0   5 2420.46   83.09
  -2   0   5   -0.30    1.70
  -2   0   5    0.20    1.30
  -2   0   5   -2.90    2.00
  -2   0   5    1.50    1.20
  -2   0   5   -1.60    1.70
   2   0  -5    1.80    1.40
  -1   0   5 9019.40  302.57
   1   0  -5 8481.35  302.57
  -1   0   5 9096.89  304.17
  -1   0   5 9444.75  304.37
   0   0   5    0.80    0.80
   0   0   5    3.00    1.30
   0   0   5    3.40    2.30
   0   0   5    1.70    2.20
   0   0  -5    1.10    1.20
   0   0   5    0.80    1.30
   1   0   5  669.63   27.20
   1   0   5  681.63   27.30
   1   0   5  644.04   25.40
   1   0   5  664.23   23.60
  -1   0  -5  743.03   24.00
   2   0   5   -1.20    1.40
   2   0   5   -4.10    2.90
   2   0   5   -0.70    1.10
  -2   0  -5    0.10    0.70
  -2   0  -5    0.10    1.50
   2   0   5   -0.30    2.50
  -3   0  -5 1597.74   56.69
   3   0   5 1686.63   57.99
   3   0   5 1697.43   59.29
   3   0   5 1692.33   60.99
  -3   0  -5 1668.03   59.39
   3   0   5 1627.84   60.49
  -4   0  -5    0.20    1.30
   4   0   5    0.70    3.80
  -4   0  -5   -1.20    2.40
   4   0   5    6.20    3.60
   4   0   5    2.00    2.20
   5   0   5  579.04   26.00
  -5   0  -5  609.04   25.40
   5   0   5  601.94   26.30
  -5   0  -5  609.14   22.60
   5   0   5  621.24   24.40
   6   0   5   -1.00    3.60
  -6   0  -5    0.60    2.60
   6   0   5    0.30    4.50
  -6   0  -5   -3.20    3.70
  -7   0  -5  255.17   15.10
   7   0   5  235.58   15.50
   7   0   5  244.18   15.10
   8   0   5    5.20    6.50
   8   0   5   -8.20    6.00
  -8   0  -5    0.40    5.20
  -9   0  -5   53.19    9.40
   9   0   5   65.19   10.80
  10  -1  -5   43.40   11.40
 -10  -1   5   30.80    7.30
 -10   1   5   26.00    7.40
  10   1  -5   28.00    9.60
  -9  -1   5   34.60    6.10
   9  -1  -5   35.60    9.30
   9   1  -5   32.50    8.50
  -9   1   5   29.70    6.80
  -8  -1   5  235.48   12.70
   8  -1  -5  220.68   17.20
  -8   1   5  230.28   14.10
   8   1  -5  212.98   15.60
   7  -1  -5   19.80    6.90
  -7  -1   5   22.90    4.10
  -7   1   5   13.90    3.90
  -7   1   5   20.50    2.70
  -7   1   5   20.10    3.50
   6  -1  -5  739.43   30.60
  -6  -1   5  711.43   27.00
  -6   1   5  712.03   28.50
  -6   1   5  646.24   25.40
   6   1  -5  744.83   30.00
   6   1  -5  681.93   27.30
  -5  -1   5  247.38   11.10
   5  -1  -5  228.88   12.60
   5  -1  -5  248.88   11.70
  -5  -1   5  248.08   10.10
  -5  -1   5  250.97   10.90
   5  -1  -5  246.78   13.80
  -5   1   5  233.88   13.40
   5   1  -5  227.58   12.90
  -5   1   5  236.88   10.40
  -5   1   5  280.87   12.80
   5   1  -5  246.08   11.40
   4  -1  -5 1719.43   61.29
  -4  -1   5 1623.54   61.49
  -4  -1   5 1820.92   58.99
   4  -1  -5 1673.83   60.09
  -4  -1   5 1675.53   58.79
   4  -1  -5 1668.53   60.39
  -4  -1   5 1605.64   58.89
   4   1  -5 1729.13   60.99
  -4   1   5 1678.03   60.49
   4   1  -5 1695.83   59.59
  -4   1   5 1730.63   58.99
  -4   1   5 1681.83   60.79
  -3  -1   5  252.87   10.70
  -3  -1   5  270.57   13.10
  -3  -1   5  262.17   11.70
  -3  -1   5  262.67   12.00
   3  -1  -5  267.47   12.50
  -3  -1   5  248.58   10.80
   3  -1  -5  255.17   12.30
  -3   1   5  254.57   11.80
  -3   1   5  268.87   11.60
   3   1  -5  263.17   12.20
  -3   1   5  258.57   12.10
  -3   1   5  259.67   12.10
  -2  -1   5  821.12   27.90
  -2  -1   5  783.42   29.40
   2  -1  -5  781.32   28.90
   2  -1  -5  770.32   30.00
  -2  -1   5  813.62   28.20
  -2  -1   5  785.62   29.60
  -2  -1   5  753.42   28.60
  -2   1   5  750.12   28.90
  -2   1   5  776.32   28.70
   2   1  -5  763.22   29.90
  -2   1   5  787.52   29.30
  -2   1   5  760.22   29.30
   1  -1  -5 1672.33   59.19
  -1  -1   5 1720.13   57.79
  -1  -1   5 1612.64   56.79
  -1  -1   5 1642.64   58.59
   1  -1  -5 1623.14   56.69
   1  -1  -5 1555.64   57.69
  -1  -1   5 1670.63   56.79
  -1   1   5 1742.83   58.79
   1   1  -5 1622.84   56.89
  -1   1   5 1678.13   56.69
  -1   1   5 1572.04   57.59
   1   1  -5 1624.74   59.09
   0  -1  -5 2280.17   79.29
   0  -1   5 2259.67   76.79
   0  -1  -5 2231.68   77.49
   0  -1   5 2314.07   78.89
   0  -1   5 2258.57   76.19
   0   1   5 2137.19   78.49
   0   1   5 2228.28   77.49
   0   1  -5 2204.78   76.89
   0   1  -5 2206.28   76.79
   0   1   5 2304.17   75.39
   0   1   5 2185.78   75.19
   1  -1   5  351.36   13.60
  -1  -1  -5  364.06   15.00
   1  -1   5  370.06   14.70
   1  -1   5  367.36   16.50
   1   1   5  353.76   16.20
   1   1   5  354.96   15.00
   1   1   5  364.36   17.00
  -1   1  -5  362.76   13.90
  -1   1  -5  357.86   14.70
  -2  -1  -5  521.95   20.20
   2  -1   5  468.75   19.80
   2  -1   5  491.05   21.40
   2  -1   5  503.55   19.00
  -2   1  -5  520.05   20.20
   2   1   5  474.45   21.90
  -2   1  -5  521.05   22.20
   2   1   5  516.15   21.50
  -2   1  -5  529.35   18.60
   2   1   5  481.05   20.10
   3  -1   5  236.78   10.90
   3  -1   5  234.98   12.70
   3  -1   5  236.98   11.50
  -3  -1  -5  240.28    8.60
  -3  -1  -5  242.18   11.70
  -3   1  -5  235.68    9.90
  -3   1  -5  234.08   11.70
  -3   1  -5  245.48   13.50
   3   1   5  237.88   12.80
   3   1   5  233.98   13.60
   3   1   5  248.48    9.10
   4  -1   5  496.65   22.70
  -4  -1  -5  571.74   18.80
   4  -1   5  503.55   21.10
  -4  -1  -5  509.85   21.70
   4   1   5  550.34   22.90
   4   1   5  486.85   19.50
  -4   1  -5  533.75   22.10
  -4   1  -5  523.65   23.60
  -4   1  -5  520.05   19.70
   4   1   5  508.45   23.50
  -5  -1  -5   83.29    5.50
  -5  -1  -5   93.09    7.70
   5  -1   5   92.59    8.00
   5   1   5  105.69    8.90
  -5   1  -5  110.29    8.30
   5   1   5   93.49    6.70
  -5   1  -5   98.19    6.30
   5   1   5  104.19   11.00
  -5   1  -5   99.29    9.90
  -6  -1  -5  299.57   13.70
   6  -1   5  355.96   17.40
   6   1   5  336.67   16.80
   6   1   5  326.87   15.10
  -6   1  -5  305.57   18.20
   7  -1   5   29.10    8.10
   7  -1   5   31.70    7.00
  -7  -1  -5   28.10    6.20
   7   1   5   34.50    6.30
  -7   1  -5   31.90    5.80
   7   1   5   36.80    5.80
   8  -1   5  292.47   19.70
   8  -1   5  262.17   19.10
  -8  -1  -5  289.67   17.40
   8   1   5  268.17   16.20
   8   1   5  271.77   16.10
  -8   1  -5  277.77   17.60
  -9  -1  -5   11.40    7.40
   9  -1   5   23.00    9.80
  -9   1  -5   26.30    8.80
  10  -2  -5   -1.90   11.50
  10   2  -5   18.40    9.70
 -10   2   5    8.60    8.10
  -9  -2   5  154.18   11.40
   9  -2  -5  162.58   18.50
   9   2  -5  158.58   15.50
  -9   2   5  172.78   14.00
   8  -2  -5   61.69   10.50
  -8  -2   5   80.69    7.60
  -8   2   5   68.59    9.80
  -8   2   5   74.69    7.10
   8   2  -5   88.99   11.40
  -7  -2   5  252.97   12.00
   7  -2  -5  235.18   13.70
   7   2  -5  234.08   12.70
  -7   2   5  276.67   12.50
  -7   2   5  280.57   16.00
   7   2  -5  250.67   15.60
  -6  -2   5   66.69    5.60
  -6  -2   5   77.59    5.30
   6  -2  -5   78.09    7.90
   6  -2  -5   65.59    9.60
   6   2  -5   66.79    8.90
  -6   2   5   72.39    6.10
  -6   2   5   72.69    7.50
   6   2  -5   85.29    6.30
   5  -2  -5   89.69    7.90
  -5  -2   5   89.49    5.50
   5  -2  -5  103.89    9.50
  -5  -2   5   81.79    7.70
  -5  -2   5   96.69    5.90
  -5  -2   5   93.89    5.40
  -5   2   5  101.39    6.40
   5   2  -5   93.49    7.10
  -5   2   5   95.79    7.70
   4  -2  -5  160.58   10.10
  -4  -2   5  171.68    8.60
   4  -2  -5  178.88   11.00
  -4  -2   5  180.28    9.70
  -4   2   5  166.48    9.90
   4   2  -5  172.18    9.70
  -4   2   5  164.78    9.60
  -4   2   5  174.98    8.90
   3  -2  -5 1153.98   43.10
  -3  -2   5 1141.99   39.80
   3  -2  -5 1163.68   42.80
  -3  -2   5 1111.89   43.30
  -3  -2   5 1185.18   39.80
  -3  -2   5 1167.58   41.70
  -3  -2   5 1169.78   42.00
  -3   2   5 1109.89   41.50
   3   2  -5 1192.18   43.00
  -3   2   5 1173.78   42.80
  -3   2   5 1135.09   41.70
  -3   2   5 1111.89   42.40
  -2  -2   5   19.70    2.20
  -2  -2   5   22.50    3.20
  -2  -2   5   20.20    2.30
  -2  -2   5   14.90    3.30
  -2  -2   5   14.00    3.20
   2  -2  -5   15.90    3.70
   2  -2  -5   18.20    3.30
  -2   2   5   20.50    3.60
   2   2  -5   14.20    3.80
  -2   2   5   19.60    2.70
  -2   2   5   23.50    3.60
  -2   2   5   17.10    3.00
   1  -2  -5 1809.42   67.09
  -1  -2   5 1798.62   64.39
   1  -2  -5 1957.60   64.59
  -1  -2   5 1984.90   66.39
  -1  -2   5 1915.71   63.69
   1   2  -5 1788.22   65.49
  -1   2   5 1906.11   63.59
  -1   2   5 1781.82   65.79
   1   2  -5 1870.41   63.79
  -1   2   5 1854.11   65.89
  -1   2   5 1915.91   65.69
   1   2  -5 1758.72   66.89
   0  -2  -5  950.50   36.00
   0  -2  -5  898.11   33.90
   0  -2   5  941.11   35.10
   0  -2   5  913.21   32.90
   0  -2  -5  895.41   31.90
   0  -2   5  951.80   32.80
   0   2  -5  866.81   35.70
   0   2   5  932.31   31.20
   0   2  -5  866.91   33.50
   0   2  -5  928.11   32.80
   0   2   5  923.41   34.10
   0   2   5  946.41   34.80
  -1  -2  -5 1909.01   69.29
   1  -2   5 1919.61   65.99
  -1  -2  -5 1900.71   67.09
   1  -2   5 1805.52   67.99
   1  -2   5 1953.90   66.19
  -1   2  -5 1877.81   66.29
   1   2   5 2032.80   68.19
  -1   2  -5 1902.21   66.39
  -1   2  -5 1865.11   69.29
   1   2   5 1905.81   67.19
  -2  -2  -5  130.89    7.70
  -2  -2  -5  126.99   10.10
   2  -2   5  135.69    9.30
   2  -2   5  133.09    7.40
   2  -2   5  145.99    7.40
   2   2   5  123.79    8.40
  -2   2  -5  130.59    6.90
   2   2   5  124.69    7.80
  -2   2  -5  135.79    7.70
  -2   2  -5  126.49    9.40
  -3  -2  -5 1362.86   55.09
   3  -2   5 1540.45   53.09
  -3  -2  -5 1479.15   53.09
   3  -2   5 1496.95   52.99
   3   2   5 1458.75   53.49
  -3   2  -5 1452.85   53.29
   3   2   5 1533.75   54.19
  -3   2  -5 1472.85   55.69
  -3   2  -5 1442.56   51.69
  -4  -2  -5  916.71   29.00
  -4  -2  -5  824.42   32.30
   4  -2   5  788.02   32.50
  -4  -2  -5  813.72   28.60
  -4   2  -5  835.22   35.00
  -4   2  -5  848.22   33.00
   4   2   5  824.72   32.90
   4   2   5  825.02   37.80
  -5  -2  -5  394.16   17.50
   5  -2   5  352.66   18.00
  -5   2  -5  381.06   18.20
   5   2   5  358.16   17.40
  -5   2  -5  356.46   19.80
   6  -2   5  152.38   12.40
  -6  -2  -5  166.08    8.50
  -6  -2  -5  180.68   11.30
   6   2   5  154.68   10.90
  -6   2  -5  169.38   12.10
  -6   2  -5  173.68   14.20
  -7  -2  -5   10.40    4.60
   7  -2   5   21.30    7.80
  -7   2  -5   18.90   11.20
  -7   2  -5   14.60    5.20
   7   2   5   20.50    5.30
   8  -2   5   51.79   10.80
  -8  -2  -5   52.09    8.40
   8   2   5   48.50   10.50
  -8   2  -5   60.59   11.00
  -8   2  -5   34.20    8.20
  -9  -3   5   -2.70    7.40
   9  -3  -5   10.30    9.90
  -9   3   5   17.90    7.70
  -8  -3   5  267.07   17.20
   8  -3  -5  247.38   20.70
  -8   3   5  269.37   15.30
  -8   3   5  264.97   17.30
  -7  -3   5  105.49   10.50
   7  -3  -5   73.39   10.50
  -7  -3   5   88.29    6.20
  -7   3   5   95.59    9.70
  -7   3   5  100.29    9.70
  -6  -3   5  380.36   16.50
  -6  -3   5  404.76   15.90
  -6  -3   5  407.56   15.30
  -6  -3   5  399.46   20.00
  -6   3   5  404.06   18.60
   6   3  -5  416.36   18.60
  -6   3   5  427.16   20.20
   5  -3  -5   27.40    5.90
  -5  -3   5   31.30    5.90
  -5  -3   5   27.40    4.00
   5   3  -5   32.10    5.40
  -5   3   5   35.90    5.70
  -5   3   5   35.40    5.10
  -4  -3   5  272.07   12.80
  -4  -3   5  253.67   13.00
   4  -3  -5  263.97   15.20
  -4   3   5  255.57   13.30
   4   3  -5  286.97   14.50
  -4   3   5  281.87   14.20
  -3  -3   5   80.09    6.10
  -3  -3   5   70.29    6.80
   3  -3  -5   90.29    7.90
  -3   3   5   79.89    7.00
  -3   3   5   82.59    6.80
  -3   3   5   79.89    5.90
   3   3  -5   99.09    8.70
  -2  -3   5 1932.11   66.29
   2  -3  -5 1885.31   67.19
  -2  -3   5 1690.53   66.89
  -2   3   5 1895.81   67.39
   2   3  -5 1869.71   68.99
  -2   3   5 1954.30   67.89
  -2   3   5 1983.70   65.29
  -1  -3   5  114.59    8.90
   1  -3  -5  101.59    7.00
  -1  -3   5  123.89    6.80
  -1  -3   5  119.39    5.10
  -1   3   5  138.49    8.20
   1   3  -5   99.69    9.30
   1   3  -5  112.29    5.10
  -1   3   5  111.09    7.70
  -1   3   5  103.29    7.60
  -1   3   5  127.49    5.60
   0  -3  -5   69.59    7.60
   0  -3   5   98.49    5.10
   0  -3   5   99.89    6.00
   0   3   5   86.39    6.90
   0   3  -5   89.59    5.30
   0   3   5   91.39    6.90
   0   3  -5   98.09    9.20
   0   3   5   93.79    5.20
   0   3   5   87.39    6.90
  -1  -3  -5  123.79    7.50
   1  -3   5  113.69    7.00
  -1  -3  -5  110.89    5.70
   1  -3   5  111.89    6.40
   1   3   5  113.29    8.00
   1   3   5  111.69    5.40
   1   3   5  108.69    8.00
  -1   3  -5  121.79    6.80
  -1   3  -5  113.09   10.10
  -2  -3  -5 1142.89   38.70
  -2  -3  -5 1080.59   38.40
   2  -3   5 1202.08   41.70
  -2  -3  -5 1124.89   41.50
   2  -3   5 1130.39   40.70
   2   3   5 1147.49   42.30
   2   3   5  988.80   41.60
  -2   3  -5 1157.08   45.10
  -2   3  -5 1127.69   41.10
  -3  -3  -5   59.59    6.10
   3  -3   5   67.39    6.80
   3  -3   5   54.99    6.50
  -3   3  -5   47.20    7.40
  -3   3  -5   64.49    6.50
   3   3   5   69.99    7.00
  -4  -3  -5  522.05   20.10
  -4  -3  -5  538.45   22.90
  -4  -3  -5  536.75   19.20
   4  -3   5  547.35   24.30
  -4   3  -5  552.44   26.80
  -4   3  -5  583.64   24.10
   4   3   5  592.44   23.80
   5  -3   5   28.00    5.70
  -5  -3  -5   38.40    5.70
   5   3   5   36.10    5.80
  -5   3  -5   46.00    8.50
   6  -3   5  425.66   22.90
  -6  -3  -5  448.06   20.70
  -6   3  -5  454.35   25.30
  -6   3  -5  436.96   21.80
   6   3   5  407.96   20.10
  -7  -3  -5   38.40    6.80
   7  -3   5   36.00    9.60
  -7   3  -5   45.10    8.60
  -7   3  -5   47.70   11.30
  -8  -3  -5   40.70    7.90
   8  -3   5   39.30   11.60
  -8   3  -5   51.89   10.20
  -8   3  -5   53.79   12.00
  -8  -4   5   37.40    7.50
   8  -4  -5   52.29   11.80
  -8   4   5   37.50    9.20
   7  -4  -5   84.59   12.80
  -7  -4   5   80.99   10.40
  -7   4   5   87.89   11.10
  -7   4   5   82.29   10.00
  -6  -4   5   41.50    6.00
   6  -4  -5   49.20    9.70
  -6   4   5   44.70    7.70
   6   4  -5   29.90    7.30
  -6   4   5   46.10    7.40
  -5  -4   5  121.59    9.20
   5   4  -5  122.59   11.90
  -5   4   5  123.29   10.90
  -5   4   5  102.59   14.00
  -4  -4   5   29.30    4.80
   4  -4  -5   26.80    6.30
   4   4  -5   28.90    6.80
   3  -4  -5  236.38   14.40
  -3   4   5  242.38   14.20
   3   4  -5  254.17   15.70
  -3   4   5  254.67   13.90
   2  -4  -5   98.99    8.80
  -2   4   5   94.39    6.40
  -2   4   5  102.69    8.70
  -2   4   5  106.59    8.60
   2   4  -5  108.49   10.70
   1  -4  -5  281.47   13.60
   1   4  -5  260.07   16.30
  -1   4   5  278.07   14.50
  -1   4   5  269.97   14.10
  -1   4   5  263.17   11.30
   0  -4  -5   77.29    6.50
   0  -4   5   65.49    4.80
   0   4   5   67.59    6.80
   0   4   5   64.59    4.90
   0   4  -5   63.59    9.00
   0   4  -5   67.69    5.00
  -1  -4  -5  567.24   22.00
   1  -4   5  577.94   21.80
   1   4   5  560.44   29.40
  -1   4  -5  566.34   22.10
   1   4   5  582.24   21.70
   1   4   5  581.54   24.00
  -2  -4  -5   32.20    4.50
   2  -4   5   39.30    5.60
  -2  -4  -5   40.80    5.50
   2  -4   5   35.00    5.40
  -2  -4  -5   44.00    5.60
  -2   4  -5   38.00    4.80
   3  -4   5  491.55   22.00
  -3  -4  -5  439.66   17.40
  -3  -4  -5  450.15   20.30
  -3   4  -5  490.75   25.50
  -3   4  -5  465.85   20.50
   4  -4   5    9.10    4.60
  -4  -4  -5    7.40    3.80
   4   4   5    7.20    6.40
  -4   4  -5    5.80    7.30
  -4   4  -5    7.10    4.70
  -5  -4  -5   87.09    9.30
   5  -4   5   89.79   12.50
  -5   4  -5   80.09   10.60
   5   4   5  103.39   10.20
  -5   4  -5   79.29   11.90
   6  -4   5   36.50    9.00
  -6  -4  -5   34.30    6.50
   6   4   5   33.20    7.00
  -6   4  -5   52.09    8.70
  -6   4  -5   36.40   11.30
  -7  -4  -5   29.80    7.00
   7  -4   5   31.90   10.80
  -7   4  -5   23.00    8.00
   7   4   5   23.50    7.40
  -7   4  -5   38.60   12.80
   6  -5  -5   99.79   13.90
  -6  -5   5   87.59   10.30
  -6   5   5  105.49   12.50
  -6   5   5  115.49   16.10
  -5  -5   5   40.40    6.40
   5  -5  -5   33.10   10.10
  -5   5   5   50.29    9.40
  -5   5   5   52.49    8.50
   5   5  -5   43.10   11.60
   4  -5  -5  149.39   15.30
  -4  -5   5  150.38   10.50
  -4   5   5  161.48   14.00
   4   5  -5  125.79   15.40
  -4   5   5  150.88   12.60
   3  -5  -5   37.00   11.20
  -3  -5   5   31.90    5.30
   3   5  -5   33.50    8.20
  -3   5   5   35.20    7.40
  -3   5   5   31.40    6.20
   2  -5  -5  202.48   14.30
  -2  -5   5  204.28   11.70
  -2   5   5  203.38   14.50
   2   5  -5  231.28   17.10
   1  -5  -5  134.19   11.20
  -1  -5   5  141.29    9.60
  -1   5   5  126.59   12.00
   1   5  -5  153.58   14.80
  -1   5   5  151.08   11.10
   0  -5   5   20.80    4.70
   0  -5  -5   25.60    5.30
   0   5   5   20.80    6.20
   0   5   5   26.70    5.20
   0   5  -5   25.10    8.40
  -1  -5  -5  149.59    9.80
   1  -5   5  134.79   10.50
   1   5   5  125.79   12.20
  -1   5  -5  144.69   16.10
   1   5   5  151.18   10.80
   2  -5   5   49.80    7.20
   2   5   5   40.60    7.50
   2   5   5   61.99    8.20
  -2   5  -5   64.79    7.10
  -2   5  -5   46.00   10.00
   3  -5   5    9.50    5.40
  -3   5  -5    9.50    8.60
   3   5   5    2.40    5.70
   3   5   5   12.20    5.20
  -3   5  -5   14.20    4.70
  -4  -5  -5  105.19   10.10
   4  -5   5   97.29   11.90
  -4   5  -5  133.79   18.40
   4   5   5   94.49   12.40
  -5  -5  -5  103.89   11.20
   5  -5   5   88.99   12.70
   5   5   5   98.19   13.90
  -5   5  -5  123.09   17.20
  -5   5  -5   99.19   13.40
  -3  -6   5   25.50    6.10
   3  -6  -5   32.20   10.40
  -3   6   5   23.90    9.80
   3   6  -5   12.50   12.00
  -3   6   5   28.00    8.00
  -2  -6   5   38.60    6.80
   2  -6  -5   40.50    9.40
   2   6  -5   50.49   12.20
  -2   6   5   48.00   10.40
  -2   6   5   22.30    7.10
  -1  -6   5  183.08   13.30
  -1   6   5  200.58   17.50
  -1   6   5  176.38   14.20
   1   6  -5  171.58   19.80
   0  -6   5    2.70    5.20
   0   6  -5   17.20   10.60
   0   6   5   -3.90    8.00
   0   6   5    3.30    6.10
   1  -6   5    6.30    6.50
   1   6   5   -5.70    8.00
  -1   6  -5   11.90   11.20
   2  -6   5   11.40    7.00
  -2   6  -5   25.60   12.80
   2   6   5   25.60   10.10
 -10   0   6  183.48   14.70
  10   0  -6  168.98   18.90
  -9   0   6   -1.00    4.90
   9   0  -6   -1.70    6.40
   8   0  -6   46.80    8.70
  -8   0   6   38.90    5.80
  -7   0   6   -0.70    2.90
   6   0  -6  581.14   25.10
  -6   0   6  536.15   20.60
  -6   0   6  517.35   20.00
  -6   0   6  544.45   22.60
  -5   0   6   -3.50    2.10
  -5   0   6    0.60    2.00
  -5   0   6    3.60    2.70
   5   0  -6    6.50    3.50
  -5   0   6    1.60    2.60
   4   0  -6  332.17   16.40
  -4   0   6  371.16   15.60
  -4   0   6  358.76   15.50
  -4   0   6  382.16   16.10
  -4   0   6  382.16   17.30
  -4   0   6  368.36   15.90
  -3   0   6   -0.10    1.70
  -3   0   6    0.80    2.20
  -3   0   6    0.60    1.70
  -3   0   6   -5.60    2.60
   3   0  -6   -0.20    2.10
  -3   0   6   -0.10    2.40
   2   0  -6 1221.38   45.70
  -2   0   6 1266.87   47.20
  -2   0   6 1311.07   46.40
  -2   0   6 1269.97   45.80
  -2   0   6 1346.97   47.70
  -2   0   6 1300.37   46.20
   1   0  -6    0.20    1.40
  -1   0   6   -4.20    2.30
  -1   0   6    2.50    3.20
  -1   0   6   -0.70    1.70
  -1   0   6    0.70    1.20
  -1   0   6   -1.50    1.60
   0   0   6 5450.96  174.18
   0   0   6 5171.88  175.08
   0   0   6 5052.19  173.18
   0   0   6 5081.59  177.18
   0   0   6 5170.98  177.28
   0   0  -6 5036.10  175.08
   1   0   6   -5.50    2.60
  -1   0  -6   -0.30    1.10
   1   0   6   -0.80    1.60
   1   0   6    1.30    3.00
   1   0   6   -0.20    0.90
   2   0   6 3034.30  107.89
   2   0   6 3158.48  110.09
   2   0   6 3152.98  110.19
  -2   0  -6 3068.49  107.89
   2   0   6 3233.08  105.69
  -2   0  -6 3092.79  105.39
   3   0   6    0.40    3.40
   3   0   6    3.30    4.00
  -3   0  -6    0.30    1.00
   3   0   6   -3.20    4.40
  -3   0  -6    1.00    2.30
   3   0   6   -1.60    1.80
   4   0   6 1924.71   71.29
  -4   0  -6 1942.51   66.09
   4   0   6 1937.71   67.59
  -4   0  -6 1924.91   69.59
   5   0   6   -6.50    4.70
   5   0   6   -0.80    3.00
  -5   0  -6    1.00    1.90
   6   0   6  452.35   20.10
  -6   0  -6  429.66   17.60
   6   0   6  448.56   22.50
   7   0   6   -2.80    5.30
   7   0   6   -2.80    6.20
  -7   0  -6    9.20    5.30
   8   0   6  316.67   22.90
   8   0   6  283.97   18.40
  -8   0  -6  278.67   18.10
 -10  -1   6    5.40    5.90
  10  -1  -6    8.10   11.20
  10   1  -6    3.10    8.80
 -10   1   6   -8.80    6.90
  -9  -1   6  106.29   10.30
   9  -1  -6   81.39   12.20
   9   1  -6   81.19   11.30
  -9   1   6   90.29   11.40
   8  -1  -6   14.70    7.40
  -8  -1   6   13.90    4.40
  -8   1   6   17.30    5.00
   8   1  -6   17.50    6.30
  -7  -1   6  150.88    9.30
  -7   1   6  128.29    7.10
  -7   1   6  135.99    8.80
  -6  -1   6  305.27   11.40
  -6  -1   6  280.67   13.00
   6  -1  -6  301.37   16.60
  -6  -1   6  274.77   11.80
   6   1  -6  263.57   13.50
   6   1  -6  270.37   15.40
  -6   1   6  283.37   11.80
  -6   1   6  268.67   13.60
  -6   1   6  256.77   14.20
  -5  -1   6   24.90    3.40
  -5  -1   6   25.20    3.50
  -5  -1   6   23.90    3.60
   5  -1  -6   25.60    5.20
  -5  -1   6   27.50    3.50
  -5   1   6   23.90    4.60
   5   1  -6   21.50    4.00
  -5   1   6   15.60    3.40
  -5   1   6   23.20    3.10
  -4  -1   6   29.70    3.60
   4  -1  -6   24.70    4.30
  -4  -1   6   27.90    5.40
  -4  -1   6   36.70    4.70
  -4  -1   6   35.90    3.90
   4  -1  -6   35.10    5.10
   4   1  -6   36.80    5.30
  -4   1   6   21.10    3.50
  -4   1   6   31.70    4.90
   4   1  -6   35.70    5.10
  -4   1   6   34.40    4.70
  -4   1   6   32.40    4.10
  -3  -1   6   78.29    4.90
  -3  -1   6   74.29    5.70
  -3  -1   6   70.79    5.00
  -3  -1   6   78.49    7.20
   3  -1  -6   81.49    6.50
   3  -1  -6   70.79    6.90
  -3  -1   6   78.69    6.30
  -3   1   6   66.59    6.00
  -3   1   6   76.59    5.80
   3   1  -6   83.59    6.90
  -3   1   6   70.19    5.90
  -2  -1   6 1247.38   45.00
  -2  -1   6 1263.17   45.30
  -2  -1   6 1222.88   43.80
   2  -1  -6 1234.98   44.00
  -2  -1   6 1250.67   43.40
   2  -1  -6 1186.78   45.80
  -2   1   6 1207.58   44.80
  -2   1   6 1248.28   44.00
  -2   1   6 1231.38   44.50
   2   1  -6 1212.88   43.50
  -2   1   6 1175.18   45.00
   2   1  -6 1260.17   45.90
   1  -1  -6  665.23   24.70
  -1  -1   6  677.33   26.10
  -1  -1   6  745.73   25.20
  -1  -1   6  674.43   27.30
   1  -1  -6  647.54   27.70
   1  -1  -6  650.53   26.10
  -1  -1   6  709.73   25.30
   1   1  -6  662.23   27.80
  -1   1   6  660.43   26.00
   1   1  -6  697.63   25.50
  -1   1   6  711.13   24.90
  -1   1   6  700.23   28.10
  -1   1   6  674.83   27.20
   0  -1  -6  257.67   11.60
   0  -1   6  231.18   12.80
   0  -1   6  245.98   10.00
   0  -1   6  243.88   10.80
   0   1  -6  248.38   13.30
   0   1   6  238.38   13.40
   0   1   6  237.08   12.50
   0   1   6  243.68    9.30
   0   1   6  243.08    8.90
   0   1  -6  249.68   11.00
   0   1  -6  244.18   10.80
   0   1   6  258.37   11.60
   1  -1   6 3235.88  113.69
  -1  -1  -6 3368.56  114.29
   1  -1   6 3225.68  112.39
   1  -1   6 3210.48  115.89
   1   1   6 3542.55  116.29
   1   1   6 3053.99  116.19
  -1   1  -6 3377.16  112.89
  -1   1  -6 3538.45  116.99
  -1   1  -6 3317.07  113.89
   2  -1   6 1118.49   42.20
  -2  -1  -6 1170.28   42.60
   2  -1   6 1188.78   41.10
   2  -1   6 1125.69   44.10
   2   1   6 1131.59   42.70
   2   1   6 1125.29   44.10
  -2   1  -6 1188.28   40.80
   2   1   6 1212.88   45.30
  -2   1  -6 1147.39   45.00
  -2   1  -6 1177.28   42.50
   3  -1   6   27.10    6.70
   3  -1   6   22.00    3.20
  -3  -1  -6   15.90    3.40
   3   1   6   16.00    4.30
   3   1   6   19.90    5.60
  -3   1  -6   20.00    2.40
  -3   1  -6   15.90    3.20
  -3   1  -6   22.10    5.30
  -4  -1  -6  418.46   18.10
   4  -1   6  387.86   17.00
  -4  -1  -6  376.26   13.80
   4   1   6  394.26   19.20
  -4   1  -6  388.76   15.30
   4   1   6  369.96   14.60
  -4   1  -6  385.66   20.10
  -4   1  -6  389.76   18.00
   5  -1   6  783.82   30.40
  -5  -1  -6  752.32   26.70
  -5  -1  -6  769.92   31.00
   5   1   6  756.52   27.90
   5   1   6  783.42   31.90
  -5   1  -6  695.03   27.80
  -5   1  -6  739.43   33.00
  -5   1  -6  757.82   31.50
   6  -1   6   31.30    6.40
  -6  -1  -6   13.80    4.60
   6   1   6   13.40    5.70
  -6   1  -6   14.90    6.40
   6   1   6   16.40    4.00
  -6   1  -6   16.90    4.90
   7  -1   6  419.56   24.40
   7  -1   6  396.76   21.80
  -7  -1  -6  423.36   21.00
   7   1   6  398.66   18.50
   7   1   6  382.16   21.10
  -7   1  -6  433.46   21.80
   8  -1   6   12.90    8.20
  -8  -1  -6   13.30    5.90
   8   1   6   15.80    7.30
  -8   1  -6    9.40    6.40
  -9  -2   6   72.19    9.30
   9  -2  -6   75.89   12.10
  -9   2   6   91.59   12.20
   9   2  -6   76.69   11.10
   8  -2  -6   43.70    9.20
  -8  -2   6   27.30    5.00
  -8  -2   6   33.70    7.00
  -8   2   6   30.50    6.40
   7  -2  -6  112.59   12.90
  -7  -2   6   90.69    7.60
  -7  -2   6   93.49    7.10
  -7  -2   6   98.09    6.00
  -7   2   6  105.69    9.70
  -7   2   6   91.99    7.60
  -6  -2   6  206.58    9.10
  -6  -2   6  188.68    9.50
  -6  -2   6  183.58    9.30
   6  -2  -6  173.88   12.10
   6  -2  -6  192.58   14.00
   6   2  -6  200.18   10.70
  -6   2   6  149.79   15.40
  -6   2   6  193.48   10.10
  -5  -2   6  543.95   20.90
   5  -2  -6  512.95   23.80
  -5  -2   6  518.95   20.80
  -5  -2   6  583.24   21.70
   5  -2  -6  592.24   25.50
  -5  -2   6  565.04   24.00
   5   2  -6  571.04   23.10
  -5   2   6  576.24   22.20
  -5   2   6  549.15   24.00
  -4  -2   6 1319.77   48.80
   4  -2  -6 1319.07   49.80
  -4  -2   6 1338.27   47.80
  -4  -2   6 1379.66   46.30
  -4  -2   6 1278.27   46.30
   4  -2  -6 1362.46   49.99
  -4   2   6 1328.67   48.00
  -4   2   6 1313.67   49.40
  -4   2   6 1272.17   48.50
   4   2  -6 1366.76   49.40
  -3  -2   6 1296.97   46.10
   3  -2  -6 1391.06   48.80
  -3  -2   6 1293.07   51.29
  -3  -2   6 1348.17   48.00
   3  -2  -6 1290.17   49.70
  -3  -2   6 1362.86   46.00
  -3  -2   6 1275.27   48.00
  -3   2   6 1369.96   48.30
   3   2  -6 1373.06   49.60
  -3   2   6 1277.57   47.40
  -3   2   6 1276.17   48.90
  -2  -2   6  361.56   16.60
  -2  -2   6  376.06   15.50
  -2  -2   6  379.06   14.40
   2  -2  -6  392.96   16.10
  -2  -2   6  374.66   14.50
  -2  -2   6  346.87   16.90
  -2   2   6  362.56   16.60
   2   2  -6  367.56   17.80
  -2   2   6  392.36   16.70
  -2   2   6  372.16   15.00
   1  -2  -6   43.70    4.60
   1  -2  -6   34.70    4.10
  -1  -2   6   36.80    3.60
  -1  -2   6   45.00    3.70
  -1  -2   6   40.60    5.30
   1  -2  -6   35.70    5.70
  -1   2   6   37.50    3.00
   1   2  -6   36.70    4.90
   1   2  -6   32.40    5.40
  -1   2   6   42.50    5.10
  -1   2   6   43.60    4.80
   1   2  -6   38.00    3.60
   0  -2  -6  424.86   21.10
   0  -2  -6  489.45   19.40
   0  -2   6  440.76   20.30
   0  -2   6  465.85   17.90
   0  -2   6  459.95   18.00
   0   2   6  436.26   19.20
   0   2  -6  485.25   18.20
   0   2  -6  484.75   19.00
   0   2   6  437.46   19.90
   0   2  -6  506.45   22.00
   0   2   6  457.85   15.90
   1  -2   6  750.02   26.60
   1  -2   6  726.93   26.90
  -1  -2  -6  653.83   30.10
   1  -2   6  686.03   29.50
  -1  -2  -6  743.83   28.00
  -1   2  -6  706.33   26.90
  -1   2  -6  746.43   27.20
   1   2   6  703.43   28.80
  -1   2  -6  732.73   30.50
   1   2   6  677.93   27.90
   2  -2   6    6.40    2.70
   2  -2   6    2.50    2.00
  -2  -2  -6    5.10    2.60
  -2   2  -6    6.30    2.20
   2   2   6    2.30    2.90
  -2   2  -6    5.50    2.60
  -2   2  -6    6.50    4.40
   3  -2   6  227.88   11.60
  -3  -2  -6  232.98   12.00
  -3   2  -6  238.98   12.30
   3   2   6  241.58   13.30
  -3   2  -6  211.28   10.50
  -3   2  -6  232.68   14.80
  -4  -2  -6  602.44   25.00
   4  -2   6  600.54   25.10
  -4   2  -6  594.64   28.10
  -4   2  -6  603.34   25.50
   4   2   6  598.14   25.90
   5  -2   6    8.80    4.60
  -5  -2  -6    8.70    4.40
  -5   2  -6   11.00    6.40
   5   2   6   12.60    4.60
   6  -2   6  370.76   24.90
  -6  -2  -6  366.76   18.40
  -6   2  -6  355.36   21.60
   6   2   6  347.97   18.50
  -6   2  -6  364.26   19.30
   7  -2   6   67.89   10.30
  -7  -2  -6   72.19   10.10
  -7   2  -6   63.09    9.40
  -7   2  -6   76.99   12.30
  -8  -2  -6   59.29    9.60
   8  -2   6   61.09   11.70
  -8   2  -6   58.29   10.20
  -8   2  -6   67.39   12.40
  -9  -3   6  220.68   18.00
   9  -3  -6  209.98   23.70
  -9   3   6  183.68   17.70
  -8  -3   6   57.19    9.10
   8  -3  -6   74.19   11.40
  -8   3   6   45.00    7.40
  -7  -3   6  181.68   13.70
   7  -3  -6  199.58   17.10
  -7   3   6  199.78   12.80
  -7   3   6  216.88   14.40
  -6  -3   6  158.08   11.30
  -6  -3   6  138.59    8.10
  -6   3   6  162.28   11.90
  -6   3   6  165.08   11.00
   6   3  -6  158.88   11.60
  -5  -3   6  707.73   28.60
   5  -3  -6  738.93   32.30
   5   3  -6  773.92   30.90
  -5   3   6  756.02   29.90
   4  -3  -6  113.59    9.90
  -4  -3   6   98.29    8.20
   4   3  -6   95.79    9.40
  -4   3   6   94.29    7.70
  -4   3   6   91.09    8.40
   3  -3  -6  322.47   15.60
  -3  -3   6  305.77   14.10
  -3  -3   6  253.67   14.70
  -3   3   6  287.37   13.30
  -3   3   6  311.87   14.90
   3   3  -6  346.97   17.10
  -3   3   6  321.77   15.60
  -2  -3   6  216.08    8.70
   2  -3  -6  226.88   11.90
  -2  -3   6  229.58    8.70
  -2  -3   6  233.48   11.00
  -2   3   6  228.88   12.50
  -2   3   6  247.28   12.40
   2   3  -6  210.68   14.00
  -2   3   6  228.18    9.90
   1  -3  -6  999.00   37.20
  -1  -3   6 1014.10   37.40
  -1  -3   6 1020.20   36.00
   1   3  -6  977.80   36.40
  -1   3   6 1082.09   35.70
   1   3  -6 1034.50   41.40
  -1   3   6 1053.49   39.30
  -1   3   6 1000.20   38.90
   0  -3   6  395.96   16.30
   0  -3  -6  362.86   15.10
   0  -3   6  390.46   15.30
   0  -3  -6  382.86   17.30
   0   3   6  409.76   18.10
   0   3   6  399.46   14.20
   0   3  -6  389.76   15.50
   0   3  -6  386.76   20.10
   1  -3   6 1960.90   67.49
  -1  -3  -6 1911.91   69.09
   1  -3   6 2022.60   68.39
   1   3   6 1685.53   69.29
  -1   3  -6 2086.39   73.19
  -1   3  -6 1961.80   67.89
   2  -3   6   78.39    6.70
   2  -3   6   79.09    6.70
  -2  -3  -6   88.79    7.20
  -2   3  -6   90.59    7.00
  -2   3  -6   90.29   10.10
   2   3   6   96.19    8.10
   3  -3   6  273.27   14.30
  -3  -3  -6  261.57   13.80
  -3   3  -6  289.17   14.30
  -3   3  -6  279.57   19.60
   3   3   6  284.97   15.00
  -4  -3  -6   34.30    5.30
   4   3   6   37.30    5.60
  -4   3  -6   19.50    4.70
  -4   3  -6   25.40    7.10
   5  -3   6  231.88   15.40
  -5  -3  -6  209.68   13.10
  -5   3  -6  221.58   14.40
  -5   3  -6  204.48   17.30
   6  -3   6   41.00    8.20
  -6  -3  -6   39.70    6.80
  -6   3  -6   49.90    7.90
  -6   3  -6   32.40   10.00
   6   3   6   40.00    8.30
   7  -3   6  159.58   17.40
  -7  -3  -6  145.89   13.60
   7   3   6  144.99   13.60
  -7   3  -6  162.98   15.00
  -7   3  -6  147.59   19.80
  -7  -4   6   30.60    6.80
   7  -4  -6   27.10    9.80
  -7   4   6   39.50    8.20
  -7   4   6   24.80    7.70
  -6  -4   6  172.88   12.60
   6  -4  -6  155.48   16.80
   6   4  -6  217.08   15.40
  -6   4   6  184.58   14.10
  -6   4   6  201.58   14.60
  -5  -4   6   61.39    7.70
   5   4  -6   57.79    8.80
  -5   4   6   61.89    9.70
  -5   4   6   45.10    7.10
   4  -4  -6  323.07   18.60
  -4  -4   6  303.97   15.30
   4   4  -6  315.37   19.00
  -4   4   6  329.77   17.00
  -4   4   6  315.67   17.20
   3  -4  -6   46.40    7.10
   3   4  -6   45.70    7.70
  -3   4   6   50.39    6.80
   2  -4  -6  321.37   16.60
   2   4  -6  335.47   19.30
  -2   4   6  337.97   16.90
  -2   4   6  316.17   16.70
  -2   4   6  329.67   13.70
   1  -4  -6   31.70    5.10
  -1   4   6   35.00    6.20
  -1   4   6   26.90    3.00
  -1   4   6   28.40    4.90
   0  -4   6  561.94   21.10
   0  -4   6  563.74   23.30
   0  -4  -6  595.14   22.80
   0   4   6  546.95   24.50
   0   4  -6  595.54   21.40
   0   4   6  578.74   21.30
   1  -4   6  145.69    9.30
   1  -4   6  135.09    7.90
  -1   4  -6  128.59    8.00
   1   4   6  139.89   10.10
   2  -4   6   19.00    4.50
  -2  -4  -6   29.30    5.10
   2  -4   6   24.00    4.50
  -2   4  -6   34.70    4.70
   2   4   6   15.60    4.60
   3  -4   6   24.00    5.40
  -3  -4  -6   15.10    6.90
   3   4   6   29.90    6.00
  -3   4  -6   25.80    5.00
  -3   4  -6   24.40    7.80
   4  -4   6  200.68   14.30
  -4  -4  -6  178.38   12.30
  -4   4  -6  202.78   18.30
   4   4   6  184.88   12.90
   5  -4   6   77.89   10.60
  -5  -4  -6  105.89   10.80
  -5   4  -6  104.09   11.40
  -5   4  -6  107.79   14.80
   5   4   6   96.29   10.70
  -6  -4  -6  181.78   14.00
   6  -4   6  169.18   18.60
   6   4   6  202.38   14.90
  -6   4  -6  149.88   22.20
  -6   4  -6  181.78   15.90
  -6  -5   6   23.90    7.00
   6  -5  -6   29.30   12.20
  -6   5   6   34.30   10.10
  -6   5   6   26.00    8.40
   5  -5  -6   60.59   11.70
  -5  -5   6   67.59    9.00
   5   5  -6   62.79   11.60
  -5   5   6   70.99   10.00
  -5   5   6   96.09   14.20
  -4  -5   6   96.79    9.40
   4  -5  -6   99.19   12.30
   4   5  -6  100.29   13.20
  -4   5   6   89.19   12.90
  -4   5   6   94.69   11.80
  -3  -5   6   24.20    4.90
   3  -5  -6   13.00    7.10
   3   5  -6    1.90    8.00
  -3   5   6   16.00    5.90
  -3   5   6   14.90    6.80
   2  -5  -6  240.38   15.60
  -2  -5   6  238.38   13.00
   2   5  -6  217.28   18.80
  -2   5   6  216.88   14.60
  -2   5   6  228.98   15.50
  -1  -5   6  209.38   11.80
   1  -5  -6  186.98   13.20
   1   5  -6  166.88   17.80
  -1   5   6  177.88   14.40
  -1   5   6  190.68   13.40
   0  -5   6  415.36   19.00
   0  -5  -6  383.66   18.40
   0   5  -6  381.56   24.80
   0   5   6  387.46   20.60
   1  -5   6  146.69   11.30
  -1   5  -6  167.48   17.70
   1   5   6  141.19   12.70
   2  -5   6  183.38   13.80
  -2   5  -6  215.98   20.20
   2   5   6  206.78   14.70
   3  -5   6   78.89    9.80
  -3   5  -6   96.39   14.20
   3   5   6  105.69   11.20
  -3   5  -6  102.79   11.50
   3   5   6   97.19   11.80
  -4  -5  -6   42.20    7.30
   4  -5   6   40.70    9.20
  -4   5  -6   38.80   13.00
  -4   5  -6   38.70    7.80
   4   5   6   28.20    7.60
  -2  -6   6  135.09   13.10
   2   6  -6  118.29   16.80
  -2   6   6  162.28   18.30
  -1  -6   6  104.19   11.40
  -1   6   6  106.69   13.30
   1   6  -6   80.59   15.60
  -1   6   6   99.49   13.00
   0  -6   6   83.59   11.70
   0   6  -6   65.39   15.70
   0   6   6   76.79   10.00
   0   6   6  122.09   16.00
 -10   0   7   -5.80    6.50
  10   0  -7   -6.50    9.30
   9   0  -7  508.05   27.20
  -9   0   7  456.55   23.10
  -8   0   7   -3.70    4.00
   8   0  -7    0.50    6.00
  -7   0   7  873.91   33.60
  -7   0   7  787.42   29.60
  -7   0   7  854.71   30.30
  -6   0   7    0.80    3.00
  -6   0   7    1.10    3.30
   6   0  -7   -2.00    3.90
   5   0  -7 2062.99   75.49
  -5   0   7 2046.10   73.99
  -5   0   7 2149.88   73.89
  -5   0   7 2086.59   73.09
  -4   0   7    0.50    2.10
  -4   0   7    6.50    3.90
  -4   0   7   -1.60    2.40
  -4   0   7    0.90    3.30
   4   0  -7    2.40    3.00
  -4   0   7    3.60    2.90
  -3   0   7 1507.85   56.29
  -3   0   7 1577.64   56.29
  -3   0   7 1590.34   55.39
  -3   0   7 1485.75   55.69
  -3   0   7 1537.25   54.69
   3   0  -7 1515.05   55.19
  -2   0   7    2.00    1.80
  -2   0   7    0.80    3.40
   2   0  -7    4.00    2.10
  -2   0   7    2.00    2.90
  -2   0   7    0.90    1.60
  -2   0   7   -0.40    2.40
  -1   0   7   44.00    4.70
  -1   0   7   38.50    5.60
  -1   0   7   50.09    3.50
  -1   0   7   41.90    6.00
  -1   0   7   38.60    4.50
   0   0  -7   -0.10    2.10
   0   0   7    1.90    3.90
   0   0   7   -1.70    1.90
   0   0   7    1.80    1.00
   0   0   7    2.10    1.90
   0   0   7   -0.70    3.30
  -1   0  -7  733.13   28.60
   1   0   7  740.43   28.70
   1   0   7  776.02   27.30
   1   0   7  675.43   27.50
   1   0   7  754.72   31.30
   1   0   7  773.32   31.30
  -2   0  -7    2.10    2.10
   2   0   7    1.90    3.70
  -3   0  -7  317.47   15.50
   3   0   7  323.77   13.40
   3   0   7  340.87   18.10
  -3   0  -7  324.47   12.40
   4   0   7   -4.00    4.80
   4   0   7    3.90    2.90
  -4   0  -7    0.30    1.50
  -5   0  -7  517.55   21.10
   5   0   7  629.94   28.00
   5   0   7  593.54   23.50
   6   0   7    6.60    7.40
   6   0   7    3.40    4.60
  -6   0  -7   -0.40    3.90
  -7   0  -7  537.15   26.30
   7   0   7  556.94   24.90
  -8   0  -7   -4.10    6.30
   8   0   7   -0.20    9.70
  10  -1  -7  100.19   15.60
  10   1  -7  127.89   18.70
  -9  -1   7   67.89    9.40
   9  -1  -7   42.50   10.60
   9   1  -7   32.10    8.90
  -9   1   7   46.10    7.90
  -8  -1   7  357.46   17.50
   8  -1  -7  362.96   22.50
  -8   1   7  358.36   18.60
   8   1  -7  357.56   21.00
  -7  -1   7  172.78   10.20
  -7  -1   7  151.28    7.20
  -7   1   7  175.88   11.70
   7   1  -7  169.78   13.10
  -7   1   7  151.08    8.30
  -6  -1   7  271.37   14.00
  -6  -1   7  284.17   13.30
  -6  -1   7  290.87   13.80
  -6  -1   7  299.77   12.90
   6  -1  -7  312.87   17.40
  -6   1   7  309.87   15.50
  -6   1   7  300.87   15.20
  -6   1   7  276.87   12.70
   6   1  -7  286.67   16.10
   5  -1  -7   70.59    8.70
  -5  -1   7   72.99    6.90
  -5  -1   7   78.09    6.70
  -5  -1   7   79.79    6.20
  -5  -1   7   73.49    6.00
  -5   1   7   73.39    7.10
   5   1  -7   80.49    7.60
  -5   1   7   68.79    6.10
  -5   1   7   61.49    8.50
  -4  -1   7 2630.64   92.19
  -4  -1   7 2617.44   91.49
  -4  -1   7 2744.23   91.29
  -4  -1   7 2691.53   93.09
   4  -1  -7 2699.03   93.39
  -4  -1   7 2616.94   92.69
  -4   1   7 2607.64   92.99
  -4   1   7 2636.64   92.09
  -4   1   7 2499.65   92.79
  -4   1   7 2663.93   93.79
  -3  -1   7  242.08   12.50
  -3  -1   7  250.17   11.20
  -3  -1   7  222.68   13.00
   3  -1  -7  237.48   11.90
  -3  -1   7  236.88   10.70
  -3  -1   7  218.08   11.30
  -3   1   7  236.48   12.10
  -3   1   7  235.48   11.90
   3   1  -7  235.98   13.10
  -3   1   7  233.78   12.10
  -3   1   7  236.48   13.60
  -3   1   7  218.58   11.90
  -2  -1   7 2117.39   78.29
  -2  -1   7 2287.97   76.49
   2  -1  -7 2192.08   76.39
  -2  -1   7 2283.27   77.99
  -2  -1   7 2193.28   76.29
   2   1  -7 2142.59   76.39
  -2   1   7 2204.28   76.59
  -2   1   7 2270.87   77.99
  -2   1   7 2218.28   78.39
  -2   1   7 2204.58   79.49
   2   1  -7 2117.19   79.09
  -2   1   7 2163.08   77.29
   1  -1  -7   43.90    4.80
  -1  -1   7   35.00    4.10
  -1  -1   7   41.70    3.50
  -1  -1   7   47.40    5.10
  -1  -1   7   45.10    6.20
   1   1  -7   35.20    5.60
  -1   1   7   34.00    4.70
  -1   1   7   32.10    5.90
   1   1  -7   48.60    4.40
  -1   1   7   35.10    4.90
  -1   1   7   38.20    5.40
   0  -1  -7  547.95   22.10
   0  -1   7  545.55   21.40
   0  -1   7  522.85   23.90
   0  -1   7  542.95   20.10
   0   1   7  514.25   24.50
   0   1  -7  510.95   21.00
   0   1   7  541.55   22.10
   0   1  -7  582.84   21.70
   0   1   7  532.85   23.60
   0   1   7  566.94   18.80
   0   1  -7  527.75   24.20
   0   1   7  549.95   19.40
  -1  -1  -7  198.68   10.50
   1  -1   7  251.57   19.90
   1  -1   7  193.08    8.50
  -1   1  -7  178.68   12.50
   1   1   7  217.88   17.30
   1   1   7  175.58   11.60
  -1   1  -7  186.58    9.00
  -1   1  -7  189.58    9.90
   2  -1   7  500.35   22.60
   2  -1   7  587.14   21.40
  -2  -1  -7  572.54   23.10
   2   1   7  548.85   24.90
  -2   1  -7  557.64   23.00
  -2   1  -7  578.34   26.00
  -2   1  -7  563.14   21.10
   3  -1   7  830.72   31.60
  -3  -1  -7  863.61   33.30
   3   1   7  855.01   35.30
  -3   1  -7  845.62   33.30
  -3   1  -7  863.21   36.40
  -3   1  -7  845.72   30.80
   4  -1   7   16.80    4.00
  -4  -1  -7   21.70    4.40
  -4   1  -7   16.40    4.00
  -4   1  -7   24.30    6.60
  -4   1  -7   18.60    2.80
   4   1   7   22.00    5.90
  -5  -1  -7  352.46   17.20
   5  -1   7  332.27   16.30
   5   1   7  352.16   18.80
  -5   1  -7  300.17   13.80
  -5   1  -7  303.97   21.50
  -5   1  -7  328.87   19.60
   5   1   7  305.57   13.10
  -6  -1  -7  570.04   25.50
   6  -1   7  555.54   25.20
   6   1   7  513.65   22.30
  -6   1  -7  550.74   25.70
  -7  -1  -7   41.80    7.20
   7  -1   7   33.70   10.40
   7  -1   7   52.59    8.60
  -7   1  -7   70.09   10.70
  -8  -1  -7   66.49   10.00
   8  -1   7   79.89   12.00
   8  -1   7   84.59   14.60
   8   1   7  120.79   15.60
  -8   1  -7   93.69   13.90
  -9  -2   7  188.48   16.60
   9  -2  -7  149.19   20.20
  -9   2   7  159.28   15.40
   8  -2  -7   25.40    9.10
  -8  -2   7   34.80    7.20
  -8  -2   7   33.20    5.40
  -8   2   7   27.50    6.50
  -7  -2   7  118.59    8.50
  -7  -2   7  118.29    8.20
   7  -2  -7  124.99   14.10
  -7  -2   7  135.29   11.90
  -7   2   7  112.39    8.70
  -7   2   7  112.19   10.60
  -6  -2   7  300.37   13.50
   6  -2  -7  321.77   18.50
  -6  -2   7  289.07   13.40
   6  -2  -7  272.17   17.20
  -6  -2   7  356.56   14.00
  -6   2   7  312.57   16.90
  -6   2   7  297.57   14.20
  -5  -2   7  587.94   22.00
  -5  -2   7  580.04   24.70
   5  -2  -7  576.64   26.10
   5  -2  -7  542.75   25.90
  -5  -2   7  570.94   23.10
  -5  -2   7  586.24   22.10
   5   2  -7  554.14   24.60
  -5   2   7  619.44   23.60
  -5   2   7  580.24   25.30
  -4  -2   7   94.59    7.60
  -4  -2   7   97.09    5.90
  -4  -2   7   88.19    7.90
   4  -2  -7   98.79    8.90
  -4  -2   7  102.69    5.90
   4  -2  -7   91.79   10.70
   4   2  -7   91.39    9.00
  -4   2   7   96.29    7.50
  -4   2   7   91.19    8.10
  -4   2   7  110.69    8.60
  -3  -2   7  470.35   21.50
  -3  -2   7  509.05   19.40
   3  -2  -7  515.55   21.50
  -3  -2   7  498.95   19.10
  -3  -2   7  522.05   20.80
   3  -2  -7  508.85   24.70
  -3   2   7  508.85   22.10
  -3   2   7  484.55   20.20
   3   2  -7  511.85   23.20
  -3   2   7  504.15   21.40
   2  -2  -7  758.42   28.80
  -2  -2   7  777.52   27.80
  -2  -2   7  715.73   30.20
  -2  -2   7  768.02   28.60
   2   2  -7  758.02   31.90
  -2   2   7  761.02   30.40
  -2   2   7  777.72   28.00
   2   2  -7  746.73   27.80
  -2   2   7  760.42   30.20
  -1  -2   7   34.00    8.40
  -1  -2   7   43.90    4.30
  -1  -2   7   38.60    4.00
  -1   2   7   48.30    5.90
  -1   2   7   46.40    3.40
   1   2  -7   62.09    8.00
   0  -2  -7   27.50    4.20
   0  -2   7   42.30    3.80
   0  -2   7   39.30    4.40
   0   2   7   38.10    5.60
   0   2  -7   32.70    4.10
   0   2  -7   25.40    5.00
   0   2  -7   26.80    4.00
   1  -2   7 1686.83   58.79
  -1  -2  -7 1641.14   59.79
   1  -2   7 1662.43   58.09
   1   2   7 1659.13   61.09
  -1   2  -7 1631.44   58.89
  -1   2  -7 1588.64   58.69
  -1   2  -7 1709.73   63.19
   2  -2   7  258.57   13.20
  -2  -2  -7  267.67   13.60
   2  -2   7  286.07   12.60
  -2   2  -7  259.37   12.50
  -2   2  -7  265.97   13.20
   2   2   7  279.37   15.00
   3  -2   7 1662.73   60.89
  -3  -2  -7 1691.43   61.89
   3   2   7 1646.74   63.09
  -3   2  -7 1766.62   62.19
  -3   2  -7 1729.43   65.69
  -4  -2  -7   85.29    8.20
   4  -2   7   80.59    8.30
   4   2   7   84.99    9.60
  -4   2  -7   89.89    8.50
  -5  -2  -7  100.09    9.10
   5  -2   7   90.39   10.20
  -5   2  -7   85.99    9.50
  -5   2  -7   84.59   11.50
  -6  -2  -7   59.79    8.30
   6  -2   7   61.29    8.80
  -6   2  -7   65.49    9.80
  -6   2  -7   64.29   11.00
   7  -2   7   51.29    9.60
  -7  -2  -7   44.20    8.00
  -7   2  -7   40.70   12.00
  -7   2  -7   59.19    9.60
   7   2   7   45.70    8.90
   8  -3  -7   11.10    9.80
  -8  -3   7   -8.80    6.40
  -8   3   7    5.90    5.80
  -7  -3   7   44.60    7.80
   7  -3  -7   32.90    9.20
  -7   3   7   48.60    6.80
  -7   3   7   46.70    7.90
  -6  -3   7   23.00    5.60
  -6   3   7   26.80    6.00
  -6   3   7   13.80    4.80
   6   3  -7   27.30    6.40
  -5  -3   7   18.60    2.20
  -5  -3   7    9.30    5.20
   5  -3  -7   15.10    5.80
  -5   3   7   15.10    4.10
   5   3  -7    4.10    5.30
  -5   3   7    7.80    4.60
  -4  -3   7  301.77   14.70
   4  -3  -7  304.97   16.60
  -4  -3   7  304.27   11.20
  -4   3   7  298.07   15.10
   4   3  -7  273.17   16.90
   3  -3  -7  117.39    9.50
  -3  -3   7  114.59    7.90
  -3  -3   7  122.79    5.60
  -3  -3   7  118.09    5.60
  -3   3   7  122.99    9.20
   3   3  -7  135.19   11.50
  -3   3   7  120.89    9.50
  -3   3   7  111.19    7.50
   2  -3  -7  440.06   19.90
  -2  -3   7  480.45   19.60
   2   3  -7  455.45   23.10
  -2   3   7  505.25   21.80
  -2   3   7  476.65   18.10
  -2   3   7  498.85   21.30
   1  -3  -7  122.19    7.60
  -1  -3   7  118.39    7.40
  -1  -3   7  113.99    6.40
  -1   3   7  106.69    8.60
  -1   3   7  110.69    8.80
   1   3  -7  130.89    6.60
  -1   3   7  120.19    5.60
   1   3  -7  136.19   11.60
   0  -3  -7 1669.53   62.39
   0  -3   7 1751.42   60.29
   0  -3   7 1786.42   61.19
   0   3  -7 1685.43   65.79
   0   3  -7 1724.73   60.39
   1  -3   7   60.99    5.90
  -1  -3  -7   67.99    6.80
   1  -3   7   65.29    6.00
  -1   3  -7   56.89    5.90
   1   3   7   61.29    7.50
   2  -3   7  113.89    8.30
  -2  -3  -7  123.19    9.10
   2  -3   7  103.39    9.50
  -2   3  -7  124.89    8.40
   3  -3   7  199.98   12.40
  -3  -3  -7  195.88   13.70
  -3   3  -7  212.48   12.20
  -3   3  -7  195.08   16.40
  -4  -3  -7   60.79    8.10
  -4   3  -7   49.60    9.70
   4   3   7   78.99    9.50
   5  -3   7   23.90    6.50
  -5  -3  -7   19.50    5.20
  -5   3  -7   21.60    9.10
  -5   3  -7   25.50    6.30
   5   3   7   22.80    5.90
   6  -3   7  222.88   17.20
  -6  -3  -7  192.78   14.30
  -6   3  -7  201.78   15.60
   6   3   7  166.48   14.50
  -6   3  -7  203.78   20.50
   7  -3   7   29.90   10.00
  -7   3  -7   35.50   13.10
   7   3   7   21.40    7.70
  -7  -4   7   30.00    6.60
   7  -4  -7   45.90   11.40
  -7   4   7   37.40    8.70
  -7   4   7   23.80    8.00
   6  -4  -7  130.49   16.00
  -6  -4   7  123.19   11.10
  -6   4   7  120.49   12.90
   6   4  -7  120.99   15.00
  -6   4   7  124.09   12.60
  -5  -4   7   82.09    8.90
  -5   4   7   58.39    8.10
  -5   4   7   77.39   10.90
   5   4  -7   74.69   10.50
  -4  -4   7  508.45   22.10
   4  -4  -7  509.45   25.00
   4   4  -7  502.85   26.10
  -4   4   7  492.05   23.50
  -4   4   7  526.45   24.40
  -3  -4   7  201.18   11.20
   3  -4  -7  188.68   13.30
  -3   4   7  199.08   12.90
  -3   4   7  171.18   12.90
   2  -4  -7  721.03   28.80
  -2  -4   7  699.33   27.70
  -2   4   7  718.93   29.80
  -2   4   7  654.53   25.80
  -1  -4   7   64.09    6.60
   1  -4  -7   73.19    7.90
   1   4  -7   63.19   12.20
  -1   4   7   57.49    8.30
   1   4  -7   65.59    4.20
   0  -4  -7   54.89    6.20
   0  -4   7   56.99    6.50
   0   4  -7   53.09    5.00
   0   4  -7   69.69   10.60
   1  -4   7  430.46   19.30
  -1   4  -7  403.16   24.60
  -1   4  -7  422.46   17.90
   1   4   7  450.75   21.10
   2  -4   7  123.49   10.30
  -2  -4  -7  143.69   10.80
  -2   4  -7  118.39   15.10
   2   4   7  131.49   11.50
  -2   4  -7  139.09    9.50
   3  -4   7  533.05   25.10
  -3  -4  -7  544.55   24.50
  -3   4  -7  521.55   29.50
  -3   4  -7  566.44   24.10
   3   4   7  539.75   25.20
  -4  -4  -7   92.89   10.50
   4  -4   7   82.49   11.90
   4   4   7   82.99   10.80
  -4   4  -7   77.49   13.50
  -4   4  -7   80.09   11.20
  -5  -4  -7  131.89   12.70
   5  -4   7  123.19   15.80
   5   4   7  116.19   12.90
  -5   4  -7  122.79   13.30
  -5   4  -7  136.09   17.70
  -5  -5   7   70.89   10.10
   5  -5  -7   62.69   12.30
  -5   5   7   65.99   10.30
  -5   5   7   57.79    9.50
   5   5  -7   50.79   12.30
  -4  -5   7  211.58   13.30
   4  -5  -7  226.58   18.70
   4   5  -7  209.68   20.40
  -4   5   7  213.28   16.90
  -4   5   7  210.88   16.20
   3  -5  -7   78.99   10.50
  -3  -5   7   77.29    9.10
   3   5  -7   81.29   12.80
  -3   5   7   97.69   11.90
  -3   5   7   73.89   11.40
  -2  -5   7   93.29    8.80
   2  -5  -7   73.49    9.20
  -2   5   7   83.89   10.90
  -2   5   7   68.49    9.20
   2   5  -7   70.99   12.20
  -1  -5   7   80.69    8.60
  -1   5   7   78.49   10.30
   1   5  -7   80.19   12.90
  -1   5   7   77.29   10.80
   0  -5   7   96.89    9.60
   0   5  -7   84.99   13.00
   0   5   7   97.49   11.20
   0   5   7  108.99   11.70
   1  -5   7   80.49    9.50
  -1   5  -7   71.89   13.00
   1   5   7   71.49   10.10
   1   5   7   86.49   11.40
   2  -5   7   35.20    7.20
   2   5   7   42.00    7.60
  -2   5  -7   50.39   12.70
   2   5   7   48.50    8.80
   3  -5   7   -0.20    6.50
   3   5   7   16.20    7.00
  -3   5  -7   20.00   11.10
   9   0  -8    6.60    8.40
  -9   0   8   11.30    6.10
   8   0  -8   24.70    8.40
  -8   0   8   24.70    6.10
  -7   0   8    0.40    5.60
   7   0  -8    4.90    5.60
  -7   0   8   -2.00    2.60
  -6   0   8  349.96   17.40
   6   0  -8  392.66   20.10
  -6   0   8  371.66   16.30
  -6   0   8  393.96   18.10
  -5   0   8   -1.10    4.40
   5   0  -8    1.80    3.50
  -5   0   8    3.20    3.10
  -5   0   8   -3.60    3.10
   4   0  -8  486.85   20.90
  -4   0   8  463.85   23.40
  -4   0   8  469.05   20.50
  -4   0   8  474.75   21.50
  -4   0   8  473.15   21.00
  -3   0   8   -1.90    2.20
  -3   0   8    0.70    3.40
  -3   0   8   -1.10    2.20
  -3   0   8    0.60    2.50
  -3   0   8    1.30    3.50
  -3   0   8   -5.40    4.20
  -2   0   8 1236.48   44.20
  -2   0   8 1255.57   47.60
   2   0  -8 1273.77   45.50
  -2   0   8 1251.17   45.50
  -2   0   8 1159.38   45.00
  -2   0   8 1240.88   47.70
  -1   0   8   -8.90    5.60
  -1   0   8   -1.00    2.60
   1   0  -8   -1.50    2.20
  -1   0   8    6.10    3.00
  -1   0   8    0.50    1.40
  -1   0   8    0.00    3.60
   0   0   8  509.65   18.30
   0   0   8  475.65   22.90
   0   0   8  526.15   23.80
   0   0   8  479.55   19.60
   0   0  -8  522.15   21.20
   1   0   8   -1.00    3.70
   1   0   8    1.70    1.30
   1   0   8   -0.80    2.20
  -1   0  -8   -1.50    2.20
   2   0   8 1437.06   47.40
  -2   0  -8 1286.27   50.09
   2   0   8 1352.96   53.29
   3   0   8   -4.70    5.00
   3   0   8    0.30    2.50
  -3   0  -8   -0.50    2.00
  -3   0  -8    1.70    2.90
  -4   0  -8 1536.05   52.09
   4   0   8 1436.06   53.19
   4   0   8 1548.35   60.09
   5   0   8    2.30    3.90
  -5   0  -8    0.40    3.80
   6   0   8   76.49   12.10
   6   0   8   88.49   12.10
  -6   0  -8   83.79   10.50
  -7   0  -8    2.60    5.70
   7   0   8   13.10    9.10
   9  -1  -8   73.29   12.20
  -9  -1   8   83.59   10.50
   9   1  -8   63.79   10.50
  -9   1   8   74.69   11.60
  -8  -1   8  335.77   22.50
   8  -1  -8  433.16   24.70
  -8   1   8  423.96   21.20
   8   1  -8  429.76   23.30
   7  -1  -8  838.72   36.00
  -7  -1   8  783.12   31.80
  -7  -1   8  756.12   29.60
  -7   1   8  796.82   30.10
  -7   1   8  844.02   33.90
   7   1  -8  833.12   35.10
   6  -1  -8  201.18   13.90
  -6  -1   8  188.28   11.10
  -6  -1   8  212.48   11.10
  -6  -1   8  184.78   11.10
  -6   1   8  189.08   13.60
  -6   1   8  186.18   10.30
  -6   1   8  192.98   12.40
  -5  -1   8   54.09    6.50
  -5  -1   8   55.09    7.40
  -5  -1   8   68.79    7.80
  -5  -1   8   73.39    7.60
   5  -1  -8   66.79    8.40
  -5  -1   8   68.79    6.30
  -5   1   8   64.79    7.40
  -5   1   8   57.19    6.50
  -5   1   8   63.89    8.00
  -4  -1   8  251.77   11.70
  -4  -1   8  242.98   12.90
  -4  -1   8  248.78   12.20
  -4  -1   8  242.38   13.80
   4  -1  -8  245.68   13.30
  -4  -1   8  238.98   13.40
  -4   1   8  225.38   13.70
  -4   1   8  249.38   12.90
  -4   1   8  240.78   13.20
  -4   1   8  246.48   15.40
  -3  -1   8 2062.99   74.19
  -3  -1   8 2088.39   72.49
  -3  -1   8 2167.98   75.19
  -3  -1   8 1882.01   73.99
  -3  -1   8 2097.69   72.59
   3  -1  -8 1981.60   72.59
  -3  -1   8 2053.89   71.99
  -3   1   8 1935.21   75.29
  -3   1   8 2152.68   74.19
  -3   1   8 2088.89   73.89
  -3   1   8 2094.39   72.99
  -2  -1   8  161.28   10.50
  -2  -1   8  151.78    8.80
  -2  -1   8  152.68   11.50
  -2  -1   8  167.08    8.60
   2  -1  -8  172.08    8.60
   2   1  -8  160.88   11.90
  -2   1   8  168.68   10.20
  -2   1   8  166.38   11.00
   2   1  -8  167.18    9.00
  -2   1   8  157.68    9.10
   1  -1  -8 1994.40   69.69
  -1  -1   8 1924.61   68.49
  -1  -1   8 1910.61   68.99
  -1  -1   8 1910.41   67.29
  -1   1   8 1876.61   67.19
  -1   1   8 1979.80   66.59
  -1   1   8 2007.50   71.29
   1   1  -8 1931.11   68.59
   1   1  -8 1958.10   72.19
   0  -1  -8  263.87   13.40
   0  -1   8  265.67   12.60
   0  -1   8  274.07   11.30
   0  -1   8  267.07   12.90
   0   1  -8  288.17   13.10
   0   1   8  276.47   15.30
   0   1  -8  265.37   16.00
   0   1   8  267.87   10.60
   0   1   8  263.97    9.80
   1  -1   8 1016.60   37.20
  -1  -1  -8 1072.89   39.90
  -1   1  -8 1009.00   42.80
  -1   1  -8 1067.19   39.40
  -1   1  -8 1015.30   38.10
   1   1   8 1110.59   42.40
   2  -1   8  136.29    7.60
  -2  -1  -8  124.99   10.20
  -2   1  -8  154.28    9.40
  -2   1  -8  144.69    7.90
  -2   1  -8  136.59   12.30
   2   1   8  136.69   11.30
   3  -1   8 1501.15   54.39
  -3   1  -8 1566.44   60.19
  -3   1  -8 1460.55   53.59
   3   1   8 1572.94   59.09
  -3   1  -8 1541.25   56.69
   4  -1   8   40.40    5.50
  -4   1  -8   45.30    8.50
  -4   1  -8   28.90    4.00
   5  -1   8  712.63   29.50
   5  -1   8  695.53   34.40
  -5  -1  -8  727.33   30.80
  -5   1  -8  723.13   31.00
   6  -1   8  146.69   17.70
   6  -1   8  169.58   13.70
  -6  -1  -8  162.28   12.80
  -6   1  -8  157.28   13.20
   6   1   8  171.38   16.20
  -7  -1  -8  111.99   13.00
   7  -1   8  119.99   15.80
  -7   1  -8  112.89   13.60
   7   1   8  134.89   16.70
   9  -2  -8   19.80   11.50
  -9  -2   8   18.00    8.50
  -9   2   8   27.20    8.10
  -8  -2   8  134.49   10.40
   8  -2  -8  157.18   18.10
  -8  -2   8  178.58   15.10
  -8   2   8  143.99   13.80
  -7  -2   8   75.79   10.80
   7  -2  -8   59.89    9.70
  -7  -2   8   78.19    7.50
  -7   2   8   73.69    9.50
  -7   2   8   79.59    8.40
  -6  -2   8  415.56   20.30
  -6  -2   8  373.76   19.00
  -6  -2   8  419.86   17.20
  -6   2   8  412.66   20.60
  -6   2   8  406.76   18.30
   5  -2  -8   12.10    5.10
  -5  -2   8    6.40    3.00
  -5  -2   8    5.90    2.90
  -5  -2   8    7.60    3.90
  -5  -2   8    6.50    4.80
  -5   2   8   13.30    4.80
  -5   2   8    5.40    3.40
   5   2  -8    5.20    4.90
  -4  -2   8  477.05   19.00
  -4  -2   8  473.35   20.80
   4  -2  -8  506.95   22.10
  -4  -2   8  456.05   21.60
  -4  -2   8  488.65   19.20
  -4   2   8  455.05   20.90
  -4   2   8  466.55   24.00
   4   2  -8  512.05   23.20
  -4   2   8  496.95   21.20
  -3  -2   8  130.19    7.50
   3  -2  -8  136.59    9.40
  -3  -2   8  128.19    8.30
  -3  -2   8  132.49    7.50
  -3   2   8  131.49    8.40
  -3   2   8  138.19    9.60
   3   2  -8  131.09   11.50
  -2  -2   8 1327.27   49.00
  -2  -2   8 1396.76   49.60
   2  -2  -8 1431.56   49.50
  -2   2   8 1394.06   53.69
  -2   2   8 1322.07   51.59
   2   2  -8 1473.55   49.40
  -2   2   8 1325.67   48.60
   2   2  -8 1381.46   53.69
   1  -2  -8 1036.80   39.80
  -1  -2   8  995.70   37.90
   1  -2  -8 1075.69   36.70
  -1  -2   8 1061.19   37.90
  -1   2   8 1052.69   40.90
   1   2  -8 1036.90   42.70
  -1   2   8 1014.70   36.10
   1   2  -8 1064.69   38.30
   0  -2   8  679.73   25.70
   0  -2  -8  656.23   27.70
   0  -2   8  703.23   26.50
   0   2   8  673.63   29.00
   0   2  -8  682.13   26.50
   0   2  -8  692.63   31.10
   1  -2   8  473.75   18.60
  -1  -2  -8  469.15   20.40
   1  -2   8  415.76   19.30
  -1   2  -8  466.15   19.50
  -2  -2  -8  963.80   38.70
   2  -2   8 1037.70   36.90
  -2   2  -8  968.80   37.80
   2   2   8  973.10   39.90
  -3  -2  -8  159.78   10.90
   3  -2   8  144.89    9.80
  -3   2  -8  152.08   10.40
  -3   2  -8  174.68   14.30
   4  -2   8   72.79    8.70
  -4  -2  -8   78.59    8.70
   4   2   8   58.49    9.20
  -4   2  -8   80.89   11.50
  -5  -2  -8   42.20    7.10
   5  -2   8   52.69    7.70
  -5   2  -8   49.80   11.00
  -5   2  -8   33.50    6.60
   5   2   8   49.70    8.50
  -6  -2  -8   98.39   11.50
   6  -2   8  106.89   11.60
   6   2   8  111.69   14.10
  -6   2  -8   87.79   12.00
  -6   2  -8   94.99   13.60
   7  -2   8   47.70   10.70
  -7  -2  -8   37.40    7.80
   7   2   8   32.20    9.60
  -7   2  -8   31.30    8.80
  -7   2  -8   50.59   13.20
  -8  -3   8   62.29    9.90
   8  -3  -8   73.69   13.80
  -8   3   8   47.10    9.80
   7  -3  -8  148.79   17.40
  -7  -3   8  150.88   13.30
  -7   3   8  163.28   12.40
  -7   3   8  158.18   14.10
  -6  -3   8   68.49    8.50
   6  -3  -8   44.70    9.50
  -6   3   8   80.49    9.20
  -6   3   8   73.19    9.70
   6   3  -8   75.29    9.50
   5  -3  -8  135.69   13.30
  -5  -3   8  128.19   10.20
  -5   3   8  129.39   10.80
  -5   3   8  127.19   11.20
   5   3  -8  135.49   13.30
  -4  -3   8  138.19    9.70
   4  -3  -8  144.89   11.90
  -4   3   8  132.29   11.90
   4   3  -8  136.39   13.20
  -4   3   8  135.59   11.30
  -3  -3   8  171.48    8.20
  -3  -3   8  170.28    8.20
   3  -3  -8  194.78   11.90
  -3  -3   8  181.98   10.30
   3   3  -8  181.08   14.20
  -3   3   8  159.98    9.50
   2  -3  -8  145.49    9.40
  -2  -3   8  152.38    7.60
  -2  -3   8  151.18    7.60
  -2   3   8  134.29    7.30
   2   3  -8  148.59   13.40
  -1  -3   8  881.61   33.30
  -1  -3   8  906.41   34.40
  -1   3   8  917.71   37.10
   1   3  -8  933.51   40.30
   1   3  -8  947.61   33.60
   0  -3   8   20.60    3.60
   0  -3  -8    9.60    4.50
   0  -3   8   10.70    3.20
   0   3  -8   18.50    3.40
   1  -3   8  417.66   19.00
   1  -3   8  455.05   19.30
  -1  -3  -8  475.05   20.80
  -1   3  -8  451.95   19.20
  -2  -3  -8   53.99    7.30
  -2   3  -8   45.00    6.80
   2   3   8   50.69    7.70
   3  -3   8  269.77   15.00
  -3  -3  -8  278.77   15.40
  -3   3  -8  263.37   14.80
   3   3   8  282.57   16.50
  -3   3  -8  247.88   19.50
   4  -3   8   24.90    6.20
  -4  -3  -8   37.60    7.00
   4   3   8   37.10    7.20
  -4   3  -8   44.20    7.00
  -4   3  -8   35.20   10.20
   5  -3   8  120.89   13.90
  -5  -3  -8   95.49   11.60
  -5   3  -8  105.39   11.90
   5   3   8   95.39   12.10
  -5   3  -8   92.79   14.50
   6  -3   8  -11.10    7.90
  -6  -3  -8   -2.70    6.20
  -6   3  -8   11.50    7.80
  -6   3  -8    3.70   12.10
   6   3   8    4.60    7.20
  -6  -4   8  170.98   13.10
   6  -4  -8  182.88   19.10
  -6   4   8  179.78   14.90
  -6   4   8  200.48   16.00
  -5  -4   8   27.10    5.60
  -5   4   8   20.70    6.90
  -5   4   8   21.10    7.10
   4  -4  -8  302.87   18.20
  -4  -4   8  286.57   15.10
  -4   4   8  273.17   16.50
  -4   4   8  261.67   17.20
   3  -4  -8  203.98   13.90
  -3  -4   8  183.08   11.50
   3   4  -8  199.88   17.30
  -3   4   8  200.98   13.80
  -3   4   8  201.78   14.40
  -2  -4   8  220.38   12.20
   2  -4  -8  190.38   12.70
  -2   4   8  217.98   13.90
  -2   4   8  217.78   14.40
   2   4  -8  218.98   18.10
   1  -4  -8  391.66   19.20
  -1  -4   8  404.26   17.70
  -1   4   8  372.46   19.60
  -1   4   8  381.26   19.80
   1   4  -8  364.76   23.50
   0  -4   8  361.46   16.30
   0   4   8  349.07   18.40
   0   4  -8  313.27   21.80
   0   4  -8  314.77   14.30
   0   4   8  344.77   18.30
   1  -4   8  167.48   11.10
  -1  -4  -8  153.28   11.80
  -1   4  -8  160.08    9.80
   1   4   8  153.58   12.20
  -1   4  -8  156.58   16.90
  -2  -4  -8  342.77   18.40
   2  -4   8  368.46   18.20
  -2   4  -8  314.87   16.60
  -2   4  -8  357.66   24.10
   2   4   8  346.77   19.20
  -3  -4  -8  385.16   19.80
   3  -4   8  369.86   20.30
   3   4   8  378.46   20.60
  -3   4  -8  372.66   26.10
   4  -4   8    0.80    6.40
  -4  -4  -8    7.50    6.30
   4   4   8    1.00    6.50
  -4   4  -8  -13.40   11.00
  -4   4  -8   -0.20    5.60
  -4  -5   8   31.00    6.10
   4   5  -8   25.60   11.90
  -4   5   8   24.60    8.70
  -4   5   8   28.70    8.30
  -3  -5   8  144.69   11.80
  -3   5   8  158.48   14.70
   3   5  -8  157.38   20.30
  -3   5   8  173.58   16.20
  -2  -5   8  125.49   10.80
  -2   5   8  123.89   13.70
   2   5  -8  151.68   19.60
  -2   5   8  127.29   13.60
  -1  -5   8   91.89    9.70
  -1   5   8   89.39   12.30
  -1   5   8   84.39   11.70
   1   5  -8   91.19   14.00
   0  -5   8   42.30    6.90
   0   5   8   37.00    7.60
   0   5   8   34.10    7.40
   0   5  -8   19.20   10.60
   1  -5   8   96.09   11.00
   1   5   8   85.49   12.40
   1   5   8   80.89   11.90
  -1   5  -8   78.99   13.30
   2  -5   8   54.89    8.70
   2   5   8   35.20    8.80
   2   5   8   53.09    8.60
  -2   5  -8   45.20   12.80
   9   0  -9   22.20    9.70
  -9   0   9   34.50    8.00
   8   0  -9    6.40    7.70
  -8   0   9   -5.10    5.30
   7   0  -9  694.43   31.50
  -7   0   9  665.43   29.00
  -7   0   9  681.33   26.30
  -6   0   9    4.00    6.50
  -6   0   9    4.90    4.60
  -6   0   9    3.50    3.80
  -5   0   9 3342.47  120.89
  -5   0   9 3450.15  120.49
   5   0  -9 3451.85  121.09
  -5   0   9 3524.05  120.29
  -4   0   9   -3.00    3.80
  -4   0   9    1.60    3.00
  -4   0   9   -0.50    3.10
  -3   0   9  250.37   14.70
  -3   0   9  269.17   12.90
  -3   0   9  277.07   14.10
  -3   0   9  276.07   15.60
   2   0  -9    4.00    2.60
  -2   0   9    0.90    4.20
  -2   0   9   -0.30    3.70
  -2   0   9   -2.80    2.10
  -1   0   9  371.26   16.80
   1   0  -9  398.96   17.70
  -1   0   9  390.16   20.30
  -1   0   9  379.56   15.00
   0   0   9   -0.20    4.50
   0   0  -9    0.00    2.90
   0   0   9    0.90    2.90
   0   0   9    2.20    1.40
  -1   0  -9  814.72   32.60
   1   0   9  824.32   29.10
   1   0   9  822.32   30.20
  -2   0  -9    0.50    2.90
   2   0   9    1.00    2.20
   2   0   9    0.80    2.60
   3   0   9  509.65   19.70
   4   0   9   -6.30    6.70
  -4   0  -9    1.90    4.30
   4   0   9   -2.90    3.40
   5   0   9  500.55   27.70
   6   0   9   -5.80    8.90
  -6   0  -9   -4.90    5.80
   7   0   9  107.99   15.70
   9  -1  -9  -10.80    8.90
  -9  -1   9    8.10    6.30
   9   1  -9    3.10    8.40
  -9   1   9    8.90    7.20
  -8  -1   9  130.49   11.30
   8  -1  -9  106.49   15.30
   8   1  -9  125.09   14.90
  -8   1   9  141.99   13.40
  -7  -1   9  140.59   12.70
  -7  -1   9  129.09   10.30
   7  -1  -9  119.59   13.50
  -7   1   9  123.89    8.90
  -7   1   9  114.39   11.60
  -6  -1   9   60.19    8.50
  -6  -1   9   65.69    9.10
  -6  -1   9   60.49    7.30
  -6   1   9   54.49   11.90
  -6   1   9   64.39    8.60
  -6   1   9   55.79    7.40
  -5  -1   9  137.09    9.50
  -5  -1   9  142.09   11.30
   5  -1  -9  131.09   10.80
  -5  -1   9  135.49   11.90
  -5   1   9  130.49    9.90
  -5   1   9  123.19   10.40
  -4  -1   9   81.59    7.50
   4  -1  -9   52.59    7.50
  -4  -1   9   84.29    7.30
  -4  -1   9   70.09    9.60
  -4   1   9   81.39    8.50
  -4   1   9   65.39    7.90
  -3  -1   9  887.91   33.20
  -3  -1   9  875.01   35.80
   3  -1  -9  822.72   32.50
  -3  -1   9  813.02   32.40
  -3  -1   9  848.92   32.40
  -3   1   9  840.02   33.10
  -3   1   9  848.22   34.70
  -3   1   9  873.91   34.40
  -2  -1   9  881.81   31.10
  -2  -1   9  791.32   31.70
  -2  -1   9  774.22   33.10
  -2  -1   9  884.91   35.80
  -2   1   9  799.92   31.30
  -2   1   9  855.31   30.60
  -2   1   9  821.72   33.30
  -2   1   9  843.92   34.40
   2   1  -9  794.62   31.70
  -1  -1   9  211.38    9.70
   1  -1  -9  209.08   12.00
  -1  -1   9  183.08   11.80
  -1   1   9  209.68    8.80
  -1   1   9  215.98   10.10
   1   1  -9  208.88   14.70
  -1   1   9  210.58   13.60
   1   1  -9  206.88   11.20
   0  -1  -9  305.77   14.80
   0  -1   9  274.27   11.90
   0  -1   9  279.27   13.80
   0   1   9  267.97   11.00
   0   1   9  273.37   10.20
   0   1  -9  308.37   17.70
   0   1  -9  310.87   14.30
   0   1   9  250.57   16.00
   1  -1   9  193.98    9.20
  -1   1  -9  192.18   11.20
   2  -1   9  316.87   13.10
  -2   1  -9  249.78   13.10
  -2   1  -9  287.17   14.80
   3  -1   9   33.00    4.80
   3   1   9   39.40   11.70
  -3   1  -9   33.70    8.70
  -3   1  -9   27.60    4.30
  -4  -1  -9  383.46   20.30
   4  -1   9  406.06   25.40
   4  -1   9  419.16   18.90
  -4   1  -9  427.86   21.00
   4   1   9  458.55   24.00
   5  -1   9   87.59   13.00
   5  -1   9   82.89   10.20
  -5  -1  -9   79.59   10.00
   5   1   9   93.29   13.60
  -5   1  -9   86.99   11.10
   6  -1   9  142.79   17.10
  -6  -1  -9  121.69   12.50
  -6   1  -9  107.39   12.80
   6   1   9  111.19   16.70
  -8  -2   9   -3.90    7.40
   8  -2  -9    3.50    9.20
  -8   2   9    0.10    6.60
  -7  -2   9  178.78   14.20
  -7  -2   9  164.18   10.70
   7  -2  -9  175.28   17.10
  -7   2   9  167.28   11.50
  -7   2   9  193.48   14.90
  -6  -2   9  317.47   18.20
  -6  -2   9  356.46   18.50
  -6  -2   9  326.67   15.50
  -6   2   9  347.17   19.10
  -6   2   9  372.56   17.10
   5  -2  -9  291.27   17.20
  -5  -2   9  286.87   13.70
  -5  -2   9  299.47   15.70
  -5   2   9  311.47   17.00
   5   2  -9  272.97   17.40
  -5   2   9  290.17   15.20
   4  -2  -9  159.28   11.30
  -4  -2   9  127.49    8.80
  -4  -2   9  156.78   10.10
  -4  -2   9  149.79    8.90
  -4   2   9  150.18   11.50
  -4   2   9  168.18   11.10
   4   2  -9  149.29   13.30
   3  -2  -9  110.49    8.60
  -3  -2   9  127.69    8.40
  -3  -2   9  127.59    8.10
  -3  -2   9  129.79    8.30
  -3   2   9  134.19   10.50
  -3   2   9  132.49    8.90
   3   2  -9  116.19   12.60
  -2  -2   9  199.08   10.60
   2  -2  -9  193.78   10.00
  -2  -2   9  216.38   10.60
  -2   2   9  202.08   13.00
  -2   2   9  201.38    9.90
   2   2  -9  203.28   15.10
   2   2  -9  215.28   10.70
  -1  -2   9  699.93   28.20
  -1  -2   9  762.72   27.70
  -1   2   9  719.13   25.60
  -1   2   9  753.92   25.60
   1   2  -9  695.43   28.20
  -1   2   9  771.12   33.30
   1   2  -9  680.03   32.70
   0  -2   9 1048.10   37.90
   0   2  -9 1026.10   39.10
   1  -2   9  398.26   17.30
  -1   2  -9  431.96   18.80
   2  -2   9  431.26   18.70
  -2  -2  -9  442.06   20.70
   2   2   9  429.56   22.30
  -2   2  -9  429.66   19.80
   3  -2   9  129.89    9.50
  -3  -2  -9  112.99   10.50
  -3   2  -9  137.19   15.10
   3   2   9  107.39   12.30
   4  -2   9  142.59   12.00
  -4  -2  -9  139.49   11.60
   4   2   9  137.69   14.10
  -4   2  -9  149.19   12.20
  -4   2  -9  134.29   17.20
   5  -2   9  212.58   15.40
  -5  -2  -9  179.68   14.40
  -5   2  -9  210.08   15.10
   5   2   9  212.18   17.00
  -5   2  -9  224.88   21.20
   6  -2   9   33.70    8.80
  -6  -2  -9   17.60    7.00
  -6   2  -9   25.80   13.10
   6   2   9   17.40    9.20
  -6   2  -9    9.70    6.50
  -7  -3   9   42.50    7.80
   7  -3  -9   18.50   10.10
  -7   3   9   35.50    8.80
  -7   3   9   19.10    6.80
   6  -3  -9   89.09   11.60
  -6  -3   9   61.39    7.90
  -6   3   9   67.09    8.60
   6   3  -9   71.39   10.50
  -6   3   9   72.09    9.80
  -5  -3   9   64.49    8.70
   5  -3  -9   74.89    9.90
  -5   3   9   57.79    9.00
   5   3  -9   83.19   11.00
  -5   3   9   63.09    9.10
   4  -3  -9  150.68   12.40
  -4  -3   9  139.89    7.60
  -4  -3   9  135.49   10.00
  -4   3   9  144.99   12.00
   4   3  -9  136.19   14.80
  -4   3   9  132.09   11.40
   3  -3  -9   94.99    9.40
  -3  -3   9   91.39    8.00
  -3  -3   9   92.79    6.40
  -3   3   9  109.69   10.40
  -3   3   9   93.89    9.70
   2  -3  -9  635.34   25.70
  -2  -3   9  709.73   26.70
  -2  -3   9  653.23   25.30
  -2   3   9  661.53   28.90
  -2   3   9  661.43   29.10
  -1  -3   9  286.17   15.20
  -1  -3   9  309.57   14.30
  -1   3   9  323.17   17.40
  -1   3   9  307.77   17.00
   1   3  -9  271.27   19.90
   1   3  -9  318.37   14.00
   0  -3  -9  788.72   32.90
   0  -3   9  819.52   30.90
   0  -3   9  753.62   30.80
   0   3  -9  793.42   37.40
   0   3  -9  863.31   31.10
   0   3   9  782.72   34.60
   1  -3   9    7.20    3.60
  -1  -3  -9    6.80    4.30
  -1   3  -9   17.20    7.80
   1   3   9    9.70    5.40
  -1   3  -9    5.50    3.70
  -2  -3  -9  672.63   29.40
   2  -3   9  665.33   27.90
   2   3   9  699.13   30.60
  -2   3  -9  676.83   34.40
  -2   3  -9  663.53   28.00
   3  -3   9  126.69   11.10
  -3  -3  -9  110.59   11.00
  -3   3  -9   81.29   13.10
  -3   3  -9   98.09   14.10
   3   3   9  117.09   12.60
   4  -3   9  401.56   21.70
  -4  -3  -9  413.56   21.60
  -4   3  -9  443.26   27.70
  -4   3  -9  405.06   21.20
   4   3   9  393.96   22.60
  -5  -3  -9   86.49   10.90
   5  -3   9   90.19   11.90
  -5   3  -9   76.59   12.10
  -5   3  -9   74.29   15.00
   5   3   9   97.99   12.00
   6  -4  -9   58.39   12.40
  -6  -4   9   70.79    9.20
  -6   4   9   69.39   10.90
  -6   4   9   72.29    9.90
   5  -4  -9   87.09   12.80
  -5  -4   9  131.89   11.40
  -5   4   9  101.99   13.70
   5   4  -9   83.29   13.20
  -5   4   9  114.79   13.10
  -4  -4   9   39.50    6.10
   4  -4  -9   38.90    8.20
   4   4  -9   35.40   10.50
  -4   4   9   41.00    8.10
  -4   4   9   32.30    7.50
  -3  -4   9  208.38   12.40
   3   4  -9  182.08   18.90
  -3   4   9  202.78   15.20
  -3   4   9  207.38   15.00
  -2  -4   9  126.39    9.70
   2   4  -9  108.89   16.30
  -2   4   9  105.59   11.90
  -2   4   9  149.59   13.00
  -1  -4   9  201.58   12.10
  -1   4   9  215.58   15.10
  -1   4   9  213.48   14.90
   1   4  -9  191.28   19.60
   0  -4   9   23.30    4.80
   0   4  -9   16.00    9.40
   0   4   9   18.30    6.60
   0   4   9   22.60    6.40
   1  -4   9  133.09   11.00
  -1   4  -9  137.89   10.30
  -1   4  -9  126.29   18.50
   1   4   9  129.39   12.80
   2  -4   9   47.70    7.40
  -2  -4  -9   40.70    7.70
   2   4   9   46.90    8.50
  -2   4  -9   57.89    8.60
  -2   4  -9   36.80   11.00
  -3  -4  -9   97.19   12.10
   3  -4   9   86.49   12.70
  -3   4  -9   85.19   11.50
  -3   4  -9   89.39   15.60
   3   4   9   91.79   11.30
  -2  -5   9  139.39   12.50
  -2   5   9  163.38   15.70
  -2   5   9  148.49   15.80
   2   5  -9  165.78   19.50
  -1  -5   9   55.39    7.70
  -1   5   9   39.80    9.00
  -1   5   9   48.40    9.20
   1   5  -9   30.10   12.70
   0  -5   9   62.39    8.80
   0   5  -9   63.89   15.70
   0   5   9   44.10    9.20
   0   5   9   85.69   13.20
  -8   0  10  197.48   14.90
   8   0 -10  172.98   17.50
  -7   0  10   -8.90    5.30
   7   0 -10    4.60    6.40
  -6   0  10  394.46   19.40
  -6   0  10  434.36   20.50
   6   0 -10  394.26   21.00
  -5   0  10    1.40    4.50
  -5   0  10   -1.00    4.70
  -5   0  10   -0.50    4.80
  -4   0  10  414.86   18.40
  -4   0  10  386.16   20.30
  -4   0  10  366.96   18.80
  -3   0  10    4.90    3.40
  -3   0  10    3.20    4.90
  -3   0  10   -3.40    2.70
   2   0 -10 1245.08   48.10
  -2   0  10 1265.27   47.90
  -2   0  10 1345.27   51.39
  -2   0  10 1279.27   45.80
  -1   0  10   -1.40    5.70
  -1   0  10    1.40    1.80
  -1   0  10    1.10    4.00
   1   0 -10    2.80    3.40
   0   0 -10 2934.31  101.69
   0   0  10 2933.91   99.49
   0   0  10 2840.12   97.59
   0   0  10 2780.02  104.79
   1   0  10   -3.20    1.90
   1   0  10   -3.90    3.30
   2   0  10  332.87   13.50
   2   0  10  317.17   20.60
  -2   0 -10  332.27   17.20
   3   0  10    5.00    7.80
  -3   0 -10   -3.10    4.00
  -4   0 -10  362.46   20.00
   4   0  10  397.16   24.40
  -5   0 -10    1.40    5.00
   5   0  10   -0.90    9.50
  -6   0 -10   61.39   10.00
   6   0  10   59.49   13.80
   8  -1 -10   14.60    8.70
  -8  -1  10   15.60    6.00
  -8  -1  10   14.90    8.40
  -8   1  10   13.80    7.00
  -7  -1  10    7.00    6.40
   7  -1 -10   13.50    7.10
  -7  -1  10    3.40    4.70
  -7   1  10    3.30    4.80
  -7   1  10    7.00    6.30
  -6  -1  10   33.00    5.90
  -6  -1  10   31.70    6.80
   6  -1 -10   14.10    6.60
  -6  -1  10   27.60    6.40
  -6   1  10   34.20    6.00
  -6   1  10   37.40    7.10
  -5  -1  10  835.62   33.60
  -5  -1  10  853.81   34.40
  -5  -1  10  838.62   35.60
   5  -1 -10  824.72   34.70
  -5   1  10  877.41   34.40
  -5   1  10  833.92   35.30
  -4  -1  10  299.87   15.20
  -4  -1  10  305.87   18.30
  -4  -1  10  287.57   15.20
   4  -1 -10  299.57   15.40
  -4   1  10  322.07   17.00
  -4   1  10  302.77   16.60
  -3  -1  10  641.34   29.20
  -3  -1  10  650.23   25.00
  -3  -1  10  596.84   25.70
  -3   1  10  625.74   27.90
  -3   1  10  617.54   27.10
  -3   1  10  612.14   24.50
  -3   1  10  570.14   25.70
  -2  -1  10  451.25   18.40
  -2  -1  10  446.46   23.50
  -2   1  10  461.75   23.00
   2   1 -10  439.66   19.70
  -2   1  10  433.16   19.10
  -2   1  10  448.96   17.80
  -2   1  10  448.76   21.30
  -1  -1  10  265.47   11.70
  -1  -1  10  248.78   15.00
  -1   1  10  260.97   11.90
   1   1 -10  250.67   13.60
  -1   1  10  244.18   16.50
  -1   1  10  272.67   10.50
   0  -1  10   24.40    7.50
   0  -1  10   14.40    5.20
   0  -1  10   23.30    3.20
   0   1  10   26.50    6.80
   0   1 -10   27.80    5.20
   1  -1  10  198.38   12.20
   1  -1  10  235.28   10.60
  -1  -1 -10  208.88   13.30
  -1   1 -10  220.78   13.30
   2  -1  10   76.39    6.60
  -2  -1 -10   65.69    8.70
   2  -1  10   79.09   11.80
   2   1  10   65.79   10.10
  -2   1 -10   70.79   12.90
  -3  -1 -10  271.57   15.90
   3  -1  10  272.07   20.90
   3  -1  10  251.77   13.50
   3   1  10  279.47   19.40
  -3   1 -10  277.27   15.70
   4  -1  10    3.90    4.80
   4  -1  10   11.00    9.30
  -4  -1 -10    7.10    5.10
   4   1  10    8.20    8.10
  -4   1 -10    2.80    4.90
  -5  -1 -10   60.69    8.80
   5  -1  10   80.09   13.90
   5   1  10   51.69   10.90
  -5   1 -10   67.19    9.90
   8  -2 -10   95.29   13.70
  -7  -2  10  126.89   13.70
   7  -2 -10  121.39   16.10
  -7   2  10  131.29   11.10
  -7   2  10  147.59   14.60
  -6  -2  10  314.47   15.30
   6  -2 -10  332.97   19.80
  -6  -2  10  320.87   17.80
  -6  -2  10  278.77   18.80
  -6   2  10  305.07   18.70
  -5  -2  10   86.09   12.50
   5  -2 -10   90.29   10.70
  -5  -2  10   76.09    7.90
  -5  -2  10   80.39    9.40
  -5   2  10   83.59   10.00
  -5   2  10   70.29   10.20
   4  -2 -10  390.26   18.50
  -4  -2  10  374.26   17.80
  -4  -2  10  344.57   16.60
  -4   2  10  357.06   19.80
   4   2 -10  390.66   21.80
  -4   2  10  365.96   19.20
  -3  -2  10   51.09    8.00
   3  -2 -10   50.09    6.90
  -3  -2  10   46.80    6.60
  -3  -2  10   54.29    6.30
   3   2 -10   49.20   13.80
  -3   2  10   46.20    7.10
  -3   2  10   58.09    8.20
  -2  -2  10   42.30    5.40
   2   2 -10   39.00    6.00
  -2   2  10   30.50    6.00
  -2   2  10   45.60    7.40
  -2   2  10   34.40    4.80
  -1  -2  10  294.37   13.60
  -1   2  10  319.17   18.00
   1   2 -10  255.17   21.50
   1   2 -10  307.27   14.80
   0  -2  10  792.02   29.60
   0   2  10  767.52   34.10
   0   2 -10  738.73   36.40
   0   2 -10  808.12   31.50
  -1  -2 -10   51.19    7.30
   1  -2  10   44.30    6.10
   1   2  10   45.90    8.00
  -1   2 -10   63.99    7.60
  -1   2 -10   60.69   11.30
   2  -2  10  167.08   11.00
  -2  -2 -10  189.18   12.90
  -2   2 -10  175.38   17.20
   2   2  10  168.18   15.00
   3  -2  10   48.30    6.50
  -3  -2 -10   39.80    7.00
  -3   2 -10   47.40   11.40
   3   2  10   44.60    8.60
  -3   2 -10   52.99    7.50
  -4  -2 -10   50.99    8.00
  -4   2 -10   50.19    8.40
   4   2  10   79.89   11.80
  -4   2 -10   73.29   13.80
  -5  -2 -10   57.79    9.30
   5  -2  10   56.09    9.30
   5   2  10   54.09   11.50
  -5   2 -10   64.09   14.60
  -5   2 -10   55.99    9.00
   6  -3 -10    9.80    8.80
  -6  -3  10   10.30    5.90
  -6   3  10   -1.30    6.70
  -6   3  10   -1.60    6.20
  -5  -3  10  283.87   16.20
   5  -3 -10  302.77   21.70
  -5   3  10  289.67   18.60
  -5   3  10  294.77   17.50
   4  -3 -10   81.99   10.30
  -4  -3  10   64.49    8.30
   4   3 -10   65.89   11.60
  -4   3  10   72.79   10.80
  -4   3  10   61.39    8.30
   3  -3 -10 1065.69   40.50
  -3  -3  10 1091.99   39.40
  -3  -3  10 1101.79   40.90
   3   3 -10 1032.90   46.70
  -3   3  10 1070.59   44.00
  -3   3  10 1075.99   43.10
  -2  -3  10   17.20    4.00
  -2  -3  10   19.50    3.90
  -2   3  10   25.40    6.90
  -2   3  10   25.30    6.30
   2   3 -10   19.00    8.60
  -1  -3  10  112.89    8.60
   1   3 -10  128.29   16.50
  -1   3  10  117.49   12.00
  -1   3  10  112.49   11.20
   1   3 -10  111.29    8.50
   0  -3 -10   58.59    8.20
   0  -3  10   53.39    6.90
   0   3  10   58.09    9.10
   0   3 -10   57.19    7.80
   0   3 -10   62.79   11.30
  -1  -3 -10  265.27   16.40
   1  -3  10  276.47   14.60
  -1   3 -10  261.17   14.80
   1   3  10  288.97   17.90
  -1   3 -10  282.97   22.10
  -2  -3 -10   49.20    8.10
   2  -3  10   39.40    6.70
   2   3  10   37.30    8.30
  -2   3 -10   48.50   11.00
  -3  -3 -10   97.79   11.90
   3  -3  10   83.79   11.50
  -3   3 -10   86.99   14.80
  -3   3 -10   94.39   10.90
   3   3  10   94.49   13.80
  -4  -3 -10   24.60    7.50
   4  -3  10   32.20    8.30
  -4   3 -10   14.40    7.00
   4   3  10   28.90    8.30
  -4   3 -10    8.40   13.60
  -5  -4  10   10.30    6.20
   5   4 -10   17.50   12.10
  -5   4  10    2.80    7.40
  -5   4  10   12.40    7.70
  -4  -4  10  176.18   12.90
  -4   4  10  150.88   15.60
  -4   4  10  141.99   14.70
   4   4 -10  199.18   22.20
  -3  -4  10    6.60    4.70
   3   4 -10    6.70   10.70
  -3   4  10    0.10    7.00
  -3   4  10   -5.50    6.20
  -2  -4  10   25.50    5.40
  -2   4  10   16.50    6.90
   2   4 -10   38.60   12.20
  -2   4  10   18.70    7.80
  -1  -4  10   38.00    5.80
  -1   4  10   38.10    8.00
   1   4 -10   27.30   11.60
  -1   4  10   40.80    8.00
   0  -4  10  180.28   12.40
   0   4  10  171.28   14.80
   0   4  10  168.08   14.50
   0   4 -10  183.38   22.00
   1  -4  10  125.89   11.70
  -1   4 -10   94.09   15.80
   1   4  10  120.99   13.40
   1   4  10   99.09   13.50
  -2  -4 -10  112.29   13.70
   2  -4  10   84.69   12.40
  -2   4 -10   86.59   16.40
   2   4  10   85.79   11.80
  -7   0  11  117.09   12.80
   7   0 -11  113.39   14.10
  -6   0  11    1.50    5.60
  -6   0  11   -0.30    6.00
  -6   0  11    0.80    5.60
  -5   0  11   55.09    7.70
  -5   0  11   55.09    8.40
  -5   0  11   51.49    7.20
  -4   0  11   -4.40    4.60
  -4   0  11    2.50    3.80
  -3   0  11  871.31   33.60
  -3   0  11  947.31   39.00
  -3   0  11  851.81   36.20
  -2   0  11   -3.10    2.40
  -2   0  11   -0.70    6.70
  -2   0  11   -0.60    6.00
  -1   0  11  194.48    9.20
  -1   0  11  207.48   16.70
   0   0 -11   -3.20    4.10
   0   0  11    1.40    2.00
   0   0  11    5.60    6.70
   1   0  11  310.17   12.40
  -1   0 -11  295.27   16.90
   1   0  11  281.97   20.60
   2   0  11   -2.30    8.20
  -2   0 -11    1.20    5.00
   3   0  11  150.28   18.00
  -3   0 -11  167.48   13.40
  -4   0 -11    7.80    6.10
   4   0  11   -5.60    9.80
  -5   0 -11  134.59   14.70
   5   0  11  138.99   17.80
  -7  -1  11   80.79   10.90
   7  -1 -11   75.69   10.90
  -7  -1  11   66.49   10.50
  -7   1  11   60.49    9.60
  -6  -1  11  107.69   10.60
  -6  -1  11   95.89   11.90
   6  -1 -11  105.59   12.50
  -6  -1  11   94.69   12.70
  -6   1  11   92.89   12.30
  -5  -1  11   57.99    9.60
  -5  -1  11   40.10    7.80
  -5  -1  11   48.30    7.00
  -5   1  11   54.39    8.00
  -5   1  11   38.00    7.50
  -4  -1  11  313.37   20.00
  -4  -1  11  298.67   15.40
  -4  -1  11  280.07   16.00
  -4   1  11  289.17   17.90
  -4   1  11  303.67   15.40
  -4   1  11  301.57   17.60
  -3  -1  11   46.90    5.70
  -3  -1  11   48.20    6.80
  -3  -1  11   46.90    8.90
  -3   1  11   47.90    6.30
  -3   1  11   47.50    7.60
  -3   1  11   42.10    7.90
  -2  -1  11  483.55   19.40
  -2  -1  11  454.35   25.50
  -2   1  11  464.55   22.80
  -2   1  11  467.85   24.30
  -2   1  11  443.86   18.30
   2   1 -11  495.75   21.60
  -1  -1  11    5.80    2.80
  -1  -1  11    5.30    7.20
   1  -1 -11    7.20    4.50
  -1   1  11    7.30    2.00
  -1   1  11   -2.30    6.30
   0  -1  11  262.67   19.80
   0  -1 -11  270.77   15.50
   0  -1  11  259.77   11.80
   0   1  11  243.08   17.80
   1  -1  11   30.80    4.30
   1  -1  11   21.60    8.60
  -1  -1 -11   26.20    6.20
  -1   1 -11   34.60    6.30
   1   1  11   21.30    8.00
   2  -1  11  848.72   33.70
  -2  -1 -11  925.11   37.90
   2  -1  11  920.11   42.40
   2   1  11  884.11   40.70
  -2   1 -11  923.01   37.30
   3  -1  11    0.80    9.60
  -3  -1 -11    9.60    5.80
  -3   1 -11   10.50    5.70
   3   1  11    6.90    8.60
  -4  -1 -11  252.47   17.60
   4  -1  11  286.47   24.60
   4   1  11  285.27   22.10
  -4   1 -11  274.47   17.80
   7  -2 -11  162.58   17.90
  -7  -2  11  110.59   14.70
  -7   2  11  126.69   16.30
   6  -2 -11  141.59   15.20
  -6  -2  11  158.18   13.50
  -6  -2  11  142.69   18.70
  -6   2  11  137.19   14.50
  -6   2  11  147.39   12.90
  -5  -2  11  102.39    9.80
   5  -2 -11  121.09   12.50
  -5  -2  11  130.59   11.40
  -5  -2  11  103.29   15.30
  -5   2  11  103.69   12.40
  -5   2  11  125.39   12.70
   4  -2 -11   30.40    6.10
  -4  -2  11   27.30    5.30
  -4  -2  11   27.90    5.50
  -4  -2  11   27.80    9.40
  -4   2  11   33.30    7.50
  -4   2  11   23.20    7.00
  -3  -2  11  248.58   13.50
  -3  -2  11  227.48   12.60
  -3   2  11  235.78   15.70
  -3   2  11  241.18   16.10
   3   2 -11  208.48   18.90
  -3   2  11  220.48   12.00
  -2  -2  11    3.00    3.30
  -2   2  11    4.50    5.20
   2   2 -11   -8.60    7.90
  -2   2  11    2.00    6.00
   2   2 -11    4.10    4.00
   1  -2 -11  439.86   21.50
   1   2 -11  422.66   19.90
   1   2 -11  447.16   26.40
  -1   2  11  410.96   23.00
   0  -2 -11  131.19   11.70
   0  -2  11  128.39    8.60
   0   2  11  137.39   14.00
   0   2 -11  135.39   17.30
   1  -2  11  180.28   11.00
  -1  -2 -11  169.28   13.30
  -1   2 -11  188.28   19.80
  -1   2 -11  179.48   13.00
   1   2  11  171.58   15.50
  -2  -2 -11   19.10    6.00
   2  -2  11    4.00    4.60
  -2   2 -11    3.20    5.20
  -2   2 -11    8.60   10.50
   2   2  11    4.60    7.80
  -3  -2 -11  216.98   16.00
  -3   2 -11  194.08   14.80
   3   2  11  180.38   18.70
  -3   2 -11  204.78   22.50
  -4  -2 -11   32.10    8.40
   4   2  11   35.70   11.30
  -4   2 -11   40.00    8.40
  -4   2 -11    9.90   13.40
  -5  -3  11   48.30    7.50
   5   3 -11   41.30   12.10
  -5   3  11   29.50    8.30
  -5   3  11   44.10    9.50
  -4  -3  11  195.38   12.80
   4   3 -11  176.28   21.00
  -4   3  11  175.18   15.50
  -4   3  11  183.48   15.10
  -3  -3  11  176.98   11.40
  -3   3  11  147.09   14.20
   3   3 -11  146.69   20.00
  -3   3  11  142.19   14.30
  -2  -3  11   76.39    8.20
  -2  -3  11   86.59   11.60
  -2   3  11   67.99    9.60
  -2   3  11   77.59   10.30
   2   3 -11   67.59   12.80
  -1  -3  11    9.40    4.20
   1   3 -11    5.00    9.90
  -1   3  11   12.60    7.20
  -1   3  11   11.70    6.30
   1   3 -11    2.30    4.20
   0  -3 -11   38.10    7.30
   0  -3  11   42.30    5.90
   0   3 -11   51.79    7.00
   0   3  11   49.90    9.20
   0   3 -11   47.10   11.90
  -1  -3 -11   16.80    7.10
   1  -3  11   17.80    5.60
   1   3  11   16.00    7.80
  -1   3 -11    2.50   10.50
  -2  -3 -11  111.99   13.30
   2  -3  11  109.19   11.90
  -2   3 -11  126.19   12.90
  -2   3 -11  106.99   16.80
   2   3  11  128.59   14.90
   3  -3  11    5.60    6.70
  -3  -3 -11   -2.00    7.30
  -3   3 -11    2.50    6.30
   3   3  11    2.60    8.40
  -3   3 -11   14.20   14.20
  -2  -4  11   26.80    6.00
  -2   4  11   25.60    8.80
  -2   4  11   21.60    7.90
   2   4 -11   47.50   14.00
  -1  -4  11  294.37   16.60
  -1   4  11  315.27   20.50
  -1   4  11  302.07   20.70
   1   4 -11  327.47   28.30
   0  -4  11  148.19   12.40
   0   4 -11  115.89   19.10
   0   4  11  126.49   17.60
  -6   0  12  114.79   13.50
  -6   0  12  107.69   13.80
  -6   0  12  108.19   13.20
  -5   0  12   11.20    6.10
  -5   0  12    7.90    7.40
  -4   0  12    8.30    5.90
  -4   0  12   16.40    8.30
  -3   0  12    4.00    7.90
  -3   0  12    1.70    4.90
  -3   0  12    3.80    3.60
  -2   0  12  122.89   15.30
  -2   0  12  132.79    8.00
  -2   0  12  125.79   11.90
   1   0 -12    3.80    4.60
  -1   0  12   -5.10    7.90
  -1   0  12    2.00    2.50
   0   0  12  154.48   18.00
   0   0 -12  200.28   14.10
   1   0  12   -1.60    9.10
  -1   0 -12   -4.30    5.40
   2   0  12  176.08   20.50
  -2   0 -12  202.58   15.30
   3   0  12  -16.30   10.50
  -3   0 -12    0.30    6.40
  -6  -1  12  102.29   12.80
  -6  -1  12   89.49   11.70
  -6  -1  12   84.69   11.40
  -6   1  12  108.39   13.20
  -6   1  12   89.79   13.30
  -5  -1  12  314.67   18.40
  -5  -1  12  319.67   21.60
  -5  -1  12  312.27   17.80
  -5   1  12  337.67   20.00
  -5   1  12  322.37   18.00
  -5   1  12  348.77   20.10
  -4  -1  12   87.99    9.60
  -4  -1  12   94.09   12.80
  -4  -1  12  102.39   11.30
  -4   1  12   83.99    9.30
  -4   1  12   93.19   12.00
  -4   1  12  105.59   13.70
  -3  -1  12  242.58   20.00
  -3  -1  12  240.68   15.40
  -3  -1  12  235.68   12.60
  -3   1  12  226.78   12.20
  -3   1  12  235.38   16.10
  -3   1  12  252.87   17.50
  -2  -1  12   77.29   12.40
  -2  -1  12   83.09    7.20
   2   1 -12   69.89    9.30
  -2   1  12   98.29   11.30
  -2   1  12   77.79   10.60
  -1  -1  12  167.38    9.60
   1  -1 -12  172.18   13.20
  -1  -1  12  176.18   18.40
  -1   1  12  193.38   17.00
   1   1 -12  144.69   12.20
   0  -1  12   11.20    3.60
   0  -1 -12    6.80    5.50
   0  -1  12   -1.90    8.10
   0   1 -12   21.30    5.70
   0   1  12   13.90    8.90
   1  -1  12  192.38   19.00
  -1  -1 -12  169.58   13.90
  -1   1 -12  172.58   13.90
   1   1  12  162.58   17.20
   2  -1  12   30.50   11.40
  -2  -1 -12   52.89    8.80
  -2   1 -12   49.90    8.20
   2   1  12   31.00   10.10
   3  -1  12   74.29   15.20
  -3  -1 -12   59.99    9.50
  -3   1 -12   51.59    8.80
   3   1  12   46.60   11.70
  -5  -2  12   30.00    6.80
  -5  -2  12   28.20   10.50
  -5   2  12   31.10    8.50
  -5   2  12    8.00    7.70
  -4  -2  12  289.87   23.00
  -4  -2  12  301.77   18.30
  -4  -2  12  285.17   15.80
  -4   2  12  302.57   19.40
  -4   2  12  272.97   19.10
  -3  -2  12   66.19   12.30
  -3  -2  12   69.59    8.50
  -3   2  12   71.19   10.20
  -3   2  12   61.99    9.60
  -2  -2  12  240.08   12.70
  -2  -2  12  216.28   21.10
  -2  -2  12  216.38   14.30
  -2   2  12  246.98   18.00
  -2   2  12  236.08   16.80
  -1  -2  12   42.50    5.40
  -1   2  12   46.30    8.30
   1   2 -12   30.90    7.80
   1   2 -12   52.89   12.30
  -1   2  12   50.39    9.80
   0  -2 -12  145.89   13.40
   0  -2  12  131.69   10.00
   0   2 -12  141.39   12.20
   0   2  12  151.68   16.10
   0   2 -12  149.88   20.50
  -1  -2 -12   28.30    7.70
   1  -2  12   29.70    5.60
  -1   2 -12   25.20    7.20
  -1   2 -12   21.50   12.10
   1   2  12   29.90    9.20
   2  -2  12   87.99   11.00
  -2  -2 -12   56.49    9.50
   2  -2  12   96.99   15.70
  -2   2 -12   83.09   12.80
   2   2  12   79.39   12.70
  -2   2 -12   57.99   14.50
  -4  -3  12   27.50    6.40
   4   3 -12   28.30   13.60
  -4   3  12   35.40    9.60
  -3  -3  12   34.20    5.90
  -3   3  12   15.90    8.70
  -3   3  12   20.30    7.60
   3   3 -12   44.30   13.60
  -2  -3  12   17.40    5.10
  -2   3  12   27.80    8.90
  -2   3  12   10.70    6.80
   2   3 -12   20.30   12.50
  -1  -3  12  262.07   14.60
  -1   3  12  286.27   19.80
   1   3 -12  240.48   25.90
  -1   3  12  249.08   18.80
   0  -3  12   23.20    6.20
   0   3  12   24.20    9.20
   0   3 -12   68.79   14.30
   0   3  12   27.00    7.40
  -5   0  13   59.69    9.50
  -5   0  13   75.19   11.70
  -5   0  13   98.69   11.60
  -4   0  13   -5.50    4.90
  -4   0  13    5.60    6.70
  -4   0  13    4.80    9.70
  -3   0  13  289.27   19.20
  -3   0  13  311.67   15.00
  -3   0  13  322.77   23.60
  -2   0  13    1.30    9.40
  -2   0  13   -0.70    6.30
  -1   0  13  341.37   24.30
   1   0 -13  284.07   18.20
   0   0 -13    5.10    6.30
   0   0  13    2.80    9.70
  -1   0 -13  276.77   18.70
   1   0  13  329.67   24.80
  -2   0 -13   -2.90    7.70
   2   0  13    5.70   12.60
  -5  -1  13   29.60    7.90
  -5  -1  13   43.50    7.50
  -5  -1  13   41.50   11.40
  -5   1  13   26.50    8.60
  -5   1  13   31.70    8.50
  -4  -1  13  180.58   15.00
  -4  -1  13  176.28   12.10
  -4  -1  13  183.08   20.50
  -4   1  13  169.68   17.70
  -4   1  13  160.48   16.30
  -3  -1  13   -1.80    6.40
  -3  -1  13   -4.70   10.20
  -3  -1  13    2.00    4.40
  -3   1  13   -4.70    8.30
  -3   1  13    0.80    6.80
  -2  -1  13  140.99   19.10
  -2  -1  13  116.89    9.00
  -2  -1  13  109.89   12.70
  -2   1  13  121.09   16.80
  -2   1  13  124.89   14.10
  -1  -1  13    4.60   11.00
   1  -1 -13    6.50    6.50
   1   1 -13    0.60    5.90
  -1   1  13   11.40    9.30
   0  -1  13  196.18   22.80
   0  -1 -13  233.38   16.90
   0   1  13  204.58   20.70
   0   1 -13  224.98   16.10
   1  -1  13   11.70   12.20
  -1  -1 -13   14.30    7.50
   1   1  13    7.10   10.40
  -1   1 -13   13.40    7.30
  -3  -2  13  254.87   14.60
  -3  -2  13  260.67   16.80
  -3  -2  13  252.17   24.60
  -3   2  13  285.07   19.60
  -3   2  13  228.98   20.40
  -2  -2  13   12.80   12.00
  -2  -2  13   14.80    6.60
  -2  -2  13    9.80    4.70
  -2   2  13   -0.60    9.20
  -2   2  13   15.40    7.70
  -1  -2  13  179.88   11.80
  -1  -2  13  189.98   24.10
  -1   2  13  205.68   18.00
  -1   2  13  198.18   19.60
   1   2 -13  199.18   15.00
   0  -2 -13   19.40    7.70
   0  -2  13   36.60   13.10
   0  -2  13   34.00    7.20
   0   2  13   31.00   11.30
   0   2 -13   17.10    7.40
   0   0   0    0.00    0.00

_computing_structure_solution     'SHELXT 2014/5 (Sheldrick, 2014)'
;
_shelx_hkl_checksum              79886
loop_
_space_group_symop_operation_xyz
'x, y, z'
'x+1/2, -y, z+1/2'
loop_
_atom_site_label
_atom_site_type_symbol
_atom_site_fract_x
_atom_site_fract_y
_atom_site_fract_z
_atom_site_U_iso_or_equiv
_atom_site_adp_type
_atom_site_occupancy
_atom_site_site_symmetry_order
_atom_site_calc_flag
_atom_site_refinement_flags_posn
_atom_site_refinement_flags_adp
_atom_site_refinement_flags_occupancy
_atom_site_disorder_assembly
_atom_site_disorder_group
C1 C 0.6295(3) 0.7011(5) 0.6659(2) 0.0266(5) Uani 1 1 d . . . . .
H1 H 0.704380 0.835753 0.655872 0.032 Uiso 1 1 calc R U . . .
C2 C 0.4849(3) 0.4175(4) 0.7411(2) 0.0216(5) Uani 1 1 d . . . . .
C3 C 0.4150(3) 0.2480(4) 0.8355(2) 0.0225(5) Uani 1 1 d . . . . .
C4 C 0.5268(3) 0.6002(4) 0.4335(2) 0.0221(5) Uani 1 1 d . . . . .
K1 K 0.59345(7) 0.77195(10) 0.04808(6) 0.03047(15) Uani 1 1 d . . . . .
N1 N 0.5338(2) 0.5719(4) 0.56703(18) 0.0216(4) Uani 1 1 d . . . . .
N2 N 0.4391(2) 0.3879(4) 0.61569(19) 0.0234(4) Uani 1 1 d . . . . .
N3 N 0.6014(3) 0.6088(4) 0.77807(19) 0.0281(4) Uani 1 1 d . . . . .
N4 N 0.6037(2) 0.4134(4) 0.36990(19) 0.0234(4) Uani 1 1 d . . . . .
N5 N 0.4097(3) 0.7804(4) 0.3683(2) 0.0268(4) Uani 1 1 d . . . . .
O1 O 0.3106(2) 0.0717(3) 0.77673(16) 0.0330(4) Uani 1 1 d . . . . .
H2 H 0.269052 -0.034393 0.831184 0.050 Uiso 1 1 d R U . . .
O2 O 0.4524(3) 0.2715(3) 0.95164(18) 0.0335(4) Uani 1 1 d . . . . .
O3 O 0.3190(3) 0.8903(4) 0.4349(2) 0.0443(5) Uani 1 1 d . . . . .
O4 O 0.4036(3) 0.8256(4) 0.25185(19) 0.0420(5) Uani 1 1 d . . . . .
O5 O 0.6914(3) 0.2407(3) 0.44038(19) 0.0325(4) Uani 1 1 d . . . . .
O6 O 0.5928(3) 0.4063(3) 0.25052(16) 0.0382(5) Uani 1 1 d . . . . .
loop_
_atom_site_aniso_label
_atom_site_aniso_U_11
_atom_site_aniso_U_22
_atom_site_aniso_U_33
_atom_site_aniso_U_23
_atom_site_aniso_U_13
_atom_site_aniso_U_12
C1 0.0304(13) 0.0254(11) 0.0251(13) -0.0024(9) 0.0075(10) -0.0087(9)
C2 0.0244(11) 0.0211(11) 0.0200(10) -0.0003(8) 0.0053(9) -0.0003(8)
C3 0.0232(12) 0.0236(10) 0.0213(11) 0.0024(8) 0.0052(9) 0.0026(8)
C4 0.0273(12) 0.0213(10) 0.0192(10) 0.0014(8) 0.0086(8) 0.0018(8)
K1 0.0344(3) 0.0353(3) 0.0211(2) 0.0040(2) 0.00282(18) 0.0024(2)
N1 0.0267(9) 0.0217(9) 0.0185(9) -0.0016(7) 0.0100(7) -0.0046(7)
N2 0.0278(10) 0.0234(10) 0.0204(10) -0.0009(7) 0.0080(8) -0.0061(8)
N3 0.0330(10) 0.0279(10) 0.0233(10) -0.0021(8) 0.0039(8) -0.0094(8)
N4 0.0299(10) 0.0204(11) 0.0216(10) 0.0009(7) 0.0097(8) 0.0012(8)
N5 0.0279(11) 0.0232(9) 0.0299(11) 0.0002(8) 0.0068(9) 0.0012(8)
O1 0.0424(10) 0.0309(9) 0.0256(10) 0.0066(7) 0.0049(7) -0.0140(7)
O2 0.0424(11) 0.0388(10) 0.0195(9) 0.0039(7) 0.0055(8) -0.0053(7)
O3 0.0432(11) 0.0477(12) 0.0436(12) -0.0080(9) 0.0118(9) 0.0215(9)
O4 0.0467(12) 0.0494(11) 0.0315(10) 0.0173(9) 0.0109(9) 0.0180(10)
O5 0.0434(11) 0.0294(9) 0.0257(10) 0.0032(6) 0.0087(8) 0.0150(7)
O6 0.0652(13) 0.0343(10) 0.0182(9) 0.0018(7) 0.0155(9) 0.0111(9)
loop_
_atom_type_symbol
_atom_type_description
_atom_type_scat_dispersion_real
_atom_type_scat_dispersion_imag
_atom_type_scat_source
C C 0.0033 0.0016 'International Tables Vol C Tables 4.2.6.8 and 6.1.1.4'
H H 0.0000 0.0000 'International Tables Vol C Tables 4.2.6.8 and 6.1.1.4'
N N 0.0061 0.0033 'International Tables Vol C Tables 4.2.6.8 and 6.1.1.4'
O O 0.0106 0.0060 'International Tables Vol C Tables 4.2.6.8 and 6.1.1.4'
K K 0.2009 0.2494 'International Tables Vol C Tables 4.2.6.8 and 6.1.1.4'
loop_
_geom_angle_atom_site_label_1
_geom_angle_atom_site_label_2
_geom_angle_atom_site_label_3
_geom_angle
_geom_angle_site_symmetry_1
_geom_angle_site_symmetry_3
_geom_angle_publ_flag
N3 C1 N1 110.2(2) . . ?
N3 C1 H1 124.9 . . ?
N1 C1 H1 124.9 . . ?
N2 C2 N3 115.75(19) . . ?
N2 C2 C3 121.36(19) . . ?
N3 C2 C3 122.9(2) . . ?
O2 C3 O1 125.0(2) . . ?
O2 C3 C2 123.3(2) . . ?
O1 C3 C2 111.7(2) . . ?
O2 C3 K1 53.65(12) . 1_546 ?
O1 C3 K1 90.11(12) . 1_546 ?
C2 C3 K1 131.62(15) . 1_546 ?
N4 C4 N1 118.02(18) . . ?
N4 C4 N5 122.7(2) . . ?
N1 C4 N5 117.54(19) . . ?
O6 K1 O4 55.24(6) . . ?
O6 K1 O1 68.09(6) . 2_564 ?
O4 K1 O1 71.62(6) . 2_564 ?
O6 K1 O2 68.80(5) . 1_554 ?
O4 K1 O2 96.32(6) . 1_554 ?
O1 K1 O2 133.94(5) 2_564 1_554 ?
O6 K1 O2 142.00(5) . 1_564 ?
O4 K1 O2 86.76(6) . 1_564 ?
O1 K1 O2 102.07(5) 2_564 1_564 ?
O2 K1 O2 121.95(7) 1_554 1_564 ?
O6 K1 O3 140.67(7) . 2_574 ?
O4 K1 O3 135.19(7) . 2_574 ?
O1 K1 O3 80.22(6) 2_564 2_574 ?
O2 K1 O3 127.96(6) 1_554 2_574 ?
O2 K1 O3 65.60(6) 1_564 2_574 ?
O6 K1 N2 75.86(6) . 2_564 ?
O4 K1 N2 118.02(6) . 2_564 ?
O1 K1 N2 55.02(5) 2_564 2_564 ?
O2 K1 N2 99.05(6) 1_554 2_564 ?
O2 K1 N2 130.05(6) 1_564 2_564 ?
O3 K1 N2 66.87(6) 2_574 2_564 ?
O6 K1 N3 122.70(5) . 1_554 ?
O4 K1 N3 147.44(6) . 1_554 ?
O1 K1 N3 140.64(6) 2_564 1_554 ?
O2 K1 N3 59.46(5) 1_554 1_554 ?
O2 K1 N3 88.84(5) 1_564 1_554 ?
O3 K1 N3 70.06(6) 2_574 1_554 ?
N2 K1 N3 89.01(6) 2_564 1_554 ?
O6 K1 O5 96.92(6) . 2_464 ?
O4 K1 O5 67.89(6) . 2_464 ?
O1 K1 O5 137.91(5) 2_564 2_464 ?
O2 K1 O5 62.97(5) 1_554 2_464 ?
O2 K1 O5 65.09(5) 1_564 2_464 ?
O3 K1 O5 122.39(5) 2_574 2_464 ?
N2 K1 O5 162.00(5) 2_564 2_464 ?
N3 K1 O5 81.02(5) 1_554 2_464 ?
O6 K1 C3 153.56(6) . 1_564 ?
O4 K1 C3 101.14(6) . 1_564 ?
O1 K1 C3 119.33(5) 2_564 1_564 ?
O2 K1 C3 106.50(5) 1_554 1_564 ?
O2 K1 C3 19.72(5) 1_564 1_564 ?
O3 K1 C3 63.51(6) 2_574 1_564 ?
N2 K1 C3 130.06(6) 2_564 1_564 ?
N3 K1 C3 69.48(6) 1_554 1_564 ?
O5 K1 C3 59.90(5) 2_464 1_564 ?
C1 N1 N2 109.59(19) . . ?
C1 N1 C4 129.6(2) . . ?
N2 N1 C4 120.78(18) . . ?
C2 N2 N1 102.13(17) . . ?
C2 N2 K1 112.37(14) . 2_465 ?
N1 N2 K1 133.41(13) . 2_465 ?
C1 N3 C2 102.31(19) . . ?
C1 N3 K1 141.94(15) . 1_556 ?
C2 N3 K1 110.18(14) . 1_556 ?
O6 N4 O5 120.11(19) . . ?
O6 N4 C4 123.26(18) . . ?
O5 N4 C4 116.63(19) . . ?
O3 N5 O4 123.1(2) . . ?
O3 N5 C4 116.2(2) . . ?
O4 N5 C4 120.7(2) . . ?
C3 O1 K1 118.17(13) . 2_465 ?
C3 O1 H2 113.3 . . ?
K1 O1 H2 117.1 2_465 . ?
C3 O2 K1 117.18(14) . 1_556 ?
C3 O2 K1 106.63(14) . 1_546 ?
K1 O2 K1 121.95(7) 1_556 1_546 ?
N5 O3 K1 168.10(17) . 2_475 ?
N5 O4 K1 141.64(16) . . ?
N4 O5 K1 129.90(15) . 2_565 ?
N4 O6 K1 137.09(14) . . ?
loop_
_geom_bond_atom_site_label_1
_geom_bond_atom_site_label_2
_geom_bond_distance
_geom_bond_site_symmetry_2
_geom_bond_publ_flag
C1 N3 1.316(3) . ?
C1 N1 1.355(3) . ?
C1 H1 0.9300 . ?
C2 N2 1.310(3) . ?
C2 N3 1.364(3) . ?
C2 C3 1.487(3) . ?
C3 O2 1.207(3) . ?
C3 O1 1.312(3) . ?
C3 K1 3.428(2) 1_546 ?
C4 N4 1.363(3) . ?
C4 N1 1.394(3) . ?
C4 N5 1.410(3) . ?
K1 O6 2.8062(18) . ?
K1 O4 2.842(2) . ?
K1 O1 2.8414(19) 2_564 ?
K1 O2 2.8861(18) 1_554 ?
K1 O2 2.8818(19) 1_564 ?
K1 O3 2.8969(19) 2_574 ?
K1 N2 2.904(2) 2_564 ?
K1 N3 2.949(2) 1_554 ?
K1 O5 3.286(2) 2_464 ?
N1 N2 1.358(3) . ?
N4 O6 1.236(2) . ?
N4 O5 1.280(3) . ?
N5 O3 1.226(3) . ?
N5 O4 1.231(3) . ?
O1 H2 0.8875 . ?
loop_
_geom_hbond_atom_site_label_D
_geom_hbond_atom_site_label_H
_geom_hbond_atom_site_label_A
_geom_hbond_distance_DH
_geom_hbond_distance_HA
_geom_hbond_distance_DA
_geom_hbond_angle_DHA
_geom_hbond_site_symmetry_A
_geom_hbond_publ_flag
O1 H2 O6 0.89 2.43 2.980(2) 120.6 2_455 yes
O1 H2 O5 0.89 1.74 2.625(2) 178.7 2_455 yes
O1 H2 N4 0.89 2.41 3.211(2) 150.2 2_455 yes
C1 H1 O4 0.93 2.45 3.292(3) 149.8 2_575 yes
loop_
_geom_torsion_atom_site_label_1
_geom_torsion_atom_site_label_2
_geom_torsion_atom_site_label_3
_geom_torsion_atom_site_label_4
_geom_torsion
_geom_torsion_site_symmetry_1
_geom_torsion_site_symmetry_2
_geom_torsion_site_symmetry_3
_geom_torsion_site_symmetry_4
_geom_torsion_publ_flag
N2 C2 C3 O2 -179.0(2) . . . . ?
N3 C2 C3 O2 2.1(4) . . . . ?
N2 C2 C3 O1 1.6(3) . . . . ?
N3 C2 C3 O1 -177.32(19) . . . . ?
N2 C2 C3 K1 112.4(2) . . . 1_546 ?
N3 C2 C3 K1 -66.5(3) . . . 1_546 ?
N3 C1 N1 N2 0.0(3) . . . . ?
N3 C1 N1 C4 -178.0(2) . . . . ?
N4 C4 N1 C1 102.8(3) . . . . ?
N5 C4 N1 C1 -91.9(3) . . . . ?
N4 C4 N1 N2 -75.1(3) . . . . ?
N5 C4 N1 N2 90.2(2) . . . . ?
N3 C2 N2 N1 0.6(2) . . . . ?
C3 C2 N2 N1 -178.4(2) . . . . ?
N3 C2 N2 K1 -147.47(16) . . . 2_465 ?
C3 C2 N2 K1 33.6(2) . . . 2_465 ?
C1 N1 N2 C2 -0.4(2) . . . . ?
C4 N1 N2 C2 177.9(2) . . . . ?
C1 N1 N2 K1 137.30(18) . . . 2_465 ?
C4 N1 N2 K1 -44.4(3) . . . 2_465 ?
N1 C1 N3 C2 0.3(3) . . . . ?
N1 C1 N3 K1 -148.1(2) . . . 1_556 ?
N2 C2 N3 C1 -0.6(3) . . . . ?
C3 C2 N3 C1 178.4(2) . . . . ?
N2 C2 N3 K1 159.27(15) . . . 1_556 ?
C3 C2 N3 K1 -21.8(3) . . . 1_556 ?
N1 C4 N4 O6 173.4(2) . . . . ?
N5 C4 N4 O6 8.9(3) . . . . ?
N1 C4 N4 O5 -7.0(3) . . . . ?
N5 C4 N4 O5 -171.5(2) . . . . ?
N4 C4 N5 O3 161.9(2) . . . . ?
N1 C4 N5 O3 -2.6(3) . . . . ?
N4 C4 N5 O4 -19.6(3) . . . . ?
N1 C4 N5 O4 175.8(2) . . . . ?
O2 C3 O1 K1 141.7(2) . . . 2_465 ?
C2 C3 O1 K1 -38.9(2) . . . 2_465 ?
K1 C3 O1 K1 -174.58(9) 1_546 . . 2_465 ?
O1 C3 O2 K1 -160.11(17) . . . 1_556 ?
C2 C3 O2 K1 20.5(3) . . . 1_556 ?
K1 C3 O2 K1 140.73(19) 1_546 . . 1_556 ?
O1 C3 O2 K1 59.2(3) . . . 1_546 ?
C2 C3 O2 K1 -120.21(19) . . . 1_546 ?
O4 N5 O3 K1 -17.1(10) . . . 2_475 ?
C4 N5 O3 K1 161.4(7) . . . 2_475 ?
O3 N5 O4 K1 161.0(2) . . . . ?
C4 N5 O4 K1 -17.4(4) . . . . ?
O6 N4 O5 K1 83.6(2) . . . 2_565 ?
C4 N4 O5 K1 -96.0(2) . . . 2_565 ?
O5 N4 O6 K1 -138.81(19) . . . . ?
C4 N4 O6 K1 40.7(3) . . . . ?
