#------------------------------------------------------------------------------
#$Date: 2021-04-28 00:39:46 +0300 (Wed, 28 Apr 2021) $
#$Revision: 264592 $
#$URL: file:///home/coder/svn-repositories/cod/cif/4/51/86/4518631.cif $
#------------------------------------------------------------------------------
#
# This file is available in the Crystallography Open Database (COD),
# http://www.crystallography.net/
#
# All data on this site have been placed in the public domain by the
# contributors.
#
data_4518631
loop_
_publ_author_name
'Yan, Siyu'
'Tang, Kaixin'
'Lin, Yuejian'
'Ren, Yuanhang'
'Tian, Wanli'
'Chen, Hua'
'Lin, Tingting'
'Qiu, Longzhen'
'Pan, Xiaoyong'
'Wang, Weizhi'
_publ_section_title
;
 Light-Emitting Diodes with Manganese Halide Tetrahedron Embedded in
 Anti-Perovskites
;
_journal_name_full               'ACS Energy Letters'
_journal_page_first              1901
_journal_page_last               1911
_journal_paper_doi               10.1021/acsenergylett.1c00250
_journal_year                    2021
_chemical_formula_sum            'Br0.67 Cs I Mn0.33'
_chemical_formula_weight         331.40
_space_group_crystal_system      tetragonal
_space_group_IT_number           140
_space_group_name_Hall           '-I 4 2c'
_space_group_name_H-M_alt        'I 4/m c m'
_audit_creation_method           SHELXL-2016/6
_cell_angle_alpha                90
_cell_angle_beta                 90
_cell_angle_gamma                90
_cell_formula_units_Z            12
_cell_length_a                   10.0942(5)
_cell_length_b                   10.0942(5)
_cell_length_c                   15.8800(10)
_cell_measurement_reflns_used    7569
_cell_measurement_temperature    293(2)
_cell_measurement_theta_max      25.59
_cell_measurement_theta_min      2.85
_cell_volume                     1618.06(15)
_computing_cell_refinement       'Bruker SAINT'
_computing_data_collection       'Bruker APEX2'
_computing_data_reduction        'Bruker SAINT'
_computing_molecular_graphics    'Bruker SHELXTL'
_computing_publication_material  'Bruker SHELXTL'
_computing_structure_refinement  'SHELXL-2016/6 (Sheldrick, 2016)'
_computing_structure_solution    'SHELXT 2018/2 (Sheldrick, 2018)'
_diffrn_ambient_temperature      293(2)
_diffrn_measured_fraction_theta_full 0.998
_diffrn_measured_fraction_theta_max 0.998
_diffrn_measurement_device_type  'Bruker APEX-II CCD'
_diffrn_measurement_method       '\f and \w scans'
_diffrn_radiation_type           MoK\a
_diffrn_radiation_wavelength     0.71073
_diffrn_reflns_av_R_equivalents  0.0735
_diffrn_reflns_av_unetI/netI     0.0244
_diffrn_reflns_Laue_measured_fraction_full 0.998
_diffrn_reflns_Laue_measured_fraction_max 0.998
_diffrn_reflns_limit_h_max       12
_diffrn_reflns_limit_h_min       -12
_diffrn_reflns_limit_k_max       12
_diffrn_reflns_limit_k_min       -12
_diffrn_reflns_limit_l_max       17
_diffrn_reflns_limit_l_min       -19
_diffrn_reflns_number            16612
_diffrn_reflns_point_group_measured_fraction_full 0.998
_diffrn_reflns_point_group_measured_fraction_max 0.998
_diffrn_reflns_theta_full        25.242
_diffrn_reflns_theta_max         25.716
_diffrn_reflns_theta_min         2.565
_exptl_absorpt_coefficient_mu    18.083
_exptl_absorpt_correction_T_max  0.646
_exptl_absorpt_correction_T_min  0.071
_exptl_absorpt_correction_type   multi-scan
_exptl_absorpt_process_details   sadabs
_exptl_crystal_colour            colourless
_exptl_crystal_density_diffrn    4.081
_exptl_crystal_description       block
_exptl_crystal_F_000             1676
_exptl_crystal_size_max          0.260
_exptl_crystal_size_mid          0.170
_exptl_crystal_size_min          0.090
_refine_diff_density_max         0.700
_refine_diff_density_min         -0.591
_refine_diff_density_rms         0.145
_refine_ls_extinction_coef       0.00089(8)
_refine_ls_extinction_expression Fc^*^=kFc[1+0.001xFc^2^\l^3^/sin(2\q)]^-1/4^
_refine_ls_extinction_method     'SHELXL-2016/6 (Sheldrick 2016)'
_refine_ls_goodness_of_fit_ref   1.097
_refine_ls_hydrogen_treatment    undef
_refine_ls_matrix_type           full
_refine_ls_number_parameters     18
_refine_ls_number_reflns         438
_refine_ls_number_restraints     0
_refine_ls_restrained_S_all      1.097
_refine_ls_R_factor_all          0.0251
_refine_ls_R_factor_gt           0.0227
_refine_ls_shift/su_max          0.000
_refine_ls_shift/su_mean         0.000
_refine_ls_structure_factor_coef Fsqd
_refine_ls_weighting_details
'w=1/[\s^2^(Fo^2^)+(0.0193P)^2^+9.7103P] where P=(Fo^2^+2Fc^2^)/3'
_refine_ls_weighting_scheme      calc
_refine_ls_wR_factor_gt          0.0511
_refine_ls_wR_factor_ref         0.0520
_reflns_Friedel_coverage         0.000
_reflns_number_gt                406
_reflns_number_total             438
_reflns_threshold_expression     'I > 2\s(I)'
_cod_data_source_file            nz1c00250_si_003.cif
_cod_data_source_block           mo_200916b_a
_cod_original_cell_volume        1618.06(19)
_cod_database_code               4518631
_shelx_shelxl_version_number     2016/6
_shelx_space_group_comment
; 
The symmetry employed for this shelxl refinement is uniquely defined 
by the following loop, which should always be used as a source of 
symmetry information in preference to the above space-group names. 
They are only intended as comments. 
;
_shelx_estimated_absorpt_t_min   0.089
_shelx_estimated_absorpt_t_max   0.293
_shelx_res_file
; 
TITL mo_200916b_a.res in I4/mcm 
    mo_200916b_a.res 
    created by SHELXL-2016/6 at 14:38:00 on 25-Sep-2020 
CELL  0.71073  10.0942  10.0942  15.8800   90.000   90.000   90.000 
ZERR   12.000   0.0005   0.0005   0.0010    0.000    0.000    0.000 
LATT 2 
SYMM -X, -Y, Z 
SYMM -Y, X, Z 
SYMM Y, -X, Z 
SYMM -X, Y, 1/2-Z 
SYMM X, -Y, 1/2-Z 
SYMM Y, X, 1/2-Z 
SYMM -Y, -X, 1/2-Z 
SFAC Br Cs I  Mn 
UNIT 8 12 12 4 
OMIT 1 1 0 
L.S. 4 
ACTA 
BOND 
FMAP 2 
PLAN 2 
CONF 
SIZE 0.09 0.17 0.26 
EADP I2 Br1 
EXYZ I2 Br1 
TEMP 19.850 
WGHT    0.019300    9.710300 
EXTI    0.000894 
FVAR       0.13969 
I1    3    0.500000    0.500000    0.500000    10.12500    0.03510    0.03510 = 
         0.05680    0.00000    0.00000    0.00000 
CS2   2    0.658361    0.841639    0.500000    10.25000    0.03863    0.03863 = 
         0.06877    0.00000    0.00000   -0.00201 
CS1   2    0.500000    0.500000    0.750000    10.12500    0.07147    0.07147 = 
         0.04793    0.00000    0.00000    0.00000 
BR1   1    0.853155    0.646845    0.346634    10.25000    0.06365    0.06365 = 
         0.05457   -0.01113    0.01113    0.01601 
I2    3    0.853155    0.646845    0.346634    10.25000    0.06365    0.06365 = 
         0.05457   -0.01113    0.01113    0.01601 
MN1   4    1.000000    0.500000    0.250000    10.12500    0.04492    0.04492 = 
         0.03506    0.00000    0.00000    0.00000 
HKLF 4 
  
  
  
  
REM  mo_200916b_a.res in I4/mcm 
REM R1 =  0.0227 for     406 Fo > 4sig(Fo)  and  0.0251 for all     438 data 
REM     18 parameters refined using      0 restraints 
  
END 
  
WGHT      0.0190      9.7290 
  
REM Highest difference peak  0.700,  deepest hole -0.591,  1-sigma level  0.145 
Q1    1   0.8380  0.5696  0.3535  11.00000  0.05    0.70 
Q2    1   0.8406  0.6594  0.2986  10.50000  0.05    0.69 
;
_shelx_res_checksum              44344
_shelx_hkl_file
; 
  -1  -1   0   58.19    4.60 
  -1  -1   0   56.59    4.80 
  -1   1   0   57.39    7.00 
  -1  -1   0   64.29    4.40 
  -1   1   0   59.59    4.80 
   1  -1   0   56.69    4.80 
   1   1   0   59.29    5.40 
   1   1   0   56.99    4.60 
   1  -1   0   68.89    6.60 
  -1   1   0   54.19    6.40 
   1  -1   0   70.39    7.90 
   1   1   0   50.59    6.10 
  -1   1   0   68.69    6.30 
   1   1   0   60.59    4.40 
   1   1   0   58.39    6.80 
  -1  -1   0   58.99    5.40 
   1   1   0   56.39    4.70 
  -1  -1   0   48.90    6.50 
   0   2   0  391.56   29.60 
   0  -2   0  395.86   27.40 
   0   2   0  398.06   27.90 
  -2   0   0  451.15   27.50 
   2   0   0  406.06   27.40 
  -2   0   0  325.47   30.20 
  -2   0   0  427.26   27.40 
   0   2   0  385.76   29.50 
   2   0   0  442.86   33.90 
  -2   0   0  424.26   28.50 
   0  -2   0  425.26   28.30 
   0  -2   0  410.06   28.40 
   0  -2   0  393.76   29.30 
   0   2   0  407.16   28.10 
   2   0   0  406.86   27.40 
   2   0   0  336.07   29.80 
   0   2   0  398.46   27.30 
   0  -2   0  354.76   29.70 
   2   0   0  412.56   28.20 
   0  -2   0  385.26   28.80 
  -2  -2   0 4081.69  288.17 
   2  -2   0 4249.17  283.87 
  -2   2   0 4469.35  282.87 
  -2  -2   0 4339.57  281.37 
  -2   2   0 4332.77  283.17 
   2   2   0 4080.79  284.67 
   2  -2   0 4290.17  279.97 
  -2  -2   0 3903.31  283.77 
   2   2   0 4027.30  283.37 
  -3  -1   0 7117.29  460.95 
  -3  -1   0 6595.34  463.35 
  -3   1   0 6584.84  500.45 
  -1  -3   0 8302.57  499.75 
  -3   3   0 3788.02  247.38 
  -3  -3   0 3936.01  242.78 
   3  -3   0 3519.25  249.58 
   3   3   0 3836.22  245.88 
  -3  -3   0 3101.79  248.78 
  -3   3   0 3814.72  248.68 
  -3   3   0 3761.32  247.08 
  -3   3   0 3971.90  243.18 
  -3  -3   0 3789.82  243.48 
   3  -3   0 3619.84  243.38 
   3   3   0 3822.32  242.58 
   3   3   0 3248.48  249.48 
   3   3   0 3195.98  247.88 
  -3  -3   0 3639.34  245.58 
  -3  -3   0 3373.66  250.57 
  -2   4   0 4876.81  319.17 
   2  -4   0 4844.12  321.07 
   2  -4   0 4536.65  317.87 
   4   2   0 4788.62  316.57 
  -2   4   0 4786.02  321.17 
   4   2   0 5052.89  321.47 
  -2   4   0 4546.35  321.17 
   4   2   0 5046.40  328.27 
   2  -4   0 4579.84  317.47 
  -4  -2   0 4484.95  320.87 
   2  -4   0 4800.12  324.87 
  -4  -2   0 4662.33  317.77 
   4   0   0 1167.48   76.89 
   4   0   0 1103.29   81.09 
   0  -4   0 1189.28   77.69 
  -4   0   0 1134.69   75.29 
   0   4   0 1065.39   80.09 
   0   4   0 1044.40   80.29 
  -4   0   0 1089.89   77.89 
   0  -4   0 1099.19   75.49 
   0   4   0 1141.39   76.79 
   0  -4   0 1053.29   80.39 
   4   0   0 1062.79   75.39 
   0  -4   0 1093.49   79.39 
   0   4   0 1202.38   76.59 
   4   0   0 1076.09   75.29 
   0   4   0 1069.39   80.49 
   0  -4   0 1115.29   77.39 
   0   4   0 1128.69   75.29 
  -4   0   0 1129.39   75.49 
  -2  -4   0 4507.15  304.87 
   2   4   0 4097.79  305.57 
  -2  -4   0 4561.84  302.77 
  -2  -4   0 4128.19  306.07 
  -4   2   0 3944.81  307.07 
   4  -2   0 5106.19  304.97 
  -4   2   0 4169.08  306.97 
  -4   2   0 4518.55  305.97 
   2   4   0 4337.97  306.47 
   4  -2   0 4508.35  300.27 
   2   4   0 4949.21  299.57 
   2   4   0 4796.42  303.57 
  -2  -4   0 4753.32  300.67 
  -4   4   0 6403.76  435.26 
  -4   4   0 6610.74  436.66 
   4   4   0 7104.89  434.26 
  -4  -4   0 5546.45  438.26 
   4   4   0 7010.30  430.16 
   4   4   0 5788.32  438.16 
  -4  -4   0 6125.29  440.36 
  -4  -4   0 6806.52  436.66 
   4  -4   0 6017.20  438.86 
  -4   4   0 6880.11  434.26 
  -4  -4   0 6602.64  430.46 
   4   4   0 5900.11  436.76 
   4  -4   0 6858.91  430.76 
   5   3   0  636.64   56.59 
  -5  -3   0  642.34   45.00 
  -3   5   0  688.93   48.90 
   5   3   0  609.04   44.10 
   3  -5   0  599.74   46.70 
  -5  -3   0  505.75   56.39 
   3  -5   0  667.93   46.80 
   5   3   0  664.73   45.80 
   3  -5   0  658.83   51.99 
  -5  -3   0  515.75   51.09 
  -5  -3   0  635.94   46.50 
  -3   5   0  662.03   49.90 
   5   3   0  702.63   50.59 
  -5  -3   0  653.03   44.50 
   1  -5   0  518.45   42.40 
   1  -5   0  491.95   36.00 
  -5  -1   0  510.05   38.00 
  -5  -1   0  415.16   42.00 
   1  -5   0  480.05   39.80 
  -1   5   0  517.85   41.60 
   1  -5   0  450.75   41.60 
   1  -5   0  512.75   39.10 
  -1   5   0  507.95   37.60 
   5   1   0  523.75   41.90 
  -1   5   0  566.34   44.80 
  -5  -1   0  515.45   35.70 
   5   1   0  497.95   35.60 
  -5  -1   0  510.55   35.80 
  -1   5   0  543.45   37.50 
  -1   5   0  501.95   35.60 
  -1   5   0  471.45   43.10 
   5   1   0  499.25   35.80 
   5   1   0  517.25   36.90 
   1   5   0  493.15   35.90 
  -1  -5   0  492.05   38.60 
   1   5   0  526.95   40.40 
   1   5   0  441.86   41.20 
  -1  -5   0  501.35   35.20 
   1   5   0  485.65   41.60 
   5  -1   0  500.75   35.10 
  -5   1   0  491.25   35.10 
  -1  -5   0  471.75   38.60 
  -1  -5   0  455.25   41.10 
  -1  -5   0  483.65   37.20 
   1   5   0  507.95   36.40 
   5  -1   0  496.85   35.50 
   1   5   0  511.05   34.80 
   1   5   0  517.75   36.70 
  -5   1   0  459.75   41.20 
   5  -1   0  498.15   37.40 
  -1  -5   0  519.95   34.80 
  -5   1   0  430.96   44.50 
   3   5   0  651.13   48.40 
  -3  -5   0  646.54   45.10 
  -5   3   0  666.13   49.80 
   3   5   0  553.34   51.59 
  -3  -5   0  641.54   44.20 
  -5   3   0  641.64   55.99 
  -3  -5   0  649.43   43.20 
   5  -3   0  572.54   44.80 
  -3  -5   0  561.04   52.69 
  -3  -5   0  571.24   49.60 
  -5   3   0  576.84   52.69 
   3   5   0  652.33   45.50 
   3   5   0  574.84   44.50 
  -5   3   0  468.85   57.09 
  -3  -5   0  586.44   50.29 
   3   5   0  664.83   43.00 
  -5   3   0  671.63   44.00 
   3   5   0  640.44   45.10 
   5  -5   0  450.85   41.00 
   5   5   0  441.66   32.60 
   5  -5   0  386.26   42.20 
   5   5   0  410.06   36.30 
  -5   5   0  448.26   32.00 
   5  -5   0  430.86   33.70 
   5   5   0  339.27   39.70 
  -5  -5   0  421.76   31.60 
  -5  -5   0  403.46   32.80 
   5   5   0  402.96   39.80 
  -5  -5   0  383.96   44.80 
  -5  -5   0  442.06   30.70 
  -5   5   0  456.75   36.10 
   5   5   0  414.06   30.30 
   6   4   0  128.39   13.10 
   4  -6   0  130.49   20.20 
  -4   6   0  155.58   16.20 
   4  -6   0  159.58   15.90 
  -6  -4   0  128.79   14.10 
   4  -6   0   69.69   25.10 
   6   4   0  127.69   17.20 
  -6  -4   0  138.69   12.70 
   6   4   0  126.19   11.80 
   4  -6   0  107.39   15.00 
  -4   6   0  136.49   16.50 
   6   4   0  150.78   24.30 
   6   2   0  229.28   19.00 
  -6  -2   0  242.68   19.20 
   6   2   0  327.37   35.70 
  -6  -2   0  228.58   19.30 
  -6  -2   0  241.58   27.10 
  -2   6   0  254.47   21.40 
  -6  -2   0  240.18   23.50 
   6   2   0  205.38   24.60 
   2  -6   0  303.17   28.70 
   2  -6   0  224.68   19.90 
   6   2   0  295.97   21.10 
   6   2   0  228.28   19.30 
  -2   6   0  241.48   19.50 
   2  -6   0  259.37   24.50 
  -2   6   0  241.98   30.70 
  -2   6   0  245.68   24.90 
  -2   6   0  254.87   22.10 
   2  -6   0  247.48   28.00 
   0   6   0 9609.44  595.64 
  -6   0   0 8301.37  591.14 
   0   6   0 8538.15  595.54 
   6   0   0 8313.07  586.44 
   0  -6   0 8396.36  592.44 
   0   6   0 8307.17  594.34 
   6   0   0 9999.00  596.64 
   0   6   0 9030.40  589.64 
   0  -6   0 9417.46  599.44 
   6   0   0 8302.97  586.24 
  -2  -6   0  230.48   27.30 
  -6   2   0  289.87   33.10 
   2   6   0  259.47   20.70 
   2   6   0  242.18   27.00 
   6  -2   0  221.18   19.70 
  -2  -6   0  260.77   19.30 
  -2  -6   0  306.87   25.70 
   6  -2   0  259.87   23.10 
   2   6   0  299.67   29.20 
   2   6   0  265.47   21.50 
  -6   2   0  195.18   28.20 
   6  -2   0  222.78   20.30 
   2   6   0  248.78   19.40 
   2   6   0  232.98   20.90 
  -2  -6   0  278.87   24.40 
  -6   2   0  226.68   19.50 
  -2  -6   0  242.38   19.90 
  -6   4   0  195.78   31.40 
  -4  -6   0  108.69   19.10 
   4   6   0  133.99   13.30 
  -4  -6   0  124.29   12.20 
  -6   4   0  129.59   18.40 
  -6   4   0  128.09   22.80 
  -4  -6   0  118.09   13.10 
   4   6   0  111.39   19.30 
  -6   4   0  121.29   11.90 
   4   6   0  148.99   17.20 
  -4  -6   0  131.79   11.30 
   4   6   0  104.59   18.40 
   6   6   0 2462.55  162.78 
   6  -6   0 2582.84  179.88 
  -6  -6   0 2414.46  160.38 
   6   6   0 2186.68  172.58 
  -6  -6   0 2405.76  161.68 
   6   6   0 2021.80  173.18 
   6   6   0 2492.05  169.18 
  -6  -6   0 2365.86  163.28 
  -7  -5   0  107.59   14.00 
  -5   7   0  110.09   15.50 
  -5   7   0  132.99   21.10 
  -5   7   0  149.49   16.40 
   5  -7   0   64.39   31.20 
  -7  -5   0  118.89   12.30 
   5  -7   0   86.19   16.10 
   7   5   0   97.79   16.90 
   5  -7   0   95.79   23.50 
   7   5   0  118.49   13.10 
  -7  -5   0   96.49   11.00 
   3  -7   0 3241.78  263.87 
  -3   7   0 3781.22  250.67 
  -3   7   0 4017.80  255.67 
  -7  -3   0 3669.53  247.98 
   7   3   0 3750.62  256.27 
  -7  -3   0 3673.43  250.77 
   3  -7   0 3800.92  257.57 
   3  -7   0 3652.13  250.07 
   3  -7   0 3519.15  249.28 
  -7  -3   0 3694.63  247.68 
   7   3   0 3675.23  249.08 
  -7  -1   0  193.58   15.50 
  -1   7   0  178.88   16.90 
   1  -7   0  187.48   22.00 
  -1   7   0  177.68   22.00 
   1  -7   0  180.88   16.00 
   7   1   0  206.08   23.60 
  -1   7   0  178.08   15.40 
  -1   7   0  158.18   24.00 
   7   1   0  190.58   17.10 
   1  -7   0  172.08   23.00 
   7   1   0  168.88   15.60 
  -7  -1   0  202.98   31.50 
  -1   7   0  188.08   25.10 
  -7  -1   0  185.78   15.70 
  -7  -1   0  180.78   19.40 
   1   7   0  207.78   24.10 
  -1  -7   0  190.58   19.20 
   1   7   0  191.08   16.50 
   1   7   0  184.98   14.90 
   1   7   0  174.88   17.60 
  -1  -7   0  181.18   15.70 
   1   7   0  174.58   23.90 
   7  -1   0  180.28   17.40 
  -7   1   0  112.49   21.80 
  -7   1   0  176.58   15.10 
   1   7   0  158.08   21.20 
  -1  -7   0  178.68   18.40 
  -1  -7   0  155.78   14.70 
  -3  -7   0 3642.94  243.28 
   3   7   0 3771.62  244.98 
   3   7   0 3587.94  254.87 
  -3  -7   0 3429.06  248.98 
   3   7   0 3782.62  250.37 
   3   7   0 3568.74  254.17 
  -7   3   0 3592.54  242.48 
  -7   3   0 3487.65  249.58 
   3   7   0 3520.05  243.48 
  -3  -7   0 3672.83  241.98 
  -5  -7   0  106.69   13.50 
   5   7   0  124.09   13.60 
  -7   5   0  210.38   33.30 
  -7   5   0  111.49   11.70 
  -5  -7   0   99.49   11.90 
   5   7   0  101.09   17.40 
   5   7   0   85.99   20.30 
   7   7   0  271.57   30.80 
  -7  -7   0  252.77   21.10 
  -7  -7   0  251.77   22.40 
   7   7   0  259.07   23.70 
   7   7   0  191.08   32.90 
  -7  -7   0  235.38   24.10 
   7   7   0  253.67   33.50 
  -7   7   0  249.68   25.80 
  -6   8   0  451.25   38.50 
   8   6   0  413.06   41.20 
   6  -8   0  392.06   48.80 
   6  -8   0  323.87   36.60 
   8   6   0  400.06   49.60 
  -8  -6   0  412.86   32.00 
  -8  -6   0  448.16   36.70 
  -8  -6   0  407.26   33.00 
   8   6   0  379.76   33.60 
   6  -8   0  563.44   71.19 
  -8  -4   0  179.18   20.10 
   8   4   0  165.78   17.90 
  -4   8   0  174.48   19.30 
   4  -8   0  228.28   29.20 
  -4   8   0  201.28   23.10 
  -8  -4   0  198.28   17.20 
  -8  -4   0  197.38   17.50 
   8   4   0  187.48   24.80 
   4  -8   0  177.18   19.30 
   8   4   0  260.37   37.30 
  -8  -2   0  332.37   26.90 
   8   2   0  368.36   35.90 
   8   2   0  337.67   28.30 
   2  -8   0  328.37   39.20 
   2  -8   0  322.47   28.10 
   2  -8   0  349.07   34.30 
  -2   8   0  339.87   28.80 
  -2   8   0  359.26   35.00 
  -2   8   0  456.55   46.20 
  -8  -2   0  340.47   31.40 
  -8  -2   0  360.56   27.40 
   2  -8   0  304.57   29.10 
   8   0   0 1049.09   75.99 
   0   8   0 1055.59   75.29 
  -8   0   0  954.00   80.89 
  -8   0   0 1096.39   88.69 
   0   8   0 1028.30   85.19 
  -8   0   0 1031.30   73.89 
   0   8   0 1161.58   85.19 
   0   8   0 1265.97   88.59 
   0  -8   0 1004.50   74.39 
   0   8   0 1028.00   78.69 
   0  -8   0  958.70   78.49 
  -2  -8   0  309.87   26.30 
   2   8   0  355.46   36.70 
   8  -2   0  323.97   28.80 
   2   8   0  315.07   28.40 
  -2  -8   0  306.17   30.50 
   2   8   0  341.37   27.00 
  -8   2   0  230.68   42.50 
   8  -2   0  283.27   25.90 
  -8   2   0  328.97   25.50 
  -2  -8   0  337.67   26.60 
   2   8   0  366.56   37.20 
   2   8   0  361.96   35.10 
   4   8   0  192.68   18.00 
   8  -4   0  144.19   18.60 
   4   8   0  180.08   23.60 
   4   8   0  162.38   18.30 
  -4  -8   0  188.48   16.00 
  -8   4   0  113.19   34.70 
   4   8   0  193.28   27.80 
  -8   4   0  177.98   16.10 
  -8   4   0  201.78   21.80 
  -4  -8   0  209.38   18.00 
   4   8   0  179.28   26.80 
   6   8   0  386.06   33.70 
   6   8   0  428.76   41.00 
  -8   6   0  421.86   31.90 
   6   8   0  343.07   43.30 
  -6  -8   0  402.86   34.30 
  -6  -8   0  392.36   32.40 
  -8   6   0  428.86   35.90 
   6   8   0  310.07   41.70 
  -6  -8   0  418.66   30.90 
   8   8   0   99.99   16.10 
  -8   8   0  101.59   16.50 
  -8  -8   0  114.49   14.70 
   8  -8   0  201.48   39.40 
   8   8   0   73.99   25.20 
   8   8   0   99.19   22.30 
   8  -8   0  259.07   45.00 
  -8  -8   0   99.79   17.30 
   8  -8   0  188.08   28.10 
  -8  -8   0  108.19   13.10 
   7  -9   0  416.56   54.59 
  -9  -7   0  358.16   32.60 
   9   7   0  354.76   33.40 
  -9  -7   0  390.86   32.00 
  -7   9   0  401.86   37.70 
  -9  -7   0  383.16   36.90 
   9   7   0  405.46   44.10 
   7  -9   0  424.26   39.30 
  -5   9   0   72.49   16.30 
  -5   9   0   55.29   12.20 
  -9  -5   0   57.69    9.90 
  -9  -5   0   70.59   11.00 
  -5   9   0  142.09   26.80 
   9   5   0   60.69   11.30 
   9   5   0   76.79   18.80 
   5  -9   0   51.59   13.00 
   9   5   0   65.09   25.30 
  -9  -5   0   63.89   14.30 
   5  -9   0   74.99   23.40 
  -3   9   0  128.49   16.00 
   3  -9   0  134.89   23.00 
  -3   9   0  155.48   21.10 
   9   3   0  124.99   15.10 
   9   3   0  204.48   37.20 
  -9  -3   0  134.29   13.80 
  -9  -3   0  123.69   18.30 
   9   3   0  159.68   22.50 
   3  -9   0  135.79   15.50 
   3  -9   0  108.79   31.10 
  -9  -3   0  127.29   13.90 
  -1   9   0  787.62   65.59 
  -9  -1   0  767.72   56.99 
   9   1   0  767.72   58.89 
   1  -9   0  693.13   63.39 
   1  -9   0  755.42   58.19 
  -9  -1   0  839.62   65.59 
  -1   9   0  779.32   58.59 
  -1   9   0  900.91   68.79 
   9   1   0  883.11   69.19 
  -1  -9   0  742.93   54.19 
   9  -1   0  708.63   56.69 
  -9   1   0  768.92   54.19 
  -1  -9   0  704.23   55.09 
  -9   1   0  696.43   68.49 
   1   9   0  779.62   59.19 
   1   9   0  786.22   55.79 
   1   9   0  830.02   67.29 
   1   9   0  683.73   64.59 
   3   9   0  131.99   16.40 
   9  -3   0  127.99   19.40 
  -9   3   0   85.99   33.80 
  -9   3   0  117.29   13.20 
   3   9   0  167.68   26.10 
   3   9   0  162.88   25.50 
  -3  -9   0  138.99   14.80 
   3   9   0  136.49   15.20 
   3   9   0  132.59   21.90 
  -3  -9   0  130.89   13.10 
  -9   3   0  126.09   20.50 
   5   9   0   64.59   11.30 
  -9   5   0   99.79   33.50 
   5   9   0   71.59   13.00 
   5   9   0   74.49   21.20 
  -9   5   0   53.59    9.30 
  -5  -9   0   68.29   11.50 
  -9   5   0   79.39   15.30 
   5   9   0   69.79   17.70 
  -5  -9   0   60.69    9.20 
   5   9   0   60.79   20.30 
   7   9   0  377.26   41.20 
  -7  -9   0  357.06   33.80 
   7   9   0  358.46   33.30 
  -7  -9   0  339.97   30.80 
  -7  -9   0  360.16   29.40 
   7   9   0  297.57   44.40 
   7   9   0  329.07   44.40 
  -9   7   0  432.26   35.50 
  -6  10   0   28.00   12.70 
   6 -10   0   29.00   21.40 
 -10  -6   0   22.90   12.70 
 -10  -6   0   26.90    8.50 
  10   6   0   27.20   14.40 
   6 -10   0   50.19   47.90 
   6 -10   0    6.60   11.70 
  10   6   0   16.10    8.40 
  10   6   0   12.70   19.90 
  -6  10   0   70.09   22.10 
  -6  10   0   36.70   11.80 
  -4  10   0 1066.89   75.99 
  10   4   0  923.01   76.59 
  10   4   0  862.01   68.29 
 -10  -4   0  872.81   70.59 
   4 -10   0  858.91   81.99 
 -10  -4   0  932.41   65.49 
   4 -10   0  837.62   67.69 
 -10  -4   0  906.01   65.19 
  -4  10   0  808.22   66.99 
  -2  10   0  603.44   50.39 
  -2  10   0  506.05   40.60 
  10   2   0  577.54   50.89 
 -10  -2   0  464.15   38.00 
 -10  -2   0  477.45   38.50 
   2 -10   0  456.95   40.10 
  10   2   0  505.75   40.30 
   2 -10   0  510.15   49.30 
 -10  -2   0  422.26   45.00 
   0  10   0  233.18   29.40 
 -10   0   0  177.88   17.70 
  10   0   0  196.48   20.40 
   0  10   0  186.58   19.40 
   0 -10   0  163.58   19.40 
   0  10   0  212.78   26.60 
 -10   0   0  168.98   30.90 
   0  10   0  235.38   32.90 
   0 -10   0  169.58   23.30 
   0 -10   0  196.58   19.40 
  10  -2   0  424.06   39.70 
   2  10   0  564.14   52.09 
   2  10   0  437.46   48.30 
   2  10   0  507.25   39.00 
 -10   2   0  461.35   36.90 
  -2 -10   0  450.75   37.00 
  -2 -10   0  495.45   39.10 
 -10   2   0  319.17   59.89 
   2  10   0  535.45   43.50 
   2  10   0  579.44   53.29 
   4  10   0 1050.49   82.59 
   4  10   0  826.02   73.39 
   4  10   0  873.81   63.59 
  -4 -10   0  837.62   63.39 
   4  10   0  784.42   75.19 
   4  10   0  872.31   66.09 
 -10   4   0  834.62   67.99 
 -10   4   0  808.02   61.29 
  -4 -10   0  811.12   60.99 
  -6 -10   0   24.10    7.20 
 -10   6   0   60.59   31.20 
   6  10   0   41.20   11.40 
   6  10   0   20.70   15.30 
   6  10   0   14.00   15.70 
  10  -6   0   70.49   28.10 
 -10   6   0   17.60    9.90 
  10  -6   0   65.49   20.50 
   6  10   0   16.50   15.20 
   6  10   0   27.50   15.50 
  -6 -10   0   36.20   10.00 
 -10   6   0   28.30    7.90 
   5 -11   0 -119.69   78.29 
  -5  11   0   43.80   15.90 
  -5  11   0  111.89   33.20 
  11   5   0   54.79   19.90 
  11   5   0   26.70   10.70 
  -5  11   0   82.09   25.20 
  -5  11   0   46.20   11.60 
   5 -11   0   32.20   13.50 
 -11  -5   0   22.60    8.90 
  11   5   0   49.10   29.30 
   5 -11   0   14.20   20.80 
 -11  -5   0   30.90    8.90 
  -3  11   0   12.50   11.50 
 -11  -3   0   14.70    7.00 
   3 -11   0   -6.50    8.30 
  11   3   0   -4.90   11.20 
  -3  11   0   15.50   18.40 
  11   3   0   23.00   24.80 
 -11  -3   0    8.90    6.00 
  -3  11   0    9.10    8.40 
  11   3   0   -5.20    7.00 
  -3  11   0    3.90   17.60 
   3 -11   0    4.90   14.20 
 -11  -3   0   -1.20   13.50 
 -11  -1   0  102.39   27.00 
   1 -11   0  109.09   24.80 
   1 -11   0  146.89   17.80 
  -1  11   0  194.38   32.60 
  -1  11   0  108.19   26.10 
  11   1   0  241.88   52.49 
 -11  -1   0  139.49   15.70 
  -1  11   0  161.38   35.50 
   1  11   0  180.48   28.90 
   1  11   0  159.88   29.10 
 -11   1   0  154.08   37.10 
  -1 -11   0  113.09   16.30 
 -11   1   0  127.49   15.00 
   1  11   0  136.29   18.30 
  -1 -11   0  127.79   18.10 
   1  11   0  116.29   25.00 
   3  11   0    7.20   14.80 
   3  11   0   11.90   10.30 
 -11   3   0   15.60   11.20 
  11  -3   0   23.50   19.30 
  11  -3   0  -11.10    8.20 
   3  11   0   -9.70   11.90 
 -11   3   0   10.30   42.60 
 -11   3   0    1.40    5.00 
  -3 -11   0   10.00    7.90 
  -3 -11   0   -1.00    5.20 
   3  11   0   -8.00   13.80 
  11  -5   0  131.29   33.00 
   5  11   0   30.90   13.00 
   5  11   0   37.30   20.70 
   5  11   0   35.60   17.60 
 -11   5   0   92.59   41.80 
  -5 -11   0   27.80   10.10 
  -5 -11   0   39.30    9.50 
   5  11   0   30.50   17.50 
 -11   5   0   34.70    8.50 
  11  -5   0   45.80   17.70 
   5  11   0   28.10   10.20 
 -11   5   0   39.10   12.90 
  -2  12   0   52.09   17.90 
  12   2   0   30.10   11.40 
   2 -12   0   20.80   17.30 
  12   2   0   47.00   32.20 
  -2  12   0   25.00   19.90 
 -12  -2   0   48.10    9.80 
  -2  12   0    2.50   26.40 
   2 -12   0   16.40   11.40 
  -2  12   0   34.50   10.70 
  12   2   0   43.90   21.00 
  -2  12   0   74.19   26.80 
   0 -12   0  321.47   32.60 
   0  12   0  479.85   51.99 
   0  12   0  329.37   31.10 
 -12   0   0  311.97   52.69 
 -12   0   0  325.37   29.20 
   0 -12   0  330.07   32.40 
  12   0   0  342.57   33.20 
   0  12   0  364.46   44.80 
  12  -2   0  110.69   31.10 
 -12   2   0   22.40   14.40 
   2  12   0   28.70   15.70 
   2  12   0   42.80   19.70 
   2  12   0   34.20   10.90 
   2  12   0   54.79   20.10 
   2  12   0   36.50   19.90 
  -2 -12   0   32.60   10.90 
 -12   2   0   21.40    7.00 
  12  -2   0   22.80   11.30 
  -2 -12   0   27.60    9.90 
 -12   2   0   45.60   47.70 
  -1   0  -1   -0.30    1.20 
   0   1  -1    0.00    0.30 
   0  -1  -1    0.00    0.60 
   0   1  -1    1.70    1.30 
   0   1  -1    2.60    1.60 
   0   1  -1    0.50    0.50 
   0  -1  -1    2.60    1.30 
  -1   0  -1    0.60    0.40 
  -1   0  -1    1.00    0.60 
   0  -1  -1    0.70    0.60 
   0   1  -1    0.40    0.40 
   1   0  -1    0.30    0.80 
   1   0  -1    0.50    0.70 
   0  -1  -1    0.80    0.60 
   1   0  -1   -2.10    1.10 
  -1   0  -1    0.30    0.30 
   0   1  -1    1.30    1.20 
   1   0  -1    0.60    0.50 
   0  -1  -1    0.80    0.60 
   1   0  -1   -0.80    0.40 
   0  -1   1    0.00    0.50 
  -1   0   1    3.50    1.40 
   1   0   1   -0.10    0.20 
   1   0   1    0.10    0.30 
   0  -1   1    2.10    1.20 
   0  -1   1    0.90    1.10 
   0  -1   1    0.00    1.00 
   1   0   1   -0.60    1.20 
   0   1   1    0.20    0.90 
   0   1   1    1.20    0.80 
   1   0   1    1.50    1.80 
   0   1   1    2.20    0.80 
   0  -1   1    0.30    0.50 
  -1   0   1   -0.10    0.40 
   1   0   1    1.70    0.70 
  -1   0   1    1.10    1.70 
   0   1   1    1.10    0.60 
   0  -1   1   -0.10    0.20 
   1  -2  -1   15.20    3.40 
  -2  -1  -1   20.30    2.20 
  -1   2  -1   14.10    4.30 
  -1   2  -1   22.10    2.10 
   2   1  -1   13.70    5.30 
  -2  -1  -1   17.30    2.10 
  -2  -1  -1   11.00    5.00 
   2   1  -1   14.80    2.30 
  -2  -1  -1   14.50    4.40 
  -1   2  -1   15.90    5.60 
   1  -2  -1    7.20    3.90 
   2   1  -1   22.30    2.20 
  -2  -1  -1   15.90    2.40 
   2   1  -1   20.80    3.90 
   1  -2  -1   18.70    4.30 
   2   1  -1   18.40    2.60 
   1  -2  -1   14.40    3.80 
  -1   2  -1   11.90    3.10 
   1  -2  -1   19.70    4.90 
  -1   2  -1   16.40    2.80 
   1  -2   1   18.50    3.30 
   2   1   1   16.20    4.00 
   1  -2   1   20.40    2.00 
   2   1   1   20.60    6.30 
  -2  -1   1   22.60    5.10 
   2   1   1   14.60    2.00 
   1  -2   1   18.40    5.30 
   1  -2   1   17.50    2.50 
  -2  -1   1   17.20    5.80 
  -1   2   1   20.10    5.50 
   2   1   1   12.80    2.30 
  -2  -1   1   18.80    2.30 
  -2  -1   1   15.90    3.70 
  -2  -1   1   18.90    2.10 
   2   1   1   15.20    1.90 
  -2  -1   1   16.00    2.70 
  -1   2   1   19.10    3.70 
  -1   2   1   24.60    3.80 
  -1   2   1   15.40    3.30 
   1  -2   1   12.20    3.40 
  -1  -2  -1   18.80    2.70 
   1   2  -1   15.10    1.60 
  -1  -2  -1   16.00    2.30 
   2  -1  -1   23.40    6.60 
   1   2  -1   14.80    4.70 
  -2   1  -1   15.90    5.20 
   1   2  -1   14.90    2.00 
  -1  -2  -1   15.70    2.10 
  -1  -2  -1   14.90    4.50 
  -1  -2  -1   17.20    2.10 
   2  -1  -1   13.80    2.60 
   1   2  -1   14.50    4.40 
   2  -1  -1   15.00    3.90 
  -1  -2  -1   15.20    3.20 
  -2   1  -1   15.80    2.30 
  -1  -2  -1   11.60    3.50 
  -2   1  -1   10.10    4.50 
   1   2  -1   17.60    3.70 
   1   2   1   25.10    3.40 
   1   2   1   15.40    2.30 
   1   2   1   17.00    2.10 
   2  -1   1   10.40    4.20 
  -1  -2   1   13.80    2.50 
   1   2   1   20.70    2.60 
   2  -1   1   12.20    4.10 
  -1  -2   1   13.10    3.30 
   1   2   1   17.10    4.20 
  -2   1   1   10.40    4.00 
  -1  -2   1    9.90    3.50 
  -2   1   1   13.00    4.50 
   1   2   1    9.30    3.60 
  -2   1   1   14.10    2.40 
  -2   1   1   12.90    5.10 
  -1  -2   1   17.80    1.70 
   2  -1   1   16.50    2.40 
  -1  -2   1   15.30    2.00 
   3   2  -1   57.49    5.40 
   2  -3  -1   54.79   10.70 
   3   2  -1   52.29    8.50 
  -3  -2  -1   42.90   10.30 
  -3  -2  -1   59.19    5.20 
  -3  -2  -1   58.79    5.40 
   2  -3  -1   53.69   12.70 
   2  -3  -1   59.09    9.90 
  -3  -2  -1   58.89    6.00 
   3   2  -1   55.49    5.80 
  -3  -2  -1   39.40   11.10 
   2  -3  -1   73.39   12.40 
   3   2  -1   56.69    5.00 
  -2   3  -1   47.90    9.60 
  -2   3  -1   43.50    8.00 
  -3  -2  -1   62.49    8.00 
   3   2  -1   55.29   10.60 
  -2   3  -1   53.29    7.00 
   2  -3  -1   46.30    7.30 
  -3  -2   1   59.09    5.10 
   2  -3   1   54.49    6.00 
  -2   3   1   57.09    7.40 
   3   2   1   58.59    7.80 
  -3  -2   1   47.70    7.40 
  -3  -2   1   42.30    9.30 
  -2   3   1   52.19    7.50 
  -3  -2   1   53.49    5.40 
  -2   3   1   62.89    7.80 
   3   2   1   57.89    5.10 
  -3  -2   1   55.59    6.00 
   3   2   1   51.69   10.20 
   2  -3   1   54.29    5.60 
   2  -3   1   84.69   13.30 
   2  -3   1   44.70    9.90 
  -3  -2   1   48.40   11.60 
   3   2   1   58.19    5.40 
   3   2   1   57.69    5.80 
   2  -3   1   67.89    8.10 
   0  -3  -1    1.10    1.50 
   0  -3  -1   -2.90    1.90 
   0  -3  -1    0.20    1.50 
   0   3  -1    1.40    1.40 
   0  -3  -1    2.60    1.40 
   3   0  -1    0.20    1.20 
   3   0  -1   -2.00    4.10 
   3   0  -1   -0.20    2.30 
  -3   0  -1   -1.50    4.50 
  -3   0  -1   -0.70    3.00 
   0   3  -1    2.20    1.60 
   0   3  -1    6.10    3.60 
   0  -3  -1   -1.00    2.40 
   0   3  -1   -0.10    2.30 
   0   3  -1   -0.80    2.50 
   0  -3  -1    5.60    2.20 
  -3   0  -1    1.90    2.00 
   3   0  -1    3.40    1.60 
  -3   0  -1    1.80    0.90 
   0   3   1    1.90    2.40 
  -3   0   1    1.70    2.10 
   0   3   1   -0.40    0.90 
   0   3   1   -1.90    2.00 
  -3   0   1    1.80    3.20 
   0  -3   1   -1.60    2.60 
   3   0   1   -1.00    4.60 
  -3   0   1    2.30    3.50 
   0   3   1    2.10    2.50 
   0  -3   1    1.30    0.90 
   3   0   1    0.00    2.80 
   0   3   1    0.60    1.30 
   3   0   1   -0.10    1.40 
   0  -3   1   -0.20    2.60 
  -3   0   1    1.40    1.20 
   0  -3   1    0.90    1.40 
   0  -3   1   -0.10    1.20 
   0   3   1    0.00    1.10 
   3   0   1    0.80    1.00 
   2   3  -1   57.49    7.40 
  -2  -3  -1   61.39    6.10 
   3  -2  -1   94.99   14.10 
   2   3  -1   44.10    9.50 
  -2  -3  -1   58.09    5.30 
  -2  -3  -1   55.49   10.90 
  -3   2  -1   34.00   11.20 
  -3   2  -1   55.49   10.10 
   3  -2  -1   50.39    6.40 
  -3   2  -1   62.69   10.30 
   2   3  -1   58.39    5.40 
  -2  -3  -1   56.49    5.70 
  -3   2  -1   63.59    5.70 
  -2  -3  -1   55.39    7.10 
  -3   2  -1   59.89   10.00 
   2   3  -1   52.09    9.90 
  -2  -3  -1   49.10    9.40 
   2   3  -1   58.19    6.00 
   2   3  -1   54.89    4.90 
   2   3   1   62.09    6.30 
  -3   2   1   54.39   10.90 
  -2  -3   1   38.00    8.90 
   3  -2   1   68.99    6.20 
  -2  -3   1   56.29    9.20 
   2   3   1   58.49    5.20 
  -2  -3   1   62.79    6.30 
   3  -2   1  104.89   13.20 
   2   3   1   54.19    5.30 
  -2  -3   1   58.39    5.00 
   3  -2   1   64.39    9.70 
   2   3   1   58.29    6.00 
  -3   2   1   51.79   10.60 
  -3   2   1   63.39   13.80 
  -2  -3   1   58.49    5.60 
   2   3   1   39.00    8.90 
  -3   2   1   56.19    5.80 
  -3   2   1   63.19    8.10 
   2   3   1   86.99   10.50 
   2   3   1   65.19    7.60 
  -2  -3   1   58.19    7.60 
  -3   4  -1   29.60   10.70 
  -4  -3  -1    8.00    7.50 
  -4  -3  -1   11.70    3.50 
  -4  -3  -1   47.40   14.00 
  -3   4  -1   14.80    6.20 
   3  -4  -1   12.80    5.00 
  -3   4  -1   21.00    6.10 
   3  -4  -1   15.70    7.70 
   4   3  -1   16.80    8.60 
   3  -4  -1   22.10    8.70 
   4   3  -1   16.30    6.60 
   4   3  -1   13.70    2.90 
   4   3  -1   15.80    3.70 
  -4  -3  -1   11.20    5.40 
   3  -4  -1   54.79   13.60 
  -4  -3  -1   14.00    3.10 
   4   3  -1   12.30    4.90 
  -4  -3  -1   14.50    3.40 
   3  -4  -1    7.80   12.20 
  -3   4  -1   10.10    5.70 
   4   3  -1   21.20    3.80 
  -4  -3   1    1.60    6.50 
   3  -4   1   23.90   12.30 
  -3   4   1   26.20    9.60 
  -4  -3   1   14.00    3.90 
   3  -4   1   15.40    4.60 
   3  -4   1   13.50    8.50 
   3  -4   1   10.30    3.80 
   4   3   1   15.70    5.80 
  -3   4   1   18.70    6.30 
   4   3   1   13.70    3.40 
  -3   4   1   11.70    4.90 
   4   3   1   16.80    3.90 
  -3   4   1   32.10    7.60 
   4   3   1   10.50    2.60 
  -3   4   1   15.00    5.80 
   4   3   1    7.50    5.70 
  -4  -3   1   16.10    5.80 
  -4  -3   1   11.70    3.10 
   3  -4   1    9.60    5.50 
   4   3   1   13.10    7.60 
  -4  -3   1   12.00    8.90 
  -4  -3   1   15.60    3.00 
  -4  -1  -1  171.08   12.80 
   1  -4  -1  165.68   15.60 
   1  -4  -1  159.58   13.50 
  -1   4  -1  188.88   20.40 
  -1   4  -1  171.68   12.50 
  -4  -1  -1  129.09   18.10 
   1  -4  -1  175.28   16.80 
  -1   4  -1  166.98   14.30 
  -1   4  -1  169.28   19.50 
  -1   4  -1  156.58   17.30 
  -4  -1  -1  141.39   17.60 
   4   1  -1  156.18   12.90 
   4   1  -1  211.98   22.90 
  -4  -1  -1  164.08   14.00 
   4   1  -1  172.28   16.80 
  -1   4  -1  168.48   14.30 
   1  -4  -1  150.18   17.20 
   4   1  -1  174.38   14.70 
   4   1  -1  171.68   12.70 
  -4  -1  -1  166.38   12.70 
   1  -4  -1  170.98   17.10 
  -4  -1   1  157.08   17.20 
   1  -4   1  125.99   17.10 
  -1   4   1  162.18   13.90 
   1  -4   1  167.98   18.00 
  -4  -1   1  171.18   12.80 
  -1   4   1  171.88   14.40 
  -4  -1   1  125.79   16.60 
  -4  -1   1  154.38   14.10 
   4   1   1  160.48   12.60 
   4   1   1  173.38   13.70 
  -1   4   1  194.18   19.00 
   4   1   1  160.78   12.60 
  -1   4   1  150.18   15.80 
   1  -4   1  167.68   14.70 
  -1   4   1  166.98   17.50 
   1  -4   1  173.88   12.60 
  -4  -1   1  117.59   18.50 
   4   1   1  165.28   17.20 
  -4  -1   1  166.28   12.80 
   1  -4   1  176.08   15.70 
  -1   4   1  163.08   12.90 
   4   1   1  163.18   22.00 
   4  -1  -1  157.28   13.20 
   1   4  -1  197.68   16.90 
   1   4  -1  168.08   13.70 
  -1  -4  -1  165.78   12.50 
   1   4  -1  164.48   12.30 
  -1  -4  -1  153.68   14.80 
  -1  -4  -1  156.38   14.80 
   1   4  -1  151.88   17.60 
  -1  -4  -1  158.78   12.80 
   4  -1  -1  186.58   19.70 
  -4   1  -1  123.49   18.70 
   1   4  -1  147.59   17.60 
   4  -1  -1  137.59   12.80 
  -4   1  -1  125.39   16.20 
   1   4  -1  163.58   13.30 
  -1  -4  -1  144.59   17.10 
   1   4  -1  160.88   13.50 
  -1  -4  -1  168.18   14.30 
   4  -1  -1  142.79   14.10 
  -4   1  -1  174.18   12.80 
  -4   1   1  149.88   17.40 
   1   4   1  139.89   13.20 
  -4   1   1  167.58   12.70 
  -1  -4   1  157.68   15.50 
   1   4   1  174.78   13.60 
   1   4   1  172.08   13.20 
   1   4   1  171.18   12.50 
  -1  -4   1  152.18   12.40 
   1   4   1  148.29   16.10 
   4  -1   1  160.48   12.70 
   4  -1   1  164.58   15.00 
   1   4   1  148.39   16.70 
  -1  -4   1  160.88   16.10 
  -1  -4   1  162.18   11.90 
  -1  -4   1  152.28   17.10 
   1   4   1  169.88   15.80 
   4  -1   1  164.18   12.20 
  -4   1   1  167.88   19.70 
  -4   1   1  118.69   17.80 
   4  -1   1  219.68   20.90 
  -4   3  -1   39.60   10.80 
   4  -3  -1   14.00    4.80 
  -4   3  -1    6.80    6.60 
   3   4  -1   16.00    3.80 
   4  -3  -1   21.90   11.90 
  -3  -4  -1   15.40    3.60 
   3   4  -1   19.20    2.90 
   3   4  -1   12.20    3.10 
  -4   3  -1    7.30    8.60 
   4  -3  -1   51.69   12.20 
   3   4  -1   19.30    7.50 
  -3  -4  -1   10.90    2.80 
  -3  -4  -1    9.00    6.20 
  -4   3  -1   12.40    3.10 
  -3  -4  -1   12.00    7.20 
   3   4  -1   10.90    6.90 
   3   4  -1    9.40    4.40 
  -4   3  -1   22.10    7.40 
  -3  -4  -1   14.20    5.20 
  -3  -4  -1   12.40    3.70 
  -4   3   1   15.20   10.70 
  -4   3   1   19.00    5.70 
   3   4   1   12.90    5.00 
  -3  -4   1   10.80    3.20 
   4  -3   1   11.00    6.70 
  -3  -4   1    5.40    6.00 
  -4   3   1    7.00    7.00 
   3   4   1   11.20    2.80 
  -4   3   1   11.00    3.30 
   3   4   1   10.00    6.00 
   4  -3   1   31.80    5.30 
   3   4   1    9.10    5.80 
  -4   3   1    7.70    6.30 
  -3  -4   1   12.00    3.60 
   3   4   1   14.20    3.30 
   3   4   1   11.00    3.20 
   3   4   1   14.10    3.80 
  -3  -4   1   12.50    2.50 
  -3  -4   1   11.30    5.10 
  -3  -4   1   10.60    7.40 
   4  -3   1   22.80   11.30 
  -5  -4  -1  113.19   10.40 
   5   4  -1  101.59    9.80 
  -5  -4  -1  102.89   11.40 
   5   4  -1   91.39   15.60 
  -5  -4  -1   92.39   27.80 
  -5  -4  -1   80.39   19.10 
  -5  -4  -1  104.79    9.90 
   5   4  -1  128.89   11.60 
   4  -5  -1   56.39   22.50 
   4  -5  -1   66.99   16.50 
   5   4  -1  108.09   13.90 
   5   4  -1  103.39   18.20 
   4  -5  -1  167.18   14.50 
  -4   5  -1  111.19   14.60 
  -5  -4  -1   98.39   14.60 
  -4   5  -1  139.79   15.70 
   4  -5  -1  114.09   22.50 
  -4   5  -1  128.79   15.30 
   5   4  -1   97.39   10.40 
  -5  -4   1   99.39   15.00 
  -5  -4   1  122.59   10.00 
  -4   5   1  136.19   14.80 
  -4   5   1   97.19   12.50 
   5   4   1   99.59   18.00 
   5   4   1  104.29    9.60 
   5   4   1  104.09   16.70 
  -5  -4   1  102.69   11.70 
  -5  -4   1  109.09   10.40 
  -4   5   1  110.49   15.80 
   4  -5   1  125.39   17.10 
  -5  -4   1   98.69   20.40 
   4  -5   1  101.89   12.40 
   5   4   1  119.79   11.30 
  -4   5   1  122.79   15.40 
  -5  -4   1   76.99   21.30 
   5   4   1  113.79   10.40 
   5   4   1  112.39   15.20 
   4  -5   1  113.89   12.10 
   4  -5   1   62.49   21.60 
   5   2  -1   24.20    4.50 
  -2   5  -1   12.60    5.00 
   2  -5  -1   42.00   10.50 
  -5  -2  -1   12.90    8.00 
  -5  -2  -1   19.90    8.10 
  -5  -2  -1   16.50    3.40 
   2  -5  -1   23.70   10.20 
   5   2  -1   24.30    4.10 
  -2   5  -1   17.00    5.30 
   2  -5  -1   15.70    5.40 
  -2   5  -1   17.40    3.90 
   5   2  -1   22.50    4.60 
   2  -5  -1   16.20    5.00 
  -2   5  -1   39.00   13.30 
  -5  -2  -1   19.20    3.80 
   5   2  -1   22.20    7.00 
  -5  -2  -1    7.70   10.50 
  -5  -2  -1   19.90    4.90 
   2  -5  -1   24.10    7.70 
  -2   5  -1   25.30    8.40 
   5   2  -1   16.90    9.60 
  -2   5   1   15.70    5.90 
  -2   5   1   40.20   11.40 
   5   2   1   20.00    3.80 
  -5  -2   1   14.10    7.50 
   2  -5   1   24.30    6.40 
   2  -5   1   24.70    9.50 
  -5  -2   1   19.70    4.00 
   2  -5   1   20.90    4.00 
   5   2   1   24.30   11.30 
   2  -5   1   24.00    8.00 
   2  -5   1   16.70    4.90 
  -5  -2   1   20.70    3.60 
  -5  -2   1   19.20    5.00 
   5   2   1   23.50    4.60 
  -2   5   1   18.90    5.60 
  -5  -2   1   16.60   11.90 
   5   2   1   20.50    3.90 
  -5  -2   1   27.70    9.80 
   5   2   1   24.70    7.70 
   0  -5  -1   -0.60    4.90 
   0  -5  -1    0.50    1.80 
  -5   0  -1   -1.30    1.20 
   0   5  -1   -0.90    3.80 
   0   5  -1    3.40    5.10 
   0   5  -1    2.40    2.80 
  -5   0  -1    5.60    2.30 
   0  -5  -1   -2.90    2.30 
  -5   0  -1    1.00    8.10 
  -5   0  -1    5.70    7.80 
   0   5  -1    1.80    2.20 
   5   0  -1    0.30    4.30 
  -5   0  -1    2.40    3.00 
   5   0  -1    4.70    2.50 
   0   5  -1   -3.70    3.80 
   5   0  -1    0.90    2.20 
   0  -5  -1    1.10    4.20 
   5   0  -1    1.30    7.90 
   5   0  -1   -1.90    2.20 
   0  -5   1    1.20    5.20 
   5   0   1    1.60    2.10 
   0   5   1   -1.50    1.90 
   0   5   1    4.40    2.20 
   5   0   1   -0.70    1.80 
  -5   0   1   -1.30    6.40 
   0   5   1    6.10    4.80 
   0   5   1    0.40    3.70 
   0  -5   1   -1.00    1.40 
   0   5   1   14.40    6.50 
   0  -5   1    2.90    2.50 
   5   0   1    0.10    2.00 
  -5   0   1   10.80    8.00 
   5   0   1    6.80    5.90 
   5   0   1    3.30    6.30 
  -5   0   1    1.50    3.30 
   0  -5   1    1.20    5.70 
   5  -2  -1   17.30    4.80 
   5  -2  -1   37.70   12.90 
   5  -2  -1   15.30    4.80 
   2   5  -1   23.00    4.90 
  -2  -5  -1   18.00    3.60 
   5  -2  -1   12.30    5.40 
  -2  -5  -1   17.20    6.00 
  -2  -5  -1   21.90    4.40 
   2   5  -1   16.00    8.50 
   2   5  -1   17.50    6.30 
  -2  -5  -1   15.00    8.50 
  -5   2  -1   20.50   10.50 
   2   5  -1   22.90    3.90 
  -2  -5  -1   24.30    7.70 
  -5   2  -1   23.80   11.60 
   2   5  -1   14.10    7.60 
  -5   2  -1   15.00   10.20 
   2   5  -1   19.10    4.80 
  -5   2  -1   19.80    3.90 
   2   5   1   24.70    4.90 
  -5   2   1   35.50   11.40 
  -2  -5   1   25.10    9.10 
   5  -2   1   35.20   11.50 
  -5   2   1   23.20    4.10 
  -2  -5   1   18.60    3.90 
  -5   2   1   21.90   10.20 
   2   5   1   24.00    6.70 
  -2  -5   1   20.10    6.60 
  -5   2   1    6.60   11.00 
   5  -2   1   19.60    4.50 
   2   5   1   17.60    7.30 
   2   5   1   31.40    9.10 
   5  -2   1   23.70    6.80 
  -2  -5   1   18.20    3.20 
   2   5   1   25.50    5.20 
  -2  -5   1   19.10    7.50 
   2   5   1   23.60    4.10 
   4   5  -1  104.99    9.40 
  -4  -5  -1   85.39   19.40 
   5  -4  -1  112.69   12.50 
  -5   4  -1  183.58   25.50 
   4   5  -1  122.19   12.10 
   4   5  -1  105.69   11.20 
   4   5  -1   94.69   18.60 
   4   5  -1  104.79   18.50 
  -4  -5  -1  100.69   14.10 
  -4  -5  -1  111.49    9.90 
   4   5  -1   97.19   10.20 
   4   5  -1  114.89   14.00 
  -5   4  -1  115.69   10.50 
  -4  -5  -1  103.59   11.30 
  -4  -5  -1  109.59   10.50 
  -4  -5  -1  101.19   19.70 
  -5   4  -1  101.99   17.00 
  -5   4  -1  111.09   15.10 
  -5   4   1  107.59   16.60 
   4   5   1  105.29   11.70 
  -5   4   1  112.29   17.10 
  -4  -5   1  121.09   10.80 
   4   5   1   89.29   15.90 
  -5   4   1  116.59   10.90 
  -4  -5   1   86.09   18.50 
  -4  -5   1  108.49   11.70 
   4   5   1   90.19   16.30 
   4   5   1  111.99   10.30 
   4   5   1  110.69   10.50 
   4   5   1  111.09   11.30 
  -4  -5   1   93.39   23.30 
   4   5   1  134.69   15.50 
   5  -4   1  115.39   18.30 
  -4  -5   1  107.89    9.40 
  -4  -5   1   99.59   14.40 
   5  -4   1  102.59   11.70 
  -5   6  -1   23.70   12.50 
  -6  -5  -1   18.80    6.10 
   6   5  -1   16.20   11.90 
   5  -6  -1   28.90   15.80 
   5  -6  -1   52.49   23.00 
   6   5  -1   15.60    7.90 
  -6  -5  -1   16.70    4.60 
   5  -6  -1    9.60   11.90 
   6   5  -1   10.30    8.30 
  -5   6  -1   18.40   11.10 
   6   5  -1   21.00    5.90 
  -6  -5  -1   17.20    5.10 
  -5   6  -1   24.80    9.50 
  -5   6  -1   21.30    9.30 
   5  -6   1   27.10    8.80 
  -6  -5   1   24.20    5.70 
   5  -6   1   12.10    7.80 
  -5   6   1   17.40   11.50 
   6   5   1   25.40    6.30 
  -5   6   1   39.50   10.20 
   6   5   1   11.20   11.20 
  -6  -5   1   14.70    6.00 
  -5   6   1   48.00   13.80 
   5  -6   1   14.10   18.80 
   5  -6   1   61.89   22.30 
   6   5   1   23.60    9.00 
  -5   6   1   23.50    7.70 
   5  -6   1   21.30   10.30 
  -6  -5   1   21.40    4.80 
   3  -6  -1   18.60   17.10 
  -3   6  -1    5.30    4.80 
  -6  -3  -1    6.30    4.80 
  -6  -3  -1    2.80    2.70 
  -3   6  -1    0.10    5.20 
   6   3  -1    5.20    3.10 
  -6  -3  -1    2.50   11.90 
   6   3  -1    8.20    3.80 
  -3   6  -1    2.30    3.90 
   3  -6  -1    5.10    5.80 
  -6  -3  -1    2.20    7.90 
   3  -6  -1   10.50    9.70 
  -6  -3  -1   -2.30   10.50 
  -6  -3  -1    6.40    3.30 
   6   3  -1    5.10    3.50 
   3  -6  -1    9.00    6.00 
  -3   6   1    9.10    6.00 
  -6  -3   1   -0.70   13.50 
  -6  -3   1    7.00    4.00 
  -6  -3   1   13.60   11.40 
   3  -6   1   11.80    5.30 
   3  -6   1    7.70   10.60 
   6   3   1    2.90    9.40 
  -3   6   1    2.80    4.00 
  -6  -3   1    5.50    4.10 
   6   3   1    6.50    3.40 
  -3   6   1    5.70    5.90 
   6   3   1   14.80    7.30 
   3  -6   1    2.50    2.80 
   6   3   1    8.20    3.60 
  -6  -3   1    6.60    8.90 
   6   3   1    7.40    3.20 
  -3   6   1    7.60   14.70 
   3  -6   1   23.70   12.70 
  -6  -3   1    5.70    2.90 
  -6  -1  -1   45.40   14.40 
  -6  -1  -1   35.10    5.70 
   1  -6  -1   36.60    6.50 
   6   1  -1   48.70   16.20 
  -1   6  -1   35.00   13.10 
   6   1  -1   27.20    9.20 
  -6  -1  -1   26.70    6.80 
  -6  -1  -1   23.50   12.50 
   1  -6  -1   48.40   11.60 
  -6  -1  -1   31.80    5.10 
   1  -6  -1   39.80    9.10 
   6   1  -1   44.70    5.30 
   1  -6  -1   52.59   11.50 
  -1   6  -1   31.70    6.80 
   1  -6  -1   29.60   10.70 
  -1   6  -1   35.60    5.60 
  -1   6  -1   31.10   11.20 
   6   1  -1   35.20    6.50 
  -1   6  -1   32.40    6.60 
  -1   6  -1   41.40   11.50 
  -1   6   1   27.90    5.90 
   6   1   1   50.69   17.30 
   6   1   1   35.80    5.60 
  -6  -1   1   26.40   11.00 
  -1   6   1   39.60    5.90 
   1  -6   1   34.80    5.60 
   6   1   1   36.50    6.60 
  -6  -1   1   35.80   12.60 
   6   1   1   28.70    5.20 
  -1   6   1   68.79   12.80 
  -6  -1   1   20.80   13.00 
  -6  -1   1   34.80    5.50 
  -6  -1   1   37.20    5.70 
  -1   6   1   28.80    7.70 
  -1   6   1   46.00   12.30 
   1  -6   1   22.70   10.30 
  -1   6   1   31.40   10.50 
  -6  -1   1   33.30    7.50 
   1  -6   1   23.90    7.50 
   6   1   1   52.89   12.30 
   1   6  -1   36.90    5.30 
  -6   1  -1   35.20   16.50 
  -1  -6  -1   26.00    5.10 
  -6   1  -1   29.90   10.20 
  -1  -6  -1   27.70   11.90 
   6  -1  -1   33.20    6.10 
  -1  -6  -1   34.20    7.50 
   6  -1  -1   44.90   12.70 
  -1  -6  -1   32.90    7.90 
  -6   1  -1   21.20   12.70 
   6  -1  -1   43.10   18.60 
   6  -1  -1   36.60    7.30 
   1   6  -1   31.90    6.20 
   1   6  -1   30.00    6.30 
   1   6  -1   35.90    7.00 
   1   6  -1   30.40   10.60 
  -1  -6  -1   31.40    8.40 
   6  -1  -1   30.70    5.80 
   1   6  -1   26.00    9.60 
  -1  -6  -1   47.00    6.90 
   1   6  -1   31.40   11.60 
  -6   1  -1   31.90    5.50 
   1   6   1   31.20    5.90 
  -1  -6   1   32.60    7.20 
   6  -1   1   40.30   14.50 
  -1  -6   1   41.00   11.40 
  -1  -6   1   33.70    9.70 
  -1  -6   1   27.80    8.20 
   1   6   1   40.30   10.90 
  -6   1   1   34.20   15.90 
  -1  -6   1   33.50    4.80 
   6  -1   1   31.50    7.00 
  -1  -6   1   35.70    5.60 
   6  -1   1   37.60    6.10 
   1   6   1   21.80    8.20 
   1   6   1   38.30    7.30 
  -6   1   1   27.90   11.70 
  -6   1   1   28.70    5.20 
  -6   1   1    3.60    8.40 
   6  -1   1   49.00   18.20 
   6  -1   1   30.40    5.20 
   1   6   1   36.60    5.30 
  -3  -6  -1   12.50   10.10 
   6  -3  -1    7.50    6.00 
   6  -3  -1   22.30   14.50 
   3   6  -1    8.30    3.20 
  -3  -6  -1    3.60    7.10 
  -6   3  -1    4.20   12.00 
   6  -3  -1    6.30    5.80 
   3   6  -1    3.90    3.10 
  -6   3  -1   -4.90   12.10 
   3   6  -1    7.40    8.40 
   3   6  -1    3.40    3.80 
  -6   3  -1    3.60    6.10 
  -3  -6  -1    4.00    2.70 
  -6   3  -1    6.10   10.20 
  -6   3  -1    5.30    3.20 
  -3  -6  -1    5.70    5.90 
   3   6  -1    7.40    8.20 
  -3  -6   1    4.20    3.40 
  -6   3   1    2.60   12.20 
   6  -3   1   12.10    4.30 
   6  -3   1   11.60    7.10 
   3   6   1    8.40    3.80 
   6  -3   1    9.70   10.60 
   3   6   1    4.10    5.60 
   6  -3   1    8.80    4.70 
  -3  -6   1    7.30    6.10 
  -3  -6   1   11.40    3.20 
  -3  -6   1    9.90    3.60 
  -6   3   1    8.50   11.10 
   3   6   1    6.00    4.00 
   3   6   1    8.00    6.90 
  -3  -6   1    7.00    9.60 
  -6   3   1   12.70    6.20 
  -6   3   1    2.70    8.10 
   3   6   1   22.00    4.80 
  -5  -6  -1   21.60    5.70 
  -6   5  -1   19.40    5.10 
   5   6  -1   19.30   11.40 
  -6   5  -1   43.70   16.80 
  -5  -6  -1   18.10    5.90 
   6  -5  -1   29.10   16.30 
   6  -5  -1   46.50   16.20 
  -5  -6  -1   20.10    4.70 
   5   6  -1   13.90   11.30 
  -5  -6  -1   17.10   13.60 
   5   6  -1   20.00    8.20 
   5   6  -1   23.30    4.80 
   5   6  -1   17.30    5.70 
  -5  -6   1   23.80    6.70 
  -5  -6   1   18.70    4.20 
  -6   5   1   16.80   10.50 
  -6   5   1   19.00    4.80 
  -6   5   1   26.70    7.50 
  -6   5   1   48.60   15.80 
   5   6   1   18.30    5.60 
   5   6   1   21.00    9.00 
   5   6   1   19.90   10.70 
   6  -5   1   61.19   20.00 
  -5  -6   1   15.60    4.60 
   6  -5   1   23.30   13.30 
   6  -5   1   75.69   16.00 
  -6   7  -1  -10.80    8.50 
  -6   7  -1   -0.80    9.30 
   7   6  -1    2.50    4.30 
  -6   7  -1    2.60    7.00 
   6  -7  -1    8.60   13.10 
  -7  -6  -1   -5.30    4.90 
   7   6  -1   -8.40   10.40 
  -7  -6  -1    5.60    4.10 
   6  -7  -1   13.50   15.10 
   7   6  -1   -2.40    6.50 
  -7  -6  -1    1.50    4.10 
   6  -7  -1    0.30   21.20 
   7   6  -1   -3.20    8.60 
  -6   7   1    1.20    5.50 
  -7  -6   1    4.90    5.90 
   7   6   1    3.30    4.70 
   7   6   1    6.90   10.60 
   7   6   1    5.50    8.60 
   6  -7   1    6.60    8.00 
  -7  -6   1   -4.80    3.70 
   6  -7   1   -8.40   23.50 
   6  -7   1   -4.20    9.70 
  -6   7   1   -6.70    7.30 
  -6   7   1    2.00    9.90 
   7   4  -1  157.48   19.70 
  -7  -4  -1  154.08   16.10 
  -7  -4  -1  137.99   13.70 
   7   4  -1  139.29   26.60 
  -4   7  -1  159.38   17.40 
  -7  -4  -1  126.59   12.90 
   4  -7  -1  126.99   19.80 
   4  -7  -1  127.59   25.80 
   4  -7  -1   97.59   33.10 
  -4   7  -1  127.39   18.80 
   7   4  -1  142.29   14.30 
   4  -7   1  132.69   14.40 
   4  -7   1   64.89   25.40 
  -7  -4   1  137.59   13.60 
  -4   7   1  151.78   18.60 
  -7  -4   1  144.49   16.00 
   7   4   1  148.79   20.00 
  -4   7   1  138.59   15.60 
  -4   7   1  149.99   17.50 
   4  -7   1  166.68   17.00 
  -7  -4   1  126.59   12.70 
   7   4   1  170.18   27.70 
   4  -7   1  140.69   20.60 
   7   4   1  130.89   14.10 
  -2   7  -1  150.68   13.20 
   2  -7  -1  100.49   15.40 
   2  -7  -1  149.49   15.20 
   7   2  -1  130.79   13.70 
  -2   7  -1  143.69   15.10 
   7   2  -1  198.08   30.10 
  -7  -2  -1  149.79   15.70 
   2  -7  -1  121.19   18.00 
   7   2  -1  159.78   20.20 
  -7  -2  -1  113.19   13.40 
  -7  -2  -1  129.59   12.70 
   2  -7  -1  169.48   21.40 
  -7  -2  -1  116.19   27.30 
   2  -7  -1  134.19   24.90 
  -2   7  -1  135.89   25.90 
  -2   7   1  143.89   23.80 
   2  -7   1  178.38   23.50 
   2  -7   1  143.19   17.70 
   2  -7   1  139.29   14.20 
  -7  -2   1  145.39   13.00 
   7   2   1  150.78   19.80 
  -7  -2   1  116.69   22.30 
   2  -7   1  148.59   21.10 
  -2   7   1  126.49   17.50 
   2  -7   1  118.99   14.70 
  -7  -2   1  148.09   12.90 
  -7  -2   1  118.89   15.50 
  -2   7   1  142.29   13.30 
  -2   7   1  151.38   14.60 
   7   2   1  189.88   30.40 
   7   2   1  138.89   13.10 
   7   2   1  139.19   14.00 
   7   0  -1    6.50    7.70 
   7   0  -1    8.20    4.30 
   0   7  -1   -1.30    4.00 
  -7   0  -1   -1.20    2.40 
   7   0  -1   -2.20    3.40 
   0   7  -1    7.90    8.00 
   0   7  -1   -0.30    6.40 
   0   7  -1    3.20    3.50 
   0  -7  -1    0.90    3.00 
   0   7  -1    4.40    3.00 
   0  -7  -1    4.90    8.10 
   7   0  -1   -0.10    9.30 
   0  -7  -1   -1.90    3.70 
  -7   0  -1   -9.90    4.90 
   7   0   1    3.40    7.70 
   0   7   1    0.80    3.30 
   0   7   1    1.50    4.50 
   0   7   1    3.10    3.10 
   0  -7   1    1.00    4.00 
  -7   0   1    1.20    8.50 
   0   7   1    1.30    4.40 
   0  -7   1    3.20    2.90 
   7   0   1    6.00   12.90 
  -7   0   1    8.20    3.20 
   0  -7   1   -9.00    8.80 
   0   7   1    9.50    7.90 
  -7   0   1   -1.50    6.00 
   7   0   1   -0.40    3.60 
   0   7   1    6.70    7.70 
   0   7   1    8.50    8.00 
   2   7  -1  130.99   22.30 
   2   7  -1  148.69   13.70 
   2   7  -1  127.19   14.00 
   2   7  -1  145.19   21.30 
  -7   2  -1  125.89   12.10 
   2   7  -1  130.39   18.10 
  -2  -7  -1  136.29   12.20 
  -7   2  -1  100.79   24.30 
  -2  -7  -1  121.39   16.20 
  -2  -7  -1  128.29   12.80 
   7  -2  -1  119.09   14.50 
   7  -2  -1  109.49   13.20 
  -7   2   1   80.49   23.60 
  -2  -7   1  123.09   12.30 
  -7   2   1  135.29   12.30 
   2   7   1  131.29   18.20 
   7  -2   1  118.39   15.00 
   2   7   1  136.49   19.20 
  -2  -7   1  131.69   11.20 
   2   7   1  137.19   13.10 
   2   7   1  117.29   18.50 
   7  -2   1  126.59   12.10 
   2   7   1  140.39   14.40 
  -2  -7   1  122.39   17.20 
  -7   4  -1  123.09   12.40 
  -4  -7  -1  136.89   14.50 
   4   7  -1  137.19   14.50 
  -4  -7  -1  136.59   21.00 
  -7   4  -1  144.29   22.00 
  -7   4  -1   93.09   28.70 
   4   7  -1  152.48   18.90 
  -4  -7  -1  140.09   12.50 
   4   7  -1  113.29   22.40 
   4   7  -1  106.89   22.60 
  -4  -7  -1  126.69   13.00 
   4   7   1  121.49   14.00 
  -4  -7   1  132.99   13.20 
  -4  -7   1  138.39   14.70 
  -7   4   1  137.59   12.90 
  -4  -7   1  129.99   11.70 
   4   7   1  149.39   19.30 
   4   7   1  109.69   19.70 
  -7   4   1  123.39   16.10 
   7  -4   1  112.19   13.50 
   4   7   1  144.79   21.70 
  -7   4   1  203.98   34.80 
   6   7  -1    5.90   11.40 
   7  -6  -1    7.20   14.10 
  -6  -7  -1    0.60    5.10 
   6   7  -1    0.70    4.40 
  -7   6  -1    0.80    4.10 
  -6  -7  -1    0.40    3.80 
   7  -6  -1    6.70   13.70 
   7  -6  -1   -8.90   13.70 
  -7   6  -1    1.60   13.90 
   6   7  -1    0.80    7.10 
  -7   6  -1    2.80    6.50 
   6   7  -1    0.00    8.90 
  -6  -7  -1    6.40    5.00 
   6   7   1    2.80   10.30 
   6   7   1    3.00    8.30 
   6   7   1   -7.30    8.00 
  -7   6   1   -1.40    4.60 
  -6  -7   1    4.10    5.60 
  -7   6   1    7.80   11.60 
   7  -6   1    4.00   19.10 
   7  -6   1    3.40   11.00 
  -7   6   1   -3.10    7.10 
  -6  -7   1   -1.20    3.80 
   7  -6   1   22.00   14.00 
  -6  -7   1    1.10    3.30 
   6   7   1    0.00    4.60 
  -8  -7  -1   65.39   10.90 
  -8  -7  -1   85.29   15.00 
   8   7  -1   56.09   11.70 
  -7   8  -1  144.99   23.60 
  -7   8  -1  117.59   24.60 
   8   7  -1   85.39   26.70 
  -7   8  -1   78.39   15.90 
   7  -8  -1  122.89   56.29 
   7  -8  -1  104.49   31.70 
  -8  -7  -1   65.19   11.80 
   7  -8  -1   93.99   21.90 
   8   7  -1   68.19   18.20 
   7  -8   1   70.79   15.60 
  -7   8   1  130.69   20.30 
   7  -8   1   69.59   23.70 
   8   7   1   69.59   18.60 
  -7   8   1   71.79   14.20 
   8   7   1   56.09   21.10 
  -8  -7   1   77.09   12.10 
  -8  -7   1   64.99   10.30 
   8   7   1   79.29   13.10 
  -8  -7   1   97.09   15.70 
   7  -8   1  152.58   40.60 
  -8  -5  -1   67.59   10.20 
   8   5  -1   49.30    9.80 
   5  -8  -1   43.40   34.60 
  -5   8  -1  117.59   25.70 
  -8  -5  -1   66.99    9.50 
  -8  -5  -1   64.69   12.10 
  -5   8  -1   60.59   14.10 
   8   5  -1   57.99   15.30 
   5  -8  -1   68.29   22.00 
   8   5  -1   70.79   23.70 
  -5   8  -1   57.69   12.10 
   5  -8  -1   40.90   13.60 
  -5   8   1   51.49   14.90 
  -8  -5   1   54.99    9.20 
   5  -8   1  -14.20   27.00 
  -5   8   1   63.89   11.60 
   5  -8   1   71.99   18.90 
  -5   8   1  115.69   23.60 
   8   5   1   63.39   21.10 
  -8  -5   1   48.50    8.50 
   8   5   1   59.69   15.40 
   8   5   1   50.99    9.60 
  -5   8   1   61.79   12.90 
  -8  -5   1   50.79   12.00 
   3  -8  -1   -1.50   16.50 
  -3   8  -1    7.00    7.90 
  -8  -3  -1    4.50    3.80 
   3  -8  -1   21.00   11.50 
   3  -8  -1    7.30    5.90 
   8   3  -1    3.80    4.20 
  -8  -3  -1   -0.20    5.40 
   8   3  -1    4.10    7.50 
   8   3  -1   11.50   14.40 
  -3   8  -1    9.00   19.00 
  -3   8  -1    2.30    5.10 
  -3   8  -1   22.70   15.50 
  -8  -3  -1    2.90    3.90 
  -3   8   1   17.40   15.00 
  -8  -3   1    1.00    3.30 
   3  -8   1    5.80    4.70 
  -3   8   1    0.50    4.60 
   3  -8   1    9.00   13.30 
   8   3   1    4.50   13.10 
  -3   8   1    7.70    7.00 
  -3   8   1   15.10   11.70 
  -8  -3   1    8.80    4.10 
   8   3   1    0.80    7.80 
  -8  -3   1   -5.80    5.50 
   3  -8   1    2.90    6.60 
   8   3   1    4.90    4.70 
   3  -8   1   -7.60    7.70 
  -8  -1  -1   85.59    9.00 
   8   1  -1   79.49   10.60 
  -1   8  -1   69.09    8.80 
   8   1  -1  131.19   31.90 
   8   1  -1   77.69   17.10 
  -1   8  -1   68.89   10.50 
  -8  -1  -1   81.59   14.50 
  -8  -1  -1   54.59    9.10 
  -1   8  -1   80.99   18.20 
   1  -8  -1   77.09   11.50 
  -1   8  -1  104.79   22.60 
   1  -8  -1   76.79   15.70 
  -1   8  -1   76.19   22.20 
  -1   8   1   98.29   18.90 
  -1   8   1   59.69   14.70 
   8   1   1  119.59   30.40 
  -8  -1   1   76.09    9.30 
  -1   8   1  107.19   21.20 
  -1   8   1   69.09   10.10 
   1  -8   1   74.69   12.60 
  -8  -1   1   55.49   17.90 
  -8  -1   1   79.39   15.40 
   8   1   1   76.19   10.60 
   8   1   1   85.69   18.60 
   8  -1  -1  110.89   22.40 
  -1  -8  -1   65.49   10.10 
   1   8  -1   71.39   12.10 
   1   8  -1   54.99   16.10 
  -1  -8  -1   79.49   12.80 
   1   8  -1   85.69   20.30 
  -8   1  -1   63.29    9.40 
  -1  -8  -1   64.09   11.30 
   1   8  -1   72.49   10.10 
   1   8  -1   84.49   19.30 
   8  -1  -1   82.89   11.50 
  -8   1  -1   57.79   16.50 
   8  -1  -1  149.39   34.80 
  -8   1   1   73.29   19.60 
   1   8   1   88.69   18.00 
  -8   1   1   71.29    8.90 
   1   8   1   67.59   16.20 
   1   8   1   67.19    9.70 
   1   8   1   89.09   16.70 
   1   8   1   86.39   12.60 
  -1  -8   1   76.39    9.40 
  -1  -8   1   72.19    8.70 
   8  -1   1   75.79   10.10 
   8  -1   1   85.39   12.10 
   8  -1   1  122.79   24.50 
   8  -3  -1   12.40   14.00 
   3   8  -1   11.40   11.30 
  -8   3  -1    9.90    9.00 
   3   8  -1    7.80    7.70 
   3   8  -1    3.70    4.50 
  -3  -8  -1   15.10    9.40 
  -3  -8  -1   12.70    5.10 
   3   8  -1    6.40    4.90 
  -8   3  -1   -0.50    3.50 
   3   8  -1   14.70   10.00 
   8  -3  -1    4.30    6.20 
  -3  -8  -1   15.60    5.40 
  -8   3  -1   11.00   19.30 
  -8   3   1    6.20    3.90 
   3   8   1    6.30    4.40 
   3   8   1    4.80    9.10 
  -3  -8   1    6.70    3.50 
   8  -3   1    8.20    5.00 
   3   8   1    8.40    7.00 
   8  -3   1   17.70   12.90 
   3   8   1   -2.20    4.50 
  -8   3   1    5.10    7.00 
  -3  -8   1    4.60    4.30 
  -8   3   1    7.30   20.50 
   8  -3   1   -0.10    6.10 
   3   8   1    4.70    7.80 
  -5  -8  -1   61.09    9.20 
  -5  -8  -1   59.69   11.00 
   5   8  -1   74.29   11.80 
   5   8  -1   44.40   18.20 
   5   8  -1   40.60   13.00 
  -8   5  -1   54.69   27.70 
  -8   5  -1   47.70   12.70 
   8  -5  -1  131.49   21.90 
   8  -5  -1  151.28   31.80 
  -8   5  -1   49.90    8.20 
   5   8  -1   48.60   17.60 
  -5  -8  -1   49.50    9.60 
  -5  -8   1   47.30   10.40 
   8  -5   1  112.79   27.40 
  -8   5   1   72.09   12.80 
   5   8   1   54.69   16.40 
  -5  -8   1   52.59    7.90 
   5   8   1   59.39   14.40 
   8  -5   1   38.80   10.00 
   8  -5   1  133.09   23.60 
  -5  -8   1   55.39    9.70 
  -8   5   1   88.29   25.30 
   5   8   1   55.19   10.50 
  -8   5   1   62.09    9.20 
   5   8   1   44.00   16.20 
  -7  -8  -1   88.19   14.60 
   8  -7  -1  169.18   36.30 
  -7  -8  -1   65.79   10.50 
   7   8  -1   79.19   19.70 
  -8   7  -1   75.89   14.80 
   7   8  -1   92.99   14.30 
  -8   7  -1  134.99   22.10 
  -7  -8  -1   64.39   12.00 
  -8   7  -1  161.78   28.40 
   7   8  -1   57.39   19.70 
   8  -7  -1  191.88   38.40 
   7   8  -1   54.19   20.00 
  -7  -8   1   67.89   12.30 
   7   8   1   55.59   17.60 
   7   8   1   69.29   19.70 
  -7  -8   1   68.19   13.60 
  -8   7   1   85.39   14.80 
   7   8   1   66.39   12.70 
  -8   7   1  123.89   22.80 
   8  -7   1  115.99   27.40 
   7   8   1   55.69   18.90 
   8  -7   1  154.58   22.80 
  -7  -8   1   83.09   10.30 
  -8   9  -1    6.20   15.20 
   9   8  -1   13.60    9.00 
   8  -9  -1   -2.50   17.30 
   8  -9  -1    9.10   30.80 
  -9  -8  -1    2.30    6.80 
  -9  -8  -1   11.00    6.30 
   9   8  -1   22.10   22.10 
  -8   9  -1   -7.60   12.40 
   8  -9  -1    8.80   25.90 
   9   8  -1    0.00   13.30 
  -8   9  -1    6.60    9.00 
  -8   9   1    9.70   15.10 
   8  -9   1   19.90   36.00 
  -8   9   1    4.80    7.30 
   9   8   1    2.80   12.90 
  -9  -8   1   -4.40    6.50 
  -8   9   1    1.30   13.40 
  -9  -8   1   13.90   12.30 
   8  -9   1    2.00   18.40 
   8  -9   1   -7.90   11.10 
   9   8   1  -11.90   16.60 
   9   6  -1    6.40   16.80 
   6  -9  -1    3.70   13.10 
  -6   9  -1    7.30    8.70 
   9   6  -1    5.50    6.60 
   9   6  -1    1.60    9.30 
  -9  -6  -1   15.40    7.30 
  -9  -6  -1   -0.60    4.80 
  -9  -6  -1    1.90    8.30 
   6  -9  -1  -27.60   41.60 
  -6   9  -1   21.60   11.60 
  -6   9   1    4.10    7.30 
  -9  -6   1   -0.40    5.20 
   9   6   1   -5.90    6.10 
   9   6   1   12.30   11.60 
  -9  -6   1    1.20    5.10 
  -9  -6   1   -4.50    8.90 
  -6   9   1    0.60   11.50 
   6  -9   1  -15.00   35.20 
   6  -9   1    2.50    8.30 
   6  -9   1   -9.30   13.20 
   9   6   1   15.40   15.20 
  -6   9   1   -8.80    7.00 
  -4   9  -1   -5.70    7.00 
  -4   9  -1   17.20   16.00 
   4  -9  -1    2.50    7.60 
  -4   9  -1    8.00   22.10 
  -9  -4  -1   -3.60    3.90 
   9   4  -1    0.30    4.80 
   4  -9  -1   -8.10   12.90 
   4  -9  -1    5.00   29.50 
   9   4  -1    2.80    8.90 
  -9  -4  -1   -6.80    6.60 
  -9  -4  -1    2.10    4.30 
   9   4  -1  -10.90   14.20 
   9   4   1    2.30   16.10 
  -4   9   1    2.30    6.50 
  -9  -4   1   -4.60    4.10 
  -4   9   1    5.80    5.70 
   9   4   1   -4.70    8.50 
   4  -9   1   -5.80    8.70 
   9   4   1   -7.90    4.40 
  -9  -4   1   -3.90    3.80 
  -4   9   1    9.70   12.80 
   4  -9   1    2.50    5.20 
  -9  -4   1   -0.70   11.60 
   9   2  -1    2.60    8.50 
   2  -9  -1   10.10   17.50 
   2  -9  -1    3.70    9.20 
   9   2  -1    8.50    5.10 
  -9  -2  -1   18.60    5.30 
   2  -9  -1    3.60    5.50 
  -2   9  -1   -1.40    7.60 
  -2   9  -1   12.60   13.50 
  -2   9  -1  -11.10   13.20 
  -2   9  -1    0.80    5.30 
  -9  -2  -1    6.80    4.50 
   9   2  -1    9.20   13.30 
  -9  -2  -1   -0.90    7.30 
  -2   9   1    1.40    4.80 
  -9  -2   1    4.80    4.70 
  -9  -2   1    0.50    4.00 
   2  -9   1    6.50    7.50 
   9   2   1    9.30    9.80 
  -2   9   1    0.70   11.70 
  -2   9   1    9.30    8.80 
   9   2   1   11.50   14.00 
   9   2   1    6.50    5.00 
  -2   9   1   12.90   12.60 
  -9  -2   1    6.10    8.30 
   2  -9   1    1.40   12.60 
   2  -9   1    3.70    5.20 
   0   9  -1    3.30    7.10 
   0   9  -1    9.00   11.00 
   0   9  -1   -1.00   11.90 
   0   9  -1    2.50    4.80 
   0   9  -1    1.30    9.10 
  -9   0  -1   -3.00    3.70 
  -9   0  -1   -6.50   10.70 
   9   0  -1   -0.60    4.40 
   0  -9  -1   14.30    5.90 
   9   0  -1   -3.60    8.60 
   9   0  -1    5.60   18.70 
   0  -9  -1    5.80    6.60 
   0   9   1    4.20   10.60 
   0   9   1   -0.60    4.30 
   0  -9   1   -4.50    4.40 
  -9   0   1    5.20   10.30 
   0  -9   1    3.90    5.20 
  -9   0   1   -0.40    3.80 
   9   0   1   37.90   16.20 
   0   9   1    2.80    8.80 
   0   9   1    1.50    8.10 
   9   0   1   -4.30    5.00 
   0  -9   1    1.50    5.70 
   9   0   1    7.70   17.60 
   2   9  -1   -1.70   10.20 
   2   9  -1    3.30    6.40 
   2   9  -1    3.40    8.50 
  -9   2  -1    3.10    4.10 
   9  -2  -1    6.50   19.40 
  -2  -9  -1   11.20    5.10 
   2   9  -1    5.40   10.30 
   2   9  -1    8.80    5.60 
  -9   2  -1    6.70   19.40 
   9  -2  -1   16.80   14.50 
  -2  -9  -1    5.70    4.90 
   9  -2  -1    1.50    5.50 
   2   9   1   -1.30    7.60 
  -9   2   1   -1.70    3.70 
  -2  -9   1    6.40    4.80 
  -9   2   1   -2.50   19.10 
   2   9   1   -1.10    8.90 
   2   9   1    2.80    5.70 
   9  -2   1   16.20    7.40 
  -2  -9   1    2.80    4.00 
   2   9   1    6.00    9.20 
   2   9   1    0.30    4.30 
   4   9  -1    7.10   14.30 
   4   9  -1   -0.50    9.00 
  -9   4  -1    3.00    4.00 
   4   9  -1   14.10   12.20 
   9  -4  -1  -10.90    7.70 
   4   9  -1    0.10    9.00 
  -4  -9  -1   -3.00    3.90 
  -9   4  -1    5.20    7.90 
   4   9  -1   -6.80    4.60 
  -4  -9  -1   -4.30    4.70 
  -9   4  -1   29.70   30.10 
   9  -4  -1    0.80   12.60 
  -9   4   1    1.20    6.20 
  -4  -9   1   -5.00    3.90 
   4   9   1   -0.50    4.70 
   9  -4   1   -4.90   13.30 
  -9   4   1   -0.40    3.90 
   9  -4   1   10.80    8.90 
   4   9   1    1.50   10.00 
   4   9   1    9.50    9.40 
  -4  -9   1    0.10    3.90 
   4   9   1   -2.30    8.90 
   4   9   1   -3.40    5.80 
  -9   4   1    1.30   23.50 
  -9   6  -1   -0.30    4.50 
   6   9  -1    0.30   11.20 
   9  -6  -1    7.60   13.50 
  -9   6  -1   -0.30    8.20 
   9  -6  -1   17.80   22.20 
  -6  -9  -1   -4.20    4.60 
   6   9  -1   -3.70    6.70 
   6   9  -1   -6.90   14.00 
  -9   6  -1   34.30   24.80 
  -9   6   1   12.20   19.40 
   9  -6   1    9.60   15.30 
   6   9   1    1.80   10.20 
  -9   6   1    2.20    6.80 
   9  -6   1   16.60   18.60 
  -6  -9   1    2.50    4.30 
   6   9   1    2.00   12.90 
  -6  -9   1   -3.00    5.90 
  -9   6   1   -0.90    4.50 
   6   9   1    1.80    6.90 
   8   9  -1    3.20   18.30 
   9  -8  -1  -16.40   21.80 
   8   9  -1    0.30   12.20 
   9  -8  -1  -26.50   21.90 
   8   9  -1   -5.00   15.00 
   8   9  -1   12.40    9.50 
  -8  -9  -1   -1.70    6.20 
  -9   8  -1   -1.00   19.10 
  -9   8  -1   -4.90   11.80 
  -8  -9  -1    4.00    6.80 
   9  -8  -1    8.00   18.10 
  -9   8  -1   -1.30    8.60 
  -8  -9   1   16.80   12.00 
   8   9   1   12.20   13.30 
   9  -8   1    6.00   25.50 
   9  -8   1  -10.50   19.70 
   9  -8   1   -6.70   14.60 
  -8  -9   1   -4.20    6.20 
  -8  -9   1   -5.20    5.30 
  -9   8   1   -5.30   11.90 
  -9   8   1   -1.30    7.90 
  -9   8   1   -0.90   15.40 
 -10  -7  -1   16.20   15.30 
  -7  10  -1   24.40   14.50 
 -10  -7  -1   16.70    7.50 
  -7  10  -1    9.80   12.40 
  10   7  -1   21.40   10.60 
  -7  10  -1   61.79   23.10 
   7 -10  -1   26.30   17.90 
  10   7  -1   15.10   13.80 
 -10  -7  -1   15.80    8.00 
   7 -10  -1   -4.00   42.10 
  10   7  -1   33.70   25.20 
   7 -10  -1    1.50   23.40 
  -7  10   1   51.19   14.40 
  -7  10   1   49.30   17.90 
  -7  10   1   22.70   11.70 
  10   7   1   13.70   10.30 
   7 -10   1   16.40   12.40 
  10   7   1    4.40   22.80 
 -10  -7   1   24.60    8.40 
   7 -10   1   75.59   52.59 
 -10  -7   1   25.60    8.50 
 -10  -7   1   19.30   13.60 
   7 -10   1   36.10   23.00 
   5 -10  -1   31.90   23.30 
  10   5  -1   61.39   26.90 
  -5  10  -1   62.59   16.80 
 -10  -5  -1   42.20   14.10 
  10   5  -1   57.09   17.10 
  -5  10  -1   44.20   12.00 
  -5  10  -1  112.59   27.30 
   5 -10  -1   34.70   14.80 
   5 -10  -1   63.39   50.09 
  -5  10  -1   98.59   37.00 
  10   5  -1   52.49   11.20 
   5 -10   1   48.80   11.70 
 -10  -5   1   30.60    8.50 
 -10  -5   1   59.39   15.40 
  -5  10   1  102.09   31.60 
  10   5   1   61.29   11.50 
   5 -10   1   26.10   16.40 
  10   5   1   47.40   19.90 
  -5  10   1   80.79   22.30 
  -5  10   1   52.39   13.70 
   5 -10   1  -28.80   39.20 
 -10  -5   1   41.20    8.90 
  -3  10  -1    1.30    7.00 
  -3  10  -1  -14.60   16.80 
  10   3  -1    3.90    6.10 
 -10  -3  -1    0.70    9.30 
 -10  -3  -1   -6.40    4.60 
  10   3  -1   -8.50    8.90 
   3 -10  -1   12.30   13.30 
 -10  -3  -1   -2.40    4.40 
  10   3  -1    8.00   19.10 
   3 -10  -1  -20.20   28.50 
  -3  10  -1   -6.70   14.60 
  -3  10  -1    2.80    9.50 
   3 -10  -1    7.20    7.90 
   3 -10   1   -7.10    5.90 
  10   3   1   20.60   21.80 
   3 -10   1   -0.60    9.80 
  -3  10   1    0.30   13.10 
  10   3   1   -4.80    9.50 
 -10  -3   1   10.40   10.70 
  -3  10   1   -6.90    5.80 
 -10  -3   1   -0.10    4.50 
  -3  10   1    2.50    8.70 
 -10  -3   1    2.90    5.00 
  -3  10   1   16.90   15.90 
   3 -10   1    8.60   24.10 
 -10  -1  -1   56.29   16.70 
  -1  10  -1   62.79   11.70 
  10   1  -1   83.29   20.00 
  -1  10  -1   73.89   24.20 
 -10  -1  -1   51.39    9.80 
   1 -10  -1   45.60   15.30 
  10   1  -1  111.09   36.00 
   1 -10  -1   62.79   12.40 
  -1  10  -1   57.49   18.00 
  -1  10  -1   78.69   21.30 
  10   1  -1   60.49   11.60 
  -1  10  -1   92.59   25.90 
  10   1   1   59.69   11.80 
   1 -10   1   62.49   15.40 
  -1  10   1   90.19   20.10 
  -1  10   1   81.79   22.30 
   1 -10   1   62.59   10.70 
  -1  10   1   71.99   11.80 
 -10  -1   1   49.90   17.30 
  -1  10   1   59.79   18.10 
 -10  -1   1   65.99   10.10 
  10   1   1  107.39   36.10 
  10   1   1  126.09   25.40 
 -10   1  -1   52.09    9.70 
 -10   1  -1   41.60   21.70 
   1  10  -1   57.79   19.20 
  -1 -10  -1   56.79   10.60 
   1  10  -1   70.89   16.50 
   1  10  -1   77.39   12.00 
   1  10  -1   52.19   18.30 
  10  -1  -1  107.19   26.30 
  -1 -10  -1   59.69   11.60 
  10  -1  -1  175.68   43.00 
  10  -1  -1   77.09   14.60 
   1  10  -1   83.89   22.40 
   1  10   1   83.89   20.10 
   1  10   1   62.79   11.00 
  -1 -10   1   45.10   10.00 
  10  -1   1   76.99   13.50 
   1  10   1   72.19   15.40 
  -1 -10   1   59.99    9.60 
   1  10   1   53.49   17.70 
 -10   1   1   61.19    9.90 
  10  -1   1  120.59   27.00 
 -10   3  -1   -7.60   28.10 
  -3 -10  -1   -2.80    4.60 
  -3 -10  -1   -0.50    5.50 
 -10   3  -1   -1.10    3.30 
 -10   3  -1   -2.00   10.50 
   3  10  -1   -6.70    6.40 
   3  10  -1   -2.40   13.90 
   3  10  -1   -1.70    5.70 
   3  10  -1   -8.10   11.60 
  10  -3  -1  -12.60    6.50 
   3  10  -1    0.90   10.70 
  10  -3  -1   -3.40   15.60 
   3  10   1    0.00   10.70 
 -10   3   1    1.30    8.40 
  10  -3   1   -1.20    7.30 
   3  10   1    5.30   10.70 
  -3 -10   1    5.90    5.60 
 -10   3   1    3.90    4.50 
   3  10   1   -2.10    5.30 
   3  10   1   -3.40   10.40 
   3  10   1   -8.30    7.00 
  10  -3   1   22.30   18.10 
 -10   3   1    1.10   31.50 
  -3 -10   1   -2.90    4.50 
 -10   5  -1   53.79   14.80 
  -5 -10  -1   38.90   10.20 
  10  -5  -1   96.09   19.40 
 -10   5  -1  110.59   40.00 
  10  -5  -1  139.79   33.50 
   5  10  -1   43.30   16.60 
   5  10  -1   36.60   18.30 
   5  10  -1   38.90   11.70 
  -5 -10  -1   42.90    8.90 
   5  10  -1   60.19   11.30 
   5  10  -1   21.00   16.90 
   5  10   1   33.60   16.30 
  10  -5   1  107.19   34.70 
 -10   5   1   52.99    9.10 
  -5 -10   1   45.60   10.20 
 -10   5   1   64.89   32.00 
 -10   5   1   50.49   12.40 
   5  10   1   44.80   10.10 
  10  -5   1  117.99   22.20 
   5  10   1   58.79   13.20 
  -5 -10   1   54.59    8.70 
   5  10   1   39.50   18.00 
  10  -7  -1  109.09   22.30 
   7  10  -1   19.50   18.50 
   7  10  -1   23.40   20.20 
   7  10  -1   20.30   16.10 
  10  -7  -1   79.99   23.30 
 -10   7  -1   41.20   31.90 
 -10   7  -1   18.00   13.40 
  -7 -10  -1   26.00    8.50 
 -10   7  -1   26.20   12.30 
   7  10  -1   27.30   11.30 
  10  -7  -1   66.09   28.80 
  -7 -10  -1   26.20    9.50 
  10  -7   1   41.90   25.30 
 -10   7   1   19.20   12.20 
  10  -7   1   51.39   26.10 
 -10   7   1   29.30   23.10 
   7  10   1   20.00   16.90 
   7  10   1   12.50   12.00 
   7  10   1    7.10   16.00 
  -7 -10   1   25.00    7.40 
 -10   7   1   24.20   10.20 
   7  10   1   39.40   20.10 
  -7 -10   1   21.30    9.00 
  10  -7   1   72.09   19.30 
  -4  11  -1   66.59   18.80 
  11   4  -1   57.09   12.40 
 -11  -4  -1   36.70    9.20 
  -4  11  -1  110.49   29.40 
  -4  11  -1   85.19   34.80 
   4 -11  -1   31.00   12.80 
  11   4  -1   36.90   25.80 
 -11  -4  -1   55.49   10.20 
  11   4  -1   33.90   16.80 
  -4  11  -1   26.10   11.30 
   4 -11  -1   49.70   25.10 
   4 -11  -1   52.99   53.09 
  11   4   1   64.19   12.30 
  -4  11   1   59.29   17.00 
  11   4   1   53.49   28.60 
  -4  11   1   85.09   25.40 
 -11  -4   1   45.00    9.10 
   4 -11   1   34.30   11.50 
   4 -11   1   49.30   20.20 
  -4  11   1   96.79   26.10 
 -11  -4   1   46.50   17.20 
 -11  -4   1   56.79   10.80 
  11   4   1   35.80   17.70 
  -4  11   1   34.70   10.20 
  -2  11  -1   30.60    9.90 
  11   2  -1   30.60   15.90 
 -11  -2  -1   57.29   10.10 
  11   2  -1   59.69   32.10 
   2 -11  -1   31.60   17.40 
  -2  11  -1   77.59   26.90 
  -2  11  -1   87.19   26.40 
  -2  11  -1   24.30   19.10 
  11   2  -1   50.59   11.40 
  -2  11  -1   49.70   16.80 
 -11  -2  -1   64.69   17.90 
   2 -11  -1   57.79   13.00 
   2 -11   1   27.80    9.40 
 -11  -2   1   54.09   19.10 
  -2  11   1   49.99   10.80 
  -2  11   1   78.99   20.80 
  -2  11   1   69.39   18.20 
 -11  -2   1   50.19    9.40 
  -2  11   1   25.20   21.30 
   2 -11   1   40.60   15.40 
  -2  11   1   82.39   31.00 
  11   2   1   54.99   11.50 
  11   2   1   67.59   31.60 
  11   0  -1    6.60    7.20 
   0  11  -1    9.10   12.70 
   0 -11  -1   -1.70    9.30 
   0  11  -1  -10.00    6.10 
 -11   0  -1   22.70   19.40 
 -11   0  -1    2.20    4.00 
   0 -11  -1   -6.60    6.60 
   0 -11  -1   -0.40    9.40 
   0  11  -1    3.00   12.70 
   0  11  -1    8.30   19.60 
   0  11  -1   16.30   16.50 
   0 -11   1    4.10    6.70 
   0  11   1   -7.20   12.70 
   0  11   1    1.10    6.40 
  11   0   1    5.20   15.40 
 -11   0   1  -18.80   21.50 
   0  11   1    4.20   11.70 
  11   0   1   -3.50   23.90 
   0  11   1   21.90   13.40 
 -11   0   1    4.90    5.20 
  11   0   1   -0.30    7.40 
   0 -11   1    6.80    6.50 
 -11   2  -1   14.30   30.80 
  11  -2  -1  101.99   26.90 
   2  11  -1   54.99   20.10 
  -2 -11  -1   48.10   12.70 
  -2 -11  -1   33.10    9.70 
   2  11  -1   62.09   21.00 
   2  11  -1   48.00   20.00 
   2  11  -1   45.10   10.70 
  11  -2  -1   33.40   10.60 
 -11   2  -1   49.00    9.50 
 -11   2  -1   45.70   17.00 
   2  11  -1   54.19   15.00 
   2  11   1   42.50   16.10 
   2  11   1   50.29   15.00 
  11  -2   1   33.50   11.40 
  -2 -11   1   37.20    9.90 
   2  11   1   38.40    9.40 
 -11   2   1   35.20   14.00 
 -11   2   1  -15.70   35.60 
 -11   2   1   35.50    8.30 
  -2 -11   1   35.20    8.50 
   4  11  -1   55.89   23.00 
 -11   4  -1   -9.20   44.60 
   4  11  -1   27.20   17.00 
 -11   4  -1   45.90   15.70 
  11  -4  -1   70.69   19.20 
   4  11  -1   62.49   14.90 
 -11   4  -1   29.10    7.90 
  -4 -11  -1   37.70    9.90 
  11  -4  -1  133.29   31.20 
   4  11  -1   62.19   12.50 
   4  11  -1   49.10   21.60 
  -4 -11  -1   41.70   11.30 
 -11   4   1  -20.90   39.30 
  11  -4   1   63.39   16.70 
 -11   4   1   52.69    9.60 
   4  11   1   46.70   10.70 
  -4 -11   1   46.50    8.70 
  -4 -11   1   30.60    9.60 
   4  11   1   41.10   17.00 
 -11   4   1   43.30   13.30 
   4  11   1   56.39   15.00 
   4  11   1   34.90   16.50 
  11  -4   1  130.69   32.00 
   4  11   1   65.79   21.60 
  -1  12  -1  -13.70   12.20 
   1 -12  -1    4.90    9.70 
 -12  -1  -1    0.30    6.30 
  -1  12  -1   14.40   20.30 
  12   1  -1    3.60    9.50 
  12   1  -1   21.70   29.10 
  -1  12  -1   10.60    8.80 
   1 -12  -1  -12.70   15.10 
  -1  12  -1   19.60   19.50 
  -1  12  -1   23.10   20.10 
   1 -12  -1    8.10   14.50 
  12   1  -1   -3.50   14.40 
  -1  12   1    6.70    7.80 
   1 -12   1   -1.80   11.40 
   1 -12   1   -4.90    8.80 
  12   1   1   -0.40   19.40 
  12   1   1   24.50   30.20 
  -1  12   1    3.30   13.90 
  -1  12   1    7.50   18.50 
  -1  12   1   -8.50   10.90 
  12   1   1    0.10    8.80 
   1 -12   1    0.50   11.20 
  -1  12   1   -1.10   21.20 
 -12  -1   1    0.90    6.00 
 -12  -1   1   -9.10   25.60 
   1  12  -1   -1.00   17.60 
   1  12  -1    3.20   17.70 
 -12   1  -1    0.30    6.00 
   1  12  -1   -0.60   15.20 
  12  -1  -1    4.00   28.00 
  -1 -12  -1   12.00    9.90 
   1  12  -1   -5.50    8.10 
  12  -1  -1    9.80   17.30 
  -1 -12  -1  -15.70    9.20 
   1  12  -1    6.30   16.60 
  12  -1  -1   -1.60    9.20 
   1  12   1    3.90   15.30 
 -12   1   1   -1.20    5.00 
  12  -1   1  -12.80   17.10 
   1  12   1    0.30   16.00 
  -1 -12   1    3.60    7.70 
   1  12   1   16.80   17.70 
  12  -1   1   10.00   10.20 
  -1 -12   1    1.40    9.00 
 -12   1   1    4.10   39.10 
   1  12   1    0.20   14.10 
   1  12   1   -1.80    8.10 
   0   0  -2  107.59    8.90 
  -1  -1  -2   47.10    4.00 
  -1  -1  -2   45.90    3.80 
  -1  -1  -2   40.30    6.60 
  -1   1  -2   42.10    4.20 
   1  -1  -2   41.50    6.50 
   1   1  -2   45.10    4.60 
  -1  -1  -2   45.50    4.60 
  -1   1  -2   46.90    3.60 
   1  -1  -2   51.19    5.70 
   1  -1  -2   48.90    4.00 
  -1  -1  -2   43.50    3.90 
   1   1  -2   45.20    3.50 
   1   1  -2   49.60    4.10 
   1   1  -2   48.10    3.90 
   1   1  -2   40.10    5.40 
   1   1   2   42.50    3.80 
  -1  -1   2   58.19    7.00 
   1  -1   2   55.39    4.20 
  -1   1   2   37.80    4.90 
   1   1   2   46.50    3.80 
  -1  -1   2   43.00    3.80 
  -1  -1   2   57.99    5.10 
   1   1   2   46.00    3.80 
   1  -1   2   57.89    5.80 
   1   1   2   47.20    3.80 
  -1  -1   2   42.70    5.30 
   1   1   2   39.40    5.60 
  -1  -1   2   43.60    3.50 
   1   1   2   46.60    4.80 
  -1   1   2   41.90    3.60 
   1  -1   2   46.80    3.50 
   1  -1   2   41.10    8.80 
  -1   1   2   47.00    5.50 
   0   2  -2  592.74   39.60 
   0   2  -2  570.34   42.90 
   2   0  -2  603.74   42.30 
   0   2  -2  607.24   40.70 
   0  -2  -2  638.04   41.00 
  -2   0  -2  574.34   40.60 
   0   2  -2  604.84   44.00 
   0  -2  -2  550.64   42.20 
  -2   0  -2  619.34   40.00 
   0  -2  -2  597.44   41.20 
   0  -2  -2  583.34   39.70 
   0  -2  -2  593.64   40.70 
  -2   0  -2  602.44   39.60 
   0   2  -2  526.05   43.80 
   2   0  -2  579.44   40.60 
   2   0  -2  585.44   40.30 
   0  -2  -2  613.04   42.10 
   0   2  -2  601.04   40.60 
   2   0  -2  620.64   40.70 
   2   0  -2  612.34   45.20 
  -2   0   2  591.84   40.10 
   0   2   2  582.24   42.40 
   2   0   2  505.35   42.40 
  -2   0   2  545.45   41.10 
   2   0   2  606.14   39.90 
   0   2   2  532.85   41.80 
   2   0   2  604.74   39.60 
  -2   0   2  565.74   42.20 
   0  -2   2  633.24   43.50 
   2   0   2  633.64   41.00 
   0   2   2  622.64   40.70 
   0  -2   2  530.05   42.60 
   0  -2   2  639.14   40.60 
   0   2   2  541.05   39.90 
   0  -2   2  620.44   39.70 
   0  -2   2  546.35   43.40 
  -2   0   2  516.05   44.00 
   0   2   2  620.54   40.40 
  -2   2  -2   22.80    7.20 
   2  -2  -2   35.60    9.50 
  -2  -2  -2   21.00    2.60 
   2   2  -2   27.10    2.40 
   2  -2  -2   34.00    7.60 
   2   2  -2   14.80    5.00 
  -2  -2  -2   20.10    4.20 
  -2  -2  -2   19.00    2.80 
   2   2  -2   20.10    3.00 
  -2   2  -2   15.10    3.90 
   2  -2  -2   28.10    9.10 
  -2   2  -2   21.60    2.60 
  -2   2  -2   24.70    6.80 
   2   2  -2   24.00    7.00 
  -2  -2  -2   26.70    6.80 
  -2  -2  -2   15.20    5.90 
  -2  -2  -2   19.60    3.10 
   2  -2  -2   17.70    4.40 
   2   2  -2   14.30    2.80 
   2  -2  -2   19.60    7.30 
   2   2  -2   17.80    3.90 
   2   2   2   23.90    2.70 
   2  -2   2   18.80    2.70 
   2  -2   2   25.40    3.90 
  -2  -2   2   18.40    4.30 
  -2  -2   2   18.40    5.10 
  -2  -2   2   15.80    3.00 
  -2   2   2   16.20    4.50 
  -2  -2   2   15.00    2.70 
  -2   2   2   29.10    6.50 
  -2  -2   2   18.40    6.20 
  -2   2   2   21.00    5.60 
   2   2   2   18.20    2.80 
  -2   2   2   15.60    3.20 
   2   2   2   20.10    5.90 
   2  -2   2   19.30    2.90 
   2   2   2   17.40    2.70 
  -2   2   2   38.90    7.50 
  -2  -2   2   19.70    2.20 
   2   2   2   17.80    2.60 
   2  -2   2   10.40    5.20 
   2  -2   2   41.70   11.80 
   2   2   2   26.90    4.40 
   2   2   2   21.50    6.10 
  -3  -1  -2  432.16   32.30 
   1  -3  -2  475.55   34.80 
   1  -3  -2  398.86   35.20 
  -1   3  -2  541.05   40.90 
   3   1  -2  458.35   32.40 
   1  -3  -2  453.05   35.40 
  -3  -1  -2  461.75   31.80 
  -1   3  -2  461.85   33.10 
   1  -3  -2  462.35   36.10 
  -1   3  -2  488.35   33.80 
   3   1  -2  473.15   39.40 
   1  -3  -2  451.85   33.80 
  -3  -1  -2  395.76   35.50 
   3   1  -2  460.65   34.50 
  -1   3  -2  478.65   31.30 
  -1   3  -2  439.56   37.40 
  -3  -1  -2  467.65   31.70 
   3   1  -2  454.85   32.10 
   3   1  -2  459.75   34.90 
   3   1  -2  445.36   31.60 
  -1   3   2  480.95   33.60 
  -3  -1   2  461.95   32.90 
   1  -3   2  480.35   38.00 
  -3  -1   2  474.25   31.70 
  -1   3   2  482.85   32.70 
   1  -3   2  488.85   33.20 
  -3  -1   2  399.66   38.30 
  -1   3   2  460.75   32.90 
   3   1   2  435.46   35.30 
   3   1   2  460.85   31.60 
  -3  -1   2  364.86   36.10 
  -3  -1   2  448.76   31.90 
   3   1   2  417.06   39.10 
   1  -3   2  468.65   33.70 
   3   1   2  458.75   31.60 
  -1   3   2  431.66   33.70 
   3   1   2  477.05   32.50 
  -3  -1   2  455.65   34.90 
   1  -3   2  413.86   31.50 
  -1   3   2  553.84   36.80 
   1   3  -2  457.25   33.60 
   1   3  -2  475.45   36.90 
  -3   1  -2  388.86   34.40 
   3  -1  -2  472.95   36.40 
  -1  -3  -2  466.95   32.20 
   1   3  -2  412.76   35.70 
   1   3  -2  452.45   30.60 
  -1  -3  -2  433.96   32.30 
  -3   1  -2  473.95   30.80 
   1   3  -2  467.75   31.60 
  -1  -3  -2  464.55   31.20 
  -3   1  -2  411.76   38.60 
   3  -1  -2  412.06   31.50 
  -1  -3  -2  450.15   30.90 
   1   3  -2  460.65   31.80 
  -1  -3  -2  408.06   35.00 
   3  -1  -2  505.45   33.20 
  -1  -3  -2  430.86   32.60 
   1   3   2  470.15   31.40 
   1   3   2  462.95   33.00 
   3  -1   2  449.56   30.00 
   3  -1   2  402.46   34.50 
   1   3   2  475.25   31.50 
  -3   1   2  371.06   34.90 
  -3   1   2  425.36   35.60 
   3  -1   2  425.66   33.80 
  -1  -3   2  365.16   34.00 
  -3   1   2  455.35   31.00 
   1   3   2  373.16   32.50 
  -1  -3   2  455.95   31.50 
   3  -1   2  451.95   30.60 
   1   3   2  471.65   30.80 
  -1  -3   2  436.56   35.00 
  -1  -3   2  462.05   30.60 
  -1  -3   2  440.46   33.40 
  -1  -3   2  444.26   29.90 
  -3   1   2  361.86   35.00 
   1   3   2  401.16   34.20 
   3   3  -2  110.09    8.60 
  -3   3  -2  125.59   15.90 
  -3  -3  -2   82.69   14.80 
   3   3  -2   89.79   13.00 
  -3  -3  -2  113.59    9.60 
  -3   3  -2  108.49    9.20 
   3  -3  -2  118.69   11.40 
  -3   3  -2  123.99   12.90 
  -3   3  -2  124.69   15.90 
   3  -3  -2  153.18   20.30 
   3   3  -2  103.29   11.40 
   3  -3  -2  152.88   20.40 
   3   3  -2  110.59    9.40 
   3   3  -2  107.89    9.80 
  -3  -3  -2   90.39   14.40 
  -3  -3  -2  106.99    9.80 
  -3  -3  -2   98.89   11.50 
  -3  -3  -2  115.39    9.20 
   3   3  -2  109.69   16.20 
   3  -3   2   84.19   17.50 
   3   3   2   93.39   13.50 
   3  -3   2  109.79    9.50 
   3   3   2  109.99    9.10 
  -3   3   2  107.79   10.70 
   3  -3   2  107.99   10.10 
   3   3   2  112.49    9.00 
   3   3   2  106.79   12.10 
   3   3   2  108.99    9.70 
   3   3   2  101.29   14.10 
  -3  -3   2  111.99    8.60 
  -3  -3   2  108.59   10.10 
  -3  -3   2  102.79   15.80 
  -3  -3   2  127.89    9.70 
   3  -3   2  127.29   12.60 
   3   3   2  104.69    9.80 
  -3  -3   2   94.09   13.20 
  -3  -3   2  117.39   12.30 
  -3   3   2  106.99   13.00 
  -3   3   2  105.59   13.20 
   2  -4  -2   17.10    6.20 
   2  -4  -2    6.10    3.90 
   4   2  -2    4.30    3.60 
  -2   4  -2    3.80    3.20 
  -4  -2  -2    0.60    7.20 
  -4  -2  -2    2.40    1.90 
  -2   4  -2    3.80    2.10 
  -4  -2  -2   10.30    7.10 
  -2   4  -2    8.60    8.40 
  -4  -2  -2    2.80    2.10 
   4   2  -2    4.10    3.60 
  -4  -2  -2    7.60    2.30 
  -2   4  -2    0.40    3.90 
  -2   4  -2    1.00    2.70 
   4   2  -2    5.00    2.40 
   4   2  -2    2.70    1.80 
   2  -4  -2   -0.10    3.80 
   4   2  -2    2.50    5.50 
   2  -4  -2   11.00    7.40 
  -4  -2  -2    9.10    5.40 
   4   2  -2    3.90    1.90 
   2  -4  -2   10.70    6.20 
  -2   4   2    9.60    6.20 
  -4  -2   2    7.10    5.10 
   4   2   2    2.00    6.00 
  -4  -2   2    1.20    2.20 
  -4  -2   2    2.40    1.60 
   2  -4   2   -0.10    2.20 
  -2   4   2   10.70    4.20 
   2  -4   2    0.00    3.70 
   4   2   2   14.10    3.20 
   4   2   2    1.70    1.70 
  -2   4   2    2.60    2.60 
   2  -4   2    1.80    2.60 
  -4  -2   2    6.60    2.20 
   2  -4   2    6.40    2.00 
   4   2   2    3.70    3.90 
  -4  -2   2    3.70    7.00 
  -2   4   2    6.70    3.20 
   2  -4   2    7.50    6.40 
   4   2   2    3.60    1.90 
   0   4  -2  314.17   23.70 
  -4   0  -2  300.67   24.30 
   0   4  -2  298.57   28.70 
   0  -4  -2  320.07   25.00 
   0   4  -2  302.57   27.60 
   4   0  -2  316.87   23.00 
   0   4  -2  316.67   23.90 
   0  -4  -2  316.87   25.00 
   0   4  -2  308.27   22.10 
   4   0  -2  304.97   23.10 
   0  -4  -2  304.07   23.40 
   4   0  -2  321.67   27.40 
   0  -4  -2  305.07   26.90 
  -4   0  -2  309.37   22.10 
   0  -4  -2  310.07   25.40 
  -4   0  -2  305.97   22.60 
   0   4  -2  306.47   29.00 
   4   0  -2  338.17   23.90 
  -4   0   2  328.17   22.70 
  -4   0   2  265.37   29.60 
   4   0   2  309.17   22.40 
   0   4   2  290.47   25.90 
   0   4   2  318.27   23.60 
   0  -4   2  295.67   27.60 
  -4   0   2  301.17   25.10 
  -4   0   2  348.67   26.90 
   0  -4   2  300.17   22.20 
  -4   0   2  269.57   27.40 
   0   4   2  324.87   26.50 
   4   0   2  358.66   24.50 
   4   0   2  310.17   22.10 
   4   0   2  392.36   34.90 
   0   4   2  287.77   25.80 
   0  -4   2  270.17   26.70 
   0  -4   2  322.07   24.10 
   4   0   2  299.87   28.10 
   0   4   2  326.67   22.80 
   0   4   2  319.27   23.30 
  -2  -4  -2    4.80    2.20 
   2   4  -2    6.10    1.90 
   2   4  -2    2.60    2.40 
  -2  -4  -2    2.60    3.00 
   2   4  -2    3.70    3.50 
   2   4  -2    2.30    4.80 
   4  -2  -2    1.10    3.20 
   4  -2  -2    6.80    7.20 
   2   4  -2    5.20    2.40 
   4  -2  -2   11.80    8.60 
  -2  -4  -2    0.50    5.40 
  -4   2  -2    4.20    5.50 
  -2  -4  -2    6.50    2.30 
  -4   2  -2   -3.20    6.20 
   2   4  -2    6.80    1.80 
  -2  -4  -2    0.80    4.00 
  -4   2  -2    0.90    6.80 
  -4   2  -2    3.40    1.90 
  -4   2  -2   13.60    7.90 
   4  -2  -2    7.10    4.10 
  -2  -4  -2    3.10    2.10 
   2   4  -2    7.60    5.50 
   2   4   2    2.60    4.00 
  -2  -4   2    6.00    2.60 
  -2  -4   2    5.60    2.10 
  -2  -4   2    4.60    4.90 
  -2  -4   2    5.20    5.10 
  -4   2   2    3.60    5.60 
  -2  -4   2    4.60    1.50 
   2   4   2    2.50    2.10 
   4  -2   2    4.40    4.50 
   4  -2   2    2.90    2.00 
  -2  -4   2    0.30    3.30 
   2   4   2    6.50    2.20 
   4  -2   2    7.30    2.00 
   4  -2   2    9.00    5.60 
   2   4   2    2.70    4.10 
  -4   2   2    4.10    3.30 
  -4   2   2    9.90    6.30 
   2   4   2    2.80    1.90 
  -4   2   2    6.40    7.90 
  -4   2   2    8.80    2.50 
  -4  -4  -2    1.60    2.30 
   4   4  -2    1.80    2.40 
  -4   4  -2    5.00    6.90 
   4   4  -2    0.20    4.70 
   4   4  -2   -0.80    1.80 
  -4  -4  -2   -0.10    4.60 
  -4   4  -2   -3.20    4.40 
   4   4  -2   -4.30    6.30 
  -4  -4  -2    4.80    2.90 
   4   4  -2    4.80    3.80 
   4  -4  -2   -3.20    4.90 
  -4  -4  -2   -5.00    7.40 
  -4  -4  -2    0.30    1.80 
  -4   4  -2    4.20    2.50 
  -4  -4  -2  -12.40    8.90 
   4  -4  -2    6.80    9.60 
   4   4   2    4.30    6.10 
  -4  -4   2    1.70    8.60 
   4   4   2    1.60    1.70 
   4   4   2   -0.90    5.70 
   4   4   2    1.20    4.40 
   4  -4   2    2.70    3.20 
  -4   4   2    6.10    5.40 
  -4   4   2    2.10    5.60 
  -4   4   2    4.20    5.60 
  -4   4   2    0.20    2.70 
  -4  -4   2    1.80    5.10 
  -4  -4   2   -1.50    6.60 
  -4   4   2    0.70    5.30 
  -4  -4   2    8.00    3.00 
  -4  -4   2    0.60    1.40 
   4   4   2   -0.40    2.40 
   4   4   2    7.70    3.40 
   4   4   2   -1.80    1.80 
   4  -4   2   -1.30    3.90 
   4  -4   2   -8.80    9.10 
  -4  -4   2   -2.00    2.20 
   4  -4   2    1.50    4.00 
   5   3  -2  352.16   31.70 
  -3   5  -2  376.96   30.00 
   3  -5  -2  326.27   35.60 
  -5  -3  -2  339.57   25.30 
   5   3  -2  353.66   37.00 
  -3   5  -2  344.07   32.20 
  -5  -3  -2  354.36   25.60 
   5   3  -2  347.57   29.70 
  -5  -3  -2  318.97   30.40 
   5   3  -2  346.37   24.80 
   3  -5  -2  307.17   28.00 
   3  -5  -2  284.37   31.30 
  -5  -3  -2  344.67   26.70 
   5   3  -2  381.96   26.70 
  -3   5  -2  368.66   29.10 
   5   3  -2  342.17   25.70 
  -3   5   2  349.77   28.60 
  -5  -3   2  273.87   31.90 
  -3   5   2  324.07   27.40 
  -5  -3   2  348.37   25.60 
   3  -5   2  369.16   29.70 
  -5  -3   2  327.77   27.00 
   5   3   2  335.17   25.20 
  -3   5   2  358.86   29.30 
  -5  -3   2  333.67   24.90 
   5   3   2  341.97   25.00 
  -5  -3   2  268.27   32.00 
   5   3   2  353.96   26.20 
   3  -5   2  340.37   34.40 
  -3   5   2  352.66   29.20 
   3  -5   2  318.47   25.70 
   5   3   2  360.46   31.20 
   3  -5   2  325.87   25.00 
   5   3   2  367.36   37.00 
  -5  -3   2  289.77   35.80 
  -1   5  -2   24.90    9.10 
  -5  -1  -2   23.20    4.20 
   1  -5  -2   40.90    9.00 
  -1   5  -2   33.70    6.30 
  -1   5  -2   34.80    4.50 
  -5  -1  -2   22.80    5.30 
   5   1  -2   27.00    5.10 
   1  -5  -2   31.50    7.80 
  -1   5  -2   27.90   11.10 
   1  -5  -2   22.90    7.60 
   5   1  -2   33.10   12.80 
   1  -5  -2   28.00    6.00 
   5   1  -2   21.50    4.20 
  -1   5  -2   23.60   10.00 
   5   1  -2   28.20    7.60 
  -5  -1  -2   23.20   11.50 
  -5  -1  -2   11.80    9.20 
   1  -5  -2   21.50    8.20 
   5   1  -2   26.80    4.70 
  -1   5  -2   24.90    5.60 
  -5  -1  -2   23.50    4.20 
  -1   5   2   23.00    8.50 
   5   1   2   31.10    5.40 
  -1   5   2   25.90    4.60 
  -1   5   2   25.70    7.30 
  -1   5   2   27.30    5.10 
   1  -5   2   29.70    9.90 
   1  -5   2   26.60    6.20 
   1  -5   2   23.70    3.90 
   5   1   2   36.20    9.80 
  -5  -1   2   21.70    4.30 
  -5  -1   2   25.00    9.00 
  -1   5   2   37.40   10.00 
   5   1   2   22.70    3.90 
   1  -5   2   22.10    5.90 
  -5  -1   2   30.40    9.10 
   1  -5   2   21.30    9.20 
   5   1   2   26.10    4.10 
  -5  -1   2   29.80   12.40 
   5   1   2   35.20   14.40 
  -1   5   2   32.30    6.10 
   1   5  -2   21.20    8.50 
   1   5  -2   30.30    8.40 
   5  -1  -2   40.30   10.90 
  -5   1  -2   33.40    8.80 
  -1  -5  -2   39.00    7.30 
   1   5  -2   20.90    8.60 
  -1  -5  -2   31.90    5.40 
   5  -1  -2   34.10    6.10 
  -5   1  -2   18.20   12.90 
   5  -1  -2   26.70    5.70 
   1   5  -2   28.00    4.20 
   5  -1  -2   70.99   18.70 
  -1  -5  -2   33.50    9.60 
  -1  -5  -2   29.70    5.00 
   1   5  -2   29.80    5.50 
  -5   1  -2   12.10   11.00 
   1   5  -2   26.90    5.50 
  -1  -5  -2   28.30    6.60 
  -1  -5  -2   23.40    5.90 
  -5   1  -2   31.20    4.90 
  -1  -5   2   27.80    9.00 
   5  -1   2   48.50   12.50 
   1   5   2   26.20    4.50 
   5  -1   2   32.00    4.70 
   5  -1   2   18.70    5.70 
  -1  -5   2   22.80    3.50 
  -5   1   2   30.10    4.80 
  -1  -5   2   45.70    8.60 
  -1  -5   2   30.60    4.50 
   1   5   2   28.80    5.40 
   1   5   2   24.30    4.80 
   5  -1   2   28.20    4.80 
   1   5   2   25.70    7.30 
  -1  -5   2   22.10    7.40 
  -5   1   2   25.00   10.50 
  -5   1   2   20.70    9.10 
   1   5   2   27.70    5.60 
   1   5   2   27.40    8.00 
   1   5   2   28.80    7.50 
  -5   3  -2  326.47   24.40 
   3   5  -2  346.37   26.40 
   3   5  -2  289.47   31.90 
  -5   3  -2  323.77   38.40 
  -3  -5  -2  351.16   25.80 
  -3  -5  -2  330.77   28.40 
   3   5  -2  352.46   29.10 
  -3  -5  -2  322.77   25.10 
   3   5  -2  347.97   23.50 
  -5   3  -2  308.77   33.20 
   5  -3  -2  327.67   27.20 
  -5   3  -2  245.08   36.50 
  -3  -5  -2  304.77   30.40 
  -3  -5  -2  353.46   24.70 
   3   5  -2  340.27   25.80 
  -3  -5  -2  322.97   33.30 
   3   5  -2  304.37   34.10 
  -5   3  -2  324.47   32.60 
   3   5   2  348.27   24.50 
  -5   3   2  290.57   30.80 
   5  -3   2  325.17   31.50 
   3   5   2  329.17   25.60 
   5  -3   2  342.47   25.10 
  -5   3   2  352.46   25.00 
   3   5   2  340.27   25.60 
   5  -3   2  310.27   23.90 
   3   5   2  321.77   28.30 
  -5   3   2  356.16   27.70 
  -3  -5   2  322.37   25.80 
   3   5   2  302.37   30.80 
   3   5   2  264.27   28.60 
  -5   3   2  344.17   34.60 
  -3  -5   2  289.87   31.20 
  -3  -5   2  339.77   24.80 
  -3  -5   2  333.07   23.40 
  -3  -5   2  317.07   32.00 
   5   5  -2   26.80    5.90 
  -5  -5  -2   24.00   13.90 
   5   5  -2   22.50    5.20 
   5  -5  -2   73.09   20.90 
   5  -5  -2   42.10   18.90 
  -5   5  -2   52.99   14.40 
   5   5  -2   10.30   11.00 
   5   5  -2   38.20   12.10 
  -5   5  -2   20.60    5.20 
  -5  -5  -2   19.50    5.00 
  -5   5  -2   26.00    9.60 
  -5  -5  -2   25.10    4.90 
   5  -5  -2   51.69   19.30 
   5   5  -2   19.80    7.50 
  -5  -5  -2   19.80    5.60 
  -5   5  -2   36.90   12.80 
  -5  -5   2   23.80    4.40 
   5   5   2   14.60    8.70 
  -5   5   2   17.80   10.40 
  -5  -5   2   20.40    5.10 
   5  -5   2   10.80    5.50 
   5   5   2   23.40    5.60 
  -5  -5   2   19.90    5.80 
  -5   5   2   26.40   10.30 
  -5   5   2   25.00    6.80 
   5  -5   2   20.80   15.90 
  -5   5   2   25.20    9.70 
  -5   5   2   25.90    9.80 
   5  -5   2   40.00   11.50 
   5   5   2   24.00   10.20 
   5   5   2   17.90    4.50 
   5  -5   2   10.30    6.30 
   4  -6  -2   66.09   26.10 
   4  -6  -2   87.19   18.80 
   6   4  -2   88.29    9.00 
  -4   6  -2   97.79   14.00 
  -4   6  -2  107.19   16.60 
  -6  -4  -2   78.49   11.80 
  -6  -4  -2   93.49    9.90 
  -6  -4  -2   59.19   21.90 
   6   4  -2   98.99   10.70 
   6   4  -2  100.19   21.00 
  -6  -4  -2   96.39    9.60 
   6   4  -2   89.59   13.60 
   4  -6  -2  106.69   24.30 
   6   4  -2   82.79   21.10 
   6   4   2   90.39   15.60 
  -6  -4   2   91.29    9.00 
  -4   6   2  107.69   12.20 
  -6  -4   2   47.20   17.60 
  -6  -4   2   84.49   11.50 
   6   4   2   90.39   10.20 
  -6  -4   2   81.19    9.60 
   4  -6   2   93.29   23.70 
  -4   6   2   89.29   14.20 
   4  -6   2   88.59    9.70 
  -4   6   2  103.79   12.80 
   4  -6   2  102.09   14.80 
   6   2  -2  152.58   17.50 
  -2   6  -2  147.69   19.50 
  -2   6  -2  137.89   14.80 
   2  -6  -2  127.89   14.90 
  -6  -2  -2  135.19   14.20 
  -6  -2  -2  144.59   12.40 
  -6  -2  -2  113.99   20.00 
   6   2  -2  149.79   25.20 
   2  -6  -2  103.79   22.40 
   2  -6  -2  126.09   18.30 
  -2   6  -2  218.28   28.40 
  -2   6  -2  158.78   26.00 
  -6  -2  -2  118.29   24.20 
   6   2  -2  141.79   13.40 
  -2   6  -2  146.89   12.30 
   2  -6  -2  181.38   19.40 
  -6  -2  -2  145.69   12.40 
   6   2  -2  115.79   11.90 
   2  -6  -2  135.59   19.80 
   6   2  -2  141.09   13.00 
  -6  -2   2  130.29   18.80 
  -6  -2   2  107.69   24.80 
  -2   6   2  162.28   16.90 
  -6  -2   2  143.09   15.00 
   6   2   2  153.28   13.60 
   6   2   2  134.49   13.10 
   6   2   2  142.49   12.20 
   2  -6   2  141.69   13.50 
  -6  -2   2  145.89   12.50 
   6   2   2  152.88   19.40 
   2  -6   2  131.39   15.20 
  -2   6   2  143.89   20.60 
  -6  -2   2  124.99   21.90 
   6   2   2  163.28   26.10 
  -6  -2   2  149.39   12.40 
   2  -6   2  127.59   17.20 
  -2   6   2  160.78   15.80 
   0   6  -2  163.78   22.50 
  -6   0  -2  202.08   16.50 
   0   6  -2  204.38   24.40 
   6   0  -2  197.08   22.50 
   0   6  -2  192.58   26.20 
   0   6  -2  214.88   18.00 
  -6   0  -2  138.79   31.10 
   0   6  -2  193.58   18.00 
   0  -6  -2  212.48   20.30 
   0  -6  -2  207.28   17.60 
  -6   0  -2  209.38   16.00 
   0  -6  -2  218.98   22.90 
   0   6  -2  222.38   19.20 
   6   0  -2  170.88   16.70 
   0   6  -2  198.98   15.80 
   6   0  -2  202.18   17.80 
   0  -6  -2  177.48   20.50 
  -6   0  -2  173.68   19.10 
   6   0   2  233.28   25.20 
  -6   0   2  150.38   25.10 
   0   6   2  191.98   16.30 
   0   6   2  213.98   19.30 
   0   6   2  220.58   21.90 
  -6   0   2  216.78   21.50 
   0  -6   2  216.68   16.30 
   0  -6   2  185.18   22.70 
   6   0   2  242.38   18.90 
   0  -6   2  197.78   18.60 
  -6   0   2  196.88   16.30 
   0   6   2  205.68   22.20 
   6   0   2  196.28   15.80 
  -6   0   2  200.48   25.20 
   0   6   2  200.08   17.70 
   6   0   2  215.68   16.30 
   0   6   2  218.48   17.50 
   0  -6   2  175.88   23.10 
  -6   0   2  247.98   23.70 
   0   6   2  235.88   21.60 
  -2  -6  -2  126.59   19.50 
   2   6  -2  140.59   13.10 
  -2  -6  -2  136.99   15.40 
  -2  -6  -2  145.99   15.90 
   2   6  -2  146.29   22.30 
  -2  -6  -2  140.59   12.70 
   2   6  -2  132.49   13.50 
  -6   2  -2  142.09   12.20 
   2   6  -2  135.79   11.70 
  -6   2  -2  108.29   22.50 
   2   6  -2  151.38   13.80 
  -2  -6  -2  136.09   12.20 
   2   6  -2  125.19   19.60 
   6  -2  -2  134.49   14.30 
  -6   2  -2  140.29   27.50 
   2   6  -2  136.79   16.80 
   6  -2  -2  129.59   14.40 
  -6   2  -2  126.49   23.50 
   6  -2  -2  123.89   14.10 
  -2  -6   2  138.89   12.10 
  -6   2   2  119.49   11.70 
   6  -2   2  155.48   16.30 
   2   6   2  109.89   15.70 
  -2  -6   2  106.29   16.60 
   2   6   2  133.09   11.80 
  -2  -6   2  145.79   11.00 
   2   6   2  149.39   18.20 
   2   6   2  125.39   12.30 
   6  -2   2  128.29   12.20 
   2   6   2  130.89   13.30 
   2   6   2  121.49   15.60 
  -2  -6   2  127.19   18.80 
  -6   2   2   70.79   20.70 
  -6   2   2  181.58   23.60 
   6  -2   2  129.19   11.30 
  -2  -6   2  127.89   17.10 
  -6   4  -2   81.89   13.10 
   4   6  -2   76.39   13.00 
  -4  -6  -2   86.69   16.10 
  -6   4  -2   82.89   16.30 
   4   6  -2   91.59    8.50 
  -6   4  -2   65.89   22.60 
   4   6  -2   80.49   18.50 
   4   6  -2   89.19   10.50 
  -4  -6  -2   87.49    9.90 
  -4  -6  -2   79.59   10.00 
   4   6   2   85.89   10.30 
   6  -4   2   87.09    9.50 
  -6   4   2   96.39   19.20 
  -4  -6   2   87.59   10.80 
  -6   4   2   99.29    9.90 
  -4  -6   2   85.69    8.10 
   4   6   2   69.99   16.20 
   6  -4   2  111.19   18.00 
   6  -4   2   88.99   10.90 
   4   6   2   71.09   15.80 
  -4  -6   2   89.09   19.70 
  -4  -6   2   89.09    9.50 
  -6   4   2   86.69   11.40 
   4   6   2   80.09   13.40 
  -6   6  -2  185.88   23.50 
   6   6  -2  147.29   24.70 
   6   6  -2  201.38   18.70 
   6   6  -2  174.88   29.90 
  -6   6  -2  209.48   17.80 
  -6  -6  -2  200.58   19.20 
  -6  -6  -2  161.78   16.40 
   6   6  -2  193.58   22.70 
  -6  -6  -2  182.38   17.30 
  -6   6   2  198.28   19.60 
   6  -6   2  165.08   19.20 
  -6   6   2  198.68   24.30 
  -6  -6   2  198.98   16.20 
   6   6   2  204.28   23.70 
  -6  -6   2  178.88   19.20 
  -6  -6   2  213.68   17.60 
   6  -6   2  280.87   44.40 
   6  -6   2  213.08   27.40 
   6   6   2  190.68   18.30 
  -5   7  -2   20.30    9.00 
  -5   7  -2   22.80   14.10 
  -7  -5  -2   16.70    5.10 
   7   5  -2   14.20    8.40 
   7   5  -2   13.50   14.10 
   5  -7  -2   13.20   13.30 
  -7  -5  -2   22.70    5.90 
  -5   7  -2   12.70    8.70 
   5  -7  -2   29.20   17.60 
   5  -7  -2   29.10   24.60 
   7   5  -2   25.50   10.30 
   7   5  -2   12.20    5.40 
  -7  -5  -2    8.00    5.80 
   5  -7  -2    0.70   14.90 
   7   5   2    8.30    8.30 
   5  -7   2   -3.40   19.90 
   7   5   2   26.50   13.70 
  -7  -5   2   13.40    4.80 
  -7  -5   2   19.60    5.50 
   5  -7   2    9.40   10.30 
   7   5   2   12.10    4.90 
  -5   7   2   24.90   12.10 
  -7  -5   2   10.80    6.60 
  -5   7   2   20.30    7.70 
   5  -7   2    3.50    5.00 
  -5   7   2   26.20    7.80 
  -5   7   2   15.20   10.40 
  -3   7  -2  269.97   25.70 
   3  -7  -2  200.08   41.20 
   3  -7  -2  282.87   34.00 
  -3   7  -2  280.37   30.50 
   7   3  -2  286.97   24.00 
   7   3  -2  284.47   28.80 
  -7  -3  -2  276.87   22.60 
   7   3  -2  340.17   40.80 
  -7  -3  -2  281.17   22.80 
  -7  -3  -2  278.77   25.00 
  -3   7   2  336.57   28.40 
   7   3   2  296.07   24.10 
  -7  -3   2  266.07   25.70 
  -3   7   2  261.97   24.20 
   7   3   2  289.77   30.10 
  -7  -3   2  303.57   23.10 
  -7  -3   2  238.08   35.40 
   3  -7   2  316.27   29.20 
  -7  -3   2  283.67   22.60 
   3  -7   2  266.27   33.40 
   3  -7   2  293.77   22.60 
   7   3   2  333.37   40.50 
  -7  -1  -2   21.70    5.00 
   1  -7  -2   25.40    7.30 
   1  -7  -2   13.50    9.40 
  -7  -1  -2   18.00    7.20 
   1  -7  -2   15.90    7.80 
  -1   7  -2   21.50   10.20 
  -7  -1  -2   24.40    4.90 
  -1   7  -2   18.60    5.60 
   7   1  -2   17.10    8.20 
   1  -7  -2   18.80    9.30 
  -1   7  -2   23.30   12.30 
   7   1  -2   15.10    6.10 
   7   1  -2   30.90   16.70 
   7   1  -2   22.70    5.70 
  -1   7  -2   14.50   12.60 
  -1   7  -2   22.50    4.60 
  -7  -1  -2   12.30   16.30 
   1  -7   2   20.00    7.70 
   7   1   2   40.50   17.30 
  -1   7   2   21.10    6.10 
  -7  -1   2   26.00    8.50 
  -1   7   2   24.70    8.50 
  -1   7   2   20.00    9.10 
  -7  -1   2   13.40    9.80 
  -7  -1   2   15.20    4.30 
   7   1   2   14.80    5.10 
  -1   7   2   20.80    5.50 
   7   1   2   22.20    5.10 
   7   1   2   18.40   10.50 
  -1   7   2   26.20   10.60 
   1  -7   2   16.40    6.40 
  -1   7   2   29.10    5.70 
   1  -7   2   15.20    4.90 
   1   7  -2   10.20    7.90 
   1   7  -2    5.70    8.80 
   1   7  -2   16.10    5.20 
   7  -1  -2   36.00   19.70 
   1   7  -2   19.30    6.00 
  -1  -7  -2   11.90    5.90 
   7  -1  -2   59.69   15.10 
  -1  -7  -2   19.00    5.20 
   1   7  -2   23.40    4.70 
   7  -1  -2   22.90    6.20 
   1   7  -2   15.60   10.40 
  -1  -7  -2   24.40   11.30 
  -7   1  -2   19.60    4.90 
   7  -1  -2   25.80    7.00 
  -1  -7  -2   17.30    5.40 
   7  -1   2   23.70    7.40 
  -7   1   2   24.20   12.60 
   1   7   2    9.30    4.10 
   1   7   2   17.00    7.60 
   1   7   2   17.90    6.20 
  -7   1   2   20.10    4.70 
  -1  -7   2   11.20    4.00 
   7  -1   2   58.49   20.80 
   1   7   2   12.90    5.20 
  -1  -7   2   19.30    3.70 
   1   7   2   15.60    9.00 
   7  -1   2   24.60   13.10 
   7  -1   2   19.20    4.30 
  -3  -7  -2  271.87   21.90 
  -7   3  -2  276.27   21.80 
   3   7  -2  261.87   27.70 
  -3  -7  -2  279.87   27.20 
   3   7  -2  253.67   31.80 
   3   7  -2  230.78   37.80 
  -3  -7  -2  267.37   22.60 
   3   7  -2  280.07   23.20 
   7  -3  -2  320.47   26.10 
  -7   3  -2  226.18   42.10 
   7  -3  -2  234.38   25.50 
   3   7  -2  278.97   23.80 
  -3  -7   2  284.17   22.10 
  -3  -7   2  244.08   29.90 
  -7   3   2  253.27   42.40 
   3   7   2  241.18   27.30 
   3   7   2  269.67   22.40 
   3   7   2  272.37   29.80 
  -7   3   2  290.27   21.80 
  -3  -7   2  275.57   20.50 
   7  -3   2  272.77   21.30 
   3   7   2  278.57   28.00 
  -7   3   2  267.17   25.40 
  -7   3   2  248.18   34.10 
   3   7   2  277.77   23.60 
   5   7  -2   10.80   10.80 
   7  -5  -2   48.90   20.90 
  -5  -7  -2   15.80    4.90 
  -5  -7  -2   10.40    5.20 
   5   7  -2   15.50    5.80 
   5   7  -2   20.90    5.40 
   5   7  -2   14.60    8.70 
  -5  -7  -2   29.30    7.50 
  -7   5  -2   20.40    9.50 
  -7   5  -2   16.60    5.20 
  -7   5  -2   11.20   19.50 
   5   7  -2   14.40   14.60 
   7  -5  -2   42.00   14.20 
  -5  -7   2    8.00    3.90 
   5   7   2   24.80   10.80 
   5   7   2   31.10   11.20 
   7  -5   2   21.20   12.60 
  -7   5   2   20.40   14.80 
   5   7   2   11.80    8.60 
   7  -5   2   10.90    5.90 
  -5  -7   2   23.50    6.10 
   5   7   2   23.60    6.70 
  -7   5   2   13.90    6.00 
  -7   5   2   14.80    5.20 
  -5  -7   2   11.30    6.00 
   7  -7  -2   -3.50   16.80 
  -7   7  -2   10.00    8.20 
   7  -7  -2  -27.60   16.50 
  -7  -7  -2   12.20    5.40 
   7   7  -2    1.40   10.40 
  -7   7  -2   16.80   14.80 
   7   7  -2   -7.80    5.00 
  -7  -7  -2    0.80    4.40 
   7   7  -2   17.10   10.00 
  -7   7  -2   29.00   15.10 
  -7  -7  -2    7.10    6.90 
   7  -7  -2   18.70   16.10 
   7   7  -2    2.70   12.70 
  -7  -7   2   -6.30    6.00 
   7  -7   2   41.80   25.10 
   7   7   2    6.60   11.40 
  -7   7   2    5.00   10.80 
   7  -7   2   14.60    8.90 
  -7  -7   2    5.70    4.90 
  -7   7   2    5.10    6.10 
   7  -7   2    5.00   11.20 
  -7  -7   2    7.60    4.20 
  -7   7   2   20.50   11.20 
   7   7   2    1.40    9.90 
  -6   8  -2   21.90   16.50 
   8   6  -2    3.30    8.30 
  -6   8  -2   18.20   10.40 
  -8  -6  -2   16.10    5.80 
  -8  -6  -2   14.50    7.80 
   8   6  -2   14.10   16.00 
  -8  -6  -2   12.00    6.20 
   6  -8  -2    3.90   17.50 
   6  -8  -2    7.80   14.50 
   6  -8  -2   26.20   27.20 
  -6   8  -2    8.80    9.50 
   8   6  -2   10.70    6.40 
  -8  -6   2   -0.90    7.30 
  -8  -6   2   15.60    5.30 
   8   6   2    5.40   10.90 
  -6   8   2    4.40   10.80 
  -6   8   2    9.80    7.90 
  -8  -6   2   15.80    5.40 
   8   6   2    9.10    7.40 
   6  -8   2   16.60   12.80 
  -6   8   2    3.50    6.60 
   6  -8   2  -15.80   27.10 
   6  -8   2    3.20    6.10 
   8   6   2   -2.10   13.20 
   4  -8  -2   26.70   16.60 
  -8  -4  -2    8.30    3.90 
  -8  -4  -2   -1.10    5.40 
  -8  -4  -2    9.50    4.60 
   4  -8  -2  -29.10   23.90 
   8   4  -2    3.60    4.70 
   8   4  -2    8.10   14.00 
   4  -8  -2   -1.70    9.70 
   8   4  -2   -1.30    6.70 
  -4   8  -2    7.70    8.30 
  -4   8  -2   13.90    6.80 
  -4   8  -2   14.20   15.00 
   8   4   2   -1.50   11.60 
  -4   8   2    8.30    8.90 
  -4   8   2    0.80    6.50 
  -4   8   2    7.70    5.30 
   8   4   2    4.50    8.50 
  -8  -4   2    5.00    4.10 
  -8  -4   2   -7.80    5.70 
  -4   8   2    9.20   10.50 
   4  -8   2   12.20    5.20 
  -8  -4   2    7.60    3.80 
   4  -8   2   -4.10   18.20 
   4  -8   2    7.00    9.10 
   8   4   2    1.50    4.30 
  -8  -2  -2    7.20    4.20 
   2  -8  -2   22.90   11.30 
   2  -8  -2    5.90   14.50 
   2  -8  -2    2.50    6.10 
   8   2  -2    6.30    4.40 
  -2   8  -2    8.50    5.60 
  -8  -2  -2    6.20    3.50 
   8   2  -2    1.80    6.80 
   8   2  -2   17.50   16.10 
  -2   8  -2   15.60    9.90 
  -2   8  -2   10.00   14.80 
  -2   8  -2   12.30    5.00 
  -2   8   2    8.90    8.10 
  -2   8   2   11.10   10.50 
   2  -8   2    7.20    5.80 
  -8  -2   2    8.70    4.00 
  -8  -2   2   10.80    4.30 
   2  -8   2    3.70    4.00 
   8   2   2   15.00    9.40 
   2  -8   2    6.70    6.00 
   2  -8   2   29.80   11.80 
   8   2   2    9.30    5.20 
  -2   8   2    9.30    9.90 
  -2   8   2    8.40    4.90 
  -8  -2   2    7.10    6.90 
   8   2   2  -14.00   12.40 
  -8   0  -2   45.90    7.60 
  -8   0  -2   25.90   10.00 
   0  -8  -2   26.80    9.70 
   0   8  -2   46.30   10.40 
   8   0  -2   66.69   25.50 
   0   8  -2   41.00    7.10 
   0   8  -2   55.29   16.60 
   0   8  -2   38.70    8.00 
   8   0  -2   44.70    8.80 
   0   8  -2   27.60   13.40 
   8   0  -2   55.89   14.90 
   0  -8  -2   35.80    8.10 
   0   8  -2   25.40   15.70 
   0   8   2   42.90   11.70 
   8   0   2   54.79   16.80 
  -8   0   2   33.50   12.60 
   0   8   2   38.00    7.60 
   8   0   2   34.10    8.10 
   8   0   2   80.89   27.90 
  -8   0   2   59.49   16.30 
   0  -8   2   40.60    6.30 
   0   8   2   41.80   10.40 
  -8   0   2   36.60    6.80 
   0   8   2   44.30   13.60 
   0   8   2   39.60   11.90 
   8   0   2   30.70    6.70 
   0  -8   2   39.20    9.70 
   2   8  -2    9.90    5.00 
   2   8  -2    2.80   10.10 
   8  -2  -2    5.00    5.20 
  -8   2  -2   17.60   13.90 
  -2  -8  -2   11.00    4.70 
   2   8  -2    9.90    5.70 
  -2  -8  -2    8.80    7.30 
   2   8  -2    0.80    7.50 
   2   8  -2    2.50   12.20 
   8  -2  -2   14.90   13.10 
   8  -2  -2   25.00   19.30 
  -2  -8  -2   10.90    5.40 
  -8   2  -2    6.60    3.70 
  -2  -8   2    8.00    3.40 
   2   8   2    8.10    7.40 
   8  -2   2    3.90    6.20 
   8  -2   2   11.80    7.60 
  -8   2   2    3.80    4.10 
   8  -2   2   13.90   12.30 
  -8   2   2   14.10   16.60 
   2   8   2    9.30    8.60 
   2   8   2    5.60    4.50 
   2   8   2    5.60    7.40 
  -2  -8   2   12.10    4.60 
   8  -4  -2    4.70    7.60 
   4   8  -2    0.50    6.90 
  -8   4  -2   -2.10    7.60 
  -4  -8  -2    8.50   10.90 
   4   8  -2    2.40   10.00 
  -4  -8  -2    7.00    4.80 
  -8   4  -2   14.10    4.60 
   8  -4  -2   39.60   18.20 
  -8   4  -2   21.40   24.40 
  -4  -8  -2    9.30    5.40 
   4   8  -2    3.60    5.10 
   4   8   2    2.80    8.30 
   4   8   2    6.90    4.60 
   8  -4   2   17.60   13.70 
  -8   4   2    4.40    5.50 
  -4  -8   2   13.00    5.20 
  -8   4   2    8.30    4.60 
  -4  -8   2    1.00    3.70 
   4   8   2   10.70    5.90 
   4   8   2   14.30    9.50 
  -8   4   2   -0.20   17.30 
   8  -4   2   24.40   10.90 
  -8   6  -2    8.90    8.50 
   8  -6  -2    8.50   14.70 
  -6  -8  -2   20.40    7.80 
  -8   6  -2    1.20    4.70 
  -6  -8  -2    5.10    5.40 
   6   8  -2   13.80   14.60 
   6   8  -2    3.90    8.80 
   6   8  -2   21.90   14.80 
   6   8  -2    3.30    5.90 
  -8   6  -2    8.50   20.50 
   8  -6  -2   23.50   19.50 
  -6  -8  -2    7.50    4.80 
  -6  -8   2    8.60    7.40 
  -6  -8   2   16.20    6.20 
   6   8   2    7.80   11.00 
  -6  -8   2    6.00    4.30 
   6   8   2    5.60    8.60 
  -8   6   2   13.70    6.60 
   8  -6   2    3.10   12.80 
   8  -6   2   31.80   12.70 
   8  -6   2   16.80    8.90 
  -8   6   2   27.30   14.70 
   8  -6   2    7.00   17.80 
  -8   6   2    8.20    8.50 
   6   8   2   16.30   11.30 
  -8   8  -2    2.40   13.00 
   8   8  -2   -4.20    7.20 
  -8   8  -2   33.20   18.70 
   8  -8  -2   49.30   28.10 
  -8  -8  -2    7.10    6.50 
   8  -8  -2   24.60   21.70 
   8   8  -2    9.90   12.00 
   8  -8  -2   21.20   24.40 
  -8   8  -2   14.90    9.70 
  -8  -8  -2    8.30    7.10 
   8   8  -2    5.20   14.20 
   8   8   2   15.20    8.30 
  -8  -8   2   15.10   10.10 
   8  -8   2   -2.40    9.60 
   8  -8   2    6.20   15.30 
  -8   8   2   12.10   12.70 
   8  -8   2   -0.10   27.80 
  -8  -8   2    9.50    7.10 
  -8   8   2    7.90    8.00 
   8   8   2   11.50   15.00 
  -8  -8   2    8.20    5.30 
  -9  -7  -2  104.29   15.40 
   9   7  -2  106.09   15.60 
   7  -9  -2  195.08   33.50 
   7  -9  -2  210.78   46.40 
  -7   9  -2  169.78   25.30 
  -9  -7  -2   97.69   14.20 
   9   7  -2   90.69   21.30 
   9   7  -2   92.79   30.50 
  -7   9  -2   93.89   19.40 
  -7   9   2  114.59   17.30 
   7  -9   2   83.99   44.10 
   9   7   2   85.69   14.60 
   7  -9   2  101.99   15.80 
  -9  -7   2   95.99   14.60 
  -9  -7   2   97.99   12.80 
  -9  -7   2  111.49   18.90 
   7  -9   2   97.49   26.00 
   9   7   2   80.19   25.80 
  -7   9   2  173.38   27.60 
   5  -9  -2   84.69   31.90 
  -5   9  -2  107.49   17.50 
  -9  -5  -2  120.39   14.00 
   9   5  -2  100.39   20.60 
  -9  -5  -2   88.39   16.70 
   5  -9  -2   96.59   21.00 
  -5   9  -2  113.89   19.90 
   9   5  -2  133.29   35.00 
   5  -9  -2   90.89   44.40 
  -9  -5  -2  104.49   13.10 
   9   5  -2  125.19   16.60 
  -5   9   2  144.49   18.20 
   5  -9   2   73.19   36.30 
  -5   9   2  192.48   25.80 
  -5   9   2  106.69   20.60 
  -5   9   2  112.89   15.30 
  -9  -5   2  130.89   14.00 
   9   5   2  118.09   15.00 
   5  -9   2  111.29   14.20 
   5  -9   2  116.09   24.50 
   9   5   2  116.99   22.90 
   9   5   2  100.79   29.20 
  -9  -5   2  120.69   13.10 
  -3   9  -2   55.59   26.20 
   3  -9  -2   29.50   10.60 
  -9  -3  -2   25.00    9.30 
   9   3  -2   22.70    7.00 
  -3   9  -2   34.30   20.70 
   3  -9  -2   -0.80   24.20 
  -9  -3  -2   20.50    5.90 
   9   3  -2   29.30   11.60 
  -3   9  -2   27.80    8.50 
   9   3  -2   38.70   20.00 
  -3   9  -2   19.00   11.60 
  -9  -3  -2   28.70    7.00 
   3  -9  -2   41.10   16.90 
   9   3   2   25.60   12.70 
  -3   9   2   39.10   16.70 
  -9  -3   2   17.10    5.90 
  -9  -3   2   19.30   10.00 
   9   3   2   24.40    7.30 
   3  -9   2   30.70    6.70 
   3  -9   2   10.00    8.90 
  -3   9   2   33.20   14.90 
   3  -9   2    7.20   16.00 
  -9  -3   2   25.60    6.30 
  -3   9   2   25.70    7.50 
  -3   9   2   35.20   11.20 
   9   3   2   33.70   20.40 
  -1   9  -2  204.48   36.90 
  -9  -1  -2  154.48   15.90 
   9   1  -2  185.98   25.50 
   1  -9  -2  185.08   24.90 
  -1   9  -2  223.48   38.10 
   1  -9  -2  175.78   19.00 
  -9  -1  -2  161.98   22.20 
  -9  -1  -2  175.98   15.90 
  -1   9  -2  164.18   18.50 
   9   1  -2  191.48   18.60 
  -1   9  -2  194.88   27.30 
  -1   9  -2  176.08   23.20 
  -1   9   2  187.88   25.20 
   9   1   2  216.78   28.80 
  -1   9   2  186.38   26.90 
  -1   9   2  163.88   17.40 
   9   1   2  161.98   18.20 
   1  -9   2  133.49   17.50 
   1  -9   2  175.78   21.70 
  -1   9   2  256.27   29.40 
  -9  -1   2  162.38   24.80 
   1  -9   2  162.28   16.40 
  -9  -1   2  160.28   16.00 
  -9   1  -2  161.08   27.80 
   1   9  -2  213.58   32.20 
  -1  -9  -2  182.78   18.40 
  -9   1  -2  186.78   16.50 
   9  -1  -2  176.58   19.00 
  -1  -9  -2  150.68   21.30 
   1   9  -2  168.28   27.90 
   1   9  -2  180.68   18.50 
  -1  -9  -2  150.88   17.70 
   1   9  -2  186.58   28.70 
   1   9  -2  195.28   21.20 
  -9   1   2  191.88   16.40 
   1   9   2  159.78   20.80 
   1   9   2  202.08   23.90 
   1   9   2  175.88   17.50 
   1   9   2  199.98   25.40 
  -9   1   2  220.58   28.10 
  -9   1   2  156.38   32.50 
   1   9   2  159.88   24.80 
  -1  -9   2  180.48   15.70 
   9  -1   2  163.28   19.40 
   3   9  -2   10.30   10.50 
  -3  -9  -2   32.30    7.60 
  -3  -9  -2   44.40   13.60 
  -9   3  -2   25.50    5.80 
   9  -3  -2   24.00    8.80 
   3   9  -2   16.90   14.10 
  -3  -9  -2   21.20    6.30 
   3   9  -2   24.60    7.80 
   3   9  -2   21.00    7.30 
  -9   3  -2   22.70   22.80 
   9  -3  -2   81.09   22.60 
   3   9  -2   29.90   15.20 
  -9   3  -2   22.10   13.00 
  -9   3   2  -14.20   22.40 
  -3  -9   2   26.60    5.20 
   3   9   2   32.70   12.00 
   3   9   2   23.80    6.90 
   9  -3   2   20.00    7.40 
   9  -3   2   22.90    8.90 
  -3  -9   2   25.80    6.70 
   3   9   2   30.10    8.70 
   9  -3   2   73.79   20.70 
   3   9   2   35.50   13.60 
   3   9   2   33.30   11.90 
  -9   3   2   28.30    6.00 
   5   9  -2  105.09   14.40 
  -9   5  -2  109.29   38.60 
  -9   5  -2   84.59   18.20 
   5   9  -2  102.09   26.00 
   5   9  -2   98.59   28.00 
  -5  -9  -2   95.09   14.60 
  -5  -9  -2   74.59   12.20 
  -9   5  -2  111.09   12.60 
   5   9  -2  119.49   22.70 
   5   9   2   68.39   19.00 
   5   9   2  107.59   13.90 
  -9   5   2  133.09   15.80 
  -5  -9   2  112.09   13.40 
  -5  -9   2   91.19   11.10 
  -9   5   2  186.28   35.40 
   5   9   2  127.89   16.30 
   9  -5   2   94.09   14.00 
   9  -5   2  190.78   29.80 
   5   9   2  146.89   27.10 
   5   9   2  107.29   21.40 
  -9   5   2  114.09   12.60 
   7   9  -2   76.09   15.00 
   7   9  -2   96.29   26.50 
  -7  -9  -2  128.49   14.00 
  -7  -9  -2   89.19   14.80 
   7   9  -2   83.89   28.00 
  -9   7  -2  214.58   38.90 
   7   9  -2   79.49   20.60 
  -9   7  -2  131.59   25.10 
  -9   7  -2  101.09   18.70 
  -9   7   2  101.09   15.70 
  -7  -9   2  117.89   18.40 
  -7  -9   2  101.59   11.90 
   7   9   2   64.49   21.80 
  -7  -9   2  122.09   14.60 
   9  -7   2  153.08   30.90 
   7   9   2   79.99   15.00 
 -10  -6  -2    9.20    6.70 
   6 -10  -2   31.40   18.40 
  10   6  -2   20.50   11.80 
  -6  10  -2   53.29   23.00 
   6 -10  -2   30.70   30.40 
   6 -10  -2  100.09   56.39 
 -10  -6  -2   15.40    7.40 
  -6  10  -2   13.30   12.60 
  -6  10  -2   30.70   12.30 
  10   6  -2   13.40   22.20 
  10   6  -2   31.60   14.70 
  -6  10   2   37.80   15.50 
  -6  10   2   29.70   12.10 
   6 -10   2   12.50    9.10 
   6 -10   2  -16.40   43.20 
 -10  -6   2    4.60   12.60 
  10   6   2   17.30   15.50 
 -10  -6   2   19.40    7.80 
   6 -10   2   15.40   16.80 
  -4  10  -2   60.59   18.00 
   4 -10  -2   42.70   14.00 
  10   4  -2   37.80    9.40 
  -4  10  -2   59.49   34.30 
  -4  10  -2   25.90    9.70 
 -10  -4  -2   24.30    7.90 
  10   4  -2   23.40   14.30 
   4 -10  -2  -16.40   41.40 
 -10  -4  -2   22.00   10.80 
 -10  -4  -2   23.30    8.00 
 -10  -4   2   26.10    7.20 
  10   4   2   37.90   23.60 
  -4  10   2   17.00   12.40 
   4 -10   2   30.80   27.00 
  10   4   2   24.60    8.60 
  -4  10   2   52.69   17.70 
   4 -10   2   32.30    8.50 
  -4  10   2   29.20    8.90 
 -10  -4   2   26.50    7.30 
 -10  -4   2   20.20   12.50 
  10   4   2   40.10   16.80 
   4 -10   2   44.90   16.50 
  -4  10   2   36.70   12.40 
  -2  10  -2   18.30    8.40 
   2 -10  -2   23.20   15.50 
  -2  10  -2   45.30   26.40 
  10   2  -2   25.90   13.10 
 -10  -2  -2   26.70   12.10 
   2 -10  -2    7.90    9.50 
  -2  10  -2   30.20   14.90 
 -10  -2  -2   11.00    5.60 
  10   2  -2   27.50   24.30 
  10   2  -2   16.30   11.20 
  -2  10  -2   61.19   24.20 
 -10  -2  -2   25.00    7.30 
  10   2   2   26.70    8.20 
  10   2   2   16.30   14.70 
  -2  10   2   46.50   14.80 
  10   2   2   41.00   24.50 
  -2  10   2   22.70    7.30 
  -2  10   2   22.80   11.20 
  -2  10   2   14.70   14.20 
 -10  -2   2   15.40    5.40 
   2 -10   2   27.40   11.70 
   2 -10   2   26.70    7.30 
 -10  -2   2   42.10   15.10 
   0  10  -2   46.00   22.50 
  10   0  -2   97.39   34.40 
  10   0  -2   52.29   10.50 
   0  10  -2   25.80   11.70 
  10   0  -2   57.49   17.70 
   0 -10  -2   20.90   12.80 
   0  10  -2   27.90   16.50 
 -10   0  -2   38.90    8.60 
   0  10  -2   42.50   21.00 
   0 -10  -2   27.50    9.50 
 -10   0  -2   41.90   16.60 
   0 -10  -2   29.20   11.00 
   0  10  -2   50.19   10.10 
   0 -10   2   43.70    8.00 
   0  10   2   42.10   16.40 
   0  10   2   46.60   13.90 
  10   0   2   90.59   23.50 
  10   0   2   39.10   11.40 
 -10   0   2   37.40    7.60 
   0 -10   2   49.50    9.10 
   0  10   2   38.80    8.80 
 -10   0   2   30.50   20.40 
   0  10   2   54.49   15.80 
  10   0   2  119.79   37.50 
 -10   2  -2   12.50   22.60 
   2  10  -2   26.20   16.00 
  10  -2  -2   74.19   23.20 
   2  10  -2   14.30   13.50 
  -2 -10  -2   30.80    8.60 
   2  10  -2   26.10   17.00 
  10  -2  -2   79.19   32.40 
  10  -2  -2   20.80    8.50 
   2  10  -2   23.50    9.90 
 -10   2  -2   21.50    5.90 
  -2 -10  -2   17.00    7.60 
   2  10  -2   16.10    7.00 
   2  10   2   13.70   11.30 
   2  10   2   16.20   16.00 
   2  10   2    4.20   13.90 
  10  -2   2   55.29   20.40 
  -2 -10   2   21.10    5.70 
  -2 -10   2   23.40    8.20 
 -10   2   2   16.00    6.00 
   2  10   2   26.20    7.50 
 -10   2   2   -7.10   27.30 
   2  10   2   37.30   14.40 
   4  10  -2   31.20    9.30 
 -10   4  -2   26.20    6.90 
   4  10  -2   25.00   14.60 
   4  10  -2   14.00    8.40 
  -4 -10  -2   22.50    7.70 
 -10   4  -2   31.90   36.90 
 -10   4  -2   29.60   14.50 
   4  10  -2   18.60   19.60 
  -4 -10  -2   32.30    9.70 
  -4 -10   2   20.80    6.10 
   4  10   2   26.40    8.50 
   4  10   2   21.90   14.00 
 -10   4   2   39.00    8.80 
  10  -4   2   51.09   15.20 
  10  -4   2   78.19   24.30 
 -10   4   2   39.10   10.60 
   4  10   2   21.50   13.10 
   4  10   2   37.40   11.30 
   4  10   2   22.60   14.40 
  -4 -10   2   27.80    8.00 
  10  -6  -2   73.49   27.20 
   6  10  -2    3.70   16.60 
 -10   6  -2   19.70   11.80 
  -6 -10  -2   20.50    9.00 
  10  -6  -2   33.40   16.20 
 -10   6  -2   11.60   35.60 
   6  10  -2   16.20    9.20 
  -6 -10  -2   23.30    8.00 
   6  10  -2   12.80   14.70 
   6  10  -2   18.70   11.00 
   6  10  -2    9.90   17.50 
 -10   6  -2   14.10    6.40 
   6  10   2   12.20   14.50 
   6  10   2    9.10   13.70 
  10  -6   2   34.00   20.10 
  10  -6   2   29.70   15.40 
 -10   6   2   18.10   24.10 
  -6 -10   2   31.30    7.20 
  10  -6   2   54.59   21.00 
 -10   6   2   16.90    8.40 
   6  10   2   18.40   15.90 
  -6 -10   2    6.10    6.80 
   6  10   2   21.60   15.70 
   6  10   2   20.80    8.60 
  11   5  -2   10.80    9.60 
 -11  -5  -2  -26.90   13.20 
   5 -11  -2  -22.80   53.49 
 -11  -5  -2   16.90    7.80 
  11   5  -2   34.20   28.20 
  -5  11  -2    9.20   12.60 
  11   5  -2   25.00   14.70 
   5 -11  -2   17.40   28.10 
  -5  11  -2   25.00   34.40 
  -5  11  -2   27.20   11.20 
  -5  11  -2   43.70   26.70 
 -11  -5  -2    6.90    6.50 
   5 -11  -2    6.10   15.70 
   5 -11   2   10.50    9.30 
  -5  11   2   11.10    8.60 
  11   5   2   16.50   22.10 
   5 -11   2   21.80   47.80 
  -5  11   2   19.10   11.90 
  11   5   2   18.20    9.10 
  -5  11   2   22.80   15.60 
 -11  -5   2    7.00    6.70 
  -5  11   2   30.60   19.10 
  11   5   2   17.80   16.70 
 -11  -5   2   15.50    7.50 
 -11  -5   2   17.90   16.10 
   5 -11   2   10.30   16.40 
 -11  -3  -2   56.39   10.40 
  -3  11  -2   53.69   20.30 
   3 -11  -2   46.20   46.00 
   3 -11  -2   34.60   23.20 
 -11  -3  -2   45.20   10.10 
  11   3  -2   57.89   12.10 
   3 -11  -2   55.99   15.80 
  -3  11  -2   49.70   26.00 
  11   3  -2   61.29   17.80 
  -3  11  -2   67.79   34.40 
  -3  11  -2   43.90   11.80 
  11   3  -2   75.99   31.30 
 -11  -3   2   84.69   21.20 
  -3  11   2   56.79   16.00 
   3 -11   2   31.40   10.00 
  -3  11   2   76.49   23.50 
  -3  11   2   40.20   10.30 
  11   3   2   43.00   11.20 
  11   3   2   93.19   33.60 
  -3  11   2  106.09   24.70 
 -11  -3   2   66.39   10.90 
   3 -11   2   39.90   16.00 
  11   1  -2   25.30   26.60 
  -1  11  -2   32.70   21.40 
  11   1  -2   19.90   13.80 
  -1  11  -2   31.70   17.30 
  -1  11  -2   23.70   23.60 
   1 -11  -2   24.60   10.50 
 -11  -1  -2   10.90   15.50 
  -1  11  -2   14.10   14.90 
 -11  -1  -2   11.70    6.80 
   1 -11  -2   24.90   15.70 
  11   1  -2   14.50    8.20 
  -1  11  -2   27.40    9.60 
  -1  11   2   43.80   19.30 
   1 -11   2   14.00   11.40 
 -11  -1   2   13.70   20.40 
  -1  11   2   32.10   14.40 
  -1  11   2   25.70   17.00 
  -1  11   2   31.90   13.30 
  -1  11   2   18.90    7.90 
  11   1   2   26.30   18.40 
   1 -11   2   17.60    8.30 
   1 -11   2    8.60    8.20 
  11   1   2   68.89   31.70 
 -11  -1   2    9.00    7.40 
  11   1   2   11.50    8.70 
   1  11  -2   23.40    9.50 
   1  11  -2   25.50   18.90 
   1  11  -2   15.30   12.30 
  -1 -11  -2   11.80    8.60 
   1  11  -2   29.30   21.60 
   1  11  -2   28.50   19.80 
  -1 -11  -2   22.50    9.60 
  11  -1  -2   25.20    9.30 
 -11   1  -2    6.80   22.20 
 -11   1  -2   18.50    7.30 
  11  -1  -2   52.49   20.80 
 -11   1   2   21.30    6.80 
  11  -1   2   20.80    9.90 
   1  11   2   28.40   16.50 
 -11   1   2   37.30   30.60 
   1  11   2   33.40   12.70 
  -1 -11   2   22.90    6.90 
   1  11   2   26.40    8.30 
   1  11   2   39.60   14.80 
  -1 -11   2   16.20    7.50 
  11  -1   2   43.90   20.30 
   1  11   2   19.60   13.00 
   3  11  -2   59.99   25.40 
  -3 -11  -2   37.10   10.20 
 -11   3  -2   27.20   15.10 
   3  11  -2   44.50   18.40 
   3  11  -2   40.50   22.00 
   3  11  -2   49.80   11.20 
   3  11  -2   58.29   14.20 
  11  -3  -2  129.19   31.40 
 -11   3  -2   40.50    8.90 
  11  -3  -2   42.80   12.50 
  -3 -11  -2   31.30   10.10 
 -11   3  -2  -30.30   36.30 
 -11   3   2   39.10    8.60 
   3  11   2   65.39   22.80 
   3  11   2   43.30   10.20 
  11  -3   2   93.49   27.30 
  11  -3   2   57.99   14.00 
 -11   3   2    0.20   39.60 
   3  11   2   69.39   19.80 
  -3 -11   2   40.10    8.00 
   3  11   2   38.30   13.50 
   3  11   2   26.30   14.40 
 -11   3   2   41.90   12.60 
  -5 -11  -2    3.20    7.80 
   5  11  -2    9.80   19.50 
  11  -5  -2   47.40   24.60 
 -11   5  -2    8.70    6.20 
  11  -5  -2   15.80   13.50 
 -11   5  -2   14.20   12.90 
   5  11  -2    4.90   14.40 
   5  11  -2   -0.80   10.80 
   5  11  -2  -10.40   17.60 
   5  11  -2   22.60    9.90 
   5  11   2   23.70   15.50 
   5  11   2   15.30    8.60 
 -11   5   2   21.20   32.70 
  -5 -11   2    6.20    7.70 
  -5 -11   2   -1.90    5.70 
   5  11   2   15.00   11.50 
 -11   5   2   10.40    6.00 
   5  11   2   16.50   16.60 
  11  -5   2   18.50   18.90 
   5  11   2    8.60   13.60 
 -11   5   2   14.30    9.10 
 -12  -2  -2    7.40    7.30 
  12   2  -2    5.30    9.80 
  -2  12  -2   -5.80   13.20 
  -2  12  -2   10.40   24.20 
  -2  12  -2   -5.20   19.80 
  -2  12  -2    6.50   23.50 
  12   2  -2   -8.30   27.90 
   2 -12  -2   -3.20   11.40 
  -2  12  -2    4.20    9.90 
 -12  -2  -2   10.90   18.50 
   2 -12  -2  -10.00   17.90 
  12   2  -2    0.10   13.20 
  -2  12   2   47.80   31.70 
 -12  -2   2    6.90   22.90 
 -12  -2   2   -0.10    5.90 
  12   2   2  -17.70   23.60 
  -2  12   2   -3.90   12.10 
  -2  12   2    0.10   17.10 
   2 -12   2    6.90   12.80 
  -2  12   2   12.00   11.80 
   2 -12   2   -0.20    7.70 
  12   2   2    7.00    9.60 
  12   2   2    8.60   18.80 
   0 -12  -2   64.59   15.80 
 -12   0  -2   73.09   12.60 
  12   0  -2   85.29   25.50 
   0 -12  -2   46.20   18.00 
   0  12  -2  102.49   31.70 
  12   0  -2  170.38   47.60 
   0 -12  -2   64.49   21.10 
   0  12  -2  101.79   30.90 
   0  12  -2   79.39   23.40 
 -12   0  -2   97.99   30.50 
   0  12  -2   56.79   13.80 
   0  12  -2   96.59   24.80 
  12   0   2  140.69   35.00 
 -12   0   2   65.89   39.30 
   0  12   2   82.79   21.40 
  12   0   2   66.29   14.50 
   0 -12   2   78.89   13.20 
 -12   0   2   87.59   12.90 
   0  12   2   63.69   13.20 
   0  12   2   85.79   19.10 
   0 -12   2   64.89   13.00 
   0  12   2  118.09   29.70 
 -12   2  -2  -11.60   38.60 
   2  12  -2   19.40    9.70 
   2  12  -2  -14.70   16.60 
  -2 -12  -2   -4.50    8.20 
   2  12  -2   15.30   13.90 
   2  12  -2    6.30   18.30 
  12  -2  -2    8.30   18.20 
  12  -2  -2    9.00   10.80 
 -12   2  -2    4.50    6.60 
   2  12  -2   -2.70   16.90 
  -2 -12  -2   14.10   10.20 
   2  12   2   -2.40    7.80 
  -2 -12   2    4.50    7.70 
   2  12   2   -3.90   15.60 
  -2 -12   2    5.40    6.40 
   2  12   2   -7.70   11.70 
 -12   2   2   27.70   49.40 
 -12   2   2   13.90   11.70 
   2  12   2    1.20   12.10 
  12  -2   2   -8.70    9.90 
 -12   2   2    0.70    5.60 
  12  -2   2  -12.90   19.70 
   2  12   2   -1.40   15.00 
   1   0  -3    4.20    1.70 
   0   1  -3    0.50    1.80 
   0  -1  -3    3.60    1.00 
  -1   0  -3    6.70    1.10 
  -1   0  -3    4.80    0.90 
   0   1  -3    1.60    0.80 
   0  -1  -3   -0.80    1.50 
   1   0  -3    7.70    2.80 
   0  -1  -3    3.40    2.20 
   0   1  -3    4.30    2.30 
   1   0  -3    4.10    1.70 
   1   0   3    3.90    1.30 
  -1   0   3    4.50    1.10 
   0  -1   3   -0.30    2.20 
   1   0   3    3.60    0.90 
  -1   0   3    3.60    1.40 
   1  -2  -3 7069.99  449.46 
   1  -2  -3 6401.86  449.16 
   1  -2  -3 6615.74  445.86 
  -1   2  -3 6921.31  451.65 
  -1   2  -3 7398.26  445.36 
  -2  -1  -3 6817.92  445.66 
   1  -2  -3 6120.59  447.16 
  -2  -1   3 6577.64  448.36 
  -1   2   3 6332.47  444.86 
   2   1   3 6464.15  444.46 
  -2   1  -3 7430.76  479.65 
   2  -1  -3 6559.34  478.85 
   1   2  -3 7269.77  482.05 
  -1  -2  -3 7767.02  480.55 
   2  -1   3 7226.08  481.05 
   1   2   3 6871.41  479.15 
  -2   3  -3  706.13   50.29 
  -3  -2  -3  701.73   48.40 
   3   2  -3  703.63   47.90 
  -3  -2  -3  691.73   51.29 
   3   2  -3  719.23   50.79 
  -3  -2  -3  579.14   54.39 
   3   2  -3  717.63   49.10 
   3   2  -3  718.13   53.09 
  -2   3  -3  749.82   48.50 
   3   2  -3  725.13   48.80 
  -3  -2  -3  717.73   48.90 
  -2   3  -3  691.13   57.09 
  -2   3  -3  761.12   53.29 
   2  -3  -3  629.24   57.29 
   2  -3  -3  604.54   57.29 
  -3  -2  -3  729.73   48.60 
   3   2  -3  740.23   57.39 
   2  -3   3  817.72   52.79 
  -2   3   3  764.52   50.89 
  -3  -2   3  692.73   49.40 
   3   2   3  728.03   48.90 
  -3  -2   3  767.92   48.10 
  -2   3   3  689.73   50.59 
  -3  -2   3  650.43   51.79 
   2  -3   3  687.33   48.50 
   3   2   3  723.53   48.20 
   3   2   3  625.64   55.19 
  -3  -2   3  719.03   51.49 
  -2   3   3  629.64   51.29 
   3   2   3  730.13   48.20 
  -3  -2   3  623.14   55.59 
   2  -3   3  714.73   47.30 
  -3  -2   3  709.03   48.60 
   2  -3   3  682.13   49.60 
   3   2   3  695.73   51.99 
  -3   0  -3    0.90    1.40 
   0  -3  -3   -0.60    1.60 
   3   0  -3    1.90    1.90 
   0  -3  -3    2.00    1.90 
   3   0  -3    2.60    1.90 
   0   3  -3   -0.10    3.10 
  -3   0  -3    1.40    1.20 
   3   0  -3    1.30    2.40 
  -3   0  -3    0.10    0.90 
   0  -3  -3   -0.70    1.90 
   0   3  -3    0.10    2.90 
   0   3  -3    0.40    1.40 
   0  -3  -3    1.00    2.60 
   0   3  -3   -1.70    2.60 
   3   0  -3    1.90    3.90 
  -3   0  -3    0.40    5.90 
  -3   0  -3   -2.80    5.80 
   0  -3  -3    0.10    2.20 
   0   3  -3   -1.30    1.30 
   3   0  -3    1.80    1.50 
   0  -3   3    0.10    3.30 
   0   3   3    0.90    1.50 
   0   3   3    4.70    1.50 
   0  -3   3   -1.40    3.10 
  -3   0   3    5.40    2.60 
   3   0   3    0.50    2.90 
   0  -3   3    0.10    0.90 
   0   3   3    0.00    1.00 
  -3   0   3    0.40    4.50 
   3   0   3    0.40    0.80 
   3   0   3    0.50    0.80 
   3   0   3    8.20    2.60 
   0   3   3    0.60    2.20 
  -3   0   3    4.00    2.30 
   0   3   3    3.10    2.40 
  -3   0   3   -1.10    2.60 
   2   3  -3  726.53   47.10 
   2   3  -3  672.73   55.39 
   2   3  -3  732.43   48.80 
  -3   2  -3  726.73   52.79 
   2   3  -3  691.23   50.59 
   2   3  -3  718.43   48.10 
  -3   2  -3  564.94   56.29 
   2   3  -3  600.94   53.29 
  -2  -3  -3  687.73   49.70 
  -2  -3  -3  734.03   48.30 
  -2  -3  -3  732.83   48.60 
  -3   2  -3  749.73   48.00 
  -2  -3  -3  733.33   48.60 
  -2  -3  -3  649.83   53.69 
   3  -2  -3  814.32   51.09 
  -3   2  -3  557.54   55.29 
  -2  -3   3  721.03   47.10 
  -2  -3   3  588.14   51.49 
   2   3   3  747.13   48.10 
   2   3   3  723.93   48.40 
   3  -2   3  723.73   50.29 
   3  -2   3  704.33   46.80 
   3  -2   3  655.53   54.99 
  -2  -3   3  671.33   54.39 
  -3   2   3  690.43   48.30 
   3  -2   3  704.73   47.70 
  -3   2   3  731.33   48.90 
   2   3   3  640.44   53.19 
  -2  -3   3  718.63   48.10 
  -2  -3   3  701.93   48.80 
  -3   2   3  631.44   51.89 
  -3   2   3  768.82   53.29 
  -2  -3   3  683.03   50.79 
   2   3   3  708.63   48.50 
   2   3   3  662.73   52.19 
   2   3   3  711.63   50.49 
  -3   4  -3  267.77   22.40 
  -3   4  -3  282.97   19.70 
  -4  -3  -3  274.57   19.50 
   4   3  -3  245.18   19.40 
   4   3  -3  253.87   22.30 
   4   3  -3  245.98   18.30 
   4   3  -3  259.07   20.00 
   3  -4  -3  224.88   21.60 
  -3   4  -3  263.87   25.00 
  -4  -3  -3  259.27   19.20 
   4   3  -3  253.37   29.00 
   4   3  -3  239.68   24.40 
   3  -4  -3  174.28   30.80 
  -4  -3  -3  251.07   19.90 
   3  -4  -3  211.88   31.60 
  -3   4  -3  265.47   27.60 
  -4  -3  -3  235.38   22.30 
   3  -4  -3  197.18   29.60 
  -4  -3   3  253.37   20.50 
   4   3   3  254.47   18.80 
   4   3   3  243.58   27.20 
   4   3   3  246.08   19.60 
   3  -4   3  278.37   27.00 
  -3   4   3  241.58   20.50 
  -4  -3   3  216.78   28.20 
  -4  -3   3  263.37   19.40 
   3  -4   3  225.98   18.80 
  -4  -3   3  219.98   23.80 
  -4  -3   3  287.67   18.70 
   4   3   3  260.07   23.80 
  -3   4   3  256.37   22.70 
   3  -4   3  267.87   21.80 
  -3   4   3  220.98   22.50 
   4   3   3  262.47   19.00 
  -4  -3   3  240.28   23.00 
   3  -4   3  255.17   18.10 
   1  -4  -3 2163.78  152.38 
  -1   4  -3 2291.37  157.58 
  -4  -1  -3 2193.68  146.99 
   4   1  -3 2096.09  147.49 
   4   1  -3 2218.78  150.88 
   1  -4  -3 2299.47  150.98 
  -1   4  -3 2250.47  149.19 
   4   1  -3 2148.58  146.99 
   4   1  -3 2242.28  147.89 
   4   1  -3 2273.27  150.58 
   1  -4  -3 2158.08  149.99 
  -1   4  -3 2014.30  155.08 
  -4  -1  -3 2116.59  147.89 
  -1   4  -3 2115.49  146.29 
  -1   4  -3 2201.48  157.68 
  -4  -1  -3 2177.98  146.69 
   1  -4  -3 2023.90  151.08 
   4   1  -3 2480.75  158.98 
   1  -4  -3 2265.17  153.08 
  -1   4  -3 2211.88  148.69 
   4   1   3 2278.57  147.99 
  -4  -1   3 2079.99  151.28 
  -4  -1   3 2224.58  147.29 
  -1   4   3 2174.68  147.69 
   1  -4   3 2145.89  146.19 
  -1   4   3 2202.48  149.69 
  -1   4   3 2290.47  148.09 
   4   1   3 2194.48  146.49 
  -4  -1   3 2114.09  150.88 
  -4  -1   3 2036.80  156.48 
   1  -4   3 2030.80  146.29 
   1  -4   3 2229.18  148.49 
   1  -4   3 2244.58  149.09 
  -4  -1   3 2183.28  146.79 
   1  -4   3 2307.97  155.38 
   4   1   3 2531.55  160.28 
   4   1   3 1931.01  150.98 
  -1   4   3 2222.38  148.79 
   4   1   3 2136.99  146.69 
  -4  -1   3 2213.18  148.89 
  -1   4   3 2096.09  148.39 
  -1  -4  -3 2094.39  148.89 
   1   4  -3 2144.49  152.08 
   4  -1  -3 2391.76  150.28 
   1   4  -3 1943.21  150.78 
   1   4  -3 2191.68  144.29 
  -4   1  -3 2181.88  143.09 
  -1  -4  -3 2159.98  144.09 
   1   4  -3 2162.78  147.49 
   1   4  -3 2175.28  144.29 
  -1  -4  -3 2213.58  143.89 
  -1  -4  -3 2104.19  145.29 
   1   4  -3 2158.28  142.79 
   1   4  -3 2181.28  144.59 
  -1  -4  -3 2058.99  145.29 
  -4   1  -3 2203.78  142.29 
   4  -1  -3 2174.68  145.19 
  -1  -4  -3 2067.89  144.29 
   4  -1  -3 1871.01  144.19 
  -4   1  -3 1976.30  146.99 
   1   4   3 2201.78  143.49 
   1   4   3 2089.09  145.89 
   4  -1   3 2055.39  146.39 
  -4   1   3 1930.41  148.39 
   4  -1   3 2301.47  148.39 
   4  -1   3 2109.89  142.79 
   1   4   3 2178.18  147.99 
  -1  -4   3 1929.41  148.29 
  -1  -4   3 2070.49  148.69 
  -4   1   3 2132.89  143.29 
  -1  -4   3 2194.28  142.89 
  -4   1   3 1890.01  149.79 
   1   4   3 2209.08  144.19 
   4  -1   3 2178.58  142.19 
  -1  -4   3 2175.18  147.49 
  -4   1   3 2201.48  149.59 
   1   4   3 2206.28  143.79 
   1   4   3 2227.28  143.19 
  -1  -4   3 2142.09  141.89 
  -3  -4  -3  259.67   19.90 
  -3  -4  -3  272.77   19.60 
  -4   3  -3  226.58   27.30 
  -3  -4  -3  247.18   27.20 
  -3  -4  -3  260.87   20.10 
  -4   3  -3  233.58   30.10 
   3   4  -3  231.68   25.90 
  -4   3  -3  246.48   25.00 
   3   4  -3  241.18   19.30 
   3   4  -3  266.37   20.40 
  -3  -4  -3  229.78   26.00 
   3   4  -3  228.68   27.70 
  -4   3  -3  264.17   19.30 
  -3  -4  -3  243.98   22.00 
   3   4  -3  271.27   18.40 
   3   4  -3  265.57   22.60 
   4  -3  -3  312.17   23.60 
   3   4   3  235.18   24.50 
   3   4   3  253.47   19.20 
   4  -3   3  280.27   29.90 
   3   4   3  252.47   18.90 
  -4   3   3  242.98   24.70 
  -3  -4   3  269.27   20.60 
  -3  -4   3  255.77   23.20 
  -4   3   3  276.37   24.90 
  -4   3   3  272.17   20.20 
   4  -3   3  266.27   23.10 
   3   4   3  243.18   19.90 
  -3  -4   3  247.08   27.10 
  -3  -4   3  273.17   18.40 
  -3  -4   3  205.98   23.90 
   3   4   3  252.87   19.90 
   3   4   3  215.78   24.70 
  -3  -4   3  246.98   19.30 
   3   4   3  275.27   23.00 
   4  -5  -3 1536.95  119.79 
   5   4  -3 1425.36   96.99 
   5   4  -3 1439.46  119.59 
  -5  -4  -3 1446.66   98.19 
   5   4  -3 1407.76   98.29 
  -5  -4  -3 1324.87  102.49 
  -5  -4  -3 1449.95   99.39 
  -4   5  -3 1438.46  102.89 
  -5  -4  -3 1453.95   98.39 
   4  -5  -3 1694.13  103.19 
   5   4  -3 1336.27  105.79 
  -4   5  -3 1555.24  108.49 
   5   4  -3 1532.65   99.39 
   4  -5  -3 1345.37  116.59 
  -4   5   3 1519.25  100.39 
  -5  -4   3 1476.85  100.19 
   5   4   3 1459.45  104.39 
  -4   5   3 1552.54  103.49 
  -5  -4   3 1233.38  105.49 
   5   4   3 1444.26   97.49 
   5   4   3 1428.36  109.39 
   5   4   3 1425.46   97.69 
   4  -5   3 1390.96  111.39 
   4  -5   3 1522.05  103.19 
   5   4   3 1408.66   98.79 
   5   4   3 1457.55   98.89 
   4  -5   3 1298.17   97.89 
  -5  -4   3 1443.86   97.19 
  -5  -4   3 1427.56  104.19 
  -4   5   3 1369.36  102.89 
  -5  -4   3 1183.78  110.49 
   4  -5   3 1378.36   96.99 
  -2   5  -3 5060.89  331.37 
   5   2  -3 4995.70  328.97 
   5   2  -3 4688.53  327.27 
   5   2  -3 5554.74  343.47 
  -5  -2  -3 4918.61  327.77 
  -2   5  -3 4739.03  330.27 
   2  -5  -3 4432.66  332.77 
   2  -5  -3 4930.41  335.37 
  -5  -2  -3 4450.75  334.07 
  -5  -2  -3 4897.41  327.67 
   5   2  -3 5176.18  333.47 
  -2   5  -3 4880.11  327.07 
  -2   5  -3 4896.31  338.07 
  -5  -2  -3 4857.31  328.97 
   5   2  -3 4868.71  332.37 
   2  -5  -3 4728.23  337.77 
   5   2   3 4872.31  334.17 
   5   2   3 4832.02  327.27 
   5   2   3 5397.76  343.97 
  -2   5   3 5350.96  331.47 
   5   2   3 4803.82  328.57 
  -5  -2   3 4722.53  329.77 
   2  -5   3 4732.03  327.37 
  -5  -2   3 4450.15  332.97 
   2  -5   3 4869.51  330.27 
   2  -5   3 5061.99  332.57 
  -5  -2   3 4567.64  333.87 
  -2   5   3 5425.46  329.87 
  -2   5   3 4724.43  329.07 
  -2   5   3 5090.99  330.67 
  -5  -2   3 5066.49  328.07 
  -5  -2   3 5087.69  327.57 
   5   0  -3    0.00    4.70 
   0   5  -3    0.00    2.10 
   5   0  -3   -0.90    2.70 
   0  -5  -3    7.50    5.30 
   5   0  -3   -0.50    7.30 
   0   5  -3   -1.50    2.50 
   5   0  -3    2.00    2.50 
  -5   0  -3    3.30   10.20 
   0   5  -3    1.00    5.10 
  -5   0  -3    2.20    1.70 
   0   5  -3   -1.00    5.00 
   5   0  -3   -6.70    2.50 
  -5   0  -3    7.70   10.90 
  -5   0  -3    4.20    2.00 
   0  -5  -3   20.70    4.80 
  -5   0  -3    3.90    3.40 
   0   5  -3    0.90    1.80 
   0   5  -3    3.00    5.20 
   0   5  -3   -0.40    2.20 
   0  -5  -3    0.90    3.40 
   0  -5  -3   -2.40    3.70 
   0   5   3    1.70    2.70 
   5   0   3   -1.80    2.30 
  -5   0   3    5.80    8.10 
   5   0   3    2.90    2.70 
   5   0   3    6.60    5.60 
   0  -5   3    1.90    2.30 
  -5   0   3    1.50    2.00 
   0  -5   3    1.90    1.70 
   0  -5   3    0.50    6.00 
   5   0   3   -0.30    1.80 
   0   5   3   -3.00    2.00 
   0   5   3   -0.70    1.80 
   0  -5   3    1.00    5.70 
  -5   0   3   -2.40    3.20 
   0   5   3    0.60    3.70 
  -5   0   3    3.00    6.60 
   5   0   3   11.60    9.20 
  -2  -5  -3 4675.93  324.27 
  -2  -5  -3 4852.51  316.17 
   2   5  -3 4835.52  315.47 
   5  -2  -3 4521.35  318.37 
  -5   2  -3 5053.79  315.77 
   2   5  -3 4467.95  326.47 
   2   5  -3 4599.04  327.47 
  -5   2  -3 4095.29  326.77 
   2   5  -3 4723.43  316.97 
   2   5  -3 5138.99  319.77 
  -5   2  -3 4135.29  333.67 
  -5   2  -3 4233.18  327.57 
  -2  -5  -3 4945.21  318.67 
  -2  -5  -3 4661.83  318.77 
  -2  -5  -3 4956.90  316.77 
  -2  -5  -3 4580.94  318.57 
   2   5  -3 4755.52  320.67 
   5  -2   3 5413.96  321.97 
  -5   2   3 4359.26  322.97 
  -2  -5   3 4566.74  320.17 
   5  -2   3 4749.32  314.47 
   5  -2   3 4820.82  315.57 
   2   5   3 4686.13  319.57 
   2   5   3 4864.91  317.07 
  -2  -5   3 4635.44  322.97 
  -5   2   3 4675.73  317.97 
  -5   2   3 4831.22  315.97 
   5  -2   3 5017.90  322.67 
   2   5   3 4814.12  316.07 
  -2  -5   3 4283.27  325.47 
   2   5   3 5153.18  323.17 
  -2  -5   3 4876.21  315.67 
   2   5   3 4864.21  316.47 
   4   5  -3 1448.76   95.89 
   4   5  -3 1435.16   96.99 
  -4  -5  -3 1477.75   96.89 
  -4  -5  -3 1388.46   99.79 
  -4  -5  -3 1462.45   95.89 
  -4  -5  -3 1322.37  105.19 
   4   5  -3 1472.05  103.99 
  -5   4  -3 1526.05  108.49 
  -5   4  -3 1459.45  112.09 
   4   5  -3 1261.47  104.89 
  -5   4  -3 1534.95  107.09 
  -5   4  -3 1396.46  103.89 
   4   5  -3 1310.97  109.29 
   4   5  -3 1453.45   94.49 
  -4  -5  -3 1474.55   96.99 
  -5   4  -3 1385.16   95.49 
  -4  -5  -3 1227.58  106.89 
   5  -4   3 1154.88   96.89 
  -4  -5   3 1176.88  102.89 
  -5   4   3 1478.95  102.89 
   4   5   3 1344.37  109.29 
  -5   4   3 1482.85  102.09 
  -4  -5   3 1395.96   97.29 
   4   5   3 1383.36   95.39 
   4   5   3 1506.65   96.79 
   4   5   3 1431.96   94.99 
  -5   4   3 1520.65   97.29 
   5  -4   3 1395.76   95.89 
  -4  -5   3 1324.77   95.09 
  -4  -5   3 1324.77  106.99 
  -4  -5   3 1309.07  100.79 
   4   5   3 1194.68  102.09 
  -4  -5   3 1457.35   95.99 
   4   5   3 1438.16  101.09 
   4   5   3 1415.86   96.79 
   5  -4   3 1403.56  101.79 
   6   5  -3  582.84   43.60 
  -5   6  -3  646.84   51.79 
   6   5  -3  541.65   57.79 
  -6  -5  -3  575.04   42.20 
   6   5  -3  614.04   48.30 
   6   5  -3  561.64   41.10 
   6   5  -3  581.04   51.99 
  -6  -5  -3  529.15   42.40 
   6   5   3  568.44   43.20 
   6   5   3  503.65   52.49 
   5  -6   3  571.24   41.50 
  -5   6   3  610.54   48.30 
   5  -6   3  595.54   49.10 
   5  -6   3  437.46   56.49 
   5  -6   3  533.65   42.80 
  -5   6   3  645.54   45.10 
  -6  -5   3  600.34   41.40 
   6   5   3  576.24   45.50 
  -6  -5   3  588.04   44.90 
   6   5   3  556.04   49.10 
  -6  -5   3  594.84   42.70 
  -6  -3  -3   49.50    6.90 
  -6  -3  -3   16.30   17.40 
  -6  -3  -3   54.69    9.00 
   6   3  -3   73.59   19.20 
   3  -6  -3   45.00   10.10 
   6   3  -3   59.99    7.90 
   3  -6  -3   45.20   13.40 
   3  -6  -3   58.49   24.80 
   3  -6  -3   84.69   14.00 
  -3   6  -3   66.49   17.50 
   3  -6  -3   40.80   18.40 
   6   3  -3   54.79    7.30 
  -6  -3  -3   57.99    6.80 
  -3   6  -3  123.69   27.40 
  -3   6  -3  108.69   16.50 
   6   3  -3   56.49   11.80 
  -6  -3  -3   50.19   13.80 
   6   3  -3   56.09   12.80 
  -6  -3   3   39.70   13.80 
   3  -6   3  102.79   22.60 
  -3   6   3   56.89   11.00 
  -3   6   3   59.19   10.00 
   3  -6   3   79.99   12.30 
  -6  -3   3   60.09    6.90 
  -3   6   3   59.39    8.60 
   6   3   3   54.19   17.20 
   6   3   3   51.69   12.70 
   6   3   3   52.59    7.00 
  -6  -3   3   66.09    7.50 
  -6  -3   3   57.59   14.10 
   6   3   3   59.39    8.00 
   3  -6   3   69.19   14.90 
   3  -6   3   51.39    6.20 
  -3   6   3   60.09   10.00 
   3  -6   3   50.19    7.40 
  -6  -3   3   67.19    9.50 
  -1   6  -3  821.52   56.19 
  -1   6  -3  860.21   72.29 
   1  -6  -3  872.61   63.29 
  -1   6  -3  798.22   59.19 
   6   1  -3  726.43   57.49 
   6   1  -3  777.42   57.09 
   1  -6  -3  798.02   63.09 
  -6  -1  -3  799.72   59.19 
  -6  -1  -3  831.22   56.59 
   6   1  -3  785.72   57.99 
  -1   6  -3  840.22   59.29 
   6   1  -3  827.02   63.09 
  -1   6  -3  795.82   69.19 
  -6  -1  -3  821.52   57.09 
   1  -6  -3  857.61   64.29 
  -1   6  -3  825.72   67.79 
   1  -6  -3  846.32   60.09 
   1  -6  -3  772.62   64.99 
  -6  -1   3  693.73   63.99 
  -6  -1   3  803.02   60.79 
  -6  -1   3  824.12   56.89 
   6   1   3  778.52   56.49 
  -1   6   3  815.82   57.89 
  -1   6   3  898.81   62.19 
  -6  -1   3  744.83   69.69 
   1  -6   3  716.23   56.49 
  -6  -1   3  878.51   63.99 
   1  -6   3  812.92   59.59 
   6   1   3  894.51   58.89 
  -1   6   3  787.42   57.19 
   1  -6   3  874.91   60.69 
  -1   6   3  839.52   58.89 
   6   1   3  807.02   56.39 
   1  -6   3  755.92   65.79 
   6   1   3  840.32   64.89 
   1  -6   3  900.41   67.79 
   6  -1  -3  675.53   56.79 
   6  -1  -3  701.63   57.09 
   1   6  -3  836.52   57.49 
   1   6  -3  798.72   62.89 
   1   6  -3  788.82   67.09 
  -6   1  -3  768.52   61.39 
  -1  -6  -3  748.43   56.79 
   1   6  -3  792.82   57.69 
   1   6  -3  773.92   57.59 
   1   6  -3  796.72   55.19 
  -1  -6  -3  840.62   59.99 
  -1  -6  -3  819.02   57.09 
   6  -1  -3  827.22   57.99 
   1   6  -3  744.43   67.39 
  -1  -6  -3  835.12   57.49 
  -6   1  -3  806.32   55.89 
  -1  -6  -3  826.12   59.89 
   6  -1   3  820.32   59.19 
   6  -1   3  765.72   54.69 
  -6   1   3  940.51   66.89 
   6  -1   3  791.42   55.49 
  -6   1   3  782.92   55.69 
  -1  -6   3  812.12   55.49 
  -1  -6   3  789.92   54.29 
   1   6   3  838.92   56.39 
   1   6   3  906.01   62.69 
   1   6   3  827.52   56.99 
  -1  -6   3  764.62   61.99 
  -1  -6   3  786.62   63.99 
  -6   1   3  660.43   67.29 
   1   6   3  803.32   58.69 
  -1  -6   3  753.92   64.49 
   1   6   3  805.42   55.59 
   1   6   3  823.32   61.09 
   1   6   3  810.22   57.89 
  -6   1   3  682.03   65.29 
   3   6  -3   44.30   14.10 
  -6   3  -3   53.09    6.90 
  -6   3  -3   38.20   17.80 
   3   6  -3   51.79   16.10 
  -3  -6  -3   63.79    7.60 
   3   6  -3   67.29   12.60 
  -6   3  -3   60.99   21.40 
  -3  -6  -3   62.39   11.30 
  -6   3  -3   97.79   19.80 
  -3  -6  -3   52.59    8.30 
  -3  -6  -3   39.40   14.10 
   3   6  -3   55.09    8.10 
  -3  -6  -3   38.80   10.60 
   6  -3  -3   87.79   13.10 
   3   6  -3   55.39    7.20 
  -6   3   3   52.29    8.60 
  -3  -6   3   56.09   14.20 
   6  -3   3   55.49    6.30 
  -3  -6   3   44.10   12.00 
  -6   3   3   89.19   22.40 
  -6   3   3   88.99   17.60 
  -3  -6   3   56.49    5.70 
   3   6   3   50.29    8.40 
   6  -3   3  104.79   17.70 
   3   6   3   91.89   19.00 
  -3  -6   3   55.19    6.90 
  -6   3   3   59.39    8.00 
   3   6   3   50.19    7.60 
   6  -3   3   48.50   12.60 
   3   6   3   39.00   10.20 
  -3  -6   3   54.29    8.10 
   6  -3   3   57.39    8.00 
   3   6   3   53.49   11.00 
  -6   5  -3  576.64   51.09 
  -5  -6  -3  613.34   42.20 
  -6   5  -3  636.54   42.30 
   5   6  -3  446.76   50.69 
   5   6  -3  597.34   43.60 
   5   6  -3  579.54   40.50 
  -5  -6  -3  455.25   48.60 
   5   6  -3  568.94   58.19 
  -5  -6  -3  587.04   42.90 
   5   6  -3  660.43   48.90 
  -5  -6  -3  521.35   52.49 
   6  -5   3  607.94   50.19 
  -5  -6   3  573.24   42.10 
  -5  -6   3  579.44   40.50 
   5   6   3  499.35   49.80 
  -5  -6   3  605.14   44.30 
  -6   5   3  589.74   49.70 
   5   6   3  571.74   43.10 
  -6   5   3  621.44   43.60 
   6  -5   3  471.55   42.80 
   5   6   3  606.14   49.00 
   5   6   3  509.65   50.59 
   6  -7  -3  209.48   34.00 
  -7  -6  -3   87.59   10.40 
  -7  -6  -3   83.99   10.90 
  -6   7  -3   84.39   17.40 
  -6   7  -3   96.59   19.80 
   7   6  -3   70.49   11.40 
   7   6  -3   66.49   22.70 
   7   6  -3   81.59   16.20 
  -7  -6  -3   65.19   11.80 
   6  -7  -3  177.18   34.00 
   7   6  -3   81.09   19.70 
   6  -7  -3  108.99   33.20 
  -6   7   3   69.19   15.90 
  -7  -6   3   84.79   13.90 
   7   6   3   69.89   16.60 
   6  -7   3   65.39   28.80 
   7   6   3   48.00   17.70 
   6  -7   3   57.89    9.70 
   7   6   3   74.09   10.90 
  -6   7   3   76.49   12.00 
  -7  -6   3   73.59    9.60 
  -6   7   3  127.79   16.50 
   6  -7   3   83.99   17.90 
  -7  -6   3   75.29    9.00 
   4  -7  -3   60.79   19.40 
   7   4  -3   90.29   11.30 
   7   4  -3  112.69   26.60 
   7   4  -3  102.99   15.80 
  -4   7  -3  127.49   18.90 
  -7  -4  -3   75.39    9.90 
   7   4  -3  104.19   17.10 
  -4   7  -3  102.59   15.10 
   4  -7  -3   61.29   27.00 
   4  -7  -3   69.79   24.00 
  -7  -4  -3   79.69   10.10 
  -7  -4  -3   94.79   12.30 
  -7  -4   3   71.69   12.80 
  -4   7   3  100.19   12.10 
   7   4   3   89.29   11.10 
   7   4   3  103.49   19.20 
  -7  -4   3   85.79    9.60 
  -4   7   3  143.99   20.20 
  -4   7   3  103.69   13.90 
  -4   7   3   88.89   13.90 
   4  -7   3   89.69   22.10 
   4  -7   3   90.09    9.40 
   4  -7   3   86.49   12.00 
  -7  -4   3   91.99   10.30 
   4  -7   3   88.89   14.40 
   7   4   3  125.69   23.80 
  -7  -2  -3  422.96   32.00 
  -2   7  -3  439.36   34.90 
   2  -7  -3  429.36   36.60 
  -7  -2  -3  417.26   34.30 
   2  -7  -3  381.76   41.30 
  -7  -2  -3  462.15   32.00 
  -2   7  -3  419.96   50.39 
  -2   7  -3  433.56   31.10 
   2  -7  -3  350.56   45.60 
  -2   7  -3  437.76   42.50 
   7   2  -3  388.56   37.40 
   7   2  -3  447.16   33.20 
  -2   7   3  436.86   36.80 
   7   2   3  416.96   31.40 
  -7  -2   3  423.56   31.60 
   2  -7   3  442.06   38.00 
  -7  -2   3  447.36   32.30 
   7   2   3  431.56   43.40 
   2  -7   3  428.96   31.10 
   2  -7   3  415.76   35.30 
   2  -7   3  410.76   31.90 
   7   2   3  423.56   33.10 
  -7  -2   3  397.96   40.00 
  -2   7   3  432.86   34.50 
  -7  -2   3  420.26   35.80 
   0   7  -3    0.80    3.50 
  -7   0  -3   -1.30    2.40 
   0  -7  -3   -0.80    8.60 
   0   7  -3    5.00    8.90 
   0  -7  -3    4.60    4.00 
   7   0  -3   -0.90   11.60 
   0   7  -3   -0.10    7.00 
   0   7  -3   20.70   12.50 
   7   0  -3    1.30    3.70 
   0   7  -3    2.90    3.90 
   0  -7  -3    0.10    4.80 
  -7   0  -3    5.30    5.50 
   7   0  -3   -5.40    5.10 
  -7   0  -3    2.80    3.30 
  -7   0   3    0.70    2.70 
   0   7   3    1.90    3.00 
   7   0   3   19.60   14.90 
  -7   0   3   17.30    9.10 
   0  -7   3    2.10    3.00 
   0   7   3    2.10    4.00 
  -7   0   3    0.80    6.90 
   7   0   3   -8.30    8.70 
   0  -7   3   10.80   12.10 
   7   0   3   -1.40    3.60 
   0  -7   3    5.20    4.20 
   0   7   3    3.80    5.60 
   0   7   3   -3.70    6.90 
   7   0   3   -1.90    2.50 
   0   7   3    0.10    4.70 
   0   7   3    6.30    5.20 
  -2  -7  -3  418.86   32.10 
  -2  -7  -3  378.26   31.10 
   2   7  -3  451.75   38.70 
  -2  -7  -3  421.56   35.10 
   2   7  -3  391.46   32.40 
  -2  -7  -3  397.36   33.30 
  -7   2  -3  454.45   30.90 
  -7   2  -3  304.37   39.90 
   2   7  -3  415.06   30.30 
   2   7  -3  406.56   42.90 
   7  -2  -3  376.66   32.70 
   2   7  -3  435.26   32.40 
   7  -2   3  372.06   34.00 
   2   7   3  383.76   32.50 
  -2  -7   3  414.46   38.40 
  -7   2   3  381.06   30.20 
   7  -2   3  403.26   29.40 
   2   7   3  355.76   33.70 
   2   7   3  387.76   36.20 
  -7   2   3  428.46   46.20 
  -7   2   3  274.17   42.30 
   2   7   3  448.66   32.00 
   2   7   3  449.16   38.40 
   2   7   3  424.96   31.20 
  -2  -7   3  425.26   29.00 
  -4  -7  -3   98.89   11.20 
   4   7  -3   66.49   18.90 
  -4  -7  -3   91.79   17.10 
   4   7  -3  102.29   15.40 
   4   7  -3   82.69   11.10 
   7  -4  -3  129.99   17.10 
  -7   4  -3   91.09   19.30 
   4   7  -3   51.89   19.30 
  -7   4  -3   80.49    9.50 
  -4  -7  -3   77.79    9.80 
  -4  -7   3  102.39   12.00 
  -4  -7   3   74.19    8.10 
   4   7   3   75.29   17.20 
  -4  -7   3   83.39    9.90 
   7  -4   3   77.19    9.10 
   4   7   3   51.29   13.40 
   4   7   3   83.39   15.80 
  -7   4   3  197.28   31.50 
  -7   4   3   94.29   21.60 
   7  -4   3  102.19   19.70 
  -7   4   3   78.49    9.70 
  -7   4   3   94.29   11.40 
   4   7   3   82.69   10.90 
   6   7  -3   72.79   15.80 
  -6  -7  -3   70.59   10.40 
   6   7  -3   77.99   11.60 
  -6  -7  -3   69.79   11.30 
  -7   6  -3  112.99   27.50 
  -7   6  -3   77.29   27.50 
  -6  -7  -3   62.39   11.50 
   6   7  -3   63.29   22.40 
   6   7  -3   75.69   19.80 
  -7   6  -3   77.89   10.80 
   7  -6   3   58.99   10.00 
   6   7   3   86.19   18.20 
   7  -6   3  190.98   35.60 
   7  -6   3   75.99   18.60 
   6   7   3   71.49   19.30 
  -6  -7   3   67.19   10.50 
  -7   6   3  111.89   18.40 
   6   7   3   83.29   11.60 
  -6  -7   3   70.69    8.60 
  -6  -7   3   63.29   11.90 
  -7   6   3   71.89   11.00 
   7  -6   3   64.69   11.70 
  -7   6   3  141.49   21.40 
  -7   8  -3  108.79   23.20 
  -7   8  -3  153.28   35.40 
  -8  -7  -3   65.79   13.60 
   7  -8  -3  154.98   36.00 
  -7   8  -3   70.89   17.40 
   8   7  -3   88.79   22.20 
  -8  -7  -3   75.99   12.30 
   8   7  -3   62.39   24.00 
   8   7  -3   57.59   19.10 
   7  -8  -3  116.19   42.80 
  -8  -7  -3   56.79   10.10 
   7  -8  -3  199.78   36.30 
   8   7   3   62.49   17.40 
   8   7   3   51.19   11.30 
  -8  -7   3   77.29   13.50 
  -8  -7   3   68.09    9.90 
   8   7   3   43.30   20.10 
  -8  -7   3   37.20   13.30 
   7  -8   3  108.69   38.90 
  -7   8   3  110.89   18.10 
   7  -8   3   56.39   10.70 
   7  -8   3   53.69   18.00 
  -7   8   3   89.59   14.10 
  -8  -5  -3  915.91   67.59 
  -8  -5  -3  953.10   68.19 
   8   5  -3  911.31   68.89 
   8   5  -3 1063.49   91.89 
  -5   8  -3 1134.09   74.39 
   8   5  -3  932.61   75.49 
  -5   8  -3 1030.50   78.09 
   5  -8  -3  694.73   89.29 
  -8  -5  -3  896.41   70.19 
  -5   8   3 1040.20   76.79 
   8   5   3  942.01   85.49 
   5  -8   3  907.71   75.79 
  -8  -5   3  881.01   66.59 
   8   5   3  892.51   76.49 
  -5   8   3 1044.80   70.09 
   5  -8   3  953.20   92.49 
  -8  -5   3  951.80   67.99 
  -8  -5   3  888.31   71.39 
   5  -8   3  908.91   66.59 
  -3   8  -3  150.78   22.30 
  -8  -3  -3  151.58   14.30 
  -8  -3  -3  121.29   15.80 
   8   3  -3  177.28   33.00 
   3  -8  -3   90.59   32.40 
   3  -8  -3  207.78   24.40 
   8   3  -3  140.49   15.00 
  -8  -3  -3  136.39   13.80 
   3  -8  -3  131.89   22.00 
  -3   8  -3  120.39   36.50 
   3  -8  -3  105.69   26.10 
   8   3  -3  133.29   19.30 
  -8  -3   3  141.39   18.20 
   3  -8   3  157.48   15.60 
   3  -8   3  136.69   13.20 
  -8  -3   3  139.99   13.70 
   8   3   3  143.79   15.10 
  -3   8   3  158.88   17.40 
   8   3   3  128.59   22.00 
  -3   8   3  131.89   15.00 
   3  -8   3  130.89   18.50 
  -8  -3   3  154.98   13.90 
   8   3   3  189.18   31.60 
   1  -8  -3 1111.29   94.29 
   8   1  -3 1290.67   94.39 
  -1   8  -3 1252.17   84.59 
  -8  -1  -3 1144.39   89.29 
   8   1  -3 1208.58   86.89 
  -8  -1  -3 1208.08   85.59 
  -1   8  -3 1221.78  102.69 
  -1   8  -3 1188.38   87.59 
  -1   8  -3 1321.07   99.89 
   1  -8  -3 1187.48   88.69 
  -8  -1   3 1232.58   92.89 
  -8  -1   3 1433.46   95.69 
  -1   8   3 1422.66   93.99 
   1  -8   3 1023.00   84.89 
   1  -8   3 1147.79   89.19 
   8   1   3 1471.55   99.39 
   8   1   3 1189.58   84.69 
   1  -8   3 1140.79   84.69 
  -1   8   3 1231.68   86.39 
   8   1   3 1266.87   87.69 
  -8  -1   3 1198.68   85.09 
   1   8  -3 1246.98   84.89 
  -8   1  -3 1221.38   83.09 
   8  -1  -3 1167.38   84.89 
  -1  -8  -3 1222.98   85.09 
   1   8  -3 1157.38   85.99 
   1   8  -3  986.80   97.59 
   1   8  -3 1163.58   94.19 
   1   8  -3 1272.17   98.99 
  -8   1  -3 1105.69   91.19 
  -1  -8  -3 1157.88   88.99 
  -1  -8  -3 1148.99   84.69 
  -1  -8   3 1220.58   84.09 
   8  -1   3 1222.78   86.39 
   1   8   3 1313.37   87.49 
   1   8   3 1216.88   86.99 
   1   8   3 1288.67   91.49 
  -8   1   3 1177.18   82.49 
  -8   1   3  953.10   94.19 
  -1  -8   3 1145.99   80.89 
   1   8   3 1235.68   83.69 
   3   8  -3  116.39   26.70 
  -3  -8  -3  132.89   14.40 
   3   8  -3  127.89   14.60 
  -3  -8  -3  130.69   17.60 
   8  -3  -3  136.69   15.80 
  -3  -8  -3  123.99   13.40 
  -8   3  -3  138.09   23.40 
   3   8  -3  109.99   18.80 
  -8   3  -3  123.69   12.70 
  -8   3  -3  105.99   29.10 
   3   8  -3  108.59   27.50 
   3   8  -3  121.29   14.70 
   3   8   3  134.19   18.80 
   3   8   3  100.69   16.40 
   3   8   3  147.19   21.20 
  -8   3   3  136.09   12.50 
   8  -3   3  123.59   12.20 
   3   8   3  134.99   13.60 
   3   8   3  137.09   15.30 
  -8   3   3  124.39   31.30 
  -8   3   3  125.39   15.20 
  -3  -8   3  123.79   11.10 
  -5  -8  -3  931.01   64.19 
   5   8  -3  824.42   82.89 
  -5  -8  -3  878.51   65.39 
  -8   5  -3  777.02   86.19 
   5   8  -3  770.22   77.49 
   5   8  -3  944.21   66.29 
  -8   5  -3  903.91   63.49 
   5   8  -3  923.71   72.39 
  -8   5  -3  964.80   74.69 
   5   8   3  983.60   77.19 
  -8   5   3  922.41   63.99 
  -5  -8   3  886.81   66.29 
  -8   5   3  953.60   65.59 
   8  -5   3  806.32   62.19 
  -5  -8   3  895.41   61.99 
  -5  -8   3  905.71   64.29 
   5   8   3  901.01   71.79 
   5   8   3  717.53   70.09 
  -7  -8  -3   64.79   13.40 
   7   8  -3   80.49   28.90 
   7   8  -3   66.09   19.10 
   8  -7  -3  167.08   31.10 
  -8   7  -3  109.99   27.30 
  -7  -8  -3   67.09   11.40 
  -8   7  -3   54.99   15.30 
  -7  -8  -3   66.79   12.50 
   7   8  -3   74.69   22.20 
   8  -7  -3  172.38   45.20 
  -8   7  -3  142.49   30.30 
  -7  -8   3   59.89    9.50 
   8  -7   3  185.78   38.90 
  -8   7   3  142.29   22.50 
   7   8   3   36.90   16.30 
   7   8   3   68.29   17.40 
  -8   7   3  100.69   18.80 
   8  -7   3   81.69   21.70 
   7   8   3   72.79   13.10 
  -7  -8   3   64.19   11.60 
   8  -7   3   86.69   13.40 
  -7  -8   3   53.29   13.40 
   8  -7   3   70.19   12.70 
  -8   7   3   82.69   12.70 
   9   8  -3   97.79   23.30 
  -9  -8  -3  119.39   17.50 
   8  -9  -3  210.88   40.90 
   9   8  -3   95.99   34.40 
  -9  -8  -3  133.79   15.80 
   9   8  -3   81.59   18.40 
  -8   9  -3   92.39   23.80 
  -9  -8  -3  128.19   26.30 
  -8   9  -3  179.28   35.00 
   8  -9  -3  274.37   41.20 
   8  -9   3   90.29   15.50 
  -9  -8   3   93.09   20.50 
  -8   9   3  129.39   17.90 
  -9  -8   3  153.38   16.80 
   9   8   3   96.09   24.60 
   8  -9   3  100.59   27.40 
   9   8   3   64.19   30.00 
  -9  -8   3  105.69   14.40 
  -8   9   3  194.98   34.50 
   9   8   3  134.79   18.50 
   8  -9   3  274.27   87.49 
  -6   9  -3   67.69   16.00 
  -9  -6  -3   66.99   11.20 
  -6   9  -3  121.09   34.70 
   9   6  -3   60.79   19.40 
  -9  -6  -3   52.99   10.80 
   9   6  -3   68.09   12.30 
   6  -9  -3   65.99   37.00 
  -6   9  -3   73.79   18.60 
   6  -9  -3   25.30   24.40 
   9   6   3   25.60   18.90 
   9   6   3   60.59   17.60 
   6  -9   3   61.79   18.90 
  -6   9   3   66.79   14.00 
   6  -9   3    0.90   34.00 
   9   6   3   47.70   11.30 
  -9  -6   3   54.99   20.70 
  -6   9   3   76.39   13.60 
  -9  -6   3   57.29   10.50 
  -6   9   3   99.89   19.90 
  -9  -6   3   60.29    9.80 
   9   4  -3  162.18   23.30 
   9   4  -3  192.28   37.30 
   4  -9  -3  157.78   38.40 
  -9  -4  -3  182.48   17.10 
   4  -9  -3  101.19   42.30 
  -4   9  -3  177.48   26.40 
  -9  -4  -3  176.08   17.00 
   4  -9  -3  162.78   28.30 
   9   4  -3  164.28   17.90 
  -4   9  -3  170.58   44.00 
  -9  -4  -3  171.68   20.40 
  -4   9  -3  160.28   20.40 
  -9  -4   3  174.18   16.90 
  -4   9   3  212.98   22.10 
   4  -9   3  172.18   16.30 
   4  -9   3  158.68   23.80 
  -4   9   3  173.98   18.30 
   9   4   3  159.88   17.80 
  -4   9   3  161.48   21.70 
  -9  -4   3  157.88   21.60 
  -9  -4   3  168.88   18.00 
   4  -9   3  136.59   33.00 
   9   4   3  215.68   35.60 
  -2   9  -3  563.14   51.09 
  -2   9  -3  490.45   62.79 
  -9  -2  -3  458.85   36.20 
  -9  -2  -3  470.85   37.00 
  -9  -2  -3  422.26   40.40 
   9   2  -3  510.65   38.70 
   9   2  -3  460.85   44.40 
  -2   9  -3  463.75   39.30 
   2  -9  -3  360.86   55.49 
   2  -9  -3  437.16   41.60 
   2  -9  -3  490.15   51.49 
  -9  -2   3  496.75   44.50 
   2  -9   3  536.85   43.40 
   2  -9   3  439.66   37.20 
   2  -9   3  497.45   46.20 
   2  -9   3  452.95   36.20 
  -2   9   3  450.15   37.60 
  -2   9   3  598.14   45.30 
  -9  -2   3  502.65   36.80 
   9   2   3  550.74   49.80 
   9   2   3  474.65   38.60 
   0   9  -3   -7.40   14.90 
   0   9  -3    5.30    7.00 
  -9   0  -3    0.60    9.00 
   0  -9  -3    7.20    8.50 
   9   0  -3    6.70   17.30 
   0   9  -3   -3.60   10.30 
   0  -9  -3    2.60    5.50 
   9   0  -3   -0.60    7.50 
   0   9  -3   -5.80   11.40 
   0   9  -3   -2.00    5.80 
   9   0  -3   -5.00    4.30 
  -9   0  -3    2.00    4.40 
   0  -9   3   -3.10    3.30 
   0   9   3    1.50    6.40 
  -9   0   3    3.60    4.20 
   9   0   3   13.60   15.00 
   0   9   3   -1.40    7.20 
  -9   0   3   13.30   11.50 
  -9   0   3   18.20   13.10 
   0   9   3   -0.90    3.90 
   9   0   3   -1.20    5.10 
   0   9   3   -4.40    8.20 
   9   0   3   -2.60   10.70 
   0  -9   3    3.80    4.40 
   2   9  -3  443.96   37.10 
   2   9  -3  446.96   37.70 
   9  -2  -3  443.76   36.60 
  -9   2  -3  479.05   34.40 
  -2  -9  -3  431.56   36.00 
   2   9  -3  434.66   49.50 
  -9   2  -3  334.07   47.20 
   2   9  -3  395.66   50.39 
   2   9  -3  399.46   43.80 
  -2  -9  -3  411.26   35.10 
  -2  -9   3  481.95   37.70 
   2   9   3  412.56   38.60 
  -9   2   3  440.96   33.60 
   2   9   3  489.65   38.90 
   9  -2   3  429.06   33.10 
   2   9   3  472.55   42.70 
  -2  -9   3  459.95   32.10 
   2   9   3  437.86   34.60 
   9  -2   3  405.26   37.00 
  -9   4  -3  135.09   39.40 
   4   9  -3  106.89   27.50 
  -4  -9  -3  168.58   17.70 
   4   9  -3  153.38   18.30 
  -9   4  -3  146.19   15.10 
   4   9  -3  162.78   24.30 
  -9   4  -3  188.28   25.70 
  -4  -9  -3  156.28   18.10 
   4   9  -3  168.48   36.30 
   4   9  -3  177.58   17.90 
  -9   4   3  267.37   44.10 
   4   9   3  148.79   16.10 
  -4  -9   3  144.69   13.50 
   4   9   3  181.58   25.60 
   4   9   3  101.89   19.50 
  -9   4   3  139.19   14.80 
  -4  -9   3  150.58   15.70 
   9  -4   3  139.49   14.90 
  -9   4   3  167.78   17.60 
   4   9   3  143.69   23.80 
   4   9   3  157.28   18.40 
   9  -6  -3  143.39   23.80 
  -9   6  -3   62.89   10.20 
   6   9  -3   72.09   14.70 
   6   9  -3   45.00   18.80 
   6   9  -3   53.49   22.40 
  -6  -9  -3   49.80    9.80 
   9  -6  -3  159.28   35.10 
  -9   6  -3   83.29   18.10 
  -9   6  -3   21.10   30.30 
  -6  -9  -3   44.10   10.10 
   6   9   3   31.90   16.20 
   9  -6   3   61.99   19.80 
  -9   6   3   85.09   23.00 
   6   9   3   51.99   16.80 
   9  -6   3   61.69   11.00 
  -9   6   3   76.79   16.70 
  -6  -9   3   53.69    8.60 
   6   9   3   67.69   23.20 
   6   9   3   69.29   13.20 
  -6  -9   3   66.79   12.50 
  -9   6   3   58.39   11.00 
   8   9  -3   99.49   29.20 
  -8  -9  -3  106.69   24.30 
  -9   8  -3  233.48   39.90 
   8   9  -3   96.09   22.90 
  -8  -9  -3  113.39   17.60 
   8   9  -3  110.29   18.20 
   8   9  -3   89.39   32.20 
  -9   8  -3  199.68   31.30 
  -8  -9  -3  110.69   16.00 
   9  -8  -3  215.78   37.70 
  -8  -9   3  122.39   13.70 
  -8  -9   3  115.29   15.70 
  -9   8   3  181.98   26.80 
  -9   8   3  133.09   17.80 
   8   9   3   76.39   23.70 
  -9   8   3  192.88   27.30 
   9  -8   3  118.19   17.40 
   8   9   3   85.19   24.20 
   8   9   3  105.49   17.50 
  -8  -9   3  118.99   20.50 
   9  -8   3  242.58   49.60 
  10   5  -3   15.10    7.90 
  -5  10  -3   18.00   13.00 
  -5  10  -3   25.30   22.50 
 -10  -5  -3    3.90    6.10 
  -5  10  -3   13.20   10.30 
  -5  10  -3   31.40   29.10 
   5 -10  -3  -19.50   15.40 
  10   5  -3   22.80   22.20 
 -10  -5  -3   14.00    7.50 
   5 -10  -3    5.00   41.20 
  10   5  -3   17.30   11.60 
   5 -10  -3   23.90   26.10 
   5 -10   3   16.00   14.70 
 -10  -5   3    9.40    6.60 
  10   5   3   17.50   13.10 
  -5  10   3   14.10    7.60 
 -10  -5   3   14.40   12.90 
  10   5   3   19.30   10.60 
 -10  -5   3   13.40    6.30 
   5 -10   3   16.60    7.60 
  -5  10   3    9.00   13.60 
  -5  10   3   28.90   11.30 
   5 -10   3  -18.30   29.70 
  10   3  -3   16.70   22.90 
  -3  10  -3    3.20   21.60 
  -3  10  -3   -4.80   25.60 
 -10  -3  -3   -2.10    5.10 
 -10  -3  -3   10.70   10.00 
   3 -10  -3   -5.40   17.60 
  -3  10  -3   10.20    8.00 
 -10  -3  -3    8.80    5.70 
  10   3  -3    4.70    9.50 
  -3  10  -3    8.80   12.70 
   3 -10  -3    4.80   10.90 
   3 -10  -3    9.50   33.50 
  10   3  -3    1.20    5.80 
  -3  10   3    1.50    5.70 
   3 -10   3   12.00    6.20 
  10   3   3    0.50    6.50 
   3 -10   3   20.70   18.90 
  -3  10   3   14.80   11.70 
 -10  -3   3    8.30   11.70 
  -3  10   3   12.90    9.60 
  -3  10   3   22.30   13.90 
 -10  -3   3   11.40    5.90 
  10   3   3    9.70   13.80 
  10   3   3    9.50   19.20 
   3 -10   3   13.30    9.40 
  -3  10   3    6.30    9.50 
  -1  10  -3   34.40   23.60 
 -10  -1  -3   23.70    6.30 
  -1  10  -3   27.90    9.00 
  -1  10  -3   11.80   11.10 
  10   1  -3   24.20    8.40 
  -1  10  -3   27.10   15.20 
   1 -10  -3   29.20   11.20 
 -10  -1  -3   23.60   12.40 
  -1  10  -3   52.09   22.80 
  10   1  -3   35.20   24.90 
   1 -10  -3   31.20   15.80 
  10   1  -3   28.50   12.50 
 -10  -1  -3   33.80    8.10 
  -1  10   3   22.40   13.20 
  10   1   3   49.30   22.60 
  10   1   3   25.30    8.70 
 -10  -1   3   17.10    6.00 
  10   1   3   40.00   26.80 
  -1  10   3   12.20    6.50 
   1 -10   3   24.10   11.20 
  -1  10   3   30.70   10.90 
  -1  10   3    4.50   13.80 
   1 -10   3   22.60    6.80 
 -10  -1   3    4.20   14.10 
   1 -10   3   26.60   10.90 
  -1  10   3   36.20   13.00 
  -1 -10  -3   20.70    9.20 
  10  -1  -3   34.10   26.90 
  -1 -10  -3   11.90    9.90 
 -10   1  -3   13.30   16.00 
 -10   1  -3   41.70    8.00 
   1  10  -3   14.90    9.80 
   1  10  -3   13.00   15.50 
  -1 -10  -3    7.70    7.50 
  10  -1  -3   20.70    8.30 
  10  -1  -3   23.70   14.70 
   1  10  -3   35.00   21.60 
   1  10  -3   32.10    8.90 
   1  10  -3   19.90   15.60 
   1  10   3   29.30   11.80 
 -10   1   3   18.40    6.00 
  10  -1   3   21.10    9.10 
   1  10   3   13.60   11.10 
   1  10   3   24.10   12.60 
   1  10   3   16.70    9.20 
  -1 -10   3   31.10    7.40 
   1  10   3   11.50    6.30 
 -10   1   3    8.50   24.00 
  10  -1   3   47.70   20.00 
   3  10  -3    4.10   15.80 
  -3 -10  -3   -3.50    5.90 
  -3 -10  -3   13.00   13.90 
   3  10  -3    8.40    8.10 
 -10   3  -3    0.80   25.60 
  10  -3  -3   -4.60   14.60 
  10  -3  -3   12.30    8.30 
 -10   3  -3    5.00    5.00 
   3  10  -3   11.60   17.00 
   3  10  -3   11.40    6.80 
 -10   3  -3   -6.20   12.30 
  -3 -10  -3   10.80    7.30 
   3  10  -3   26.90   13.90 
   3  10   3   11.90    8.20 
  -3 -10   3    6.80    4.60 
   3  10   3   -1.50    5.40 
 -10   3   3   -2.10    4.10 
 -10   3   3    1.00    7.10 
  10  -3   3    6.40    9.30 
   3  10   3    7.30   10.30 
 -10   3   3   13.70   29.20 
  10  -3   3   13.70   14.80 
  10  -5  -3   33.80   20.60 
   5  10  -3    4.10   10.70 
 -10   5  -3   18.40    7.40 
   5  10  -3   27.40   20.90 
  -5 -10  -3   11.00    6.90 
   5  10  -3   12.10    9.10 
  10  -5  -3    6.20   11.50 
   5  10  -3    1.10   14.20 
 -10   5  -3   18.80   12.60 
   5  10  -3   14.90    8.00 
  -5 -10  -3   15.40    8.20 
 -10   5   3   15.40    7.50 
   5  10   3   11.40    9.70 
   5  10   3   12.60   12.60 
 -10   5   3   30.20   24.10 
 -10   5   3   24.40    7.20 
  10  -5   3   27.10   25.10 
  -5 -10   3   13.50    7.20 
   5  10   3   19.70   13.50 
   5  10   3   16.10    7.50 
  10  -5   3    5.40   15.30 
   5  10   3   12.00   12.40 
  -5 -10   3   13.30    5.30 
   4 -11  -3   46.40   35.60 
  11   4  -3  105.79   38.00 
   4 -11  -3   65.99   20.60 
 -11  -4  -3   76.89   12.60 
  -4  11  -3   91.89   23.80 
  -4  11  -3   44.90   14.40 
 -11  -4  -3   65.09   13.50 
  11   4  -3   84.59   20.20 
   4 -11  -3   34.30   54.99 
 -11  -4  -3   62.89   17.10 
  -4  11  -3  132.59   35.90 
  11   4  -3   66.99   13.20 
  -4  11  -3  188.08   51.69 
  -4  11   3   70.69   13.20 
   4 -11   3   98.59   13.60 
  -4  11   3   92.19   18.20 
  11   4   3   83.49   22.70 
  11   4   3   62.49   12.60 
 -11  -4   3   82.89   12.30 
   4 -11   3   64.79   21.00 
  -4  11   3   69.09   17.40 
  11   4   3  148.99   37.30 
   4 -11   3   57.29   36.40 
 -11  -4   3   81.89   20.60 
  -2  11  -3  274.67   44.60 
 -11  -2  -3  324.57   27.60 
  11   2  -3  305.67   28.90 
   2 -11  -3  262.87   43.50 
  -2  11  -3  340.57   30.50 
   2 -11  -3  276.87   32.90 
 -11  -2  -3  323.17   27.00 
  -2  11  -3  268.87   38.80 
  11   2  -3  286.97   35.40 
  11   2   3  402.56   44.80 
   2 -11   3  301.07   34.80 
  -2  11   3  264.27   27.40 
  -2  11   3  308.37   47.10 
 -11  -2   3  431.86   44.90 
 -11  -2   3  300.67   26.30 
   2 -11   3  301.97   26.70 
  11   2   3  321.07   29.50 
   0  11  -3   -6.30   12.30 
   0  11  -3    4.30    7.60 
  11   0  -3   -4.50   11.80 
   0  11  -3    1.90   18.60 
  11   0  -3  -12.40   23.10 
   0  11  -3   -0.90   14.10 
   0 -11  -3    1.60    9.00 
   0 -11  -3    5.30   12.60 
  11   0  -3    0.10    7.70 
   0 -11  -3   30.00   13.10 
 -11   0  -3    9.70    6.50 
   0  11  -3   -9.20   16.20 
  11   0   3  -11.80   14.60 
   0 -11   3    1.80    5.30 
   0  11   3    1.30    9.20 
   0 -11   3   -1.00    5.50 
   0  11   3    3.30   10.80 
  11   0   3   29.30   10.40 
   0  11   3   -4.00   13.80 
 -11   0   3   11.50    6.10 
   2  11  -3  304.47   28.70 
   2  11  -3  395.36   51.49 
 -11   2  -3  246.48   37.30 
  11  -2  -3  251.57   27.90 
   2  11  -3  248.28   38.80 
  -2 -11  -3  297.27   29.70 
 -11   2  -3  306.77   25.50 
   2  11  -3  293.07   32.20 
  -2 -11   3  272.57   25.90 
   2  11   3  305.17   33.90 
 -11   2   3  308.77   25.30 
  11  -2   3  299.47   29.90 
   2  11   3  314.57   37.10 
 -11   2   3  282.27   30.70 
  -2 -11   3  271.27   23.40 
   2  11   3  315.77   26.90 
  -4 -11  -3   87.79   16.20 
   4  11  -3   87.79   15.10 
  11  -4  -3  130.79   19.70 
 -11   4  -3  112.99   55.69 
   4  11  -3   77.19   27.40 
   4  11  -3   82.39   23.90 
   4  11  -3   81.79   17.00 
 -11   4  -3   53.49   11.00 
   4  11  -3   93.99   32.60 
  -4 -11  -3   75.39   14.90 
 -11   4  -3   66.19   19.50 
   4  11   3  100.39   18.60 
  -4 -11   3   74.89   13.50 
 -11   4   3   86.69   12.30 
   4  11   3   68.19   18.10 
   4  11   3   86.09   13.90 
   4  11   3   84.59   20.50 
  11  -4   3  162.18   26.70 
   4  11   3  118.59   25.50 
  -4 -11   3   73.09   10.40 
 -11   4   3   84.69   39.00 
 -11   4   3   88.79   15.00 
   1 -12  -3   99.69   20.00 
  12   1  -3  203.08   49.40 
  -1  12  -3  208.88   44.10 
   1 -12  -3   76.09   27.60 
   1 -12  -3   89.49   30.00 
  -1  12  -3   89.49   25.80 
  -1  12  -3  146.99   39.90 
  12   1  -3  104.29   24.70 
 -12  -1  -3  102.99   26.70 
  12   1  -3   99.99   17.60 
  -1  12  -3  104.79   25.70 
 -12  -1  -3   92.69   15.00 
  -1  12   3  113.69   20.80 
  12   1   3   93.29   16.80 
   1 -12   3   92.79   15.70 
 -12  -1   3   98.59   14.10 
  12   1   3  171.08   35.60 
  -1  12   3  120.79   24.50 
  -1  12   3  106.19   30.20 
 -12  -1   3  115.09   35.90 
  -1  12   3   81.99   14.90 
  -1  12   3  175.48   28.30 
   1 -12   3   94.19   14.70 
  12  -1  -3   79.39   15.70 
  -1 -12  -3   92.19   20.50 
  12  -1  -3  176.88   33.50 
 -12   1  -3   47.10   31.20 
   1  12  -3   84.79   16.20 
  -1 -12  -3   70.59   17.50 
   1  12  -3  112.69   30.00 
   1  12  -3  100.79   30.40 
   1  12  -3   96.39   22.80 
 -12   1  -3   80.39   13.70 
   1  12  -3  156.78   39.00 
   1  12   3  106.89   15.90 
   1  12   3   75.89   23.40 
  12  -1   3   88.19   17.60 
   1  12   3  145.09   27.10 
 -12   1   3   94.39   13.20 
  -1 -12   3   97.59   13.00 
 -12   1   3   59.79   47.50 
   1  12   3  116.89   25.80 
   0   0  -4 1781.82  125.59 
   1  -1  -4 1653.83  124.69 
  -1   1  -4 1895.11  122.39 
   1  -1  -4 1813.22  124.79 
  -1  -1  -4 1897.01  122.49 
  -1  -1  -4 1565.64  123.19 
  -1  -1  -4 1894.91  122.49 
   1   1  -4 1801.12  123.59 
   1   1  -4 1903.31  122.89 
   1   1  -4 1756.32  122.69 
   1  -1  -4 1724.83  123.99 
  -1  -1  -4 1907.71  123.19 
   1   1  -4 1773.32  126.59 
  -1  -1  -4 1845.52  123.39 
  -1   1  -4 1909.91  122.89 
   1   1  -4 1792.52  127.19 
   1   1  -4 1812.22  123.19 
   1  -1   4 1875.51  122.29 
  -1   1   4 1875.51  122.39 
  -1  -1   4 1643.64  124.89 
   1  -1   4 2007.50  123.29 
  -1  -1   4 1786.32  127.59 
   1   1   4 1839.92  122.49 
  -1  -1   4 2066.49  123.79 
  -1  -1   4 1857.21  122.99 
   1   1   4 1924.51  123.19 
  -1   1   4 2074.29  125.89 
  -1   1   4 1758.32  124.99 
   2   0  -4 2461.65  164.38 
   0  -2  -4 2538.45  162.58 
   2   0  -4 2315.67  163.78 
   0   2  -4 2504.85  167.08 
   0   2  -4 2579.14  163.88 
   0  -2  -4 2379.06  165.58 
   0  -2  -4 2521.25  165.58 
   0  -2  -4 2411.36  163.58 
   2   0  -4 2426.76  167.98 
   0   2  -4 2519.45  162.58 
   0  -2  -4 2401.56  165.38 
   0   2  -4 2420.16  163.38 
  -2   0  -4 2580.04  162.58 
   0   2  -4 2423.56  168.68 
   2   0  -4 2020.60  164.68 
   0  -2  -4 2316.67  163.68 
  -2   0  -4 2425.76  163.18 
   0   2  -4 2232.28  169.98 
  -2   0  -4 2514.85  162.88 
   2   0  -4 2518.55  163.48 
  -2   0   4 2202.98  163.18 
   2   0   4 2555.54  162.48 
   0  -2   4 2391.66  167.98 
   2   0   4 2346.97  164.08 
   0   2   4 2520.25  163.08 
   2   0   4 2536.65  162.38 
  -2   0   4 2430.96  163.28 
  -2   0   4 2409.96  164.18 
   2   0   4 2464.75  162.78 
  -2   0   4 2614.14  163.98 
   0   2   4 2608.64  163.18 
   0   2   4 2584.24  164.08 
  -2   0   4 2290.67  167.58 
   0  -2   4 2524.65  162.58 
   2   2  -4 2937.91  202.08 
   2  -2  -4 2828.02  206.88 
   2   2  -4 3031.50  207.78 
  -2   2  -4 3017.60  201.88 
  -2  -2  -4 3026.70  200.48 
   2   2  -4 3000.70  200.58 
  -2   2  -4 3211.18  199.98 
  -2  -2  -4 2781.72  206.08 
  -2  -2  -4 3067.49  202.08 
  -2  -2  -4 2723.13  211.08 
  -2  -2  -4 3201.18  200.78 
   2   2  -4 2823.42  205.08 
  -2  -2  -4 3229.68  200.78 
   2   2  -4 3083.99  199.58 
   2   2   4 2970.80  203.28 
  -2  -2   4 2909.21  202.48 
  -2  -2   4 3053.19  200.48 
   2  -2   4 3407.56  203.68 
  -2  -2   4 2794.62  206.78 
   2   2   4 3179.08  200.38 
  -2  -2   4 2536.95  202.78 
   2  -2   4 3071.49  199.68 
   2   2   4 3088.59  204.78 
  -2   2   4 3003.90  202.58 
   2   2   4 3014.60  200.18 
   2   2   4 2999.70  200.38 
   1  -3  -4  535.05   49.60 
   3   1  -4  609.44   43.40 
  -3  -1  -4  662.73   43.50 
   1  -3  -4  562.34   47.80 
  -1   3  -4  679.43   44.80 
  -3  -1  -4  621.84   43.20 
  -3  -1  -4  635.44   43.70 
  -1   3  -4  537.45   51.59 
   3   1  -4  658.93   51.39 
   3   1  -4  639.24   45.60 
   3   1  -4  589.84   45.90 
   1  -3  -4  634.34   49.10 
  -1   3  -4  520.15   51.39 
  -1   3  -4  635.64   45.70 
   3   1  -4  597.04   44.10 
   3   1  -4  641.64   44.00 
   1  -3  -4  663.13   45.70 
  -1   3  -4  661.33   42.50 
   1  -3  -4  602.34   46.40 
   3   1   4  690.03   44.10 
  -1   3   4  659.83   44.40 
   1  -3   4  626.44   43.90 
   1  -3   4  654.83   42.40 
  -3  -1   4  597.44   45.80 
   3   1   4  631.64   43.20 
   1  -3   4  676.83   51.79 
  -3  -1   4  610.14   43.10 
  -1   3   4  717.63   45.40 
  -3  -1   4  568.84   49.90 
   1  -3   4  664.93   44.60 
   1  -3   4  649.14   42.40 
   3   1   4  660.43   43.10 
  -1   3   4  557.04   46.00 
   1   3  -4  618.54   50.09 
   3  -1  -4  622.04   47.30 
   3  -1  -4  594.84   44.80 
  -1  -3  -4  645.94   44.70 
   3  -1  -4  682.73   45.70 
  -1  -3  -4  638.84   45.20 
  -1  -3  -4  637.04   44.00 
  -3   1  -4  635.04   42.00 
  -1  -3  -4  562.04   47.30 
  -3   1  -4  588.74   46.00 
  -1  -3  -4  601.34   44.30 
  -3   1  -4  586.34   49.60 
   1   3  -4  644.94   46.10 
   1   3  -4  553.34   49.50 
   1   3  -4  631.34   43.00 
   1   3  -4  585.74   43.60 
  -1  -3  -4  659.53   44.30 
  -3   1  -4  657.13   43.10 
   1   3   4  700.73   48.50 
  -3   1   4  617.04   42.70 
   3  -1   4  639.14   42.00 
   1   3   4  632.04   44.60 
  -3   1   4  571.04   46.40 
  -1  -3   4  632.74   46.60 
   1   3   4  679.03   43.30 
   1   3   4  564.44   44.40 
  -1  -3   4  649.24   41.80 
   3  -1   4  624.04   42.70 
  -1  -3   4  619.94   49.10 
   1   3   4  651.43   43.70 
  -1  -3   4  540.45   46.90 
   1   3   4  664.33   43.40 
   1   3   4  662.63   43.50 
  -1  -3   4  670.13   43.00 
  -3   1   4  617.94   48.20 
   3  -1   4  662.73   44.30 
  -3   1   4  615.84   43.70 
   3  -1   4  560.34   46.40 
  -3  -3  -4  512.85   49.00 
  -3  -3  -4  497.75   49.60 
  -3  -3  -4  570.54   44.40 
  -3  -3  -4  598.64   42.60 
   3   3  -4  667.63   43.20 
   3  -3  -4  553.44   45.10 
  -3   3  -4  578.94   53.39 
  -3   3  -4  639.04   42.00 
   3   3  -4  634.94   41.30 
  -3  -3  -4  675.43   42.90 
   3   3  -4  600.04   42.40 
   3   3  -4  624.54   45.00 
   3   3  -4  606.24   51.69 
  -3   3  -4  615.14   45.60 
   3   3  -4  576.64   48.40 
  -3  -3  -4  599.84   42.40 
  -3  -3   4  616.14   41.30 
   3  -3   4  674.23   49.10 
   3  -3   4  631.64   41.70 
   3   3   4  642.84   42.40 
  -3  -3   4  608.64   45.70 
  -3  -3   4  495.55   45.40 
   3   3   4  616.64   42.10 
  -3  -3   4  534.05   49.99 
  -3  -3   4  626.94   42.40 
   3   3   4  604.14   41.90 
   3  -3   4  613.64   40.40 
   3   3   4  613.04   45.80 
   3   3   4  601.54   42.50 
   3  -3   4  636.84   43.80 
  -3   3   4  621.24   46.10 
   3   3   4  533.95   48.10 
   2  -4  -4 1321.57  118.09 
  -2   4  -4 1725.23  114.39 
  -2   4  -4 1602.94  121.09 
   4   2  -4 1534.75  113.99 
  -4  -2  -4 1655.33  109.69 
   2  -4  -4 1438.56  121.49 
   2  -4  -4 1718.93  116.69 
   4   2  -4 1559.24  110.19 
   2  -4  -4 1342.47  119.59 
   4   2  -4 1653.63  112.89 
   4   2  -4 1693.13  110.49 
  -2   4  -4 1665.53  111.99 
  -4  -2  -4 1681.03  109.89 
  -2   4  -4 1691.03  108.79 
   4   2  -4 1720.43  121.59 
   4   2  -4 1649.73  109.29 
  -4  -2  -4 1489.45  114.09 
  -4  -2  -4 1661.73  110.39 
   2  -4   4 1740.43  111.29 
  -4  -2   4 1559.14  113.69 
  -2   4   4 1698.03  111.29 
  -2   4   4 1571.74  112.69 
   4   2   4 1725.53  110.39 
   4   2   4 1507.95  113.69 
   4   2   4 1621.04  109.39 
  -4  -2   4 1429.76  112.99 
  -2   4   4 1642.54  111.19 
  -4  -2   4 1743.23  110.19 
   4   2   4 1671.63  109.29 
   2  -4   4 1660.03  108.89 
  -4  -2   4 1481.85  119.59 
  -4  -2   4 1686.93  109.29 
   4   2   4 1611.54  119.79 
  -2   4   4 1653.73  110.79 
  -4  -2   4 1665.23  111.39 
   2  -4   4 1666.83  112.79 
   4   0  -4 2800.12  201.98 
  -4   0  -4 2875.31  201.78 
  -4   0  -4 3032.00  199.78 
  -4   0  -4 3159.88  200.58 
   0  -4  -4 2907.91  202.58 
   0  -4  -4 2965.60  202.88 
   0   4  -4 3003.00  199.78 
   4   0  -4 2910.61  204.68 
   0   4  -4 2848.22  210.28 
   0  -4  -4 2875.61  203.88 
   4   0  -4 2777.42  201.38 
   0   4  -4 3045.60  210.28 
   0   4  -4 2989.80  206.78 
   0   4  -4 3201.88  201.98 
   0   4  -4 3031.60  202.08 
   0   4  -4 2977.60  201.88 
   0  -4  -4 3036.20  204.98 
   4   0  -4 3118.19  201.68 
   0  -4   4 2927.11  206.08 
  -4   0   4 3006.60  202.58 
  -4   0   4 2736.03  204.68 
   0   4   4 3015.20  200.38 
   4   0   4 3072.39  204.38 
  -4   0   4 2963.30  200.48 
   4   0   4 3033.40  200.18 
   4   0   4 3052.69  199.68 
  -4   0   4 3060.59  203.58 
  -4   0   4 3033.10  209.38 
   0  -4   4 2732.03  199.28 
   4   0   4 3117.69  202.58 
   0  -4   4 2863.61  207.18 
   0  -4   4 3002.10  199.88 
   0   4   4 3146.79  201.58 
   0   4   4 3192.38  201.08 
   0   4   4 3379.56  204.68 
   0   4   4 2963.80  203.18 
  -2  -4  -4 1680.83  111.49 
   2   4  -4 1614.84  120.69 
  -2  -4  -4 1680.73  112.69 
   2   4  -4 1654.83  114.29 
   2   4  -4 1684.23  110.59 
   2   4  -4 1720.03  109.29 
  -2  -4  -4 1557.94  117.59 
   4  -2  -4 1551.94  113.29 
  -4   2  -4 1729.93  110.59 
  -2  -4  -4 1664.73  111.19 
  -4   2  -4 1576.74  119.39 
  -2  -4  -4 1512.85  112.39 
  -2  -4  -4 1620.74  114.89 
   2   4  -4 1433.36  118.49 
   2   4  -4 1690.73  111.59 
   4  -2  -4 1826.62  114.39 
   2   4   4 1901.61  118.39 
  -2  -4   4 1570.94  118.09 
   2   4   4 1468.35  113.99 
  -2  -4   4 1579.64  111.39 
   4  -2   4 1709.43  113.39 
  -2  -4   4 1646.24  109.19 
  -4   2   4 1587.44  116.59 
   2   4   4 1633.74  110.79 
  -2  -4   4 1380.36  114.99 
   2   4   4 1666.23  111.29 
   2   4   4 1590.94  113.19 
  -4   2   4 1725.23  111.29 
  -4   2   4 1643.74  110.59 
  -4   2   4 1685.83  120.69 
  -2  -4   4 1669.63  110.49 
  -2  -4   4 1578.84  114.39 
   4  -2   4 1584.84  109.99 
   2   4   4 1712.73  110.69 
   4  -2   4 1672.73  108.99 
  -4  -4  -4  529.05   50.79 
   4  -4  -4  652.33   45.40 
   4   4  -4  585.84   40.80 
  -4  -4  -4  548.15   46.00 
  -4   4  -4  573.84   40.20 
  -4   4  -4  576.34   50.69 
   4   4  -4  552.84   43.90 
   4   4  -4  535.85   51.79 
  -4  -4  -4  583.84   40.60 
   4   4  -4  567.14   41.40 
  -4   4  -4  596.34   52.39 
  -4  -4  -4  543.65   40.80 
   4   4  -4  514.95   47.60 
  -4  -4  -4  495.45   49.70 
  -4  -4  -4  578.84   41.20 
  -4   4  -4  596.84   45.70 
   4   4  -4  592.64   39.30 
   4   4   4  577.14   39.90 
  -4  -4   4  545.25   40.00 
  -4  -4   4  516.95   50.79 
   4   4   4  545.55   48.40 
  -4  -4   4  563.84   41.90 
  -4   4   4  507.05   44.10 
  -4   4   4  570.44   44.70 
   4  -4   4  565.44   40.00 
  -4  -4   4  470.85   45.60 
  -4  -4   4  575.94   40.60 
  -4  -4   4  572.04   45.40 
   4   4   4  570.54   45.20 
   4  -4   4  647.34   44.10 
   4   4   4  567.54   41.00 
  -4   4   4  614.44   41.20 
   4   4   4  562.64   40.70 
   4   4   4  588.04   40.20 
   4  -4   4  569.04   50.49 
  -3   5  -4 1117.09   86.09 
   5   3  -4 1043.80   74.59 
  -5  -3  -4 1085.59   74.29 
   5   3  -4 1071.99   73.39 
   3  -5  -4  977.00   76.59 
  -5  -3  -4 1112.09   74.29 
   5   3  -4 1093.29   78.39 
  -5  -3  -4 1114.59   75.29 
   5   3  -4 1092.89   75.09 
   5   3  -4 1043.70   80.29 
  -3   5  -4 1078.29   79.79 
   3  -5  -4  870.81   88.89 
  -3   5  -4 1080.59   77.59 
   5   3  -4 1128.59   88.79 
  -5  -3  -4 1026.30   79.59 
  -5  -3   4 1072.39   76.19 
   5   3   4 1047.40   85.89 
   5   3   4 1069.89   73.59 
  -5  -3   4 1123.09   73.59 
  -5  -3   4  960.10   86.79 
  -5  -3   4  948.81   84.39 
  -5  -3   4 1129.39   74.49 
  -3   5   4 1181.28   76.39 
   3  -5   4 1075.59   72.39 
   5   3   4 1091.79   73.79 
   3  -5   4 1015.90   73.39 
   3  -5   4 1126.89   76.89 
   5   3   4  999.20   79.39 
   5   3   4 1072.19   74.79 
   3  -5   4 1206.08   81.39 
  -3   5   4 1021.20   75.49 
  -3   5   4 1143.79   76.99 
   5   1  -4  262.27   22.80 
   1  -5  -4  250.27   26.40 
   1  -5  -4  242.98   24.00 
   5   1  -4  325.97   32.70 
  -5  -1  -4  238.58   29.90 
  -5  -1  -4  265.57   20.10 
   1  -5  -4  256.67   25.10 
  -1   5  -4  268.37   19.60 
  -1   5  -4  281.07   31.90 
  -5  -1  -4  249.97   20.40 
   5   1  -4  250.17   20.80 
  -1   5  -4  237.88   30.00 
  -1   5  -4  270.67   22.40 
   5   1  -4  275.07   24.90 
   1  -5  -4  303.67   25.00 
  -5  -1  -4  259.57   21.70 
  -1   5  -4  259.17   22.60 
   5   1  -4  281.77   21.50 
   1  -5  -4  252.97   26.80 
  -1   5  -4  260.87   30.10 
   5   1   4  252.67   25.50 
  -5  -1   4  292.57   23.60 
  -1   5   4  342.57   26.50 
   1  -5   4  274.37   22.50 
  -5  -1   4  272.97   20.40 
  -1   5   4  284.07   21.40 
  -1   5   4  278.97   22.30 
   5   1   4  272.07   21.80 
   5   1   4  253.07   20.10 
  -5  -1   4  279.27   24.50 
  -1   5   4  286.97   23.70 
  -5  -1   4  259.47   26.00 
  -5  -1   4  297.37   31.90 
  -1   5   4  273.67   21.30 
   1  -5   4  266.07   22.10 
  -1  -5  -4  252.57   22.70 
   1   5  -4  263.57   19.30 
  -5   1  -4  225.08   23.00 
  -5   1  -4  278.67   19.90 
   5  -1  -4  202.88   22.00 
   1   5  -4  267.67   21.10 
   1   5  -4  276.77   21.30 
  -1  -5  -4  255.87   22.20 
  -1  -5  -4  274.47   21.40 
   1   5  -4  265.27   25.10 
  -5   1  -4  181.68   35.00 
   1   5  -4  225.28   27.90 
   5  -1  -4  217.28   21.10 
   1   5  -4  235.38   28.60 
  -1  -5  -4  259.87   20.40 
   1   5  -4  265.87   21.40 
  -1  -5  -4  258.87   26.10 
   5  -1  -4  292.27   26.40 
  -5   1  -4  263.97   18.70 
   5  -1  -4  257.57   21.50 
   5  -1   4  253.27   19.30 
  -5   1   4  285.17   26.60 
   1   5   4  242.38   19.80 
   1   5   4  217.78   20.40 
   5  -1   4  232.58   22.70 
   1   5   4  258.77   22.80 
  -1  -5   4  254.47   25.10 
  -1  -5   4  258.47   18.00 
   1   5   4  302.27   25.10 
  -1  -5   4  237.28   27.60 
   5  -1   4  278.87   24.40 
  -5   1   4  259.27   19.80 
  -1  -5   4  274.77   19.50 
   5  -1   4  268.87   18.50 
  -5   1   4  270.07   28.20 
   1   5   4  274.87   21.30 
  -5   1   4  263.47   26.20 
  -1  -5   4  271.47   26.30 
  -5   3  -4 1081.39   72.99 
  -5   3  -4  892.41   85.59 
  -5   3  -4  942.31   84.99 
   3   5  -4 1037.00   86.09 
  -5   3  -4 1084.09   86.99 
  -3  -5  -4 1117.49   74.19 
  -3  -5  -4  985.50   82.59 
   3   5  -4 1079.59   77.79 
   3   5  -4 1085.49   71.69 
  -3  -5  -4 1040.80   76.49 
  -5   3  -4 1012.60   83.19 
   3   5  -4 1128.49   73.29 
  -3  -5  -4 1061.29   73.69 
   3   5  -4 1124.19   74.59 
   3   5  -4  954.70   82.89 
  -3  -5  -4 1048.70   79.09 
  -3  -5  -4 1125.79   74.39 
   3   5   4 1098.19   73.69 
  -5   3   4 1099.59   73.89 
  -5   3   4 1099.59   73.39 
   3   5   4 1100.69   73.09 
   3   5   4 1090.79   74.29 
   5  -3   4 1073.89   71.39 
  -5   3   4 1042.40   79.69 
   3   5   4 1132.39   81.59 
  -3  -5   4 1005.30   80.79 
  -3  -5   4 1120.59   73.39 
  -3  -5   4 1008.90   74.29 
   3   5   4 1045.60   77.19 
   3   5   4  949.01   77.99 
  -3  -5   4 1063.59   71.59 
   5  -3   4 1079.39   77.49 
  -3  -5   4  991.10   82.39 
   5  -3   4 1046.70   72.89 
   5   5  -4  123.99   15.70 
  -5  -5  -4  116.79   12.40 
  -5   5  -4  146.19   21.50 
  -5  -5  -4  113.89   11.50 
  -5  -5  -4  130.59   26.90 
   5   5  -4  121.39   12.80 
  -5   5  -4  129.69   12.30 
   5   5  -4  118.99   10.60 
   5   5  -4  126.59   23.80 
  -5   5  -4  156.68   26.50 
   5   5  -4  110.29   18.50 
  -5   5   4  130.99   17.10 
   5  -5   4  110.39   10.30 
   5   5   4  127.89   12.80 
  -5  -5   4  130.19   10.90 
   5  -5   4   94.19   12.90 
   5   5   4  111.89   13.00 
   5  -5   4   69.79   21.30 
   5   5   4  121.69   19.10 
   5  -5   4  141.49   16.80 
  -5  -5   4  123.39   13.60 
  -5   5   4  153.88   13.50 
  -5  -5   4  121.69   12.00 
  -5   5   4  131.89   16.90 
   5   5   4  129.29   17.40 
   6   4  -4  688.13   62.69 
   4  -6  -4  552.44   64.69 
   6   4  -4  634.14   44.50 
   6   4  -4  658.63   50.89 
  -6  -4  -4  629.04   45.50 
   6   4  -4  662.53   46.70 
  -6  -4  -4  627.04   45.80 
  -6  -4  -4  594.84   46.70 
   4  -6  -4  513.35   65.39 
  -4   6  -4  662.53   56.59 
   6   4   4  582.64   45.80 
  -6  -4   4  524.95   52.49 
  -6  -4   4  602.34   47.80 
   6   4   4  618.34   46.10 
   4  -6   4  634.74   43.60 
  -4   6   4  585.34   49.30 
   4  -6   4  632.24   49.50 
  -4   6   4  730.83   48.40 
   4  -6   4  535.55   44.80 
  -6  -4   4  635.94   45.60 
   6   4   4  594.34   51.99 
  -4   6   4  684.23   47.60 
  -4   6   4  701.93   49.50 
   4  -6   4  754.22   58.59 
   2  -6  -4  399.96   47.90 
   6   2  -4  482.85   36.20 
  -2   6  -4  470.95   51.99 
   6   2  -4  633.44   59.29 
  -2   6  -4  517.85   35.50 
  -6  -2  -4  395.56   43.90 
  -6  -2  -4  523.75   36.30 
   2  -6  -4  461.95   42.90 
  -6  -2  -4  475.35   37.70 
   2  -6  -4  448.66   42.80 
  -2   6  -4  517.75   40.10 
  -6  -2  -4  512.45   36.80 
  -2   6  -4  523.25   39.60 
   2  -6  -4  442.26   47.80 
   6   2  -4  529.35   39.10 
   6   2   4  495.35   35.90 
   6   2   4  481.85   36.90 
  -6  -2   4  458.35   41.10 
  -6  -2   4  504.65   36.10 
  -2   6   4  572.94   40.30 
   6   2   4  519.05   37.70 
  -6  -2   4  510.95   51.69 
  -6  -2   4  497.65   42.70 
   2  -6   4  569.94   41.30 
  -6  -2   4  436.66   42.60 
   2  -6   4  468.65   35.60 
  -2   6   4  480.15   37.30 
   6   2   4  473.75   42.50 
  -2   6   4  535.85   37.50 
   2  -6   4  503.55   35.20 
   2  -6   4  490.45   38.80 
   6   2   4  626.04   54.09 
  -6  -2   4  529.55   37.10 
  -2   6   4  512.85   39.20 
   6   0  -4 1462.35  105.89 
   6   0  -4 1328.17  100.19 
   0   6  -4 1463.95  101.39 
   6   0  -4 1546.55  100.99 
   0  -6  -4 1439.06  105.39 
   0   6  -4 1465.75  112.59 
   0  -6  -4 1390.36  101.69 
   0   6  -4 1410.96  108.69 
   0   6  -4 1519.65  101.49 
   0   6  -4 1456.45   98.39 
   0  -6  -4 1417.46  104.79 
  -6   0  -4 1484.45   99.39 
  -6   0  -4 1370.36  101.89 
  -6   0  -4 1465.15   98.29 
   6   0  -4 1353.06  100.79 
   0   6  -4 1386.86  113.29 
   0   6  -4 1483.15  101.79 
   0  -6  -4 1451.85  103.69 
   0  -6   4 1360.66   97.39 
  -6   0   4 1437.26  105.09 
   0   6   4 1491.95  102.59 
   0   6   4 1482.65   99.79 
   0   6   4 1703.53  105.19 
   0   6   4 1604.04  105.19 
   0  -6   4 1415.46   98.59 
  -6   0   4 1372.06   98.89 
   6   0   4 1392.96   98.69 
   6   0   4 1550.44  101.99 
   0   6   4 1487.15  100.59 
   0  -6   4 1361.66  107.79 
   6   0   4 1454.85   98.19 
  -6   0   4 1395.46  111.39 
   0   6   4 1471.85   99.29 
   2   6  -4  443.36   47.20 
  -6   2  -4  405.26   54.79 
  -6   2  -4  450.85   51.29 
  -6   2  -4  405.16   42.80 
  -6   2  -4  393.86   46.30 
   2   6  -4  471.35   38.60 
  -2  -6  -4  514.95   36.70 
   6  -2  -4  412.56   38.20 
  -2  -6  -4  465.55   36.60 
   2   6  -4  532.65   35.10 
   6  -2  -4  471.05   37.50 
   2   6  -4  498.25   44.40 
   2   6  -4  425.86   51.09 
   2   6  -4  494.15   36.90 
  -6   2  -4  515.95   35.40 
  -2  -6  -4  486.45   38.90 
  -2  -6  -4  484.15   37.60 
  -2  -6  -4  479.05   38.80 
   2   6  -4  538.05   38.00 
  -2  -6  -4  480.55   44.00 
  -2  -6   4  489.35   33.30 
  -2  -6   4  484.55   41.30 
   2   6   4  486.05   36.30 
   6  -2   4  516.75   40.30 
  -6   2   4  520.05   36.90 
   2   6   4  481.15   36.80 
   2   6   4  492.95   35.50 
   6  -2   4  467.05   34.90 
  -2  -6   4  488.65   43.10 
  -6   2   4  509.45   37.20 
   2   6   4  493.45   39.50 
  -2  -6   4  429.76   42.20 
  -2  -6   4  515.25   35.30 
  -6   2   4  352.46   44.40 
   6  -2   4  527.75   41.90 
   2   6   4  587.04   43.20 
   2   6   4  405.96   37.20 
   6  -2   4  487.75   33.70 
   2   6   4  499.65   36.00 
   4   6  -4  543.45   55.89 
  -4  -6  -4  577.44   52.49 
  -6   4  -4  638.64   44.70 
  -6   4  -4  513.05   61.29 
   4   6  -4  584.44   59.99 
   4   6  -4  647.74   50.69 
  -4  -6  -4  636.84   45.40 
  -4  -6  -4  648.94   46.30 
   4   6  -4  623.04   43.30 
   4   6  -4  656.73   46.60 
  -4  -6  -4  611.24   46.20 
  -6   4  -4  684.33   58.09 
   4   6   4  643.94   54.09 
   4   6   4  548.35   50.69 
   6  -4   4  593.34   42.90 
   6  -4   4  604.94   44.80 
   6  -4   4  642.34   50.89 
  -6   4   4  655.43   45.40 
  -4  -6   4  630.04   43.20 
   4   6   4  649.64   46.40 
  -6   4   4  651.93   52.59 
   4   6   4  625.34   45.60 
  -4  -6   4  580.04   46.30 
   4   6   4  603.64   49.99 
  -4  -6   4  644.14   45.10 
  -6   6  -4 1020.80   65.39 
   6   6  -4  900.81   84.19 
  -6  -6  -4  901.21   65.59 
   6   6  -4  811.92   74.99 
   6   6  -4  894.41   70.79 
  -6   6  -4  959.40   75.69 
   6   6  -4  912.81   66.19 
  -6  -6  -4  894.61   66.09 
   6   6  -4  920.91   63.19 
  -6  -6  -4  917.51   64.89 
   6  -6   4  863.91   62.89 
  -6  -6   4  877.71   67.09 
   6   6   4  737.63   73.29 
  -6   6   4  989.00   66.19 
   6   6   4  887.01   65.69 
   6  -6   4  997.80   85.49 
   6  -6   4  927.61   71.79 
  -6  -6   4  926.31   64.99 
  -6   6   4  910.91   73.29 
   7   5  -4   56.79   13.20 
  -5   7  -4  112.69   28.60 
  -7  -5  -4   34.10    7.40 
   5  -7  -4   59.59   26.70 
   5  -7  -4   27.40   20.60 
   5  -7  -4   94.79   27.70 
  -5   7  -4   45.50   14.40 
  -7  -5  -4   30.90    6.90 
  -5   7  -4   82.69   16.40 
   7   5  -4   30.20    7.30 
   7   5  -4   44.40   13.90 
   7   5  -4   46.30   19.70 
  -7  -5  -4   42.50    9.20 
   7   5   4   36.40    7.80 
   5  -7   4   40.60    8.80 
   5  -7   4   41.10   11.40 
   5  -7   4   39.60   19.70 
  -5   7   4   49.00   11.60 
  -7  -5   4   34.60    6.40 
  -5   7   4   46.20    9.50 
  -7  -5   4   31.90    8.90 
   7   5   4   35.20   12.60 
  -5   7   4   38.40    9.20 
  -5   7   4   72.89   16.10 
  -7  -5   4   37.30    6.90 
   5  -7   4   41.20    6.30 
   7   3  -4  228.48   31.90 
  -7  -3  -4  155.98   14.80 
  -3   7  -4  146.59   34.80 
   7   3  -4  154.38   15.50 
   3  -7  -4  126.59   24.60 
   3  -7  -4  130.19   32.80 
   7   3  -4  158.48   19.60 
   3  -7  -4  216.08   22.40 
  -7  -3  -4  167.08   16.80 
  -7  -3  -4  167.68   15.00 
   3  -7  -4  114.19   29.90 
  -3   7  -4  155.28   18.60 
  -3   7  -4  173.68   24.90 
   7   3   4  183.68   28.90 
   3  -7   4  191.48   25.40 
   7   3   4  134.79   20.90 
  -7  -3   4  146.89   23.60 
  -7  -3   4  170.48   18.40 
  -3   7   4  195.18   18.80 
   7   3   4  151.08   15.40 
  -7  -3   4  168.78   14.30 
   3  -7   4  157.48   18.10 
  -7  -3   4  164.18   14.70 
  -3   7   4  162.68   16.90 
  -3   7   4  134.89   15.20 
   3  -7   4  137.59   14.20 
   3  -7   4  163.28   13.40 
  -7  -1  -4  396.06   31.30 
   1  -7  -4  397.16   39.60 
  -1   7  -4  383.86   54.09 
   7   1  -4  390.66   37.20 
  -1   7  -4  402.36   33.90 
   1  -7  -4  503.95   38.90 
   1  -7  -4  335.37   40.30 
  -1   7  -4  419.66   30.40 
  -1   7  -4  386.66   44.30 
  -7  -1  -4  400.56   30.60 
  -1   7  -4  453.05   45.10 
   1  -7  -4  374.16   35.10 
   7   1  -4  427.06   32.70 
  -1   7   4  414.36   33.10 
  -1   7   4  497.15   33.50 
   1  -7   4  358.96   30.30 
  -7  -1   4  430.16   38.20 
  -1   7   4  457.45   36.40 
   7   1   4  464.45   40.80 
   7   1   4  414.46   31.60 
   1  -7   4  410.86   30.50 
   1  -7   4  414.96   33.90 
  -1   7   4  421.06   32.10 
  -7  -1   4  436.86   37.10 
   7   1   4  424.56   35.40 
  -7  -1   4  399.26   30.90 
   1   7  -4  395.56   32.30 
   1   7  -4  399.56   29.10 
  -1  -7  -4  442.36   39.50 
   7  -1  -4  386.36   31.70 
  -7   1  -4  401.56   30.00 
   1   7  -4  408.66   31.80 
  -1  -7  -4  419.66   32.40 
   1   7  -4  341.67   37.00 
  -7   1  -4  368.96   38.00 
  -1  -7  -4  406.36   32.20 
   1   7  -4  415.86   43.70 
  -1  -7  -4  418.86   35.40 
   1   7  -4  372.26   43.80 
  -1  -7   4  403.36   29.40 
   1   7   4  478.65   40.20 
  -7   1   4  370.56   29.40 
   1   7   4  404.36   30.90 
   7  -1   4  388.46   28.50 
   1   7   4  400.86   30.30 
  -1  -7   4  394.46   45.70 
   1   7   4  388.86   34.90 
   1   7   4  337.37   30.70 
  -1  -7   4  387.06   27.80 
  -7   1   4  352.76   39.30 
  -3  -7  -4  165.08   15.60 
   3   7  -4  151.58   19.90 
  -3  -7  -4  154.98   16.00 
  -7   3  -4  160.98   14.60 
  -3  -7  -4  172.28   19.20 
  -7   3  -4  147.39   24.90 
   3   7  -4  157.78   16.20 
   3   7  -4  124.29   26.70 
   3   7  -4  164.48   28.30 
   3   7  -4  170.18   16.60 
   7  -3  -4  184.18   18.30 
  -7   3  -4  121.19   28.30 
   7  -3   4  173.58   22.50 
   3   7   4  173.68   15.80 
   3   7   4  141.89   18.20 
   3   7   4  165.48   15.00 
  -7   3   4  234.58   33.60 
   3   7   4  147.09   16.00 
  -7   3   4  158.38   14.40 
  -3  -7   4  165.28   14.90 
   3   7   4  192.28   22.40 
   7  -3   4  165.18   13.20 
  -7   3   4  156.48   15.60 
  -7   3   4  161.98   23.60 
  -3  -7   4  151.48   12.70 
   5   7  -4   42.90   12.00 
   5   7  -4   34.10   15.20 
  -5  -7  -4   29.20    7.70 
  -5  -7  -4   40.00    8.70 
  -7   5  -4   36.00   23.60 
  -5  -7  -4   47.20   16.50 
  -5  -7  -4   43.20    7.80 
   5   7  -4   35.30    6.20 
  -7   5  -4   38.20    7.20 
   5   7  -4   21.80   16.10 
   5   7  -4   37.70    8.50 
  -7   5  -4   42.00   14.90 
   7  -5   4   40.20    6.00 
  -7   5   4   28.60   12.90 
   5   7   4   31.20   11.50 
   7  -5   4   89.19   22.50 
  -7   5   4   46.00    8.10 
  -5  -7   4   30.50    5.60 
   7  -5   4   32.50    8.30 
   5   7   4   41.70    8.60 
  -7   5   4   57.29   12.90 
  -7   5   4   79.09   17.30 
  -5  -7   4   45.60    7.90 
  -5  -7   4   45.40    9.10 
   7  -5   4   34.00   12.20 
   5   7   4   41.30   14.40 
  -7  -7  -4  114.39   13.60 
   7   7  -4  130.69   15.50 
  -7  -7  -4  116.59   15.60 
  -7  -7  -4  140.69   15.40 
   7   7  -4  132.29   26.10 
   7   7  -4  102.59   29.80 
   7   7  -4  119.79   20.30 
   7  -7   4  248.38   42.40 
   7   7   4   95.59   23.10 
   7   7   4  107.79   21.00 
   7  -7   4  102.89   12.10 
  -7  -7   4  110.69   16.40 
   7  -7   4  102.89   20.50 
  -7   7   4  124.09   14.50 
  -7  -7   4  118.79   12.20 
  -7  -7   4  127.39   13.70 
   7   7   4  134.69   15.60 
  -6   8  -4   53.69   22.50 
   6  -8  -4   57.59   26.50 
   8   6  -4   48.80    9.80 
  -6   8  -4   42.00   15.50 
  -8  -6  -4   38.60   10.30 
   8   6  -4   51.59   14.30 
   6  -8  -4   87.49   35.90 
   6  -8  -4  109.59   29.50 
  -8  -6  -4   38.50    8.40 
  -6   8  -4   33.80   14.60 
  -8  -6  -4   35.70    9.10 
   8   6  -4   46.30   16.00 
   8   6  -4   44.30   22.80 
  -6   8   4   49.99   10.80 
  -6   8   4   63.89   16.80 
  -8  -6   4   30.10    6.60 
  -6   8   4   43.40   11.10 
  -6   8   4   27.20   13.10 
   6  -8   4    9.90   24.80 
   8   6   4   30.30    8.20 
   8   6   4   32.30   16.00 
   8   6   4   37.60   14.30 
   6  -8   4   41.50   14.40 
   6  -8   4   32.40    6.90 
  -8  -6   4   42.40   12.00 
  -8  -6   4   48.30    8.90 
   4  -8  -4  383.86   51.99 
   8   4  -4  565.44   48.30 
  -8  -4  -4  543.05   41.00 
  -8  -4  -4  558.24   41.20 
   4  -8  -4  413.76   63.39 
   8   4  -4  686.53   64.49 
   8   4  -4  568.24   42.40 
   4  -8  -4  484.15   68.09 
  -4   8  -4  527.85   45.60 
  -4   8  -4  623.24   53.79 
  -8  -4  -4  545.25   43.30 
   4  -8   4  477.15   52.19 
  -4   8   4  569.44   44.10 
   4  -8   4  499.05   40.60 
   8   4   4  501.35   48.80 
   4  -8   4  541.55   46.20 
   4  -8   4  537.55   39.20 
  -4   8   4  490.55   41.30 
  -8  -4   4  564.34   41.20 
   8   4   4  519.15   57.29 
  -8  -4   4  539.25   45.20 
  -8  -4   4  526.15   40.00 
  -4   8   4  651.33   45.90 
  -8  -2  -4  508.95   52.09 
  -8  -2  -4  631.04   45.60 
   2  -8  -4  571.14   51.59 
   2  -8  -4  499.15   68.39 
   2  -8  -4  733.03   53.49 
   8   2  -4  630.34   46.70 
  -8  -2  -4  587.84   44.80 
   8   2  -4  597.74   52.39 
  -2   8  -4  665.83   59.99 
  -2   8  -4  642.34   48.90 
  -2   8  -4  502.05   65.89 
  -2   8  -4  600.34   44.30 
   2  -8  -4  631.24   61.49 
  -8  -2   4  669.33   51.89 
  -2   8   4  740.23   51.79 
   2  -8   4  629.24   51.59 
   2  -8   4  561.04   43.90 
   2  -8   4  603.54   49.10 
  -8  -2   4  615.24   44.80 
   8   2   4  689.33   61.79 
   8   2   4  604.14   46.80 
  -8  -2   4  645.34   54.29 
   2  -8   4  581.14   44.50 
   0   8  -4  134.79   15.70 
   0   8  -4   94.79   26.50 
   0  -8  -4   91.39   15.00 
   0   8  -4  102.89   23.70 
   8   0  -4  120.19   18.20 
   0   8  -4  128.19   26.70 
   8   0  -4  172.28   32.10 
   8   0  -4  116.79   13.40 
  -8   0  -4   98.79   11.50 
   0   8  -4   95.89   15.70 
   0  -8  -4   90.59   18.50 
   0   8  -4  111.39   11.20 
  -8   0  -4  102.79   10.60 
  -8   0   4  122.39   21.70 
   0  -8   4   93.49    9.60 
   0   8   4  133.49   18.30 
   8   0   4  101.89   13.90 
   0   8   4  114.89   16.20 
  -8   0   4  131.59   18.60 
   0   8   4  104.09   13.00 
   8   0   4  162.78   24.00 
   0   8   4  107.49   12.00 
   8   0   4  108.19   11.10 
   0  -8   4  105.79   10.80 
  -8   0   4  107.09   11.10 
   8  -2  -4  562.24   44.80 
   2   8  -4  577.04   45.30 
  -8   2  -4  634.44   43.00 
  -2  -8  -4  585.94   45.00 
   2   8  -4  575.94   58.69 
   2   8  -4  509.25   59.09 
   2   8  -4  595.24   52.19 
  -8   2  -4  440.16   50.99 
  -2  -8  -4  622.54   45.30 
  -2  -8  -4  554.04   48.10 
  -2  -8  -4  596.04   44.50 
   8  -2   4  562.44   46.50 
   2   8   4  644.54   46.50 
  -8   2   4  405.36   56.69 
   2   8   4  628.44   43.30 
   2   8   4  498.95   44.60 
  -8   2   4  568.14   42.30 
  -2  -8   4  567.54   40.20 
   8  -2   4  590.44   41.10 
   2   8   4  611.34   49.10 
  -2  -8   4  629.84   43.00 
   4   8  -4  528.85   41.50 
  -4  -8  -4  528.35   39.90 
   4   8  -4  606.34   48.70 
  -8   4  -4  538.25   52.29 
   4   8  -4  391.96   54.89 
  -4  -8  -4  489.35   44.90 
  -8   4  -4  419.96   59.69 
   4   8  -4  524.65   41.10 
  -4  -8  -4  580.34   41.90 
  -8   4  -4  548.05   39.20 
   4   8  -4  425.16   52.29 
  -4  -8   4  557.64   39.70 
   4   8   4  418.66   43.60 
   4   8   4  490.35   45.60 
   4   8   4  516.85   39.40 
  -4  -8   4  512.35   37.00 
  -8   4   4  572.44   40.30 
  -8   4   4  558.74   39.50 
   8  -4   4  507.75   37.20 
   4   8   4  577.04   49.80 
  -6  -8  -4   30.90    8.50 
   6   8  -4   33.10   21.80 
   6   8  -4   32.30    9.50 
   8  -6  -4  122.29   33.30 
  -6  -8  -4   43.60   10.20 
  -8   6  -4   37.60    7.70 
   8  -6  -4  100.09   21.30 
  -8   6  -4   32.10   24.90 
  -6  -8  -4   35.10    8.40 
   6   8  -4   34.60   17.60 
  -8   6  -4   40.00   14.00 
   6   8  -4   34.40   12.80 
  -6  -8   4   33.80    8.60 
   8  -6   4   37.40    7.10 
  -8   6   4   54.19   14.40 
   8  -6   4   60.99   16.50 
   6   8   4   45.90   14.60 
  -8   6   4   65.19   17.10 
   8  -6   4  128.89   30.70 
  -8   6   4   54.49    9.50 
   8  -6   4   47.60    9.90 
   6   8   4   25.70   12.30 
  -6  -8   4   41.70    6.80 
  -6  -8   4   38.40   10.90 
   6   8   4   32.50    9.10 
  -8  -8  -4  110.09   17.40 
   8   8  -4  137.89   24.70 
   8   8  -4  118.79   34.10 
  -8  -8  -4   90.29   14.80 
   8   8  -4  101.79   16.30 
  -8   8  -4  103.09   20.70 
   8   8  -4  120.89   27.60 
  -8  -8   4   85.79   20.20 
   8  -8   4   95.89   13.00 
  -8  -8   4  110.69   14.30 
   8  -8   4  253.27   63.59 
   8   8   4   96.29   22.30 
   8   8   4   82.99   14.90 
  -8   8   4  112.69   15.50 
  -8  -8   4   93.79   11.80 
   8  -8   4   74.79   26.40 
   8   8   4   84.79   23.20 
  -9  -7  -4   88.89   14.60 
  -9  -7  -4  103.79   17.50 
   9   7  -4  109.69   33.90 
  -9  -7  -4   84.69   13.20 
   9   7  -4  120.29   22.90 
   7  -9  -4  212.48   52.09 
   7  -9  -4  180.18   42.30 
   9   7  -4   91.79   15.10 
   7  -9  -4  234.78   43.90 
   9   7   4   68.29   13.80 
  -9  -7   4  119.69   14.20 
  -7   9   4  160.18   19.60 
   7  -9   4   96.09   44.30 
   9   7   4   82.19   20.10 
  -9  -7   4   83.09   12.50 
   9   7   4  106.79   28.20 
  -9  -7   4   71.29   17.50 
   7  -9   4   99.69   26.00 
  -7   9   4  109.39   15.90 
   7  -9   4   90.99   12.70 
  -5   9  -4  225.68   25.00 
   9   5  -4  191.58   26.10 
   5  -9  -4  174.28   51.39 
   9   5  -4  267.17   43.30 
  -5   9  -4  220.78   29.50 
   9   5  -4  229.68   21.50 
   5  -9  -4  129.49   44.20 
  -9  -5  -4  190.58   19.40 
  -9  -5  -4  197.48   19.60 
   5  -9  -4  162.08   35.10 
  -9  -5   4  198.58   18.40 
   9   5   4  195.18   27.20 
  -5   9   4  263.37   24.80 
  -9  -5   4  196.58   24.70 
   9   5   4  172.28   20.20 
   5  -9   4  137.69   37.50 
  -9  -5   4  193.98   19.40 
   5  -9   4  192.68   26.70 
  -5   9   4  217.28   21.10 
  -5   9   4  201.18   26.30 
   5  -9   4  199.98   18.00 
  -3   9  -4   -4.30    6.50 
   9   3  -4    0.40    7.60 
  -3   9  -4    2.20   10.20 
   9   3  -4    2.20   16.00 
   3  -9  -4   11.80   17.60 
  -9  -3  -4   -1.50    6.60 
   9   3  -4   -2.00    4.70 
   3  -9  -4  -10.00   25.90 
  -3   9  -4   12.80   23.20 
  -9  -3  -4   -6.40    3.80 
  -9  -3  -4    3.70    4.20 
   3  -9  -4   23.20   14.40 
  -3   9  -4   15.80   19.80 
  -3   9   4   -0.30    4.70 
   9   3   4   -0.40    5.00 
  -3   9   4    2.50    6.80 
  -3   9   4    7.70    7.80 
   3  -9   4    6.30    4.50 
   3  -9   4    2.10    7.10 
  -9  -3   4   -6.60    8.50 
   3  -9   4    1.20    6.40 
   3  -9   4   17.10   13.20 
  -9  -3   4   -4.10    3.50 
   9   3   4    3.60   10.70 
  -3   9   4    3.70    8.00 
  -3   9   4    6.40   10.50 
   9   3   4    0.00   15.10 
   9   1  -4  228.18   21.40 
   1  -9  -4  199.38   24.40 
  -9  -1  -4  215.78   19.90 
  -9  -1  -4  195.78   18.40 
  -1   9  -4  200.68   24.80 
  -1   9  -4  183.98   41.90 
   9   1  -4  230.78   27.20 
  -1   9  -4  222.68   22.30 
  -1   9  -4  248.88   34.40 
  -9  -1  -4  227.88   25.10 
  -1   9  -4  252.57   38.50 
   1  -9  -4  198.68   30.10 
  -1   9   4  279.87   30.50 
   9   1   4  202.88   26.00 
  -1   9   4  271.47   22.50 
   1  -9   4  231.28   23.40 
  -1   9   4  224.38   20.40 
   9   1   4  295.27   34.40 
   1  -9   4  176.78   19.20 
   1  -9   4  214.88   19.00 
  -9  -1   4  221.78   29.40 
  -9  -1   4  190.48   18.70 
  -1  -9  -4  192.88   25.40 
   1   9  -4  226.68   21.50 
  -9   1  -4  208.88   28.70 
  -1  -9  -4  218.58   22.20 
  -9   1  -4  206.78   19.30 
   1   9  -4  193.88   31.10 
   9  -1  -4  305.87   32.60 
   9  -1  -4  224.78   21.30 
  -1  -9  -4  235.98   23.30 
   1   9  -4  200.28   36.30 
   1   9  -4  218.18   23.00 
   1   9  -4  219.78   34.70 
  -1  -9   4  197.38   16.70 
   1   9   4  260.27   27.30 
  -1  -9   4  214.28   18.90 
  -9   1   4  121.99   30.90 
   1   9   4  191.38   20.80 
  -9   1   4  203.78   18.50 
   9  -1   4  218.98   18.40 
   1   9   4  203.88   19.30 
   9  -3  -4    4.40   13.30 
  -9   3  -4  -16.50   19.00 
   3   9  -4   -4.50   11.90 
   3   9  -4   -2.40    5.40 
   3   9  -4   -0.20    5.80 
  -9   3  -4    0.50    4.30 
   9  -3  -4    8.50   19.50 
  -3  -9  -4    6.50    6.00 
   9  -3  -4   -0.20    5.90 
  -9   3  -4   -6.30   11.50 
   3   9  -4    2.90    8.90 
  -3  -9  -4    2.30    5.30 
  -9   3   4   -6.00    9.30 
  -3  -9   4    1.90    4.50 
  -3  -9   4   -7.60    2.80 
  -9   3   4    2.70    3.90 
   3   9   4   -0.80    7.70 
   3   9   4   19.70    8.50 
  -9   3   4    4.20   20.70 
   3   9   4   15.30   10.10 
   9  -3   4   -0.20    5.70 
   9  -3   4    4.40    8.10 
  -9   3   4    4.50    5.50 
   3   9   4   -1.90    5.80 
   3   9   4   -1.10    4.20 
   5   9  -4  194.88   26.70 
   5   9  -4  192.88   21.30 
  -9   5  -4  191.38   46.20 
  -5  -9  -4  171.48   20.40 
  -9   5  -4  225.88   18.90 
   5   9  -4  200.08   21.50 
  -9   5  -4  190.18   28.40 
  -5  -9  -4  185.68   19.60 
   5   9  -4  161.78   35.20 
  -5  -9   4  190.48   19.20 
  -9   5   4  214.88   19.30 
   5   9   4  188.58   26.20 
   9  -5   4  181.78   17.50 
   5   9   4  223.28   29.80 
   5   9   4  162.28   25.10 
  -5  -9   4  191.48   16.50 
   5   9   4  206.98   22.30 
   9  -5   4  257.27   31.30 
   5   9   4  181.68   18.90 
  -7  -9  -4  101.79   16.00 
  -9   7  -4  105.59   54.49 
   7   9  -4   86.89   20.50 
  -9   7  -4   90.09   20.60 
  -9   7  -4  146.49   29.70 
   7   9  -4  113.69   38.80 
  -7  -9  -4  141.19   15.40 
   7   9  -4   82.39   15.90 
   7   9  -4  102.29   27.40 
  -9   7  -4  108.69   15.30 
   9  -7   4   83.99   25.70 
   9  -7   4   94.39   14.20 
  -7  -9   4   90.69   14.40 
  -7  -9   4   91.69   17.20 
  -9   7   4  107.59   16.30 
   7   9   4   77.49   15.00 
   9  -7   4  298.27   57.89 
   7   9   4   81.99   20.50 
  -9   7   4  164.68   25.10 
  -7  -9   4  110.59   12.30 
   7   9   4   94.89   23.90 
   6 -10  -4   72.19   30.50 
 -10  -6  -4   10.90    8.70 
   6 -10  -4   64.29   39.30 
 -10  -6  -4   20.80   12.80 
  10   6  -4   18.00   12.40 
  10   6  -4   27.50   10.00 
  -6  10  -4   28.70   14.00 
  -6  10  -4   13.20   30.40 
  10   6  -4   12.40   24.50 
  -6  10  -4   65.09   28.10 
 -10  -6  -4   21.40    8.60 
   6 -10  -4   42.70   39.50 
  -6  10   4   46.40   19.00 
 -10  -6   4   24.70    7.70 
  10   6   4   22.50   20.20 
  10   6   4   20.00    9.40 
 -10  -6   4    5.30   13.90 
 -10  -6   4   13.10    7.50 
  -6  10   4   37.80   14.40 
  -6  10   4   24.60   11.10 
  10   6   4   22.90   15.80 
  -6  10   4   29.60   10.40 
   6 -10   4   18.30    9.00 
   4 -10  -4   65.99   23.70 
  10   4  -4   92.49   21.40 
  10   4  -4  203.48   44.00 
   4 -10  -4   88.49   44.40 
 -10  -4  -4   95.79   13.30 
  -4  10  -4   85.69   17.40 
 -10  -4  -4  124.69   13.70 
  10   4  -4  105.29   15.30 
  -4  10  -4  246.48   49.00 
   4 -10  -4   72.09   38.20 
  -4  10  -4  163.78   47.00 
  -4  10  -4  134.19   26.40 
   4 -10   4   90.69   29.50 
 -10  -4   4  109.09   13.60 
  10   4   4  119.19   24.10 
   4 -10   4  103.59   20.40 
  -4  10   4  106.29   18.30 
   4 -10   4  110.89   13.10 
 -10  -4   4   98.69   20.50 
  -4  10   4   84.59   13.90 
  10   4   4  145.09   35.30 
 -10  -4   4  111.39   12.90 
  -2  10  -4  312.77   55.19 
   2 -10  -4  232.18   29.50 
  10   2  -4  212.68   29.00 
  -2  10  -4  290.07   37.20 
  -2  10  -4  202.48   29.50 
 -10  -2  -4  218.08   21.30 
   2 -10  -4  212.28   41.30 
  -2  10  -4  221.68   25.00 
 -10  -2  -4  232.48   27.90 
  10   2  -4  248.18   23.80 
  -2  10  -4  359.46   50.59 
 -10  -2  -4  224.28   22.10 
 -10  -2   4  281.37   34.60 
   2 -10   4  236.18   21.40 
  10   2   4  309.17   37.70 
   2 -10   4  218.48   22.80 
   2 -10   4  237.78   27.60 
  -2  10   4  296.77   25.60 
  -2  10   4  242.98   23.10 
  10   2   4  207.68   23.40 
 -10  -2   4  257.67   21.80 
  -2  10   4  309.47   29.40 
   0 -10  -4  117.89   19.30 
  10   0  -4  181.08   25.20 
   0 -10  -4  110.89   24.40 
   0 -10  -4  126.49   23.00 
 -10   0  -4  152.48   15.50 
   0  10  -4  115.19   30.10 
   0  10  -4  119.69   17.00 
 -10   0  -4  123.79   23.00 
   0  10  -4  158.28   32.00 
   0  10  -4  149.99   21.30 
   0  10  -4  130.39   37.30 
  10   0  -4  121.99   16.20 
   0  10   4  139.49   15.20 
  10   0   4  135.29   17.90 
 -10   0   4  132.89   30.00 
   0  10   4  144.79   24.00 
   0 -10   4  110.19   14.90 
   0  10   4  163.98   22.90 
   0  10   4  123.29   16.50 
   0 -10   4  126.09   12.50 
 -10   0   4  119.29   13.70 
   0 -10   4  146.29   14.80 
   2  10  -4  248.78   38.80 
 -10   2  -4  153.88   33.30 
   2  10  -4  242.08   23.40 
  10  -2  -4  199.78   22.40 
   2  10  -4  231.68   32.70 
   2  10  -4  232.18   25.20 
  -2 -10  -4  203.58   23.70 
   2  10  -4  214.18   40.00 
 -10   2  -4  223.08   20.70 
 -10   2   4  194.08   19.50 
  10  -2   4  202.58   23.90 
  -2 -10   4  220.28   17.80 
  -2 -10   4  222.58   20.90 
 -10   2   4  133.49   41.40 
   2  10   4  222.18   20.80 
   2  10   4  293.07   30.70 
   2  10   4  243.28   26.90 
   2  10   4  279.67   29.50 
   2  10   4  217.48   23.40 
   4  10  -4   79.39   27.10 
 -10   4  -4   97.09   13.50 
   4  10  -4  105.29   17.10 
   4  10  -4  115.99   16.50 
   4  10  -4  100.69   21.90 
  -4 -10  -4   90.99   16.20 
  -4 -10  -4   98.69   14.60 
  10  -4  -4  126.59   18.40 
   4  10  -4   79.59   30.70 
 -10   4  -4  121.09   26.00 
 -10   4   4  105.49   12.50 
 -10   4   4  119.89   14.60 
  10  -4   4  193.98   27.00 
   4  10   4  100.59   19.00 
   4  10   4  106.59   23.20 
   4  10   4   66.59   17.30 
  -4 -10   4   89.19   10.50 
   4  10   4  104.49   21.50 
   4  10   4  107.09   14.00 
  10  -4   4  109.19   13.70 
 -10   4   4  208.48   39.30 
  -6 -10  -4    9.50    8.70 
 -10   6  -4   22.00    7.80 
  10  -6  -4   80.09   26.50 
  -6 -10  -4   13.40    8.10 
   6  10  -4   42.50   11.70 
 -10   6  -4   42.60   37.80 
  10  -6  -4   33.20   15.90 
   6  10  -4    0.90   16.60 
   6  10  -4   30.90   15.40 
   6  10  -4   39.90   24.70 
   6  10  -4   24.50   10.70 
  10  -6   4   72.69   24.00 
  10  -6   4   30.60    9.10 
 -10   6   4   29.00    8.60 
  -6 -10   4   18.20    7.90 
 -10   6   4   -0.30   18.00 
 -10   6   4   22.90   11.50 
   6  10   4   37.10   11.90 
   6  10   4   22.30   16.20 
  10  -6   4   64.99   14.20 
  10  -6   4   29.00   17.00 
   6  10   4   22.60   15.00 
  -6 -10   4    9.40    5.90 
   6  10   4   16.30    8.20 
  11   3  -4   92.99   22.20 
  -3  11  -4  242.58   48.20 
  11   3  -4  119.19   17.10 
  11   3  -4  191.48   44.80 
  -3  11  -4  194.78   50.59 
   3 -11  -4   83.89   36.20 
  -3  11  -4  145.99   29.50 
 -11  -3  -4  123.99   22.00 
 -11  -3  -4  104.79   15.80 
 -11  -3  -4  127.29   15.40 
  -3  11   4  141.39   21.00 
  11   3   4  157.68   39.10 
   3 -11   4  136.39   15.40 
  -3  11   4  124.99   18.90 
   3 -11   4  132.99   21.90 
  -3  11   4   87.69   15.40 
  11   3   4   95.29   25.80 
  11   3   4  115.39   17.50 
 -11  -3   4  113.49   29.60 
 -11  -3   4  128.19   15.50 
  -3  11   4  149.09   19.50 
  11   1  -4   24.30   25.60 
 -11  -1  -4   10.80   17.80 
   1 -11  -4   24.20   20.30 
  11   1  -4   12.40    8.20 
  -1  11  -4    6.70   21.30 
  -1  11  -4   12.80   26.50 
  -1  11  -4    7.40    9.00 
  -1  11  -4   16.30   16.70 
 -11  -1  -4   19.30    7.50 
  11   1  -4    7.00   10.70 
  -1  11  -4    5.40   13.80 
 -11  -1   4   16.70    6.70 
  11   1   4   14.30    9.60 
  -1  11   4   10.90    7.20 
  -1  11   4   23.10   13.80 
   1 -11   4   19.30    7.70 
 -11  -1   4   -0.90   22.50 
  11   1   4   27.30   19.00 
  -1  11   4   19.10   12.20 
   1 -11   4    2.60    6.00 
  -1  11   4   10.00    8.40 
 -11   1  -4   12.80    6.90 
   1  11  -4   -5.10   15.10 
  -1 -11  -4    9.10    9.80 
   1  11  -4   13.50    9.00 
   1  11  -4   -3.10   17.10 
  -1 -11  -4   10.60   12.70 
   1  11  -4    4.50   11.60 
  11  -1  -4    6.00    8.30 
  -1 -11  -4   19.90   13.20 
  11  -1  -4    6.20   14.40 
   1  11  -4   20.50   25.60 
   1  11   4   13.70   12.90 
  -1 -11   4    4.80    6.00 
  11  -1   4   20.00   15.50 
 -11   1   4  -20.90   29.40 
  11  -1   4   17.20   17.40 
   1  11   4   11.60    8.90 
   1  11   4   13.70    7.30 
  -1 -11   4   12.40    5.00 
 -11   1   4   10.60    5.70 
   1  11   4   14.80   12.50 
   3  11  -4   94.79   33.20 
 -11   3  -4   56.19   36.00 
   3  11  -4   67.79   27.70 
  -3 -11  -4   84.39   17.40 
 -11   3  -4   94.09   29.60 
   3  11  -4  113.09   17.60 
   3  11  -4  126.99   28.40 
 -11   3  -4  120.49   14.40 
  11  -3  -4  122.79   17.70 
  -3 -11   4  100.29   11.90 
  -3 -11   4  104.79   15.40 
 -11   3   4  101.29   13.30 
  11  -3   4  166.98   23.10 
 -11   3   4  107.79   16.70 
   3  11   4  169.18   23.00 
   3  11   4  150.58   24.30 
   3  11   4  124.89   15.80 
 -11   3   4  129.99   44.20 
   3  11   4  125.89   24.30 
   0  12  -4  204.88   51.69 
   0  12  -4  181.18   32.10 
  12   0  -4  284.87   42.00 
   0 -12  -4  190.28   29.50 
 -12   0  -4  188.88   39.10 
   0 -12  -4  169.48   32.40 
 -12   0  -4  222.48   22.60 
   0 -12  -4  172.08   38.30 
  12   0  -4  205.58   24.50 
   0  12  -4  306.27   53.69 
   0  12  -4  242.78   41.10 
   0  12   4  188.48   22.10 
  12   0   4  213.48   28.50 
   0  12   4  274.87   33.60 
   0  12   4  223.88   37.30 
   0 -12   4  191.18   19.70 
 -12   0   4  212.68   21.00 
 -12   0   4  181.08   49.60 
   0  12   4  226.88   24.00 
   0 -12   4  224.18   22.50 
   0  12   4  300.07   35.70 
   1   0  -5    1.60    2.20 
   0  -1  -5    5.30    4.60 
   0   1  -5    3.60    1.30 
   0   1  -5    7.00    1.20 
   1   0  -5    0.80    0.80 
   0  -1  -5   -0.10    1.60 
   0   1  -5    4.10    4.60 
  -1   0  -5    0.90    0.90 
   1   0  -5    2.10    1.00 
   1   0  -5    1.20    3.10 
   0   1  -5    2.30    0.80 
  -1   0  -5    0.70    0.40 
   0   1  -5    1.00    2.60 
   1   0   5    4.00    1.10 
  -1   0   5    0.60    2.30 
  -1   0   5    0.70    0.70 
   0   1   5    2.20    1.10 
   0  -1   5    6.30    4.20 
   1  -2  -5  636.24   46.30 
   1  -2  -5  662.03   45.60 
  -2  -1  -5  686.33   44.60 
   2   1  -5  617.44   49.99 
   2   1  -5  636.64   45.30 
   2   1  -5  666.93   44.60 
  -2  -1  -5  673.13   44.50 
  -1   2  -5  664.53   43.50 
   2   1  -5  612.24   45.20 
   1  -2  -5  665.43   45.30 
   2   1  -5  635.04   44.50 
  -1   2  -5  618.34   46.90 
  -1   2  -5  663.23   43.40 
   2   1  -5  636.44   47.60 
  -2  -1  -5  624.14   44.00 
   2   1   5  638.54   44.20 
  -2  -1   5  640.64   45.40 
   2   1   5  647.44   44.20 
  -1   2   5  641.94   44.20 
   2   1   5  696.53   44.40 
  -2  -1   5  628.34   50.49 
  -2  -1   5  629.24   44.20 
  -1   2   5  671.23   44.60 
  -2  -1   5  563.54   45.80 
   1  -2   5  672.33   44.60 
   1  -2   5  680.63   53.19 
   1  -2   5  636.34   43.30 
  -1   2   5  641.34   45.60 
  -2  -1   5  655.13   44.80 
   1   2  -5  645.74   42.90 
  -1  -2  -5  644.34   45.20 
   1   2  -5  641.14   45.70 
   1   2  -5  569.04   49.70 
  -1  -2  -5  661.33   44.60 
  -1  -2  -5  653.43   44.70 
  -2   1  -5  665.43   43.70 
  -2   1  -5  636.54   45.20 
   2  -1  -5  626.24   46.30 
   2  -1  -5  624.34   45.70 
   1   2  -5  617.74   49.90 
   2  -1  -5  671.73   48.40 
   1   2  -5  660.63   44.30 
   1   2  -5  638.74   44.10 
  -1  -2  -5  639.44   48.50 
  -1  -2  -5  631.84   44.30 
  -2   1  -5  667.43   43.00 
   1   2   5  659.43   43.70 
  -1  -2   5  560.84   47.10 
   2  -1   5  723.93   46.50 
  -2   1   5  624.74   44.80 
   1   2   5  665.33   44.50 
  -1  -2   5  642.74   50.29 
   1   2   5  649.93   43.80 
  -2   1   5  673.93   48.10 
  -1  -2   5  631.34   44.30 
  -2   1   5  568.94   46.20 
  -1  -2   5  653.03   44.00 
   2  -3  -5   33.20    5.00 
   3   2  -5   29.10    9.40 
   2  -3  -5   75.89   19.10 
  -2   3  -5   29.00    3.60 
   3   2  -5   28.50    5.60 
  -2   3  -5   32.80    5.60 
  -3  -2  -5   34.10    4.10 
   3   2  -5   32.40    4.20 
   3   2  -5   28.90    3.60 
  -3  -2  -5   29.20    6.70 
  -2   3  -5   21.50    6.90 
  -3  -2  -5   31.70   13.50 
   3   2  -5   21.40    4.30 
  -2   3  -5   20.20   10.40 
  -3  -2  -5   28.10    4.40 
  -3  -2  -5   32.40    4.20 
   3   2  -5   28.70    7.20 
   2  -3  -5   18.70   10.00 
  -3  -2   5   31.10    6.60 
  -3  -2   5   27.60    6.40 
   2  -3   5   30.20    4.10 
   3   2   5   29.80    4.00 
  -3  -2   5   33.20    4.20 
   3   2   5   39.70    5.00 
   3   2   5   30.80    3.90 
  -2   3   5   52.59    8.40 
  -3  -2   5   25.80    3.40 
  -3  -2   5   25.00    9.30 
   3   2   5   24.30    5.20 
   2  -3   5   35.60    5.80 
   2  -3   5   43.90   12.90 
   3   2   5   28.00    4.10 
  -2   3   5   24.40    4.60 
   0   3  -5    0.10    1.30 
   0   3  -5    1.10    3.50 
  -3   0  -5    2.10    1.20 
   0   3  -5    2.30    6.00 
  -3   0  -5   -0.30    1.30 
   0  -3  -5   -0.60    1.90 
   0   3  -5    0.40    1.70 
  -3   0  -5    3.60    8.80 
   3   0  -5    2.30    1.90 
   0  -3  -5    0.20    2.00 
   0   3  -5    0.50    1.50 
   3   0  -5   -2.00    2.20 
  -3   0  -5    1.60    8.50 
   3   0  -5   -0.10    1.40 
   0   3  -5   -1.60    3.40 
   0  -3  -5   -1.20    2.90 
   0  -3  -5    3.30    3.30 
   3   0  -5   13.50    6.20 
   0  -3  -5    8.90    4.10 
   3   0  -5    2.10    2.90 
  -3   0  -5   -0.10    1.20 
   0   3  -5    1.40    1.90 
   0   3   5   -1.00    1.10 
  -3   0   5    0.80    4.00 
   0  -3   5    9.30    4.80 
   0  -3   5    1.90    1.20 
  -3   0   5   -0.40    2.00 
  -3   0   5    1.40    1.70 
   3   0   5    4.80    2.30 
   0   3   5    1.30    2.70 
   3   0   5   -1.10    1.20 
   0   3   5    1.50    2.20 
   0   3   5    1.70    2.10 
   3   0   5    0.90    1.00 
  -3   0   5   -0.60    1.30 
   3  -2  -5   35.30    9.30 
   2   3  -5   25.70    5.70 
   3  -2  -5   50.19   11.40 
   3  -2  -5   20.30    7.30 
   2   3  -5   33.60    4.20 
  -2  -3  -5   41.90   10.20 
  -2  -3  -5   37.90    5.20 
   2   3  -5   25.20    8.50 
  -3   2  -5   24.10    8.10 
   2   3  -5   27.20    2.80 
   3  -2  -5   34.70    7.20 
   2   3  -5   22.60    7.90 
  -3   2  -5   28.40    3.60 
  -3   2  -5    4.40    8.30 
  -2  -3  -5   22.80    3.90 
   2   3  -5   33.30    4.40 
  -2  -3  -5   30.70    5.00 
  -2  -3  -5   27.90    4.50 
  -2  -3  -5   27.30    5.20 
  -3   2  -5   30.90    7.50 
  -3   2   5   45.10    7.80 
   3  -2   5   32.80    4.40 
   2   3   5   30.80    4.00 
   2   3   5   28.30    5.60 
   2   3   5   31.20    4.10 
  -2  -3   5   31.30    3.90 
  -2  -3   5   33.80    9.70 
   3  -2   5   26.90    3.40 
   3  -2   5   25.10    7.10 
  -2  -3   5   32.10    6.90 
  -2  -3   5   27.00    6.90 
  -3   2   5   38.60    7.90 
  -2  -3   5   31.30    3.10 
  -3   2   5   45.10    8.30 
   4   3  -5    6.00    2.30 
   3  -4  -5    7.90    5.70 
   4   3  -5    4.10    3.60 
   4   3  -5   11.20    3.50 
   3  -4  -5   11.70   10.60 
   3  -4  -5   22.50   14.40 
  -3   4  -5    5.30    4.90 
   4   3  -5    2.00    6.30 
  -4  -3  -5    1.40    7.00 
  -4  -3  -5   10.20    3.30 
  -4  -3  -5   17.20    3.80 
  -4  -3  -5    9.20   11.00 
   4   3  -5    6.60    5.10 
  -3   4  -5    3.90    6.10 
  -3   4  -5    7.10    2.80 
   3  -4  -5   12.30   13.70 
  -4  -3  -5    3.50    2.60 
  -3   4  -5    5.00    8.20 
   3  -4  -5   14.10    6.40 
  -4  -3  -5    4.90    5.20 
   3  -4   5    5.00    3.10 
   4   3   5    6.40    7.20 
  -4  -3   5    5.70    2.80 
   4   3   5   10.80    3.10 
  -3   4   5    8.80    4.10 
  -4  -3   5    8.60    2.40 
   4   3   5    8.80    2.90 
  -3   4   5   14.70    6.40 
   3  -4   5   12.80   13.50 
  -4  -3   5    7.60    9.00 
  -4  -3   5    8.50    3.40 
   3  -4   5    5.60    1.20 
  -3   4   5   -1.60    3.00 
   4   3   5    9.10    2.60 
  -4  -3   5    4.20    5.50 
  -3   4   5   14.40    3.60 
  -4  -3   5    7.70    5.60 
  -3   4   5   15.80    5.60 
   3  -4   5    7.80    2.40 
   4   3   5    7.80    5.60 
   4   3   5    7.70    2.80 
   3  -4   5    5.60    4.60 
  -1   4  -5  267.77   31.40 
   1  -4  -5  256.47   24.10 
  -1   4  -5  255.67   31.20 
   4   1  -5  284.67   23.80 
   4   1  -5  313.97   30.60 
  -1   4  -5  281.47   30.70 
   4   1  -5  284.97   22.30 
  -4  -1  -5  272.67   21.30 
   1  -4  -5  257.87   28.10 
  -4  -1  -5  311.27   21.20 
   4   1  -5  317.87   23.90 
   1  -4  -5  281.67   27.00 
   4   1  -5  298.27   21.70 
  -1   4  -5  288.47   19.80 
  -1   4  -5  273.87   23.40 
  -4  -1  -5  283.47   20.50 
   4   1  -5  277.77   21.30 
   1  -4  -5  254.87   25.90 
  -1   4  -5  290.97   22.60 
   1  -4  -5  290.67   23.80 
  -1   4   5  261.37   21.30 
   1  -4   5  293.87   19.40 
   1  -4   5  286.07   22.00 
   4   1   5  270.37   23.40 
  -4  -1   5  277.77   29.20 
   4   1   5  298.67   22.00 
  -4  -1   5  236.68   22.30 
  -1   4   5  325.57   24.10 
   4   1   5  273.57   20.50 
  -1   4   5  288.57   23.90 
   1  -4   5  295.77   29.70 
  -4  -1   5  225.08   21.90 
  -4  -1   5  282.27   20.70 
   4   1   5  291.27   20.30 
  -4  -1   5  274.47   24.40 
   4  -1  -5  286.37   25.40 
   1   4  -5  239.58   28.80 
   1   4  -5  281.67   20.40 
   1   4  -5  292.87   21.80 
   1   4  -5  249.08   24.00 
  -1  -4  -5  276.47   21.10 
  -1  -4  -5  254.97   25.40 
  -4   1  -5  239.88   33.20 
   1   4  -5  291.67   22.30 
   1   4  -5  252.27   28.20 
   1   4  -5  283.97   22.10 
  -1  -4  -5  277.87   22.60 
  -1  -4  -5  292.57   22.60 
   4  -1  -5  273.17   22.30 
  -1  -4  -5  289.57   23.20 
   4  -1  -5  233.28   23.00 
  -4   1  -5  272.57   23.40 
  -4   1  -5  280.57   19.80 
  -4   1  -5  282.77   20.70 
   1   4   5  294.57   21.60 
  -4   1   5  313.07   25.70 
   4  -1   5  284.27   22.00 
  -1  -4   5  291.57   28.00 
  -1  -4   5  299.57   25.90 
  -1  -4   5  267.07   20.30 
  -4   1   5  304.77   27.60 
   1   4   5  270.27   21.00 
   1   4   5  342.47   26.70 
   4  -1   5  275.37   20.30 
   4  -1   5  276.17   19.40 
  -1  -4   5  234.88   25.20 
   1   4   5  296.97   21.10 
  -1  -4   5  277.37   18.90 
   1   4   5  293.67   22.60 
   4  -1   5  260.47   24.10 
   1   4   5  288.97   20.80 
  -4   1   5  281.77   21.20 
  -4   1   5  267.27   20.20 
  -4   3  -5    8.90    8.80 
  -3  -4  -5    6.70    3.30 
  -3  -4  -5    9.50    8.20 
   4  -3  -5   13.80   11.20 
  -4   3  -5    5.30    6.70 
  -3  -4  -5    9.30    3.40 
   3   4  -5   -1.80    6.10 
   4  -3  -5    6.90    7.40 
  -3  -4  -5   10.30    4.90 
  -3  -4  -5    4.70    2.50 
   3   4  -5    6.40    6.80 
   3   4  -5   10.90    3.40 
   3   4  -5    6.70    3.90 
   4  -3  -5    9.30    6.70 
  -4   3  -5   10.30    2.90 
   3   4  -5    6.80    1.90 
  -3  -4  -5    2.10    7.40 
   4  -3  -5    8.40    9.30 
   3   4  -5    3.90    2.70 
   4  -3   5   13.80    7.80 
  -4   3   5    9.10    6.50 
  -3  -4   5    9.60    5.90 
   4  -3   5    6.20    0.90 
   3   4   5    3.20    2.40 
   4  -3   5    7.20    1.00 
   3   4   5    3.20    2.30 
  -3  -4   5    4.40    1.80 
  -3  -4   5   -3.10    7.50 
  -4   3   5    9.60    5.60 
  -4   3   5    8.00    2.30 
  -4   3   5   23.40    8.80 
  -3  -4   5    7.20    3.20 
  -4   3   5    3.10    5.00 
   3   4   5    5.80    4.60 
   3   4   5    6.40    2.80 
  -3  -4   5    4.00    5.60 
  -3  -4   5    4.20    2.50 
   4  -3   5    7.60    3.60 
   4  -3   5    2.90    2.20 
  -5  -4  -5  162.28   20.00 
  -5  -4  -5  200.68   16.40 
   5   4  -5  200.88   19.80 
   4  -5  -5  201.98   32.70 
   4  -5  -5  331.87   44.50 
  -5  -4  -5  135.39   27.40 
  -4   5  -5  156.68   25.00 
  -4   5  -5  213.68   24.70 
  -4   5  -5  218.68   16.70 
   5   4  -5  178.78   22.60 
   5   4  -5  178.58   16.60 
   5   4  -5  185.08   14.90 
   5   4  -5  179.28   26.50 
  -5  -4  -5  190.08   16.40 
  -4   5  -5  174.48   22.20 
  -5  -4   5  197.98   23.10 
  -5  -4   5  190.08   14.90 
  -4   5   5  206.58   16.80 
  -5  -4   5  144.09   20.20 
   4  -5   5  180.08   22.50 
   5   4   5  164.88   18.30 
   5   4   5  177.18   24.70 
  -4   5   5  182.08   19.20 
   5   4   5  172.18   22.00 
  -4   5   5  198.18   18.80 
  -5  -4   5  192.38   17.80 
  -5  -4   5  204.28   16.20 
   4  -5   5  208.38   18.40 
   5   4   5  196.58   16.20 
   4  -5   5  209.28   15.60 
   5   4   5  184.48   15.60 
   5   2  -5  458.75   44.10 
   5   2  -5  386.96   32.50 
  -2   5  -5  462.55   36.40 
  -5  -2  -5  446.46   32.00 
   2  -5  -5  399.76   40.50 
   5   2  -5  445.56   32.70 
   5   2  -5  436.56   36.00 
   5   2  -5  404.96   31.50 
  -5  -2  -5  444.26   32.80 
   2  -5  -5  527.55   35.80 
  -5  -2  -5  438.56   31.70 
   2  -5  -5  405.16   45.20 
   2  -5  -5  388.76   42.70 
   5   2  -5  430.36   35.60 
  -2   5  -5  407.26   43.60 
  -5  -2  -5  394.46   37.80 
  -2   5  -5  553.14   52.39 
  -2   5  -5  435.86   35.60 
   2  -5  -5  333.57   39.70 
   5   2   5  440.96   32.70 
  -5  -2   5  438.16   37.60 
   2  -5   5  478.25   34.90 
  -5  -2   5  459.85   32.30 
   5   2   5  411.16   35.90 
   5   2   5  439.66   31.30 
   2  -5   5  561.44   47.00 
   2  -5   5  459.85   33.50 
  -5  -2   5  367.16   34.80 
   5   2   5  419.16   31.40 
  -5  -2   5  440.36   43.90 
   5   2   5  455.35   42.80 
  -2   5   5  403.06   31.00 
   2  -5   5  446.76   30.70 
  -5  -2   5  451.65   34.30 
  -5  -2   5  459.55   31.50 
   2  -5   5  438.06   30.30 
  -2   5   5  484.95   34.00 
  -2   5   5  421.66   34.50 
   0   5  -5   -0.90    2.80 
   0  -5  -5    0.10    4.50 
   0  -5  -5    1.70    4.00 
   0   5  -5    1.90    3.30 
   5   0  -5    1.40    2.60 
  -5   0  -5   -1.10    1.90 
   0   5  -5    4.30    8.20 
  -5   0  -5    1.10    1.60 
   5   0  -5   -1.40    6.40 
   5   0  -5   -6.00    4.10 
   0   5  -5    0.10    1.60 
   0  -5  -5    3.00    4.00 
   0   5  -5   -0.10    2.50 
   0   5  -5    7.40    6.10 
   5   0  -5    0.80    4.10 
   0  -5  -5    5.20    4.70 
  -5   0  -5   -3.50   13.50 
   5   0  -5   -2.70    3.60 
   0   5  -5    1.00    6.00 
  -5   0  -5    1.40    2.90 
   0  -5   5   -3.20   11.60 
   5   0   5    2.40    1.80 
  -5   0   5    2.70    3.40 
   0   5   5   -0.50    1.90 
   5   0   5   10.40    3.00 
   0  -5   5    1.40    1.80 
   5   0   5   -4.00    2.70 
   0   5   5    0.80    3.40 
   0  -5   5    4.00    1.50 
  -5   0   5    0.60    2.10 
   0  -5   5   13.90    7.90 
   0   5   5    2.30    2.80 
  -5   0   5   -2.50    6.10 
  -5   0   5    2.90    7.50 
   0  -5   5    3.00    1.10 
   0   5   5   -2.20    3.00 
   5   0   5    3.40    4.00 
  -5   0   5   -4.00    3.40 
   2   5  -5  423.76   33.40 
  -5   2  -5  359.96   45.10 
   2   5  -5  451.65   32.80 
  -2  -5  -5  412.66   34.00 
   2   5  -5  437.26   36.00 
  -2  -5  -5  424.36   33.80 
  -2  -5  -5  434.76   39.60 
   2   5  -5  430.86   42.60 
   5  -2  -5  487.05   36.30 
   2   5  -5  448.46   31.30 
   2   5  -5  352.46   40.20 
  -5   2  -5  333.47   42.30 
  -5   2  -5  391.16   46.00 
  -2  -5  -5  440.66   32.70 
  -5   2  -5  449.76   31.50 
   5  -2  -5  405.06   33.60 
  -2  -5  -5  434.26   33.00 
  -2  -5  -5  469.35   34.90 
   2   5   5  477.75   32.90 
  -2  -5   5  403.76   40.80 
  -5   2   5  449.36   31.30 
   5  -2   5  442.46   31.00 
   5  -2   5  413.96   33.80 
  -5   2   5  448.06   39.30 
  -2  -5   5  344.67   36.30 
   2   5   5  533.85   39.30 
  -2  -5   5  450.25   31.40 
   2   5   5  438.96   31.50 
  -5   2   5  475.35   32.20 
  -5   2   5  389.16   40.50 
  -2  -5   5  435.46   29.60 
   2   5   5  418.66   34.20 
   2   5   5  403.26   34.30 
   5  -2   5  451.35   29.60 
   2   5   5  458.85   31.80 
  -2  -5   5  402.06   39.40 
  -4  -5  -5  183.78   25.30 
  -5   4  -5  167.48   23.00 
   4   5  -5  196.88   16.20 
  -4  -5  -5  184.18   16.50 
  -4  -5  -5  181.38   15.90 
   4   5  -5  203.38   27.50 
   4   5  -5  194.68   14.20 
  -4  -5  -5  157.88   18.40 
   4   5  -5  175.78   24.00 
   4   5  -5  184.18   16.50 
  -5   4  -5  171.48   25.70 
  -5   4  -5  172.48   15.10 
   4   5  -5  180.88   19.60 
  -5   4  -5  177.18   31.20 
  -5   4   5  201.68   21.20 
  -4  -5   5  171.28   16.80 
  -4  -5   5  184.28   14.20 
   5  -4   5  183.68   18.40 
   5  -4   5  181.98   13.30 
  -5   4   5  196.88   15.40 
   5  -4   5  191.68   13.20 
   4   5   5  182.98   15.70 
   5  -4   5  189.88   26.50 
  -4  -5   5  175.08   20.70 
   5  -4   5  193.48   15.40 
  -4  -5   5  167.18   22.40 
   4   5   5  157.08   20.80 
  -4  -5   5  212.58   17.50 
  -6  -5  -5   24.50    6.00 
  -5   6  -5   70.79   22.20 
   6   5  -5   36.50    6.10 
  -5   6  -5   49.80   17.00 
   5  -6  -5   58.19   20.00 
   6   5  -5   15.80   14.30 
   5  -6  -5  125.19   27.80 
  -6  -5  -5   33.50    7.60 
   6   5  -5   35.80   12.10 
   6   5  -5   38.40   10.40 
  -5   6  -5   35.60   14.20 
  -5   6  -5   43.60    7.80 
   5  -6  -5   81.19   27.70 
   6   5  -5   43.80    8.10 
  -6  -5  -5   36.80    7.40 
  -5   6   5   62.49   14.00 
  -6  -5   5   40.20    7.20 
   6   5   5   40.60    7.50 
   5  -6   5   33.20    9.50 
   5  -6   5   47.90   17.50 
  -5   6   5   42.10    9.40 
   6   5   5   24.60   11.50 
   6   5   5   23.90   11.50 
  -6  -5   5   38.80    6.00 
  -6  -5   5   29.40    8.00 
   5  -6   5   29.60    4.40 
  -5   6   5   44.20   10.30 
   5  -6   5   31.30    6.40 
   6   5   5   27.80    6.90 
  -5   6   5   37.60    7.80 
  -3   6  -5   17.90   15.70 
   6   3  -5    6.30    3.60 
   6   3  -5    5.70    5.30 
   6   3  -5    4.30    3.50 
   3  -6  -5   14.50    7.20 
  -3   6  -5   19.40    7.70 
   6   3  -5    8.70    5.90 
  -6  -3  -5   -3.60   17.40 
   3  -6  -5   -2.20   13.70 
  -6  -3  -5    2.50    3.30 
   6   3  -5    0.60    9.30 
  -3   6  -5    3.70    9.10 
  -6  -3  -5    9.30   10.70 
   3  -6  -5   36.00   18.90 
  -6  -3  -5    5.10    3.30 
  -6  -3  -5    7.70    3.80 
   3  -6  -5   -3.60   13.40 
  -3   6   5   10.20    5.30 
   3  -6   5    3.60    5.60 
  -6  -3   5   12.70    5.50 
   6   3   5   10.50    3.80 
  -6  -3   5   -4.00    7.50 
  -6  -3   5    0.00    8.30 
   6   3   5    6.60    3.40 
   3  -6   5    4.60    2.20 
  -3   6   5    1.10    3.10 
  -3   6   5    4.30    4.40 
   6   3   5    0.90    5.80 
  -3   6   5   15.90    8.40 
  -6  -3   5    7.10    3.40 
   6   3   5   14.00   10.30 
  -6  -3   5   16.00    4.60 
   3  -6   5   13.20    5.40 
   3  -6   5    3.90    3.40 
  -6  -1  -5   38.20    7.60 
   1  -6  -5   50.59   10.90 
   6   1  -5   34.20    6.80 
  -1   6  -5   46.80   15.20 
   1  -6  -5   42.20   11.10 
  -1   6  -5   30.40    7.50 
  -6  -1  -5   36.80    5.00 
   1  -6  -5   30.90   11.60 
   6   1  -5   37.20    6.90 
   6   1  -5   32.10    9.00 
   1  -6  -5   41.60   10.70 
  -1   6  -5   45.40    5.20 
  -6  -1  -5    6.80   18.90 
  -1   6  -5   40.10   15.10 
  -6  -1  -5   14.00   14.60 
   6   1  -5   55.99   18.60 
   1  -6  -5   27.60   10.80 
  -1   6  -5   36.30   13.60 
  -1   6  -5   33.80    7.80 
   1  -6   5   36.80    4.70 
  -6  -1   5   37.70    5.70 
  -6  -1   5   46.00   15.50 
  -6  -1   5   41.70    9.20 
  -1   6   5   40.80    7.60 
   6   1   5   35.90    5.70 
   1  -6   5   32.40    4.60 
  -6  -1   5   41.70   13.80 
  -6  -1   5   35.90    8.80 
   1  -6   5   41.30    6.70 
  -1   6   5   28.20    5.60 
   6   1   5   48.60    7.90 
   6   1   5   43.70   13.10 
   6   1   5   34.60    5.20 
  -1   6   5   63.59   11.30 
  -1   6   5   46.00    8.70 
   1   6  -5   35.90    5.40 
   1   6  -5   34.80   13.90 
  -6   1  -5   32.70    4.50 
   1   6  -5   42.60   14.80 
   1   6  -5   40.50    7.60 
   6  -1  -5   11.70    7.30 
  -6   1  -5   19.80   22.60 
   6  -1  -5   24.20    8.50 
  -6   1  -5   15.30    6.80 
   6  -1  -5   39.60    7.40 
   1   6  -5   36.60    7.20 
   6  -1  -5   52.69   16.70 
  -1  -6  -5   39.40    8.00 
   6  -1  -5   34.60   10.90 
   1   6  -5   31.30    7.00 
  -6   1  -5   33.40    5.70 
   1   6  -5   50.99   11.70 
  -1  -6  -5   34.80    8.60 
  -1  -6  -5   37.90    5.80 
  -1  -6  -5   35.00    9.20 
  -1  -6  -5   27.70    7.90 
  -6   1   5   49.80    8.50 
   1   6   5   39.10    6.30 
   1   6   5   39.40    9.50 
  -1  -6   5   34.00    3.40 
   1   6   5   29.20    6.60 
   6  -1   5   24.60    7.30 
  -6   1   5   30.80   11.20 
  -1  -6   5   34.40    5.30 
   6  -1   5   33.80    4.50 
  -6   1   5   32.60    5.70 
  -6   1   5   36.20   15.60 
   6  -1   5   42.00    5.90 
   1   6   5   29.60    8.00 
   6  -1   5   51.09   10.20 
  -1  -6   5   35.30   13.60 
  -6   3  -5   -2.00   10.00 
   3   6  -5    2.40    3.60 
  -3  -6  -5    5.20    3.80 
   6  -3  -5    3.30    9.80 
  -6   3  -5   10.00    3.70 
  -3  -6  -5    3.90    6.60 
   3   6  -5    9.10   10.50 
   6  -3  -5   18.40   14.80 
   3   6  -5   11.80    6.60 
   3   6  -5   11.00    4.30 
   6  -3  -5   37.80    8.70 
   3   6  -5    5.70    9.10 
  -3  -6  -5   10.20    4.30 
  -6   3   5    9.40   11.20 
   3   6   5    7.50    3.70 
   3   6   5    8.60    3.40 
  -6   3   5    8.70    8.80 
   3   6   5   13.00    7.10 
   6  -3   5    6.20    3.50 
   3   6   5    6.10    5.80 
  -3  -6   5   14.10    5.00 
  -3  -6   5    3.00    7.70 
   6  -3   5    5.80    5.80 
  -6   3   5    8.80    3.40 
   6  -3   5   17.50    9.90 
  -3  -6   5    8.40    2.30 
  -6   3   5   10.80    8.20 
  -6   3   5   10.00    4.00 
   3   6   5    8.80    7.70 
   3   6   5    6.70    3.70 
   5   6  -5   14.50   11.40 
   5   6  -5   35.10    7.50 
  -5  -6  -5   34.60    7.50 
   5   6  -5   31.50    5.30 
  -6   5  -5    7.40   18.30 
   6  -5  -5  123.29   29.90 
  -5  -6  -5    7.30   13.20 
   5   6  -5   13.00   12.60 
  -5  -6  -5   25.80    6.50 
   6  -5  -5   66.49   16.50 
  -5  -6  -5   30.40    7.20 
  -6   5  -5   47.60   15.60 
   5   6  -5   31.50    9.60 
  -5  -6   5   35.20    8.30 
   5   6   5   32.70    7.00 
   6  -5   5   55.99   19.10 
  -5  -6   5   35.20    5.40 
   6  -5   5   29.00    9.50 
   5   6   5   31.20    6.80 
   6  -5   5   29.30    4.60 
   5   6   5   28.50   11.50 
   6  -5   5   27.60    6.80 
  -6   5   5   65.59   13.80 
  -6   5   5   42.00    7.10 
   5   6   5   43.40   13.20 
  -5  -6   5   46.50    7.30 
  -6   5   5   38.90   11.40 
  -6   5   5   60.99   13.60 
   7   6  -5    8.60   14.10 
   6  -7  -5   14.00   25.90 
  -7  -6  -5    2.70    4.60 
  -6   7  -5    1.70   13.30 
   6  -7  -5    8.40   19.60 
  -7  -6  -5   -1.10    5.10 
   7   6  -5    7.90    9.50 
  -6   7  -5   -0.40   16.70 
  -6   7  -5   -4.80    8.10 
   7   6  -5    7.60    5.20 
  -7  -6  -5    1.30    4.60 
   6  -7  -5   -4.80   16.00 
   7   6  -5   -6.30    6.10 
   7   6   5   -2.00    4.40 
  -6   7   5    7.90   15.50 
  -7  -6   5   -3.20    3.10 
   7   6   5    0.80    9.20 
   6  -7   5    2.80    3.20 
   7   6   5   -1.10    8.20 
  -6   7   5    9.70    7.30 
  -7  -6   5   -2.30    6.60 
  -7  -6   5    3.70    4.40 
  -6   7   5   -2.20    4.80 
   6  -7   5    7.20   18.30 
  -6   7   5   -1.20    9.30 
   7   4  -5   72.59   22.00 
   4  -7  -5  109.49   16.80 
  -4   7  -5  160.48   36.70 
  -7  -4  -5   56.99   10.20 
  -4   7  -5   64.59   14.10 
   7   4  -5   52.89   13.50 
  -7  -4  -5   53.09    8.90 
  -4   7  -5   63.39   18.10 
   7   4  -5   61.29    9.80 
   4  -7  -5   29.20   22.50 
  -7  -4  -5   74.79    9.90 
   4  -7  -5   50.79   26.60 
   4  -7  -5   79.19   26.50 
   7   4  -5   63.59   13.40 
  -4   7   5   57.09    9.60 
  -7  -4   5   52.89    8.70 
  -7  -4   5   68.89    8.30 
  -4   7   5   55.39   10.80 
   7   4   5   62.19    9.00 
   7   4   5   55.69   18.10 
   4  -7   5   67.39   12.50 
   4  -7   5   50.59   14.80 
   7   4   5   62.29   14.80 
  -7  -4   5   58.99   12.00 
   4  -7   5   47.40    8.40 
   7   4   5   38.40    8.20 
  -4   7   5   74.59   10.70 
   4  -7   5   55.49    6.40 
   7   2  -5   89.99   10.80 
  -2   7  -5  113.29   24.10 
   2  -7  -5   74.39   17.70 
  -2   7  -5  105.29   16.90 
   7   2  -5   80.79   14.00 
   2  -7  -5   77.39   22.80 
   2  -7  -5  108.49   15.40 
  -2   7  -5   79.99   26.80 
   2  -7  -5   85.69   22.40 
  -2   7  -5   95.89    9.00 
  -7  -2  -5   79.99   11.40 
  -7  -2  -5   82.09    9.20 
  -2   7  -5  138.69   30.50 
   7   2  -5  116.89   25.80 
  -7  -2  -5   71.29    9.50 
  -7  -2   5   87.49   14.90 
  -2   7   5  102.59   13.00 
   2  -7   5   90.49    8.50 
   2  -7   5   82.39   11.40 
  -2   7   5   89.79   12.10 
   7   2   5   80.69    9.00 
  -7  -2   5   74.79    8.90 
  -2   7   5  100.69    9.70 
   2  -7   5   90.29   13.20 
   2  -7   5   77.49    8.50 
   7   2   5   87.49   17.30 
  -2   7   5   71.09    9.70 
   7   2   5  136.09   24.90 
   7   2   5   74.69   10.40 
  -7   0  -5    0.20    3.10 
   0   7  -5   -5.50    9.30 
  -7   0  -5    0.70    2.50 
   0  -7  -5    4.20    8.70 
   0  -7  -5    3.90    7.00 
   0   7  -5   -2.40    3.90 
   0  -7  -5   -5.90    4.70 
   0   7  -5    0.20    8.10 
  -7   0  -5   -1.10    4.40 
   7   0  -5    5.70   12.20 
   0   7  -5    9.90    9.70 
   0   7  -5    3.30    4.50 
   0   7  -5    6.30    3.30 
   7   0  -5   -0.50    3.70 
   7   0  -5    2.10    5.90 
  -7   0   5   -3.30    2.50 
   0  -7   5   -2.10    2.50 
   0   7   5    1.30    5.80 
  -7   0   5  -12.00    6.50 
  -7   0   5   -1.80    9.20 
   0   7   5   -3.10    4.70 
   0  -7   5    4.30    2.00 
   0   7   5    2.00    2.90 
   0   7   5    4.00    5.00 
  -7   0   5    2.90    6.80 
   7   0   5    1.50    4.20 
   0   7   5    0.90    2.50 
   0  -7   5   -1.20    2.80 
   7   0   5    0.00    2.60 
   7   0   5    8.10    8.80 
   0  -7   5   -1.30   11.40 
  -7   2  -5   47.60   18.40 
  -2  -7  -5   80.89   13.20 
  -2  -7  -5   77.79   11.40 
  -7   2  -5   78.59    9.50 
   7  -2  -5   65.69   13.00 
   2   7  -5   90.49   15.40 
   2   7  -5   83.49   22.70 
  -7   2  -5   92.19   18.40 
   2   7  -5   95.49   11.60 
   7  -2  -5  145.49   20.90 
  -2  -7  -5   94.89   11.60 
   2   7  -5   94.09    9.40 
   2   7  -5   91.29   12.50 
  -2  -7  -5  103.19   12.30 
   2   7  -5   56.49   20.00 
   2   7   5   73.59   10.60 
  -7   2   5   90.39   22.10 
   2   7   5   80.49   11.30 
   2   7   5  105.89   15.60 
   2   7   5   86.59   11.80 
   7  -2   5  105.29   14.10 
   2   7   5   94.29   13.50 
  -7   2   5   84.89   19.70 
  -7   2   5   88.09    9.20 
  -2  -7   5   83.99    7.30 
  -7   2   5   82.39   10.70 
   2   7   5   81.29    9.60 
   7  -2   5   91.69    8.20 
  -4  -7  -5   48.90    9.70 
  -7   4  -5   61.39   18.40 
  -4  -7  -5   50.59   13.70 
  -7   4  -5   61.29    8.60 
   4   7  -5   52.39   12.50 
   4   7  -5   64.59   21.90 
   4   7  -5   42.30   16.10 
   4   7  -5   55.19    9.90 
  -4  -7  -5   42.20    8.40 
   4   7   5   48.20   12.70 
  -4  -7   5   56.29    6.40 
  -7   4   5  117.79   24.10 
  -7   4   5   51.59    7.60 
   4   7   5   55.19    9.70 
   4   7   5   69.59   16.50 
  -7   4   5   62.19   16.30 
   7  -4   5   93.89   20.20 
  -4  -7   5   53.49    8.50 
  -4  -7   5   58.29   10.40 
   4   7   5   67.99   13.60 
   4   7   5   59.99    9.70 
   7  -4   5   57.09    6.10 
   6   7  -5    7.00    5.70 
  -6  -7  -5    3.30    4.50 
   7  -6  -5    4.90   12.80 
  -6  -7  -5   13.00    6.30 
   6   7  -5  -10.60   13.70 
  -6  -7  -5   -0.60    5.20 
  -7   6  -5   16.80   19.40 
   7  -6  -5   18.20   20.80 
   7  -6  -5    3.10   12.90 
   6   7  -5    8.90   11.40 
  -7   6  -5   -1.10    4.20 
  -7   6  -5    3.80    9.70 
   6   7  -5   -6.80    5.10 
   6   7  -5   -3.70    6.40 
   6   7   5    5.60    5.40 
   7  -6   5    5.40    3.60 
  -7   6   5   -0.40    8.50 
   6   7   5    0.40   10.00 
   7  -6   5   -5.10    3.20 
   7  -6   5   -1.00    7.20 
  -7   6   5   -1.20    3.90 
   7  -6   5   -7.90   16.00 
  -7   6   5    3.60    7.90 
  -7   6   5   -8.20   10.60 
  -6  -7   5   -4.20    3.70 
  -6  -7   5    2.00    3.40 
   6   7   5    2.00    8.40 
  -6  -7   5   -8.00    6.00 
   8   7  -5   15.20   16.00 
   8   7  -5   36.20   13.00 
   7  -8  -5  120.19   33.60 
  -8  -7  -5   20.40    9.50 
   7  -8  -5   97.39   28.10 
  -7   8  -5   82.59   29.00 
  -8  -7  -5   37.20    9.10 
   8   7  -5   36.40    9.60 
   8   7  -5   19.20   23.10 
   7  -8  -5   75.49   40.40 
   7  -8   5   31.50    7.70 
   7  -8   5   24.10   12.00 
  -8  -7   5   21.50    7.20 
   7  -8   5   33.40    6.50 
   8   7   5    5.00   14.80 
  -7   8   5   55.99   13.00 
   8   7   5   30.20   14.80 
  -7   8   5   52.79   14.20 
  -7   8   5   39.90    9.60 
   8   7   5   22.40    8.40 
   7  -8   5   -9.90   26.50 
  -8  -7   5   39.30   12.70 
  -8  -7   5   28.30    6.80 
  -8  -5  -5  129.59   14.30 
  -5   8  -5  122.89   25.20 
  -8  -5  -5  102.69   13.60 
   5  -8  -5  191.28   49.60 
   8   5  -5  124.79   14.80 
   8   5  -5  125.49   19.70 
   5  -8  -5  202.88   41.30 
   8   5  -5  152.08   34.30 
  -5   8  -5  129.79   21.50 
   8   5  -5  122.49   20.00 
   5  -8  -5  118.89   34.90 
  -8  -5  -5  120.19   16.30 
   5  -8   5   89.99   21.60 
  -5   8   5  131.29   18.20 
   8   5   5  132.69   28.10 
  -8  -5   5  121.89   13.40 
  -5   8   5  178.48   17.70 
  -8  -5   5  137.29   18.60 
  -8  -5   5  133.99   13.20 
   5  -8   5  145.89   29.30 
   8   5   5  116.39   21.90 
   8   5   5  120.59   14.80 
   5  -8   5  130.09   11.90 
  -5   8   5  150.18   15.70 
   8   3  -5    4.50    7.70 
   3  -8  -5  -10.60   14.10 
   8   3  -5    3.80   13.30 
  -3   8  -5   17.20   19.00 
  -8  -3  -5    3.50    4.30 
  -3   8  -5   15.20   19.70 
  -8  -3  -5   11.50    6.10 
   3  -8  -5    6.20    9.60 
  -3   8  -5    8.30    7.50 
   3  -8  -5   15.30   21.40 
  -3   8  -5   10.40   11.60 
   3  -8  -5    4.20   17.30 
   8   3  -5   20.50    6.20 
  -8  -3  -5   -0.30    3.50 
   8   3   5   22.80   15.40 
   3  -8   5   11.60    7.20 
   3  -8   5    3.00    3.50 
   3  -8   5    6.20    8.10 
  -8  -3   5    3.00    6.70 
  -3   8   5    5.00    6.00 
   8   3   5    9.90    5.10 
   8   3   5    7.20    9.40 
  -3   8   5   16.10   18.00 
  -3   8   5    9.00    6.90 
  -8  -3   5   10.60    4.30 
  -3   8   5    5.00    5.10 
   3  -8   5    2.30    4.60 
  -3   8   5    3.80    4.10 
  -8  -1  -5  166.68   14.60 
  -1   8  -5  179.78   35.20 
  -1   8  -5  158.68   18.30 
   8   1  -5  161.98   16.60 
   8   1  -5  245.98   36.00 
   8   1  -5  159.68   21.20 
  -8  -1  -5  167.48   19.30 
  -1   8  -5  155.98   32.60 
  -1   8  -5  211.18   31.30 
  -1   8  -5  157.88   15.50 
   1  -8  -5  161.28   21.50 
  -1   8  -5  149.19   19.10 
   1  -8  -5  160.98   21.40 
  -8  -1  -5  168.38   15.80 
   1  -8  -5  147.09   24.70 
   8   1   5  191.58   18.20 
  -1   8   5  161.88   15.80 
  -8  -1   5  162.08   22.40 
  -8  -1   5  159.78   14.80 
   1  -8   5  148.59   14.10 
   1  -8   5  160.28   14.40 
   8   1   5  234.08   26.60 
   8   1   5  165.78   14.40 
   1   8  -5  165.58   17.50 
   1   8  -5  169.08   24.70 
   8  -1  -5  177.08   24.10 
   8  -1  -5  137.69   16.20 
   1   8  -5  165.98   31.30 
  -1  -8  -5  148.39   20.80 
  -1  -8  -5  177.38   18.40 
   1   8  -5  173.58   33.50 
  -8   1  -5  156.88   22.10 
   1   8  -5  168.98   17.90 
  -8   1  -5  162.98   15.20 
  -1  -8  -5  161.98   18.20 
  -8   1   5  152.58   14.40 
   1   8   5  171.78   15.40 
   1   8   5  162.08   16.30 
  -1  -8   5  162.68   12.40 
   1   8   5  154.68   18.10 
   8  -1   5  148.39   13.50 
   1   8   5  127.79   14.90 
  -1  -8   5  167.18   14.80 
   8  -1   5  170.28   18.50 
   1   8   5  178.18   20.60 
  -8   1   5  137.69   27.00 
  -3  -8  -5    3.90    5.20 
  -8   3  -5    5.10    4.40 
  -8   3  -5   -6.90   10.60 
   3   8  -5   -2.60    7.70 
   3   8  -5    1.90   12.40 
   8  -3  -5   -1.80   11.60 
   3   8  -5    6.70    5.60 
   3   8  -5   10.70    6.30 
  -3  -8  -5    2.90    7.10 
   8  -3  -5   24.70   19.10 
  -8   3  -5    9.10   13.90 
   8  -3  -5   11.30    6.20 
  -3  -8  -5    2.50    5.10 
   3   8  -5    4.70   13.80 
  -8   3   5    2.00    7.00 
   3   8   5    3.70    6.20 
   3   8   5    5.50    6.80 
   8  -3   5    3.70    3.60 
  -8   3   5    4.70   16.00 
   3   8   5    2.30    3.60 
   8  -3   5    3.40   13.80 
   3   8   5    4.60    6.20 
   8  -3   5   -0.80    6.80 
  -8   3   5    8.90    4.50 
   3   8   5    8.60    8.10 
  -3  -8   5    6.00    2.70 
  -8   3   5    5.60    4.40 
  -3  -8   5    6.00    4.20 
   5   8  -5  128.29   15.50 
  -5  -8  -5  124.49   14.40 
  -8   5  -5  112.59   13.00 
  -5  -8  -5  122.89   15.60 
   5   8  -5  102.09   31.10 
  -8   5  -5  146.49   27.90 
   5   8  -5  124.09   20.70 
   5   8  -5  125.39   28.40 
  -8   5  -5   93.99   31.70 
  -5  -8  -5  126.79   25.80 
  -5  -8   5  122.39   13.70 
   8  -5   5  118.99   11.30 
   8  -5   5  147.49   14.50 
   5   8   5  132.99   20.50 
  -5  -8   5  123.89   16.20 
  -8   5   5  121.09   13.10 
  -5  -8   5  135.89   11.80 
   5   8   5   94.39   23.10 
   5   8   5  124.49   15.70 
   8  -5   5  121.49   19.50 
  -8   5   5  180.38   20.20 
   8  -7  -5   37.90   19.00 
   8  -7  -5   75.89   20.60 
  -7  -8  -5   26.40    9.80 
   7   8  -5   35.90   18.10 
   7   8  -5   44.80   26.80 
  -8   7  -5   19.70   13.50 
   7   8  -5   40.20   14.20 
  -8   7  -5   40.80    8.90 
   8  -7  -5  100.19   34.20 
   7   8  -5   33.00    9.70 
  -7  -8  -5   16.20    9.60 
  -7  -8   5   29.70   11.00 
  -7  -8   5   28.20    6.60 
   8  -7   5   30.00   13.30 
   7   8   5   17.00   12.40 
   8  -7   5   29.10    6.30 
  -8   7   5   55.09   14.60 
  -8   7   5   43.70   14.00 
  -7  -8   5   16.40    8.50 
   7   8   5   18.40   15.10 
  -8   7   5   32.00    8.30 
   8  -7   5   23.50    6.20 
   7   8   5   48.90   10.70 
   8  -7   5   86.49   28.90 
  -6   9  -5   15.70   12.60 
   6  -9  -5    2.70   28.20 
   6  -9  -5   -3.10   26.30 
  -9  -6  -5    7.80    7.00 
  -6   9  -5   21.70   20.80 
   9   6  -5   17.90   20.10 
   9   6  -5   17.40    8.20 
   6  -9  -5   20.90   34.50 
  -9  -6  -5   11.20    9.20 
  -9  -6  -5   15.10    6.90 
   9   6  -5    4.40    8.80 
   6  -9   5    6.50   26.30 
  -6   9   5   12.50   11.90 
  -9  -6   5    2.70    5.40 
   9   6   5    5.60    7.10 
  -9  -6   5    3.30   10.80 
  -6   9   5    9.90    7.60 
   9   6   5    2.70   14.20 
   6  -9   5    3.10   10.30 
   9   6   5    7.00   12.70 
  -9  -6   5    5.00    5.50 
  -6   9   5    4.20    7.70 
  -6   9   5   22.10   12.40 
   6  -9   5    4.00    4.90 
   9   4  -5    1.20   16.20 
  -4   9  -5   10.40    9.40 
   4  -9  -5   -2.40   26.40 
   4  -9  -5    4.30   27.40 
  -4   9  -5    8.50   11.60 
   9   4  -5   10.70    5.90 
  -9  -4  -5   15.60    5.80 
  -4   9  -5   -0.80   24.70 
   9   4  -5    8.60    8.90 
  -9  -4  -5   10.20    5.50 
   4  -9  -5  -15.70   19.60 
  -4   9  -5   37.20   25.70 
   4  -9   5    8.50    4.50 
  -9  -4   5    7.60   10.30 
  -9  -4   5    6.00    4.90 
   9   4   5    8.60    6.30 
   9   4   5   16.50   10.40 
  -9  -4   5   15.20    5.50 
  -4   9   5   13.60    8.20 
   4  -9   5   15.80    7.60 
   4  -9   5    2.30    8.80 
   4  -9   5   -2.90   14.70 
  -4   9   5   17.00    9.40 
   9   4   5   -6.60   13.20 
  -4   9   5    5.00    7.50 
  -4   9   5    0.40    5.20 
  -4   9   5    6.30   11.00 
   2  -9  -5   29.70   18.40 
  -9  -2  -5   36.50    7.70 
   9   2  -5   39.90   22.10 
  -9  -2  -5   22.00    9.00 
  -2   9  -5   51.69   24.80 
  -2   9  -5   57.29   19.60 
  -2   9  -5   25.70    9.20 
  -2   9  -5   25.70   28.40 
   9   2  -5   44.10   13.50 
  -9  -2  -5   31.50    6.80 
   9   2  -5   35.00    8.50 
  -2   9  -5   28.10    6.80 
   2  -9  -5   27.80   13.50 
   9   2   5   64.19   24.10 
  -2   9   5   46.20    8.30 
  -2   9   5   38.50   11.30 
  -2   9   5   26.10    7.80 
  -9  -2   5   33.10    6.90 
  -9  -2   5   28.40   13.40 
   2  -9   5   34.70    6.50 
   2  -9   5   30.80    7.10 
   2  -9   5   40.20   10.10 
   9   2   5   29.40   14.00 
  -2   9   5   49.90   13.70 
   9   2   5   25.40    7.90 
   0  -9  -5   -2.50    9.20 
   0   9  -5   -0.10    5.80 
   0  -9  -5  -12.50    6.60 
   9   0  -5   -8.10   14.60 
   9   0  -5    1.40    7.90 
   9   0  -5    0.70    5.00 
  -9   0  -5   -4.10    4.10 
   0   9  -5   -5.50    6.90 
   0   9  -5   -7.30   12.30 
   0   9  -5    0.50   12.00 
   0   9  -5    8.40   19.50 
  -9   0  -5   -0.60    8.50 
   0   9   5    1.40    8.40 
   9   0   5    0.00   10.80 
   9   0   5   -3.90    4.40 
   0  -9   5    2.10    2.80 
   0   9   5    4.40    6.90 
   0  -9   5    2.90    4.20 
   9   0   5    6.80    6.60 
  -9   0   5    4.00    9.80 
  -9   0   5   -1.90    3.60 
  -9   0   5   -7.10   12.80 
   0  -9   5   -3.20    4.80 
   0   9   5    1.60    4.00 
   0   9   5    9.90    8.90 
   0   9   5   -0.50    4.00 
   2   9  -5   43.50   18.70 
   9  -2  -5   38.70    9.30 
  -9   2  -5   11.90   14.50 
  -9   2  -5   40.00   16.50 
   2   9  -5   40.00    9.80 
  -2  -9  -5   38.90   12.80 
   2   9  -5   32.10   22.20 
   9  -2  -5   73.49   27.10 
  -9   2  -5   37.00    7.60 
   9  -2  -5   41.90   16.00 
   2   9  -5   34.80   15.00 
  -2  -9  -5   38.00   10.10 
  -2  -9  -5   13.60    7.90 
   2   9  -5   26.30    8.60 
   9  -2   5   49.10   14.30 
  -2  -9   5   26.00    7.20 
   2   9   5   32.00    7.30 
   2   9   5   27.70   10.50 
  -9   2   5   46.10   12.10 
   2   9   5   41.30   12.60 
  -9   2   5   43.20    7.50 
  -9   2   5   30.60    8.50 
  -9   2   5   58.19   25.20 
   2   9   5   24.30    8.00 
  -2  -9   5   26.40    4.60 
   9  -2   5   32.80   10.30 
   2   9   5   26.80    9.90 
   9  -2   5   33.70    6.50 
   4   9  -5   17.80   10.90 
   9  -4  -5   30.50   19.20 
   4   9  -5    9.40    6.90 
  -9   4  -5   15.10   14.90 
   9  -4  -5   12.90    9.20 
   4   9  -5    2.50   14.30 
   4   9  -5   10.40   18.60 
   4   9  -5    7.70    6.70 
  -4  -9  -5    3.00    6.60 
  -9   4  -5   -1.90   21.30 
  -4  -9  -5    5.30   10.70 
  -4  -9  -5   10.70    6.40 
  -9   4  -5    1.70    4.50 
  -4  -9   5    3.30    3.60 
  -4  -9   5    9.00    5.50 
   9  -4   5   12.50   12.80 
   9  -4   5   13.70    4.90 
   4   9   5   13.40    9.90 
   9  -4   5   14.00   11.50 
   4   9   5    5.20    9.10 
  -9   4   5   13.40    9.10 
   4   9   5    6.00    5.00 
  -9   4   5   10.30    5.50 
   4   9   5    8.00    7.40 
  -9   4   5    6.90    5.10 
  -9   4   5   -5.70   17.70 
   4   9   5    3.20    8.80 
  -6  -9  -5    1.00    7.60 
   6   9  -5    7.80    9.80 
  -9   6  -5    9.90    6.00 
   9  -6  -5    7.40   13.40 
   9  -6  -5   14.80   19.20 
   6   9  -5   10.10   22.80 
   6   9  -5   11.80   15.40 
  -9   6  -5   -3.60   10.40 
   6   9  -5    9.60    8.10 
   6   9   5    4.60    8.10 
   9  -6   5    9.70    5.60 
   6   9   5    8.80   11.20 
   9  -6   5   -4.10   34.30 
   9  -6   5    2.50    6.30 
  -9   6   5   10.20    5.70 
   6   9   5  -10.70   11.30 
  -9   6   5   14.20   15.30 
  -9   6   5   13.20   11.60 
  -6  -9   5    3.20    4.40 
   6   9   5    4.10    6.40 
   9  -6   5   15.90   12.90 
  -5  10  -5    4.50   26.40 
  10   5  -5    5.90   20.10 
   5 -10  -5  -23.10   36.30 
   5 -10  -5   15.50   33.60 
  10   5  -5   10.40    8.00 
 -10  -5  -5    9.90   10.90 
   5 -10  -5    4.00   27.60 
  10   5  -5   -2.00    9.90 
 -10  -5  -5   12.80    7.20 
 -10  -5  -5    7.80    5.30 
  -5  10  -5  -11.50   11.30 
  -5  10  -5   14.80   24.90 
  -5  10   5   13.90    9.30 
  10   5   5    3.20   12.30 
   5 -10   5   11.30    5.90 
 -10  -5   5   17.10   14.10 
  -5  10   5    9.20   11.10 
  -5  10   5    9.80   10.50 
  -5  10   5   24.20    8.30 
 -10  -5   5   18.70    6.70 
 -10  -5   5    7.10    5.80 
  10   5   5    8.20    8.00 
  -5  10   5   18.40   11.70 
 -10  -3  -5    6.30    5.30 
   3 -10  -5   -3.60   24.30 
  -3  10  -5   -3.10   12.30 
  -3  10  -5   14.80   27.80 
   3 -10  -5   39.30   33.00 
   3 -10  -5    3.70   16.90 
  -3  10  -5    7.80    9.20 
  10   3  -5    6.70    6.70 
  -3  10   5    2.80    6.50 
  10   3   5   -6.80   12.30 
 -10  -3   5    0.80    4.60 
 -10  -3   5    1.70   13.60 
  10   3   5   -1.60    7.30 
  -3  10   5    6.70    5.90 
  10   3   5    4.20   16.40 
   3 -10   5    4.40    8.10 
  -3  10   5   -2.00    6.80 
  -3  10   5   -7.30    6.60 
   3 -10   5   -3.30    4.90 
  -3  10   5    8.30   11.90 
  -1  10  -5   -2.10   25.50 
  -1  10  -5   16.70   16.40 
   1 -10  -5   11.70   16.20 
  10   1  -5   11.50   10.70 
  -1  10  -5   25.60   22.60 
 -10  -1  -5   14.00    6.50 
  -1  10  -5   32.30   10.10 
  -1  10  -5    5.50   10.60 
 -10  -1  -5   19.60    6.20 
   1 -10  -5    0.50   10.70 
  10   1  -5    6.90    6.80 
  10   1  -5   10.80   20.60 
 -10  -1   5   14.70    6.00 
  -1  10   5   28.40    7.30 
  -1  10   5   12.30   14.30 
   1 -10   5   30.00    5.90 
  -1  10   5   29.70   12.30 
   1 -10   5    3.40    7.60 
  -1  10   5   23.30    6.40 
 -10  -1   5   22.10   17.40 
  -1  10   5   32.60   11.30 
   1 -10   5   21.00    6.50 
  10   1   5   40.40   18.70 
  10   1   5   18.80    8.70 
  10  -1  -5   20.50    8.50 
   1  10  -5   17.90   10.10 
   1  10  -5   17.80   19.30 
  -1 -10  -5   17.80    9.90 
  -1 -10  -5   22.70   12.50 
  10  -1  -5   15.00   23.80 
   1  10  -5    3.30   20.70 
  10  -1  -5   35.80   16.80 
   1  10  -5   29.40    9.40 
 -10   1  -5   20.80    7.00 
   1  10  -5   25.40   17.70 
  -1 -10  -5   17.80   11.40 
   1  10   5   15.60    7.50 
  -1 -10   5   24.10    7.20 
   1  10   5   26.20   12.70 
   1  10   5   18.90    7.20 
 -10   1   5   24.60   24.20 
 -10   1   5   15.30   12.60 
 -10   1   5   16.60    5.80 
  10  -1   5   32.50   16.10 
   1  10   5   24.30   11.80 
   1  10   5   29.00   11.80 
  10  -1   5   14.20    8.80 
  -1 -10   5   11.60    4.20 
   3  10  -5    8.40   22.30 
 -10   3  -5    3.50    5.60 
  10  -3  -5  -16.90   19.90 
   3  10  -5    5.60    7.40 
  10  -3  -5   -1.30    6.70 
   3  10  -5   -1.20    7.80 
 -10   3  -5   18.00   24.60 
  -3 -10  -5   -7.60    6.80 
  10  -3   5  -12.90   11.50 
   3  10   5    1.10    5.70 
  -3 -10   5    1.40    5.10 
 -10   3   5   -8.70   25.00 
   3  10   5    1.20    8.20 
 -10   3   5   -0.20    5.30 
  10  -3   5   -3.90    6.00 
  10  -3   5    4.50   11.50 
   3  10   5    2.50   10.00 
   3  10   5    7.80   10.80 
  -3 -10   5   -2.20    3.40 
  10  -5  -5   14.30   12.30 
  -5 -10  -5   28.30    9.30 
   5  10  -5   19.20   14.00 
   5  10  -5    2.40    9.50 
   5  10  -5    6.30   25.50 
   5  10  -5   16.80    9.60 
  10  -5  -5   31.80   22.70 
  -5 -10  -5   16.90    9.40 
 -10   5  -5   27.60    7.60 
   5  10  -5   24.20   19.80 
 -10   5  -5   38.20   34.60 
  10  -5   5   35.60   18.70 
  10  -5   5   -0.80   13.80 
 -10   5   5   20.00   20.60 
   5  10   5    7.30   11.90 
   5  10   5    1.80    9.50 
  -5 -10   5   15.00    5.50 
   5  10   5   14.90   11.70 
 -10   5   5   14.50    6.30 
   5  10   5   12.20    7.00 
   5  10   5   10.10   12.20 
  10  -5   5   10.60    6.80 
 -11  -4  -5   30.90    9.70 
  11   4  -5   37.80   16.30 
   4 -11  -5   22.20   23.70 
  -4  11  -5   18.90   17.70 
  11   4  -5   19.40   24.60 
  -4  11  -5   15.90   13.50 
   4 -11  -5  -31.20   42.50 
   4 -11  -5   14.60   38.20 
  -4  11  -5   62.29   32.90 
   4 -11   5   15.80   24.10 
  -4  11   5   36.10   10.50 
 -11  -4   5   21.00    7.40 
  -4  11   5   39.90   13.00 
  -4  11   5   22.90    9.10 
  11   4   5   23.90   17.60 
   4 -11   5   20.00    8.20 
   4 -11   5   33.40   14.40 
  -4  11   5   53.79   17.10 
  11   4   5   54.19   27.70 
   2 -11  -5   55.79   31.20 
  11   2  -5   66.89   17.80 
 -11  -2  -5   51.79   10.10 
  11   2  -5  112.19   36.40 
  -2  11  -5   94.99   45.60 
 -11  -2  -5   35.00   15.90 
  -2  11  -5  109.59   37.50 
  11   2  -5   68.49   13.10 
   2 -11  -5   52.29   22.20 
 -11  -2  -5   40.30   10.50 
  -2  11  -5   65.19   23.10 
  -2  11  -5   50.79   18.70 
  -2  11   5   76.79   16.90 
 -11  -2   5   42.80   21.80 
  -2  11   5   67.49   11.00 
  11   2   5   70.99   14.20 
   2 -11   5   56.59   10.30 
  -2  11   5   43.70   10.70 
  11   2   5   65.79   22.40 
  -2  11   5   82.09   25.60 
  -2  11   5   99.89   20.00 
   0 -11  -5   -4.90   11.10 
   0  11  -5   -2.10   20.00 
   0 -11  -5    5.50   18.20 
   0  11  -5    8.30   17.40 
 -11   0  -5    0.00    6.20 
 -11   0  -5    7.00   15.50 
   0  11  -5   12.30   11.40 
  11   0  -5   -8.90    7.60 
   0  11  -5    9.20   28.40 
  11   0  -5   -4.30   11.40 
   0 -11  -5  -11.80   16.40 
  11   0  -5   14.10   23.00 
   0  11   5   -0.60    6.00 
   0 -11   5   21.60    9.50 
   0  11   5   -2.30    5.70 
   0  11   5    4.40    9.90 
 -11   0   5   14.70   27.20 
  11   0   5    9.30   17.00 
   0 -11   5   -7.00    6.10 
 -11   0   5   -5.70    4.30 
   0  11   5   -3.20   14.80 
   0 -11   5    5.80    4.60 
   0  11   5   -7.10    9.40 
  11   0   5    0.00    8.80 
   2  11  -5   38.30   13.80 
   2  11  -5   36.30   28.20 
 -11   2  -5   81.79   25.00 
  -2 -11  -5   19.50   14.10 
 -11   2  -5   52.59   25.60 
   2  11  -5   48.10   20.60 
  11  -2  -5   43.60   11.60 
  11  -2  -5  129.19   29.20 
 -11   2  -5   53.29    9.80 
   2  11  -5   61.49   26.60 
  -2 -11  -5   50.79   14.70 
  11  -2   5  132.69   26.80 
   2  11   5   63.99   17.10 
   2  11   5   78.79   17.70 
 -11   2   5   53.39    9.40 
  -2 -11   5   44.20    7.00 
 -11   2   5   52.49   34.40 
  -2 -11   5   60.59   10.70 
   2  11   5   23.20   10.60 
   2  11   5   77.09   20.50 
  11  -2   5   61.19   14.30 
 -11   2   5   49.10   12.00 
   2  11   5   49.80   10.40 
  -4 -11  -5   29.50   11.40 
   4  11  -5   27.40   25.50 
  11  -4  -5   44.70   13.50 
 -11   4  -5   16.60   35.20 
  11  -4  -5   69.49   24.50 
   4  11  -5   40.60   14.80 
   4  11  -5   53.49   19.10 
 -11   4  -5   29.40    9.30 
   4  11  -5   24.70   26.00 
  -4 -11  -5   26.80   11.90 
 -11   4  -5   23.70   16.50 
   4  11   5   27.50    9.20 
   4  11   5   17.10   12.70 
 -11   4   5   29.30   29.90 
  -4 -11   5   25.90    8.90 
 -11   4   5   40.50    8.90 
  11  -4   5   86.59   22.50 
   4  11   5   25.60   14.40 
  11  -4   5   65.39   24.40 
   4  11   5   48.90   16.40 
  -4 -11   5   31.60    6.80 
   0   0  -6 5333.37  364.16 
  -1   1  -6  537.35   36.90 
  -1  -1  -6  540.15   39.00 
   1  -1  -6  511.45   38.50 
   1   1  -6  527.15   42.60 
  -1   1  -6  592.64   37.10 
  -1  -1  -6  542.35   38.00 
   1   1  -6  553.94   38.70 
   1  -1  -6  524.55   40.00 
   1  -1  -6  544.45   37.60 
   1   1  -6  558.04   43.80 
   1   1  -6  527.85   37.90 
   1   1  -6  557.34   37.20 
  -1  -1   6  485.05   40.50 
   1   1   6  565.04   36.50 
   1   1   6  568.44   36.70 
  -1  -1   6  552.74   43.90 
  -1  -1   6  530.15   37.30 
  -1   1   6  560.44   41.60 
   1  -1   6  552.44   36.90 
   0   2  -6 1695.43  107.89 
  -2   0  -6 1466.85  110.59 
   2   0  -6 1616.54  109.99 
   0  -2  -6 1661.03  110.09 
   2   0  -6 1644.24  109.49 
  -2   0  -6 1678.83  109.09 
   0   2  -6 1617.24  113.29 
   2   0  -6 1709.63  111.99 
   0   2  -6 1588.04  110.09 
   0   2  -6 1389.76  119.29 
   0   2  -6 1627.74  109.19 
   0   2  -6 1618.84  116.29 
   0   2  -6 1602.14  108.89 
   0  -2  -6 1623.54  109.09 
  -2   0  -6 1594.94  108.69 
  -2   0  -6 1683.63  108.89 
   2   0  -6 1722.63  111.09 
   0  -2  -6 1648.64  114.69 
   2   0  -6 1661.83  114.69 
  -2   0   6 1531.45  110.19 
   0  -2   6 1466.15  114.69 
  -2   0   6 1750.92  109.89 
  -2   0   6 1682.03  115.39 
   2   0   6 1668.93  108.89 
  -2   2  -6    0.20    7.70 
   2  -2  -6    0.50    4.50 
   2   2  -6    0.50    1.30 
   2   2  -6   -5.30    3.30 
  -2  -2  -6   -0.70    9.90 
   2   2  -6   -0.40    1.20 
   2  -2  -6    2.40    3.60 
   2   2  -6    3.90    2.40 
   2   2  -6    2.40    2.10 
   2   2  -6    4.40    4.50 
  -2  -2  -6   -0.70    1.60 
  -2  -2  -6    2.10    1.30 
  -2  -2  -6    4.50    2.20 
  -2   2  -6   -2.90    3.40 
  -2   2  -6   -1.50    2.00 
  -2  -2  -6    2.40    1.80 
   2  -2  -6   -3.40    3.60 
  -2   2  -6    8.30    1.80 
  -2  -2   6    7.00    6.30 
   2   2   6    3.10    1.80 
  -2   2   6    1.60    2.20 
   2  -2   6    0.80    0.90 
  -2  -2   6   -0.20    2.60 
  -2  -2   6    7.40    4.50 
  -2  -2   6    5.40    2.00 
   2  -2   6   -0.10    1.50 
  -2  -2   6    2.50    1.40 
   2   2   6   -0.90    0.90 
  -2   2   6    2.50    3.90 
  -1   3  -6 2464.25  189.08 
   1  -3  -6 2829.42  188.28 
   3   1  -6 2927.61  187.08 
   3   1  -6 2887.71  195.18 
   3   1  -6 2755.72  189.58 
  -3  -1  -6 2812.72  186.48 
  -1   3  -6 3031.60  185.58 
   3   1  -6 2696.83  187.18 
  -3  -1  -6 2776.12  186.38 
  -3  -1  -6 2862.61  186.78 
   3   1  -6 2742.33  188.38 
  -1   3  -6 2982.10  197.78 
   1  -3  -6 2571.14  197.58 
   1  -3  -6 2765.32  189.08 
  -1   3  -6 2897.51  187.78 
  -1   3  -6 2489.85  201.08 
   3   1  -6 2692.13  188.18 
  -1   3  -6 2770.02  185.38 
   1  -3   6 2766.52  186.98 
   1  -3   6 2938.31  196.88 
   1  -3   6 2756.92  184.98 
   3   1   6 2762.92  186.28 
  -3  -1   6 2811.62  194.88 
   3   1   6 2849.42  186.18 
  -1   3   6 2788.42  187.38 
   3   1   6 3022.30  187.38 
  -3  -1   6 2807.52  186.48 
  -3  -1   6 2512.35  188.58 
   1   3  -6 2692.33  196.08 
   1   3  -6 2757.32  187.48 
  -3   1  -6 2865.81  186.28 
   1   3  -6 2853.91  188.18 
  -1  -3  -6 2785.82  188.48 
   3  -1  -6 3161.48  192.28 
   3  -1  -6 2661.83  189.18 
  -3   1  -6 2535.45  189.08 
  -1  -3  -6 2790.82  189.38 
  -1  -3  -6 2716.23  192.58 
   1   3  -6 2802.32  190.48 
  -3   1  -6 2597.94  193.08 
  -3   1  -6 2901.11  187.48 
   1   3  -6 2543.15  196.98 
   3  -1  -6 2735.43  190.98 
  -1  -3  -6 2930.61  189.18 
  -1  -3  -6 2805.62  189.78 
   3  -1  -6 3140.79  195.28 
  -1  -3   6 2489.55  192.18 
   1   3   6 2973.30  190.78 
  -3   1   6 2868.51  189.68 
   3  -1   6 2792.12  187.08 
  -1  -3   6 2925.01  187.48 
   3  -1   6 2749.43  190.78 
   1   3   6 2717.53  187.68 
  -1  -3   6 2723.53  195.68 
   1   3   6 2854.31  187.38 
  -3   1   6 3017.20  193.28 
   3  -1   6 2957.80  186.68 
   3   3  -6 3134.49  216.18 
  -3  -3  -6 2982.30  224.38 
   3   3  -6 3271.27  214.58 
   3  -3  -6 3081.69  219.38 
  -3   3  -6 3136.19  218.88 
   3   3  -6 3207.18  223.48 
  -3   3  -6 3320.77  215.18 
  -3  -3  -6 3332.27  216.58 
  -3  -3  -6 3290.47  215.88 
   3   3  -6 3248.07  218.48 
  -3  -3  -6 3085.69  217.68 
  -3  -3  -6 3264.57  216.48 
   3   3  -6 3227.98  226.98 
  -3  -3  -6 3273.27  229.48 
   3   3  -6 3239.18  216.38 
  -3  -3   6 3136.39  218.88 
  -3  -3   6 2685.93  218.68 
  -3  -3   6 3389.36  216.08 
   3  -3   6 3566.54  219.38 
  -3  -3   6 3160.88  230.28 
   3   3   6 3319.37  214.98 
   3   3   6 3309.77  217.18 
   3   3   6 3267.67  215.98 
   3  -3   6 3174.08  214.58 
   3  -3   6 3246.68  215.88 
   3   3   6 3312.27  215.58 
  -3  -3   6 3292.77  214.68 
  -2   4  -6  156.88   15.10 
  -4  -2  -6  101.59   28.40 
   2  -4  -6  154.28   21.60 
   4   2  -6  147.59   16.70 
  -4  -2  -6  155.98   13.20 
  -4  -2  -6  151.68   17.30 
  -4  -2  -6  159.38   13.10 
  -2   4  -6  204.28   27.30 
  -2   4  -6  115.09   25.90 
   4   2  -6  156.58   12.90 
   4   2  -6  147.69   15.30 
   2  -4  -6  190.68   15.00 
   4   2  -6  160.88   21.60 
   2  -4  -6  110.19   25.30 
  -2   4  -6  164.18   11.50 
   2  -4  -6   99.39   26.30 
  -4  -2  -6  168.78   13.50 
  -2   4  -6  196.68   13.60 
   2  -4  -6  156.58   17.90 
   4   2  -6  169.68   13.70 
  -2   4  -6  166.08   18.00 
   4   2   6  153.98   12.30 
   2  -4   6  158.38   11.30 
   4   2   6  126.79   14.20 
  -4  -2   6  150.78   33.70 
   2  -4   6  202.58   26.40 
   2  -4   6  155.48   11.50 
  -4  -2   6  170.28   12.70 
  -2   4   6  196.08   15.80 
   2  -4   6  169.48   14.70 
   4   2   6  164.98   13.70 
  -4  -2   6  129.99   14.90 
  -4  -2   6  168.38   16.80 
  -2   4   6  159.58   13.90 
   2  -4   6  165.98   13.50 
   0   4  -6 3922.01  256.87 
   0   4  -6 3892.01  257.97 
   0   4  -6 3834.52  262.37 
   0  -4  -6 3806.72  259.87 
   0  -4  -6 3529.45  259.97 
  -4   0  -6 3941.91  256.77 
   4   0  -6 3925.51  259.67 
  -4   0  -6 3971.50  254.97 
  -4   0  -6 4037.30  255.97 
   0   4  -6 3900.31  267.67 
   4   0  -6 3332.17  257.47 
   0   4  -6 3384.46  268.77 
   0  -4  -6 3524.85  260.77 
   0   4  -6 3762.42  257.27 
   0  -4  -6 3818.52  257.77 
   0   4  -6 3945.11  255.07 
   4   0  -6 3499.85  258.87 
   4   0  -6 4264.77  266.67 
   4   0  -6 3837.12  256.77 
  -4   0   6 3484.15  255.77 
  -4   0   6 3894.01  256.07 
   0   4   6 3933.11  256.77 
   0   4   6 3892.61  256.67 
   0  -4   6 3918.21  255.07 
   0   4   6 3447.95  258.67 
   4   0   6 4001.10  254.87 
   4   0   6 3844.52  255.37 
   4   0   6 3829.72  258.17 
  -4   0   6 4063.39  264.57 
  -4   0   6 4055.69  258.77 
   0  -4   6 3743.93  263.57 
   4   0   6 4026.20  255.77 
  -4   0   6 3840.72  259.17 
   0   4   6 3991.40  255.97 
   2   4  -6  139.29   20.70 
   2   4  -6  163.78   13.30 
   4  -2  -6  195.28   18.70 
   2   4  -6  190.78   14.50 
  -2  -4  -6  151.88   15.10 
   4  -2  -6  199.08   20.20 
   2   4  -6  167.48   16.30 
   4  -2  -6  171.08   15.90 
  -2  -4  -6  158.68   15.00 
  -2  -4  -6  158.78   14.70 
  -2  -4  -6  133.09   18.40 
   2   4  -6  146.09   21.00 
  -4   2  -6  155.08   13.10 
  -4   2  -6  164.68   21.60 
  -4   2  -6  103.39   24.00 
   2   4  -6  163.78   11.60 
  -4   2  -6  127.89   17.10 
  -2  -4  -6  154.28   14.30 
   2   4   6  157.38   13.00 
   2   4   6  156.98   13.60 
   2   4   6  188.58   13.60 
   2   4   6  169.18   15.30 
  -4   2   6  212.38   18.40 
  -2  -4   6  162.68   11.70 
  -4   2   6  202.98   21.30 
  -2  -4   6  174.78   13.30 
  -4   2   6  173.28   18.00 
  -2  -4   6  169.18   17.80 
  -2  -4   6  169.58   21.80 
  -2  -4   6  126.69   16.80 
   4  -2   6  170.78   12.90 
   4  -2   6  162.38   18.60 
   2   4   6  153.98   13.40 
  -4  -4  -6  892.11   61.39 
   4   4  -6  907.41   59.09 
  -4   4  -6  864.21   65.89 
   4  -4  -6  911.81   68.99 
   4   4  -6  842.62   69.09 
   4   4  -6  846.22   61.19 
  -4   4  -6  863.91   59.99 
   4   4  -6  829.32   63.89 
  -4  -4  -6  700.43   69.59 
  -4  -4  -6  834.42   61.29 
   4   4  -6  863.01   74.39 
  -4   4  -6  756.02   75.59 
   4   4  -6  834.32   60.89 
  -4  -4  -6  846.32   60.99 
  -4  -4  -6  754.32   71.69 
   4   4   6  886.61   68.09 
   4   4   6  888.81   60.09 
  -4   4   6  921.81   63.89 
   4   4   6  979.80   64.89 
  -4  -4   6  918.31   59.29 
  -4  -4   6  829.02   61.79 
   4  -4   6  851.21   59.29 
  -4  -4   6  865.51   60.59 
   4  -4   6 1027.70   67.89 
   4   4   6  923.11   60.29 
  -4  -4   6  824.22   77.19 
  -4  -4   6  819.42   65.09 
   4   4   6  894.11   61.09 
  -5  -3  -6   60.59   27.50 
  -5  -3  -6  128.09   17.00 
  -3   5  -6  121.99   17.90 
  -3   5  -6  102.89   23.80 
  -5  -3  -6  122.29   12.00 
   5   3  -6  133.29   14.90 
  -5  -3  -6  121.19   11.90 
   3  -5  -6  166.68   37.60 
   5   3  -6  148.19   17.40 
   5   3  -6  126.69   22.00 
  -3   5  -6  127.49   15.60 
   5   3  -6  123.99   12.40 
   3  -5  -6  109.29   28.90 
   5   3  -6  135.89   11.20 
   3  -5  -6  104.99   23.40 
   5   3   6  132.09   11.60 
   3  -5   6  127.59   12.80 
  -5  -3   6  132.89   12.10 
   5   3   6  153.78   20.50 
  -3   5   6  157.48   12.90 
   3  -5   6  119.59    9.40 
  -5  -3   6  144.09   14.00 
  -3   5   6  134.39   14.70 
   5   3   6  150.38   15.80 
  -3   5   6  141.59   12.40 
  -5  -3   6  134.59   16.90 
   3  -5   6  127.09   10.50 
   5   3   6  126.59   11.50 
   5   3   6  132.39   13.20 
   3  -5   6  130.19   14.90 
  -5  -3   6  131.59   11.00 
  -5  -3   6  108.59   14.70 
   1  -5  -6   23.50    7.20 
   5   1  -6   13.90    5.10 
  -1   5  -6   16.10    5.80 
   5   1  -6   16.20    4.10 
   5   1  -6   16.80    4.90 
   1  -5  -6   22.10   10.80 
   5   1  -6   17.50    6.20 
  -1   5  -6   30.40   12.30 
  -5  -1  -6   18.30    4.10 
   1  -5  -6   30.90    7.40 
   5   1  -6   11.30    5.40 
  -1   5  -6   19.80    3.10 
   1  -5  -6   16.90    8.80 
  -5  -1  -6   19.50    4.50 
  -1   5  -6   31.70   12.30 
  -1   5  -6   31.70   13.90 
   1  -5  -6    8.90    6.90 
  -5  -1  -6    1.40   11.40 
  -5  -1  -6   14.30    3.40 
  -5  -1  -6    5.90   24.30 
   5   1  -6   23.50   10.60 
  -5  -1   6   15.80    5.50 
   1  -5   6   29.90   11.80 
   5   1   6   19.40    5.80 
  -5  -1   6   39.90   13.10 
   5   1   6   25.30    3.80 
   1  -5   6   18.40    2.30 
  -5  -1   6   18.10    7.40 
  -1   5   6   19.80    6.50 
  -1   5   6   19.00    5.50 
  -5  -1   6   19.30    3.90 
   5   1   6   22.10    4.00 
  -5  -1   6   20.40    5.50 
   1  -5   6   20.50    3.20 
   5   1   6   28.00    5.50 
  -1   5   6   35.20    7.00 
  -1   5   6   15.20    3.70 
  -1  -5  -6   17.90    3.50 
   1   5  -6   11.70    8.50 
  -5   1  -6   18.40    5.80 
   5  -1  -6   56.09   14.80 
  -5   1  -6   13.80   20.80 
  -1  -5  -6   19.10    8.50 
  -5   1  -6   32.60   18.40 
  -1  -5  -6   13.80    5.30 
   1   5  -6   17.70    5.00 
   1   5  -6   20.10    7.10 
   1   5  -6   22.40    4.10 
   5  -1  -6    7.90    7.00 
   1   5  -6   15.80    4.40 
  -1  -5  -6   19.70    5.80 
   1   5  -6   24.40   10.60 
   1   5  -6   11.90    5.00 
  -5   1  -6   18.70    4.00 
  -1  -5  -6   20.10    6.30 
  -1  -5  -6   21.80    6.60 
   5  -1  -6   16.80    7.00 
   5  -1  -6   19.80    5.10 
  -5   1  -6   16.70    2.80 
  -5   1   6   27.40    8.60 
  -1  -5   6   16.00    8.20 
   5  -1   6   17.30    3.10 
  -5   1   6   15.70    4.00 
   5  -1   6   20.10    3.80 
   1   5   6   21.30    4.50 
   1   5   6   20.70    5.50 
  -1  -5   6   16.90    3.70 
  -5   1   6   17.00    3.70 
   1   5   6   20.50    3.90 
   5  -1   6   25.50    5.50 
   1   5   6   18.10    4.50 
  -1  -5   6   18.50    1.80 
   1   5   6   24.60    4.60 
   1   5   6   30.50    8.30 
  -1  -5   6   32.20   10.20 
  -1  -5   6   13.30    8.90 
  -5   1   6    1.90    6.40 
  -5   1   6   15.60   10.70 
   3   5  -6  115.29   14.90 
  -5   3  -6  144.09   11.90 
  -5   3  -6   86.89   18.60 
  -3  -5  -6  113.29   14.30 
   3   5  -6  116.99   11.80 
   3   5  -6  118.19   21.20 
   3   5  -6  123.49    9.90 
  -3  -5  -6  129.19   12.30 
   3   5  -6  134.49   12.70 
   3   5  -6  122.39   23.50 
  -5   3  -6  115.19   22.20 
  -3  -5  -6  124.89   17.10 
  -5   3  -6  115.79   25.40 
  -3  -5  -6  117.79   21.90 
   3   5   6  137.09   14.80 
   3   5   6  130.79   11.60 
  -3  -5   6  127.99   11.60 
   3   5   6  152.18   14.10 
  -5   3   6  139.29   17.70 
   3   5   6  167.08   12.00 
  -5   3   6  138.19    9.50 
   3   5   6  111.49   15.30 
  -3  -5   6  111.39   12.40 
  -3  -5   6  127.19   10.00 
  -3  -5   6  144.69   17.70 
   5  -3   6  129.49   11.20 
   5  -3   6  131.49   13.10 
  -3  -5   6  102.29   16.30 
   5   5  -6   60.89   16.30 
  -5  -5  -6   82.49   10.30 
   5   5  -6   88.59    8.40 
  -5   5  -6   83.19   20.40 
   5   5  -6   60.59   20.10 
  -5   5  -6   90.69   22.20 
   5   5  -6   76.19   10.10 
  -5  -5  -6   84.09    9.90 
  -5  -5  -6   70.89    9.60 
  -5   5  -6  116.49   10.40 
   5   5  -6   88.09   12.70 
  -5  -5  -6   83.69   27.00 
   5  -5   6   78.79    9.10 
   5   5   6   80.29    9.30 
   5  -5   6   89.19   11.20 
  -5  -5   6   72.99   16.50 
  -5  -5   6   86.79    8.20 
   5   5   6   82.49   10.00 
  -5  -5   6   79.99   11.10 
   5  -5   6   96.69   19.00 
   5   5   6   69.79   13.40 
  -5  -5   6   87.79    9.50 
  -5   5   6   99.49   15.40 
   5   5   6   77.99   15.20 
  -5   5   6   67.89   13.10 
  -5   5   6   93.99    9.20 
   6   4  -6  934.41   72.19 
   4  -6  -6  734.63   80.09 
  -4   6  -6 1080.49   85.29 
  -4   6  -6 1009.20   75.59 
  -6  -4  -6  914.61   67.59 
   6   4  -6  997.40   85.59 
  -6  -4  -6  935.21   67.69 
  -6  -4  -6  968.70   68.39 
   6   4  -6  976.20   68.39 
   6   4  -6  912.71   66.09 
  -6  -4   6  954.60   66.19 
  -6  -4   6  790.32   72.29 
   6   4   6  931.11   67.99 
  -6  -4   6  965.10   70.39 
  -4   6   6  983.00   68.69 
  -4   6   6  922.41   70.29 
   4  -6   6 1137.99   75.89 
   6   4   6  956.50   72.59 
   4  -6   6  903.61   65.89 
   6   4   6  946.91   67.09 
  -4   6   6 1135.09   69.69 
  -6  -4   6  979.50   67.59 
   6   2  -6  293.67   26.60 
   6   2  -6  253.67   21.90 
  -6  -2  -6  281.77   22.20 
  -6  -2  -6  276.57   21.70 
   6   2  -6  282.57   25.70 
   2  -6  -6  296.97   28.80 
   2  -6  -6  319.67   25.80 
  -2   6  -6  245.98   36.30 
   6   2  -6  288.97   22.90 
   2  -6  -6  265.07   34.60 
  -6  -2  -6  206.28   29.90 
   2  -6  -6  234.48   32.90 
   6   2  -6  308.37   35.60 
  -2   6  -6  273.87   20.40 
  -2   6  -6  275.17   35.70 
   2  -6  -6  236.28   37.00 
  -6  -2  -6  297.57   23.20 
   2  -6   6  271.47   20.10 
  -6  -2   6  283.77   25.10 
  -6  -2   6  285.97   21.40 
   6   2   6  270.97   26.70 
   6   2   6  279.27   21.20 
   2  -6   6  281.37   23.30 
  -2   6   6  337.97   24.70 
   2  -6   6  310.27   26.30 
   2  -6   6  263.67   20.10 
  -6  -2   6  250.87   25.10 
  -2   6   6  252.17   24.00 
   6   2   6  289.97   23.20 
  -6  -2   6  263.97   27.90 
   0   6  -6 1771.32  142.89 
   0   6  -6 1888.91  124.59 
   0  -6  -6 1756.92  133.19 
   0  -6  -6 1731.83  130.39 
   6   0  -6 1861.01  127.09 
   0  -6  -6 1803.92  129.59 
   0   6  -6 1893.21  127.99 
   0   6  -6 1788.52  142.09 
   0   6  -6 1878.01  128.59 
   0   6  -6 1846.72  128.09 
  -6   0  -6 1854.91  129.89 
   0  -6  -6 1894.31  131.39 
  -6   0  -6 1831.62  124.49 
   0   6  -6 1851.01  135.69 
   6   0  -6 1808.32  131.49 
   6   0  -6 1661.33  127.59 
  -6   0   6 1881.91  127.09 
   6   0   6 1775.42  124.89 
   0   6   6 2074.69  129.39 
  -6   0   6 1967.00  132.49 
   0  -6   6 1853.01  124.69 
   6   0   6 1918.21  129.19 
   0   6   6 1936.41  126.79 
   0   6   6 2024.20  129.49 
  -6   0   6 1797.92  131.09 
   0  -6   6 1746.63  122.89 
   0   6   6 1917.91  125.99 
   6   0   6 1852.01  124.29 
   0  -6   6 1649.83  123.09 
   6   0   6 1793.72  128.39 
  -6   0   6 1769.92  125.39 
  -6   0   6 2049.59  138.79 
   2   6  -6  212.38   32.00 
  -2  -6  -6  247.08   23.00 
   2   6  -6  284.37   34.40 
   2   6  -6  256.17   26.20 
  -6   2  -6  194.18   25.40 
   2   6  -6  277.07   23.30 
  -2  -6  -6  286.77   25.60 
   2   6  -6  278.67   20.80 
  -2  -6  -6  268.37   22.30 
  -6   2  -6  204.68   44.30 
  -2  -6  -6  263.67   22.80 
   6  -2  -6  251.77   23.10 
  -6   2  -6  272.37   21.30 
  -2  -6  -6  249.97   23.90 
   2   6  -6  277.17   22.60 
  -2  -6  -6  293.37   29.90 
   2   6   6  275.57   21.20 
   6  -2   6  287.57   23.80 
   6  -2   6  253.57   20.50 
  -6   2   6  279.77   32.00 
  -6   2   6  318.77   34.20 
   2   6   6  270.87   20.90 
   2   6   6  260.27   22.90 
  -2  -6   6  285.57   20.90 
  -2  -6   6  239.88   28.00 
   2   6   6  244.38   23.30 
   2   6   6  255.37   22.40 
  -6   2   6  278.17   21.40 
  -2  -6   6  264.47   18.60 
   6  -2   6  257.67   20.30 
  -4  -6  -6  942.81   66.29 
  -4  -6  -6  852.51   71.89 
   4   6  -6  905.51   70.19 
   4   6  -6  962.60   66.59 
  -6   4  -6  908.01   81.59 
  -4  -6  -6  973.30   66.09 
  -4  -6  -6  919.51   66.79 
   4   6  -6  941.21   83.19 
   4   6  -6  812.12   77.19 
   4   6  -6  960.00   63.09 
  -6   4  -6  742.93   76.19 
  -6   4  -6  971.10   64.99 
  -4  -6   6  933.21   63.09 
   4   6   6  948.91   65.09 
   4   6   6  825.32   70.69 
   4   6   6  963.30   66.49 
   6  -4   6  892.21   64.19 
  -6   4   6  988.00   72.39 
   6  -4   6  892.71   61.79 
   6  -4   6  946.61   61.69 
   6  -4   6  929.91   68.09 
  -4  -6   6  893.41   66.69 
  -4  -6   6  983.40   65.39 
   4   6   6  945.91   69.59 
  -6  -6  -6  501.55   40.80 
   6   6  -6  530.25   41.10 
   6   6  -6  548.15   46.00 
  -6   6  -6  523.45   53.59 
  -6   6  -6  489.15   52.99 
   6   6  -6  574.64   60.79 
   6   6  -6  483.15   49.99 
  -6  -6  -6  481.25   40.60 
   6   6  -6  556.24   38.20 
  -6   6  -6  596.44   40.50 
  -6  -6  -6  486.15   40.00 
   6   6   6  507.05   44.90 
   6  -6   6  540.65   36.70 
   6   6   6  501.65   39.60 
  -6  -6   6  548.85   39.90 
  -6  -6   6  546.65   38.10 
   6  -6   6  508.55   35.80 
   6   6   6  411.86   47.30 
   6  -6   6  526.35   43.50 
   6  -6   6  508.85   52.79 
  -6  -6   6  482.95   42.00 
   6   6   6  525.45   40.70 
  -6   6   6  624.74   39.90 
  -6   6   6  578.34   44.70 
   7   5  -6   14.90    6.10 
   5  -7  -6   23.80   23.80 
   5  -7  -6   -7.10   25.80 
   7   5  -6   11.00    8.40 
  -5   7  -6   15.20   11.00 
   5  -7  -6   10.40   17.20 
   7   5  -6   24.90   16.50 
   7   5  -6   12.50    9.70 
  -5   7  -6   15.30   12.40 
  -7  -5  -6   12.50    6.00 
   5  -7  -6   43.70   15.00 
  -5   7  -6   28.00   19.30 
  -7  -5  -6   17.40    6.20 
  -7  -5  -6   12.70    5.70 
  -7  -5   6   19.50    4.90 
  -5   7   6   16.20    6.50 
   7   5   6   15.00    9.50 
   7   5   6   11.10   11.30 
   7   5   6    9.00    5.20 
  -5   7   6   19.90    9.40 
  -5   7   6   16.00    7.60 
   5  -7   6   16.20    5.90 
   5  -7   6   20.50    3.40 
  -7  -5   6    8.40    5.10 
   7   5   6    7.90    5.40 
  -7  -5   6    7.40    7.20 
   5  -7   6   14.40    6.90 
   5  -7   6   18.20   11.70 
  -5   7   6   14.00    5.80 
  -3   7  -6 1730.53  118.09 
   7   3  -6 1712.63  117.79 
   3  -7  -6 1431.46  128.69 
  -7  -3  -6 1564.74  111.79 
   7   3  -6 1668.63  117.99 
  -3   7  -6 1759.82  131.19 
   7   3  -6 1927.51  133.99 
  -7  -3  -6 1618.34  113.09 
  -7  -3  -6 1666.93  111.69 
  -3   7   6 1422.86  111.59 
   3  -7   6 1493.35  109.59 
   3  -7   6 1648.04  109.19 
   7   3   6 1510.95  117.29 
  -3   7   6 1455.75  113.99 
   7   3   6 1674.93  112.89 
  -7  -3   6 1686.23  116.39 
   3  -7   6 1713.93  117.09 
  -3   7   6 1666.23  109.99 
  -7  -3   6 1493.05  116.89 
  -7  -3   6 1652.83  110.69 
  -1   7  -6  243.38   23.80 
   7   1  -6  316.77   36.90 
   1  -7  -6  265.87   26.30 
   1  -7  -6  225.38   27.80 
  -1   7  -6  252.77   23.80 
  -7  -1  -6  254.07   22.60 
  -1   7  -6  220.38   36.40 
  -1   7  -6  244.68   33.90 
  -1   7  -6  257.77   19.20 
   1  -7  -6  212.38   30.60 
  -7  -1  -6  243.88   19.70 
  -7  -1  -6  265.37   20.70 
   7   1  -6  243.28   25.70 
  -1   7  -6  263.07   36.70 
   7   1  -6  260.37   21.80 
  -7  -1   6  248.38   19.90 
  -7  -1   6  256.77   26.10 
  -1   7   6  259.07   20.80 
  -7  -1   6  261.37   24.20 
  -1   7   6  308.37   24.90 
   7   1   6  251.97   22.40 
   7   1   6  237.38   19.20 
   1  -7   6  222.08   18.10 
  -7  -1   6  218.88   27.40 
   1  -7   6  232.08   19.10 
  -1   7   6  247.58   22.30 
   1   7  -6  255.07   22.80 
  -1  -7  -6  248.28   27.80 
   1   7  -6  248.58   28.60 
   1   7  -6  243.68   19.70 
  -7   1  -6  223.98   20.40 
   1   7  -6  241.18   35.30 
   7  -1  -6  238.78   26.70 
   1   7  -6  237.58   22.90 
   1   7  -6  211.38   34.20 
  -7   1  -6  267.37   25.50 
  -1  -7  -6  266.57   27.30 
   7  -1  -6  258.47   22.40 
  -1  -7  -6  201.18   23.00 
  -1  -7  -6  257.67   24.50 
   7  -1   6  246.48   18.70 
   1   7   6  282.17   24.20 
  -1  -7   6  214.18   29.80 
   1   7   6  243.68   19.60 
   7  -1   6  249.38   24.50 
   1   7   6  265.47   23.30 
  -1  -7   6  270.87   20.00 
   7  -1   6  252.97   24.30 
  -7   1   6  213.58   28.70 
  -7   1   6  281.37   22.30 
  -1  -7   6  233.08   17.50 
   1   7   6  261.77   21.40 
  -7   1   6  248.58   20.30 
  -7   1   6  331.47   31.30 
   7  -3  -6 1883.21  117.09 
  -3  -7  -6 1594.14  115.49 
   3   7  -6 1535.95  114.79 
  -7   3  -6 1656.63  113.09 
   3   7  -6 1600.34  119.89 
   3   7  -6 1539.55  132.09 
   3   7  -6 1614.94  115.39 
  -3  -7  -6 1566.04  114.69 
  -3  -7  -6 1542.85  115.39 
   3   7   6 1627.14  117.19 
  -7   3   6 1669.43  111.69 
   7  -3   6 1768.42  110.79 
   3   7   6 1539.95  116.69 
  -3  -7   6 1624.74  110.49 
  -7   3   6 1696.93  113.49 
  -3  -7   6 1704.63  113.09 
  -7   3   6 1757.22  123.79 
   3   7   6 1665.83  115.09 
  -7   5  -6   11.60   12.10 
   5   7  -6    9.90    8.00 
  -7   5  -6    4.00   16.40 
  -7   5  -6   10.10    4.70 
  -5  -7  -6   32.60    8.00 
   5   7  -6   13.00   13.70 
   5   7  -6    9.30    4.00 
  -5  -7  -6   14.00   14.60 
   7  -5  -6   34.30   18.40 
  -5  -7  -6   35.80    7.30 
   5   7  -6   -4.20   10.40 
   5   7  -6   15.20    6.10 
  -7   5   6   11.90    4.10 
  -5  -7   6   19.30    4.20 
   7  -5   6   12.50    2.60 
  -5  -7   6   11.90    5.20 
  -7   5   6   24.10    9.80 
   5   7   6   14.40    8.60 
   5   7   6   15.90    9.70 
   5   7   6    9.20    5.40 
  -7   5   6   34.70   12.80 
   7  -5   6   11.00    7.00 
  -5  -7   6   10.20    6.70 
   7  -5   6   21.30   15.40 
  -7   5   6   12.50   11.00 
   5   7   6   10.20    5.70 
  -7  -7  -6  142.99   18.30 
   7   7  -6  169.68   23.50 
  -7   7  -6  195.58   31.30 
   7   7  -6  189.48   29.00 
  -7   7  -6  214.88   19.00 
   7   7  -6  210.78   40.50 
  -7  -7  -6  177.38   18.00 
   7   7  -6  161.38   18.70 
   7   7   6  132.79   24.50 
  -7   7   6  227.88   18.40 
   7   7   6  165.88   23.10 
  -7  -7   6  172.18   15.90 
  -7  -7   6  178.88   21.70 
   7  -7   6  200.28   38.20 
  -7  -7   6  189.98   17.80 
   7  -7   6  138.39   14.90 
   7  -7   6  200.78   23.80 
  -7   7   6  198.08   25.30 
  -6   8  -6   50.09   25.50 
  -8  -6  -6   17.60    6.50 
  -8  -6  -6   21.90    8.20 
   6  -8  -6   49.90   24.50 
   8   6  -6    9.90   17.30 
  -8  -6  -6   17.20    8.10 
   8   6  -6   14.60    7.10 
  -6   8  -6   23.20   14.40 
   8   6  -6   10.60    9.90 
   6  -8  -6   59.19   26.70 
   8   6  -6   12.80   11.30 
   6  -8  -6   83.49   37.10 
   6  -8   6   23.70   21.10 
  -8  -6   6   14.90    5.20 
   6  -8   6   20.70    4.30 
  -6   8   6   20.80   10.30 
  -6   8   6   29.40    8.10 
   8   6   6   23.40    7.90 
   6  -8   6   17.90   10.70 
  -8  -6   6   29.40    7.10 
  -8  -6   6   19.00   10.30 
   8   6   6   24.90   14.00 
   8   6   6   25.40   12.20 
  -6   8   6   41.80   13.40 
  -6   8   6   30.60    9.70 
  -4   8  -6   -7.00    8.10 
   4  -8  -6   18.20   26.90 
   8   4  -6    7.60    5.10 
  -8  -4  -6   -0.60    4.40 
  -8  -4  -6    5.00    6.30 
  -8  -4  -6    6.40    5.50 
  -4   8  -6   23.00   18.50 
  -4   8  -6   19.40   24.70 
  -4   8  -6    8.70   11.40 
   4  -8  -6   24.60   22.10 
   4  -8  -6   13.20   24.60 
   8   4  -6   -3.00   12.10 
   8   4  -6    1.70    6.70 
   4  -8   6   20.30   10.70 
   8   4   6   -1.50   11.70 
  -4   8   6    4.90    6.30 
  -8  -4   6    2.20    8.10 
  -8  -4   6    3.50    4.30 
   4  -8   6   -1.10    2.90 
   8   4   6    2.90    8.80 
  -4   8   6    4.30    5.10 
  -4   8   6   16.80    9.50 
  -8  -4   6   10.30    4.30 
  -4   8   6   12.70    7.40 
  -4   8   6    5.70    4.90 
   8   4   6   -0.70    4.70 
   4  -8   6    3.10    5.70 
   8   2  -6    7.00   13.20 
  -8  -2  -6   21.50    7.30 
  -2   8  -6   22.00   16.60 
  -2   8  -6   11.00   12.30 
  -2   8  -6   11.60    4.20 
   2  -8  -6   14.10   17.70 
  -2   8  -6   12.30   18.10 
   2  -8  -6   -5.70   14.70 
  -8  -2  -6   15.50    5.00 
   8   2  -6   12.70    5.60 
   8   2  -6    0.10    6.00 
   2  -8  -6   11.60    9.00 
  -8  -2  -6    3.70    4.00 
   2  -8  -6    6.40   11.00 
  -2   8  -6   15.50    7.50 
   2  -8   6   10.40    3.80 
  -8  -2   6   10.90    8.60 
  -2   8   6    4.80    4.10 
  -2   8   6    7.30    6.40 
   8   2   6   10.10   10.40 
   2  -8   6    2.00    4.00 
   8   2   6   12.30    5.70 
  -2   8   6   14.20    8.70 
  -8  -2   6   12.90    9.80 
   0  -8  -6   12.30    8.40 
   0   8  -6   19.60    5.40 
   0   8  -6   16.60    7.50 
   0  -8  -6   11.40   11.30 
   0   8  -6   12.10   16.10 
   0   8  -6   15.60    7.20 
   0   8  -6   10.90   13.90 
  -8   0  -6   15.30    7.70 
   8   0  -6   16.60    9.50 
  -8   0  -6   16.30    5.30 
   0   8  -6   16.00   11.80 
   8   0  -6   22.10    6.70 
   8   0  -6   35.60   19.90 
   0  -8   6   26.90    3.50 
   0  -8   6   23.50    5.00 
   0   8   6   17.10    6.90 
   0   8   6   37.50   10.20 
  -8   0   6   19.40    8.40 
  -8   0   6   20.60    5.00 
   8   0   6   38.60   11.70 
   0   8   6   33.40    9.60 
   8   0   6   10.70    7.50 
   0  -8   6   20.20    4.00 
   0   8   6   16.10    5.00 
   2   8  -6   16.00   14.90 
  -2  -8  -6    6.80    8.10 
  -8   2  -6   11.40   10.50 
  -2  -8  -6   11.40    5.60 
  -8   2  -6    1.70    4.10 
  -2  -8  -6    0.40    5.90 
   8  -2  -6   13.70    6.70 
  -8   2  -6   14.90   14.60 
   8  -2  -6   -2.40   15.00 
   2   8  -6    5.60    6.10 
   2   8  -6   10.70   15.10 
  -2  -8  -6    8.10    5.90 
   2   8  -6    1.20    7.80 
   8  -2  -6    3.50   10.70 
   2   8   6   14.10    6.60 
  -8   2   6    2.00    4.40 
  -8   2   6   15.10    6.80 
   2   8   6   10.40    5.40 
   8  -2   6    8.10    7.30 
   2   8   6   16.20    9.70 
   2   8   6    3.40    5.70 
   2   8   6    6.40    4.10 
  -2  -8   6    7.70    2.50 
   2   8   6    7.00    6.50 
  -2  -8   6   12.30    4.30 
   8  -2   6    6.80    3.50 
   8  -2   6   11.50    8.60 
  -4  -8  -6    9.60    9.30 
  -8   4  -6   13.40    5.10 
   4   8  -6    7.10    6.00 
   8  -4  -6    6.70    7.90 
   4   8  -6   -7.80   11.80 
   4   8  -6    3.60   13.80 
   4   8  -6    0.10    7.60 
   8  -4  -6    7.70   14.90 
   8  -4  -6   17.90   21.00 
  -4  -8  -6    5.20    6.10 
  -8   4  -6    4.00   12.80 
  -8   4  -6    5.80   16.50 
  -4  -8  -6   12.60    6.30 
   4   8  -6    2.30    5.60 
  -4  -8   6    7.80    5.00 
  -8   4   6   13.30    6.40 
  -4  -8   6    7.20    3.10 
   8  -4   6    7.30    7.00 
  -8   4   6   34.60   16.90 
   4   8   6   -0.30    3.70 
   8  -4   6   14.20   12.10 
   4   8   6   14.40    8.50 
   4   8   6   -1.10    5.10 
   4   8   6    1.00    7.40 
  -8   4   6    5.50    3.80 
   8  -4   6    8.80    3.30 
   6   8  -6   28.90    9.20 
   8  -6  -6   95.89   30.60 
   8  -6  -6   32.70   15.40 
  -8   6  -6   28.10   15.70 
  -8   6  -6   37.90    8.20 
   6   8  -6   13.80    9.90 
   6   8  -6   36.00   22.20 
   6   8  -6   24.40   14.90 
  -6  -8  -6   14.80    7.30 
  -6  -8  -6   25.50    8.60 
  -8   6   6   62.19   16.30 
   8  -6   6   25.00    4.30 
   6   8   6   27.00    9.80 
   6   8   6    6.70   10.50 
  -6  -8   6   22.40    5.40 
   8  -6   6   48.20   21.60 
  -6  -8   6   18.00    7.00 
  -8   6   6   33.00   12.20 
  -6  -8   6   32.80   10.50 
   8  -6   6   34.30   11.60 
   6   8   6   20.20   10.90 
  -8   6   6   30.30    6.70 
   8  -8  -6  -13.60   17.30 
  -8   8  -6    6.80   14.80 
  -8   8  -6    6.50   24.40 
   8   8  -6   -9.20    9.30 
  -8   8  -6    5.70   17.10 
  -8  -8  -6   -3.90    7.00 
   8  -8  -6   17.20   19.90 
   8   8  -6    1.20    7.90 
   8  -8  -6   -4.00   24.10 
   8   8  -6    8.90   14.70 
   8   8  -6   17.50   23.30 
  -8  -8  -6   -1.80    7.40 
   8  -8   6   17.00   27.10 
   8   8   6   -4.90   11.40 
  -8   8   6    0.00    6.50 
   8  -8   6   -0.30    4.90 
  -8  -8   6   -8.20   10.90 
  -8  -8   6    3.00    5.20 
  -8  -8   6    0.20    5.60 
  -8   8   6   10.70   11.10 
   8  -8   6   10.50   12.60 
   8   8   6    9.20   14.40 
  -9  -7  -6  163.58   21.30 
   9   7  -6  213.58   47.20 
   9   7  -6  229.48   23.40 
   9   7  -6  289.27   34.40 
  -9  -7  -6  192.38   22.40 
   9   7  -6  198.08   28.90 
  -7   9  -6  203.38   44.00 
   9   7   6  211.58   30.00 
   7  -9   6  196.98   16.60 
   7  -9   6  195.28   17.40 
  -7   9   6  270.37   23.10 
   9   7   6  133.79   31.90 
  -9  -7   6  233.18   21.70 
  -9  -7   6  225.88   20.10 
   7  -9   6  200.78   43.50 
  -9  -7   6  217.68   29.00 
   9   5  -6   25.80   21.40 
   5  -9  -6   97.49   24.80 
  -9  -5  -6   20.80    7.60 
  -5   9  -6   43.40   28.00 
   5  -9  -6   -5.60   26.20 
  -9  -5  -6   21.20    9.50 
  -5   9  -6    8.30   20.80 
   5  -9  -6   61.19   41.50 
   5  -9  -6   38.70   27.80 
   9   5  -6   24.90    8.40 
  -9  -5  -6   16.70    6.60 
  -5   9  -6   27.80   15.70 
  -5   9   6   20.60    9.00 
   9   5   6   16.60   16.30 
  -5   9   6   28.80    9.30 
   5  -9   6   25.20   10.10 
  -5   9   6   47.30   12.20 
  -9  -5   6   27.00   12.40 
  -9  -5   6   15.60    6.00 
  -5   9   6   34.80    8.60 
   9   5   6   21.20    7.80 
  -5   9   6   36.40   12.80 
   5  -9   6   11.40   17.30 
  -9  -5   6   40.80    8.20 
   9   5   6   18.80   12.50 
   5  -9   6   23.80    5.40 
  -3   9  -6  118.49   38.60 
  -9  -3  -6  160.38   16.10 
   3  -9  -6   86.79   32.60 
   3  -9  -6  102.49   38.40 
   9   3  -6  156.78   22.00 
   3  -9  -6   98.69   29.00 
   9   3  -6  181.88   34.90 
  -9  -3  -6  133.79   14.80 
   9   3  -6  166.88   16.90 
  -3   9  -6  150.58   21.20 
  -3   9  -6  264.57   50.09 
  -3   9  -6  139.69   31.30 
   3  -9   6  160.88   19.50 
   9   3   6  176.98   17.90 
  -9  -3   6  138.99   14.20 
   9   3   6  161.88   24.50 
  -3   9   6  147.49   12.30 
  -9  -3   6  142.89   22.90 
   3  -9   6  183.38   24.10 
   3  -9   6  157.48   13.60 
   3  -9   6  121.79   14.30 
  -3   9   6  126.69   15.20 
  -1   9  -6  399.26   49.00 
  -9  -1  -6  330.77   26.40 
   9   1  -6  329.17   34.40 
   9   1  -6  322.37   28.80 
  -1   9  -6  348.97   33.30 
  -1   9  -6  367.96   48.10 
  -9  -1  -6  332.97   27.90 
   1  -9  -6  279.47   42.30 
  -1   9  -6  274.47   54.99 
  -1   9  -6  331.57   31.30 
   1  -9  -6  321.47   37.10 
  -1   9   6  422.36   33.30 
   9   1   6  348.67   30.60 
   1  -9   6  313.97   24.40 
  -9  -1   6  400.16   34.10 
   1  -9   6  284.67   24.80 
  -1   9   6  325.27   27.60 
  -9  -1   6  344.27   38.10 
   1  -9   6  341.17   26.40 
  -1   9   6  370.96   37.10 
  -9  -1   6  330.47   26.60 
   9  -1  -6  332.07   28.60 
   1   9  -6  287.27   47.80 
  -1  -9  -6  304.27   36.30 
   1   9  -6  274.47   45.20 
   1   9  -6  340.37   30.00 
  -1  -9  -6  340.77   33.40 
   1   9  -6  322.07   30.50 
   9  -1  -6  432.56   38.80 
  -9   1  -6  322.77   26.90 
   1   9  -6  397.96   42.10 
  -9   1  -6  319.47   34.50 
  -1  -9  -6  306.57   31.50 
  -1  -9   6  303.87   23.10 
   9  -1   6  320.77   30.70 
  -1  -9   6  345.57   26.40 
   1   9   6  330.97   26.60 
  -9   1   6  339.67   26.20 
   1   9   6  313.27   26.50 
  -9   1   6  282.97   42.10 
  -1  -9   6  270.17   24.20 
   1   9   6  358.36   32.40 
   9  -3  -6  150.98   18.10 
  -9   3  -6  156.38   15.40 
  -3  -9  -6  114.09   18.50 
   3   9  -6   90.29   28.30 
  -3  -9  -6  135.59   17.60 
   3   9  -6  131.19   17.70 
   3   9  -6  162.68   24.00 
   3   9  -6  124.79   34.60 
   3   9  -6  155.78   18.00 
  -9   3  -6  133.59   31.40 
  -3  -9  -6  160.98   19.10 
   3   9   6  155.18   15.40 
  -3  -9   6  147.09   14.80 
  -9   3   6  220.98   36.80 
   3   9   6  153.48   20.40 
   3   9   6  126.89   18.10 
  -3  -9   6  138.99   12.00 
   9  -3   6  199.28   23.40 
  -9   3   6  145.09   14.40 
   9  -3   6  149.59   12.90 
   3   9   6  133.49   18.00 
  -9   3   6  143.09   14.60 
  -5  -9  -6   11.30   10.00 
   9  -5  -6   74.99   37.70 
  -5  -9  -6   28.80    8.90 
   5   9  -6   23.90   22.30 
   5   9  -6   17.10    8.30 
  -9   5  -6   30.00   28.90 
  -9   5  -6   44.10   18.40 
  -9   5  -6   26.80    7.80 
   5   9  -6   29.90    9.90 
   5   9  -6   35.20   21.50 
  -9   5   6   24.90    8.80 
  -9   5   6   35.50   18.20 
   9  -5   6   18.70    4.90 
  -9   5   6   32.30   11.10 
   5   9   6    8.80   10.60 
   9  -5   6   19.80   11.80 
   9  -5   6   70.09   25.10 
   5   9   6   28.20   12.00 
   9  -5   6   25.20    6.70 
   5   9   6   22.80    9.30 
   5   9   6   22.40    7.00 
  -9   5   6   23.90    5.80 
  -5  -9   6   26.10    5.60 
  -5  -9   6   14.60    7.30 
  -9   7  -6  214.28   32.60 
   7   9  -6  209.98   23.40 
   7   9  -6  201.68   48.50 
  -7  -9  -6  202.88   22.40 
   7   9  -6  220.08   30.10 
   7   9  -6  191.88   38.40 
  -7  -9  -6  217.78   24.10 
  -9   7  -6  222.98   22.00 
  -9   7  -6  205.48   47.70 
   9  -7   6  334.97   54.29 
  -9   7   6  245.28   20.30 
  -7  -9   6  206.98   21.50 
   9  -7   6  173.68   28.50 
   9  -7   6  188.48   16.10 
  -7  -9   6  222.88   25.70 
   7   9   6  219.08   29.00 
   7   9   6  149.79   29.20 
  -7  -9   6  267.17   19.60 
   6 -10  -6  110.29   40.50 
  -6  10  -6  117.19   29.90 
  10   6  -6  135.79   29.80 
   6 -10  -6  266.47   50.79 
  -6  10  -6  101.99   38.00 
  10   6  -6  188.08   48.70 
  10   6  -6  120.59   17.70 
   6 -10  -6  202.18   59.59 
  -6  10  -6   98.89   24.70 
 -10  -6  -6   94.99   16.00 
 -10  -6  -6  102.29   16.60 
  10   6   6  109.39   29.40 
  -6  10   6  183.18   24.10 
 -10  -6   6  110.89   18.00 
 -10  -6   6  126.89   24.10 
  10   6   6  125.99   23.40 
   6 -10   6  107.19   12.40 
  -6  10   6  149.49   18.90 
   6 -10   6  129.99   40.40 
 -10  -6   6  110.09   13.70 
   6 -10   6  112.29   22.30 
 -10  -4  -6  234.98   27.40 
 -10  -4  -6  231.58   21.50 
  -4  10  -6  239.68   37.40 
   4 -10  -6  105.89   50.19 
  10   4  -6  240.48   30.10 
  -4  10  -6  151.08   49.99 
 -10  -4  -6  234.58   22.20 
  -4  10  -6  223.38   32.70 
   4 -10  -6  169.58   47.60 
  10   4  -6  338.67   51.09 
  10   4  -6  250.77   23.40 
  10   4   6  221.38   23.60 
  10   4   6  212.68   31.10 
   4 -10   6  232.28   26.40 
   4 -10   6  217.48   19.20 
 -10  -4   6  257.27   20.90 
 -10  -4   6  223.08   31.70 
  -4  10   6  188.78   20.90 
   4 -10   6  230.08   38.80 
  -2  10  -6   95.99   30.40 
  -2  10  -6   71.59   17.40 
   2 -10  -6   31.40   19.90 
  -2  10  -6  122.29   43.50 
  10   2  -6   75.79   12.90 
  -2  10  -6  100.89   35.20 
  10   2  -6   88.69   30.10 
 -10  -2  -6   43.80   13.70 
 -10  -2  -6   62.79   10.10 
   2 -10  -6    7.80   24.10 
  -2  10   6   53.09   10.20 
  -2  10   6   83.69   15.60 
 -10  -2   6   60.49   19.40 
 -10  -2   6   60.09    9.70 
   2 -10   6   61.69    9.50 
  10   2   6   75.19   19.60 
  10   2   6   56.29   12.40 
  -2  10   6   95.79   17.70 
   2 -10   6   50.99    9.00 
   0  10  -6  439.96   38.00 
   0  10  -6  419.36   63.99 
   0  10  -6  432.16   53.39 
   0 -10  -6  445.16   52.29 
   0 -10  -6  418.56   42.10 
 -10   0  -6  391.06   34.10 
  10   0  -6  413.46   36.00 
  10   0  -6  481.35   44.20 
   0  10  -6  487.35   58.69 
   0  10  -6  435.46   39.80 
 -10   0   6  480.55   40.90 
   0 -10   6  437.16   33.30 
   0 -10   6  403.86   30.20 
   0  10   6  450.15   34.30 
 -10   0   6  378.76   50.69 
 -10   0   6  408.16   32.80 
   0 -10   6  363.56   31.00 
  10   0   6  385.96   43.60 
  10  -2  -6  126.29   26.60 
   2  10  -6   56.99   23.20 
   2  10  -6   51.89   13.30 
 -10   2  -6   15.00   17.80 
  10  -2  -6   46.00   11.30 
   2  10  -6   37.30   25.50 
  -2 -10  -6   64.89   15.10 
 -10   2  -6   58.99   23.40 
  10  -2  -6  124.89   35.50 
   2  10  -6   62.09   13.30 
 -10   2  -6   58.99   10.40 
  -2 -10   6   75.39   11.10 
 -10   2   6   55.69   27.70 
   2  10   6   63.99   10.30 
 -10   2   6   94.79   15.50 
  -2 -10   6   51.69    6.90 
  10  -2   6   93.09   19.40 
  10  -2   6   61.79   14.50 
  10  -2   6   63.29    9.10 
 -10   2   6   62.09   10.00 
 -10   2   6   66.89   11.60 
   2  10   6   85.39   16.30 
   2  10   6   63.09   15.80 
   2  10   6   48.60   14.40 
   2  10   6   62.39   12.00 
  -4 -10  -6  185.48   22.60 
   4  10  -6  235.58   32.30 
  -4 -10  -6  210.58   25.00 
 -10   4  -6  186.28   19.60 
   4  10  -6  160.28   39.40 
 -10   4  -6  129.59   36.10 
   4  10  -6  228.18   24.70 
  -4 -10  -6  185.68   27.00 
  10  -4   6  206.68   17.90 
 -10   4   6  221.98   19.60 
  -4 -10   6  200.78   17.30 
   4  10   6  190.28   25.50 
  -4 -10   6  224.88   20.70 
  10  -4   6  279.87   31.10 
   4  10   6  220.58   25.70 
 -10   4   6  235.48   19.30 
   4  10   6  204.48   20.30 
   4  10   6  262.97   28.10 
 -10   6  -6  123.89   14.80 
  -6 -10  -6   99.59   16.80 
  -6 -10  -6   69.19   17.30 
   6  10  -6   89.09   22.40 
   6  10  -6  113.89   19.20 
  10  -6  -6  212.18   28.30 
   6  10  -6   88.29   17.10 
   6  10  -6  100.49   30.80 
  -6 -10   6  124.49   20.20 
   6  10   6   97.79   21.70 
   6  10   6  115.49   15.50 
  -6 -10   6  124.69   13.00 
 -10   6   6  182.58   29.50 
 -10   6   6  127.49   13.80 
  10  -6   6  114.79   12.60 
   6  10   6  109.59   22.00 
 -10   6   6  171.28   23.60 
  11   3  -6  -12.50    7.50 
  11   3  -6   -7.40    9.90 
  11   3  -6   17.90   23.50 
   3 -11  -6   -4.00   28.20 
 -11  -3  -6    8.20    7.00 
  -3  11  -6    4.30   28.40 
  -3  11  -6   -2.90   11.30 
  -3  11  -6  -11.20   45.40 
  -3  11  -6   -1.80   14.50 
  -3  11  -6  -12.40   15.10 
 -11  -3  -6    1.40    5.80 
   3 -11  -6   -4.50   37.80 
  -3  11   6   -2.20    9.20 
 -11  -3   6    1.60    6.20 
  -3  11   6    1.20    6.60 
   3 -11   6   12.00   14.40 
 -11  -3   6    7.00   18.60 
   3 -11   6   -5.70    6.00 
  11   3   6    1.40   14.80 
  -3  11   6    2.90   11.20 
  11   1  -6  121.69   36.10 
  -1  11  -6   23.40   36.80 
  -1  11  -6   33.40   15.70 
 -11  -1  -6   53.09   11.00 
   1 -11  -6   29.10   18.30 
  -1  11  -6   50.89   29.40 
  11   1  -6   48.10   11.70 
   1 -11  -6   28.00   25.20 
  -1  11  -6   76.79   28.60 
  11   1  -6   53.99   16.80 
  -1  11  -6   40.00   13.60 
 -11  -1  -6   61.99   18.30 
  -1  11   6   48.90   10.70 
  -1  11   6   61.49   20.70 
 -11  -1   6   65.59   27.10 
  11   1   6   91.69   22.40 
  -1  11   6   97.19   18.40 
   1 -11   6   51.59   10.10 
 -11  -1   6   55.89    9.50 
  11   1   6   47.70   13.40 
   1 -11   6   55.89    7.90 
  -1  11   6   75.69   17.30 
 -11   1  -6   70.89   11.80 
  -1 -11  -6   58.69   22.80 
   1  11  -6   56.29   27.40 
  11  -1  -6   47.10   11.90 
   1  11  -6   43.90   22.60 
   1  11  -6   49.00   15.60 
   1  11  -6   33.00   20.50 
  -1 -11  -6   49.20   16.40 
  -1 -11  -6   68.09   20.40 
 -11   1  -6   44.10   20.10 
  11  -1  -6   67.89   20.80 
   1  11  -6   53.99   33.00 
  11  -1  -6  118.79   35.70 
   1  11   6   68.99   15.90 
   1  11   6   49.60   17.30 
  11  -1   6   94.99   21.60 
  -1 -11   6   44.40   10.20 
  -1 -11   6   50.89    9.80 
  11  -1   6   37.00   13.00 
 -11   1   6   48.50    9.20 
 -11   1   6   40.10   32.30 
   1  11   6   62.59   17.40 
  -1 -11   6   58.59    7.40 
   3  11  -6   -1.90   26.50 
  -3 -11  -6  -12.20   10.20 
 -11   3  -6    4.90   16.50 
   3  11  -6    7.50   14.10 
 -11   3  -6   -1.60    6.20 
  11  -3  -6    4.60   18.30 
   3  11  -6   10.30   10.20 
   3  11  -6   -3.40   10.00 
   3  11  -6   -0.40   21.70 
  11  -3  -6   17.40    9.20 
   3  11   6    0.50    9.20 
  -3 -11   6    3.30    4.40 
   3  11   6    2.70   12.20 
  -3 -11   6    9.30    7.70 
  11  -3   6   19.40    9.80 
 -11   3   6  -21.40   28.20 
 -11   3   6    2.30    5.20 
  11  -3   6   21.50   14.80 
 -11   3   6   -2.30    6.00 
   3  11   6    8.70   11.10 
   1   0  -7    2.70    3.10 
   1   0  -7    0.00    4.80 
   0   1  -7    0.60    0.70 
   0   1  -7   -0.40    1.20 
  -1   0  -7    7.30    3.40 
   0   1  -7    2.40    3.60 
   0  -1  -7    1.30    2.60 
   0  -1  -7    6.00    7.40 
  -1   0  -7   -0.70    1.10 
   0   1  -7    0.90    7.50 
   1   0  -7    2.30    1.30 
   1   0  -7    0.60    1.00 
  -1   0  -7   -2.00    4.20 
   0   1  -7    4.40    1.40 
  -1   0   7   -2.50    3.70 
   0   1   7    1.60    0.60 
  -1   0   7    2.00    0.90 
   1  -2  -7  202.08   23.00 
   2   1  -7  150.98   11.40 
   2   1  -7  144.69   12.20 
   2   1  -7  131.59   12.70 
  -1   2  -7  146.39   12.30 
   1  -2  -7  142.69   12.90 
  -1   2  -7  106.19   23.70 
  -2  -1  -7  142.39   10.60 
  -2  -1  -7  153.38   12.10 
  -2  -1  -7  139.79   15.20 
  -2  -1  -7  151.38   11.90 
   1  -2  -7  149.79   12.70 
   2   1  -7  142.09   13.30 
   1  -2  -7  116.29   13.60 
   2   1  -7  137.39   16.60 
  -1   2  -7  147.29   10.70 
   2   1  -7  159.48   15.60 
  -1   2  -7  147.89   10.40 
  -2  -1   7  159.08   18.60 
   2   1   7  146.99   11.30 
   1  -2   7  141.49   11.00 
  -2  -1   7  128.79   11.40 
   1  -2   7  142.79   19.20 
  -2  -1   7  122.29   14.40 
   2   1   7  155.38   11.90 
  -2   1  -7  143.39   11.10 
   1   2  -7  146.39   11.40 
  -2   1  -7  143.69   12.10 
   1   2  -7  137.99   18.70 
   1   2  -7  145.49   12.90 
   2  -1  -7  170.38   12.20 
   1   2  -7  150.88   11.90 
  -1  -2  -7  140.49   11.30 
   1   2  -7  134.89   10.80 
   2  -1  -7  152.18   13.00 
   1   2  -7  150.68   17.70 
  -1  -2  -7  142.09   12.50 
  -1  -2  -7  132.69   12.10 
   2  -1  -7  135.29   15.00 
   2  -1  -7  145.29   14.70 
  -1  -2  -7  141.59   13.70 
  -2   1  -7  139.19   12.00 
   2  -1  -7  167.38   13.30 
  -2   1  -7  152.68   10.80 
  -2   1   7  171.48   16.90 
   2  -1   7  140.29   10.80 
   1   2   7  140.19   10.80 
  -1  -2   7  141.59   18.30 
  -2   1   7  150.38   13.70 
   1   2   7  154.78   10.70 
  -1  -2   7  132.29   11.50 
  -1  -2   7  131.89   15.40 
   2  -1   7  152.28   11.50 
   3   2  -7  141.19   18.30 
  -3  -2  -7   60.49   26.40 
   2  -3  -7  171.68   28.00 
   3   2  -7  128.19   15.50 
  -3  -2  -7  139.39   11.40 
  -3  -2  -7  124.99   10.50 
  -3  -2  -7  115.59   13.00 
   2  -3  -7  142.09   10.90 
  -2   3  -7  122.69    9.80 
   2  -3  -7   90.89   16.30 
   3   2  -7  125.09   10.50 
  -2   3  -7   91.39   24.30 
   3   2  -7  127.69   12.00 
  -3  -2  -7  133.99   11.30 
   3   2  -7  133.39   11.20 
   3   2  -7  129.69   12.70 
  -2   3  -7  126.59   12.30 
   2  -3   7  150.78   11.70 
   3   2   7  119.29   10.50 
  -3  -2   7  128.19   11.60 
  -3  -2   7  116.59   13.00 
   2  -3   7  171.88   24.20 
  -3  -2   7  121.79   10.20 
  -3  -2   7  138.29   12.90 
  -3  -2   7  130.29   19.00 
   3   2   7  131.89   10.70 
   2  -3   7  128.79    9.40 
   3   2   7  131.99   10.90 
   0   3  -7   -0.50    2.20 
   0  -3  -7    5.50    5.60 
   0  -3  -7   -0.50    2.30 
   3   0  -7    5.20    5.10 
   3   0  -7    1.70    2.70 
   0   3  -7    0.00    2.00 
   0  -3  -7    1.00    3.80 
  -3   0  -7    0.90    1.50 
   0   3  -7   -1.10    5.00 
   3   0  -7    1.80    2.40 
   3   0  -7    1.20    4.20 
   0  -3  -7   23.80    9.00 
   0   3  -7    9.90    9.20 
  -3   0  -7  -10.20   10.90 
   0  -3  -7    4.80    6.20 
   0   3  -7    0.40    1.40 
   0  -3  -7    1.40    1.60 
   3   0  -7    4.80    2.30 
   0   3  -7    3.00    4.40 
  -3   0  -7    0.60    1.40 
   0   3  -7    0.20    1.60 
  -3   0  -7   -0.50    1.30 
   3   0   7    1.70    1.50 
   0  -3   7    5.20    6.50 
   0   3   7   -0.40    1.50 
  -3   0   7   -1.90    1.80 
  -3   0   7    0.40    5.20 
  -3   0   7   -0.50    2.20 
  -3   0   7    0.90    2.00 
   3   0   7    2.20    2.60 
   2   3  -7  125.99   18.30 
  -2  -3  -7  116.09   11.90 
   3  -2  -7  140.79   16.30 
  -2  -3  -7  122.29   11.90 
   2   3  -7  134.39    9.70 
   2   3  -7  133.69   18.10 
   2   3  -7  129.09   11.40 
  -3   2  -7  137.09   14.70 
  -3   2  -7  103.49   23.50 
  -2  -3  -7  176.68   23.50 
  -2  -3  -7  130.79   12.30 
   2   3  -7  140.39   13.60 
   3  -2  -7  120.79   14.40 
   2   3  -7  119.89   11.30 
  -2  -3  -7  146.29   12.80 
  -2  -3  -7  113.19   16.30 
   3  -2  -7  167.18   16.80 
  -3   2  -7  141.59   10.80 
   2   3   7  129.49   10.90 
   2   3   7  130.39   11.40 
  -3   2   7  161.98   13.10 
  -3   2   7  167.68   16.30 
   3  -2   7  126.69   10.20 
  -2  -3   7  132.79   11.80 
  -3   2   7  159.38   15.50 
  -2  -3   7  124.59   18.70 
  -2  -3   7  115.49   14.40 
   3  -2   7  134.99   12.90 
   4   3  -7   37.30    4.80 
   4   3  -7   38.30   15.00 
  -4  -3  -7   25.20   17.00 
   3  -4  -7   93.79   17.20 
   4   3  -7   36.90    6.10 
  -3   4  -7   32.50    8.10 
   4   3  -7   58.99    8.20 
   4   3  -7   37.00    6.80 
  -3   4  -7   18.80    8.50 
  -4  -3  -7   61.69   15.90 
   3  -4  -7   25.80    7.00 
  -3   4  -7   35.20    5.20 
  -4  -3  -7   43.10    6.80 
   4   3  -7   30.00    9.40 
  -4  -3  -7   39.10    6.40 
  -4  -3  -7   38.40    8.60 
   3  -4   7   43.10    7.90 
  -3   4   7   47.00    7.10 
   4   3   7   26.60    5.90 
   4   3   7   39.70    5.60 
   4   3   7   40.80    5.30 
  -3   4   7   63.49    9.50 
  -4  -3   7   30.00    8.20 
   4   3   7   49.50    4.70 
  -4  -3   7   36.50   13.60 
   3  -4   7   35.10    4.10 
  -3   4   7   65.19    8.90 
  -4  -3   7   40.30    4.70 
  -4  -3   7   42.40    9.40 
   3  -4   7   40.60    5.60 
   4   1  -7    4.00    6.20 
  -4  -1  -7   -4.10   19.10 
  -1   4  -7    1.20    9.30 
  -4  -1  -7   14.10    9.50 
  -1   4  -7   13.60    2.30 
  -4  -1  -7   13.70    3.40 
  -1   4  -7   10.90    4.70 
   1  -4  -7   13.20    4.90 
  -1   4  -7   15.60    9.60 
  -1   4  -7   10.90    4.30 
   1  -4  -7    7.00    4.80 
   1  -4  -7    0.60   10.70 
  -4  -1  -7   17.40    3.60 
   1  -4  -7    7.30    5.00 
   4   1  -7   14.10    4.90 
   4   1  -7    8.00    2.80 
   4   1  -7    8.20    4.70 
  -4  -1  -7   11.30    3.10 
  -1   4  -7    8.00    7.80 
   4   1  -7    9.90    4.90 
   4   1  -7    7.00    4.30 
   1  -4  -7    9.00    9.20 
  -1   4   7   14.50    4.00 
  -4  -1   7   15.90    5.50 
   4   1   7    8.60    2.80 
  -4  -1   7   10.50    3.10 
  -4  -1   7   18.00    4.50 
   4   1   7    9.80    3.40 
   4   1   7   10.50    2.70 
  -1   4   7   14.90    3.70 
  -4  -1   7   11.10    8.20 
  -4  -1   7   12.10    4.00 
  -1  -4  -7   14.70    4.10 
  -1  -4  -7   20.60    5.10 
   4  -1  -7    5.50    3.50 
   1   4  -7   13.40    3.50 
  -1  -4  -7    8.90    4.10 
  -4   1  -7   14.10    3.20 
   1   4  -7    8.40    4.80 
   1   4  -7   13.70    4.10 
   1   4  -7   13.10    4.50 
   4  -1  -7   20.70    8.50 
  -1  -4  -7    7.00    4.60 
  -1  -4  -7    9.50    6.40 
  -4   1  -7   10.50    1.90 
   1   4  -7   18.00   10.10 
   4  -1  -7   14.90    7.50 
   1   4  -7    8.30    6.70 
  -4   1  -7   13.70    4.40 
  -4   1  -7   18.00   15.50 
   1   4  -7   11.00    3.10 
   4  -1  -7   10.00    5.20 
  -1  -4  -7   11.50    4.50 
  -4   1   7   22.80    5.90 
  -1  -4   7   10.20    5.90 
   1   4   7   19.30    4.90 
  -1  -4   7   11.00    6.80 
   1   4   7   13.70    3.40 
  -1  -4   7    8.90    2.70 
  -1  -4   7   17.60    9.10 
  -4   1   7    7.90    5.10 
   1   4   7   18.90    3.40 
   1   4   7   14.00    3.00 
   4  -1   7   11.40    2.20 
  -4   1   7   15.40    7.10 
   3   4  -7   37.20    6.10 
   4  -3  -7   62.39   15.40 
   3   4  -7   34.70   12.30 
  -4   3  -7   72.29   13.50 
   4  -3  -7   76.19   12.60 
   4  -3  -7   46.80   11.80 
  -4   3  -7   44.90    5.90 
  -3  -4  -7   44.30    5.80 
  -4   3  -7   47.30   10.90 
  -3  -4  -7   24.00   11.40 
   3   4  -7   36.10    8.00 
   3   4  -7   42.20    6.60 
  -3  -4  -7   17.80   10.40 
   4  -3  -7   77.29   17.60 
  -3  -4  -7   29.60    6.30 
  -4   3   7   75.39   13.30 
  -3  -4   7   49.80   10.20 
   3   4   7   46.40    6.30 
  -3  -4   7   39.00    4.20 
   3   4   7   44.00    6.90 
  -4   3   7   65.19   10.10 
   4  -3   7   31.40    5.10 
  -4   3   7   62.89    9.40 
   4  -3   7   55.69   10.30 
   4  -3   7   39.70    4.80 
  -3  -4   7   18.40   11.50 
  -3  -4   7   38.40    5.90 
  -4   3   7   32.50    8.40 
   3   4   7   35.10    4.60 
   5   4  -7   16.00   10.50 
   5   4  -7   15.00    3.80 
   4  -5  -7   24.80   12.70 
   5   4  -7    8.50    7.40 
  -5  -4  -7    7.10    7.30 
   5   4  -7    5.50    3.60 
  -4   5  -7    6.80    8.80 
  -4   5  -7    5.70    4.00 
  -4   5  -7    4.70   12.70 
  -5  -4  -7   11.80    4.90 
   5   4  -7    8.30    5.10 
   4  -5  -7   19.60   18.10 
  -5  -4  -7    4.40    4.10 
  -5  -4  -7   11.80    4.20 
  -4   5   7   12.00    5.20 
  -5  -4   7    7.80    4.80 
  -5  -4   7   26.20    9.90 
   5   4   7    3.20    5.20 
   4  -5   7   15.40    6.90 
   5   4   7    6.30    3.50 
  -4   5   7   15.80    7.30 
  -4   5   7   21.50    7.20 
   4  -5   7   11.60    4.20 
  -5  -4   7   12.00    3.20 
  -5  -4   7    9.30    6.70 
   5   4   7   12.10    3.50 
   4  -5   7    6.40    2.90 
  -5  -4   7    8.10    3.80 
   2  -5  -7   56.49   25.00 
   5   2  -7   75.19   11.30 
   2  -5  -7   70.39   16.10 
  -5  -2  -7   78.09    8.50 
  -5  -2  -7   79.39    8.70 
  -5  -2  -7   45.30   27.80 
   5   2  -7   96.89   12.00 
  -2   5  -7   88.29   23.30 
   5   2  -7   74.29    9.00 
   2  -5  -7   37.90   19.60 
  -2   5  -7   61.39   19.00 
   2  -5  -7   90.59   10.80 
   2  -5  -7  100.49   17.60 
  -2   5  -7   96.19   24.00 
  -5  -2  -7   79.89   10.00 
  -2   5  -7   74.49   10.40 
  -2   5  -7   88.99    6.80 
   5   2  -7   90.59    9.30 
  -5  -2  -7   76.89   14.90 
   5   2   7   74.89    7.90 
  -2   5   7   79.39    8.70 
   5   2   7   82.59    8.20 
   2  -5   7   77.59    6.30 
  -2   5   7   95.29   10.60 
   5   2   7   87.89    9.40 
  -5  -2   7   69.49    7.50 
  -5  -2   7   81.59   13.30 
  -5  -2   7   91.99   19.80 
  -5  -2   7   71.19   10.40 
   0   5  -7    7.60    7.20 
  -5   0  -7   -6.20   19.10 
   0  -5  -7    3.50    6.40 
  -5   0  -7    7.30    2.40 
   0   5  -7   -1.60    1.80 
   0   5  -7    1.30   10.10 
   0   5  -7    0.60    3.80 
   5   0  -7   -6.20    6.20 
   5   0  -7   -1.40    2.40 
   5   0  -7   -1.00    3.70 
   0   5  -7   -2.50    2.30 
   5   0  -7   -1.60    6.30 
   0  -5  -7   -2.80    4.50 
   0  -5  -7    3.60    4.90 
   0   5  -7    2.20    4.10 
   5   0  -7   -2.50    6.80 
  -5   0  -7   -4.50   20.90 
  -5   0  -7    3.30    2.40 
  -5   0  -7   -0.20    2.50 
   0  -5   7    4.40    8.70 
   5   0   7    2.90    5.90 
  -5   0   7   -0.70    6.40 
  -5   0   7    5.20    2.80 
  -5   0   7   -0.60    2.50 
   5   0   7    3.00    2.00 
   0   5   7    2.60    3.30 
   0   5   7    1.70    3.50 
   0  -5   7    2.40    2.00 
   0   5   7    2.00    2.10 
  -5   0   7    2.60    5.50 
   5   0   7    2.30    2.30 
   5   0   7   -1.50    2.70 
   0   5   7    5.60    3.50 
   2   5  -7   79.29   10.30 
   2   5  -7   76.99    9.00 
  -2  -5  -7   79.89   16.10 
   5  -2  -7  102.19   15.90 
   5  -2  -7   90.39   11.00 
  -2  -5  -7   90.59   14.10 
  -2  -5  -7   80.69   11.10 
   2   5  -7   85.59   12.60 
   2   5  -7   91.19   10.90 
  -5   2  -7   78.89   13.50 
  -2  -5  -7   91.89   12.30 
   5  -2  -7  134.59   20.00 
   5  -2  -7  110.29   17.90 
   2   5  -7   53.99   17.00 
  -2  -5  -7   84.49   11.80 
  -2  -5  -7   87.89   10.80 
  -5   2  -7   95.69    9.20 
   2   5  -7   80.99   19.30 
   2   5  -7   92.29    9.90 
  -2  -5   7   59.19   13.70 
  -5   2   7  121.09   14.80 
   5  -2   7   92.19    8.40 
   2   5   7  106.89    9.20 
  -2  -5   7   88.49    8.70 
   5  -2   7   80.99    8.90 
   2   5   7   77.39    8.60 
  -5   2   7  101.29   14.60 
   5  -2   7  109.09   15.10 
  -2  -5   7  104.89   15.70 
   2   5   7   85.39    9.30 
   5  -2   7   87.09    6.50 
  -2  -5   7   82.69    6.50 
   2   5   7   86.19    8.50 
   2   5   7   99.89   10.90 
  -4  -5  -7    5.30    6.70 
   4   5  -7   10.80    5.70 
   4   5  -7   12.80    4.30 
   4   5  -7   14.90   11.70 
  -4  -5  -7   19.80    5.30 
   4   5  -7   25.20   11.60 
  -4  -5  -7    9.50    4.60 
   5  -4  -7   14.50    8.90 
  -4  -5  -7   10.50   11.50 
   5  -4  -7   50.89   19.70 
  -5   4  -7    7.40   12.00 
  -4  -5  -7    7.80    3.80 
  -5   4  -7   14.60   10.50 
   4   5  -7   11.70    2.90 
  -5   4  -7   17.90    4.40 
   5  -4  -7   48.50   18.50 
   5  -4   7   11.50    4.50 
   4   5   7    6.70    3.60 
  -4  -5   7   -0.40    8.10 
   5  -4   7    8.90    3.60 
  -5   4   7   15.30    8.50 
   4   5   7   18.90    7.00 
   4   5   7   16.50    4.00 
  -5   4   7   20.00    7.40 
  -5   4   7   11.10    7.10 
  -4  -5   7   11.20    3.00 
   5  -4   7   19.30    8.50 
  -4  -5   7   13.60    5.10 
  -4  -5   7    3.70    3.30 
   6   5  -7   62.49   16.70 
  -6  -5  -7   84.29   11.00 
  -5   6  -7  133.99   30.60 
   6   5  -7   88.99   24.60 
   5  -6  -7  243.68   38.30 
  -5   6  -7   42.60   16.50 
  -6  -5  -7   76.39   11.70 
   5  -6  -7  152.08   25.50 
   6   5  -7   96.99    9.90 
  -5   6  -7  105.69   12.10 
   6   5  -7   95.89   11.50 
   6   5  -7   81.59   13.80 
  -5   6  -7   82.79   23.30 
  -6  -5  -7   87.89   11.30 
   5  -6   7   83.19   17.80 
  -5   6   7  126.39   16.00 
  -5   6   7  110.59   10.20 
  -5   6   7  113.29   13.90 
  -6  -5   7   78.59    8.80 
   6   5   7   79.69   10.60 
   5  -6   7   81.99   10.70 
   6   5   7   88.79   14.50 
   5  -6   7   77.79   11.60 
  -6  -5   7   80.19   10.20 
   6   5   7   84.39   10.10 
  -5   6   7   92.49   15.30 
   6   5   7   73.29   18.00 
  -6  -5   7   91.09   13.40 
   6   3  -7   14.60    6.80 
   6   3  -7   12.50    4.60 
   3  -6  -7   17.90   13.10 
  -6  -3  -7   19.30    5.30 
   6   3  -7   20.20    5.50 
   3  -6  -7    1.50   23.90 
   3  -6  -7   18.30    7.10 
  -6  -3  -7   12.90   28.90 
  -3   6  -7   23.30   12.80 
   6   3  -7   23.90   12.40 
   3  -6  -7   10.10   20.80 
  -6  -3  -7   13.30    4.70 
   6   3  -7   14.30    7.50 
  -6  -3  -7   22.10    5.40 
  -3   6  -7    8.20    7.80 
  -3   6  -7    7.10   20.30 
   6   3   7   15.50    7.40 
   3  -6   7   21.60    5.80 
   6   3   7   16.70    4.40 
  -6  -3   7    7.90   10.20 
   6   3   7   20.30    4.70 
  -3   6   7   13.30    6.50 
   3  -6   7   15.80    3.40 
  -3   6   7   23.80    5.90 
  -3   6   7   28.20    5.00 
  -6  -3   7   17.50    9.00 
  -6  -3   7   24.40    7.50 
   6   3   7   14.50    4.60 
  -3   6   7   21.90    8.00 
  -6  -3   7   20.40    4.30 
   3  -6   7   17.30    6.20 
  -1   6  -7  111.49   12.80 
  -1   6  -7   95.79   25.60 
  -6  -1  -7  110.99   11.00 
   6   1  -7   99.69   13.20 
  -1   6  -7   99.69   24.30 
  -1   6  -7  109.39   14.10 
   6   1  -7  112.69   11.70 
   1  -6  -7   79.39   16.70 
  -6  -1  -7   98.69   24.60 
   6   1  -7  138.39   21.60 
  -1   6  -7  129.79   25.90 
   1  -6  -7  102.89   16.80 
  -6  -1  -7  113.39   12.00 
   1  -6  -7   93.59   20.50 
   1  -6  -7   92.99   23.20 
  -6  -1  -7   98.49    9.90 
   1  -6  -7  111.19   14.80 
  -1   6  -7  110.99    9.50 
  -6  -1   7   96.59   12.10 
  -1   6   7  119.19   12.90 
  -6  -1   7   98.69   10.00 
  -6  -1   7  111.49   14.30 
   1  -6   7  112.59    7.80 
   6   1   7  110.39   12.50 
  -1   6   7  146.89   13.70 
   6   1   7  114.19    9.80 
   1  -6   7  105.09    7.80 
  -6  -1   7   95.29   16.60 
   6   1   7  109.39   12.30 
  -1   6   7   99.89   10.40 
   1  -6   7  103.09    9.20 
   6  -1  -7  175.68   24.30 
  -6   1  -7   93.19   12.90 
   1   6  -7  124.89   13.90 
  -6   1  -7   37.50   30.30 
  -1  -6  -7   96.09   16.00 
  -1  -6  -7  111.69   15.70 
   1   6  -7  114.59   22.50 
  -1  -6  -7   97.79   13.60 
  -1  -6  -7  107.49   14.50 
   1   6  -7  105.19   10.30 
   6  -1  -7  110.89   12.70 
   1   6  -7  111.69   12.20 
  -1  -6  -7   96.49   14.90 
   1   6  -7   93.89   24.20 
  -6   1  -7  122.39   12.30 
   1   6   7  118.19   12.70 
   6  -1   7  134.09   12.40 
  -6   1   7   81.09   16.30 
  -6   1   7  133.09   17.70 
   6  -1   7  120.39    9.20 
   1   6   7  101.99   10.40 
   1   6   7  119.09   11.40 
  -6   1   7  108.99   10.10 
  -6   1   7  125.39   19.60 
   6  -1   7  104.49   13.90 
  -1  -6   7  112.59   18.10 
   6  -1   7   99.89   10.10 
   1   6   7  134.89   13.20 
  -6   1   7  110.39   10.90 
  -1  -6   7  118.19   10.40 
   6  -3  -7   37.90   17.30 
  -6   3  -7    5.00    8.60 
   6  -3  -7   22.00   12.70 
   6  -3  -7   21.90    7.70 
  -3  -6  -7   10.70    7.60 
   3   6  -7   21.20   13.00 
   3   6  -7    7.40   10.40 
  -3  -6  -7   15.80    6.30 
   3   6  -7   15.50    5.00 
   3   6  -7   11.20    6.40 
  -6   3  -7   21.20   16.10 
  -3  -6  -7    7.50    4.90 
   3   6   7   20.30    4.80 
   3   6   7   26.60    7.50 
  -3  -6   7   16.30    2.90 
   6  -3   7   25.10    6.10 
  -6   3   7   31.80   12.60 
  -3  -6   7   34.00   12.20 
   3   6   7   13.80    4.80 
  -6   3   7   20.20   12.40 
   6  -3   7   21.70   10.30 
   6  -3   7   17.20    4.40 
   3   6   7   36.00    8.60 
  -6   3   7   23.70    7.60 
   3   6   7   14.60    3.90 
  -3  -6   7   10.70    4.10 
  -6   5  -7   75.79   22.80 
  -5  -6  -7   75.59   12.20 
  -6   5  -7   86.19   21.50 
  -5  -6  -7   88.09   21.70 
  -6   5  -7   88.79   11.20 
   5   6  -7   67.19   14.30 
   5   6  -7   85.39    8.70 
  -5  -6  -7   69.49   10.60 
   5   6  -7   76.69   19.90 
  -5  -6  -7   62.69   10.80 
   5   6  -7   78.99   23.80 
   5   6  -7   84.39   11.20 
   5   6   7   81.89   13.70 
   5   6   7   92.69   16.30 
  -6   5   7  131.79   16.30 
   6  -5   7   90.39   12.10 
  -5  -6   7   91.99    8.50 
  -5  -6   7   69.19   11.80 
  -6   5   7  106.99   16.70 
   6  -5   7   59.99   16.90 
   6  -5   7   72.49    9.70 
  -6   5   7  126.09   18.30 
  -5  -6   7   87.89   10.10 
   5   6   7   88.49   10.90 
   5   6   7   87.59   10.00 
  -6   7  -7    8.00   13.50 
   6  -7  -7    7.80   15.40 
   6  -7  -7   -0.10   23.40 
  -6   7  -7    2.10   16.60 
   7   6  -7    7.40   16.20 
   6  -7  -7    2.20   17.90 
   7   6  -7   -2.90    7.20 
   7   6  -7   13.10   10.90 
   7   6  -7    2.70    5.30 
  -7  -6  -7    2.10    5.60 
  -7  -6  -7    9.80    6.00 
   7   6   7    1.60    5.80 
  -7  -6   7    4.40    4.20 
  -6   7   7   -0.80    8.50 
   7   6   7   -0.90    5.70 
   6  -7   7    1.50    5.70 
  -7  -6   7    4.50    7.80 
  -6   7   7    6.00    7.30 
   7   6   7    4.80    8.10 
  -7  -6   7   -1.10    4.60 
  -6   7   7   -1.90    4.20 
   7   6   7    1.20   10.50 
  -6   7   7    1.80    7.80 
   6  -7   7   10.80   14.10 
  -4   7  -7   92.29   24.70 
   7   4  -7   96.59   17.80 
   4  -7  -7  125.49   40.60 
   4  -7  -7   69.39   23.50 
  -4   7  -7  172.88   39.50 
   7   4  -7  102.69   27.60 
  -7  -4  -7   85.29   11.00 
   7   4  -7   83.59   14.50 
  -7  -4  -7   92.09   12.40 
  -7  -4  -7   78.09   11.70 
   4  -7  -7  100.09   33.90 
  -4   7  -7   69.69   16.90 
   7   4  -7  113.39   12.40 
  -4   7   7  101.49   10.60 
   7   4   7   96.19   10.70 
   4  -7   7   90.89   12.60 
   4  -7   7   96.99    9.80 
   4  -7   7   93.59   16.50 
  -7  -4   7   94.89   15.20 
  -4   7   7  116.69   12.30 
  -4   7   7   92.09   11.60 
   7   4   7   83.09   11.60 
  -7  -4   7   94.99    9.60 
   7   4   7   89.09   15.80 
  -2   7  -7   53.29   21.50 
  -2   7  -7   62.89   23.00 
   7   2  -7   52.19   17.90 
   2  -7  -7   34.80   15.70 
   2  -7  -7   35.60   18.50 
   2  -7  -7   62.19   12.00 
  -7  -2  -7   64.69   10.10 
  -7  -2  -7   49.70    8.40 
  -2   7  -7   49.30    6.70 
  -2   7  -7   52.69   22.70 
   7   2  -7   66.89    8.90 
  -2   7  -7   73.09   13.40 
   2  -7  -7   46.80   24.00 
   7   2  -7   47.50   11.50 
  -7  -2  -7   55.39    7.50 
  -7  -2   7   46.30   15.00 
   7   2   7   49.10    7.10 
  -2   7   7   53.69   10.50 
  -7  -2   7   56.99    7.20 
   7   2   7   65.49   12.80 
   2  -7   7   49.30    5.80 
   2  -7   7   53.99    6.20 
  -2   7   7   77.99   12.60 
   2  -7   7   51.39   10.10 
  -7  -2   7   46.20   11.70 
  -7  -2   7   57.09   11.50 
  -7   0  -7    7.20    5.20 
   7   0  -7    3.90    9.50 
   0   7  -7    1.10    8.50 
   0   7  -7   -0.70    5.00 
   7   0  -7   -0.20    3.80 
   0   7  -7    0.50   10.90 
   0  -7  -7   -5.60    7.40 
   7   0  -7    4.90    7.10 
   0  -7  -7   -0.10    5.80 
   0   7  -7   11.00   13.70 
   0   7  -7   -1.20    4.00 
  -7   0  -7    4.60    3.10 
   0   7  -7    2.50    3.40 
  -7   0  -7   -4.00    2.70 
   0  -7  -7    1.10    8.20 
   7   0   7    3.60    5.20 
  -7   0   7    2.30    7.20 
  -7   0   7   -0.60    9.80 
   7   0   7    5.10    5.30 
   0  -7   7    0.90    0.90 
   0   7   7   -3.40    4.80 
   0   7   7   -2.20    4.40 
   0   7   7    2.60    2.90 
   0   7   7    1.60    5.00 
   0  -7   7    2.00    1.40 
  -7   0   7   -1.30    4.30 
   0   7   7   -2.20    4.80 
  -7   0   7    0.00    2.90 
   0  -7   7    2.90    3.00 
   7   0   7    2.60    2.70 
   2   7  -7   52.79    9.50 
  -7   2  -7   42.80   11.50 
  -2  -7  -7   34.90    9.70 
   2   7  -7   54.99    9.00 
   2   7  -7   58.79   19.40 
  -2  -7  -7   60.69   12.20 
   7  -2  -7   83.09   18.50 
   2   7  -7   70.59   11.70 
  -2  -7  -7   63.49   13.40 
   2   7  -7   32.60   17.90 
   7  -2  -7   68.39   10.90 
   2   7  -7   55.39   13.80 
  -7   2  -7   33.10   16.80 
   7  -2  -7  113.09   26.80 
  -2  -7  -7   50.29   11.10 
  -7   2  -7   58.09    8.70 
   2   7   7   68.19   10.90 
   7  -2   7   49.70   15.40 
  -7   2   7   92.79   17.00 
   7  -2   7   55.79    5.70 
   7  -2   7   72.99   10.80 
  -7   2   7   39.10   15.80 
  -2  -7   7   61.29    8.10 
  -7   2   7   60.49    7.00 
   2   7   7   57.19    7.70 
  -2  -7   7   48.90   16.90 
   2   7   7   50.79    8.40 
  -7   2   7   61.39    8.60 
   4   7  -7   78.39   22.00 
  -4  -7  -7   82.39   12.20 
  -4  -7  -7   95.89   17.50 
  -7   4  -7   90.29   10.60 
  -7   4  -7   64.89   19.90 
   4   7  -7   93.99   15.20 
  -7   4  -7  111.19   27.60 
  -4  -7  -7   72.29   12.60 
   4   7  -7  107.69   27.70 
   4   7  -7   91.69   12.20 
   4   7   7   79.39   14.60 
   4   7   7   83.69   10.10 
  -7   4   7  176.28   24.20 
   7  -4   7  171.48   23.80 
   4   7   7   80.89   12.20 
  -7   4   7  103.09    7.60 
  -4  -7   7  112.69   11.30 
  -4  -7   7   88.09    8.60 
   4   7   7   94.49   10.80 
   7  -4   7   99.59   13.70 
   4   7   7   94.69   14.50 
  -7   6  -7   -2.20   11.80 
  -6  -7  -7   -1.90    5.80 
   6   7  -7    6.40    8.10 
   7  -6  -7   13.20   20.50 
   6   7  -7    4.90    5.70 
   7  -6  -7   -8.50   11.60 
   6   7  -7   -8.20   14.30 
   7  -6  -7   12.10   13.10 
  -7   6  -7   -3.00    5.10 
  -6  -7  -7   10.40    5.90 
   6   7  -7   -0.70    4.60 
   6   7  -7   -5.50   10.40 
   6   7   7   -1.80    5.50 
  -7   6   7    2.00    7.20 
  -6  -7   7   -0.80    4.10 
  -6  -7   7   -1.90    6.80 
  -7   6   7    8.10    4.00 
  -7   6   7    2.90   10.50 
   7  -6   7   -2.40    6.60 
   6   7   7    6.10    6.00 
  -6  -7   7    1.30    3.70 
   6   7   7   -3.70    7.60 
   7  -6   7  -11.50   13.40 
  -7   6   7    6.80    8.60 
   6   7   7    2.80    9.10 
   8   7  -7   45.30   26.80 
  -7   8  -7   99.19   32.60 
   7  -8  -7   94.29   25.20 
  -7   8  -7   75.99   22.00 
  -7   8  -7   61.09   24.50 
  -8  -7  -7   39.50   10.00 
   7  -8  -7  165.48   47.70 
  -8  -7  -7   42.30   11.10 
   8   7  -7   40.20   10.40 
   8   7  -7   40.90   17.20 
   8   7  -7   55.49   15.50 
  -7   8   7   70.79   13.90 
   8   7   7   36.20   12.80 
  -8  -7   7   36.60   13.70 
   8   7   7   45.00   18.70 
  -7   8   7   67.39   10.40 
  -8  -7   7   46.40    9.70 
  -7   8   7   70.89   15.80 
   7  -8   7   39.10   12.90 
  -8  -7   7   46.20    8.30 
  -7   8   7   31.40   13.40 
   7  -8   7   22.50   21.90 
  -8  -5  -7    8.10   11.60 
   8   5  -7    8.00    9.30 
  -5   8  -7    7.00   14.10 
   5  -8  -7   10.70   14.00 
   8   5  -7    1.40    5.10 
  -5   8  -7   11.90   22.40 
   5  -8  -7    4.90   18.80 
   5  -8  -7    0.70   29.60 
   5  -8  -7   26.20   27.60 
  -8  -5  -7    3.30    5.30 
   8   5  -7    1.80   13.30 
   8   5  -7    5.20    7.80 
  -8  -5  -7    5.90    5.60 
  -8  -5   7    4.70    4.40 
  -5   8   7    1.70    6.20 
   5  -8   7    9.50    6.00 
   5  -8   7    4.50    6.80 
  -5   8   7    6.40    5.90 
   8   5   7   14.90   14.40 
   8   5   7   -4.80    7.70 
  -5   8   7   -1.40    5.10 
  -8  -5   7   -0.10    4.40 
   5  -8   7    2.30   12.00 
  -5   8   7    3.90    8.30 
   8   5   7    2.80    6.90 
   8   5   7    2.60    6.00 
  -8  -5   7   13.80    9.80 
  -8  -3  -7    7.20    5.00 
  -3   8  -7    8.50    9.00 
   8   3  -7   17.50    6.40 
  -8  -3  -7   18.20    5.60 
   3  -8  -7    5.90   17.10 
   3  -8  -7   19.70   23.20 
  -3   8  -7   14.30   15.50 
   8   3  -7   27.10   10.80 
  -3   8  -7   32.50   21.70 
  -3   8  -7    5.00   22.40 
   3  -8  -7  -12.00   27.70 
  -8  -3  -7   24.50    7.90 
   3  -8  -7   27.80   12.20 
   8   3  -7   23.80   16.20 
   8   3   7   15.90    6.40 
   3  -8   7   18.80    4.10 
   8   3   7   16.10    6.30 
   3  -8   7   26.40    9.60 
  -3   8   7   21.50    5.70 
   3  -8   7   33.20    5.50 
  -8  -3   7   22.90    5.70 
  -3   8   7   24.20    8.00 
  -3   8   7   41.60   11.20 
   3  -8   7   21.10    7.60 
  -8  -1  -7    2.00    3.50 
  -1   8  -7    2.10    6.30 
  -1   8  -7    5.10    3.70 
   1  -8  -7    3.80    9.50 
  -8  -1  -7    4.70    6.00 
  -1   8  -7   -4.90   12.60 
   1  -8  -7    3.50   14.30 
   8   1  -7   -5.20    5.70 
  -1   8  -7    8.80   16.20 
  -1   8  -7    7.00    6.50 
  -8  -1  -7    5.80    3.60 
  -1   8  -7  -10.30   13.20 
   8   1  -7    9.20    5.30 
   8   1  -7   13.60   14.10 
   1  -8  -7   14.30   12.90 
   1  -8   7   -0.50    2.90 
  -1   8   7    1.30    6.20 
  -1   8   7    6.20    5.90 
   8   1   7    9.70    4.20 
  -8  -1   7    6.20    3.90 
  -8  -1   7    4.10    7.10 
   1  -8   7    3.50    2.00 
  -8  -1   7    7.90    9.40 
   8   1   7    2.00    7.90 
  -1   8   7    0.00    6.40 
   8   1   7   20.00    7.10 
   1   8  -7   -0.50    5.20 
   8  -1  -7   -2.20    4.60 
  -1  -8  -7    2.90    6.00 
   1   8  -7   -6.70    8.00 
   1   8  -7    2.10   14.90 
   1   8  -7    7.90    6.80 
   1   8  -7   16.90   15.90 
  -1  -8  -7   -1.10    8.10 
   8  -1  -7   -6.20    6.50 
   8  -1  -7    1.20   12.40 
  -8   1  -7    0.10    7.20 
  -8   1  -7    3.30    4.00 
  -1  -8  -7   10.80    8.50 
  -8   1   7   -6.00   11.00 
   1   8   7   -0.20    5.80 
   1   8   7    6.40    6.00 
   8  -1   7    0.10    5.70 
   1   8   7    7.80   10.20 
  -1  -8   7    7.30    2.40 
  -1  -8   7   -1.60    3.10 
   8  -1   7   -1.40    3.30 
  -8   1   7    1.70    5.10 
   1   8   7    8.40    7.60 
  -8   1   7    5.30    3.80 
   3   8  -7    8.30    8.70 
  -8   3  -7   16.10   15.60 
  -3  -8  -7   12.00    7.60 
  -3  -8  -7   23.90    8.60 
  -8   3  -7    6.30   11.70 
   8  -3  -7   23.40    8.50 
  -3  -8  -7   18.00    8.10 
  -8   3  -7   27.90    7.00 
   3   8  -7    7.00   15.50 
   8  -3  -7   33.30   19.80 
   8  -3  -7   34.90   15.70 
   3   8  -7   12.70    7.70 
   3   8  -7   28.00   18.70 
  -8   3   7   53.29   17.80 
   3   8   7   22.20    6.90 
  -8   3   7   29.50    8.00 
  -3  -8   7   35.00    6.80 
   3   8   7   24.70    8.10 
  -8   3   7   22.60    4.30 
  -3  -8   7   40.20    4.50 
   8  -3   7   25.70   12.50 
   8  -3   7   13.30    7.90 
   8  -3   7   20.90    3.80 
   3   8   7   18.90    7.10 
   3   8   7   36.10    9.70 
  -5  -8  -7   -0.50   13.30 
  -5  -8  -7   -0.40    6.20 
   5   8  -7    7.70   14.90 
  -8   5  -7   -0.40    4.60 
   5   8  -7   -1.50    6.90 
  -8   5  -7   11.60   14.40 
  -5  -8  -7    4.70    6.80 
   5   8  -7    8.20    6.80 
   5   8  -7    4.10   17.00 
   8  -5  -7    2.30   15.80 
   5   8   7    2.50    8.30 
  -8   5   7    6.80    8.20 
  -8   5   7    8.20    4.30 
  -5  -8   7    2.00    4.60 
   8  -5   7   -3.40   14.00 
  -8   5   7    5.10   12.00 
  -5  -8   7    6.90    3.70 
   5   8   7   -1.40    7.70 
   8  -5   7    7.60    7.50 
  -8   7  -7   66.29   27.80 
  -8   7  -7   46.90   19.60 
   7   8  -7   28.30   23.10 
   7   8  -7   38.90   13.90 
  -8   7  -7   48.60   10.60 
  -7  -8  -7   37.80   10.80 
   8  -7  -7  122.09   33.60 
  -7  -8  -7   45.10   11.20 
  -8   7  -7   53.69   27.10 
   8  -7  -7  105.79   24.20 
   7   8  -7   60.79   12.70 
  -8   7   7   60.79   14.70 
  -7  -8   7   72.19   15.40 
   8  -7   7   80.89   27.90 
  -7  -8   7   49.90    8.30 
  -7  -8   7   53.89   10.20 
   7   8   7   31.70   12.60 
  -8   7   7   67.09    9.40 
   7   8   7   40.40   15.40 
   8  -7   7   71.19   16.40 
  -8   7   7   72.59   15.70 
   9   6  -7   10.70   12.70 
  -9  -6  -7    8.40    7.40 
   9   6  -7   10.10   10.50 
  -6   9  -7    4.30   16.30 
   9   6  -7   22.80    8.70 
   6  -9  -7   78.99   43.10 
   6  -9  -7   32.20   26.70 
  -6   9  -7   31.10   28.70 
  -6   9  -7   21.60   16.20 
   9   6  -7   18.20   21.40 
  -9  -6   7   20.70   13.30 
  -6   9   7   17.40    8.90 
  -6   9   7   12.40   10.40 
   6  -9   7   12.70    9.30 
   9   6   7    6.50   11.00 
   6  -9   7   32.80   21.40 
  -6   9   7   12.70    7.90 
   9   6   7   14.90   15.20 
  -6   9   7   15.00    9.80 
  -9  -6   7    1.20    5.90 
  -9  -6   7   10.40    5.50 
  -4   9  -7  -10.50   20.30 
   4  -9  -7   13.30   13.40 
   4  -9  -7    3.10   22.40 
  -9  -4  -7   -6.00    5.80 
   9   4  -7    6.30    8.40 
  -4   9  -7   12.90   16.00 
   4  -9  -7   11.30   35.00 
   9   4  -7    3.10    6.30 
   4  -9  -7   23.90   31.00 
  -4   9  -7  -22.30   22.40 
   9   4  -7    7.90   17.50 
  -9  -4  -7    4.00    5.20 
   4  -9   7    3.00    3.70 
  -4   9   7    8.90    7.10 
   4  -9   7    4.70   13.60 
  -9  -4   7   -0.30    4.10 
   4  -9   7   11.20    7.80 
  -4   9   7   12.40    9.60 
  -9  -4   7    2.40   11.20 
   9   4   7    7.90    6.60 
  -4   9   7    7.20    5.60 
   9   4   7   10.90   11.80 
   2  -9  -7   33.60   21.90 
   2  -9  -7   39.50   27.10 
   9   2  -7   65.39   23.10 
   9   2  -7   35.70    9.10 
   9   2  -7   50.49   13.70 
  -9  -2  -7   34.10    7.60 
  -2   9  -7   41.70   25.40 
  -2   9  -7   58.79   25.00 
  -9  -2  -7   39.80    8.00 
  -2   9  -7   54.09   12.90 
  -2   9  -7   44.00   28.90 
  -9  -2   7   35.10    7.00 
   9   2   7   57.09   14.90 
   2  -9   7   39.70    6.20 
  -9  -2   7   43.00   14.20 
  -2   9   7   44.50   11.00 
  -2   9   7   37.20    7.90 
   2  -9   7   44.60    6.80 
   9   2   7   57.29   10.90 
  -2   9   7   60.19   13.30 
   0   9  -7   -5.50   12.80 
   0   9  -7    3.10    7.40 
   9   0  -7    1.00    7.60 
   0   9  -7    0.50   12.90 
   0   9  -7   18.90   20.90 
   9   0  -7   -1.20    5.20 
   9   0  -7   -2.40   14.20 
   0  -9  -7  -12.40   14.10 
   0  -9  -7   -1.60   10.20 
  -9   0  -7   -4.60    3.80 
  -9   0  -7    1.20    4.70 
   0  -9   7   -1.60    3.90 
   0  -9   7   -2.40    3.20 
  -9   0   7    2.30    7.90 
   9   0   7    3.60    5.00 
   9   0   7   -9.20    7.80 
   0   9   7    9.20    4.70 
   0   9   7   -3.30    8.50 
  -9   0   7   -5.80   13.10 
   0   9   7   -0.10    7.00 
   9   0   7   -9.60    6.40 
  -9   0   7   -1.50    4.00 
   0  -9   7    2.80    2.20 
   0   9   7   -2.30    6.50 
   2   9  -7   48.10   15.20 
   9  -2  -7   20.00    7.90 
   9  -2  -7   57.79   24.90 
   2   9  -7   31.50   10.10 
   2   9  -7   24.60    9.40 
   9  -2  -7   62.79   18.50 
  -2  -9  -7   22.80   10.70 
   2   9  -7   13.80   19.00 
  -2  -9  -7   26.30    9.70 
  -9   2  -7   44.40    8.80 
  -9   2  -7   11.40   16.90 
  -2  -9  -7   27.60   12.90 
   2   9  -7   49.20   26.30 
  -9   2   7   24.20    6.30 
   2   9   7   42.80   12.80 
  -9   2   7   46.10    8.90 
   2   9   7   38.40   10.90 
   2   9   7   35.20    6.80 
   9  -2   7   43.30    6.20 
   2   9   7   36.90   10.80 
  -2  -9   7   32.90    4.30 
   2   9   7   36.50    7.60 
   9  -2   7   29.40   10.70 
   9  -2   7   38.70   11.60 
  -9   2   7   32.30    7.10 
  -9   2   7   57.59   22.30 
  -2  -9   7   39.40    7.40 
   4   9  -7    4.30    6.70 
  -4  -9  -7    2.70    7.20 
   9  -4  -7   -2.90   13.60 
  -4  -9  -7    2.90    8.30 
  -9   4  -7    9.60   15.70 
  -9   4  -7   -0.90    4.80 
  -4  -9  -7   -7.20   10.40 
  -9   4  -7   13.60   17.00 
   9  -4  -7    5.10    8.60 
   4   9  -7   -2.90    8.80 
   9  -4  -7    3.00   17.90 
   4   9  -7    1.90   16.90 
   4   9  -7    6.50   18.20 
  -9   4   7   -8.30   14.80 
  -9   4   7    2.90    3.40 
   9  -4   7   -7.80   12.40 
  -4  -9   7    6.00    3.50 
  -4  -9   7    6.90    5.30 
   4   9   7   11.80    7.80 
   4   9   7    3.30    7.90 
   9  -4   7   -0.60    8.00 
   4   9   7   -0.50    8.40 
   4   9   7    3.50    4.50 
   9  -6  -7   18.60   20.00 
   6   9  -7    1.70   21.20 
  -6  -9  -7   24.20    9.60 
  -6  -9  -7   10.10    7.60 
  -9   6  -7   12.20   16.20 
   9  -6  -7   30.30   15.50 
   6   9  -7    0.70   16.90 
  -9   6  -7   14.60   26.30 
   6   9  -7   13.40   11.10 
  -9   6  -7   -1.10    6.00 
   6   9  -7   19.90    8.90 
   6   9   7   14.10   11.20 
   6   9   7   11.40    6.80 
   6   9   7    2.30   11.10 
  -6  -9   7    7.00    7.60 
   9  -6   7   22.50   22.50 
  -6  -9   7   16.50    5.40 
  -9   6   7   15.70    4.90 
  -9   6   7   16.60   13.70 
   9  -6   7    6.40   11.10 
  -9   6   7   18.30   11.70 
  10   5  -7   43.10   24.80 
  -5  10  -7   77.69   35.10 
   5 -10  -7   56.99   55.49 
  10   5  -7   38.70   10.80 
 -10  -5  -7   28.10    9.90 
   5 -10  -7   10.80   63.99 
  -5  10  -7   60.19   19.30 
  -5  10  -7   34.60   20.40 
   5 -10  -7   32.60   32.30 
  10   5  -7   43.10   15.60 
  -5  10  -7   33.00   28.90 
  -5  10   7   42.10   10.00 
   5 -10   7   25.60    6.20 
 -10  -5   7   30.30    7.90 
  -5  10   7   49.40   10.50 
   5 -10   7   33.80   23.80 
  -5  10   7   65.99   15.60 
  -5  10   7   65.59   12.50 
 -10  -5   7   45.70   18.70 
   5 -10   7   15.90   11.20 
  10   5   7   31.60   14.70 
   3 -10  -7  -12.90   26.90 
   3 -10  -7  -12.70   25.50 
 -10  -3  -7    2.10    9.60 
  -3  10  -7  -13.80   24.10 
  -3  10  -7    6.50   10.80 
  10   3  -7    3.20   17.30 
  10   3  -7   -7.60    8.90 
  10   3  -7   -1.50    6.80 
  -3  10  -7   12.30   18.10 
 -10  -3  -7    3.20    6.40 
 -10  -3  -7    3.40    6.10 
  -3  10  -7   11.00   25.90 
  -3  10   7    0.80    5.50 
  -3  10   7   16.00    9.00 
 -10  -3   7   -2.30    5.40 
 -10  -3   7   -8.20   14.00 
  10   3   7   -6.40   11.30 
   3 -10   7   -2.80    4.80 
  -3  10   7   -3.60    8.90 
  10   3   7    5.00    7.70 
   3 -10   7    7.90    6.40 
 -10  -1  -7   34.50   12.80 
  10   1  -7   78.09   27.30 
  -1  10  -7   52.09   14.40 
  10   1  -7   44.40   10.20 
   1 -10  -7   67.69   29.10 
  -1  10  -7   44.10   24.90 
 -10  -1  -7   43.00    8.10 
  -1  10  -7   36.40   37.90 
 -10  -1  -7   62.49   11.60 
  -1  10  -7   55.59   26.20 
  10   1   7   67.09   16.50 
  10   1   7   62.69   13.30 
   1 -10   7   28.20    6.20 
  -1  10   7   64.49   14.40 
   1 -10   7   35.80    7.60 
  -1  10   7   70.29   14.80 
  -1  10   7   30.70    8.00 
 -10  -1   7   26.40   21.00 
  -1  10   7   34.20   15.20 
   1 -10   7   38.20    5.40 
 -10  -1   7   46.30    8.10 
  -1 -10  -7   18.80   15.10 
  -1 -10  -7   43.40   19.80 
  10  -1  -7  102.09   31.30 
 -10   1  -7   41.00   15.00 
 -10   1  -7   49.10    8.90 
  10  -1  -7   57.39   20.50 
   1  10  -7   35.50   12.00 
   1  10  -7   20.90   23.30 
   1  10  -7   52.59   29.00 
  -1 -10  -7   23.40   15.50 
   1  10  -7   36.60   18.50 
  10  -1  -7   34.20   10.20 
   1  10   7   47.60    9.00 
 -10   1   7   39.20   23.90 
   1  10   7   60.09   15.50 
  10  -1   7   55.39   15.30 
 -10   1   7   45.80   11.80 
 -10   1   7   55.09    9.00 
  -1 -10   7   61.69    9.40 
  10  -1   7   49.20    8.20 
   1  10   7   45.40   12.30 
  -1 -10   7   41.00    5.20 
  -1 -10   7   31.00    5.90 
  10  -1   7   45.70   12.50 
   1  10   7   54.59   13.80 
  -3 -10  -7    5.70    7.50 
  10  -3  -7  -23.40   21.60 
  10  -3  -7    0.40   13.50 
 -10   3  -7    4.30    5.80 
  -3 -10  -7    0.00    9.30 
   3  10  -7    9.80   19.40 
 -10   3  -7   -5.50   17.20 
   3  10  -7   -2.60    8.20 
  10  -3  -7   -4.10    7.20 
   3  10  -7   13.90   11.80 
 -10   3  -7   17.30   17.60 
   3  10   7   -4.50    8.80 
  -3 -10   7   -3.80    3.30 
  10  -3   7    3.60   12.00 
 -10   3   7   -0.90    4.60 
 -10   3   7   -1.70    7.20 
  -3 -10   7    0.40    6.20 
 -10   3   7    4.00    4.50 
 -10   3   7   -8.90   22.00 
  10  -3   7    9.00    5.20 
   3  10   7    0.70    8.80 
  10  -3   7    2.30   10.40 
   3  10   7    0.30    6.80 
   3  10   7   -0.80    5.00 
   3  10   7    1.00    9.40 
   5  10  -7   24.30   12.00 
 -10   5  -7   46.10   22.40 
  10  -5  -7   56.29   16.40 
  -5 -10  -7   22.10    8.90 
   5  10  -7   34.40   14.90 
   5  10  -7   28.80   23.60 
   5  10  -7   29.00   11.70 
  -5 -10  -7   38.70   12.50 
   5  10  -7   52.89   31.90 
 -10   5  -7   27.30    9.80 
  -5 -10   7   32.80    6.50 
  -5 -10   7   33.60    9.60 
  10  -5   7   39.90   15.30 
 -10   5   7   53.59   14.40 
 -10   5   7   50.19   21.10 
 -10   5   7   27.60    5.90 
   5  10   7   53.59   14.60 
   5  10   7   34.30    9.00 
 -11  -2  -7   10.80    7.30 
  11   2  -7   30.10   22.80 
  11   2  -7   23.70   10.10 
  11   2  -7    5.70   11.00 
   2 -11  -7    3.00   25.40 
  -2  11  -7   11.60   12.50 
  -2  11  -7   11.40   36.60 
  -2  11  -7    2.80   19.10 
   2 -11  -7   37.20   39.90 
  -2  11  -7    4.90   14.90 
 -11  -2  -7    8.70    6.60 
  -2  11  -7   14.90   30.10 
  -2  11   7    9.20    6.70 
  -2  11   7   10.90   11.40 
   2 -11   7    8.40    8.80 
  -2  11   7   10.30   10.30 
   2 -11   7   14.30    6.70 
  11   2   7   13.70   14.10 
 -11  -2   7  -26.50   20.60 
 -11  -2   7    8.30    5.80 
   2 -11   7    7.80    5.10 
   0 -11  -7   12.60   20.60 
   0 -11  -7    0.90   16.50 
  11   0  -7    6.70    8.10 
   0  11  -7  -12.90   22.40 
   0  11  -7  -10.90   19.40 
   0  11  -7   -2.90   10.00 
  11   0  -7   -7.70   20.70 
   0  11  -7   14.70   12.80 
   0  11  -7    6.10   29.80 
 -11   0  -7   -0.70    6.20 
  11   0  -7    0.30   11.20 
   0 -11  -7   11.60   24.00 
  11   0   7    1.10   12.70 
   0 -11   7    3.40    3.40 
 -11   0   7  -10.10   25.80 
   0 -11   7    0.60    6.40 
 -11   0   7   -6.90    4.40 
   0  11   7    6.30   10.70 
   0  11   7    0.10    6.10 
   0 -11   7    0.60    5.50 
   0  11   7   -7.00    9.00 
  -2 -11  -7   12.60   13.80 
  11  -2  -7    6.10    8.40 
   2  11  -7   10.30   10.90 
  -2 -11  -7   -9.50   13.60 
 -11   2  -7    9.60    6.70 
  11  -2  -7   11.90   16.10 
   2  11  -7   27.40   26.40 
   2  11  -7   10.60   16.50 
  11  -2  -7   18.20   26.10 
 -11   2  -7   -3.20   16.70 
   2  11  -7   14.00   29.60 
   2  11  -7   13.90   11.00 
  -2 -11   7    7.30    3.90 
   2  11   7   10.10   10.10 
 -11   2   7    8.90    6.90 
  -2 -11   7   10.60    6.80 
   2  11   7   11.80    6.90 
  11  -2   7   28.10   14.10 
 -11   2   7    1.00    5.30 
 -11   2   7  -17.80   28.20 
  -2 -11   7    1.30    7.00 
   0   0  -8 5104.89  386.46 
   0   0  -8 6175.88  381.96 
   1  -1  -8  136.59   10.50 
   1  -1  -8  135.29   14.20 
   1   1  -8   99.69   13.70 
  -1  -1  -8  152.48   12.00 
  -1   1  -8  137.09    9.90 
   1   1  -8  140.49   10.40 
   1  -1  -8  125.89   11.70 
  -1   1  -8  139.29   10.50 
   1   1  -8  130.19   11.10 
   1   1  -8  133.89   16.10 
  -1  -1  -8  151.88   14.30 
   1   1  -8  148.89   18.90 
  -1   1   8  154.38   10.60 
  -1  -1   8  133.49   10.50 
  -1  -1   8  129.59   16.80 
   0   2  -8  734.03   51.19 
  -2   0  -8  743.23   51.39 
   2   0  -8  770.92   51.59 
  -2   0  -8  734.93   49.99 
   0   2  -8  751.92   49.90 
   2   0  -8  819.62   54.49 
   2   0  -8  729.13   56.99 
   0  -2  -8  765.72   50.59 
   0   2  -8  758.32   50.79 
   2   0  -8  614.44   54.09 
   0   2  -8  692.13   65.09 
  -2   0  -8  734.73   51.19 
   0  -2  -8  725.93   60.19 
   0   2  -8  712.73   54.39 
   0  -2  -8  764.02   53.29 
   0   2  -8  765.82   59.59 
  -2   0  -8  668.23   50.99 
   2   0  -8  734.33   51.69 
  -2   0   8  784.32   52.49 
   2   0   8  769.42   50.39 
   0   2   8  744.23   50.39 
  -2   0   8  844.82   59.69 
   0  -2   8  671.03   57.49 
   2  -2  -8 1796.32  113.29 
   2   2  -8 1552.54  110.29 
  -2  -2  -8 1608.54  110.79 
   2   2  -8 1576.44  108.89 
  -2  -2  -8 1645.64  109.69 
  -2   2  -8 1631.34  108.09 
   2  -2  -8 1565.94  108.19 
  -2   2  -8 1611.94  107.49 
  -2   2  -8 1544.95  109.79 
  -2   2  -8 1624.24  107.69 
   2   2  -8 1571.24  117.49 
   2   2  -8 1558.84  109.99 
   2   2  -8 1596.04  108.59 
   2   2  -8 1674.93  116.69 
   2  -2  -8 1692.73  112.89 
  -2  -2  -8 1668.03  109.99 
  -2  -2  -8 1570.24  110.29 
  -2  -2   8 1494.85  112.39 
  -2  -2   8 1583.84  118.79 
   2  -2   8 1541.05  107.69 
   2   2   8 1680.53  108.39 
  -2  -2   8 1591.04  109.19 
   2   2   8 1645.54  109.49 
   2  -2   8 1673.13  108.69 
   1  -3  -8 1578.14  107.49 
   3   1  -8 1627.74  106.99 
   3   1  -8 1592.04  110.29 
  -1   3  -8 1664.83  119.09 
  -1   3  -8 1549.74  105.49 
  -3  -1  -8 1405.36  111.89 
  -1   3  -8 1575.04  107.69 
  -3  -1  -8 1666.23  107.19 
   3   1  -8 1623.04  115.69 
   3   1  -8 1375.56  108.09 
  -1   3  -8 1609.04  105.09 
   1  -3  -8 1507.35  122.69 
  -1   3  -8 1709.13  108.29 
  -3  -1  -8 1614.34  106.79 
   1  -3  -8 1551.04  108.79 
   3   1  -8 1595.14  108.39 
  -3  -1  -8 1562.24  105.99 
   3   1  -8 1473.95  109.39 
   1  -3   8 1745.33  118.59 
  -3  -1   8 1481.05  108.29 
  -3  -1   8 1561.14  107.49 
  -3  -1   8 1714.33  116.79 
   3   1   8 1579.24  106.59 
   3   1   8 1529.85  106.29 
   3   1   8 1534.75  107.19 
  -1  -3  -8 1539.55  105.09 
   3  -1  -8 1588.24  107.69 
   3  -1  -8 1493.65  106.19 
   3  -1  -8 1576.94  111.29 
  -3   1  -8 1360.96  109.19 
   1   3  -8 1461.75  116.79 
  -1  -3  -8 1535.15  107.09 
   1   3  -8 1555.44  104.79 
   1   3  -8 1469.55  107.09 
  -1  -3  -8 1567.84  108.79 
   1   3  -8 1506.05  104.79 
  -1  -3  -8 1546.25  110.09 
  -1  -3  -8 1619.34  107.09 
  -3   1  -8 1594.44  103.39 
   1   3  -8 1563.44  106.39 
   3  -1  -8 1596.44  110.39 
  -3   1  -8 1546.75  105.29 
   1   3  -8 1557.34  114.79 
  -3   1  -8 1630.94  104.59 
  -3   1   8 1571.64  106.99 
   3  -1   8 1538.45  103.99 
  -1  -3   8 1442.36  110.39 
   1   3   8 1611.74  103.99 
   1   3   8 1543.85  104.29 
   3  -1   8 1636.84  105.79 
  -3  -3  -8   60.39    6.60 
  -3   3  -8   34.20    9.20 
  -3  -3  -8   60.09    8.40 
   3   3  -8   53.39   13.10 
  -3   3  -8   59.49   10.60 
   3  -3  -8   51.99   10.90 
  -3   3  -8   39.60   16.10 
   3   3  -8   72.69    7.50 
  -3   3  -8   67.29    6.50 
   3   3  -8   48.80    8.50 
  -3  -3  -8   61.69   24.30 
  -3  -3  -8   66.19    7.90 
  -3  -3  -8   73.29   15.70 
   3  -3  -8   55.69   11.20 
  -3  -3  -8   59.79    7.70 
   3   3  -8   71.69   16.30 
   3   3  -8   78.49    6.20 
  -3   3   8   80.09    8.30 
  -3  -3   8   74.69   10.00 
   3  -3   8   64.89    8.40 
  -3  -3   8   52.29    5.70 
  -3  -3   8   64.69    7.90 
   3   3   8   67.99    7.80 
  -3   3   8   91.99   10.90 
   3  -3   8   71.89    5.90 
   3   3   8   62.09    6.80 
  -3  -3   8   65.69    9.90 
  -3  -3   8   78.09   17.80 
   4   2  -8 1404.26  104.79 
   4   2  -8 1342.77   95.69 
   4   2  -8 1357.36   97.79 
   4   2  -8 1349.07   93.39 
  -4  -2  -8 1411.36   93.29 
   2  -4  -8 1406.26   98.79 
   2  -4  -8 1508.05   93.79 
   4   2  -8 1365.56   93.09 
  -4  -2  -8 1382.16   93.59 
   4   2  -8 1350.86   95.09 
  -2   4  -8 1373.66   95.29 
  -2   4  -8 1339.57   90.69 
   2  -4  -8 1516.75  127.09 
  -4  -2  -8 1296.57   96.89 
  -4  -2   8 1503.35   95.69 
   4   2   8 1235.08   92.29 
  -4  -2   8 1389.96   92.39 
  -4  -2   8 1485.65  105.19 
   2  -4   8 1321.57   90.89 
  -4  -2   8 1171.98   94.69 
  -4  -2   8 1364.86   94.59 
   4   2   8 1194.18   97.19 
   4   2   8 1377.66   92.49 
   0   4  -8   60.79   10.10 
   0  -4  -8   58.19   13.90 
   4   0  -8   55.39   12.90 
   4   0  -8   76.59   13.80 
   0   4  -8   65.39   19.70 
   4   0  -8   84.79    8.60 
  -4   0  -8   65.69    6.70 
  -4   0  -8   83.09    7.70 
   0   4  -8   81.79   15.30 
  -4   0  -8   46.20   21.60 
   0  -4  -8   73.09   11.00 
   0   4  -8   76.19    9.00 
   0  -4  -8   69.79    8.90 
   0   4  -8   75.29    8.00 
   0  -4  -8   74.99   15.60 
   0   4  -8   71.49    6.90 
   4   0  -8   80.69   10.30 
  -4   0  -8   73.69    7.60 
   0   4  -8   82.39   12.90 
  -4   0  -8   48.50   28.30 
   4   0  -8   82.99   12.60 
   4   0   8   69.89    6.70 
   0   4   8   75.29    7.20 
   4   0   8   89.19    9.90 
  -4   0   8   97.09   17.30 
  -4   0   8   72.19    7.40 
  -4   0   8   74.59    9.60 
   0   4   8   73.89    8.20 
   0  -4   8   87.09   16.80 
  -4   2  -8 1368.66   91.69 
   4  -2  -8 1522.65   98.79 
   2   4  -8 1342.67   95.49 
  -2  -4  -8 1360.26   94.59 
  -2  -4  -8 1244.88   98.99 
  -2  -4  -8 1341.97   93.49 
   2   4  -8 1293.87  104.19 
  -2  -4  -8 1300.07   94.59 
   2   4  -8 1296.67   92.09 
  -4   2  -8 1251.37  100.79 
   2   4  -8 1329.77   92.49 
   2   4   8 1342.17   91.29 
   4  -2   8 1387.36   96.99 
   4  -2   8 1306.07   90.99 
  -2  -4   8 1174.78  100.09 
  -4   2   8 1516.55   97.69 
  -2  -4   8 1233.08  102.49 
  -2  -4   8 1611.24   96.19 
  -2  -4   8 1392.16   91.99 
   2   4   8 1196.78   95.59 
  -4   2   8 1420.56   97.39 
   2   4   8 1368.86   92.39 
   4   4  -8 1642.64  109.29 
  -4   4  -8 1652.43  110.39 
   4   4  -8 1619.14  114.69 
   4   4  -8 1606.34  120.29 
   4   4  -8 1650.43  125.99 
  -4  -4  -8 1727.23  128.29 
  -4  -4  -8 1670.53  112.29 
  -4  -4  -8 1637.74  111.09 
  -4   4  -8 1494.25  116.29 
   4   4  -8 1545.55  111.49 
  -4  -4   8 1331.17  114.19 
   4   4   8 1567.14  110.49 
   4  -4   8 1560.34  109.19 
  -4  -4   8 1602.14  109.29 
   4  -4   8 1589.74  110.39 
   4   4   8 1618.94  111.29 
   4  -4   8 1816.02  114.59 
  -4  -4   8 1810.52  115.59 
   4   4   8 1671.13  108.99 
  -4  -4   8 1725.03  111.29 
   5   3  -8  263.47   26.80 
  -5  -3  -8  239.38   25.60 
   5   3  -8  286.97   22.30 
  -5  -3  -8  266.87   21.70 
  -5  -3  -8  291.47   22.40 
   5   3  -8  296.77   34.60 
   3  -5  -8  283.87   46.60 
  -3   5  -8  321.17   42.30 
  -3   5  -8  236.18   38.30 
  -3   5  -8  261.57   25.30 
   5   3  -8  268.37   21.00 
  -5  -3  -8  229.28   49.80 
  -3   5  -8  348.47   23.00 
  -5  -3  -8  273.07   22.10 
   5   3   8  263.67   20.80 
   3  -5   8  285.17   23.40 
   3  -5   8  264.57   19.30 
  -5  -3   8  290.67   26.50 
   5   3   8  274.97   19.60 
  -5  -3   8  227.58   23.60 
   5   3   8  265.87   20.90 
   5   3   8  290.67   22.40 
  -5  -3   8  266.37   20.50 
   5   1  -8  254.17   22.70 
  -5  -1  -8  235.08   31.80 
  -1   5  -8  249.38   22.60 
   1  -5  -8  266.87   34.60 
  -5  -1  -8  259.97   21.10 
   1  -5  -8  196.38   24.40 
  -1   5  -8  272.87   34.00 
   1  -5  -8  279.57   23.90 
   5   1  -8  268.27   30.70 
   5   1  -8  246.88   22.30 
   1  -5  -8  254.57   24.80 
  -1   5  -8  248.58   31.60 
   5   1  -8  281.97   21.60 
  -1   5  -8  220.28   37.60 
  -1   5  -8  249.88   19.10 
   1  -5  -8  206.58   35.00 
   5   1  -8  285.67   24.80 
  -5  -1  -8  278.17   20.30 
  -1   5  -8  261.97   24.50 
  -1   5  -8  273.87   22.30 
  -5  -1  -8  246.68   20.80 
  -5  -1   8  251.37   21.40 
   1  -5   8  273.67   19.30 
   5   1   8  260.97   22.40 
  -5  -1   8  292.07   31.10 
  -1   5   8  304.47   20.90 
  -5  -1   8  304.57   24.60 
   5   1   8  282.07   19.90 
   5   1   8  288.97   18.80 
  -1   5   8  228.08   20.30 
   5   1   8  234.58   20.00 
  -5  -1   8  293.97   23.90 
  -1   5   8  304.67   21.20 
   5  -1  -8  241.68   21.90 
  -1  -5  -8  275.87   25.60 
   5  -1  -8  303.17   30.30 
   1   5  -8  233.58   31.30 
  -1  -5  -8  271.57   24.20 
  -5   1  -8  270.57   20.60 
  -1  -5  -8  275.67   26.60 
  -1  -5  -8  244.18   22.50 
   1   5  -8  262.47   22.50 
   5  -1  -8  269.97   25.50 
   1   5  -8  223.48   43.80 
  -5   1  -8  255.37   18.60 
   1   5  -8  258.77   21.30 
   1   5  -8  273.27   25.80 
  -5   1  -8  249.58   22.00 
   1   5  -8  269.07   20.10 
   1   5  -8  280.87   23.40 
   5  -1  -8  294.37   28.70 
  -1  -5  -8  276.47   25.80 
  -1  -5   8  222.38   26.60 
  -5   1   8  248.88   24.80 
  -5   1   8  298.67   28.00 
   5  -1   8  261.97   18.80 
   1   5   8  264.87   21.50 
   5  -1   8  326.37   24.60 
   1   5   8  233.68   19.20 
   5  -1   8  264.87   19.90 
   5  -1   8  255.87   18.80 
  -1  -5   8  262.47   19.90 
   3   5  -8  276.27   19.30 
   3   5  -8  262.37   21.90 
  -3  -5  -8  309.07   24.10 
   3   5  -8  289.37   33.50 
   3   5  -8  267.87   33.40 
  -5   3  -8  256.37   34.50 
  -3  -5  -8  260.67   24.30 
  -5   3  -8  282.77   21.50 
   3   5  -8  261.17   22.30 
  -3  -5  -8  281.77   23.80 
  -3  -5  -8  288.37   28.80 
   3   5  -8  232.88   27.00 
   3   5   8  284.67   20.40 
   3   5   8  288.57   21.10 
  -3  -5   8  277.27   21.60 
   5  -3   8  301.07   26.80 
  -5   3   8  308.07   27.00 
   3   5   8  261.07   22.00 
  -3  -5   8  290.57   27.00 
   5  -3   8  264.37   20.40 
   5  -3   8  273.77   21.10 
  -3  -5   8  248.38   19.40 
  -5   5  -8  135.89   12.50 
  -5  -5  -8  133.59   13.80 
   5   5  -8  131.69   13.30 
   5   5  -8  126.19   10.80 
   5   5  -8  156.18   26.40 
   5   5  -8  105.99   14.90 
   5   5  -8   89.79   19.90 
  -5  -5  -8  115.29   13.10 
  -5   5  -8   80.99   19.30 
  -5  -5  -8   98.39   25.30 
  -5  -5  -8  125.99   12.80 
  -5   5  -8   97.49   26.50 
  -5  -5   8  125.69   14.50 
  -5  -5   8  118.69   10.40 
   5   5   8  105.49   13.50 
  -5   5   8  136.59   15.40 
   5  -5   8  112.29   10.70 
  -5  -5   8  148.09   20.60 
   5  -5   8  117.19   12.60 
   5  -5   8  112.89   17.00 
   5   5   8  129.49   13.00 
   5   5   8  120.19   11.10 
  -5  -5   8  119.19   12.20 
   6   4  -8   61.19    9.10 
   4  -6  -8   71.49   28.00 
  -6  -4  -8   66.79    9.00 
   6   4  -8   54.29    9.00 
   4  -6  -8  162.58   40.60 
  -6  -4  -8   52.89    9.10 
  -4   6  -8   42.00   12.70 
   6   4  -8   55.79   14.50 
   6   4  -8   71.69   11.80 
   4  -6  -8   37.00   15.10 
  -4   6  -8   57.89   22.40 
   6   4  -8   50.99   19.20 
  -4   6  -8   92.89   26.50 
  -6  -4  -8   50.79    9.00 
  -4   6   8   95.39   12.90 
   4  -6   8   49.90    6.50 
  -4   6   8   75.89   10.10 
   6   4   8   66.49   10.00 
  -6  -4   8   47.10   10.20 
   4  -6   8   55.19   11.20 
  -4   6   8   83.19   12.90 
   6   4   8   51.19    7.10 
  -6  -4   8   65.49    7.40 
  -6  -4   8   42.30   14.40 
  -4   6   8   73.79    8.30 
   4  -6   8   57.79    8.70 
  -6  -4   8   39.40   12.40 
   6   4   8   53.69   10.40 
   6   2  -8  288.97   34.40 
  -2   6  -8  283.27   42.10 
  -6  -2  -8  278.87   21.90 
   6   2  -8  254.17   22.40 
  -6  -2  -8  254.47   21.80 
   2  -6  -8  287.87   24.00 
   2  -6  -8  174.88   39.00 
  -6  -2  -8  235.18   31.00 
   2  -6  -8  219.98   46.70 
  -2   6  -8  243.28   26.00 
  -2   6  -8  243.98   36.70 
   2  -6  -8  202.68   28.30 
  -6  -2  -8  270.37   21.10 
   6   2  -8  279.27   22.10 
   6   2  -8  277.57   24.60 
  -2   6  -8  238.18   36.80 
   6   2  -8  253.17   25.60 
   2  -6   8  265.87   22.60 
  -6  -2   8  300.77   27.70 
  -6  -2   8  263.97   20.40 
  -2   6   8  223.28   20.80 
  -2   6   8  275.57   22.50 
  -6  -2   8  240.78   23.00 
   6   2   8  270.07   21.30 
   2  -6   8  265.47   18.20 
   6   2   8  308.17   23.40 
   2  -6   8  273.57   19.00 
   0   6  -8 1550.04  146.79 
   0   6  -8 1794.92  130.49 
  -6   0  -8 1831.62  125.49 
  -6   0  -8 1883.81  127.29 
   0  -6  -8 1911.81  132.29 
   0  -6  -8 1860.61  130.89 
  -6   0  -8 1897.51  128.69 
   0   6  -8 1823.92  125.69 
   0  -6  -8 1874.11  136.29 
   0   6  -8 1783.02  144.79 
   6   0  -8 1912.61  128.49 
   0   6  -8 1869.71  128.79 
   0  -6  -8 1739.93  137.49 
  -6   0   8 1834.12  126.49 
   0   6   8 1850.31  126.69 
   0   6   8 2164.58  127.99 
   6   0   8 1922.71  126.19 
   0   6   8 1981.50  129.99 
   0  -6   8 1892.11  125.79 
  -6   0   8 1864.81  127.09 
   0   6   8 1708.93  126.99 
   6   0   8 1928.61  130.29 
   6   0   8 1872.21  125.29 
  -2  -6  -8  267.87   24.60 
  -2  -6  -8  277.87   21.50 
  -6   2  -8  229.08   25.00 
   2   6  -8  294.57   23.10 
   2   6  -8  252.07   26.80 
  -2  -6  -8  244.58   29.20 
   2   6  -8  267.77   34.50 
   2   6  -8  261.97   21.20 
  -6   2  -8  247.88   21.70 
   2   6  -8  280.77   24.80 
   2   6  -8  233.48   35.20 
   6  -2  -8  350.16   30.70 
  -2  -6  -8  274.47   26.90 
  -2  -6  -8  231.88   24.80 
   6  -2  -8  270.47   23.90 
  -2  -6  -8  253.67   24.70 
   2   6   8  260.17   21.00 
   2   6   8  288.87   23.20 
  -2  -6   8  279.07   28.60 
  -2  -6   8  276.97   21.30 
   2   6   8  281.07   21.20 
   6  -2   8  254.97   20.60 
   6  -2   8  280.57   21.60 
   6  -2   8  274.37   18.80 
  -6   2   8  303.47   29.50 
   4   6  -8   47.30    5.80 
  -4  -6  -8   59.69   10.30 
   4   6  -8   55.49   11.90 
  -6   4  -8   48.40    7.80 
  -4  -6  -8   49.99    9.80 
  -4  -6  -8   69.69   16.40 
   4   6  -8   71.09   20.40 
   4   6  -8   55.09   21.00 
  -6   4  -8   27.80   12.80 
   4   6  -8   50.19    8.60 
  -6   4  -8   51.29   20.00 
   6  -4   8   53.69    7.40 
   4   6   8   63.69   10.50 
   4   6   8   55.19    7.30 
  -6   4   8   59.59   13.20 
   6  -4   8   52.89   13.60 
  -4  -6   8   49.40    9.60 
  -4  -6   8   55.49    5.80 
  -4  -6   8   67.79   15.30 
   4   6   8   51.69    8.70 
  -4  -6   8   64.99    8.50 
   4   6   8   44.60    7.00 
  -6   4   8   86.99   12.90 
   6  -4   8   57.09    8.60 
   6   6  -8  579.64   57.49 
  -6   6  -8  595.14   65.39 
   6   6  -8  623.54   53.09 
   6   6  -8  719.63   49.50 
   6   6  -8  633.24   67.79 
   6   6  -8  599.84   48.00 
  -6  -6  -8  632.04   49.10 
  -6  -6  -8  595.14   48.00 
   6  -6   8  621.94   45.50 
   6   6   8  624.14   48.10 
   6  -6   8  642.54   55.89 
   6   6   8  610.84   45.90 
  -6  -6   8  617.44   50.19 
  -6  -6   8  651.63   45.10 
   6  -6   8  640.14   48.80 
  -6  -6   8  652.13   47.30 
   6   6   8  636.44   49.80 
  -6   6   8  732.73   50.99 
  -7  -5  -8  108.29   12.50 
  -5   7  -8   79.59   23.00 
   7   5  -8   77.49   11.40 
  -5   7  -8   63.19   26.10 
  -7  -5  -8   68.39   11.50 
   5  -7  -8  233.08   51.99 
   7   5  -8   75.09   17.80 
   5  -7  -8   86.09   22.10 
   7   5  -8   70.59   24.80 
   7   5  -8   82.39   16.20 
  -5   7  -8  116.49   32.70 
   7   5   8   74.29   13.50 
   5  -7   8  104.79   18.60 
   7   5   8   95.59   12.20 
  -5   7   8   88.59   11.70 
  -7  -5   8   74.09   14.20 
  -7  -5   8   85.09    9.40 
   5  -7   8   87.89   12.30 
   7   5   8   77.19   10.20 
  -7  -5   8   89.09   11.30 
  -5   7   8  130.69   14.40 
  -3   7  -8  688.23   69.59 
  -7  -3  -8  603.44   45.60 
   7   3  -8  655.13   46.90 
   7   3  -8  639.54   50.89 
  -7  -3  -8  632.04   47.40 
   7   3  -8  725.83   64.79 
  -7  -3  -8  656.03   46.80 
   3  -7  -8  471.55   55.69 
   7   3  -8  663.23   51.99 
  -3   7  -8  472.95   63.19 
  -3   7  -8  764.62   74.89 
  -3   7  -8  511.85   50.89 
  -3   7   8  624.34   47.30 
   3  -7   8  654.93   48.90 
  -7  -3   8  627.24   44.70 
   3  -7   8  627.64   42.50 
   3  -7   8  644.94   42.90 
  -7  -3   8  540.65   48.60 
   7   3   8  608.64   44.40 
  -3   7   8  587.04   45.40 
   7   3   8  668.43   47.50 
  -7  -3   8  640.84   50.19 
   7   3   8  656.43   48.60 
  -7  -1  -8   19.50    4.70 
  -1   7  -8    5.20   13.00 
   7   1  -8    9.10    4.50 
   1  -7  -8   11.70    8.00 
  -1   7  -8   -2.20    5.80 
  -1   7  -8    8.50   13.30 
  -1   7  -8    1.50    3.30 
  -7  -1  -8   -0.50    2.70 
  -1   7  -8    1.80    4.90 
   7   1  -8    0.50    9.60 
   7   1  -8    3.90    6.20 
  -1   7  -8    0.80   15.60 
   1  -7  -8    3.40   12.70 
  -7  -1  -8    4.00    5.10 
   1  -7  -8    6.80   13.90 
  -1   7   8   11.70    3.80 
   7   1   8    5.40    3.70 
   7   1   8   11.50    5.40 
  -7  -1   8    3.90    7.00 
  -1   7   8    6.10    5.40 
   1  -7   8    5.70    3.00 
  -7  -1   8   -5.80    9.40 
   7   1   8    9.00    4.80 
  -1   7   8   10.30    5.80 
  -7  -1   8    8.30    4.00 
  -1   7   8    3.60    5.70 
  -7  -1   8    7.80    5.40 
  -1  -7  -8    8.60   10.90 
  -1  -7  -8    5.90    9.00 
   1   7  -8    0.60    4.20 
   1   7  -8    6.80    6.00 
   1   7  -8   -1.30   12.50 
   1   7  -8    3.90    4.10 
  -7   1  -8    3.50    5.90 
   7  -1  -8    3.80    6.80 
  -7   1  -8   10.80    3.10 
   1   7  -8    6.50    7.90 
  -1  -7  -8    6.50    8.00 
   1   7  -8  -12.40   12.60 
  -7   1  -8    4.50    4.30 
   7  -1  -8    4.70    4.70 
  -1  -7  -8    8.60    8.00 
   7  -1  -8    8.20   11.50 
   1   7   8   -1.80    4.20 
   7  -1   8   22.60    7.70 
  -7   1   8   11.00    9.20 
   1   7   8    7.10    3.60 
  -1  -7   8    3.90    3.30 
   7  -1   8    0.20    3.80 
  -7   1   8    4.00    3.00 
   1   7   8    0.50    4.70 
   7  -1   8    1.70    2.70 
   1   7   8    1.70    4.40 
  -7   1   8    3.40    9.20 
  -1  -7   8   -3.60   10.60 
  -7   1   8    7.70    4.00 
   3   7  -8  645.54   65.89 
   3   7  -8  611.74   52.49 
   3   7  -8  493.05   60.49 
  -3  -7  -8  623.34   47.70 
  -3  -7  -8  605.14   49.30 
   3   7  -8  641.84   48.00 
  -7   3  -8  645.74   46.40 
  -3  -7  -8  567.84   49.40 
   3   7  -8  591.14   49.10 
  -3  -7   8  648.14   43.30 
  -7   3   8  700.33   55.59 
   7  -3   8  683.13   47.70 
  -3  -7   8  657.63   46.20 
   3   7   8  648.94   48.30 
   3   7   8  653.53   45.80 
   3   7   8  622.84   45.70 
  -7   5  -8   72.19   24.40 
   5   7  -8   44.00   18.30 
   7  -5  -8  160.08   23.00 
   5   7  -8   90.29   17.00 
   5   7  -8   73.59   24.80 
  -7   5  -8   76.69   10.90 
   5   7  -8   83.69   12.30 
  -5  -7  -8   70.89   12.70 
  -5  -7  -8   78.19   20.20 
  -5  -7  -8   93.19   14.50 
  -7   5   8   93.09   17.60 
  -7   5   8  114.49   16.10 
   7  -5   8   81.29   12.20 
  -5  -7   8   92.69   11.30 
   5   7   8   74.39   11.90 
  -5  -7   8   92.89    8.60 
   7  -5   8   80.99   18.90 
   5   7   8   85.09   13.70 
  -5  -7   8   72.99   13.10 
   5   7   8   77.39   10.50 
   7  -7  -8   14.30   22.00 
  -7   7  -8   -1.90   16.40 
  -7   7  -8   -7.40   17.60 
  -7  -7  -8    1.00    6.00 
  -7   7  -8   10.00   18.30 
  -7  -7  -8    7.30    7.00 
   7  -7  -8   12.40   15.40 
  -7  -7  -8    2.20    7.00 
  -7   7  -8  -17.30    6.80 
   7   7  -8   -2.70    6.00 
   7  -7  -8   26.10   18.80 
   7   7  -8    0.00   17.20 
   7   7  -8   11.60   12.60 
  -7   7   8    3.70    8.00 
   7   7   8    8.70    6.70 
  -7   7   8    9.30    8.70 
  -7  -7   8   -3.30    8.60 
   7   7   8   13.10    8.50 
  -7  -7   8    1.20    4.20 
   7   7   8   -1.40   11.30 
   7  -7   8    1.70    7.50 
   7   7   8    0.00    6.50 
   7  -7   8   10.40   15.50 
   8   6  -8  116.99   16.20 
  -6   8  -8  242.98   49.70 
   8   6  -8  143.19   35.70 
  -8  -6  -8   96.69   15.80 
   6  -8  -8  191.18   33.10 
  -6   8  -8  102.79   27.80 
   8   6  -8  143.19   27.30 
   8   6  -8  110.79   24.00 
  -6   8  -8  103.79   25.00 
  -8  -6  -8  118.39   17.30 
  -8  -6  -8  106.79   15.70 
   6  -8   8  122.39   25.40 
   6  -8   8  127.49   18.20 
  -6   8   8  141.89   17.20 
  -8  -6   8  135.69   15.10 
  -8  -6   8  130.59   13.00 
  -8  -6   8  118.59   20.60 
   8   6   8  141.89   18.60 
   8   6   8  112.59   18.60 
  -6   8   8  177.98   18.80 
  -8  -4  -8   94.69   12.80 
   4  -8  -8  145.79   55.19 
  -8  -4  -8  103.39   17.00 
   8   4  -8  126.39   19.80 
  -4   8  -8  222.68   47.50 
   4  -8  -8   82.79   24.60 
  -4   8  -8   71.99   26.40 
  -8  -4  -8  125.29   14.40 
   8   4  -8  112.19   18.90 
   4  -8  -8  192.68   48.00 
   8   4  -8  127.09   30.10 
  -4   8  -8  133.19   31.60 
   8   4  -8  117.39   15.90 
   4  -8   8  129.79   11.30 
   4  -8   8  137.29   19.90 
   8   4   8  114.39   12.90 
   8   4   8  118.99   14.80 
  -8  -4   8  155.38   19.80 
   4  -8   8  109.89   14.70 
  -8  -4   8  125.69   12.20 
  -4   8   8  125.49   13.70 
   8   4   8  124.69   23.30 
   2  -8  -8  166.38   37.90 
  -2   8  -8  192.08   41.40 
  -2   8  -8  272.37   43.20 
  -8  -2  -8  216.68   20.90 
  -2   8  -8  222.98   26.00 
  -2   8  -8  231.48   18.70 
   2  -8  -8  294.97   25.80 
   2  -8  -8  183.68   46.30 
  -2   8  -8  209.58   24.10 
   8   2  -8  252.67   26.90 
   2  -8  -8  171.08   31.20 
  -2   8  -8  179.88   42.70 
  -8  -2  -8  245.28   20.00 
   8   2  -8  301.57   37.90 
   8   2  -8  243.48   21.70 
  -2   8   8  205.78   21.00 
  -8  -2   8  232.98   19.30 
   8   2   8  245.98   23.00 
  -8  -2   8  266.27   27.70 
   8   2   8  273.27   24.10 
  -2   8   8  204.38   21.90 
  -8  -2   8  197.48   23.10 
   2  -8   8  253.37   18.20 
   8   0  -8  328.67   34.00 
  -8   0  -8  343.97   26.10 
   0   8  -8  397.56   52.19 
   0   8  -8  373.96   52.79 
  -8   0  -8  364.16   31.50 
   8   0  -8  351.26   29.40 
   0   8  -8  320.57   26.20 
  -8   0  -8  330.27   27.90 
   0  -8  -8  361.66   38.60 
   0   8  -8  349.07   30.90 
   0  -8  -8  340.17   42.00 
   0   8  -8  358.46   32.20 
   0   8  -8  312.47   39.00 
   8   0   8  364.16   29.90 
   8   0   8  330.97   30.80 
   8   0   8  356.86   25.80 
  -8   0   8  338.27   28.20 
   0   8   8  367.86   32.50 
   0  -8   8  358.06   26.50 
   0   8   8  338.87   28.70 
  -8   0   8  350.36   27.20 
   0   8   8  345.07   27.30 
  -8   0   8  327.27   35.90 
   8  -2  -8  200.48   22.40 
  -2  -8  -8  224.28   28.80 
   2   8  -8  200.08   37.40 
   2   8  -8  223.88   28.10 
   2   8  -8  221.58   22.80 
   2   8  -8  167.68   40.20 
  -8   2  -8  173.18   25.80 
  -8   2  -8  224.18   21.20 
  -2  -8  -8  251.97   25.80 
   2   8  -8  261.57   25.10 
  -2  -8  -8  223.68   25.90 
   8  -2   8  250.17   18.20 
   2   8   8  241.98   20.40 
  -8   2   8  262.77   21.20 
   8  -2   8  273.37   23.40 
   2   8   8  289.57   23.90 
  -2  -8   8  260.77   20.80 
  -8   2   8  252.97   18.30 
   2   8   8  243.08   21.20 
   2   8   8  283.67   24.80 
  -8   2   8  297.77   34.40 
   8  -2   8  310.47   28.00 
  -8   4  -8   87.59   27.30 
  -4  -8  -8  102.49   16.70 
  -8   4  -8  124.29   13.90 
   4   8  -8  109.79   29.70 
   8  -4  -8  171.88   20.60 
  -4  -8  -8  132.19   19.00 
   4   8  -8  134.49   16.00 
  -4  -8  -8   87.89   15.40 
   4   8  -8  110.79   32.10 
   4   8  -8  103.99   16.20 
   4   8  -8  117.89   20.10 
   4   8   8  120.69   12.80 
  -4  -8   8  110.49   10.30 
   8  -4   8  134.49   16.00 
  -8   4   8  213.88   27.40 
  -4  -8   8  141.19   13.70 
   4   8   8  122.49   17.40 
  -6  -8  -8  110.89   16.50 
   6   8  -8  138.29   38.00 
   6   8  -8  118.99   25.10 
  -8   6  -8   82.99   24.80 
  -8   6  -8  153.58   34.00 
   8  -6  -8  231.98   29.90 
  -8   6  -8  136.19   15.70 
   6   8  -8  119.49   16.80 
  -6  -8  -8  104.79   20.70 
   6   8  -8   79.39   25.50 
   6   8   8  125.79   15.40 
   8  -6   8  155.98   28.30 
  -6  -8   8  136.89   14.80 
   6   8   8  118.39   16.40 
  -8   6   8  206.48   23.70 
   6   8   8  138.09   18.50 
   6   8   8  147.39   22.80 
  -6  -8   8  131.39   12.70 
   6   8   8  132.69   14.30 
   8  -6   8  142.69   18.90 
  -6  -8   8   98.29   17.70 
   5  -9  -8  152.38   43.30 
  -9  -5  -8   58.29   11.80 
   9   5  -8   55.19   15.40 
   9   5  -8   71.29   27.60 
  -5   9  -8   11.10   21.40 
  -5   9  -8  132.39   40.00 
  -5   9  -8   36.90   15.80 
  -9  -5  -8   57.39   10.50 
   9   5  -8   42.90   10.60 
  -5   9  -8   60.39   22.30 
   5  -9  -8   24.80   24.40 
  -5   9   8   59.19   10.90 
   5  -9   8   45.60   17.40 
   5  -9   8   51.69    9.20 
   9   5   8   36.10   13.30 
  -5   9   8   65.29   11.00 
   5  -9   8   42.10   11.80 
  -5   9   8   82.09   15.00 
  -9  -5   8   31.40    7.60 
  -9  -5   8   72.79   17.70 
   3  -9  -8  -11.20   10.80 
   3  -9  -8  -26.30   28.80 
  -9  -3  -8    4.20    4.80 
   9   3  -8    8.80   14.70 
   9   3  -8    7.40    8.60 
  -9  -3  -8   -3.20    7.10 
   9   3  -8   -0.60    5.60 
  -9  -3  -8    1.30    5.80 
  -3   9  -8    8.90   22.90 
  -3   9  -8   10.60   22.70 
  -3   9  -8  -20.10   15.60 
   3  -9  -8   36.80   39.00 
   3  -9  -8   -1.00   16.80 
   3  -9   8   -0.90    3.50 
  -9  -3   8    2.40    4.80 
  -3   9   8    2.40    7.80 
   9   3   8    7.30    5.90 
  -9  -3   8   10.80   11.80 
  -3   9   8   -1.70    4.20 
   9   3   8   10.10    7.50 
  -3   9   8    0.50    6.30 
   9   3   8   -0.20    9.10 
   3  -9   8    4.70    4.00 
  -1   9  -8  175.08   16.30 
  -1   9  -8  186.58   22.20 
   1  -9  -8  136.19   30.20 
   1  -9  -8  197.58   43.80 
  -9  -1  -8  171.48   16.10 
  -1   9  -8  162.78   40.60 
  -9  -1  -8  200.28   22.90 
  -1   9  -8  164.48   37.20 
  -1   9  -8  147.19   41.90 
   9   1  -8  187.78   19.30 
   9   1  -8  180.08   24.50 
  -9  -1  -8  177.88   18.10 
   9   1   8  188.58   21.20 
  -9  -1   8  148.89   15.90 
  -1   9   8  154.48   20.00 
   9   1   8  192.08   23.50 
  -1   9   8  145.39   27.70 
  -9  -1   8  181.58   29.10 
   1  -9   8  191.38   15.80 
  -1   9   8  240.38   21.90 
   1  -9   8  177.08   12.90 
  -1  -9  -8  186.78   31.90 
  -9   1  -8  181.28   24.10 
   9  -1  -8  167.88   19.30 
  -1  -9  -8  127.39   23.90 
  -9   1  -8  201.68   18.40 
   1   9  -8  170.28   20.70 
   1   9  -8  158.48   41.10 
   1   9  -8  159.88   40.80 
  -1  -9  -8  165.58   27.30 
   9  -1  -8  215.68   26.20 
   1   9  -8  147.49   28.80 
   9  -1   8  174.88   21.40 
   1   9   8  157.28   23.70 
  -9   1   8  143.39   28.70 
  -9   1   8  170.18   16.60 
   1   9   8  168.08   16.70 
   1   9   8  179.28   18.70 
  -9   1   8  183.78   17.40 
  -1  -9   8  189.78   16.50 
   9  -1   8  179.98   20.50 
   9  -1   8  190.48   15.50 
   1   9   8  220.18   20.70 
  -9   3  -8   -3.00    5.00 
   9  -3  -8   -0.40   12.00 
  -9   3  -8    0.60   16.60 
   3   9  -8   -7.70   16.40 
   9  -3  -8    6.30   20.60 
   9  -3  -8   -0.30    6.60 
  -9   3  -8   15.60   14.00 
   3   9  -8    0.30    6.40 
   3   9  -8  -17.40   17.70 
   3   9  -8   -2.30    9.10 
  -3  -9  -8  -10.00    8.20 
  -3  -9  -8    5.90    9.50 
   3   9   8    5.80    7.50 
  -9   3   8   12.20   16.40 
   3   9   8   -4.40    6.70 
  -3  -9   8    1.10    2.60 
   3   9   8   -0.80    4.00 
   9  -3   8   -0.70   10.60 
   3   9   8   -3.50    7.30 
   9  -3   8    5.60    7.40 
  -3  -9   8    3.60    5.10 
   5   9  -8   28.00   10.80 
  -9   5  -8   30.60   22.50 
  -9   5  -8   51.99   10.40 
  -5  -9  -8   47.90   12.40 
   5   9  -8   37.10   22.70 
   5   9  -8   40.40   25.50 
  -5  -9  -8   58.79   17.70 
  -9   5  -8   70.69   24.80 
  -5  -9  -8   48.70   13.30 
   9  -5  -8  123.99   24.10 
   5   9  -8   53.69   13.10 
   5   9  -8   39.90   14.60 
  -9   5   8   75.59   15.10 
  -5  -9   8   56.69   10.30 
   5   9   8   49.80   13.60 
  -5  -9   8   53.89    7.20 
   5   9   8   45.50   12.00 
   9  -5   8   46.90   12.30 
   9  -5   8   93.99   26.60 
  10   4  -8  216.28   22.80 
   4 -10  -8  142.19   36.30 
   4 -10  -8  131.59   61.69 
  -4  10  -8  387.56   68.19 
  -4  10  -8  279.07   43.90 
 -10  -4  -8  222.58   21.30 
 -10  -4  -8  215.78   21.50 
   4 -10  -8  116.89   51.69 
  -4  10  -8  151.08   50.59 
  10   4  -8  251.57   31.70 
  10   4   8  249.97   28.90 
 -10  -4   8  218.08   20.00 
  -4  10   8  173.18   20.00 
   4 -10   8  224.78   17.40 
 -10  -4   8  218.28   33.40 
  10   2  -8  151.08   24.70 
  -2  10  -8  187.88   43.20 
  -2  10  -8  153.58   17.40 
  -2  10  -8  127.59   22.00 
 -10  -2  -8  201.58   18.80 
  -2  10  -8  136.29   25.40 
 -10  -2  -8  151.58   15.90 
   2 -10  -8  103.69   47.50 
  10   2  -8  157.88   18.80 
  -2  10  -8  166.58   43.80 
   2 -10  -8   87.09   35.40 
  10   2  -8  243.38   40.90 
 -10  -2   8  170.88   15.80 
   2 -10   8  153.88   12.50 
 -10  -2   8  126.29   28.40 
   2 -10   8  162.28   15.00 
  -2  10   8  130.69   16.00 
   2 -10   8  161.18   13.20 
  10   2   8  203.78   23.60 
  -2  10   8  152.38   27.10 
   0  10  -8   -6.40    8.70 
   0 -10  -8  -24.40   14.40 
   0  10  -8   -9.90   24.40 
  10   0  -8   -2.60    6.80 
   0  10  -8   15.50   10.50 
  10   0  -8  -12.30   17.30 
   0  10  -8   22.50   24.60 
   0 -10  -8  -10.70   17.30 
   0 -10  -8  -14.40   18.20 
   0  10   8    5.90    7.90 
 -10   0   8   -8.70   19.10 
   0  10   8    0.50    5.30 
  10   0   8   10.40   10.00 
   0  10   8    8.90   12.20 
   0 -10   8   -1.30    2.10 
 -10   0   8    6.70   10.40 
   0  10   8    0.30    7.80 
   0 -10   8    2.80    5.10 
  10   0   8   -6.30    8.20 
   2  10  -8  140.29   29.60 
 -10   2  -8  150.58   34.70 
   2  10  -8  165.88   22.30 
 -10   2  -8  175.28   18.40 
  10  -2  -8  234.98   31.30 
 -10   2  -8  139.79   34.50 
  -2 -10  -8  132.39   24.40 
  -2 -10  -8  194.98   27.80 
  -2 -10  -8  146.39   29.60 
   2  10  -8  139.19   39.50 
  10  -2  -8  132.29   18.70 
   2  10  -8  117.29   48.20 
   2  10  -8  186.38   21.80 
  -2 -10   8  187.58   17.40 
 -10   2   8  184.08   16.40 
   2  10   8  192.18   21.20 
 -10   2   8  160.68   16.30 
  10  -2   8  144.49   14.40 
 -10   2   8  152.58   14.80 
  -2 -10   8  133.89   11.80 
  10  -2   8  169.38   21.00 
 -10   2   8  221.08   37.40 
 -10   4  -8  245.68   22.50 
   4  10  -8  262.27   26.70 
 -10   4  -8  174.78   40.10 
  -4 -10  -8  217.98   26.70 
   4  10  -8  194.28   43.80 
  -4 -10  -8  207.98   27.50 
   4  10  -8  198.78   49.70 
  -4 -10  -8  193.18   27.10 
   4  10  -8  223.28   31.20 
   4  10  -8  214.68   26.30 
  -4 -10   8  234.18   22.10 
  -4 -10   8  237.28   18.00 
 -10   4   8  306.97   28.80 
  10  -4   8  231.38   16.50 
  10  -4   8  197.28   26.50 
   4  10   8  295.27   27.50 
  11   1  -8   43.00   15.30 
 -11  -1  -8   48.90   10.90 
  -1  11  -8   50.19   30.80 
  11   1  -8   69.89   29.50 
  -1  11  -8   32.70   38.30 
  -1  11  -8   40.70   15.10 
  -1  11  -8   50.39   29.30 
  11   1  -8   37.20   11.50 
   1 -11  -8   -5.30   22.30 
 -11  -1  -8   42.50    9.10 
   1 -11  -8   46.40   41.00 
   1 -11   8   33.50    7.30 
 -11  -1   8   49.20    8.70 
   1 -11   8   31.60    4.50 
  11   1   8   39.30   14.40 
  -1  11   8   53.09   13.70 
  -1  11   8   33.30    8.70 
 -11  -1   8   12.80   24.30 
  -1  11   8   53.99   15.00 
   1 -11   8   62.49    9.90 
   1  11  -8   19.10   21.60 
 -11   1  -8   47.30   10.50 
  11  -1  -8   77.69   30.00 
  -1 -11  -8   34.60   22.10 
   1  11  -8   47.40   33.50 
   1  11  -8   44.00   14.30 
  -1 -11  -8   17.70   18.00 
  -1 -11  -8   66.99   27.40 
  11  -1  -8   37.50   11.70 
   1  11  -8   85.19   36.20 
  11  -1  -8   23.50   18.00 
 -11   1   8   25.50   28.90 
   1  11   8   55.09   14.80 
 -11   1   8   42.30   10.10 
  -1 -11   8   31.60    4.20 
  11  -1   8   51.39   15.40 
  -1 -11   8   31.20    9.00 
 -11   1   8   49.30    9.30 
   1  11   8   40.10    9.00 
   1  11   8   57.19   13.40 
  -1   0  -9    1.90    4.30 
   0   1  -9    8.10    2.30 
   1   0  -9    0.50    1.30 
  -1   0  -9    9.20    5.60 
   0  -1  -9    0.60    3.50 
   1   0  -9   -6.10    5.90 
  -1   0  -9   -0.90    6.50 
   0   1  -9    0.30    4.30 
  -1   0  -9    0.40    1.90 
   0   1  -9    0.30    1.50 
   0   1  -9    2.00    0.90 
   1   0  -9   -1.90    1.20 
   0  -1  -9    7.30    6.20 
   0  -1  -9  -21.00    7.20 
   0   1  -9  -13.10    7.90 
  -1   0   9    0.80    0.90 
  -2  -1  -9 1975.90  136.79 
  -1   2  -9 1882.21  135.49 
   2   1  -9 1940.31  143.19 
  -1   2  -9 2045.80  135.19 
   2   1  -9 2253.67  139.39 
  -2  -1  -9 1995.90  134.49 
   2   1  -9 2041.00  141.39 
  -1   2  -9 1934.51  134.79 
  -1   2  -9 2004.30  134.39 
   1  -2  -9 2367.16  144.49 
  -2  -1  -9 1992.30  136.09 
   1  -2  -9 2152.68  151.58 
   2   1  -9 1846.12  138.59 
   2   1  -9 1961.50  136.19 
  -1   2  -9 2069.09  146.39 
   2   1  -9 2076.89  135.29 
   1  -2  -9 1875.91  138.09 
  -2  -1   9 1903.61  138.59 
  -2  -1   9 2177.68  146.19 
  -2  -1   9 1932.11  135.39 
  -2   1  -9 2028.90  132.19 
  -1  -2  -9 1675.43  133.69 
   1   2  -9 1813.72  132.99 
   1   2  -9 1900.91  133.39 
  -1  -2  -9 2087.99  134.29 
  -2   1  -9 1998.80  131.89 
   1   2  -9 1975.70  132.79 
   1   2  -9 1989.00  131.79 
   2  -1  -9 1958.80  133.39 
   2  -1  -9 2224.08  133.99 
  -1  -2  -9 2017.00  131.49 
   1   2  -9 2155.98  145.69 
  -2   1  -9 1827.32  132.19 
  -1  -2  -9 2043.90  137.49 
  -2   1  -9 1910.81  131.59 
   1   2  -9 1904.51  140.99 
   2  -1  -9 1917.81  137.49 
   1   2  -9 1899.41  133.19 
  -2   1   9 2044.20  132.69 
   2  -1   9 1952.10  131.09 
   1   2   9 2032.10  130.99 
   1   2   9 1996.30  130.89 
  -1  -2   9 1889.91  137.79 
  -2   3  -9  140.29   10.40 
   3   2  -9  123.59   11.30 
   3   2  -9  150.48   12.40 
  -3  -2  -9   73.19   39.00 
  -3  -2  -9  121.09   12.00 
  -3  -2  -9  120.49   13.40 
   2  -3  -9  246.58   39.60 
  -3  -2  -9  137.09   10.70 
  -3  -2  -9  138.79   12.30 
   3   2  -9  132.29   19.00 
   2  -3  -9  150.38   14.60 
   3   2  -9  127.29   16.40 
  -2   3  -9  129.79    9.40 
   3   2  -9  137.69   13.90 
  -2   3  -9  139.09   10.10 
   3   2  -9  122.39   12.90 
   2  -3  -9  139.99   11.40 
  -2   3  -9  131.09   13.20 
   3   2   9  139.19   11.70 
  -3  -2   9  120.69   12.70 
  -3  -2   9  153.08   21.80 
   3   2   9  130.39   11.40 
  -3  -2   9  126.69   14.20 
  -3   0  -9    4.30    2.30 
   0  -3  -9    3.60    8.80 
   0  -3  -9    1.50    2.60 
   3   0  -9    2.00    3.20 
   3   0  -9    1.30    3.00 
   0   3  -9    0.60    2.50 
  -3   0  -9  -24.80   12.90 
   0   3  -9    0.20    4.50 
   0   3  -9   -3.60    3.00 
   0   3  -9    0.90    1.60 
  -3   0  -9    0.90    1.20 
   0  -3  -9    0.40    4.20 
   3   0  -9    0.50    5.70 
   0  -3  -9    1.30   10.40 
   0   3  -9   -0.10    2.10 
   3   0  -9   -1.20    2.00 
  -3   0  -9   -0.90    1.80 
   0   3  -9    2.60    6.20 
   0   3  -9   -1.00    8.80 
   3   0  -9   22.00    9.50 
   0   3   9    1.20    1.40 
  -3   0   9   -0.60    2.10 
   0   3   9    3.10    1.70 
   3   0   9   -3.50    1.80 
   0  -3   9   -1.90    7.00 
  -3   0   9   -1.80    6.30 
   3   0   9   -1.80    1.80 
   2   3  -9  127.39   12.20 
  -2  -3  -9  180.28   36.30 
  -2  -3  -9  136.59   12.90 
   3  -2  -9  126.49   14.70 
  -3   2  -9   97.19   12.90 
   2   3  -9  136.89   13.40 
   3  -2  -9  152.78   16.60 
  -3   2  -9  121.09   14.70 
   2   3  -9  135.89    9.60 
  -2  -3  -9  131.39   12.50 
  -3   2  -9  134.89   10.70 
  -2  -3  -9  143.09   18.70 
   2   3  -9  119.19   19.60 
   2   3  -9  120.49   18.80 
   2   3  -9  126.89   11.20 
  -2  -3  -9  132.69   12.00 
   3  -2  -9  140.39   16.70 
  -2  -3  -9  127.69   13.50 
  -2  -3   9  116.39   14.80 
  -2  -3   9  117.19   15.00 
  -2  -3   9  107.39   20.40 
   3  -2   9  124.09   10.10 
   2   3   9  123.89   10.60 
   2   3   9  127.19   10.00 
  -3   2   9  163.98   14.60 
  -4  -3  -9   69.69   33.00 
   3  -4  -9   49.00   12.00 
  -4  -3  -9   50.19    8.40 
  -4  -3  -9   74.59   11.30 
   4   3  -9   66.99    7.30 
  -3   4  -9   51.09   12.40 
  -3   4  -9   35.70    9.20 
  -3   4  -9   81.39    7.40 
   4   3  -9   66.49    8.00 
   4   3  -9   59.09   13.20 
  -4  -3  -9   59.89    7.10 
   4   3  -9   77.29   18.00 
   4   3  -9   68.19   10.20 
   3  -4  -9  147.19   27.50 
   3  -4   9   76.89    8.50 
   4   3   9   73.79    8.20 
  -4  -3   9   57.19    6.50 
  -4  -3   9   87.39   11.10 
   4   3   9   68.39    7.50 
  -4  -3   9   54.79   10.90 
  -4  -3   9   56.39    8.50 
   3  -4   9   70.89    5.90 
  -3   4   9  105.69   14.90 
   4   1  -9  676.73   56.59 
  -1   4  -9  616.54   50.89 
  -4  -1  -9  673.53   46.00 
  -1   4  -9  762.22   61.99 
   4   1  -9  583.14   48.80 
   4   1  -9  674.93   47.10 
   1  -4  -9  655.33   49.70 
  -1   4  -9  689.23   45.40 
  -4  -1  -9  697.33   47.10 
   4   1  -9  628.24   50.69 
   4   1  -9  650.83   49.00 
  -1   4  -9  595.64   56.09 
  -1   4  -9  638.44   48.20 
   1  -4  -9  636.64   48.50 
   1  -4  -9  629.64   64.29 
  -4  -1  -9  666.83   46.30 
  -4  -1  -9  572.74   53.49 
  -4  -1  -9  482.35   89.99 
   4   1  -9  690.13   49.50 
  -1   4   9  644.14   46.20 
  -4  -1   9  649.64   47.60 
  -4  -1   9  724.83   48.60 
   1  -4   9  656.63   57.99 
   4   1   9  744.23   48.10 
   4   1   9  669.73   46.00 
   1   4  -9  697.23   47.90 
   4  -1  -9  641.94   48.90 
  -1  -4  -9  711.93   47.40 
  -4   1  -9  695.43   47.40 
   4  -1  -9  707.53   55.69 
   1   4  -9  679.53   47.20 
   1   4  -9  648.54   62.69 
   4  -1  -9  628.84   50.79 
  -1  -4  -9  688.63   48.70 
  -1  -4  -9  742.43   51.39 
  -4   1  -9  691.73   48.10 
  -1  -4  -9  619.34   52.39 
  -1  -4  -9  637.54   52.99 
   1   4  -9  700.83   51.39 
  -1  -4  -9  632.94   51.39 
   1   4  -9  643.14   49.70 
   1   4  -9  642.54   58.89 
   4  -1   9  619.94   46.40 
  -1  -4   9  617.34   56.29 
   1   4   9  646.64   47.30 
   1   4   9  698.73   46.60 
   4  -1   9  670.43   48.90 
  -4   1   9  666.73   50.29 
  -4   1   9  804.12   55.29 
   4  -3  -9  100.09   16.90 
  -3  -4  -9   47.30   15.30 
   3   4  -9   63.99   17.60 
  -4   3  -9   54.19   16.50 
  -3  -4  -9   81.49   10.90 
  -4   3  -9   22.00   15.60 
   3   4  -9   69.89   16.50 
   3   4  -9   67.29    8.00 
  -4   3  -9   67.59    7.50 
  -3  -4  -9   77.09   20.90 
   3   4  -9   60.39    9.80 
   4  -3  -9  120.99   19.00 
   3   4  -9   65.39    8.80 
   3   4  -9   73.09    5.90 
  -3  -4  -9   80.69   10.40 
  -3  -4   9   62.89    8.70 
   3   4   9   60.39    6.60 
   4  -3   9   58.09    6.60 
  -4   3   9   87.49   12.20 
  -3  -4   9   90.19   11.80 
  -4   3   9   78.69   13.10 
  -3  -4   9   60.59   12.90 
   4  -3   9   67.79    9.00 
   3   4   9   63.09    7.60 
  -4   3   9  102.29   13.10 
   3   4   9   74.99    8.60 
  -5  -4  -9  496.05   38.90 
  -4   5  -9  577.54   57.69 
  -5  -4  -9  448.36   40.80 
   5   4  -9  471.55   45.30 
   5   4  -9  520.85   42.20 
  -4   5  -9  443.16   57.09 
  -5  -4  -9  525.35   39.10 
  -5  -4  -9  560.94   64.59 
   5   4  -9  537.55   53.29 
   5   4  -9  539.45   36.60 
   4  -5  -9  445.36   44.30 
  -5  -4  -9  513.05   37.80 
  -4   5  -9  558.14   37.90 
   5   4  -9  490.95   38.20 
  -5  -4   9  445.46   41.20 
  -5  -4   9  460.55   41.80 
  -5  -4   9  502.65   36.10 
  -5  -4   9  596.14   43.10 
   4  -5   9  593.94   40.70 
   5   4   9  523.45   38.50 
   4  -5   9  496.25   35.50 
   2  -5  -9 1525.45   97.49 
  -2   5  -9 1363.66   98.99 
   5   2  -9 1341.07   96.79 
  -5  -2  -9 1422.96   96.89 
  -5  -2  -9 1316.37  101.89 
   5   2  -9 1382.66   99.89 
   2  -5  -9 1448.96  122.19 
  -5  -2  -9 1402.66   96.19 
   2  -5  -9 1304.57  124.99 
  -2   5  -9 1430.76   93.59 
   5   2  -9 1418.66   96.69 
  -2   5  -9 1298.97  112.89 
   5   2  -9 1427.26  109.69 
   5   2  -9 1439.86  100.19 
   2  -5  -9 1446.06  102.59 
  -5  -2  -9 1370.86   95.99 
   5   2   9 1433.46   95.39 
   5   2   9 1497.35   97.59 
  -5  -2   9 1431.46   95.59 
  -5  -2   9 1260.97   97.59 
   2  -5   9 1330.07   93.19 
   2  -5   9 1397.66   96.69 
  -5  -2   9 1502.15   98.99 
  -5   0  -9    2.70    2.80 
   0   5  -9  -11.60   11.80 
   0   5  -9   -2.00    6.00 
   5   0  -9    2.80    6.90 
   0   5  -9    0.80    4.60 
  -5   0  -9    0.70    2.10 
   5   0  -9    0.10    8.50 
   0  -5  -9   -1.20    9.20 
   0   5  -9    4.00    8.40 
   0   5  -9    2.60    4.60 
   5   0  -9   -4.20    2.80 
   0  -5  -9   37.50   13.90 
  -5   0  -9   -3.40   20.10 
   0  -5  -9    5.60    6.40 
   0   5  -9    0.40    2.80 
   5   0  -9    0.30    4.60 
   0  -5  -9    7.20    5.70 
   0   5  -9    4.00    2.60 
  -5   0  -9    3.00    3.30 
   5   0   9   -1.80    3.50 
   5   0   9    4.00    2.50 
  -5   0   9    2.30    4.40 
   0   5   9    3.30    2.20 
  -5   0   9    1.10    7.50 
   0   5   9    2.10    3.20 
  -5   0   9    4.70    2.80 
  -5   0   9   -6.80    4.10 
   5   0   9   -0.60    2.60 
  -2  -5  -9 1428.36  101.69 
  -2  -5  -9 1366.06  101.09 
   2   5  -9 1397.46   97.09 
  -5   2  -9 1197.08  117.29 
  -2  -5  -9 1331.67  104.79 
   2   5  -9 1365.56  101.59 
   5  -2  -9 1601.44  100.29 
  -5   2  -9 1486.95   97.19 
  -2  -5  -9 1331.07  100.99 
   2   5  -9 1310.47  112.39 
  -2  -5  -9 1418.76  100.49 
  -2  -5  -9 1400.86  100.49 
   2   5  -9 1385.06   97.89 
   5  -2  -9 1662.93  105.19 
   2   5  -9 1379.16   99.99 
  -5   2  -9 1235.68   99.19 
   2   5  -9 1352.36  111.69 
   5  -2   9 1379.06  100.19 
  -5   2   9 1521.95  103.09 
   2   5   9 1426.76   97.69 
  -2  -5   9 1483.35   96.99 
   2   5   9 1433.06   96.39 
  -5   2   9 1595.24  103.99 
  -4  -5  -9  472.35   41.00 
   4   5  -9  519.85   35.60 
  -4  -5  -9  496.25   39.70 
   4   5  -9  497.75   49.30 
  -4  -5  -9  466.95   39.70 
  -4  -5  -9  517.45   49.30 
  -5   4  -9  538.75   37.70 
   4   5  -9  469.85   51.99 
   4   5  -9  522.25   42.20 
  -5   4  -9  398.56   53.89 
   4   5  -9  513.35   38.70 
  -4  -5   9  547.15   38.20 
  -4  -5   9  591.54   43.60 
  -5   4   9  611.94   42.10 
  -4  -5   9  483.35   35.50 
   4   5   9  522.85   38.50 
   5  -4   9  509.15   36.90 
   5  -4   9  549.85   41.70 
   5  -4   9  492.95   36.20 
  -4  -5   9  482.05   39.80 
   6   5  -9  136.79   31.50 
  -5   6  -9  224.28   35.70 
  -5   6  -9  174.08   16.50 
  -5   6  -9  148.29   34.50 
   6   5  -9  155.28   15.70 
  -5   6  -9   85.69   21.40 
  -6  -5  -9  155.08   16.00 
   6   5  -9  114.49   20.40 
   6   5  -9  163.28   19.50 
   6   5  -9  148.69   14.40 
  -6  -5  -9  154.58   16.10 
   5  -6  -9  195.48   25.80 
   6   5   9  130.49   14.00 
   5  -6   9  149.19   12.50 
  -6  -5   9  162.48   18.10 
   5  -6   9  140.49   14.60 
   6   5   9  151.38   15.60 
   5  -6   9  137.09   18.00 
   6   5   9  116.89   14.30 
  -6  -5   9  151.78   12.80 
   3  -6  -9   -6.90   27.90 
   3  -6  -9   53.49   26.90 
   6   3  -9    7.00    4.70 
  -3   6  -9   -1.70    7.60 
  -6  -3  -9    1.20    4.20 
   3  -6  -9   -2.10    8.40 
  -3   6  -9   -1.20    7.40 
  -6  -3  -9    8.10    4.00 
  -3   6  -9   31.70   20.60 
   3  -6  -9    5.50    5.10 
   6   3  -9    6.30    4.10 
  -3   6  -9    1.90   16.40 
   6   3  -9   13.10    7.40 
   6   3  -9    3.20    6.30 
  -6  -3  -9   21.00    5.70 
   6   3  -9    9.20   10.10 
  -6  -3   9    2.70    3.10 
   3  -6   9    7.80    4.90 
   3  -6   9    8.80    2.30 
  -6  -3   9    3.80    6.60 
  -3   6   9    7.70    5.00 
  -3   6   9    8.10    6.00 
   6   3   9    5.80    1.90 
  -3   6   9   10.70    4.40 
   6   3   9    6.10    4.40 
   6   3   9    6.80    4.40 
   1  -6  -9  207.58   20.80 
  -6  -1  -9  199.48   16.40 
   1  -6  -9  272.97   41.30 
   1  -6  -9  185.48   22.60 
  -1   6  -9  176.08   40.50 
  -6  -1  -9  219.98   17.90 
  -1   6  -9  163.78   33.80 
   6   1  -9  204.78   18.00 
  -1   6  -9  213.38   15.40 
   6   1  -9  206.78   21.70 
  -6  -1  -9  213.88   34.50 
  -1   6  -9  163.68   20.50 
  -6  -1  -9  202.38   17.50 
  -1   6  -9  194.18   18.80 
  -1   6  -9  201.28   30.90 
   6   1  -9  226.58   29.00 
  -6  -1   9  195.08   20.80 
   1  -6   9  207.48   15.40 
  -6  -1   9  178.58   17.30 
  -1   6   9  169.68   17.40 
   6   1   9  135.49   25.10 
  -6  -1   9  221.28   18.50 
   6   1   9  177.68   15.60 
  -1   6   9  239.08   16.80 
   1   6  -9  193.58   30.30 
   1   6  -9  185.98   22.60 
  -1  -6  -9  178.28   23.70 
  -1  -6  -9  208.08   23.60 
  -6   1  -9  197.48   14.50 
  -6   1  -9  254.07   55.99 
  -1  -6  -9  226.88   24.10 
   1   6  -9  181.58   19.90 
   6  -1  -9  194.88   18.40 
  -1  -6  -9  189.58   21.50 
   1   6  -9  145.59   33.70 
  -6   1  -9  198.38   18.90 
   1   6  -9  201.78   17.90 
   1   6  -9  186.18   16.00 
   6  -1  -9  230.68   22.70 
  -1  -6  -9  190.68   20.30 
   1   6   9  175.78   14.50 
  -6   1   9  220.18   25.20 
   6  -1   9  182.68   26.00 
   6  -1   9  191.28   14.20 
  -1  -6   9  197.58   15.90 
  -6   1   9  180.58   21.80 
   1   6   9  195.98   15.90 
   3   6  -9   -1.60   11.10 
  -6   3  -9   -4.20   12.20 
  -3  -6  -9    9.70    7.40 
   6  -3  -9    8.60    6.60 
   3   6  -9   10.10   12.80 
   3   6  -9   -0.60    5.30 
   6  -3  -9    2.80   12.40 
   6  -3  -9   -1.70   10.20 
  -6   3  -9   10.40    4.20 
  -3  -6  -9    2.60    5.50 
  -3  -6  -9   13.80    5.90 
   3   6  -9    4.20    3.80 
   3   6  -9    6.50    6.30 
  -6   3  -9   12.10    7.00 
   6  -3   9    0.40    3.60 
  -6   3   9    4.50    8.80 
   6  -3   9    7.70    3.50 
  -6   3   9   12.90    7.90 
  -6   3   9   14.60    6.30 
   3   6   9    0.60    3.70 
  -3  -6   9    3.00   10.00 
   3   6   9    8.40    3.80 
  -6   3   9    6.80    7.60 
  -3  -6   9    4.20    3.30 
   3   6   9    9.90    3.10 
   6  -3   9    6.90    7.30 
   3   6   9    6.00    2.90 
   5   6  -9  139.39   27.20 
  -5  -6  -9  166.78   17.10 
  -6   5  -9  149.88   14.50 
   5   6  -9  147.59   19.30 
   5   6  -9  149.88   12.50 
   5   6  -9  122.99   29.20 
  -5  -6  -9  149.29   29.30 
  -6   5  -9  104.69   27.70 
   5   6  -9  125.99   15.00 
  -5  -6  -9  130.99   16.30 
  -6   5  -9  145.09   34.00 
   6  -5   9  120.99   13.00 
   6  -5   9  162.48   14.90 
  -5  -6   9  156.28   14.70 
   5   6   9  127.09   14.20 
   6  -5   9  156.18   20.30 
  -5  -6   9  156.48   17.00 
  -5  -6   9  149.99   12.10 
   5   6   9  150.88   12.80 
  -6   5   9  186.88   20.10 
   5   6   9  148.29   15.50 
   7   6  -9   20.20   10.20 
  -7  -6  -9   26.40    8.00 
  -7  -6  -9   33.40   10.20 
  -6   7  -9   32.70   24.90 
   7   6  -9   27.30    9.10 
   6  -7  -9   58.09   18.20 
   6  -7  -9   93.19   27.70 
  -6   7  -9   18.20   14.20 
  -6   7  -9   26.20   24.40 
   7   6  -9   21.50   14.30 
   7   6  -9   30.30    8.70 
   6  -7  -9  130.69   37.60 
  -7  -6   9   25.60   10.30 
   7   6   9   43.20    8.90 
   7   6   9   28.20    6.60 
   6  -7   9   29.60    6.70 
   6  -7   9   27.70    8.10 
  -7  -6   9   30.60    6.90 
   7   6   9   34.80    9.10 
  -6   7   9   44.90   12.30 
  -6   7   9   62.79   12.00 
  -6   7   9   43.70   10.20 
  -7  -6   9   36.90    8.10 
   6  -7   9   27.30   12.50 
   4  -7  -9  118.39   43.20 
   4  -7  -9   23.30   28.10 
  -7  -4  -9   55.79    9.80 
   7   4  -9   42.00   11.60 
   4  -7  -9   32.80   14.80 
   7   4  -9   54.59   13.40 
   4  -7  -9   85.39   14.20 
  -7  -4  -9   33.20    8.20 
  -4   7  -9   18.20   15.90 
   7   4  -9   36.20   17.90 
  -4   7  -9   49.99   25.90 
  -4   7  -9   52.19   22.70 
   7   4  -9   38.30    8.30 
  -7  -4   9   47.20    7.00 
   4  -7   9   40.00    9.90 
   4  -7   9   44.30    5.70 
  -4   7   9   75.49   11.80 
  -4   7   9   58.39    9.50 
   7   4   9   44.40    6.70 
   7   4   9   38.30    8.60 
   7   4   9   42.80    8.40 
  -7  -4   9   39.80   10.90 
  -4   7   9   59.09   11.60 
  -2   7  -9  155.28   19.10 
   2  -7  -9  139.69   47.70 
   7   2  -9  184.98   21.60 
  -2   7  -9  165.88   21.90 
   7   2  -9  195.78   29.60 
   2  -7  -9  103.49   31.10 
  -2   7  -9  181.88   14.60 
  -7  -2  -9  181.98   17.30 
   7   2  -9  198.78   17.70 
  -2   7  -9  166.08   36.50 
   2  -7  -9  205.08   20.40 
  -7  -2  -9  208.68   16.70 
  -2   7  -9  149.29   38.60 
  -2   7  -9  170.18   33.70 
  -7  -2   9  192.78   16.10 
  -2   7   9  203.88   18.00 
  -7  -2   9  187.68   18.70 
   2  -7   9  194.28   14.30 
  -7  -2   9  150.08   22.50 
   7   2   9  196.78   19.20 
   7   2   9  185.58   15.50 
  -2   7   9  143.89   15.60 
  -7  -2   9  241.58   25.10 
   7   2   9  190.18   15.90 
   7   0  -9    0.20    4.20 
  -7   0  -9    3.50    5.00 
   7   0  -9   -1.90    9.70 
   0  -7  -9   -5.90    8.60 
   0   7  -9    2.90    3.60 
  -7   0  -9    4.60    3.20 
   0   7  -9    2.50   17.40 
   0   7  -9   11.20   13.20 
   0  -7  -9    2.60   13.00 
   0   7  -9    0.60    6.20 
  -7   0  -9    0.80    4.00 
   0   7  -9   -6.00    8.90 
   7   0  -9   -4.30    6.50 
   0  -7  -9    8.10    9.00 
   0   7  -9    0.60    4.20 
  -7   0   9   -0.60    3.50 
   0   7   9    1.90    5.00 
   0  -7   9   -0.80    2.90 
   7   0   9   -0.80    5.00 
   0   7   9   -0.50    2.70 
   7   0   9    3.90    3.00 
  -7   0   9   -0.60    3.30 
   0   7   9   -1.20    4.20 
   0   7   9    4.50    4.20 
   7   0   9   -0.10    2.80 
   2   7  -9  186.28   18.00 
  -2  -7  -9  177.48   23.80 
   2   7  -9  177.18   31.40 
  -7   2  -9  170.68   20.40 
   7  -2  -9  145.59   17.90 
   2   7  -9  109.29   32.00 
   7  -2  -9  234.38   25.70 
  -7   2  -9  183.78   16.80 
  -2  -7  -9  185.18   21.80 
   2   7  -9  187.08   20.50 
  -2  -7  -9  182.68   21.50 
   2   7  -9  182.78   23.60 
   2   7   9  196.48   18.80 
   7  -2   9  180.98   13.30 
   7  -2   9  244.28   23.10 
   2   7   9  173.58   15.70 
  -2  -7   9  180.88   16.00 
   2   7   9  181.68   15.90 
   7  -2   9  194.68   15.90 
  -2  -7   9  204.18   24.90 
  -7   4  -9   26.40   18.30 
  -7   4  -9   47.50    8.40 
   4   7  -9   46.20   12.10 
  -4  -7  -9   26.40    9.00 
  -4  -7  -9   36.60   10.00 
   7  -4  -9   91.79   22.60 
   7  -4  -9  106.19   26.20 
  -4  -7  -9   53.29   13.10 
   4   7  -9   57.89   13.10 
   4   7  -9   54.79   20.80 
   4   7  -9   37.80    8.40 
   7  -4  -9   82.19   14.60 
   4   7  -9   49.90   21.30 
   4   7   9   48.80    7.60 
  -7   4   9   60.49   14.00 
  -7   4   9   57.59   14.50 
   4   7   9   46.10    8.70 
   7  -4   9   49.99   13.90 
  -4  -7   9   50.69    8.10 
   4   7   9   34.80    6.60 
   4   7   9   42.10    8.70 
   7  -4   9   48.30    8.70 
  -7   4   9   55.29   11.30 
  -4  -7   9   49.10    5.20 
   6   7  -9   28.40    8.60 
   7  -6  -9   75.19   21.30 
   7  -6  -9  101.59   28.50 
   7  -6  -9   51.79   16.60 
   6   7  -9   29.30    6.70 
  -7   6  -9   25.60    7.70 
  -6  -7  -9   22.80    9.10 
  -7   6  -9   11.90   14.20 
  -7   6  -9   40.30   21.10 
   6   7  -9   25.90   15.20 
   6   7  -9   17.30   10.90 
  -7   6   9   60.69   13.30 
  -6  -7   9   26.80    5.50 
   6   7   9   27.10    6.60 
  -7   6   9   23.60   15.90 
   7  -6   9   25.30    8.40 
   6   7   9   25.20    8.00 
  -6  -7   9   25.40    7.30 
   7  -6   9   38.20   14.90 
  -7   6   9   57.59   12.10 
   6   7   9   34.70    8.50 
  -6  -7   9   40.60   11.00 
  -8  -7  -9   15.50    9.40 
  -7   8  -9   53.69   22.30 
   7  -8  -9  138.99   29.80 
   8   7  -9   39.80   15.20 
   8   7  -9   38.70   10.60 
   8   7  -9   38.30   16.70 
   7  -8  -9  110.79   37.80 
  -7   8  -9   59.89   28.60 
   8   7  -9   25.20   24.60 
   7  -8  -9   34.80   21.80 
  -8  -7  -9   26.80   10.00 
  -8  -7   9   38.80    9.60 
  -8  -7   9   40.20    7.60 
  -7   8   9   68.39   14.00 
   7  -8   9   42.30   11.40 
  -8  -7   9   30.30   15.40 
  -7   8   9   47.40   12.00 
   8   7   9   29.40   10.20 
   8   5  -9  331.27   35.40 
   8   5  -9  325.17   29.00 
  -8  -5  -9  319.27   29.20 
   5  -8  -9  280.87   40.10 
  -8  -5  -9  331.27   28.90 
   8   5  -9  390.96   50.89 
   8   5  -9  384.36   36.90 
  -5   8  -9  309.87   36.90 
  -8  -5  -9  357.76   30.10 
  -5   8  -9  405.56   51.49 
   5  -8   9  327.47   29.20 
   8   5   9  325.57   26.20 
   5  -8   9  272.27   28.60 
   8   5   9  299.77   29.70 
  -8  -5   9  317.17   34.10 
   5  -8   9  363.76   35.00 
   8   5   9  356.86   29.80 
  -8  -5   9  351.66   26.30 
  -3   8  -9    6.20   18.90 
   3  -8  -9   36.00   36.20 
  -3   8  -9   46.00   26.80 
  -8  -3  -9   26.10    8.10 
  -3   8  -9   37.00   25.40 
   3  -8  -9   38.30   15.70 
   3  -8  -9   -0.70   29.60 
   3  -8  -9   46.00   11.60 
  -8  -3  -9   21.40    6.60 
   8   3  -9   50.49   19.30 
   8   3  -9   30.80    7.80 
   8   3  -9   36.50   12.50 
  -8  -3  -9   28.80    7.90 
  -3   8   9   59.49   10.00 
   8   3   9   33.60    8.90 
  -8  -3   9   35.20    6.40 
  -8  -3   9   37.50   12.60 
   8   3   9   42.30    8.70 
  -3   8   9   33.90    7.20 
   3  -8   9   37.90    4.60 
   3  -8   9   36.50    4.70 
   8   3   9   32.40    6.10 
   8   1  -9  459.65   39.50 
   1  -8  -9  377.86   50.49 
  -1   8  -9  412.26   35.40 
  -8  -1  -9  386.36   32.40 
  -1   8  -9  477.05   63.29 
   1  -8  -9  358.16   57.69 
  -1   8  -9  403.26   57.09 
  -1   8  -9  410.06   30.20 
   8   1  -9  545.45   52.59 
  -1   8  -9  388.06   48.30 
  -8  -1  -9  399.06   30.80 
   1  -8  -9  454.05   38.30 
   8   1  -9  402.26   33.40 
  -1   8  -9  311.87   38.20 
   8   1   9  412.96   30.60 
  -8  -1   9  397.76   32.70 
  -1   8   9  389.26   32.60 
  -1   8   9  355.76   31.00 
   8   1   9  421.16   31.80 
  -8  -1   9  406.06   39.40 
  -8  -1   9  415.36   31.50 
   1  -8   9  448.96   30.20 
  -1   8   9  385.96   37.20 
   8   1   9  440.46   35.60 
  -1  -8  -9  370.66   41.10 
   1   8  -9  431.96   38.00 
  -1  -8  -9  461.75   42.00 
  -8   1  -9  425.06   33.10 
   1   8  -9  354.36   55.89 
   1   8  -9  407.86   42.50 
   8  -1  -9  452.25   40.50 
  -1  -8  -9  427.06   45.70 
   1   8  -9  416.16   54.49 
   8  -1  -9  374.46   34.00 
   1   8  -9  406.56   34.90 
  -8   1   9  425.66   32.50 
   8  -1   9  430.46   32.50 
   1   8   9  399.06   31.90 
   1   8   9  398.06   32.60 
   8  -1   9  409.36   30.00 
  -8   1   9  443.16   30.00 
  -8   1   9  413.36   42.30 
   8  -1   9  457.65   36.70 
   1   8   9  432.06   36.40 
  -1  -8   9  436.16   31.70 
  -8   3  -9   23.20   11.80 
   8  -3  -9   46.70   11.10 
   3   8  -9   87.69   27.80 
  -8   3  -9    8.10   16.20 
   3   8  -9   31.80    8.40 
   8  -3  -9   84.19   25.60 
   8  -3  -9   72.49   19.70 
  -8   3  -9   42.50    8.30 
  -3  -8  -9   34.50   11.90 
   3   8  -9   19.80   11.80 
  -3  -8  -9   46.70   11.90 
   3   8  -9    7.30   17.10 
   8  -3   9   39.50    8.20 
  -3  -8   9   39.90    7.40 
   8  -3   9   51.69   13.80 
  -8   3   9   44.80   10.50 
   3   8   9   41.80    8.90 
   3   8   9   42.60    7.50 
  -8   3   9   28.00   14.80 
   3   8   9   25.80    8.10 
   3   8   9   31.20    6.60 
   5   8  -9  317.07   45.00 
  -5  -8  -9  306.67   29.90 
  -5  -8  -9  335.17   37.90 
   5   8  -9  312.67   55.29 
   5   8  -9  309.87   29.20 
  -5  -8  -9  292.07   30.80 
   5   8  -9  300.97   33.70 
  -8   5  -9  335.07   27.50 
   5   8  -9  278.27   30.40 
  -8   5  -9  277.27   58.79 
  -5  -8   9  332.77   27.50 
  -5  -8   9  341.77   24.10 
   8  -5   9  361.86   29.50 
   5   8   9  329.47   26.50 
   5   8   9  388.66   29.60 
   5   8   9  328.17   26.30 
   5   8   9  313.57   29.70 
   8  -7  -9   78.49   22.00 
   7   8  -9   30.30   13.20 
  -7  -8  -9   26.00    9.90 
  -8   7  -9   47.30   11.40 
   7   8  -9   32.70    9.90 
  -8   7  -9   24.30   20.50 
  -8   7  -9   53.29   25.90 
   8  -7  -9  123.69   36.40 
   7   8  -9   13.80   22.20 
   7   8  -9   26.60   17.60 
  -7  -8  -9   35.20   11.60 
  -8   7   9   55.79   14.30 
  -7  -8   9   33.70    7.60 
  -7  -8   9   28.60    8.40 
   8  -7   9   34.20   11.10 
  -7  -8   9   39.50   14.30 
  -8   7   9   53.19   13.00 
   7   8   9   38.60   10.50 
   6  -9  -9   20.90   26.90 
   9   6  -9   21.20   13.00 
   9   6  -9   14.80    8.90 
  -9  -6  -9    0.60    8.70 
  -6   9  -9    9.30   18.80 
   6  -9  -9   40.00   39.80 
   6  -9  -9    6.50   20.80 
   9   6  -9    8.30   11.90 
  -6   9  -9   -2.30   18.30 
  -6   9  -9   54.09   32.80 
  -9  -6  -9   12.60    8.60 
   9   6  -9    5.30   21.40 
  -6   9   9   13.70    8.90 
   9   6   9    9.50   10.60 
  -9  -6   9    9.30    6.30 
  -9  -6   9   -6.20   14.60 
  -6   9   9    4.50    9.30 
   6  -9   9   17.40    9.60 
  -4   9  -9   84.49   40.20 
   4  -9  -9  109.39   56.69 
   9   4  -9   70.19   24.90 
  -9  -4  -9   61.09   11.50 
  -4   9  -9   33.80   14.30 
   4  -9  -9   28.00   20.50 
   4  -9  -9  118.59   46.90 
  -9  -4  -9   50.19   10.20 
  -4   9  -9   20.00   22.90 
   9   4  -9   51.19   16.40 
  -4   9  -9   68.79   28.80 
   4  -9   9   66.69    8.20 
  -9  -4   9   50.69    8.50 
  -4   9   9   61.29   12.90 
   4  -9   9   57.09   14.20 
  -4   9   9   79.69   12.40 
  -9  -4   9   61.69   19.10 
   9   4   9   42.00    8.50 
   2  -9  -9  118.49   29.80 
  -9  -2  -9  142.79   15.20 
  -2   9  -9  114.09   18.70 
   9   2  -9  171.38   32.50 
   2  -9  -9    8.70   41.00 
  -2   9  -9  147.59   37.20 
  -9  -2  -9  106.49   12.90 
  -2   9  -9  133.29   40.40 
  -9  -2  -9  124.99   18.10 
   9   2  -9  122.29   15.50 
   2  -9  -9   13.70   33.50 
   9   2  -9  126.19   20.30 
  -2   9  -9  117.69   20.70 
  -2   9  -9  134.39   13.30 
   2  -9   9  128.59   11.60 
  -9  -2   9  142.09   24.10 
  -2   9   9  123.69   16.70 
  -2   9   9   88.09   12.30 
  -9  -2   9  118.09   12.40 
   9   2   9  127.19   13.00 
   9   2   9  119.39   17.20 
   9   2   9  129.39   15.90 
  -9  -2   9  117.79   18.30 
  -9   0  -9   -3.90    5.30 
   0   9  -9   -6.10   10.00 
   0   9  -9    3.50    7.80 
   0  -9  -9    1.40   16.00 
  -9   0  -9   -1.50    4.10 
   9   0  -9    3.00    6.10 
  -9   0  -9   -8.20    8.20 
   9   0  -9    7.30   16.60 
   0   9  -9    6.50   14.00 
   9   0  -9    5.40    8.50 
   0   9  -9    1.50   22.90 
   0   9  -9    9.00   19.50 
   0  -9  -9   -3.20   20.00 
   0  -9  -9   -9.20   13.70 
   0   9   9   -5.70    7.90 
   9   0   9    7.00    7.80 
   0  -9   9   -7.90    4.20 
  -9   0   9   -2.10    3.90 
  -9   0   9   -0.10    5.60 
   0   9   9    0.70    4.30 
   9   0   9    0.10    5.80 
   0   9   9    6.90    9.00 
  -9   0   9   -4.30   12.90 
   2   9  -9  101.69   34.20 
   2   9  -9  143.09   23.30 
  -9   2  -9  142.59   14.90 
   2   9  -9  132.29   17.20 
   9  -2  -9  185.78   26.50 
   2   9  -9  112.79   19.40 
  -9   2  -9   91.59   18.30 
  -9   2  -9   65.89   29.70 
   2   9  -9   87.69   33.70 
   9  -2  -9   90.89   15.60 
  -2  -9  -9  101.39   23.80 
  -2  -9  -9  119.69   25.40 
   9  -2   9  126.29   10.90 
   2   9   9  113.69   12.90 
   2   9   9  128.19   15.10 
  -2  -9   9  146.99   14.00 
  -9   2   9  162.98   29.60 
   2   9   9  143.09   18.60 
   4   9  -9   53.79   27.90 
   4   9  -9   47.60   13.10 
   9  -4  -9   91.39   17.40 
   4   9  -9   44.60   25.80 
  -4  -9  -9   55.39   14.20 
   4   9  -9   42.80   13.30 
  -4  -9  -9   53.69   12.00 
  -9   4  -9   58.49   10.70 
  -4  -9  -9   63.79   14.80 
   4   9  -9   48.10   18.80 
  -9   4  -9   53.59   24.90 
  -4  -9   9   47.30    6.70 
   9  -4   9   56.69   11.50 
  -9   4   9   78.79   20.50 
  -9   4   9   98.29   15.90 
   4   9   9   56.39    9.20 
  -4  -9   9   63.89   10.20 
   6   9  -9    3.90   25.80 
  -9   6  -9   23.60   20.00 
   6   9  -9    6.60   18.10 
   9  -6  -9   30.10   20.70 
  -6  -9  -9   15.10   10.20 
  -9   6  -9    8.00    8.20 
   6   9  -9   11.90    9.80 
   9  -6  -9    5.20   15.30 
   6   9  -9    7.90   11.10 
  -6  -9  -9    8.90    9.90 
   6   9   9   -0.80    8.40 
  -6  -9   9   13.00    5.10 
   6   9   9   10.80    6.10 
   9  -6   9   15.40    9.80 
  -9   6   9   17.30   13.40 
  -6  -9   9    8.10    7.60 
  -9   6   9    5.10   10.20 
  10   3  -9    6.60    9.70 
   3 -10  -9  -20.00   37.50 
   3 -10  -9  -58.49   43.50 
  -3  10  -9    6.70   29.50 
  10   3  -9    2.10   17.40 
 -10  -3  -9    4.80    6.80 
  -3  10  -9   -4.90   25.60 
 -10  -3  -9   -1.00    6.40 
  -3  10  -9    8.70   23.60 
  -3  10  -9   -2.40   11.00 
  10   3  -9   -6.30    7.30 
 -10  -3   9   -0.60    4.30 
   3 -10   9    3.60    3.70 
  -3  10   9   12.40    8.70 
  -3  10   9    5.90    8.70 
  10   3   9    9.60    9.10 
 -10  -3   9   32.70   16.70 
   3 -10   9    3.00    3.30 
  10   3   9    3.90   10.80 
   3 -10   9    6.30    4.50 
 -10  -1  -9    8.50    5.90 
 -10  -1  -9   14.10    7.60 
  -1  10  -9    8.60   12.30 
  10   1  -9   -6.40   16.90 
   1 -10  -9   11.30   25.70 
  10   1  -9    2.90   10.40 
  -1  10  -9   19.50   27.00 
   1 -10  -9   30.90   35.60 
  -1  10  -9   20.30   21.20 
  -1  10  -9   15.00   11.40 
  -1  10  -9   15.70   29.70 
  -1  10   9   16.90    5.90 
  -1  10   9   13.70    8.00 
   1 -10   9   12.70    5.80 
 -10  -1   9   11.80   10.20 
  10   1   9    7.20    8.30 
  -1  10   9    3.20    8.40 
 -10  -1   9   11.90    5.60 
 -10  -1   9   29.80   20.40 
  10  -1  -9   20.50   13.70 
   1  10  -9    6.40   11.60 
   1  10  -9   18.80   28.20 
  -1 -10  -9   -7.40   16.80 
  10  -1  -9   55.59   25.30 
   1  10  -9   18.90   10.40 
   1  10  -9   19.80   26.70 
  -1 -10  -9   20.00   22.10 
  -1 -10  -9   26.50   17.30 
   1  10  -9   27.50   18.50 
  10  -1  -9   10.80    8.70 
 -10   1  -9   22.10   20.40 
   1  10   9   12.30    5.90 
  -1 -10   9   23.40    7.00 
   1  10   9   20.60    8.50 
 -10   1   9   18.10    6.00 
 -10   1   9   23.00   20.40 
 -10   1   9   17.60    6.50 
  10  -1   9   13.10    8.50 
  10  -1   9    8.60    7.50 
   1  10   9    4.50    9.40 
  -3 -10  -9   10.00   14.10 
  -3 -10  -9   -0.20   13.30 
  10  -3  -9    6.10   14.40 
   3  10  -9    3.70   12.50 
   3  10  -9    1.40    8.70 
 -10   3  -9    0.40   19.10 
  10  -3  -9  -10.30    8.30 
 -10   3  -9    5.60    7.20 
   3  10  -9   34.70   27.40 
   3  10  -9  -29.30   23.00 
  10  -3  -9   16.80   24.00 
   3  10   9    1.30    8.70 
   3  10   9    1.00    8.10 
  10  -3   9   -0.10    7.90 
  10  -3   9    5.50    5.20 
 -10   3   9   15.90   19.00 
   3  10   9    3.40    5.50 
  -3 -10   9    9.90    6.10 
   0   0 -10  694.43   59.79 
   0   0 -10  711.23   49.10 
   0   0 -10  679.83   54.29 
   1   1 -10  147.19   13.20 
   1  -1 -10  167.08   12.80 
   1   1 -10  215.68   24.20 
   1   1 -10  173.08   14.10 
  -1   1 -10  163.68   13.20 
   1   1 -10  186.08   12.80 
  -1   1 -10  148.89   18.40 
   1   1 -10  176.48   20.80 
   1  -1 -10  163.18   17.70 
  -1  -1 -10  174.68   18.60 
   1   1 -10  118.49   15.70 
  -1  -1 -10  171.08   19.80 
  -1  -1 -10  184.28   15.10 
  -1   1 -10  185.78   21.40 
  -1   1  10  183.88   12.20 
   2   0 -10   38.70    5.60 
   0  -2 -10   56.19    8.50 
   2   0 -10   66.79   10.00 
   0   2 -10   38.50    4.40 
  -2   0 -10   50.49    7.30 
   0  -2 -10   63.59    9.30 
  -2   0 -10   43.20    5.10 
   0  -2 -10   38.90   14.70 
   0   2 -10   36.80   15.70 
   0   2 -10   43.60   11.90 
   0   2 -10   39.20    4.20 
   0  -2 -10   49.10    4.80 
   0   2 -10   52.99    7.20 
   0   2 -10   44.50    8.00 
   2   0 -10   42.20    5.60 
   2   0 -10   44.10   11.00 
  -2   0 -10   44.20    5.70 
   2   0 -10   32.30   10.10 
   0   2  10   42.10    3.50 
  -2   0  10   57.89   14.30 
  -2   0  10   46.50    5.00 
   0   2  10   51.39    4.00 
   2   2 -10   21.00    5.20 
  -2   2 -10   14.80    3.30 
  -2  -2 -10   31.20    6.80 
   2  -2 -10   16.30    3.90 
   2  -2 -10   30.00    6.80 
  -2   2 -10   22.70    3.40 
   2  -2 -10   33.30    6.30 
   2  -2 -10   11.30    4.50 
   2   2 -10   18.00    3.50 
  -2  -2 -10   21.90    4.00 
   2  -2 -10   20.70    6.70 
  -2   2 -10   26.00    5.30 
   2   2 -10   20.30    4.90 
  -2   2 -10   10.50   10.40 
  -2   2 -10   14.40    3.60 
  -2  -2 -10   12.80    4.20 
   2   2 -10    8.00    7.20 
   2   2 -10   17.10    5.60 
  -2  -2 -10   13.80    4.50 
   2   2 -10   14.40    7.90 
  -2  -2  10   21.20   11.80 
   2   2  10   18.00    2.90 
   2   2  10   20.70    2.20 
  -2   2  10   18.90    4.50 
  -2  -2  10   22.50    4.30 
  -2  -2  10   16.50    6.80 
  -1   3 -10   15.20    9.10 
   1  -3 -10   25.20    5.10 
   1  -3 -10   14.30    5.40 
   3   1 -10   13.20    5.80 
   1  -3 -10   16.50    5.00 
   3   1 -10   14.10    7.80 
  -1   3 -10   15.90    4.50 
  -1   3 -10   -3.30   11.40 
  -1   3 -10   25.70    3.60 
   1  -3 -10   11.30    4.90 
   3   1 -10   13.60    8.30 
   1  -3 -10   57.19   17.50 
  -3  -1 -10    9.50    2.30 
  -3  -1 -10    7.50    3.40 
  -1   3 -10   11.70    3.00 
   3   1 -10   12.60    3.40 
  -3  -1 -10    5.70    8.10 
   3   1 -10   17.30    8.00 
  -1   3 -10   11.20    2.10 
   3   1 -10    9.80    4.10 
  -3  -1 -10    8.50    3.50 
  -1   3 -10   15.10    9.70 
  -1   3 -10    3.60    3.50 
   1  -3  10   13.70   10.60 
  -3  -1  10   12.30    5.40 
  -3  -1  10   14.20    3.70 
  -3  -1  10   18.10   11.30 
  -1  -3 -10   12.60    7.50 
  -1  -3 -10    8.90    7.00 
   1   3 -10   13.60    8.60 
  -1  -3 -10   13.20    3.80 
   3  -1 -10   15.10    7.50 
   1   3 -10   11.40    1.40 
  -3   1 -10   14.00    2.80 
   3  -1 -10   14.30   10.70 
   1   3 -10    7.10    4.50 
  -3   1 -10    7.20    2.90 
  -1  -3 -10   14.20    4.90 
  -1  -3 -10    5.30    4.30 
  -1  -3 -10   44.40   26.80 
   1   3 -10   29.40   12.60 
  -3   1 -10   11.70    8.50 
   1   3 -10    3.00    3.30 
   1   3 -10    9.40    3.90 
   3  -1 -10   12.50    3.00 
  -1  -3 -10   13.60    6.10 
   3  -1 -10    9.70    3.70 
  -3   1 -10    3.40    8.60 
   1   3 -10   10.90    1.30 
  -3   1 -10   13.90    3.50 
   3  -1 -10   13.10    5.00 
   1   3 -10   10.70    2.90 
   3  -1  10    7.20    2.50 
   1   3  10   11.10    2.10 
  -3   1  10   12.00    3.80 
  -3   1  10   24.60    9.40 
   1   3  10    9.60    2.60 
  -3  -3 -10  149.39   14.90 
  -3   3 -10  156.28   12.70 
  -3  -3 -10  289.07   52.99 
  -3  -3 -10  146.79   22.20 
  -3   3 -10  153.68   17.10 
  -3  -3 -10  135.39   15.20 
   3   3 -10  151.48   15.70 
   3   3 -10  147.49   12.30 
  -3  -3 -10  154.18   14.90 
   3   3 -10  162.48   21.20 
   3   3 -10  142.29   15.50 
   3   3 -10  164.68   23.30 
   3  -3 -10  188.28   19.00 
   3   3  10  163.18   13.90 
   3  -3  10  162.38   13.20 
  -3  -3  10  161.88   14.60 
   3  -3  10  145.49   11.70 
  -3  -3  10  173.78   18.40 
   3   3  10  152.78   13.20 
  -4  -2 -10   43.30    7.40 
   4   2 -10   47.00    8.20 
  -4  -2 -10   50.09    7.40 
  -2   4 -10   50.69    4.00 
  -2   4 -10   21.10   13.70 
  -2   4 -10   49.70   16.20 
  -2   4 -10   30.00   18.20 
   2  -4 -10   29.30    8.00 
   2  -4 -10   46.20    6.90 
  -4  -2 -10   48.90    5.70 
  -4  -2 -10   35.10    9.80 
   2  -4 -10   46.30   21.20 
  -2   4 -10   52.79    9.60 
   4   2 -10   41.90   13.60 
  -4  -2 -10   32.60   48.20 
   4   2 -10   44.50    9.00 
   4   2 -10   49.70    7.00 
  -2   4 -10   49.30    5.70 
   4   2 -10   62.19   11.70 
   4   2  10   58.39    7.20 
   4   2  10   49.90    7.00 
  -4  -2  10   69.89    7.40 
  -4  -2  10   57.99    9.40 
  -4   0 -10   92.89    8.00 
   0   4 -10   99.19   27.30 
   0   4 -10  125.99   15.00 
   0   4 -10   75.09    8.50 
  -4   0 -10   80.49    8.50 
   0   4 -10   72.09   10.70 
   0   4 -10   81.19   19.40 
   0  -4 -10  111.69   11.20 
   4   0 -10   75.29    8.70 
   0   4 -10   82.49   10.30 
   0  -4 -10   77.99   11.80 
   4   0 -10   88.09   16.10 
   0  -4 -10   81.99   20.30 
   0  -4 -10   98.69   21.70 
   0   4 -10   81.59    7.90 
  -4   0 -10   92.09   27.70 
   4   0 -10   89.19   11.30 
   4   0 -10  110.79   19.20 
   0  -4 -10   81.59    7.60 
   4   0 -10   77.69    9.40 
  -4   0 -10   85.39    7.90 
   0   4  10   74.79    7.50 
   0   4  10   90.19    8.80 
  -4   0  10  103.29   16.90 
   4   0  10   68.39    7.70 
   4   0  10   74.49    8.70 
  -4   0  10   90.39    8.90 
  -4   0  10   90.19   10.30 
   4  -2 -10   74.79   10.10 
   2   4 -10   46.90    9.30 
  -4   2 -10   57.39    6.50 
  -2  -4 -10   53.39    9.70 
  -2  -4 -10   45.20   13.40 
  -4   2 -10   36.90    7.50 
  -2  -4 -10   42.70    7.60 
   2   4 -10   42.60    7.40 
   2   4 -10   54.49   16.10 
  -4   2 -10   65.59   18.00 
   2   4 -10   51.79   15.60 
   4  -2 -10   69.79   14.10 
  -4   2 -10   15.90   13.20 
  -2  -4 -10   46.10    8.80 
   4  -2 -10   64.79   11.80 
  -2  -4 -10   62.59   11.90 
   2   4 -10   41.70    8.50 
   4  -2  10   51.99    6.70 
  -4   2  10   34.80    7.90 
   2   4  10   49.00    5.20 
   4  -2  10   42.40    5.70 
   2   4  10   52.49    6.20 
  -2  -4  10   24.80    9.90 
  -4   2  10   68.29   13.20 
   4   4 -10  212.88   22.10 
  -4  -4 -10  180.38   38.50 
   4   4 -10  172.58   27.20 
  -4  -4 -10  173.28   18.80 
  -4  -4 -10  166.08   17.40 
  -4   4 -10  146.79   23.00 
   4   4 -10  180.28   14.20 
  -4  -4 -10  186.68   17.80 
   4   4 -10  178.68   23.40 
   4   4 -10  192.08   16.50 
  -4   4 -10  191.38   15.50 
  -4  -4  10  188.38   17.80 
   4  -4  10  193.28   16.90 
   4   4  10  177.38   16.00 
  -4  -4  10  225.48   19.20 
  -4  -4  10  167.08   19.60 
   4  -4  10  176.58   13.90 
   5   3 -10  150.08   25.30 
   5   3 -10  168.18   14.80 
   3  -5 -10  110.59   18.80 
  -5  -3 -10  168.08   15.70 
  -5  -3 -10  159.48   16.80 
  -3   5 -10  134.89   30.60 
  -3   5 -10  114.89   33.30 
  -5  -3 -10  205.68   59.99 
  -5  -3 -10  145.29   18.60 
  -3   5 -10  186.58   15.30 
   5   3 -10  162.68   17.90 
   5   3 -10  170.08   15.00 
  -5  -3 -10  156.18   14.20 
   3  -5 -10  172.48   36.00 
  -3   5 -10  114.89   27.30 
   5   3 -10  140.19   19.20 
  -5  -3  10  170.68   16.80 
   5   3  10  188.68   15.80 
   5   3  10  165.88   14.20 
  -5  -3  10  173.38   13.50 
   3  -5  10  169.18   15.10 
   5   1 -10    4.10    4.40 
  -1   5 -10    0.60    5.40 
  -1   5 -10   -0.10    9.10 
  -1   5 -10   -1.60   15.90 
   5   1 -10   -3.10    8.60 
  -1   5 -10    0.40    2.20 
  -5  -1 -10    5.20    3.30 
  -1   5 -10    6.20    5.50 
   5   1 -10    8.50    5.40 
  -5  -1 -10   -2.50    3.10 
  -5  -1 -10    3.40    2.50 
   1  -5 -10   -4.00   19.00 
   1  -5 -10   -9.00   17.50 
  -1   5 -10   16.00   12.60 
   1  -5 -10    7.40    6.30 
  -5  -1 -10   -5.20   13.00 
   5   1 -10    7.40    3.80 
   5   1 -10    9.00    8.90 
  -5  -1  10    2.20    4.40 
   5   1  10    4.90    4.00 
   5   1  10    3.20    3.20 
  -1   5  10    2.60    2.40 
  -5  -1  10    6.80    4.50 
  -5  -1  10   -2.10    3.60 
   1   5 -10    9.00    5.30 
  -1  -5 -10   -0.10    7.30 
   1   5 -10    6.30    6.00 
   5  -1 -10   -5.40    7.50 
  -5   1 -10    0.40    8.60 
  -5   1 -10    5.70    3.50 
  -1  -5 -10   11.80    7.00 
  -5   1 -10    5.70    2.20 
  -5   1 -10   -1.00    3.00 
   1   5 -10    0.80    3.40 
   5  -1 -10   11.70    5.00 
   1   5 -10    0.20    2.80 
  -1  -5 -10   -5.30    7.50 
  -1  -5 -10    1.00    5.10 
  -5   1 -10   22.80   34.70 
   1   5 -10   -2.10    4.80 
   1   5 -10   -8.00   12.20 
   1   5 -10   10.80   10.60 
   5  -1 -10   11.00    6.40 
  -5   1  10    0.60    5.30 
  -5   1  10    4.50    8.40 
   5  -1  10    3.00    3.90 
  -5   1  10    4.00    3.90 
  -5   1  10    1.60    3.80 
   1   5  10    2.80    3.00 
   5  -1  10    1.90    2.90 
   1   5  10    0.70    1.80 
   3   5 -10  154.38   25.10 
  -5   3 -10  149.29   14.50 
   3   5 -10  181.78   15.70 
   3   5 -10  146.69   24.70 
  -3  -5 -10  145.19   17.30 
   3   5 -10  158.98   18.10 
   5  -3 -10  224.08   26.40 
  -3  -5 -10  162.28   17.40 
  -5   3 -10  115.09   16.20 
  -3  -5 -10  171.48   17.90 
  -5   3 -10  151.08   32.40 
  -3  -5 -10  188.18   23.60 
  -5   3  10  199.58   20.80 
  -5   3  10  225.28   21.20 
   3   5  10  166.88   15.00 
   5  -3  10  169.88   14.50 
   5  -3  10  181.38   16.90 
   3   5  10  146.79   13.40 
  -5   5 -10    6.20   16.10 
   5   5 -10    4.70    4.40 
  -5   5 -10    4.40    8.40 
   5   5 -10  -11.00    8.70 
  -5  -5 -10    1.70    5.10 
   5   5 -10   -1.40    5.00 
  -5  -5 -10    1.30    4.70 
   5  -5 -10    2.80    8.50 
   5   5 -10   -3.70    3.40 
  -5  -5 -10   -2.60   19.30 
   5  -5 -10    2.20   15.70 
   5  -5 -10   -7.80    9.10 
   5   5 -10   -8.70    9.80 
  -5   5 -10    2.20    4.80 
  -5   5  10   11.80    6.60 
   5  -5  10    5.50    4.90 
   5   5  10    6.20    4.60 
  -5   5  10    2.80    5.10 
  -5   5  10   -0.40    6.30 
   5  -5  10    2.50    3.20 
  -5  -5  10    9.90    3.20 
  -5   5  10    0.10    5.70 
  -4   6 -10   19.30   19.10 
   6   4 -10    5.50    6.40 
  -6  -4 -10    4.40    5.30 
   6   4 -10    9.50    9.00 
   4  -6 -10   16.30    9.50 
   4  -6 -10   57.59   29.00 
  -6  -4 -10    9.30    5.60 
   4  -6 -10    1.50   19.20 
   6   4 -10   -0.50    4.00 
   6   4 -10   -2.80   10.50 
  -4   6 -10    9.50   17.40 
  -4   6  10   10.50    6.60 
  -4   6  10   11.90    5.50 
   4  -6  10    2.80    2.70 
   6   4  10   12.10    5.00 
   4  -6  10   12.30    5.90 
  -4   6  10   14.70    5.90 
  -6  -4  10    9.90    3.90 
  -6  -4  10    4.30    6.10 
   6   2 -10   35.00    8.60 
  -6  -2 -10   45.50    7.30 
   6   2 -10   33.20    9.20 
  -2   6 -10   32.60    4.30 
   6   2 -10   37.20    7.40 
   6   2 -10   23.30   13.20 
  -2   6 -10   51.89   18.80 
   2  -6 -10   -0.60   38.40 
  -2   6 -10   33.40   24.00 
  -6  -2 -10   26.30    6.00 
  -2   6 -10   33.80    7.80 
   6   2 -10   39.80    9.60 
   2  -6 -10   30.90   21.90 
  -2   6 -10   21.30   15.90 
   2  -6 -10   21.80    9.20 
   2  -6 -10   30.70    7.90 
  -6  -2 -10   23.00   15.70 
  -2   6  10   34.80    6.10 
  -6  -2  10   27.40    7.90 
  -6  -2  10   33.20    5.90 
  -6  -2  10   44.70    9.80 
   6   2  10   33.70    7.70 
  -6  -2  10   34.50    8.00 
   6   2  10   28.60    5.90 
  -6   0 -10   14.30    5.00 
  -6   0 -10   21.60    4.10 
   0   6 -10   23.20    5.90 
   6   0 -10   27.40    6.70 
   0   6 -10   31.00   17.00 
   0   6 -10   12.60   18.60 
  -6   0 -10   23.90    5.90 
  -6   0 -10  -23.70   26.60 
   0  -6 -10   39.50   17.10 
   0   6 -10   22.10    4.60 
   0   6 -10   28.30   11.40 
   6   0 -10   21.80   11.70 
   0  -6 -10   12.90   14.90 
   0  -6 -10   19.10    9.20 
   6   0 -10   12.30    7.40 
   0   6 -10   23.30    8.10 
   0  -6 -10   26.80    9.30 
   0   6  10   16.70    4.10 
   6   0  10   24.20    6.60 
  -6   0  10   11.40    6.90 
  -6   0  10   20.90    4.20 
  -6   0  10   17.80    7.30 
   6   0  10   23.00    4.30 
   0   6  10   13.90    5.90 
  -6   2 -10    6.20   11.90 
   2   6 -10   35.30   16.50 
  -6   2 -10   18.80    5.60 
   6  -2 -10   30.70    8.10 
  -2  -6 -10   28.10    5.00 
   2   6 -10   35.60    9.90 
   2   6 -10   18.80    5.40 
  -2  -6 -10   30.90   10.70 
   2   6 -10   26.00    6.10 
  -2  -6 -10   27.80   10.10 
   2   6 -10   19.50   17.20 
   6  -2 -10   30.70   10.60 
  -2  -6 -10   30.10    8.70 
   6  -2 -10   47.20   16.40 
   2   6 -10   30.10    9.00 
   2   6  10   22.60    6.20 
  -6   2  10   50.69    8.80 
   2   6  10   39.30    5.40 
  -6   2  10   54.29    9.50 
  -6   2  10   26.40   11.30 
  -6   2  10   41.60   11.10 
   6  -2  10   20.10    7.40 
   6  -4 -10   16.10    9.00 
   4   6 -10    6.50   12.10 
   6  -4 -10   25.80   15.30 
   4   6 -10    6.10    6.40 
   6  -4 -10   10.10   14.40 
  -6   4 -10    2.70   13.70 
  -6   4 -10    4.60    4.60 
  -4  -6 -10    1.40    5.80 
  -4  -6 -10    5.00    6.40 
   4   6 -10   20.00   13.80 
  -4  -6 -10    5.20   11.60 
   4   6 -10    2.60    4.10 
   4   6  10    2.30    2.80 
  -6   4  10   11.40    8.00 
   6  -4  10    3.20    3.00 
   6  -4  10    5.30    6.40 
  -6   4  10   11.00    7.80 
   4   6  10   12.70    5.00 
  -4  -6  10    4.70    3.90 
  -6   4  10    7.90    5.90 
   6  -4  10   -0.70    3.70 
  -6   4  10   -3.20    8.00 
   6  -6 -10   54.59   20.20 
  -6   6 -10   20.50    7.50 
  -6   6 -10   24.10   19.00 
   6   6 -10   15.80    9.80 
   6  -6 -10   47.60   23.80 
   6   6 -10   16.80   12.90 
   6   6 -10   11.30    6.00 
   6  -6 -10   33.70   14.70 
  -6  -6 -10    4.90    6.90 
  -6  -6 -10   13.00    7.30 
   6   6 -10   24.20   18.40 
  -6   6 -10   16.40   11.80 
  -6  -6 -10   16.40    6.50 
   6   6 -10   19.80    7.00 
  -6   6 -10   15.30   18.30 
  -6   6  10   25.10    8.90 
   6  -6  10   12.10    5.50 
   6   6  10   22.80    6.90 
  -6   6  10   23.30   10.80 
   6  -6  10   22.30    9.20 
  -6  -6  10   19.00    4.50 
  -6  -6  10   23.90    9.70 
  -6   6  10   12.10    8.30 
   6  -6  10   15.10    5.60 
  -5   7 -10   -6.30   10.00 
   5  -7 -10   -8.30   11.80 
   5  -7 -10   -2.10   19.40 
  -7  -5 -10   -2.20    5.50 
  -5   7 -10   -6.70   16.20 
   7   5 -10   -1.70   13.70 
  -5   7 -10   -3.20   20.60 
   5  -7 -10    0.60   28.70 
   7   5 -10    5.80    9.80 
   7   5 -10   -9.90    7.60 
   7   5 -10    0.10    5.20 
  -7  -5 -10    6.40    6.20 
   7   5 -10   -0.80    6.60 
  -7  -5 -10   -3.10    5.30 
   5  -7  10    3.30    4.10 
  -5   7  10    7.30    6.30 
   7   5  10   -0.40    3.50 
   7   5  10    2.80    2.70 
  -5   7  10    6.10    9.60 
   5  -7  10    4.00    6.90 
   7   5  10    0.80    5.40 
  -7  -5  10    1.90    8.60 
   7   3 -10    2.50    6.40 
   3  -7 -10  -27.60   32.30 
   3  -7 -10   11.70    6.80 
   7   3 -10    4.00   11.80 
   7   3 -10   -2.30    7.00 
  -7  -3 -10    4.60    5.00 
  -3   7 -10    1.30   19.60 
  -3   7 -10   -9.50   15.40 
   3  -7 -10    2.60    9.40 
  -3   7 -10    2.80   14.10 
  -7  -3 -10    6.10    4.80 
   7   3 -10    7.40    4.90 
   3  -7 -10   24.10   30.10 
  -7  -3  10   18.50   11.50 
  -3   7  10    6.40    6.40 
   3  -7  10    2.50    1.60 
  -7  -3  10   19.00    8.70 
  -3   7  10    1.20    3.80 
  -7  -3  10    0.50    3.50 
  -3   7  10    1.90    4.50 
  -7  -1 -10   95.39   11.80 
   1  -7 -10  103.39   33.40 
  -1   7 -10   94.49   21.80 
  -7  -1 -10  109.39   10.40 
   7   1 -10  108.29   17.00 
  -1   7 -10   87.69   13.00 
   7   1 -10  129.59   23.50 
   1  -7 -10   76.99   33.20 
  -1   7 -10   66.29   14.80 
  -1   7 -10  101.99    9.60 
  -1   7 -10   92.19   34.70 
   1  -7 -10  115.49   16.80 
   7   1 -10  111.69   12.60 
  -1   7 -10  137.79   33.10 
  -7  -1  10   96.29   11.70 
  -1   7  10   80.29   10.00 
   7   1  10   88.09   10.20 
  -1   7  10  107.49   15.30 
  -7  -1  10  101.99   10.70 
  -7  -1  10   94.89   15.80 
   7   1  10  120.49   14.30 
  -7  -1  10  150.38   18.40 
  -7   1 -10  105.99   11.80 
  -1  -7 -10  120.49   19.20 
  -1  -7 -10  117.59   23.10 
   7  -1 -10  161.48   26.30 
   7  -1 -10  112.99   17.20 
   1   7 -10   71.99   29.00 
   1   7 -10   98.89   16.30 
  -7   1 -10   85.19    8.90 
   1   7 -10  106.29   18.00 
  -7   1 -10   86.09   24.80 
   1   7 -10  108.49   12.90 
   1   7 -10  109.69   11.20 
   7  -1 -10   97.59   13.10 
   1   7 -10   70.29   23.60 
  -1  -7 -10  107.39   23.50 
  -7   1  10  100.69   17.70 
   1   7  10   86.09   10.10 
   7  -1  10  124.79   14.90 
   7  -1  10  105.89    9.30 
   1   7  10  100.19   13.60 
  -1  -7  10  112.09   10.70 
  -7   1  10  141.19   17.80 
   7  -3 -10    0.10    6.70 
  -7   3 -10    6.80   14.60 
  -7   3 -10    2.00    4.50 
   3   7 -10   10.80   14.70 
   7  -3 -10   22.60   16.70 
  -3  -7 -10    1.80    7.30 
   3   7 -10  -12.90   12.00 
   3   7 -10    0.90    4.60 
   3   7 -10   -0.20    7.40 
   7  -3 -10    4.50   10.50 
  -3  -7 -10    9.30    8.20 
  -7   3  10    3.90    6.00 
   7  -3  10   -0.60    7.60 
   3   7  10    0.80    3.10 
  -7   3  10   -2.80    8.40 
  -3  -7  10   29.50   13.40 
  -3  -7  10    7.20    4.50 
   7  -3  10   -1.40    2.90 
  -7   3  10   16.60    9.80 
   5   7 -10   -9.40   11.20 
   5   7 -10   -4.10   14.30 
   7  -5 -10   -4.90    9.40 
  -5  -7 -10    0.00    6.90 
   5   7 -10    2.10    5.40 
  -7   5 -10  -15.10    9.00 
  -7   5 -10   18.60   19.00 
  -7   5 -10    8.70    6.00 
  -5  -7 -10   -1.50    7.10 
   5   7 -10   -2.40    7.40 
   7  -5 -10    7.70   15.60 
  -5  -7  10   -3.30    2.60 
   5   7  10    1.50    3.40 
   5   7  10    2.20    5.80 
   7  -5  10    2.00    4.70 
  -5  -7  10   -1.60    4.60 
  -7   5  10    9.80    8.30 
  -7   5  10    0.30   10.30 
   5   7  10    2.50    3.40 
  -7   5  10    9.50    7.70 
   7  -5  10    1.30    8.20 
  -7   5  10    7.60   10.30 
   5   7  10   -1.80    3.80 
  -7  -7 -10   62.69   12.90 
   7   7 -10   55.89   15.30 
   7   7 -10   44.80   10.10 
  -7  -7 -10   60.39   13.30 
   7   7 -10   73.39   29.00 
  -7   7 -10   57.39   26.00 
   7   7 -10   57.39   20.30 
   7   7 -10   43.60   10.50 
   7  -7 -10   79.29   20.00 
  -7   7 -10   80.29   13.50 
  -7  -7  10   71.89   16.30 
   7   7  10   38.50    8.70 
  -7  -7  10   57.69    7.90 
   7   7  10   55.79    9.10 
   7  -7  10   49.90   10.60 
  -7   7  10   62.79   13.50 
   8   6 -10   17.80   21.80 
   6  -8 -10   26.90   19.60 
   8   6 -10   29.80    9.20 
  -8  -6 -10   38.40   10.90 
  -8  -6 -10   19.20    9.00 
  -6   8 -10   46.70   24.10 
  -6   8 -10   17.90   29.80 
   6  -8 -10   71.79   28.50 
   8   6 -10   21.40   14.40 
   6  -8 -10   96.99   45.00 
   8   6 -10   41.30   13.70 
  -8  -6  10   24.30   13.30 
  -8  -6  10   21.10    6.50 
   8   6  10   23.50    6.10 
   8   6  10   23.90    7.70 
  -6   8  10   41.20   10.50 
   6  -8  10   31.70    8.00 
   6  -8  10   32.30    9.20 
   4  -8 -10   40.80   11.80 
  -8  -4 -10   16.80    6.90 
   4  -8 -10   27.20   39.40 
   8   4 -10   22.50   10.90 
  -4   8 -10   19.10   21.60 
   8   4 -10   18.60   10.10 
  -4   8 -10   -8.10   21.20 
   8   4 -10   24.10    7.50 
   4  -8 -10  -14.50   12.30 
  -4   8 -10    4.20   10.90 
  -8  -4 -10   12.50    7.10 
   8   4  10    2.10    6.80 
  -4   8  10   14.60    6.10 
   4  -8  10    7.90    3.50 
  -8  -4  10   14.50   11.30 
  -8  -4  10   16.50    5.50 
   4  -8  10    9.40    8.40 
   8   4  10   17.80    4.90 
  -4   8  10   17.80   13.40 
  -8  -2 -10    9.00    6.00 
  -8  -2 -10   -1.80    5.50 
  -2   8 -10    8.80    9.80 
  -2   8 -10   13.50    7.20 
   2  -8 -10    2.20   25.20 
   2  -8 -10   -1.20   10.10 
   8   2 -10    7.60   13.40 
  -2   8 -10   13.20   19.80 
  -2   8 -10   14.10    4.70 
   8   2 -10   10.40    6.10 
   8   2 -10    3.80    7.70 
   2  -8 -10   26.80   33.20 
  -8  -2 -10    5.80    4.70 
  -2   8 -10   26.90   21.30 
  -2   8 -10   16.70   23.80 
  -2   8  10    6.90    4.20 
  -2   8  10   14.30    6.80 
  -8  -2  10    3.00   10.20 
  -2   8  10   11.40    5.30 
   8   2  10    7.80    6.40 
   8   2  10   10.90    2.80 
  -8  -2  10   16.10    4.70 
   8   2  10    5.20    3.00 
  -8   0 -10   97.59   13.70 
   0   8 -10   67.99   32.40 
   8   0 -10  112.49   26.20 
  -8   0 -10   75.99    8.80 
  -8   0 -10   63.09   10.80 
   0   8 -10   86.99   22.10 
   8   0 -10   62.09   14.70 
   0  -8 -10   69.39   27.90 
   8   0 -10   80.99   12.60 
   0   8 -10  102.69   33.00 
   0  -8 -10   81.39   23.60 
   0   8 -10   67.49   12.40 
   0   8 -10   74.59   10.00 
   0   8  10   67.69   13.50 
   0   8  10   62.39   13.50 
  -8   0  10   83.79    9.30 
  -8   0  10   94.79   17.40 
   8   0  10   74.09    7.40 
   8   0  10   76.19    9.10 
   0  -8  10   84.39    8.90 
   0   8  10   70.59   12.60 
   8   0  10  102.79   14.30 
   8   0  10   70.99    7.50 
  -8   0  10   95.59   10.30 
   2   8 -10   14.40    6.80 
  -8   2 -10    3.50    8.10 
   8  -2 -10   15.70   11.00 
   2   8 -10   -0.20   18.70 
  -2  -8 -10   12.70   11.50 
  -2  -8 -10   10.40   13.20 
   2   8 -10    8.80   17.00 
   8  -2 -10   16.70   18.40 
  -2  -8 -10    4.10   10.70 
   2   8 -10   -0.60   12.10 
   2   8 -10   13.90    9.40 
  -8   2 -10    9.60    5.50 
  -8   2 -10   -6.10   13.40 
   8  -2 -10   11.10    6.70 
  -2  -8  10    8.00    4.40 
   2   8  10   15.40    7.30 
   8  -2  10   -0.30    7.60 
   2   8  10    9.90    4.60 
   8  -2  10    6.90    4.10 
   2   8  10   14.30    5.10 
  -8   2  10   20.50   12.20 
   4   8 -10   17.60    7.50 
   8  -4 -10   35.30   21.00 
   8  -4 -10   32.00   17.00 
  -8   4 -10   15.70    6.80 
   4   8 -10   17.20   23.00 
  -4  -8 -10   13.80    9.90 
   4   8 -10    4.80   17.10 
   4   8 -10   16.10   10.40 
  -8   4 -10   12.60   10.70 
  -4  -8 -10   15.60    9.90 
  -4  -8 -10   19.80    9.80 
   8  -4 -10   24.50   11.70 
   4   8 -10   18.00   10.50 
  -8   4 -10   17.60   22.60 
   4   8  10   25.50    6.20 
   4   8  10    2.80    6.70 
   4   8  10   15.50    5.20 
   8  -4  10   16.20    6.20 
   4   8  10   14.20    6.90 
  -4  -8  10   13.20    5.80 
   8  -4  10   11.10   10.90 
  -8   4  10   18.80    8.90 
  -6  -8 -10   22.80   11.60 
   6   8 -10   26.60    9.70 
   8  -6 -10  105.29   21.50 
   6   8 -10   27.30   12.60 
  -6  -8 -10   11.00   10.10 
  -8   6 -10   30.60   22.90 
   6   8 -10   24.50   22.90 
   6   8 -10   20.90   18.80 
   8  -6 -10   52.39   17.10 
   8  -6 -10   82.09   26.00 
  -8   6 -10   32.30    9.90 
   6   8  10   27.80    6.80 
  -6  -8  10   30.60    5.50 
  -8   6  10   51.89   11.70 
   6   8  10   11.40    7.10 
   6   8  10   16.70    7.00 
  -8   6  10   45.80   13.10 
   8  -6  10   20.30    8.10 
  -6  -8  10   13.70    8.00 
  -5   9 -10   68.29   31.20 
   5  -9 -10   45.10   21.30 
  -9  -5 -10   57.49   11.80 
   9   5 -10   72.49   18.30 
   5  -9 -10   79.59   49.20 
  -9  -5 -10   63.09   12.50 
  -5   9 -10   68.79   33.70 
   5  -9 -10  210.38   50.49 
   9   5 -10   52.19   16.00 
   9   5 -10   62.29   12.60 
   9   5 -10   65.39   27.80 
  -5   9 -10   38.30   24.90 
  -5   9  10   78.39   12.80 
   9   5  10   56.39    9.50 
   9   5  10   44.00    9.70 
  -9  -5  10   65.79   18.80 
  -5   9  10   90.89   14.50 
  -9  -5  10   86.29   10.20 
  -3   9 -10    9.20   23.80 
  -3   9 -10    4.00   21.90 
   9   3 -10    8.30   15.90 
   9   3 -10    8.30    6.90 
   3  -9 -10   -6.90   13.90 
  -9  -3 -10    0.80    5.90 
   3  -9 -10   47.90   44.90 
  -3   9 -10    7.80   24.60 
  -3   9 -10   -6.60    8.00 
   3  -9 -10   -9.40   47.50 
  -9  -3 -10   12.80    6.90 
   9   3  10    0.80    5.00 
  -3   9  10    1.60    4.70 
  -9  -3  10    2.20    4.80 
   9   3  10   -2.40    4.80 
  -9  -3  10   17.80   12.70 
  -3   9  10   -0.30    6.70 
  -1   9 -10   26.10    9.60 
   9   1 -10   43.50   20.50 
   9   1 -10   27.20    8.60 
  -1   9 -10   22.50   19.50 
   1  -9 -10    2.00   29.30 
  -1   9 -10   23.50   13.70 
  -9  -1 -10   31.90    8.70 
   1  -9 -10   56.59   29.90 
   9   1 -10   22.10   11.60 
  -9  -1 -10   14.50   12.80 
  -1   9 -10   60.99   33.90 
   9   1  10   29.20    9.10 
  -1   9  10   35.90    7.90 
   9   1  10   30.00    7.20 
  -1   9  10   26.10   11.00 
  -1   9  10   31.40    6.80 
  -1   9  10   26.50    8.20 
   9   1  10   27.40    6.10 
   1  -9  10   33.40    6.00 
  -9  -1  10   24.60    8.70 
  -9  -1  10   10.40   13.40 
  -9  -1  10   28.30    6.40 
   9  -1 -10   33.90    9.40 
   1   9 -10   21.10   14.20 
   9  -1 -10   43.30   15.10 
  -1  -9 -10   26.00   22.40 
   1   9 -10   27.00   12.70 
   1   9 -10   28.40   10.00 
  -9   1 -10   10.20    6.90 
  -9   1 -10   38.50   21.60 
  -9   1 -10   17.80   11.90 
  -1  -9 -10   22.50   13.30 
  -1  -9 -10   10.10   15.20 
   9  -1 -10   35.40   19.20 
  -1  -9  10   25.30    6.50 
   1   9  10   13.80    7.20 
  -9   1  10   17.10   14.90 
   1   9  10   28.40    7.30 
   1   9  10   27.80   11.20 
   9  -1  10   32.40    6.50 
   9  -1  10   26.20    5.90 
   1   9  10   28.80    6.50 
   9  -1  10   26.10   16.00 
   3   9 -10  -26.90   19.80 
  -3  -9 -10    2.60   10.80 
  -9   3 -10   13.60   18.50 
   9  -3 -10    7.30   13.20 
   9  -3 -10   10.80    8.20 
  -3  -9 -10    4.20   11.00 
   3   9 -10   -9.10   20.20 
   3   9 -10    2.80    7.30 
   9  -3 -10  -27.40   17.80 
   3   9 -10    5.20   10.50 
  -9   3 -10    7.40    6.10 
   9  -3  10    2.50    5.80 
  -3  -9  10   -3.10    5.40 
   3   9  10    5.20    6.10 
  -9   3  10    3.20   14.20 
   3   9  10    0.30    7.30 
   3   9  10    3.50    6.40 
  -9   3  10   -2.40    7.20 
  -9   5 -10   67.29   11.90 
   5   9 -10   74.29   28.70 
   5   9 -10   31.20   26.60 
   5   9 -10   73.09   18.30 
   5   9 -10   60.69   13.10 
   9  -5 -10  135.29   23.00 
  -9   5 -10   65.39   28.10 
  -5  -9 -10   32.60   12.90 
  -5  -9 -10   60.49   15.60 
   5   9  10   39.30   12.40 
   9  -5  10   58.29   11.70 
   5   9  10   64.09   10.60 
  -9   5  10   85.99   15.60 
   5   9  10   68.69   15.10 
  -9   5  10   69.69   18.00 
  10   2 -10    3.70    7.90 
  10   2 -10   15.10   17.50 
  -2  10 -10    5.50   29.30 
 -10  -2 -10   -4.10    6.80 
 -10  -2 -10   -3.10    6.20 
  -2  10 -10   15.90   26.20 
   2 -10 -10   17.60   56.29 
   2 -10 -10    4.60   37.90 
  -2  10 -10    9.50   11.40 
  -2  10 -10   -3.60   24.90 
  10   2 -10    3.00   10.60 
  -2  10  10    1.70    4.80 
 -10  -2  10   -9.60   15.70 
  10   2  10    2.30    6.20 
 -10  -2  10    1.10    5.60 
  -2  10  10   11.40    7.50 
  10   2  10    0.60    6.30 
   2 -10  10    2.90    4.60 
   0 -10 -10  -15.10   30.10 
   0  10 -10    1.10   10.30 
  10   0 -10   -1.50   20.60 
   0  10 -10   -2.40   30.20 
 -10   0 -10    0.20    6.60 
   0 -10 -10    4.80   23.50 
   0  10 -10   16.70   29.90 
  10   0 -10    0.70    7.80 
   0 -10 -10  -20.90   18.80 
  10   0 -10    4.80   10.50 
   0  10 -10   -0.20   16.50 
 -10   0  10    9.70    6.60 
   0  10  10    5.70    9.50 
 -10   0  10    3.90    6.20 
 -10   0  10    2.90   17.90 
  10   0  10    1.70    6.00 
  10   0  10    2.00    6.90 
   0  10  10    2.70    5.10 
   0 -10  10    5.40    5.80 
  10  -2 -10    9.20   19.80 
 -10   2 -10   10.00   20.90 
  10  -2 -10    6.70    8.10 
  -2 -10 -10   20.30   17.10 
 -10   2 -10    3.80    7.00 
  -2 -10 -10    3.30   15.10 
   2  10 -10    5.20    9.00 
   2  10 -10  -21.40   13.80 
  10  -2 -10    8.80   13.30 
  -2 -10 -10    5.20   21.40 
   2  10 -10   18.10   31.10 
   2  10 -10   26.70   28.70 
   2  10  10    4.60    9.60 
   2  10  10   -0.10    5.30 
  -2 -10  10    2.20    6.10 
   2  10  10    2.80   10.50 
 -10   2  10  -20.70   17.90 
  10  -2  10    2.10    6.90 
   0  -1 -11    0.40    6.40 
   0   1 -11    3.10    2.40 
  -1   0 -11    3.60    5.20 
   0   1 -11   -5.70    4.70 
   0   1 -11   12.40   10.20 
   1   0 -11   -1.30    6.50 
   1   0 -11    0.20    4.90 
  -1   0 -11   -3.80    6.50 
  -1   0 -11    4.10    8.90 
   1   0 -11    4.60    2.00 
  -1   0 -11    3.40    2.40 
   0   1 -11    6.00    3.70 
   0  -1 -11    1.50    4.70 
   0  -1 -11   16.40    5.00 
   0  -1 -11    1.50    8.80 
   2   1 -11  595.34   52.49 
  -2  -1 -11  643.74   48.20 
   2   1 -11  576.24   49.50 
  -1   2 -11  594.94   44.50 
  -1   2 -11  651.73   43.40 
  -1   2 -11  658.93   45.00 
   1  -2 -11  582.44   45.90 
   2   1 -11  542.35   49.30 
   2   1 -11  616.14   45.00 
   1  -2 -11  634.64   48.50 
  -2  -1 -11  652.73   47.30 
   2   1 -11  665.63   44.20 
  -1   2 -11  647.94   43.20 
   1  -2 -11  552.74   56.49 
  -2  -1 -11  618.64   43.00 
   2   1 -11  678.33   51.49 
  -2  -1 -11  696.03   45.90 
  -1   2  11  673.93   43.40 
  -2  -1  11  637.84   44.10 
  -2   1 -11  645.34   44.20 
  -2   1 -11  585.34   42.40 
  -1  -2 -11  662.33   49.20 
   1   2 -11  623.14   43.60 
   2  -1 -11  614.74   50.49 
   1   2 -11  677.53   43.80 
  -2   1 -11  656.73   42.50 
  -1  -2 -11  655.43   47.20 
   1   2 -11  667.83   57.79 
   2  -1 -11  502.75   47.30 
  -1  -2 -11  623.64   43.20 
   2  -1 -11  612.54   45.30 
   1   2 -11  624.94   45.60 
   1   2 -11  644.14   47.00 
  -1  -2 -11  661.73   53.09 
   1   2 -11  629.74   46.80 
  -2   1 -11  674.33   45.60 
   1   2 -11  578.94   57.59 
  -2   1  11  674.13   44.10 
  -1  -2  11  637.14   50.89 
   3   2 -11   80.69   18.10 
   3   2 -11   87.49   14.70 
  -2   3 -11   85.49   11.00 
   2  -3 -11   88.79   12.60 
   2  -3 -11   83.79    8.90 
   3   2 -11   98.89   11.90 
  -2   3 -11   77.39    8.30 
   3   2 -11   88.59   14.20 
   3   2 -11   74.29   10.10 
   3   2 -11   89.09    8.70 
  -2   3 -11   81.99    7.70 
  -3  -2 -11   78.29   10.70 
  -2   3 -11   76.59   18.60 
  -2   3 -11   45.40   20.90 
   2  -3 -11  112.19   22.90 
  -3  -2 -11   68.99    9.50 
  -3  -2 -11  106.99   11.10 
  -3  -2 -11   27.70   44.60 
  -2   3 -11   93.39    7.10 
  -3  -2  11   93.29    9.60 
   3   2  11   90.59    6.80 
  -3  -2  11  127.59   14.40 
   3   0 -11    0.50    2.90 
   0   3 -11   -2.00    4.60 
   0   3 -11   10.30   13.70 
   0   3 -11   -1.30    6.70 
  -3   0 -11   -1.00    7.20 
  -3   0 -11    8.00   17.10 
   0   3 -11   -3.00    3.00 
  -3   0 -11    0.40    2.80 
  -3   0 -11    1.10    1.10 
   0   3 -11    0.90    2.00 
   0  -3 -11    9.70   12.30 
   3   0 -11    4.00    4.20 
   0  -3 -11   -2.10    3.10 
   0   3 -11    1.90    1.00 
   0  -3 -11    5.00    3.90 
   3   0 -11    4.10    3.80 
   0  -3 -11    1.50    5.40 
   0  -3 -11    3.90   14.30 
   3   0 -11   20.30   10.40 
   0   3 -11    7.40    3.40 
   3   0 -11   -0.10    6.30 
   0   3 -11   -0.20    1.80 
   0   3 -11    6.40    3.50 
   0   3  11    2.00    1.60 
  -3   0  11    1.50    2.50 
   3   0  11    0.90    1.00 
   0   3  11    0.80    1.80 
   0  -3  11    1.50    8.90 
  -3   0  11    1.80    8.50 
  -2  -3 -11   80.59    8.90 
  -3   2 -11   84.89   14.20 
   2   3 -11   75.99   10.50 
   3  -2 -11   79.59   15.60 
  -2  -3 -11  207.38   49.99 
   2   3 -11   95.69   10.80 
  -3   2 -11   84.49    8.30 
  -3   2 -11   58.79    8.20 
   2   3 -11   85.59    8.40 
  -2  -3 -11   97.99   11.20 
  -2  -3 -11   83.79   10.10 
   2   3 -11   85.79    7.20 
   3  -2 -11   85.79   13.60 
   2   3 -11   71.79   17.30 
  -3   2 -11   89.09    6.90 
  -2  -3 -11   80.09   13.40 
   2   3 -11   62.19   10.30 
  -3   2 -11   81.99    6.50 
   2   3 -11   89.49   19.60 
   3  -2 -11   98.59   12.80 
  -2  -3 -11   75.29   16.50 
   3  -2 -11   68.79    9.80 
   2   3  11   82.79    7.50 
  -3   2  11   92.99   10.10 
   3  -2  11   81.69    7.30 
   2   3  11   85.09    6.70 
  -2  -3  11   81.99   15.10 
   3  -4 -11   45.90   18.60 
  -4  -3 -11   31.30   49.99 
   4   3 -11   16.00    4.90 
  -3   4 -11   24.70    8.80 
  -4  -3 -11   20.80    4.20 
   3  -4 -11   16.40    6.20 
  -4  -3 -11   28.90    7.90 
  -3   4 -11   27.70    4.90 
  -4  -3 -11   17.80    5.60 
   3  -4 -11   53.59   11.60 
   4   3 -11   25.40    5.30 
   3  -4 -11   76.19   21.40 
   4   3 -11   22.50   12.10 
   4   3 -11   23.80    9.60 
  -3   4 -11   12.20   15.70 
   3  -4  11   26.40    4.90 
  -3   4  11   39.30    7.40 
   4   3  11   23.70    5.60 
  -4  -3  11   28.90    4.70 
  -4  -3  11   18.20    5.80 
   4   3  11   22.20    5.10 
  -4  -1 -11  144.89   11.80 
  -1   4 -11  129.29   20.80 
   1  -4 -11  103.79   28.80 
   4   1 -11  140.99   15.60 
  -4  -1 -11  140.29   13.10 
   1  -4 -11  140.09   16.80 
  -1   4 -11  153.08   13.10 
   1  -4 -11  164.68   37.00 
   4   1 -11  166.78   13.90 
  -1   4 -11  141.09   11.60 
   1  -4 -11  135.09   15.30 
  -1   4 -11  115.09   30.70 
   4   1 -11  153.88   15.70 
  -4  -1 -11  141.49   13.50 
   4   1 -11  121.89   19.40 
  -1   4 -11  159.28   25.40 
   4   1 -11  139.69   21.10 
  -1   4 -11  130.09   15.10 
  -4  -1 -11  141.49   21.40 
  -4  -1 -11   84.29   62.39 
   4   1  11  182.48   13.00 
  -4  -1  11  171.88   14.80 
  -4  -1  11  154.58   14.90 
  -1  -4 -11  150.78   14.60 
   1   4 -11  129.69   29.30 
  -4   1 -11  143.99   11.50 
  -4   1 -11  109.19   32.90 
   1   4 -11  139.89   16.30 
   1   4 -11  150.38   13.20 
  -1  -4 -11  143.49   19.10 
   4  -1 -11  163.38   21.30 
  -1  -4 -11  147.89   17.20 
  -4   1 -11  166.38   13.00 
  -1  -4 -11  152.08   19.30 
   1   4 -11  116.09   22.40 
  -1  -4 -11  164.18   14.20 
  -1  -4 -11  150.58   23.60 
   4  -1 -11  159.78   16.90 
   4  -1 -11  174.48   25.50 
   1   4 -11  151.78   13.70 
  -4   1 -11  160.98   13.40 
   4  -1 -11  141.09   14.30 
   1   4 -11  107.59   14.60 
   1   4  11  155.88   11.90 
  -4   1  11  164.48   15.50 
   4  -1  11  153.98   12.70 
   1   4  11  161.78   12.70 
  -3  -4 -11   16.30    6.10 
  -4   3 -11   15.20    5.20 
   3   4 -11   20.50   14.00 
  -4   3 -11   25.50   13.40 
  -3  -4 -11   12.80    6.00 
   3   4 -11   22.70    5.20 
   3   4 -11   31.00   13.70 
   3   4 -11   21.90    6.90 
   4  -3 -11   19.30    6.70 
  -3  -4 -11   25.50    7.50 
  -4   3 -11   15.50    4.60 
  -3  -4 -11   27.50   20.80 
  -4   3 -11    1.50   12.60 
   4  -3 -11   46.80   14.00 
   3   4 -11   21.20    2.80 
   4  -3 -11   28.00   11.00 
   3   4  11   21.50    3.60 
  -4   3  11   32.10    9.20 
  -4   3  11   34.70    7.70 
   4  -3  11   19.00    4.30 
   4  -3  11   22.30    3.80 
  -3  -4  11   19.30    5.80 
  -3  -4  11   15.40    9.00 
   3   4  11   24.90    4.70 
   5   4 -11  114.39   12.30 
  -5  -4 -11  100.59   13.10 
  -4   5 -11  110.19   12.00 
  -4   5 -11   84.39   28.40 
   5   4 -11  117.39   26.10 
  -4   5 -11   75.29   22.60 
   5   4 -11  112.79   15.50 
   5   4 -11  116.29   11.00 
   4  -5 -11   77.19   15.30 
  -5  -4 -11  102.69   13.40 
  -5  -4 -11  105.09   40.00 
   5   4 -11  100.49   19.20 
   4  -5 -11  253.37   35.40 
  -5  -4  11  102.19   14.00 
  -5  -4  11  142.59   15.50 
   5   4  11  114.29   12.30 
   4  -5  11  107.49    9.20 
   4  -5  11  108.59   12.10 
  -2   5 -11  398.46   49.80 
  -2   5 -11  467.85   32.40 
   5   2 -11  444.86   38.70 
   2  -5 -11  694.43   67.09 
  -2   5 -11  365.56   47.30 
  -5  -2 -11  473.95   35.80 
  -5  -2 -11  490.35   34.90 
   2  -5 -11  544.25   36.40 
   5   2 -11  424.76   37.30 
  -2   5 -11  479.85   36.60 
  -2   5 -11  483.55   42.50 
  -5  -2 -11  489.05   36.60 
   5   2 -11  499.15   48.70 
   5   2  11  555.44   36.90 
   5   2  11  506.55   35.20 
  -5  -2  11  446.36   37.20 
  -5  -2  11  473.85   41.20 
  -5   0 -11  -21.00   20.80 
  -5   0 -11   -0.60    2.90 
   0  -5 -11   -2.10   14.10 
  -5   0 -11    2.70    2.60 
   5   0 -11   -6.70    4.60 
   0  -5 -11    0.20   15.20 
   0  -5 -11    6.40    7.50 
   0   5 -11    2.60    5.50 
   0   5 -11    3.10    9.60 
   5   0 -11   -0.50    3.80 
   0   5 -11    3.60    5.10 
   0   5 -11    0.70    6.40 
  -5   0 -11   -1.10    2.40 
   0   5 -11   -1.80   14.70 
   5   0 -11   -5.40    7.00 
   5   0 -11   -7.10   16.00 
   0  -5 -11   -0.30    5.90 
   0   5 -11    3.40    3.30 
   0   5 -11   -2.60    3.00 
   0   5  11    0.40    2.00 
   5   0  11    0.70    3.00 
   0   5  11   -0.20    3.00 
  -5   0  11   -4.60    3.90 
   2   5 -11  520.75   52.99 
  -2  -5 -11  557.34   41.00 
   2   5 -11  402.96   38.00 
   2   5 -11  439.16   35.60 
  -2  -5 -11  477.25   40.80 
  -5   2 -11  409.86   36.00 
  -5   2 -11  386.26   67.59 
  -5   2 -11  486.45   35.30 
   2   5 -11  479.15   49.90 
  -2  -5 -11  494.05   43.90 
  -2  -5 -11  427.26   41.00 
   5  -2 -11  525.95   41.90 
   2   5 -11  484.25   37.10 
   2   5 -11  463.65   39.80 
   2   5  11  462.55   33.90 
   2   5  11  462.45   35.30 
  -5   2  11  598.94   46.10 
   5  -2  11  482.65   34.20 
  -5   2  11  521.15   39.60 
   5  -2  11  501.75   36.30 
  -5   4 -11   67.99   25.00 
   4   5 -11   97.69   25.20 
  -4  -5 -11  100.89   24.80 
  -4  -5 -11   95.79   14.60 
  -4  -5 -11   90.39   14.80 
   5  -4 -11  172.58   19.00 
   4   5 -11  113.89   12.80 
   4   5 -11  102.69   15.50 
  -5   4 -11  108.29   12.00 
   4   5 -11  104.79   22.30 
   4   5  11  107.19   10.30 
   4   5  11  120.59   12.40 
  -4  -5  11  134.09   16.00 
   5  -4  11  124.49   13.40 
  -5   4  11  167.18   17.30 
  -4  -5  11  111.19   14.00 
  -5   4  11  155.78   17.70 
   5  -4  11   98.79   10.20 
  -5   6 -11   92.59   13.10 
  -6  -5 -11   59.79   11.80 
   6   5 -11   84.69   12.00 
   6   5 -11   78.69   16.00 
   6   5 -11   72.89   18.60 
   5  -6 -11   49.80   15.00 
  -5   6 -11  100.49   30.20 
  -5   6 -11   65.89   27.80 
  -6  -5 -11   88.19   13.30 
   5  -6 -11  216.28   33.60 
   6   5 -11   96.79   27.40 
  -6  -5  11   79.99    8.60 
   5  -6  11   72.59    8.50 
  -5   6  11  117.39   15.50 
  -6  -5  11   79.69   14.30 
  -6  -5  11  118.49   18.90 
   6   5  11  100.19   12.80 
   5  -6  11   73.79   12.30 
  -6  -3 -11   10.60    5.40 
   6   3 -11   11.80   11.90 
   3  -6 -11   49.40   32.20 
   3  -6 -11   -8.90   22.60 
   3  -6 -11   -5.20    7.10 
  -3   6 -11   11.30   17.20 
   6   3 -11   25.80    6.40 
  -3   6 -11   -5.40   11.10 
   6   3 -11    4.40    7.40 
   6   3 -11   14.30    8.20 
  -6  -3 -11   13.20    5.90 
   6   3 -11   16.20    8.10 
  -3   6 -11   18.90   20.70 
  -6  -3  11    6.80    7.70 
  -6  -3  11   24.00    8.50 
   6   3  11    9.50    5.60 
  -3   6  11   29.90    6.60 
  -6  -3  11    8.10    6.90 
   1  -6 -11   93.29   14.40 
  -1   6 -11   72.89   22.80 
  -1   6 -11   84.59   19.30 
  -6  -1 -11   93.19    9.50 
   6   1 -11  106.69   23.20 
  -6  -1 -11   86.99   10.70 
   6   1 -11   98.19   11.40 
   1  -6 -11   93.59   34.80 
   1  -6 -11   94.29   28.90 
   6   1 -11   93.29   14.70 
  -6  -1 -11   51.49   21.80 
  -1   6 -11   50.79   27.50 
   6   1 -11   97.29   11.30 
  -1   6 -11   99.69   11.60 
  -1   6 -11   95.49    8.50 
   6   1  11   82.49    9.60 
  -6  -1  11   91.69   10.90 
  -6  -1  11  103.29   14.20 
  -1   6  11   90.29   12.60 
  -1   6  11   72.29    8.70 
   1   6 -11   83.69   10.00 
   6  -1 -11  119.69   21.30 
  -6   1 -11   87.99    7.70 
  -1  -6 -11   77.19   19.80 
   1   6 -11  102.29   14.80 
  -6   1 -11   60.39   19.90 
   1   6 -11   90.19   10.90 
  -1  -6 -11  102.89   17.30 
   1   6 -11  115.19   31.60 
  -1  -6 -11   80.09   19.60 
   1   6 -11   82.19   24.00 
  -6   1 -11   82.29   10.20 
  -1  -6 -11  121.79   17.30 
   1   6 -11   90.49   16.80 
  -1  -6 -11  107.79   17.50 
   6  -1 -11   85.79   16.10 
   6  -1 -11   92.49   13.10 
   1   6  11   89.69   11.10 
   1   6  11   89.49    8.90 
   6  -1  11   75.19   11.50 
   6  -3 -11   28.80    9.70 
   6  -3 -11   23.60   14.40 
  -6   3 -11   -4.80   13.00 
  -3  -6 -11   20.10    9.30 
   3   6 -11   10.60    8.20 
   6  -3 -11   23.00   12.60 
   3   6 -11    8.70    4.90 
   3   6 -11    1.00   13.40 
  -3  -6 -11   17.10    8.90 
   3   6 -11   12.60   14.00 
  -3  -6 -11   10.50    7.70 
  -6   3 -11   12.40    5.60 
   3   6  11   30.60    6.70 
  -6   3  11   28.30    6.70 
   6  -3  11   16.40    6.60 
   3   6  11   17.80    4.10 
  -6   3  11   18.10   10.10 
  -6   3  11   22.10    5.90 
  -5  -6 -11   78.89   13.80 
   5   6 -11   70.19   14.70 
   5   6 -11   79.69   24.60 
  -5  -6 -11  100.09   15.80 
  -6   5 -11   40.80   12.00 
  -6   5 -11   88.99   11.60 
   5   6 -11   81.49   22.00 
   5   6 -11   76.39   11.30 
  -6   5 -11   57.89   24.70 
   5   6 -11   90.19    8.40 
  -5  -6 -11   86.09   25.00 
   6  -5 -11  116.99   18.30 
   6  -5  11   89.09   13.80 
   6  -5  11   74.09    9.20 
   5   6  11   72.09    8.90 
  -5  -6  11   96.79   17.20 
  -6   5  11  104.59   15.80 
  -6   5  11  137.99   16.90 
   5   6  11   64.99   10.80 
  -5  -6  11   67.39   13.20 
   7   6 -11   -5.80    6.00 
  -7  -6 -11    6.60    7.90 
  -6   7 -11   28.60   23.00 
   7   6 -11    3.60    7.70 
   7   6 -11   -5.90   16.20 
  -7  -6 -11   -1.30    7.60 
   6  -7 -11    7.70   13.40 
  -6   7 -11    4.50   24.00 
   6  -7 -11   13.50   24.40 
   7   6 -11   -5.50   10.00 
   6  -7 -11   16.10   20.70 
  -7  -6  11   -0.70   10.40 
  -7  -6  11    4.70    4.30 
  -6   7  11   -5.10   10.30 
   6  -7  11   -6.10    5.30 
  -6   7  11    1.70    7.30 
  -4   7 -11    3.00    8.30 
  -7  -4 -11   12.00    6.20 
  -4   7 -11  -13.60   18.80 
   4  -7 -11   32.00   30.50 
  -4   7 -11    1.00   20.40 
  -7  -4 -11    5.30    6.20 
   7   4 -11   -1.70    8.20 
  -4   7 -11    0.40   13.70 
   7   4 -11   -0.40    7.60 
  -7  -4 -11   -5.30    5.10 
   7   4 -11   -6.20   12.40 
   7   4 -11    2.30    5.50 
   4  -7 -11  -17.70   19.30 
  -7  -4  11   14.80    8.70 
   4  -7  11    8.50    2.80 
  -7  -4  11    5.30    4.00 
   4  -7  11    1.40    5.60 
   7   4  11    1.40    5.90 
  -4   7  11    9.50    4.70 
  -4   7  11    1.60    6.00 
  -4   7  11   11.70    7.10 
  -7  -4  11   -7.30   11.00 
   2  -7 -11    0.80   30.10 
  -2   7 -11    6.80    6.70 
  -2   7 -11    8.50   13.70 
  -7  -2 -11   41.10    8.20 
   7   2 -11   22.80    6.60 
   7   2 -11   29.40   15.30 
   2  -7 -11   30.30    8.90 
   7   2 -11   26.50    8.40 
   2  -7 -11   48.90   39.80 
   7   2 -11   23.90    9.30 
  -2   7 -11   18.20   23.40 
  -2   7 -11   15.80   16.60 
  -7  -2  11   24.30    8.10 
  -2   7  11   12.70    4.40 
  -7  -2  11   31.60   10.50 
   7   2  11   27.40    7.80 
   7   2  11   27.20    6.40 
  -7  -2  11   24.00   10.00 
   0   7 -11   -1.20    4.20 
   0   7 -11    3.00    4.80 
   7   0 -11   -4.40    9.10 
   7   0 -11    1.60    7.60 
   0   7 -11    0.60   21.60 
   7   0 -11    5.10    5.40 
  -7   0 -11   -1.30    3.10 
  -7   0 -11   -3.30    4.40 
   0  -7 -11   -1.10    9.90 
   0  -7 -11   13.00   16.10 
   0   7 -11    5.50   10.90 
   0   7 -11   -4.60   10.00 
   0  -7 -11   12.30   19.50 
   0   7  11    3.10    3.20 
  -7   0  11    2.50    3.00 
   7   0  11    4.90    4.10 
  -7   0  11    0.50    7.30 
  -7   0  11    3.30    7.30 
  -7   2 -11    6.10   11.00 
   7  -2 -11   31.70   17.10 
   7  -2 -11   39.20   13.80 
   2   7 -11   25.80   20.30 
  -2  -7 -11   34.70   14.40 
   2   7 -11    9.50    9.90 
  -2  -7 -11   18.40   10.80 
   2   7 -11   29.40   16.90 
  -2  -7 -11   27.40   13.10 
  -7   2 -11   25.80    6.80 
   2   7 -11   22.90    6.80 
   7  -2 -11   23.80    8.20 
   7  -2  11   15.50    8.10 
  -7   2  11   29.20    8.80 
  -7   2  11   22.40    9.90 
   2   7  11   23.00    5.00 
   2   7  11   22.90    7.00 
  -7   2  11   31.90    8.00 
  -4  -7 -11   -1.00    8.60 
  -7   4 -11    7.40    6.20 
   4   7 -11   -3.70    4.80 
  -7   4 -11    1.70   15.90 
   7  -4 -11   16.90   10.10 
   4   7 -11    5.30    9.20 
  -7   4 -11   -2.50    7.90 
   4   7 -11   -2.40   14.60 
  -4  -7 -11   -1.60    8.00 
  -4  -7 -11   10.90   10.80 
   4   7 -11   12.20    8.80 
   4   7 -11    6.50   16.50 
   7  -4 -11   12.00   14.20 
   4   7  11    4.10    3.60 
  -4  -7  11   13.90   13.10 
  -7   4  11    6.90   11.10 
   4   7  11    3.70    5.50 
  -7   4  11   10.40    9.50 
   7  -4  11    7.40    8.20 
  -7   4  11   11.00    6.50 
  -7   4  11   12.80    8.80 
   6   7 -11    8.80    6.90 
   7  -6 -11   11.40   19.60 
   6   7 -11   -8.10   16.30 
   7  -6 -11   -4.20   14.50 
   7  -6 -11    0.00   13.00 
  -7   6 -11   20.90    9.10 
  -7   6 -11    6.80   18.80 
  -6  -7 -11   24.10   10.00 
   6   7 -11   -0.60   14.60 
  -7   6  11    0.20   10.50 
  -7   6  11    4.90    8.10 
  -6  -7  11   -0.40    9.60 
   6   7  11    2.20    4.10 
  -6  -7  11    9.60    3.90 
  -7   6  11    3.40    7.30 
   8   5 -11   96.29   19.90 
   8   5 -11   74.39   17.70 
   5  -8 -11   56.29   18.60 
   5  -8 -11  258.07   54.29 
   5  -8 -11  256.07   47.20 
   8   5 -11  103.49   14.40 
  -8  -5 -11   74.99   13.40 
  -5   8 -11   75.79   32.60 
  -8  -5 -11   87.69   14.60 
   8   5 -11   81.99   28.00 
  -5   8 -11   90.19   34.20 
  -5   8 -11   51.09   23.60 
  -8  -5  11   92.49   10.50 
  -8  -5  11   98.19   19.80 
   5  -8  11   98.89    9.40 
  -3   8 -11   16.90   18.90 
  -8  -3 -11   23.80    7.20 
   8   3 -11    5.20    9.50 
  -8  -3 -11   13.30    7.70 
  -3   8 -11   14.70    8.20 
  -3   8 -11   26.40   27.60 
  -3   8 -11    3.40   21.20 
   3  -8 -11   31.70    9.90 
   8   3 -11   24.80    7.60 
   8   3 -11   31.90   17.40 
  -3   8 -11   10.10   10.70 
   3  -8 -11   -9.40   12.50 
   3  -8 -11   43.00   44.10 
   3  -8 -11   19.30   28.00 
  -8  -3  11   16.50    5.00 
  -3   8  11   17.00    5.70 
  -3   8  11   20.80   11.00 
  -3   8  11   26.70    5.90 
  -1   8 -11  128.49   43.60 
  -1   8 -11  109.09   11.10 
   1  -8 -11  117.59   18.80 
   8   1 -11  109.79   14.50 
  -8  -1 -11  125.89   14.90 
   8   1 -11  161.88   27.40 
   1  -8 -11   83.39   33.20 
  -1   8 -11   83.09   14.50 
  -1   8 -11   89.99   17.90 
  -1   8 -11  108.49   34.70 
  -8  -1 -11   78.79   13.20 
  -8  -1 -11  101.79   11.50 
  -1   8 -11   91.99   24.60 
   8   1 -11  130.19   19.00 
   1  -8 -11   83.89   41.90 
   8   1  11  121.29   15.80 
  -1   8  11   93.69   15.80 
  -8  -1  11  104.79   12.60 
  -8  -1  11  111.19   19.40 
   8   1  11  114.19   12.10 
  -1   8  11   87.79   11.00 
  -1  -8 -11   93.29   27.60 
  -8   1 -11   96.89   27.20 
   1   8 -11  129.39   34.90 
  -8   1 -11  110.49   13.40 
  -1  -8 -11   68.59   23.80 
   1   8 -11   81.59   33.70 
   8  -1 -11  119.89   21.20 
   8  -1 -11  184.38   29.50 
   1   8 -11  120.19   15.30 
  -1  -8 -11   86.09   21.10 
  -8   1 -11  132.69   16.80 
   8  -1 -11   93.69   14.50 
   1   8 -11  123.19   19.90 
   1   8 -11  121.19   22.80 
   8  -1  11  129.29   16.50 
  -8   1  11  104.99   19.50 
   8  -1  11  107.79   10.60 
   1   8  11  101.89   11.50 
  -1  -8  11  115.39   12.10 
   1   8  11  121.19   15.80 
  -8   3 -11   28.50   19.20 
   8  -3 -11   24.40   10.50 
   8  -3 -11   51.69   22.40 
   3   8 -11    3.60   10.60 
   3   8 -11   14.90   20.30 
  -3  -8 -11    9.50    8.80 
   3   8 -11    8.20    6.50 
   3   8 -11   15.90   10.70 
  -8   3 -11   19.20    7.40 
  -3  -8 -11   13.90   12.40 
   8  -3 -11   16.50   15.40 
   3   8 -11    3.70   17.00 
   8  -3  11   17.30    4.00 
  -8   3  11   10.20    7.80 
  -8   3  11    6.00   11.50 
  -8   3  11   27.20   12.00 
   3   8  11   13.20    4.70 
  -3  -8  11    8.60    5.70 
  -8   5 -11   72.59   29.00 
  -5  -8 -11   90.09   19.30 
  -5  -8 -11   68.09   15.40 
   5   8 -11  102.89   21.00 
  -5  -8 -11   93.99   18.20 
  -8   5 -11  130.69   14.10 
   5   8 -11   95.79   30.60 
   5   8 -11   88.09   14.20 
  -8   5  11  137.79   16.50 
  -8   5  11  108.09   17.90 
   5   8  11   86.09   11.30 
  -8   5  11  146.69   20.90 
   8  -5  11   92.29   11.70 
  -5  -8  11  101.79   12.80 
   9   4 -11   13.80   12.70 
  -9  -4 -11   12.50    8.00 
  -4   9 -11   18.50   23.30 
   4  -9 -11   13.10   37.30 
  -9  -4 -11    3.10    6.90 
   9   4 -11    7.90   17.20 
   4  -9 -11    4.40   14.20 
  -4   9 -11   39.30   29.50 
   9   4 -11    8.30    8.30 
  -4   9 -11   16.40   28.70 
  -9  -4  11   18.80   15.10 
  -9  -4  11   12.90    5.90 
  -4   9  11   15.60    6.90 
   9   2 -11   46.00   17.60 
   9   2 -11   54.49   11.20 
  -2   9 -11   47.80   37.30 
  -2   9 -11   30.10   25.20 
   9   2 -11   92.39   26.20 
  -2   9 -11   66.49   14.70 
   2  -9 -11   66.89   42.30 
  -9  -2 -11   64.39   12.10 
  -2   9 -11   39.40   30.00 
  -2   9 -11   75.49   10.00 
  -9  -2 -11   55.99   10.00 
   2  -9 -11   91.19   16.80 
   2  -9 -11   27.50   47.60 
  -2   9  11   48.00    9.00 
  -9  -2  11   73.59   13.30 
  -2   9  11   82.39    9.80 
  -9  -2  11   91.89   10.80 
  -9  -2  11   19.40   25.70 
   0   9 -11   -6.50    7.50 
  -9   0 -11   -4.40    6.60 
   9   0 -11    1.20    6.90 
   9   0 -11  -10.90    9.60 
   0   9 -11  -19.30   28.30 
   0   9 -11    4.60   14.70 
   0   9 -11   -6.30    8.10 
   0   9 -11   -2.90   20.90 
   9   0 -11   -8.00   14.10 
  -9   0 -11    3.80    4.80 
   0  -9 -11   -8.60   14.50 
   0  -9 -11    4.90   25.90 
   0  -9 -11   19.90   25.50 
   0   9  11    1.30    4.30 
   9   0  11   -6.20    5.60 
   0   9  11   -0.40    4.40 
   9  -2 -11   52.09   11.60 
   2   9 -11   53.19   12.30 
  -2  -9 -11   72.79   24.80 
  -2  -9 -11   60.69   19.90 
   2   9 -11   59.39   19.20 
   2   9 -11   66.39   33.70 
   9  -2 -11  111.99   24.30 
  -9   2 -11   58.09   11.30 
   9  -2 -11  131.39   31.20 
  -9   2 -11   37.60   23.00 
   2   9 -11   67.19   29.60 
  -2  -9 -11   57.59   20.00 
   2   9  11   69.59    9.80 
  -9   2  11   89.09   14.40 
   9  -2  11   64.39    7.10 
  -9   2  11   32.00   19.90 
  -2  -9  11   69.59   10.10 
   4   9 -11    2.90    8.50 
   4   9 -11    3.60   10.80 
   4   9 -11   -2.70   22.50 
  -4  -9 -11    7.00   12.30 
  -9   4 -11    7.80   22.40 
   9  -4 -11   20.90   12.50 
   9  -4 -11   41.50   24.60 
   4   9 -11  -13.10   21.40 
  -4  -9 -11   -2.10   11.70 
  -9   4 -11   19.30    8.20 
   9  -4 -11   33.40   19.80 
   4   9  11   13.20    5.60 
  -4  -9  11   21.20    7.50 
  -9   4  11   23.60   10.10 
   9  -4  11   16.90    6.10 
  10   1 -11    2.90    8.50 
 -10  -1 -11    0.10    5.80 
  -1  10 -11    1.60   28.80 
 -10  -1 -11    5.70    7.30 
  -1  10 -11   -1.00   33.90 
  10   1 -11   -3.60   19.20 
   1 -10 -11   56.29   45.40 
  -1  10 -11   -5.30   10.20 
  10   1 -11   -0.60   11.30 
  -1  10 -11   -2.90   19.70 
  -1  10  11    1.10    5.80 
 -10  -1  11    4.30   16.40 
   1 -10  11   -1.20    5.30 
  -1 -10 -11  -11.00   22.90 
  10  -1 -11    2.50   11.70 
  10  -1 -11    1.10    8.40 
   1  10 -11   16.10   27.60 
  -1 -10 -11  -16.80   18.90 
   1  10 -11   -2.40   34.60 
   1  10 -11   -1.80    9.80 
   1  10 -11   -2.30   15.00 
 -10   1 -11    0.80   19.50 
 -10   1 -11    2.80    7.30 
  10  -1  11    1.80    4.20 
 -10   1  11   -7.90   17.10 
  -1 -10  11    2.10    5.90 
   1  10  11    6.10    5.40 
   1  10  11    7.20    5.60 
   0   0 -12 3973.50  259.87 
   0   0 -12 3689.63  253.87 
   0   0 -12 3126.39  252.27 
   0   0 -12 3872.71  247.18 
   1  -1 -12   28.30    9.00 
  -1  -1 -12   25.60    8.90 
   1  -1 -12   47.00   12.50 
   1   1 -12   19.70    3.00 
   1   1 -12   24.10    4.90 
   1   1 -12   21.80    8.20 
  -1   1 -12   19.10    9.60 
  -1  -1 -12   37.70   11.80 
  -1  -1 -12   19.10    5.20 
  -1  -1 -12   16.10    9.50 
   1   1 -12   26.20   11.20 
   1  -1 -12   21.00    3.70 
  -1   1 -12   14.20    8.10 
   1   1 -12   19.90    9.20 
  -1   1 -12    8.00   11.70 
  -1   1 -12   20.70    4.10 
   0  -2 -12  139.79   16.20 
   2   0 -12  151.78   17.30 
  -2   0 -12  124.09   14.40 
   0   2 -12  150.08   14.70 
  -2   0 -12  135.69   11.50 
   0  -2 -12  132.69   10.80 
   2   0 -12  130.99   17.90 
   2   0 -12  138.09   12.30 
   0   2 -12  213.48   30.60 
   2   0 -12  116.79   10.90 
   0   2 -12  138.09   10.30 
   2   0 -12  144.09   19.20 
   0   2 -12  132.59   20.20 
   0   2 -12  138.39   13.70 
   0   2 -12  147.09   10.90 
   0  -2 -12  155.08   15.60 
  -2   0 -12  126.89   12.10 
  -2   0  12  134.29   10.90 
  -2  -2 -12  768.32   56.09 
   2   2 -12  610.94   52.59 
   2   2 -12  821.02   61.69 
  -2   2 -12  759.92   49.50 
  -2  -2 -12  734.43   50.79 
   2   2 -12  739.43   50.39 
  -2  -2 -12  743.73   53.29 
  -2   2 -12  797.62   51.69 
  -2   2 -12  672.63   52.09 
   2  -2 -12  735.63   53.59 
   2   2 -12  729.23   54.99 
  -2   2 -12  723.53   50.19 
  -2   2 -12  721.13   64.09 
   2   2 -12  744.03   52.49 
   2   2 -12  658.23   60.69 
  -2   2 -12  722.53   50.69 
   2  -2 -12  701.53   56.19 
  -2   2 -12  645.64   49.70 
  -2  -2  12  744.23   56.69 
  -2   2  12  763.92   50.69 
   1  -3 -12  888.31   64.59 
   1  -3 -12  834.52   63.59 
   3   1 -12  932.61   61.89 
   3   1 -12  923.31   68.69 
  -3  -1 -12  868.21   64.19 
  -1   3 -12  867.61   60.79 
  -3  -1 -12  894.51   62.89 
  -3  -1 -12  868.01   65.59 
  -1   3 -12  910.01   60.79 
   3   1 -12  923.91   66.39 
  -1   3 -12  890.51   75.69 
   1  -3 -12  841.42   63.99 
  -1   3 -12  868.81   62.89 
   3   1 -12  889.81   72.39 
   3   1 -12  890.51   63.19 
   1  -3 -12  887.81   78.89 
  -1   3  12  890.31   60.59 
  -3  -1  12  858.51   61.79 
  -1  -3 -12  881.51   61.59 
  -3   1 -12  905.51   61.79 
   3  -1 -12  903.21   64.39 
  -1  -3 -12  809.82   67.79 
   3  -1 -12  980.40   69.49 
   3  -1 -12  951.50   62.69 
   1   3 -12  900.21   61.29 
   3  -1 -12  864.71   69.39 
   1   3 -12  931.01   63.49 
   1   3 -12  912.91   78.79 
   1   3 -12  858.21   63.99 
  -3   1 -12  829.82   69.39 
  -3   1 -12  831.72   59.79 
  -1  -3 -12  938.81   65.39 
  -3   1 -12  890.81   61.09 
  -1  -3 -12  958.40   66.69 
   1   3 -12  876.91   59.49 
  -1  -3 -12  823.72   66.39 
   1   3 -12  904.21   59.89 
  -1  -3 -12 1000.10   74.19 
   1   3 -12  830.82   73.59 
  -3   1  12  949.71   62.49 
   3  -1  12  826.02   59.59 
  -1  -3  12  883.51   69.59 
   3   3 -12  233.88   27.00 
   3   3 -12  214.88   28.60 
  -3  -3 -12  222.48   19.20 
   3   3 -12  217.98   20.50 
   3   3 -12  224.98   18.10 
  -3   3 -12  205.98   23.50 
   3   3 -12  223.98   17.40 
   3  -3 -12  240.58   23.70 
  -3  -3 -12  208.08   20.80 
  -3   3 -12  227.48   17.50 
  -3  -3 -12  197.38   20.20 
   3   3  12  206.18   15.90 
  -3  -3  12  232.88   23.10 
  -3   3  12  274.57   20.20 
   3  -3  12  206.98   16.80 
  -3  -3  12  223.98   19.10 
   4   2 -12  778.82   52.79 
   4   2 -12  755.72   65.29 
   4   2 -12  703.63   54.69 
  -4  -2 -12  768.82   53.99 
  -2   4 -12  686.93   55.49 
  -2   4 -12  790.02   50.49 
   4   2 -12  710.33   55.19 
  -4  -2 -12 1026.60  147.19 
   2  -4 -12  855.81   73.49 
   4   2 -12  665.13   56.79 
  -4  -2 -12  740.63   53.49 
  -4  -2 -12  716.63   55.29 
   2  -4 -12  767.42   52.19 
  -4  -2 -12  759.52   50.89 
  -2   4 -12  695.93   49.60 
  -2   4 -12  784.72   50.59 
  -2   4 -12  698.53   68.19 
  -2   4 -12  701.83   52.29 
  -4  -2  12  742.13   55.49 
  -4  -2  12  715.93   53.69 
   0  -4 -12    2.60   16.40 
   0  -4 -12    9.80   13.80 
   4   0 -12    8.10    9.80 
   0   4 -12   -4.50    5.60 
   0   4 -12    6.80   14.70 
  -4   0 -12   -1.10    8.00 
   0  -4 -12    9.00   15.80 
   4   0 -12   20.70   14.60 
   4   0 -12    4.10    5.10 
  -4   0 -12    0.60    2.80 
   0   4 -12   -1.80    2.30 
   4   0 -12    4.30    3.90 
   0   4 -12   -2.70    3.40 
   0   4 -12   -0.20    3.70 
  -4   0 -12   17.90   21.10 
   0  -4 -12    1.30    5.10 
   0  -4 -12   -3.30    6.10 
  -4   0 -12    8.00    4.20 
  -4   0 -12    1.80    1.80 
   4   0 -12    0.30    3.60 
   0   4 -12    4.80    8.40 
  -4   0  12   -3.00    3.40 
  -4   0  12    0.70    9.50 
   0   4  12    0.60    2.10 
   4   0  12    9.80    2.80 
  -2  -4 -12  757.92   54.49 
   4  -2 -12  822.02   60.99 
   2   4 -12  861.31   69.09 
  -2  -4 -12  646.04   58.99 
   4  -2 -12  739.53   56.69 
  -4   2 -12  699.73   68.39 
   2   4 -12  740.63   53.29 
   2   4 -12  782.22   52.19 
  -2  -4 -12  692.13   55.19 
   2   4 -12  739.43   66.19 
  -2  -4 -12  744.83   52.89 
  -4   2 -12  755.52   51.79 
  -2  -4 -12  758.82   56.29 
  -2  -4 -12  739.13   59.29 
   2   4 -12  698.53   54.89 
  -4   2 -12  703.53   51.69 
   2   4  12  745.33   50.99 
   2   4  12  694.43   49.90 
  -4   2  12  721.43   53.79 
   4  -2  12  665.43   50.29 
   4  -2  12  714.63   50.69 
   4   4 -12  785.02   51.19 
   4   4 -12  698.53   62.09 
  -4  -4 -12  671.03   54.89 
  -4  -4 -12  770.42   56.09 
   4   4 -12  761.12   53.69 
  -4  -4 -12  722.13   55.89 
  -4   4 -12  816.32   52.89 
   4   4 -12  765.72   57.19 
   4   4 -12  682.53   67.69 
   4   4  12  783.82   53.39 
   4  -4  12  677.33   50.69 
   4  -4  12  752.92   52.79 
  -4  -4  12  793.42   55.49 
   4   4  12  712.53   51.19 
  -3   5 -12  155.18   28.30 
   3  -5 -12  226.08   39.10 
   5   3 -12  177.08   22.40 
  -5  -3 -12  180.78   15.70 
   5   3 -12  175.88   19.70 
  -5  -3 -12  177.08   17.40 
  -5  -3 -12  167.88   17.80 
   5   3 -12  178.48   28.60 
  -5  -3 -12  187.08   21.30 
   5   3 -12  184.68   17.60 
   5   3 -12  193.88   17.10 
  -5  -3  12  178.18   19.00 
  -5  -3  12  171.48   19.90 
   5   3  12  205.68   17.40 
  -5  -3  12  219.88   15.30 
   1  -5 -12  106.59   33.80 
   5   1 -12   54.99   16.00 
  -1   5 -12   45.30   24.30 
   5   1 -12   42.60    8.80 
   1  -5 -12   64.79   31.00 
   5   1 -12   53.99   11.20 
  -5  -1 -12   60.29    9.20 
  -1   5 -12   47.40   18.00 
  -5  -1 -12   66.19    7.00 
   1  -5 -12   65.69   11.20 
  -5  -1 -12   61.49    8.00 
  -1   5 -12   51.89   15.00 
   5   1 -12   55.69    8.90 
  -1   5 -12   63.79    8.30 
  -5  -1 -12   59.29   17.40 
   5   1 -12   88.69   20.00 
   1  -5 -12   41.20   12.60 
  -1   5 -12   58.79    6.60 
  -5  -1  12   54.49    9.70 
   5   1  12   48.70    7.20 
  -1   5  12   74.29    7.70 
  -1   5  12   60.19    8.80 
  -5  -1  12   52.29    9.20 
   5  -1 -12   55.79   12.10 
  -5   1 -12   15.10   40.50 
   1   5 -12   56.49    7.90 
  -5   1 -12   57.59    5.30 
   5  -1 -12   62.29   18.00 
  -1  -5 -12   44.40   14.60 
  -5   1 -12   55.69    8.40 
   5  -1 -12   41.70    8.30 
   1   5 -12   52.69   12.20 
  -1  -5 -12   54.69   17.50 
  -5   1 -12   17.10   12.80 
  -5   1 -12   46.60    7.20 
  -1  -5 -12   62.19   13.00 
   1   5 -12   74.79   23.90 
   1   5 -12   57.19   19.20 
   1   5 -12   73.99    9.80 
  -1  -5 -12   29.60   11.90 
  -5   1  12   66.49   16.50 
   5  -1  12   54.49    7.10 
  -5   1  12   54.79   10.00 
   1   5  12   43.90    5.70 
   1   5  12   57.19    7.30 
  -3  -5 -12  143.39   19.00 
  -3  -5 -12  189.28   21.60 
  -5   3 -12  183.08   16.30 
  -3  -5 -12  200.18   27.10 
   3   5 -12  171.48   16.60 
   3   5 -12  179.98   30.10 
  -3  -5 -12  181.18   19.30 
   3   5 -12  163.98   31.00 
   3   5 -12  165.98   20.00 
  -5   3  12  225.88   20.40 
  -5   3  12  238.18   23.80 
   3   5  12  190.38   16.40 
   3   5  12  169.38   14.30 
   5  -3  12  174.78   14.60 
   5  -3  12  171.78   16.00 
   5   5 -12   78.49   23.00 
  -5   5 -12   95.29   11.30 
  -5  -5 -12   90.29   13.70 
  -5   5 -12   45.00   24.40 
  -5  -5 -12   65.29   12.20 
   5   5 -12   72.69   13.80 
  -5  -5 -12  102.29   32.70 
   5   5 -12   63.39   17.90 
   5  -5 -12   69.59   13.90 
   5   5 -12   76.89   11.10 
   5   5 -12   82.29    8.40 
   5  -5 -12  186.38   30.50 
   5   5  12   71.89   10.90 
   5   5  12   61.29    7.90 
  -5  -5  12   99.59   14.10 
  -5  -5  12   69.89   12.10 
   5  -5  12   68.19    7.90 
   5  -5  12   79.89   10.70 
  -4   6 -12   -7.50   17.00 
  -6  -4 -12    8.10    6.20 
  -4   6 -12    1.20   19.50 
   4  -6 -12    4.10    7.50 
   6   4 -12    2.10    8.50 
  -4   6 -12    2.60    6.20 
  -6  -4 -12   -0.30    4.30 
   6   4 -12    4.00    4.90 
   4  -6 -12  -12.60   17.10 
  -6  -4 -12    1.80    6.40 
   6   4 -12   14.30   14.40 
   4  -6 -12    5.90   23.30 
  -4   6 -12   -3.80   11.60 
   6   4 -12    2.60    7.30 
  -6  -4  12    0.10    7.50 
  -6  -4  12    0.30    7.30 
   4  -6  12   -0.40    2.40 
   4  -6  12   -0.60    4.20 
   6   4  12    1.00    5.00 
  -4   6  12    2.50    5.10 
  -2   6 -12   70.79   23.60 
   2  -6 -12   53.29   37.60 
   2  -6 -12   83.49   35.00 
   6   2 -12   65.99   13.40 
  -6  -2 -12   65.09   10.50 
   2  -6 -12   63.99   10.60 
   6   2 -12   53.89   11.00 
  -2   6 -12   31.70   27.10 
   6   2 -12   40.70   13.10 
   6   2 -12   67.59   10.00 
  -6  -2 -12   65.09    9.60 
   6   2 -12   69.29   19.60 
  -2   6 -12   60.09   10.10 
  -6  -2 -12   62.39    9.40 
  -2   6 -12   49.60   19.30 
  -2   6  12   85.49    9.20 
  -6  -2  12   79.19   11.70 
   6   2  12   52.49    8.60 
  -6  -2  12   72.19   12.80 
   6   2  12   84.49   11.70 
   0  -6 -12 1241.58  107.79 
   0   6 -12 1272.07   95.59 
   0   6 -12 1218.08   85.39 
  -6   0 -12 1286.77   86.69 
  -6   0 -12 1307.37   87.69 
  -6   0 -12 1174.98   84.99 
   6   0 -12 1278.67   88.59 
   6   0 -12 1339.57   93.19 
   0   6 -12 1149.78  106.79 
   6   0 -12 1438.06  101.89 
   0   6 -12 1075.69  115.39 
   0  -6 -12 1374.46  112.29 
   0   6 -12 1225.28   87.69 
  -6   0 -12 1202.48  121.19 
   0   6  12 1276.77   88.09 
   6   0  12 1132.89   86.89 
  -6   2 -12   60.49    9.50 
   6  -2 -12   69.09   14.80 
  -2  -6 -12   58.39   15.90 
   2   6 -12   62.79   25.40 
  -2  -6 -12   72.89   17.70 
  -6   2 -12   21.30   15.50 
   2   6 -12   55.99   13.50 
   2   6 -12   56.69    9.20 
   2   6 -12   62.49   20.90 
   6  -2 -12  104.39   13.30 
  -2  -6 -12   61.19   14.30 
   6  -2 -12   99.19   20.90 
   2   6  12   59.69    7.10 
   2   6  12   74.09   10.60 
  -6   2  12   69.19   12.70 
   6  -4 -12    1.30    8.40 
   4   6 -12    7.80   14.30 
  -6   4 -12    0.10   16.00 
   4   6 -12    0.30    4.70 
  -4  -6 -12   -7.30   13.00 
   4   6 -12   -1.70    7.00 
   6  -4 -12   -9.60   12.90 
  -4  -6 -12    0.20    7.90 
   6  -4 -12   16.90   15.00 
   4   6 -12   -0.20    7.00 
  -4  -6 -12   -3.70    7.30 
   4   6 -12   -3.30   13.50 
   6  -4  12    4.90    5.30 
   6  -4  12    0.20    4.20 
  -6   4  12    3.30    7.40 
  -4  -6  12    1.10    8.00 
   4   6  12    0.60    2.90 
   4   6  12    9.90    5.00 
   6   6 -12  467.25   34.30 
  -6   6 -12  549.95   38.80 
   6   6 -12  510.65   59.19 
  -6   6 -12  422.26   53.49 
  -6  -6 -12  474.85   40.30 
  -6  -6 -12  457.75   39.60 
   6   6 -12  498.55   43.80 
   6   6 -12  453.05   37.80 
   6   6 -12  396.36   45.50 
   6   6  12  419.66   34.60 
  -6  -6  12  572.44   43.70 
  -6  -6  12  470.85   41.60 
   6  -6  12  452.15   34.00 
   7   5 -12   11.80    9.40 
  -7  -5 -12    1.30    5.30 
   5  -7 -12    9.20   10.90 
   7   5 -12    8.80    6.60 
   5  -7 -12    0.80   21.90 
   7   5 -12  -10.60   14.00 
   7   5 -12    6.40   10.90 
   7   5 -12    6.70    8.80 
  -7  -5 -12    7.40    8.40 
  -5   7 -12  -10.10   13.70 
  -5   7 -12  -23.70   20.20 
  -5   7 -12   11.40   22.40 
   5  -7 -12   63.69   32.90 
  -7  -5  12   14.10   13.40 
   5  -7  12    3.60    3.80 
  -7  -5  12   13.80   10.60 
  -5   7  12   15.50    6.20 
  -5   7  12   10.80    4.30 
  -5   7  12    7.20    6.40 
  -3   7 -12  404.26   36.30 
   7   3 -12  500.65   53.19 
  -3   7 -12  352.46   49.99 
   7   3 -12  442.96   35.20 
  -7  -3 -12  433.06   34.10 
   3  -7 -12  709.83   86.69 
   7   3 -12  468.65   40.50 
  -7  -3 -12  442.46   34.60 
   7   3 -12  464.95   38.60 
  -3   7 -12  367.56   57.59 
  -3   7 -12  296.77   63.49 
  -7  -3 -12  397.36   35.40 
   3  -7 -12  686.03   85.09 
   7   3  12  456.65   36.10 
  -7  -3  12  411.66   38.90 
  -7  -3  12  444.66   37.20 
  -1   7 -12    2.90   15.10 
  -1   7 -12   -2.70    5.10 
  -1   7 -12  -13.30   10.20 
  -7  -1 -12   -0.50    5.10 
   7   1 -12    4.50   13.00 
   7   1 -12   -2.10    8.40 
   1  -7 -12    3.20   28.60 
  -7  -1 -12    4.40    4.40 
  -1   7 -12  -10.40    7.20 
   1  -7 -12   -5.90   22.80 
  -1   7 -12   -0.10   24.80 
  -1   7 -12    0.30    3.70 
  -7  -1 -12    5.90    5.90 
   1  -7 -12   -4.30    9.00 
   7   1 -12   -0.90    4.90 
  -7  -1  12    1.20    8.60 
  -7  -1  12   -2.20    4.80 
  -7  -1  12    1.20    6.00 
  -1   7  12    2.60    6.20 
  -1   7  12   -0.70    3.10 
   7   1  12    5.40    5.00 
   7   1  12   -4.50    8.30 
   1   7 -12   -4.70    6.70 
   7  -1 -12    9.30   12.50 
   1   7 -12    3.90    8.30 
  -1  -7 -12  -16.50   14.50 
   1   7 -12   -0.80    9.80 
  -1  -7 -12   19.20   11.80 
  -7   1 -12    4.30   12.90 
   1   7 -12   -0.40   20.30 
   7  -1 -12   -2.80    7.20 
  -7   1 -12   -7.60    5.00 
  -1  -7 -12   -2.70   11.80 
   1   7 -12    9.40   14.50 
   7  -1 -12    9.40   10.50 
  -7   1  12    9.50    8.60 
   1   7  12   -0.60    5.10 
  -7   1  12   -1.40    5.50 
   1   7  12   -1.90    2.80 
   7  -1  12    7.20    5.70 
  -7   1  12   -0.20    5.00 
   3   7 -12  323.87   36.60 
   3   7 -12  429.86   54.29 
  -3  -7 -12  430.96   41.50 
   3   7 -12  402.56   39.20 
  -7   3 -12  475.95   34.20 
   3   7 -12  387.56   58.59 
   3   7 -12  421.76   34.40 
  -3  -7 -12  446.36   40.40 
   3   7  12  406.76   33.80 
   3   7  12  423.06   31.30 
   7  -3  12  408.76   34.90 
  -7   3  12  519.15   40.40 
  -5  -7 -12    3.00    8.60 
   5   7 -12   13.60    7.00 
   7  -5 -12   27.00   15.40 
  -7   5 -12   -7.20   18.20 
  -5  -7 -12   -1.70    8.80 
   7  -5 -12   21.70   19.20 
   5   7 -12   14.20    9.20 
  -7   5 -12   19.70    8.00 
   5   7 -12   15.60   15.80 
   5   7 -12    5.50   17.30 
  -7   5  12    7.80   11.30 
  -5  -7  12   15.50   14.20 
  -7   5  12   10.50    7.60 
   5   7  12    7.10    4.40 
  -7   5  12   12.00    6.10 
  -8  -4 -12   78.29   13.60 
   4  -8 -12  254.97   60.29 
  -8  -4 -12   87.29   13.90 
  -4   8 -12   47.60   25.40 
   8   4 -12   88.59   21.90 
   8   4 -12   94.89   17.60 
   8   4 -12   94.69   14.30 
  -4   8 -12   54.29   28.10 
   8   4 -12   82.19   25.80 
   4  -8 -12   53.69   15.00 
   4  -8 -12  143.99   41.60 
  -4   8 -12   93.89   37.50 
  -8  -4  12  104.79   19.40 
  -4   8  12  103.49   13.30 
  -8  -4  12   94.49   10.70 
  -4   8  12   88.39    8.40 
  -2   8 -12   87.59   26.50 
   8   2 -12  102.09   19.70 
   8   2 -12   96.89   14.10 
  -8  -2 -12   77.29   11.50 
  -2   8 -12   63.29   37.90 
   2  -8 -12  152.58   50.99 
   2  -8 -12   86.59   14.80 
  -2   8 -12   73.39   16.00 
   8   2 -12  117.89   27.20 
  -8  -2 -12  117.99   14.20 
   2  -8 -12   58.49   48.20 
  -2   8 -12  102.79   33.20 
  -8  -2  12   99.19   14.60 
  -8  -2  12   93.19   18.10 
  -2   8  12   85.29   10.50 
   8   0 -12   94.59   14.60 
   0  -8 -12   93.09   21.40 
   0   8 -12  120.99   15.40 
   0  -8 -12   80.69   33.70 
   0   8 -12   52.59   42.60 
   0   8 -12   97.19   31.70 
  -8   0 -12   97.89   10.40 
   8   0 -12  144.09   20.10 
   0   8 -12   77.09   18.10 
  -8   0 -12  113.09   13.60 
   0  -8 -12  103.59   36.70 
   0   8 -12  111.39   23.70 
   0   8 -12  128.69   12.80 
   8   0  12  125.39   12.20 
   0   8  12   85.99   10.90 
  -8   0  12   83.69   18.00 
   2   8 -12   89.79   37.40 
  -2  -8 -12   64.79   19.00 
   2   8 -12  101.19   20.50 
  -8   2 -12   88.69   13.20 
  -2  -8 -12   97.39   23.20 
  -8   2 -12   86.89   27.10 
   8  -2 -12   72.49   13.80 
  -2  -8 -12   96.39   25.80 
   8  -2 -12  156.88   28.30 
   2   8 -12   90.49   14.40 
   2   8 -12   56.79   26.70 
   8  -2 -12  130.39   24.10 
  -8   2  12  130.69   14.90 
  -8   2  12  129.79   16.60 
  -8   2  12  135.09   21.50 
   2   8  12   90.59   10.80 
   4   8 -12   78.59   13.10 
  -4  -8 -12   79.49   17.90 
  -8   4 -12   31.90   23.40 
  -4  -8 -12   73.29   18.90 
   4   8 -12   92.69   19.70 
  -8   4 -12   99.69   14.20 
   4   8 -12   95.09   29.60 
   4   8  12   81.49   10.60 
  -8   4  12  101.69   20.40 
  -8   4  12  133.29   20.20 
  -8   4  12  124.89   17.30 
   9   3 -12   25.50   14.20 
  -3   9 -12   46.00   32.50 
   9   3 -12   32.50   20.50 
  -3   9 -12    9.00   10.90 
  -9  -3 -12   14.60    8.80 
   3  -9 -12   59.79   54.09 
  -3   9 -12  -12.00   20.90 
  -9  -3 -12   22.70    8.80 
   3  -9 -12   44.80   47.40 
  -3   9 -12   15.50   25.10 
   9   3 -12   16.00    9.10 
  -3   9  12   21.40    6.70 
  -9  -3  12    7.30    6.00 
  -9  -3  12   13.40   16.10 
  -9  -1 -12  136.79   16.00 
  -1   9 -12  102.79   36.90 
  -1   9 -12  118.89   29.90 
  -1   9 -12  128.39   19.00 
  -1   9 -12  115.39   13.80 
   1  -9 -12   27.30   44.00 
   1  -9 -12  120.49   55.79 
   9   1 -12   97.99   16.00 
  -1   9 -12  110.89   49.70 
   9   1  12  117.79   14.90 
  -9  -1  12   88.59   20.20 
  -9  -1  12  136.19   13.80 
  -9  -1  12  185.28   24.40 
  -1   9  12   94.99   12.20 
   1   9 -12  114.49   25.60 
  -9   1 -12  163.68   36.10 
   1   9 -12   75.59   41.10 
   1   9 -12  105.19   36.50 
  -1  -9 -12   81.69   30.70 
  -9   1 -12  133.19   15.60 
  -1  -9 -12   89.29   34.60 
  -1  -9 -12  107.69   25.30 
   9  -1 -12   90.79   15.40 
   1   9 -12  114.89   16.90 
   9  -1 -12  136.69   29.20 
  -9   1  12  144.39   25.10 
   1   9  12  109.79   12.40 
   3   9 -12   21.80    9.70 
   9  -3 -12   27.30   11.90 
   3   9 -12   10.90   22.80 
   9  -3 -12   11.00   23.00 
   9  -3 -12   41.20   17.50 
  -9   3 -12   24.10   22.00 
  -3  -9 -12   30.70   16.40 
  -3  -9 -12    1.00   16.50 
   3   9 -12   48.20   29.60 
   3   9 -12   29.80   14.30 
  -9   3 -12   19.10    7.90 
  -9   3  12   23.20   14.50 
   3   9  12   23.10    6.50 
  -9   3  12   37.50   10.30 
   0   1 -13   -5.50    2.90 
   1   0 -13    4.20    8.90 
   0  -1 -13   -2.60   10.80 
  -1   0 -13   -3.70    8.40 
  -1   0 -13    7.90    9.60 
   0  -1 -13    6.10    5.20 
   0   1 -13   -1.50   10.50 
  -1   0 -13    0.40    6.00 
  -1   0 -13    3.20    3.80 
   1   0 -13    2.50    2.50 
   0  -1 -13   -0.90    8.40 
   1   0 -13   -7.10    5.70 
   0   1 -13    2.50    7.70 
   0  -1 -13    4.50    6.70 
   0   1 -13    3.20    3.20 
   1  -2 -13  109.19   21.20 
  -2  -1 -13  116.79   14.00 
   2   1 -13   72.39    7.90 
  -1   2 -13   57.49   12.10 
  -2  -1 -13   87.99   13.60 
  -1   2 -13   92.99   11.40 
  -2  -1 -13   83.69   10.20 
  -2  -1 -13  105.49   16.30 
   2   1 -13   89.19    9.60 
   2   1 -13   52.99   15.10 
  -2  -1 -13   58.29   14.90 
   1  -2 -13   79.79   13.70 
   2   1 -13   94.39   15.60 
  -1   2 -13   56.69   20.20 
  -1   2 -13   85.89    9.60 
   1  -2 -13  121.29   17.60 
  -1   2 -13   83.19   19.70 
   1  -2 -13   95.09   11.90 
  -1   2 -13   53.59   11.90 
  -1   2 -13   82.19    7.90 
   2   1 -13   90.49   16.40 
   1   2 -13   77.09   13.00 
   1   2 -13   96.59    8.50 
   1   2 -13  102.29   22.70 
   2  -1 -13   84.49   10.00 
  -1  -2 -13   95.79   13.40 
  -2   1 -13   72.29    9.90 
   2  -1 -13   90.19   15.50 
   1   2 -13   82.59   18.30 
  -1  -2 -13   67.59   14.00 
  -1  -2 -13  111.89   21.10 
  -1  -2 -13   81.49   13.50 
  -2   1 -13   84.49   11.30 
   1   2 -13   87.89   10.00 
   1   2 -13   92.59    7.70 
   2  -1 -13   94.89   15.30 
  -1  -2 -13   85.69    7.30 
   2  -1 -13  101.59   13.00 
  -2   1 -13   87.29    9.10 
  -2   1 -13   79.69   19.50 
   1   2 -13   83.59   12.90 
  -2   3 -13   32.20    4.90 
  -3  -2 -13   59.69   66.79 
  -3  -2 -13   34.20    8.50 
   2  -3 -13   30.90   15.80 
   3   2 -13   43.10    8.30 
   3   2 -13   40.50    6.10 
  -2   3 -13   15.90   16.40 
  -2   3 -13   16.00   10.50 
  -2   3 -13   52.29   16.40 
  -2   3 -13   34.20    5.10 
  -2   3 -13   37.50    5.20 
  -2   3 -13   25.50    8.00 
   2  -3 -13   41.90    9.90 
   2  -3 -13   53.29    8.70 
  -3  -2 -13   30.20    7.20 
  -2   3 -13   43.50    6.50 
  -3  -2 -13   27.10    7.30 
   3   2 -13   25.00   12.30 
   2  -3 -13   22.50    8.70 
   3   2 -13   32.10   10.80 
   3   2 -13   33.40    9.90 
  -3  -2  13   44.40   10.70 
  -2   3  13   42.80    6.10 
  -3  -2  13   34.40    6.40 
  -3   0 -13    1.80    3.90 
   0   3 -13   -7.00   14.40 
   0  -3 -13   -4.60   15.30 
   0  -3 -13  -16.90   15.90 
   0   3 -13    4.30    4.00 
  -3   0 -13   -5.30   18.50 
  -3   0 -13    1.20    3.20 
  -3   0 -13   -0.80    8.00 
   3   0 -13    3.70    2.90 
   3   0 -13    2.40    5.00 
   0   3 -13    4.80    5.00 
   0   3 -13    1.50    2.10 
   3   0 -13   -6.50   13.00 
   3   0 -13    0.00    4.30 
   0  -3 -13    2.40    5.10 
   0   3 -13    6.20    5.00 
   0   3 -13    1.80    1.50 
   0   3 -13    5.80    5.40 
   0   3 -13   -1.40    2.20 
   0   3 -13   -5.60    7.70 
   0  -3 -13    5.40    7.50 
   0  -3 -13    1.00    4.10 
   0  -3 -13    2.70    6.70 
  -3   0  13    2.40    9.80 
  -3   0  13    4.30    2.90 
   2   3 -13   33.50    5.50 
  -3   2 -13   42.40    6.20 
  -3   2 -13   34.90    4.70 
   2   3 -13   16.00    9.70 
  -3   2 -13   35.90    4.60 
  -2  -3 -13   33.40    7.50 
  -3   2 -13    2.30   10.80 
  -2  -3 -13   42.90   12.10 
  -3   2 -13   33.40    4.80 
   2   3 -13   29.00   12.60 
   2   3 -13   36.30    5.40 
  -2  -3 -13   30.70    9.10 
  -2  -3 -13   33.30    6.10 
  -2  -3 -13   70.49   48.00 
   3  -2 -13   32.40   11.50 
   2   3 -13   31.30    7.70 
  -3   2 -13   34.40   12.80 
   2   3 -13   36.40    5.20 
  -2  -3 -13   40.30    9.20 
   3  -2 -13   35.70    9.00 
  -3   2  13   37.60    6.40 
  -2  -3  13   37.50   12.60 
   4   3 -13   13.10    6.00 
   3  -4 -13   17.60    9.40 
   3  -4 -13    7.30    4.90 
  -3   4 -13   17.10    4.60 
  -3   4 -13    6.20    4.10 
  -4  -3 -13   20.20    7.60 
  -3   4 -13   -1.30   10.50 
   3  -4 -13   52.79   18.50 
  -4  -3 -13  -35.70   59.49 
   4   3 -13   11.50    4.70 
  -3   4 -13    8.00   11.20 
  -3   4 -13   18.70    4.90 
  -4  -3 -13    8.50    6.00 
   4   3 -13    8.50    8.80 
  -3   4 -13   15.00   15.80 
  -4  -3 -13   13.60    7.10 
   3  -4 -13   -6.50   12.10 
   4   3 -13   14.00   12.00 
  -3   4 -13    2.30   11.10 
   4   3  13   15.50    2.60 
  -4  -3  13    6.60    5.30 
  -4  -3  13   17.30    9.40 
   4   3  13   17.80    4.10 
  -3   4  13   18.70    5.70 
   1  -4 -13    5.80   20.80 
  -1   4 -13    3.80   11.20 
  -4  -1 -13    8.20    4.60 
  -1   4 -13    5.30    3.60 
   1  -4 -13   27.70   19.80 
   1  -4 -13    0.20    6.40 
  -1   4 -13    4.60    6.20 
   4   1 -13    0.30    3.80 
  -1   4 -13   14.20   16.10 
  -1   4 -13    3.10    8.40 
   4   1 -13   -2.60    4.90 
  -4  -1 -13    2.80   10.70 
  -1   4 -13    3.30    2.90 
  -4  -1 -13   -4.10    3.60 
  -1   4 -13    4.40    3.30 
   4   1 -13   12.90   14.30 
   4   1 -13   -1.70    5.30 
   4   1 -13   -4.70    7.40 
   1  -4 -13   -2.20    8.10 
  -4  -1  13    4.90    3.90 
  -1   4  13    4.40    3.20 
  -1   4  13    5.40    2.90 
  -4   1 -13    0.50    8.60 
  -1  -4 -13    1.70    8.90 
  -1  -4 -13   -0.10    9.10 
  -4   1 -13    7.50    4.40 
  -1  -4 -13    0.00    4.70 
  -1  -4 -13   -6.50   13.00 
   1   4 -13    0.40    4.30 
  -1  -4 -13   29.40   20.20 
   4  -1 -13    1.80    8.50 
  -4   1 -13    0.50    1.90 
   1   4 -13    5.10    2.90 
  -4   1 -13   23.30   30.90 
   1   4 -13   13.50   13.90 
  -1  -4 -13   -4.20    6.80 
   4  -1 -13    3.10    5.60 
   1   4 -13    5.10    5.20 
   1   4 -13   -1.00    5.30 
  -4   1 -13    2.10    2.50 
  -1  -4 -13   -4.70    4.50 
   1   4 -13    2.90    9.50 
  -4   1  13    1.70    4.00 
   1   4  13    0.60    2.10 
  -4   1  13    2.50   10.20 
   4  -1  13    1.50    1.50 
   1   4  13    2.40    1.80 
  -3  -4 -13    0.90   26.60 
   4  -3 -13   18.00    9.60 
   3   4 -13   16.30   12.60 
   4  -3 -13   20.10   11.40 
  -3  -4 -13   33.30    9.90 
  -4   3 -13   -6.60   11.30 
  -4   3 -13   12.00    4.60 
   3   4 -13   18.10    4.90 
   4  -3 -13    8.50    4.90 
  -3  -4 -13   16.70    7.70 
  -4   3 -13    7.10   18.50 
   3   4 -13   14.70    1.90 
   3   4 -13   15.20    2.00 
  -3  -4 -13   22.30    7.40 
   3   4 -13   21.60   13.30 
   3   4 -13   14.10   10.40 
  -4   3 -13    8.50    4.60 
  -4   3  13   17.50    6.20 
   3   4  13   13.70    2.90 
   4  -3  13   10.20    3.10 
   3   4  13    7.80    3.70 
  -4   3  13   32.70   10.70 
  -5  -4 -13   -4.30    6.60 
  -5  -4 -13   -2.10    5.90 
   5   4 -13    8.90    9.40 
   5   4 -13    2.50   12.30 
   4  -5 -13    0.70   17.60 
   4  -5 -13    0.10    5.70 
   5   4 -13   -4.80    4.50 
   5   4 -13    2.80    7.00 
  -4   5 -13   12.70   14.60 
  -4   5 -13   -0.50    5.70 
  -4   5 -13    3.30   12.70 
   4  -5 -13   -2.60   15.10 
   5   4 -13   -4.60    5.00 
  -4   5 -13   14.80   18.70 
  -4   5  13   -3.50    4.80 
   4  -5  13    2.20    3.30 
  -5  -4  13   -1.80    6.20 
   5   4  13    3.10    4.50 
   5   4  13    1.50    2.40 
   5   2 -13   51.19   13.70 
  -5  -2 -13   62.29    7.20 
  -5  -2 -13   67.59   10.50 
   5   2 -13   60.09    9.10 
   2  -5 -13   73.89   28.70 
  -2   5 -13   57.49    8.60 
  -5  -2 -13   63.59   14.60 
  -2   5 -13   18.10   21.10 
  -2   5 -13   44.00   19.40 
  -5  -2 -13   52.19    8.90 
   5   2 -13   52.79   17.50 
   5   2 -13   59.49   11.90 
  -2   5 -13   54.99   17.40 
   5   2 -13   62.99   12.60 
   2  -5 -13  124.89   36.00 
  -5  -2  13   44.80   10.00 
  -5  -2  13   65.79   12.10 
  -2   5  13   88.69    9.20 
   5   2  13   69.19    7.80 
   0   5 -13    4.60    4.10 
   0   5 -13   -0.20    7.00 
   5   0 -13   -0.80    4.30 
   0  -5 -13    8.60   18.40 
   0  -5 -13    6.50    8.40 
   0  -5 -13    6.70    9.00 
   5   0 -13    2.10    6.20 
   5   0 -13   -4.90    9.70 
  -5   0 -13    0.10    3.30 
  -5   0 -13   -0.10    9.60 
   0  -5 -13    2.00    7.90 
   0  -5 -13    5.40   19.60 
   0   5 -13    7.10   18.40 
   0   5 -13   -4.90    4.30 
   0   5 -13   16.00   13.10 
  -5   0 -13    1.80    2.30 
  -5   0 -13   -2.90    3.70 
  -5   0  13    1.90    5.10 
   5   0  13    0.50    2.40 
   0   5  13    0.60    3.10 
   0   5  13    0.60    2.30 
   5  -2 -13   88.49   11.80 
  -2  -5 -13   62.99   13.20 
  -2  -5 -13   55.89   16.60 
  -2  -5 -13   62.89    9.50 
  -2  -5 -13   50.79   13.40 
  -2  -5 -13   55.49   10.80 
  -2  -5 -13   62.49   13.00 
   2   5 -13   63.59   20.60 
   5  -2 -13   67.69   16.60 
   2   5 -13   65.29   12.50 
  -5   2 -13   55.39    8.20 
  -5   2 -13   23.80   13.90 
  -5   2 -13   45.80   43.90 
   2   5 -13   49.60    8.20 
   2   5 -13   54.69   22.60 
  -5   2  13   92.09   17.30 
  -5   2  13   70.39   11.50 
   5  -2  13   55.89    7.00 
   2   5  13   54.69    7.20 
   5  -2  13   59.29    7.30 
   2   5  13   57.49    7.70 
  -5   4 -13   -0.20    5.40 
   4   5 -13    4.60   11.10 
  -4  -5 -13    6.50    8.90 
   5  -4 -13   -3.10   12.90 
   4   5 -13   -6.60   11.50 
   5  -4 -13    8.40   12.80 
  -4  -5 -13    3.20    7.20 
   4   5 -13   -1.70    4.60 
  -5   4 -13    1.90    5.20 
   5  -4 -13    0.60    6.90 
  -5   4 -13    6.80   14.80 
   4   5 -13    3.00    6.90 
  -4  -5 -13   20.50   23.30 
   4   5  13    4.80    4.40 
   4   5  13    0.30    2.40 
  -5   4  13   -2.80    8.30 
   5  -4  13    6.10    4.00 
   5  -4  13   -2.70    4.10 
  -5   4  13    0.70    5.70 
   6   5 -13   22.50   13.00 
  -6  -5 -13   22.60   10.10 
  -6  -5 -13   28.40    9.60 
  -5   6 -13   42.00   10.10 
   6   5 -13   26.60   18.70 
  -5   6 -13   10.00   14.20 
   6   5 -13   41.30   12.70 
   5  -6 -13   15.40    9.30 
  -5   6 -13   20.90   18.40 
  -5   6 -13    8.10   20.80 
   6   5 -13   23.10    7.40 
   5  -6 -13   77.59   28.00 
   5  -6 -13   67.49   24.50 
   5  -6  13   33.40    5.00 
  -6  -5  13   38.90    9.90 
  -5   6  13   39.40    9.40 
  -3   6 -13    7.80   16.10 
   3  -6 -13   -0.60   25.10 
  -3   6 -13    9.00    5.90 
  -3   6 -13  -16.70   12.40 
   3  -6 -13    0.60   21.20 
   6   3 -13    7.10   12.40 
  -6  -3 -13    6.60    4.10 
   6   3 -13    3.50    8.00 
  -3   6 -13    2.90    6.30 
  -3   6 -13   13.20   23.60 
  -6  -3 -13   -0.10    6.10 
   3  -6 -13    3.30    6.20 
   6   3 -13   -9.90    9.40 
   6   3 -13    6.00    8.00 
  -6  -3 -13    1.80    5.90 
   6   3 -13    4.50    5.10 
  -6  -3  13    2.50    8.80 
  -6  -3  13    0.30    7.00 
   6   3  13    6.40    5.00 
  -3   6  13    3.30    4.70 
   1  -6 -13   38.50   27.80 
  -1   6 -13   33.40   20.00 
   6   1 -13   49.00    8.90 
   6   1 -13   40.20    7.60 
   6   1 -13   39.50   11.20 
  -6  -1 -13   38.00    8.00 
  -1   6 -13   43.20    8.20 
  -1   6 -13   19.10   25.80 
  -1   6 -13   30.90    5.40 
   6   1 -13   36.60   16.10 
   1  -6 -13   28.60    9.80 
   1  -6 -13   20.80   31.10 
  -6  -1 -13   40.80    6.50 
  -6  -1 -13   31.80    6.60 
  -1   6 -13   20.20   12.70 
  -1   6  13   48.80    6.80 
  -6  -1  13   51.49    8.20 
  -6  -1  13   42.80   10.20 
  -1   6  13   31.60    7.30 
   6   1  13   24.80    5.70 
   1   6 -13   33.30   11.20 
  -6   1 -13   23.30    5.90 
   1   6 -13   30.40    6.90 
   1   6 -13   33.80   23.40 
  -1  -6 -13   39.20   17.80 
  -6   1 -13   39.50    7.60 
   1   6 -13   41.50   19.90 
   6  -1 -13   34.50    8.20 
  -6   1 -13   17.70   13.80 
   6  -1 -13   55.09   16.70 
   6  -1 -13   28.80   10.40 
  -1  -6 -13   23.90   11.20 
   1   6 -13   32.30    7.50 
  -1  -6 -13   22.80   19.20 
  -6   1  13   40.90   10.50 
   6  -1  13   31.80    6.10 
   1   6  13   29.20    4.80 
   1   6  13   38.10    6.80 
   3   6 -13    7.60    5.20 
  -3  -6 -13   13.90   10.90 
   6  -3 -13    6.10   11.80 
   3   6 -13    3.70   15.40 
  -6   3 -13    2.00    5.50 
  -3  -6 -13    3.70    8.70 
  -3  -6 -13  -11.70    8.70 
   3   6 -13    6.80   14.40 
   3   6 -13   -2.80    7.30 
  -6   3 -13   -9.90   13.20 
  -6   3 -13    0.20    5.60 
   6  -3 -13    4.80    7.80 
   3   6 -13    8.80    8.40 
   6  -3  13    4.60    4.20 
   3   6  13    1.60    4.40 
   3   6  13    1.50    2.70 
  -6   3  13    3.20   11.40 
  -6   3  13    3.80    7.20 
   5   6 -13   28.00   11.20 
   6  -5 -13   68.49   21.90 
  -6   5 -13   35.60    9.20 
   6  -5 -13   68.89   20.90 
   5   6 -13   34.90   17.20 
  -5  -6 -13   28.00   10.90 
  -5  -6 -13   32.50   22.50 
  -5  -6 -13   27.10   11.20 
  -6   5 -13    1.20   19.20 
   6  -5 -13   57.99   22.50 
   6  -5 -13   35.80   12.20 
   5   6 -13   14.50   17.20 
   5   6  13   21.60    5.00 
  -6   5  13   43.00   11.70 
  -6   5  13   23.00    9.10 
   6  -5  13   24.70    6.30 
  -4   7 -13    9.70   23.70 
   7   4 -13   28.50   18.30 
  -4   7 -13    7.90   16.00 
   4  -7 -13   50.79   33.90 
   7   4 -13   17.40    7.00 
  -4   7 -13   -0.50   20.40 
   4  -7 -13   22.40   24.40 
   7   4 -13   21.00   10.90 
   7   4 -13   10.90   10.80 
  -7  -4 -13    0.40    7.30 
  -7  -4 -13   11.70    8.00 
   4  -7 -13    3.90    8.80 
  -4   7  13   26.90    7.60 
  -7  -4  13    6.70    9.20 
   2  -7 -13   10.10    7.40 
   2  -7 -13   32.70   39.20 
  -7  -2 -13    4.00    5.60 
  -2   7 -13   -1.00   14.40 
  -2   7 -13   10.60   17.30 
  -2   7 -13    1.80    6.30 
  -7  -2 -13    1.60    5.10 
   7   2 -13    1.30   12.80 
   7   2 -13    8.20    7.90 
   2  -7 -13  -16.10   36.60 
   7   2 -13    7.50    7.10 
   7   2 -13    5.20    6.20 
  -7  -2 -13    7.30    6.20 
   7   2  13   11.30    8.90 
  -2   7  13    0.20    3.90 
  -7  -2  13   -2.90    8.80 
  -7  -2  13    7.70    7.50 
   7   0 -13   -3.70    5.80 
   0  -7 -13    5.80   11.30 
   0   7 -13   -3.30    4.80 
  -7   0 -13   -3.60    4.50 
  -7   0 -13   -1.40    6.00 
   0   7 -13    3.40    7.60 
   0   7 -13    0.60   25.10 
   0  -7 -13   13.40   23.10 
   0  -7 -13  -16.20   24.90 
   7   0 -13   -2.40    8.40 
   7   0 -13    0.60   10.80 
  -7   0 -13   -1.00    3.60 
   0   7 -13    2.60    5.70 
   0   7 -13   11.10   11.30 
  -7   0 -13   -2.30   11.60 
   0  -7 -13  -11.80   11.60 
   7   0  13    3.30    4.70 
  -7   0  13   -2.60    7.60 
   0   7  13    3.80    5.30 
   0   7  13   -1.00    2.90 
   2   7 -13   17.10   21.30 
   2   7 -13   -3.50   15.20 
  -2  -7 -13    4.50   14.00 
   7  -2 -13    2.50   10.30 
  -7   2 -13   -7.20   15.70 
   7  -2 -13    9.70    7.80 
   2   7 -13    9.80    9.80 
   2   7 -13    4.60    5.80 
   7  -2 -13   16.10   14.40 
   2   7 -13    9.30   11.60 
  -2  -7 -13   -9.20   14.80 
  -7   2 -13    4.10    6.10 
   2   7  13    2.80    3.40 
  -7   2  13   -1.30    8.30 
   2   7  13    7.60    8.40 
   4   7 -13   19.00   19.10 
   4   7 -13    4.60    8.10 
   7  -4 -13   37.20   19.00 
   7  -4 -13   26.40   12.60 
  -4  -7 -13   17.40   11.20 
   4   7 -13   24.20   19.00 
   7  -4 -13   51.29   20.70 
  -7   4 -13    6.70   17.90 
  -7   4 -13   22.40    8.30 
  -4  -7 -13   19.30   12.30 
  -7   4  13   24.10   10.50 
   4   7  13   17.40    4.80 
   3  -8 -13  -24.60   34.70 
  -8  -3 -13    0.60    7.20 
   8   3 -13   13.10    7.50 
  -3   8 -13  -13.80   27.90 
  -3   8 -13   -6.70   18.50 
   3  -8 -13   -2.20   35.70 
  -3   8 -13   -4.30    8.30 
  -3   8 -13   17.20   20.20 
   8   3 -13   -6.30   16.90 
   8   3 -13    4.70    9.40 
  -8  -3 -13   21.70    7.70 
  -8  -3  13    5.80    9.60 
  -8  -3  13    8.20   12.30 
  -8  -3  13    6.30   12.40 
  -3   8  13   12.60    6.00 
  -1   8 -13  -31.10   29.80 
   1  -8 -13   10.60   12.00 
  -8  -1 -13    5.40    6.90 
   8   1 -13    6.10   14.50 
   1  -8 -13   40.20   39.20 
  -8  -1 -13    5.50    5.20 
  -1   8 -13   -7.90   14.30 
   1  -8 -13   25.00   39.50 
  -1   8 -13   -0.80    5.20 
   8   1 -13    7.80    9.40 
  -1   8 -13   -0.20    7.60 
  -1   8 -13   20.00   19.90 
   8   1  13   15.60    8.00 
  -1   8  13   -0.90    3.80 
  -8  -1  13    0.90    6.50 
  -8  -1  13    4.10    5.30 
  -8  -1  13    2.70   12.70 
   8  -1 -13    1.00    7.00 
  -1  -8 -13  -13.50   23.00 
  -1  -8 -13   21.80   14.50 
  -8   1 -13    1.50   16.40 
  -8   1 -13  -10.90    5.60 
   1   8 -13   -0.30   10.50 
   1   8 -13    3.90   27.10 
   8  -1 -13   18.60   16.10 
  -1  -8 -13    2.10   22.40 
   1   8 -13   -3.60   17.60 
   1   8 -13    4.20    6.60 
   8  -1 -13   11.30    9.40 
  -8   1  13   14.10    6.10 
  -8   1  13    6.90    7.70 
  -8   1  13   11.30   10.80 
   1   8  13    4.00    4.00 
   3   8 -13   10.10   19.20 
   8  -3 -13   -1.80   10.00 
   3   8 -13   12.30   11.80 
   8  -3 -13   11.30   13.80 
   3   8 -13   11.10   23.40 
   3   8 -13   12.60    7.40 
  -8   3 -13   20.20    8.80 
  -3  -8 -13    6.20   13.40 
  -8   3 -13    8.50   16.20 
   8  -3 -13   28.10   19.40 
  -3  -8 -13   -4.80   16.10 
   3   8  13    2.20    4.30 
  -8   3  13   14.40    5.70 
  -8   3  13    7.30    7.70 
  -8   3  13   14.60   11.80 
   0  -9 -13  -12.60   35.50 
  -9   0 -13   -8.20   16.10 
   0  -9 -13  -50.79   37.00 
  -9   0 -13    5.40    5.50 
   0  -9 -13    3.00   15.50 
  -9   0 -13   -3.10    7.00 
   9   0 -13    4.40   10.40 
   9   0 -13   16.30    9.40 
   0   9 -13   14.00   34.80 
   0   9 -13    7.20   24.20 
   0   9  13    0.20    4.40 
  -9   0  13  -16.90   12.30 
   0   0 -14  562.84   37.20 
   0   0 -14  419.86   32.50 
   0   0 -14  571.64   48.80 
   0   0 -14  381.66   40.50 
   0   0 -14  532.85   48.80 
   1  -1 -14   55.59    6.50 
  -1   1 -14   35.80   12.00 
   1   1 -14   64.69   16.70 
   1  -1 -14   53.89   13.60 
   1  -1 -14   58.89   13.90 
   1   1 -14   18.20   10.30 
  -1  -1 -14   46.90   15.10 
   1   1 -14   39.20    7.50 
   1   1 -14   40.20    6.50 
  -1   1 -14   51.19   17.20 
  -1   1 -14   55.99    7.40 
  -1   1 -14   53.29   15.70 
   1  -1 -14   52.69   12.90 
   1   1 -14   49.20   14.80 
  -1  -1 -14   63.39   17.40 
  -1  -1 -14   44.90   12.80 
   0  -2 -14  101.29   24.80 
   0  -2 -14  139.69   14.80 
   0  -2 -14  130.09   16.70 
   2   0 -14  128.59   20.00 
  -2   0 -14  161.38   18.00 
   2   0 -14  164.68   18.80 
   0  -2 -14  161.58   21.70 
  -2   0 -14  149.49   13.80 
   0   2 -14  124.39   21.80 
   2   0 -14  139.59   13.10 
   0   2 -14  127.69   13.60 
   0  -2 -14  139.19   18.10 
  -2   0 -14  138.89   21.80 
   0   2 -14  145.39   11.70 
   0   2 -14  156.78   30.20 
   2   0 -14  155.78   21.90 
  -2   0 -14  125.69   14.10 
  -2  -2 -14    8.50    7.90 
  -2   2 -14   11.20    5.70 
   2  -2 -14   10.10    6.00 
  -2  -2 -14   10.70    4.20 
   2  -2 -14   14.70    9.30 
   2   2 -14    7.40   10.10 
   2  -2 -14   12.80    8.70 
   2   2 -14   15.20   10.00 
   2   2 -14    1.10    2.90 
   2   2 -14    8.20    3.50 
  -2   2 -14   13.00    5.60 
  -2  -2 -14    6.60    9.20 
  -2  -2 -14   11.20    4.30 
  -2   2 -14   10.60   10.10 
   2   2 -14    1.40    4.30 
  -2   2 -14    7.50    6.60 
  -2  -2 -14   10.00    8.30 
   2   2 -14    0.20    9.20 
  -2   2 -14    7.60    3.50 
   2  -2 -14    8.90    5.30 
  -2   2 -14   -0.60   11.40 
  -2  -2 -14    4.10    5.70 
  -2   2  14   11.20    2.00 
  -1   3 -14  247.48   22.90 
   3   1 -14  261.57   25.30 
  -3  -1 -14  279.57   22.50 
   3   1 -14  255.27   22.20 
  -1   3 -14  201.88   35.90 
  -3  -1 -14  200.58   29.10 
  -1   3 -14  243.78   33.20 
  -1   3 -14  290.77   18.80 
  -3  -1 -14  256.77   24.20 
  -1   3 -14  208.38   22.40 
   3   1 -14  217.48   30.30 
  -3  -1 -14  277.67   23.30 
   3   1 -14  214.98   19.90 
   1  -3 -14  255.37   23.50 
  -1   3 -14  262.57   20.80 
  -1   3 -14  235.38   25.10 
   3   1 -14  282.07   32.60 
   1  -3 -14  298.27   35.90 
  -1   3 -14  277.27   18.80 
   1  -3 -14  277.27   25.10 
  -3  -1  14  268.27   20.40 
  -1  -3 -14  267.07   26.80 
  -1  -3 -14  263.87   20.80 
   3  -1 -14  301.47   30.60 
   1   3 -14  264.17   24.80 
   3  -1 -14  251.77   23.60 
   1   3 -14  253.67   23.20 
  -3   1 -14  272.87   35.60 
   1   3 -14  261.57   19.80 
   1   3 -14  249.48   36.60 
  -1  -3 -14  289.97   34.80 
   1   3 -14  264.67   19.90 
  -3   1 -14  263.17   21.00 
  -3   1 -14  279.07   33.20 
   3  -1 -14  282.97   21.90 
   1   3 -14  274.17   33.70 
  -1  -3 -14  249.68   27.90 
  -3   1 -14  269.87   21.40 
   1   3 -14  269.57   19.50 
  -1  -3 -14  256.37   27.30 
  -1  -3 -14  269.27   25.50 
  -3  -3 -14  237.78   20.90 
  -3   3 -14  270.77   19.90 
   3   3 -14  241.78   32.90 
  -3  -3 -14  236.08   25.20 
   3   3 -14  242.98   19.80 
  -3   3 -14  257.27   34.60 
  -3  -3 -14  241.68   23.60 
   3  -3 -14  273.77   26.70 
   3   3 -14  223.18   22.50 
   3  -3 -14  281.77   31.30 
   3   3 -14  227.88   29.00 
  -3   3 -14  246.98   19.00 
   3   3 -14  241.98   20.00 
  -3  -3  14  236.98   30.60 
  -3   3  14  255.67   25.20 
  -4  -2 -14   -5.60    5.90 
  -2   4 -14    0.70    2.90 
  -2   4 -14    1.70    3.00 
  -2   4 -14   32.10   16.30 
   2  -4 -14    0.00   13.70 
   4   2 -14    3.60    7.40 
   4   2 -14    0.00   11.50 
   2  -4 -14    4.20   17.40 
  -2   4 -14   -8.20    9.10 
  -4  -2 -14    7.00    5.20 
   4   2 -14    5.80    6.00 
   2  -4 -14    9.00    6.40 
   4   2 -14    4.90    4.20 
  -2   4 -14   -1.60   15.20 
  -2   4 -14   -7.10   10.00 
  -2   4 -14    2.90    2.40 
   4   2 -14    0.50   11.00 
  -4  -2 -14    7.40    8.00 
  -2   4  14    5.10    3.60 
  -4  -2  14    4.10    4.70 
  -4  -2  14    2.80    8.00 
  -4   0 -14  455.35   35.10 
  -4   0 -14  492.65   36.60 
   0   4 -14  451.05   39.50 
   0  -4 -14  494.15   37.20 
   0   4 -14  517.45   52.39 
   0  -4 -14  460.15   55.09 
   4   0 -14  465.35   36.00 
  -4   0 -14  483.55   50.49 
   0   4 -14  465.75   58.69 
   0  -4 -14  488.55   40.50 
   0   4 -14  455.55   38.70 
   0   4 -14  500.35   35.00 
   0  -4 -14  493.75   38.00 
   0   4 -14  454.15   35.50 
   4   0 -14  531.65   47.40 
   0  -4 -14  413.36   40.40 
   4   0 -14  487.25   39.10 
   0  -4 -14  549.74   55.09 
  -4   0  14  501.55   36.50 
   0   4  14  474.05   32.90 
  -4   2 -14    2.40   11.10 
  -2  -4 -14    4.10   11.20 
   2   4 -14   20.70   12.90 
   4  -2 -14   10.00    9.70 
  -4   2 -14    4.60    4.40 
  -2  -4 -14    1.50    6.10 
   2   4 -14   -1.10    3.30 
   4  -2 -14   20.30    9.10 
  -2  -4 -14   12.50    6.30 
   2   4 -14    2.40    5.80 
  -2  -4 -14    7.10    7.80 
  -2  -4 -14   14.90   25.40 
  -2  -4 -14    1.10    7.20 
   2   4 -14    5.70   11.70 
   4  -2 -14    7.60    4.30 
  -4   2 -14    0.00    2.40 
   2   4  14    4.50    1.70 
  -4   2  14    3.80    4.40 
  -4  -4 -14  106.39   16.30 
   4   4 -14  101.59   26.50 
  -4   4 -14   73.69   10.90 
   4  -4 -14  194.48   28.80 
   4   4 -14   87.89   19.20 
   4   4 -14  104.49   12.00 
  -4  -4 -14  116.99   45.50 
  -4   4 -14   91.79   24.90 
   4   4 -14   96.09   14.90 
  -4  -4 -14  108.59   17.40 
  -4  -4 -14   92.79   15.40 
  -4   4 -14  105.79   12.10 
  -4   4  14  124.49   13.70 
   4   4  14   98.39    8.40 
   4   4  14  125.29   10.70 
   3  -5 -14   -7.00    4.40 
  -3   5 -14   -0.70    4.40 
  -3   5 -14  -10.30   12.70 
  -3   5 -14   10.80   18.30 
  -3   5 -14    0.90   12.50 
  -5  -3 -14    0.60    6.00 
   5   3 -14    2.70    4.40 
  -3   5 -14    3.40    4.20 
   5   3 -14   -2.70    8.60 
  -5  -3 -14   13.20    6.70 
   5   3 -14    2.60    8.70 
   5   3 -14   -3.80    6.30 
   3  -5 -14   13.10   16.60 
  -5  -3 -14   15.10   11.00 
   5   3 -14   -5.60   11.40 
   3  -5 -14   10.60   37.10 
  -5  -3  14   -2.40    6.20 
  -3   5  14    1.50    4.50 
   5   3  14    9.60    3.80 
   5   3  14    4.50    2.00 
  -5  -3  14    3.80   10.00 
  -1   5 -14   14.80    4.30 
  -1   5 -14   -0.40   20.20 
  -1   5 -14    2.60   12.30 
   5   1 -14   17.70    6.70 
   5   1 -14    7.80    7.10 
   5   1 -14   12.90   11.50 
   1  -5 -14   10.10    7.90 
   1  -5 -14   21.50   25.50 
   1  -5 -14   31.50   24.70 
  -1   5 -14   16.10    5.00 
  -5  -1 -14    9.70   25.30 
   1  -5 -14   25.40   12.60 
  -5  -1 -14    0.90    5.70 
  -5  -1 -14   13.60    3.00 
  -1   5 -14    8.00   10.20 
   5   1 -14   14.10    5.50 
  -1   5 -14    6.00    3.90 
  -5  -1 -14   13.20    5.10 
  -5  -1  14    5.40    6.20 
  -1   5  14   20.40    4.70 
   1   5 -14   20.00   14.20 
   1   5 -14   11.70    4.60 
   5  -1 -14   13.90   11.30 
   5  -1 -14    7.60    5.40 
  -1  -5 -14   11.90   14.20 
  -5   1 -14    3.00   10.80 
   1   5 -14   17.20    7.00 
  -1  -5 -14   12.00    3.70 
  -5   1 -14   10.50    3.10 
  -1  -5 -14   15.40    8.20 
  -5   1 -14    8.20    3.70 
  -1  -5 -14    9.00    4.50 
  -1  -5 -14  -10.30   20.00 
   1   5 -14    6.00   16.90 
  -5   1 -14   10.70    5.60 
  -5   1 -14   25.00   36.60 
  -1  -5 -14   28.40   10.90 
   1   5 -14   -0.60   13.10 
   1   5 -14    5.10    5.60 
  -1  -5 -14   20.00   13.60 
   1   5  14   12.00    2.80 
   1   5  14   12.80    3.80 
  -5   1  14   11.50    6.90 
   5  -1  14   14.50    3.30 
   3   5 -14    5.10   12.40 
  -5   3 -14   -1.80    4.40 
   3   5 -14    0.30   11.80 
  -3  -5 -14    2.10    6.90 
   5  -3 -14   -1.20   10.90 
   3   5 -14   -1.90    7.00 
   5  -3 -14    6.70    5.90 
   3   5 -14   -9.00    7.50 
   5  -3 -14    1.60   11.20 
  -3  -5 -14    3.40    8.90 
  -5   3 -14    6.20    5.70 
   3   5 -14    4.60    5.00 
  -5   3 -14   -2.40   14.10 
  -3  -5 -14  -14.50   15.30 
  -3  -5 -14   -3.00    9.70 
  -3  -5 -14   -2.90    8.10 
   3   5  14    7.20    4.10 
  -5   3  14    1.40    5.60 
  -5   3  14   11.40   11.40 
   5  -3  14    5.60    3.00 
   3   5  14    2.10    2.20 
   5  -5 -14   -9.10    6.80 
  -5  -5 -14   10.00    9.60 
  -5   5 -14   19.70    8.30 
   5  -5 -14   15.00   16.70 
   5  -5 -14    1.30   16.70 
   5   5 -14    1.70    5.90 
   5   5 -14   14.70   12.80 
  -5   5 -14   -9.90   16.10 
  -5  -5 -14   25.10    9.50 
   5  -5 -14   17.30   14.10 
   5   5 -14   -4.90    8.30 
  -5   5 -14    3.30   15.20 
   5   5 -14   34.20   19.10 
   5   5  14    6.80    3.10 
  -5   5  14   18.60    7.50 
   6   4 -14  127.39   30.50 
   4  -6 -14  188.18   35.10 
  -4   6 -14   84.39   13.40 
  -6  -4 -14  102.39   15.20 
   6   4 -14  107.39   13.40 
  -4   6 -14   81.89   25.40 
  -6  -4 -14   80.09   17.10 
   6   4 -14  116.99   19.80 
   6   4 -14  110.89   17.00 
  -6  -4  14  103.59   17.00 
   2  -6 -14   19.60    6.80 
  -2   6 -14    6.40   22.90 
   6   2 -14   28.30    7.70 
  -6  -2 -14   22.60    7.90 
   6   2 -14    5.70   15.40 
  -6  -2 -14   26.60    7.60 
  -2   6 -14   26.50    7.20 
   2  -6 -14   -0.20   27.80 
  -6  -2 -14   26.20    5.30 
   6   2 -14   32.80    9.20 
   6   2 -14   29.50   10.60 
  -2   6 -14   10.80   14.40 
   2  -6 -14   10.20   30.40 
  -6  -2  14   19.00    8.50 
   6   2  14   15.90    4.60 
  -2   6  14   38.60    6.80 
  -6  -2  14   29.60    9.40 
  -2   6  14   22.80    7.10 
   0   6 -14  108.39   37.30 
   0   6 -14  100.39   11.80 
  -6   0 -14   92.69   24.00 
   6   0 -14  127.79   26.30 
   0   6 -14  118.59   20.40 
   0   6 -14  108.79   12.50 
   0  -6 -14   81.49   17.30 
  -6   0 -14  117.09   10.80 
  -6   0 -14  113.99   13.70 
   6   0 -14  103.59   13.80 
   0  -6 -14   90.19   18.00 
   0  -6 -14   64.79   29.30 
   0  -6 -14  152.28   41.40 
  -6   0 -14   94.99   10.30 
   6   0 -14  123.49   17.70 
   0   6 -14   74.99   25.80 
   0   6  14  123.09   10.20 
  -6   0  14  104.79   15.80 
   0   6  14   89.99   11.50 
   6   0  14  102.99   10.30 
  -2  -6 -14   33.10   14.70 
   2   6 -14   18.10   19.70 
   2   6 -14   27.10   17.90 
   2   6 -14   26.50    6.70 
  -2  -6 -14   18.80   12.70 
   2   6 -14   11.20    9.40 
  -6   2 -14   11.90   13.10 
  -6   2 -14   26.40    7.70 
  -2  -6 -14   22.70   18.30 
   2   6 -14   10.90    8.90 
   6  -2 -14   32.20    9.40 
   6  -2 -14   36.90   13.10 
  -6   2 -14   15.90    5.80 
   6  -2 -14   28.70   13.80 
   6  -2  14   19.00    4.80 
  -6   2  14   25.50    9.50 
   2   6  14   25.10    5.70 
   2   6  14   17.40    3.70 
   4   6 -14  113.59   14.50 
  -4  -6 -14   97.19   21.10 
   6  -4 -14  128.69   17.70 
   4   6 -14   58.29   25.90 
   4   6 -14  104.69   18.00 
  -6   4 -14   51.69   24.20 
   6  -4 -14  177.48   30.70 
  -4  -6 -14   76.49   16.80 
   4   6 -14  120.19   28.00 
  -6   4 -14   93.69   13.90 
  -4  -6 -14   96.69   19.60 
   4   6  14   98.19   10.10 
  -6   4  14  143.59   17.20 
  -6   4  14  144.39   22.50 
  -6  -6 -14    2.00    9.70 
   6  -6 -14   30.00   22.40 
  -6   6 -14    5.30   25.90 
  -6   6 -14    8.80   19.30 
   6  -6 -14   34.40   11.20 
   6  -6 -14   57.99   25.70 
   6   6 -14   12.00   14.70 
   6   6 -14   22.00    8.50 
   6   6 -14   25.30   19.90 
  -6   6 -14   22.70   11.00 
  -6   6  14   13.90    8.60 
   6   6  14   17.90    4.80 
   7   3 -14  179.18   18.90 
  -3   7 -14  100.09   38.30 
   7   3 -14  235.58   36.40 
   7   3 -14  209.88   24.70 
  -3   7 -14  113.69   33.60 
   3  -7 -14  295.57   52.49 
  -3   7 -14  131.39   18.40 
  -3   7 -14  142.09   31.40 
   7   3 -14  148.39   30.40 
  -7  -3 -14  172.38   19.70 
  -7  -3 -14  183.48   19.10 
  -7  -3  14  204.68   23.10 
   1  -7 -14   -0.30   34.20 
  -1   7 -14   11.10   18.70 
  -1   7 -14   27.70    8.20 
  -1   7 -14   18.10    5.40 
  -1   7 -14    4.10   34.90 
   1  -7 -14   22.80   35.90 
  -7  -1 -14   35.40    8.50 
   7   1 -14   22.10    8.10 
   1  -7 -14   32.20   11.80 
   7   1 -14   38.40   18.50 
   7   1 -14   39.00   13.20 
  -1   7 -14   17.80   14.70 
  -7  -1 -14   20.90    6.20 
  -7  -1  14   29.50   11.60 
  -1   7  14   32.30    6.10 
  -7   1 -14    8.30   14.80 
  -1  -7 -14   10.20   12.70 
   1   7 -14    5.90   23.60 
   1   7 -14   24.80   12.20 
   7  -1 -14   26.80   12.00 
  -1  -7 -14   30.40   22.30 
  -7   1 -14   23.30    7.80 
   7  -1 -14   30.40   16.60 
  -1  -7 -14    7.10   28.00 
   7  -1 -14   20.20    8.50 
   1   7 -14   15.40   18.10 
   1   7 -14   21.70    7.20 
   1   7  14   17.90    4.50 
  -7   1  14   31.10   11.20 
  -7   3 -14  205.38   20.10 
  -3  -7 -14  189.28   31.40 
   3   7 -14  138.09   36.00 
   3   7 -14  196.68   19.80 
   7  -3 -14  267.17   32.70 
   3   7 -14  165.28   24.00 
   3   7 -14  172.98   39.20 
  -3  -7 -14  186.28   27.50 
  -7   3  14  217.18   23.70 
   3   7  14  179.88   15.70 
  -8  -2 -14    2.10    7.00 
   8   2 -14    0.50   14.50 
  -2   8 -14   -5.80   20.40 
  -8  -2 -14    4.00    7.00 
  -2   8 -14   -0.60   32.90 
   8   2 -14   22.70   12.90 
   2  -8 -14   37.70   42.30 
  -2   8 -14   -3.60   16.70 
   2  -8 -14    3.00   40.40 
   8   2 -14   -1.60    7.10 
  -2   8 -14    4.50    8.10 
  -8  -2  14    8.20   12.70 
  -2   8  14    4.70    5.00 
  -8   0 -14   10.60    8.40 
   8   0 -14   30.90   16.60 
  -8   0 -14    7.40    4.60 
   8   0 -14   -1.80   10.10 
   0   8 -14   16.80    8.10 
   0  -8 -14   15.30   33.40 
   0   8 -14    6.50   15.20 
   0  -8 -14    9.50   13.20 
   0  -8 -14   29.50   36.90 
  -8   0 -14   -1.00   15.20 
   0   8 -14   -0.20   31.40 
   0   8 -14   13.90   21.60 
   8   0 -14    0.20    7.30 
  -8   0  14   13.30   11.50 
   0   8  14    5.20    4.40 
   2   8 -14   30.40   27.30 
  -2  -8 -14   -1.10   20.60 
   2   8 -14    3.20    7.40 
   8  -2 -14   10.50   10.00 
  -8   2 -14    7.50    8.20 
  -8   2 -14    6.50   17.90 
  -2  -8 -14    5.90   23.60 
   2   8 -14    9.80   10.90 
  -2  -8 -14    7.40   14.90 
   8  -2 -14   15.90   14.10 
   8  -2 -14    6.90   18.20 
   2   8 -14    6.40   15.90 
   2   8  14   -1.90    4.80 
  -8   2  14   -1.20   11.20 
   0   1 -15   -1.50    3.40 
   0   1 -15    2.20    7.90 
   1   0 -15    3.50    9.20 
  -1   0 -15    3.20   10.70 
   0  -1 -15   -2.70    9.40 
   1   0 -15    3.60    9.30 
  -1   0 -15    3.50   10.40 
  -1   0 -15   -4.00    7.30 
   1   0 -15   -2.60    7.80 
   0  -1 -15    4.70    6.40 
   0   1 -15  -13.20   11.10 
   0  -1 -15    4.70    9.50 
  -1   0 -15    1.90    4.60 
   0  -1 -15   -0.60    7.60 
   0   1 -15    2.30    7.50 
   1   0 -15    4.60    6.00 
   0   1 -15    0.60    3.90 
   1  -2 -15  139.09   16.50 
  -2  -1 -15  126.59   20.60 
  -2  -1 -15  118.19   12.60 
  -2  -1 -15  108.49   21.90 
   2   1 -15  135.09   20.30 
  -1   2 -15  102.89   16.40 
   1  -2 -15  137.99   19.00 
  -2  -1 -15  143.09   15.20 
   2   1 -15  157.88   13.50 
   1  -2 -15  104.99   21.60 
  -1   2 -15  136.79   23.70 
  -1   2 -15  111.39   14.30 
  -1   2 -15  148.19   11.70 
  -1   2 -15  115.49   15.50 
  -1   2 -15  112.99   15.70 
   2   1 -15  112.09   20.80 
   2   1 -15  144.59   23.00 
  -1   2 -15  115.29   25.80 
  -1  -2 -15  140.89   17.00 
  -1  -2 -15  188.28   28.40 
  -2   1 -15  136.49   16.60 
  -1  -2 -15  134.69   10.70 
   2  -1 -15  159.98   17.50 
   2  -1 -15  121.79   13.90 
  -2   1 -15  136.99   16.20 
   2  -1 -15  118.79   22.90 
   1   2 -15  127.09   13.30 
  -2   1 -15  132.69   12.60 
  -1  -2 -15  130.69   18.20 
   1   2 -15  134.99   23.10 
  -1  -2 -15  127.39   18.20 
   1   2 -15  121.79   11.70 
  -2   1 -15  137.29   23.00 
  -2   1 -15   79.09   22.60 
   1   2 -15  147.19   27.20 
  -1  -2 -15  169.48   27.00 
   3   2 -15    7.20    5.40 
   2  -3 -15    7.40    9.90 
   2  -3 -15   15.50   13.20 
  -3  -2 -15   -0.70    6.40 
  -3  -2 -15   14.10    9.60 
  -2   3 -15    6.70    3.70 
  -2   3 -15    8.50    5.20 
  -3  -2 -15    4.30    8.90 
  -2   3 -15    2.40    1.90 
   2  -3 -15   -6.60   10.60 
  -2   3 -15   -0.40    9.40 
   3   2 -15   12.90   12.50 
   3   2 -15    5.00    3.80 
   2  -3 -15    8.10    8.20 
  -2   3 -15   12.50    9.70 
  -2   3 -15   -6.30   13.00 
  -2   3 -15    2.80    1.90 
   3   2 -15    2.30   10.00 
  -3  -2 -15    5.50    5.70 
  -3  -2 -15    3.80    8.20 
  -2   3 -15   -4.20    3.90 
   2  -3 -15    2.00    4.80 
  -2   3 -15   -2.60   10.90 
   3   2 -15   -0.20    8.90 
  -2   3  15    1.70    1.60 
  -3   0 -15    8.50   10.10 
   0   3 -15   -2.00    5.20 
   0  -3 -15   26.00   16.70 
   3   0 -15   -1.00   28.80 
   3   0 -15   -0.30    2.10 
   3   0 -15    6.50   10.10 
   0   3 -15    7.50   11.10 
   0   3 -15   -0.50    8.40 
   3   0 -15    3.20    5.40 
   0   3 -15    4.70   14.30 
   0  -3 -15   -4.40    6.60 
   3   0 -15   12.00    6.90 
   0  -3 -15    6.90    9.80 
  -3   0 -15    1.00    4.80 
   0  -3 -15   26.30   16.70 
   0   3 -15    0.00    1.50 
  -3   0 -15   -0.30    8.80 
  -3   0 -15   19.30   18.00 
   0   3 -15    0.10    5.50 
   0  -3 -15   -7.90    8.10 
   0  -3 -15   -2.50    6.00 
  -3   0 -15   -4.00    5.10 
   0   3 -15   -3.60    6.60 
   0   3 -15   -0.50    1.90 
  -3   0  15    2.30    2.50 
   3  -2 -15    1.30    2.30 
   3  -2 -15    3.60    8.90 
  -3   2 -15   -8.60    9.60 
  -2  -3 -15    3.90    4.80 
  -2  -3 -15   -3.00   12.30 
   2   3 -15   -1.70    5.00 
   3  -2 -15    0.60    7.60 
  -3   2 -15   -4.60   10.10 
  -2  -3 -15   14.50    8.80 
   2   3 -15    8.60   10.80 
  -3   2 -15   -0.30    3.10 
   2   3 -15    3.50    3.20 
   2   3 -15    3.70    3.00 
   2   3 -15    8.50    5.90 
  -2  -3 -15   -8.90    6.50 
  -3   2 -15   -3.00   16.00 
   2   3 -15    0.70   10.90 
  -3   2 -15    3.80    4.40 
  -3   2  15    2.70    3.00 
   4   3 -15    8.60    9.80 
  -3   4 -15    6.20   11.70 
  -3   4 -15    4.40   15.00 
  -3   4 -15   11.80    4.00 
   3  -4 -15   62.39   19.00 
   3  -4 -15   10.00    8.70 
  -3   4 -15    5.40    5.20 
  -3   4 -15    3.50    3.80 
   3  -4 -15    6.30    3.90 
  -4  -3 -15    5.00    8.10 
   4   3 -15    2.10    7.70 
   4   3 -15    6.50    4.60 
   3  -4 -15   22.30   17.60 
   4   3 -15    8.00   12.50 
   4   3 -15    0.20    6.20 
  -4  -3 -15    6.00    7.70 
  -3   4 -15    6.10   13.10 
  -3   4  15    7.10    4.50 
   1  -4 -15   86.19   13.00 
  -4  -1 -15   78.49   11.20 
   4   1 -15   77.29   19.90 
  -4  -1 -15   83.39   19.40 
  -1   4 -15   58.29   26.20 
  -1   4 -15   93.19    8.70 
  -1   4 -15   71.99    9.60 
  -1   4 -15   73.39   22.60 
   1  -4 -15  123.89   28.80 
  -4  -1 -15   98.99   11.80 
   1  -4 -15  112.79   27.90 
   1  -4 -15   57.19   12.30 
  -1   4 -15   63.89   14.80 
  -4  -1 -15   89.89   15.50 
  -1   4 -15   66.59   14.40 
   4   1 -15   41.20   22.90 
   4   1 -15   75.89   13.10 
   4   1 -15   72.79   12.80 
  -1   4  15   92.79    6.50 
   1   4 -15   68.29   21.10 
  -1  -4 -15   71.29   11.70 
   1   4 -15   72.09   23.70 
  -4   1 -15   73.79   10.20 
  -4   1 -15   69.49   35.30 
   1   4 -15   84.89   12.80 
   1   4 -15   82.99   14.10 
  -1  -4 -15   70.49   12.40 
  -1  -4 -15   72.89   17.20 
   4  -1 -15   69.19   13.00 
  -1  -4 -15  160.78   34.70 
  -1  -4 -15   99.09   25.20 
  -4   1 -15   64.59    7.90 
   4  -1 -15   74.79   18.40 
  -1  -4 -15   60.19   14.40 
   4  -1 -15   57.19    8.20 
  -4   1  15   86.29   10.10 
  -4   3 -15    7.20   12.90 
   4  -3 -15   -0.60    3.80 
  -3  -4 -15   -3.30    9.40 
  -3  -4 -15    4.00    8.50 
   4  -3 -15    3.40   11.40 
  -4   3 -15    0.10    3.60 
  -4   3 -15  -13.00   13.50 
  -4   3 -15    7.10    5.60 
   4  -3 -15    9.80   10.10 
   3   4 -15    3.20    6.60 
   3   4 -15    3.60    4.40 
   3   4 -15    2.30   11.70 
  -4   3 -15   -1.10    3.20 
   4  -3 -15   -3.90   11.40 
   3   4 -15    2.20    5.70 
  -3  -4 -15   20.10   10.40 
   3   4 -15   14.90   13.70 
  -4   3  15   -1.70    4.90 
  -4   5 -15   22.00   16.20 
   5   4 -15   64.69    9.10 
  -4   5 -15   67.79   10.50 
   5   4 -15   55.29   13.50 
   5   4 -15   57.29    9.70 
   4  -5 -15   81.19   22.60 
  -5  -4 -15   56.29   11.90 
  -4   5 -15   39.00   19.30 
  -4   5 -15   39.20   23.00 
   5   4 -15   74.59   23.40 
  -4   5 -15   43.80    7.90 
   4  -5 -15   27.20    9.70 
  -5  -4 -15   76.49   15.70 
   5   4 -15   44.80   15.40 
   5   4  15   56.29    5.70 
  -5  -4  15   49.60   11.80 
  -4   5  15   82.69   12.90 
   5   2 -15   94.19   15.40 
  -2   5 -15   79.49   26.10 
  -2   5 -15   74.69   20.10 
  -2   5 -15   47.10   25.80 
   5   2 -15  133.19   22.40 
  -2   5 -15  117.59   13.10 
   2  -5 -15  138.19   32.70 
   2  -5 -15  186.58   38.50 
  -5  -2 -15   81.99   12.90 
   5   2 -15   92.59   12.30 
  -5  -2 -15  120.39   14.30 
  -5  -2 -15  104.59   17.70 
   5   2 -15   92.89   23.50 
   5   2 -15  103.89   15.80 
  -2   5  15  118.19   11.50 
  -5  -2  15  112.59   14.60 
   5   2  15  104.09    7.40 
   5   0 -15   11.70    7.60 
  -5   0 -15   -0.30    4.10 
   0   5 -15    3.40   13.40 
   0  -5 -15    2.30   18.80 
  -5   0 -15   -5.20   21.40 
  -5   0 -15    1.60   10.50 
   0   5 -15    5.90   15.40 
   5   0 -15    2.60   10.50 
   0   5 -15   -7.40    3.70 
  -5   0 -15   -5.30    5.30 
   0  -5 -15   -6.80    8.60 
   0   5 -15   -4.90    5.60 
   0  -5 -15   -4.10   10.80 
   5   0 -15   -3.90    4.60 
   0  -5 -15    1.00   11.10 
   0  -5 -15  -24.70   22.00 
   0   5 -15  -10.50   17.70 
   0   5 -15   -2.80    4.30 
   0   5  15   -1.30    2.60 
  -5   0  15    5.50    5.70 
   0   5  15    3.50    3.00 
   5   0  15   -2.10    1.40 
  -2  -5 -15   96.79   13.50 
   5  -2 -15  118.79   22.20 
   2   5 -15  102.79   27.40 
  -2  -5 -15   94.39   24.40 
   2   5 -15   85.49   24.00 
   2   5 -15  115.99   12.50 
  -5   2 -15   96.39   10.10 
  -2  -5 -15  106.39   17.00 
  -2  -5 -15  111.49   19.80 
   5  -2 -15  117.99   19.80 
   5  -2 -15  118.69   13.50 
  -2  -5 -15  119.09   20.50 
  -5   2 -15   99.59   12.90 
   2   5 -15   94.09   15.50 
   2   5  15  124.99    9.70 
  -5   2  15  119.69   14.70 
   2   5  15  118.49    8.70 
   5  -4 -15  129.19   25.60 
   4   5 -15   58.39   13.70 
  -4  -5 -15   55.69   15.50 
  -5   4 -15   20.40   17.30 
   4   5 -15   68.59   10.70 
   5  -4 -15  116.39   23.60 
  -5   4 -15   64.39   11.50 
  -4  -5 -15   45.80   16.00 
   4   5 -15   40.70   19.30 
   4   5 -15   49.30   18.80 
   4   5  15   68.59    6.50 
  -5   4  15   68.19   11.90 
  -5   6  15    7.10    7.10 
   6   3 -15   -2.60    8.40 
  -3   6 -15   20.60   24.00 
  -6  -3 -15    5.00    8.20 
   3  -6 -15   10.40   21.10 
   6   3 -15   -4.90    5.70 
  -3   6 -15   -6.20    5.50 
  -3   6 -15  -23.30   14.10 
   3  -6 -15  -31.70   27.10 
  -3   6 -15    7.00   16.90 
  -6  -3 -15   -1.00    7.20 
   6   3 -15  -12.10   12.90 
  -6  -3  15   -3.40   11.50 
  -3   6  15    1.30    5.10 
  -6  -3  15    7.10    9.20 
   1  -6 -15   13.30    9.70 
  -6  -1 -15    4.90    6.90 
  -1   6 -15   21.20   12.00 
   1  -6 -15   28.20   34.20 
   6   1 -15    9.50    6.60 
  -1   6 -15    0.60   15.80 
   1  -6 -15   20.00   31.30 
   6   1 -15    1.20    8.60 
   6   1 -15    2.80   14.20 
  -1   6 -15   21.60   25.70 
  -1   6 -15    4.00    4.40 
  -6  -1 -15    4.30    3.50 
  -6  -1 -15    7.30    5.60 
  -1   6 -15    0.70    5.20 
  -6  -1 -15    3.00   13.90 
   6   1  15    5.00    2.90 
  -1   6  15   11.50    4.30 
  -6  -1  15    8.90    7.80 
   1   6 -15   13.40    6.10 
  -6   1 -15   -1.60    5.30 
   6  -1 -15   10.20    9.50 
  -1  -6 -15    1.60   17.20 
   1   6 -15   11.20   16.90 
   6  -1 -15   10.60    6.60 
   1   6 -15    3.30   22.30 
  -6   1 -15    3.90   14.20 
  -1  -6 -15  -18.60   22.70 
   6  -1 -15   -0.90   12.50 
  -6   1 -15    5.50    4.30 
   1   6 -15    2.90    9.30 
  -6   1  15    4.20    7.30 
   6  -1  15    5.60    4.70 
   3   6 -15  -10.70   14.90 
   6  -3 -15   11.40   12.70 
  -6   3 -15    4.00   14.70 
   3   6 -15    3.20    6.20 
  -3  -6 -15    0.20    7.50 
   3   6 -15    3.40    8.40 
   6  -3 -15    9.40    7.40 
   3   6 -15    4.20   16.10 
  -6   3 -15   -0.80    6.60 
   6  -3 -15  -15.50   14.10 
  -3  -6 -15   -6.40   10.40 
  -3  -6 -15   15.60   16.30 
   3   6  15    2.70    2.90 
  -6   3  15   -0.80    7.50 
   7   2 -15   20.90   20.40 
   7   2 -15   30.80   12.60 
   2  -7 -15   21.20   37.40 
   2  -7 -15   40.30    8.80 
   7   2 -15   42.80    9.40 
  -2   7 -15   12.50   21.90 
   2  -7 -15   84.69   36.20 
  -2   7 -15   20.90   16.40 
  -7  -2 -15   32.40    8.80 
  -2   7 -15   37.20    9.20 
  -2   7 -15   -3.30   28.10 
  -7  -2  15   23.30   10.50 
  -2   7  15   54.39    8.30 
  -7  -2  15   42.50   13.00 
   0   7 -15   -9.60   26.00 
  -7   0 -15    3.40    4.20 
  -7   0 -15    4.10   13.50 
   0  -7 -15    8.60   27.30 
   0   7 -15   -4.00   11.70 
   7   0 -15    1.60    7.00 
   7   0 -15    1.80   13.50 
   0  -7 -15    3.70   11.90 
   7   0 -15   -4.30    9.40 
   0   7 -15   -3.00    6.20 
  -7   0 -15    7.70    7.60 
   0  -7 -15  -58.79   31.00 
   0   7 -15    9.70   18.50 
  -7   0  15   -4.00    9.00 
   0   7  15   -2.00    3.40 
   7  -2 -15   38.10   15.10 
   7  -2 -15   55.99   20.30 
  -2  -7 -15   30.70   20.00 
   7  -2 -15   44.20   11.00 
  -7   2 -15   32.60   18.80 
  -7   2 -15   36.50    9.50 
   2   7 -15   23.60   12.40 
  -2  -7 -15   40.40   16.20 
   2   7 -15   41.50    9.40 
  -2  -7 -15   31.00   23.50 
   2   7 -15   41.80   22.60 
  -7   2  15   36.80   12.10 
   0   0 -16   52.19   16.90 
   0   0 -16   34.90    4.80 
   0   0 -16   40.70   13.90 
   0   0 -16   43.40   12.90 
   0   0 -16   37.20    8.60 
   1   1 -16  114.89   23.50 
  -1   1 -16   93.29   12.30 
  -1  -1 -16  128.99   15.80 
   1  -1 -16  130.49   19.90 
  -1   1 -16  111.29   21.00 
   1   1 -16  114.69   12.80 
   1   1 -16   68.09   16.10 
  -1   1 -16  118.19   11.80 
  -1  -1 -16  123.89   22.40 
   1  -1 -16   74.39   16.00 
   1   1 -16  108.39   11.20 
  -1   1 -16  110.49   18.00 
  -1   1 -16  107.29   11.80 
   1   1 -16  105.39   22.40 
  -1  -1 -16  124.29   20.00 
   1  -1 -16  138.09   20.40 
  -1   1 -16   85.69   22.00 
   1  -1 -16   96.89   15.60 
  -1  -1 -16  124.49   22.10 
  -2   0 -16  151.48   28.80 
   0  -2 -16  191.68   24.20 
  -2   0 -16  220.08   29.20 
  -2   0 -16  249.48   24.20 
   0   2 -16  236.48   32.20 
   0  -2 -16  207.68   32.30 
   0   2 -16  195.78   31.10 
   0   2 -16  233.48   17.20 
  -2   0 -16  247.78   19.70 
   2   0 -16  210.08   18.70 
   0   2 -16  194.18   18.50 
  -2   0 -16  151.68   27.20 
   0  -2 -16  219.88   19.30 
   0  -2 -16  182.38   22.30 
   0   2 -16  187.18   28.80 
   2   0 -16  242.58   25.20 
  -2   2 -16  192.78   29.10 
  -2   2 -16  177.68   15.20 
   2   2 -16  169.48   16.90 
   2   2 -16  100.69   19.90 
   2   2 -16  200.48   26.10 
   2   2 -16  170.88   26.30 
  -2   2 -16  190.78   18.50 
   2  -2 -16  163.88   17.60 
   2  -2 -16  186.68   23.70 
  -2  -2 -16  166.18   13.90 
  -2   2 -16  120.59   21.30 
   2  -2 -16  190.48   21.00 
  -2  -2 -16  212.68   27.20 
  -2   2 -16  142.59   17.60 
  -2  -2 -16  161.28   22.50 
  -2  -2 -16  197.98   20.30 
   2  -2 -16  215.88   19.00 
  -2   2 -16  126.29   29.40 
   2   2 -16  166.68   15.50 
  -2  -2 -16  167.38   25.00 
   2  -2 -16  142.09   22.60 
  -3  -1 -16    6.40    9.40 
   1  -3 -16    3.70   15.80 
  -3  -1 -16   14.00    7.00 
   1  -3 -16   23.30   14.80 
   3   1 -16    0.10   16.80 
  -3  -1 -16   10.50   11.60 
  -1   3 -16    5.40    3.70 
   1  -3 -16   14.20    9.90 
  -1   3 -16    6.20    7.70 
   3   1 -16   11.80   11.90 
   1  -3 -16   -1.40    8.40 
   3   1 -16    5.70    6.50 
  -1   3 -16   -6.80    7.40 
   1  -3 -16    6.10    8.80 
   3   1 -16    6.10    2.40 
  -1   3 -16    3.10    9.00 
   3   1 -16    5.40    8.90 
  -1   3 -16  -11.20   14.40 
  -1   3 -16   13.80    6.90 
  -3  -1 -16    4.20   11.60 
  -3  -1 -16   12.30    8.70 
  -1   3 -16   20.90   15.50 
   1  -3 -16  -10.00    7.20 
   1   3 -16    6.40    2.60 
  -1  -3 -16   11.50    5.50 
  -1  -3 -16    5.80   17.00 
   1   3 -16   22.00   17.30 
  -3   1 -16    2.00   12.60 
   1   3 -16    9.90    6.40 
   3  -1 -16    4.30   10.80 
  -1  -3 -16   18.80   12.00 
  -1  -3 -16    5.00    8.80 
   3  -1 -16   12.60    7.10 
  -1  -3 -16    8.60    8.30 
   3  -1 -16    9.00    5.70 
  -3   1 -16   23.20    6.40 
   1   3 -16   15.40   12.90 
  -3   1 -16    6.30   12.60 
   1   3 -16    6.80    5.00 
   1   3 -16    1.90    2.50 
  -1  -3 -16   14.30    9.90 
  -3   1 -16   -6.80   20.90 
   3   3 -16   93.49   20.50 
   3   3 -16  119.89   13.70 
  -3  -3 -16  118.19   20.30 
   3  -3 -16  161.78   24.30 
   3   3 -16  117.09   26.00 
   3  -3 -16  119.19   19.80 
   3   3 -16  107.39   11.30 
  -3  -3 -16  117.89   18.10 
  -3  -3 -16  109.49   13.80 
  -3   3 -16  111.59   25.60 
  -3   3 -16   94.49   24.80 
  -3   3 -16  119.49   12.60 
   3   3 -16  102.49   10.60 
   3   3 -16   91.99   14.40 
  -3   3  16  119.29   10.20 
   2  -4 -16  182.18   30.90 
  -4  -2 -16   96.09   14.40 
   4   2 -16   69.99   21.70 
  -2   4 -16   82.19   17.40 
   4   2 -16  103.69   17.00 
  -2   4 -16   95.69   26.90 
   2  -4 -16  100.79   24.70 
  -4  -2 -16   70.69   13.60 
  -2   4 -16   89.09    8.80 
  -4  -2 -16   85.99   20.40 
   2  -4 -16  102.79   15.40 
  -2   4 -16   37.70   20.60 
  -4  -2 -16   68.49   13.70 
   4   2 -16   83.09   11.00 
  -2   4  16  103.29    7.70 
  -2   4  16   87.99    7.50 
   0  -4 -16  262.77   28.90 
   4   0 -16  246.88   21.30 
   0   4 -16  287.97   39.70 
   4   0 -16  261.17   23.30 
   4   0 -16  307.67   36.30 
   0  -4 -16  318.97   39.40 
  -4   0 -16  280.37   23.30 
   0   4 -16  286.37   24.80 
   4   0 -16  308.87   27.40 
   0  -4 -16  295.07   26.40 
   0  -4 -16  362.86   44.90 
   0  -4 -16  221.58   29.00 
   0   4 -16  302.87   43.80 
  -4   0 -16  319.47   24.90 
   0  -4 -16  312.07   28.10 
   0   4 -16  292.17   21.10 
   0   4 -16  278.67   27.30 
  -4   0 -16  203.58   33.10 
  -4   0  16  276.67   22.30 
   2   4 -16   87.99    9.70 
  -2  -4 -16  101.69   17.00 
  -2  -4 -16  115.19   23.90 
   4  -2 -16   85.59   17.00 
   4  -2 -16  108.49   20.50 
  -2  -4 -16  157.68   41.10 
  -4   2 -16   84.89   12.60 
   2   4 -16   67.29   23.20 
   2   4 -16   64.29   23.40 
  -2  -4 -16   79.29   13.10 
  -2  -4 -16   62.39   15.70 
  -4   2 -16   49.50   35.50 
  -2  -4 -16   95.99   16.00 
  -4   2 -16   67.19   22.40 
  -4   2  16   90.09   12.60 
  -4   4 -16   27.20   17.80 
  -4   4 -16   16.20   15.70 
   4   4 -16   13.50   13.50 
  -4   4 -16   28.20    5.80 
   4  -4 -16   72.19   18.40 
   4  -4 -16   62.19   15.50 
  -4   4 -16   28.50    8.00 
   4   4 -16   14.50   16.60 
   4   4 -16   25.70    4.00 
  -4   4 -16   20.20   13.50 
   4  -4 -16   79.29   23.10 
  -4  -4 -16   28.60   13.30 
  -4  -4 -16   14.20   12.70 
  -4  -4 -16   24.20   13.20 
   4   4 -16   31.30   10.30 
  -4   4  16   35.20    8.10 
   5   3 -16   42.40   12.40 
   5   3 -16   48.00   14.00 
   3  -5 -16   70.99   23.00 
   5   3 -16   50.09   14.60 
  -3   5 -16   33.50   16.40 
  -3   5 -16   49.20    7.90 
  -3   5 -16   36.70   20.80 
  -5  -3 -16   33.30   11.00 
   3  -5 -16  137.79   32.60 
  -3   5 -16   10.10   18.40 
  -5  -3 -16   65.49   13.30 
   1  -5 -16    5.60    9.70 
  -5  -1 -16   21.80    7.70 
   5   1 -16   28.90    6.90 
   5   1 -16   30.70   15.80 
  -1   5 -16   17.40    5.70 
   1  -5 -16   -3.10   25.40 
  -1   5 -16   35.50   20.30 
  -1   5 -16   15.30   11.30 
   1  -5 -16   18.30   24.30 
   5   1 -16   24.20    7.70 
  -5  -1 -16   25.20   14.60 
  -1   5 -16   15.60    7.10 
   5   1 -16   19.20   10.00 
  -1   5 -16   17.60    5.40 
  -5  -1 -16   23.20    8.70 
   1  -5 -16    5.20    8.30 
   1  -5 -16   36.80   12.70 
  -5  -1 -16   15.30   16.30 
  -1   5 -16    3.00   20.90 
  -1   5  16   37.10    4.90 
  -5  -1  16   42.70    8.90 
  -1   5  16   22.00    3.50 
  -5   1 -16   25.80    7.50 
  -1  -5 -16   28.50    7.00 
   5  -1 -16   25.20   14.70 
  -1  -5 -16   11.50   16.50 
   5  -1 -16   19.10    6.00 
  -1  -5 -16   22.50   11.50 
  -5   1 -16   21.70    4.20 
  -5   1 -16   27.70   14.30 
   1   5 -16   12.00   20.40 
  -1  -5 -16   -3.00   21.70 
   1   5 -16   30.20    6.20 
   5  -1 -16   26.60   11.00 
   1   5 -16   31.00   10.80 
  -1  -5 -16   26.60   14.40 
  -5   1 -16   13.00   31.90 
   1   5 -16   40.00   20.70 
  -5   1  16   31.20    8.00 
  -5   3 -16   51.49    7.60 
   5  -3 -16   75.39   20.40 
  -3  -5 -16   57.99   22.00 
  -3  -5 -16   58.69   21.00 
   3   5 -16   13.00   17.30 
   3   5 -16   47.40   11.90 
   3   5 -16   41.90   19.20 
  -3  -5 -16   62.09   12.50 
  -3  -5 -16   60.79   16.30 
  -5   3  16   55.99   10.20 
  -2   6 -16   50.59   24.60 
  -2   6 -16    2.90   23.20 
   2  -6 -16   83.89   30.20 
   6   2 -16   60.69   14.90 
   6   2 -16   59.09   12.20 
   2  -6 -16   75.69    7.30 
   2  -6 -16   82.49   34.10 
  -6  -2 -16   65.59   12.60 
  -2   6 -16   53.29   17.60 
   6   2 -16   61.89   10.90 
  -2   6 -16   61.89    9.70 
  -6  -2 -16   63.49   11.40 
  -6  -2  16   64.29   13.70 
   0   6 -16   39.70    8.40 
   0   6 -16   47.00   14.80 
  -6   0 -16   44.10    7.20 
   6   0 -16   48.10   19.20 
   0  -6 -16   30.70   13.40 
   0  -6 -16   50.99   16.30 
   6   0 -16   35.70   10.80 
   0  -6 -16   51.79   31.60 
  -6   0 -16   51.79   10.50 
  -6   0 -16   38.90   16.20 
   6   0 -16   43.60   12.60 
   0   6 -16   56.79   24.80 
  -6   0  16   24.20   11.90 
   2   6 -16   66.89   15.50 
  -2  -6 -16   67.39   30.80 
   2   6 -16   51.79   26.60 
  -6   2 -16   54.59   11.20 
   6  -2 -16   65.19   18.10 
   6  -2 -16   68.89   20.90 
   6  -2 -16   93.19   13.00 
   2   6 -16   64.29   25.40 
  -2  -6 -16   42.60   15.90 
  -6   2 -16   21.00   17.10 
   2   6  16   60.79    7.50 
  -6   2  16   70.09   12.50 
   0   1 -17    1.20    3.80 
   1   0 -17    1.00    4.00 
   1   0 -17   12.50    7.40 
  -1   0 -17   -1.00   10.80 
   0   1 -17   -3.00    7.90 
   1   0 -17   17.70   13.30 
   0   1 -17   10.50   10.10 
  -1   0 -17   -1.00    5.90 
  -1   0 -17   -1.70    9.10 
   0  -1 -17    9.40    8.90 
   0   1 -17   -0.70    5.50 
   0  -1 -17    0.30   11.70 
   1   0 -17  -10.30    9.70 
   0   1 -17   -3.10   12.10 
   0  -1 -17    4.30    3.50 
   0   1 -17   -3.70    9.60 
   0  -1 -17    3.40   12.50 
   0  -1 -17   -5.70    8.70 
  -1   0 -17   24.30   13.40 
   1   0 -17   -2.30    6.90 
  -1   2 -17  180.08   28.30 
  -2  -1 -17  174.08   19.20 
  -1   2 -17  146.99   17.20 
  -1   2 -17  191.88   22.40 
   1  -2 -17  155.28   25.90 
  -1   2 -17  168.58   20.00 
   2   1 -17  207.08   25.30 
  -2  -1 -17  184.98   14.70 
   2   1 -17  131.39   26.60 
  -1   2 -17  152.98   20.70 
   1  -2 -17  134.99   25.80 
  -1   2 -17  186.88   15.20 
  -2  -1 -17  164.58   25.00 
   2   1 -17  149.09   17.40 
  -2  -1 -17  177.08   25.80 
   2   1 -17  179.38   25.30 
   1  -2 -17  118.39   18.80 
  -2  -1 -17  214.48   25.30 
   2   1 -17  166.48   16.60 
  -1   2 -17  147.19   31.20 
  -2   1 -17  171.98   27.10 
   1   2 -17  170.58   29.10 
   2  -1 -17  109.39   19.70 
  -1  -2 -17  192.58   30.20 
   2  -1 -17  183.88   20.50 
  -2   1 -17  103.39   25.00 
  -2   1 -17  159.58   15.70 
   1   2 -17  166.58   16.10 
  -2   1 -17  140.09   22.00 
  -1  -2 -17  122.79   16.10 
   1   2 -17  232.38   31.70 
  -1  -2 -17  165.48   20.00 
   1   2 -17  155.98   14.40 
  -1  -2 -17  177.08   23.50 
  -2   1 -17  180.28   20.30 
   2  -1 -17  171.48   17.60 
  -1  -2 -17  228.68   28.00 
   2  -1 -17  175.48   25.60 
   1   2 -17   95.89   18.30 
   3   2 -17   20.00   12.00 
   2  -3 -17   32.10    7.30 
  -2   3 -17   11.00   11.40 
   3   2 -17   16.50    3.70 
   3   2 -17   15.40    7.10 
   2  -3 -17   75.99   19.80 
  -2   3 -17   33.80    8.00 
   3   2 -17   32.60   16.50 
   3   2 -17    3.30   15.60 
  -3  -2 -17   58.29   13.80 
  -2   3 -17   26.50    6.70 
  -2   3 -17   11.30   15.70 
  -3  -2 -17   28.80    7.60 
  -2   3 -17   34.30    6.80 
  -3  -2 -17   32.00   10.70 
   3   2 -17   22.50    8.30 
   2  -3 -17   24.90   12.30 
  -2   3 -17   -1.60   14.00 
  -2   3 -17   15.70   14.80 
   2  -3 -17   33.40   10.60 
  -3  -2 -17   29.20   14.70 
  -3  -2 -17   34.50   13.70 
   2  -3 -17   19.40   12.50 
   0   3 -17    5.10   10.50 
  -3   0 -17   -7.70    7.20 
   0   3 -17    1.60    7.10 
   0   3 -17    6.10   12.60 
   0   3 -17    3.90   17.00 
   0   3 -17   -4.40   10.50 
   3   0 -17   10.20    7.10 
   0   3 -17    2.40    5.60 
   0  -3 -17    0.70   10.50 
   0  -3 -17    1.80   14.00 
   0  -3 -17   -8.70    9.20 
   0   3 -17   -7.50    6.10 
  -3   0 -17    5.60   14.20 
   3   0 -17    1.20   12.00 
   0  -3 -17   -1.70    8.90 
   0  -3 -17   -9.00   11.50 
  -3   0 -17    2.90    9.80 
  -3   0 -17   -6.70    9.70 
   3   0 -17    2.00    7.70 
   0  -3 -17    5.90   11.20 
   0  -3 -17  -13.60   17.30 
  -3   0 -17   -2.00    5.90 
   2   3 -17   30.70   15.90 
   3  -2 -17   23.50   11.90 
   2   3 -17   31.30    8.80 
  -2  -3 -17   28.00   14.50 
  -3   2 -17   27.50    6.00 
  -3   2 -17   17.00   13.80 
  -2  -3 -17    8.40   17.60 
  -3   2 -17   31.40   16.60 
   3  -2 -17   34.70   13.00 
  -3   2 -17   44.90    7.90 
  -3   2 -17   32.00   22.60 
  -2  -3 -17   73.79   63.59 
  -2  -3 -17   45.00   12.70 
   2   3 -17   20.80   14.50 
   2   3 -17   25.60    4.30 
  -2  -3 -17   29.10    7.30 
  -2  -3 -17   21.70   11.20 
  -3   2 -17   30.00    7.30 
   3  -2 -17   30.10   14.50 
   4   3 -17   22.30   18.40 
  -4  -3 -17   14.50   13.00 
   4   3 -17    1.50    5.10 
  -4  -3 -17   10.40   11.40 
   3  -4 -17   40.80   21.20 
   4   3 -17    9.50   11.80 
   4   3 -17   17.20   10.00 
  -4  -3 -17   16.00   14.50 
  -3   4 -17  -15.70   15.10 
  -4  -3 -17   10.30   10.30 
   3  -4 -17   -3.70   13.20 
  -4  -3 -17   10.00   15.90 
  -3   4 -17   10.10   16.70 
  -3   4 -17   10.60   14.20 
   3  -4 -17   23.90   11.50 
   4   3 -17    7.90    9.00 
  -4  -1 -17   39.20   13.60 
   1  -4 -17   44.50   12.30 
   1  -4 -17   52.79   13.30 
  -1   4 -17   20.60    8.90 
   4   1 -17   25.40   11.60 
  -1   4 -17   31.20    7.90 
   4   1 -17   38.40   17.40 
  -4  -1 -17   43.90    9.70 
  -4  -1 -17   21.10   14.40 
  -4  -1 -17   50.39   16.00 
   4   1 -17   35.60   10.60 
   1  -4 -17   28.70   11.00 
  -4  -1 -17   47.20   10.80 
  -1   4 -17   23.00   19.80 
  -1   4 -17   47.30   12.30 
  -1   4 -17   36.40   19.70 
   4   1 -17   26.00    4.90 
   1  -4 -17   37.20   21.40 
   1  -4 -17  100.99   26.10 
   1  -4 -17   46.50   10.90 
  -1  -4 -17   17.10   13.40 
  -1  -4 -17   33.60   10.80 
   1   4 -17   35.60   10.10 
  -1  -4 -17   54.79   15.80 
  -1  -4 -17   34.70   24.80 
   1   4 -17   26.30   21.30 
  -4   1 -17   38.90   17.00 
   1   4 -17   40.30    5.50 
  -4   1 -17   32.30    6.60 
   4  -1 -17   30.50   16.50 
  -1  -4 -17   34.90   10.60 
  -4   1 -17   44.70    9.10 
  -4   1 -17   29.80   16.00 
  -1  -4 -17   65.49   17.30 
  -4   1 -17   36.70   40.40 
  -1  -4 -17   50.19   32.20 
   4  -1 -17   36.70   11.50 
  -4   1  17   46.30    6.10 
   3   4 -17   -4.50   14.50 
   3   4 -17    6.00    8.00 
  -4   3 -17    9.50    7.60 
   3   4 -17   -0.70   14.10 
  -3  -4 -17    6.70   50.19 
  -3  -4 -17   29.30   17.70 
   4  -3 -17   13.40   16.80 
  -3  -4 -17   22.90   14.20 
  -4   3 -17    6.30   14.20 
   4  -3 -17    2.00    3.40 
   4  -3 -17    6.20   11.70 
  -3  -4 -17    5.50    9.90 
   3   4 -17   12.10    5.30 
  -4   3 -17    2.40   13.40 
   4  -3 -17   13.80   12.60 
  -4   3  17    4.00    4.50 
   2  -5 -17  122.59   29.40 
   5   2 -17  155.58   20.20 
  -5  -2 -17  153.18   18.50 
   5   2 -17  105.99   32.00 
  -5  -2 -17  174.28   36.40 
  -2   5 -17  146.79   13.50 
  -2   5 -17  123.99   32.20 
   5   2 -17  132.09   19.70 
  -2   5 -17   90.69   30.00 
   2  -5 -17  168.78   39.50 
  -2   5 -17  133.49   23.70 
  -5  -2 -17  169.48   18.70 
   5   2 -17  128.49   15.00 
  -5  -2  17  137.59   16.40 
   0   5 -17   -1.00    4.10 
   5   0 -17    2.90    8.70 
   0   5 -17    6.30   10.00 
   0  -5 -17  -11.90   23.60 
   0  -5 -17   -1.50   18.30 
  -5   0 -17    4.60    7.00 
   0  -5 -17   20.50   18.80 
   0   5 -17  -14.70   16.00 
   0   5 -17    2.50   21.90 
  -5   0 -17   14.50   31.80 
   0  -5 -17   -5.60    9.90 
  -5   0 -17    3.80    5.90 
   5   0 -17  -16.20   13.50 
   5   0 -17   -0.10    4.30 
   0   5 -17   11.90   13.40 
  -5   0 -17   -1.80   13.70 
   0  -5 -17    7.30   12.30 
  -5   0  17   -2.40    5.90 
   2   5 -17  160.88   34.60 
   5  -2 -17  164.88   25.00 
   2   5 -17  124.49   14.40 
  -2  -5 -17  146.09   17.00 
  -2  -5 -17  157.98   36.80 
   2   5 -17  165.48   20.70 
  -2  -5 -17  131.29   23.70 
   2   5 -17  140.79   32.70 
  -2  -5 -17  102.39   23.50 
  -5   2 -17  159.38   29.80 
  -5   2 -17  134.59   17.20 
  -5   2  17  162.98   16.20 
   0   0 -18    9.60    3.70 
   0   0 -18   -4.80   12.50 
   0   0 -18    0.10   11.10 
   0   0 -18   -3.60    9.40 
   0   0 -18   -0.60    7.30 
  -1   1 -18    8.50   12.30 
  -1   1 -18    8.10    8.00 
   1   1 -18   -1.80    6.60 
   1   1 -18    7.80   14.30 
  -1  -1 -18   -2.00   10.80 
   1   1 -18   -1.80   11.80 
  -1   1 -18    2.00   13.30 
   1  -1 -18   -3.20   10.50 
   1  -1 -18   -0.60    6.30 
  -1   1 -18    5.40    6.00 
   1   1 -18   -1.80    5.00 
   1  -1 -18   -5.20   10.50 
   1   1 -18    8.90   12.40 
  -1   1 -18   -0.20   11.30 
  -1  -1 -18   26.10   15.40 
   1  -1 -18   -4.80    8.80 
  -1  -1 -18   -8.40   12.50 
   1   1 -18   -4.90    6.30 
  -1  -1 -18   14.90    9.10 
   1  -1 -18    3.10    9.30 
   0  -2 -18   48.40   12.40 
  -2   0 -18   32.10   11.90 
   0   2 -18   38.10    7.90 
   2   0 -18   46.50   17.70 
  -2   0 -18   41.40   14.70 
   0  -2 -18   31.70   16.00 
   0   2 -18   35.60   10.10 
   0   2 -18   30.50   11.60 
   2   0 -18   46.40   13.00 
  -2   0 -18   52.09   17.90 
   0  -2 -18   48.20   16.00 
   0  -2 -18   25.10   12.80 
  -2   0 -18   13.10   14.50 
   0   2 -18   61.49   21.20 
   0   2 -18   36.40    6.90 
   2   0 -18   24.90    8.20 
   0   2 -18   24.20   15.80 
   2   0 -18   21.10    9.00 
   0   2 -18   17.60   11.50 
   2   0 -18   27.00    8.90 
  -2   0 -18   23.20    8.70 
   0  -2 -18   32.00   12.70 
   2   2 -18   -0.10    5.80 
  -2   2 -18    2.10    9.00 
  -2   2 -18    0.20   15.40 
  -2   2 -18   -4.10   10.30 
   2  -2 -18    5.30   12.80 
   2   2 -18   -1.50   14.30 
  -2   2 -18    6.80    9.10 
   2  -2 -18   -6.00    8.40 
   2   2 -18    5.90   12.70 
   2  -2 -18    0.30   12.10 
   2   2 -18   -0.20   12.40 
   2  -2 -18    4.80   10.80 
   2  -2 -18    9.80    8.10 
  -2   2 -18    1.50   15.90 
  -2   2 -18    1.10    5.90 
  -2  -2 -18    8.90   14.80 
  -2  -2 -18    2.60    8.90 
  -2  -2 -18    8.50   11.80 
   2   2 -18    8.80    6.60 
   2  -2 -18    5.40    7.40 
  -2   2 -18   -2.30   13.10 
  -2  -2 -18   -3.70   11.20 
  -2  -2 -18    0.50    4.70 
   1  -3 -18   18.90   12.50 
   1  -3 -18   19.40   15.80 
   3   1 -18   15.40    8.80 
   3   1 -18   10.80   10.40 
  -1   3 -18   14.40   17.10 
   1  -3 -18    7.70    8.80 
  -3  -1 -18   13.50    8.60 
  -1   3 -18   21.20   10.60 
   1  -3 -18   12.50   12.10 
  -3  -1 -18   22.70   13.80 
  -3  -1 -18   12.60   11.70 
  -1   3 -18   18.90   12.60 
  -3  -1 -18   16.40   13.40 
   1  -3 -18   24.50   12.10 
   3   1 -18    1.00   14.20 
  -1   3 -18   19.80   16.50 
   1  -3 -18   26.60   16.80 
   3   1 -18   10.50    8.70 
  -3  -1 -18   18.40    8.70 
  -1   3 -18   15.50    8.80 
  -3   1 -18   19.00   13.30 
   3  -1 -18   17.00    9.70 
  -3   1 -18    8.20   14.60 
  -1  -3 -18   83.29   60.19 
   3  -1 -18   10.90   10.20 
  -1  -3 -18   14.80    9.50 
   3  -1 -18   13.20   14.50 
  -3   1 -18   14.30    8.00 
  -1  -3 -18   23.80   12.70 
  -1  -3 -18    0.80    8.40 
   1   3 -18   16.20    8.30 
  -3   1 -18   12.20   20.80 
  -3   1 -18   26.50   14.10 
  -3   1 -18   14.90    7.70 
  -1  -3 -18   15.80   11.50 
   3  -1 -18   15.80    6.80 
  -1  -3 -18   28.20   14.30 
   1   3 -18   26.30   18.40 
  -1  -3 -18    9.10   18.10 
   3   3 -18   17.90   15.50 
   3  -3 -18    8.20   13.30 
   3   3 -18    4.50    8.20 
  -3  -3 -18   -2.00   13.60 
   3   3 -18    4.60    4.30 
   3  -3 -18   24.60   17.70 
  -3   3 -18    7.60   17.40 
  -3   3 -18    3.60   12.10 
  -3  -3 -18   16.90   13.10 
  -3   3 -18   19.70    7.90 
  -3  -3 -18   14.70   13.60 
   3  -3 -18    7.40   11.70 
   3   3 -18   17.60   14.60 
  -3   3 -18   16.00   17.20 
  -3  -3 -18    8.40   10.90 
   2  -4 -18   -2.30    9.80 
  -4  -2 -18   -8.20   10.80 
  -2   4 -18   -2.90    5.70 
  -4  -2 -18   -6.30   13.50 
   2  -4 -18   14.00   16.40 
   4   2 -18   -4.60    8.80 
  -2   4 -18    9.80   19.50 
  -2   4 -18   10.30   11.70 
  -4  -2 -18    4.30   13.60 
  -2   4 -18    8.20   18.30 
   2  -4 -18    3.60   19.50 
  -4  -2 -18    4.90    9.00 
   0   4 -18   21.60   17.10 
   0   4 -18   10.80   20.80 
  -4   0 -18   15.40    8.40 
  -4   0 -18   17.10    8.80 
   0   4 -18   26.80    9.90 
   0  -4 -18   21.70   15.60 
   4   0 -18   16.90   11.90 
  -4   0 -18   27.00   17.50 
   0  -4 -18   27.80   11.00 
   4   0 -18   14.80   16.50 
  -2  -4 -18   -4.30   13.80 
   4  -2 -18  -11.90    9.50 
  -4   2 -18    7.10   14.70 
  -4   2 -18   -7.10   12.60 
  -2  -4 -18   -8.80   10.00 
  -2  -4 -18   -6.20   20.80 
   2   4 -18    7.30    8.50 
  -4   2 -18    1.90    7.70 
   2   4 -18   -4.50   16.90 
  -2  -4 -18    7.80   11.80 
   4  -2 -18    0.90   14.50 
   2   4 -18    6.50   15.20 
  -1   0 -19    4.50    8.30 
   0  -1 -19    8.20   12.20 
   0   1 -19    8.00   15.50 
  -1   0 -19    7.10   13.50 
   0  -1 -19   -3.70   12.10 
   0   1 -19   -1.40   14.10 
   0  -1 -19    7.90   14.30 
   0   1 -19  -12.10    9.20 
  -1   0 -19   -2.40   13.40 
  -1   0 -19   -1.00    2.80 
   0  -1 -19    5.10    7.70 
   0   1 -19   -3.20    4.90 
   1   0 -19   -1.20    6.10 
   1   0 -19   -3.50   12.80 
  -1   0 -19   -9.00   13.10 
   1   0 -19   -0.10    9.30 
   1   0 -19    4.10    9.00 
   1   0 -19   -1.90   12.80 
   0  -1 -19    6.60   10.00 
   2   1 -19    6.40   15.20 
  -1   2 -19    4.80    7.00 
  -2  -1 -19   -0.90   14.10 
   2   1 -19    8.20   12.60 
   1  -2 -19    7.00   11.40 
   2   1 -19    1.40    7.60 
  -2  -1 -19   28.50   10.40 
  -1   2 -19    6.00    6.60 
   1  -2 -19   12.80    9.90 
  -1   2 -19    8.10   15.50 
   1  -2 -19    1.50   11.00 
   2   1 -19   15.60    8.00 
  -2  -1 -19   10.90   13.30 
   1  -2 -19    5.40   12.90 
   1  -2 -19   -6.30   13.30 
  -2  -1 -19    6.20   15.40 
  -1   2 -19    4.60   11.80 
  -2   1 -19   15.80    7.60 
  -2   1 -19   17.10   14.30 
   2  -1 -19   13.70   10.60 
  -1  -2 -19  -10.70   12.70 
   1   2 -19   13.10   17.20 
  -2   1 -19    2.50   14.00 
  -1  -2 -19   -1.50   12.60 
   1   2 -19   -3.60   17.40 
  -2   1 -19    0.70   19.00 
  -1  -2 -19    5.60   15.10 
   1   2 -19    7.30    7.60 
   2  -1 -19   -0.20    8.50 
  -1  -2 -19   19.50   10.80 
   1   2 -19    4.80    5.80 
   2  -1 -19   19.80   15.50 
   2  -1 -19    3.30    9.30 
  -2   1 -19   20.10    8.10 
  -1  -2 -19   15.50    6.70 
   1   2 -19    8.70    7.00 
   2  -1 -19   -2.00    9.10 
   0   0   0    0.00    0.00 
  
_computing_structure_solution     'SHELXT 2018/2 (Sheldrick, 2018)' 
;
_shelx_hkl_checksum              86435
loop_
_space_group_symop_operation_xyz
'x, y, z'
'-x, -y, z'
'-y, x, z'
'y, -x, z'
'-x, y, -z+1/2'
'x, -y, -z+1/2'
'y, x, -z+1/2'
'-y, -x, -z+1/2'
'x+1/2, y+1/2, z+1/2'
'-x+1/2, -y+1/2, z+1/2'
'-y+1/2, x+1/2, z+1/2'
'y+1/2, -x+1/2, z+1/2'
'-x+1/2, y+1/2, -z+1'
'x+1/2, -y+1/2, -z+1'
'y+1/2, x+1/2, -z+1'
'-y+1/2, -x+1/2, -z+1'
'-x, -y, -z'
'x, y, -z'
'y, -x, -z'
'-y, x, -z'
'x, -y, z-1/2'
'-x, y, z-1/2'
'-y, -x, z-1/2'
'y, x, z-1/2'
'-x+1/2, -y+1/2, -z+1/2'
'x+1/2, y+1/2, -z+1/2'
'y+1/2, -x+1/2, -z+1/2'
'-y+1/2, x+1/2, -z+1/2'
'x+1/2, -y+1/2, z'
'-x+1/2, y+1/2, z'
'-y+1/2, -x+1/2, z'
'y+1/2, x+1/2, z'
loop_
_atom_site_label
_atom_site_type_symbol
_atom_site_fract_x
_atom_site_fract_y
_atom_site_fract_z
_atom_site_U_iso_or_equiv
_atom_site_adp_type
_atom_site_occupancy
_atom_site_site_symmetry_order
_atom_site_calc_flag
_atom_site_refinement_flags_posn
_atom_site_refinement_flags_adp
_atom_site_refinement_flags_occupancy
_atom_site_disorder_assembly
_atom_site_disorder_group
I1 I 0.500000 0.500000 0.500000 0.0423(3) Uani 1 8 d S T P . .
Cs2 Cs 0.65836(4) 0.84164(4) 0.500000 0.0487(2) Uani 1 4 d S T P . .
Cs1 Cs 0.500000 0.500000 0.750000 0.0636(3) Uani 1 8 d S T P . .
Br1 Br 0.85316(5) 0.64684(5) 0.34663(4) 0.0606(3) Uani 0.5 2 d S T P . .
I2 I 0.85316(5) 0.64684(5) 0.34663(4) 0.0606(3) Uani 0.5 2 d S T P . .
Mn1 Mn 1.000000 0.500000 0.250000 0.0416(5) Uani 1 8 d S T P . .
loop_
_atom_site_aniso_label
_atom_site_aniso_U_11
_atom_site_aniso_U_22
_atom_site_aniso_U_33
_atom_site_aniso_U_23
_atom_site_aniso_U_13
_atom_site_aniso_U_12
I1 0.0351(3) 0.0351(3) 0.0568(5) 0.000 0.000 0.000
Cs2 0.0386(3) 0.0386(3) 0.0688(5) 0.000 0.000 -0.0020(3)
Cs1 0.0715(5) 0.0715(5) 0.0479(5) 0.000 0.000 0.000
Br1 0.0637(3) 0.0637(3) 0.0546(4) -0.01113(19) 0.01113(19) 0.0160(3)
I2 0.0637(3) 0.0637(3) 0.0546(4) -0.01113(19) 0.01113(19) 0.0160(3)
Mn1 0.0449(7) 0.0449(7) 0.0351(10) 0.000 0.000 0.000
loop_
_atom_type_symbol
_atom_type_description
_atom_type_scat_dispersion_real
_atom_type_scat_dispersion_imag
_atom_type_scat_source
Br Br -0.2901 2.4595 'International Tables Vol C Tables 4.2.6.8 and 6.1.1.4'
Cs Cs -0.3680 2.1192 'International Tables Vol C Tables 4.2.6.8 and 6.1.1.4'
I I -0.4742 1.8119 'International Tables Vol C Tables 4.2.6.8 and 6.1.1.4'
Mn Mn 0.3368 0.7283 'International Tables Vol C Tables 4.2.6.8 and 6.1.1.4'
loop_
_geom_angle_atom_site_label_1
_geom_angle_atom_site_label_2
_geom_angle_atom_site_label_3
_geom_angle
_geom_angle_site_symmetry_1
_geom_angle_site_symmetry_3
_geom_angle_publ_flag
Cs2 I1 Cs2 90.0 17_666 19_566 ?
Cs2 I1 Cs2 90.0 17_666 3_655 ?
Cs2 I1 Cs2 180.0 19_566 3_655 ?
Cs2 I1 Cs2 180.0 17_666 . ?
Cs2 I1 Cs2 90.0 19_566 . ?
Cs2 I1 Cs2 90.000(1) 3_655 . ?
Cs2 I1 Cs1 90.0 17_666 17_666 ?
Cs2 I1 Cs1 90.0 19_566 17_666 ?
Cs2 I1 Cs1 90.0 3_655 17_666 ?
Cs2 I1 Cs1 90.0 . 17_666 ?
Cs2 I1 Cs1 90.0 17_666 . ?
Cs2 I1 Cs1 90.0 19_566 . ?
Cs2 I1 Cs1 90.0 3_655 . ?
Cs2 I1 Cs1 90.0 . . ?
Cs1 I1 Cs1 180.0 17_666 . ?
I2 Cs2 Br1 82.43(3) . 18_556 ?
I2 Cs2 I1 74.995(8) . 13_655 ?
Br1 Cs2 I1 74.995(8) 18_556 13_655 ?
I2 Cs2 I1 74.995(8) . . ?
Br1 Cs2 I1 74.995(8) 18_556 . ?
I1 Cs2 I1 139.739(17) 13_655 . ?
I2 Cs2 Br1 147.274(9) . 19_576 ?
Br1 Cs2 Br1 91.400(16) 18_556 19_576 ?
I1 Cs2 Br1 72.367(8) 13_655 19_576 ?
I1 Cs2 Br1 134.345(10) . 19_576 ?
I2 Cs2 Br1 91.400(16) . 3_655 ?
Br1 Cs2 Br1 147.274(9) 18_556 3_655 ?
I1 Cs2 Br1 134.345(10) 13_655 3_655 ?
I1 Cs2 Br1 72.367(8) . 3_655 ?
Br1 Cs2 Br1 109.746(19) 19_576 3_655 ?
I2 Cs2 Br1 147.274(9) . 20_656 ?
Br1 Cs2 Br1 91.400(17) 18_556 20_656 ?
I1 Cs2 Br1 134.345(10) 13_655 20_656 ?
I1 Cs2 Br1 72.367(8) . 20_656 ?
Br1 Cs2 Br1 64.490(17) 19_576 20_656 ?
Br1 Cs2 Br1 76.615(19) 3_655 20_656 ?
I2 Cs2 Br1 91.400(16) . 4_575 ?
Br1 Cs2 Br1 147.274(9) 18_556 4_575 ?
I1 Cs2 Br1 72.367(8) 13_655 4_575 ?
I1 Cs2 Br1 134.345(10) . 4_575 ?
Br1 Cs2 Br1 76.615(19) 19_576 4_575 ?
Br1 Cs2 Br1 64.490(17) 3_655 4_575 ?
Br1 Cs2 Br1 109.746(19) 20_656 4_575 ?
I2 Cs2 Cs2 138.787(13) . 17_676 ?
Br1 Cs2 Cs2 138.787(13) 18_556 17_676 ?
I1 Cs2 Cs2 110.131(9) 13_655 17_676 ?
I1 Cs2 Cs2 110.131(9) . 17_676 ?
Br1 Cs2 Cs2 54.873(10) 19_576 17_676 ?
Br1 Cs2 Cs2 54.873(10) 3_655 17_676 ?
Br1 Cs2 Cs2 54.873(10) 20_656 17_676 ?
Br1 Cs2 Cs2 54.873(10) 4_575 17_676 ?
I2 Cs2 Cs2 108.443(6) . 19_576 ?
Br1 Cs2 Cs2 108.443(6) 18_556 19_576 ?
I1 Cs2 Cs2 45.0 13_655 19_576 ?
I1 Cs2 Cs2 175.261(17) . 19_576 ?
Br1 Cs2 Cs2 43.444(10) 19_576 19_576 ?
Br1 Cs2 Cs2 104.009(14) 3_655 19_576 ?
Br1 Cs2 Cs2 104.009(14) 20_656 19_576 ?
Br1 Cs2 Cs2 43.444(10) 4_575 19_576 ?
Cs2 Cs2 Cs2 65.131(9) 17_676 19_576 ?
I2 Cs2 Cs2 108.443(6) . 3_655 ?
Br1 Cs2 Cs2 108.443(5) 18_556 3_655 ?
I1 Cs2 Cs2 175.261(17) 13_655 3_655 ?
I1 Cs2 Cs2 45.0 . 3_655 ?
Br1 Cs2 Cs2 104.009(14) 19_576 3_655 ?
Br1 Cs2 Cs2 43.444(10) 3_655 3_655 ?
Br1 Cs2 Cs2 43.444(10) 20_656 3_655 ?
Br1 Cs2 Cs2 104.009(14) 4_575 3_655 ?
Cs2 Cs2 Cs2 65.131(9) 17_676 3_655 ?
Cs2 Cs2 Cs2 130.261(17) 19_576 3_655 ?
I1 Cs1 I1 180.0 5_656 . ?
I1 Cs1 Br1 68.323(9) 5_656 10_665 ?
I1 Cs1 Br1 111.677(9) . 10_665 ?
I1 Cs1 Br1 111.677(9) 5_656 17_666 ?
I1 Cs1 Br1 68.323(9) . 17_666 ?
Br1 Cs1 Br1 138.479(16) 10_665 17_666 ?
I1 Cs1 Br1 111.677(9) 5_656 19_566 ?
I1 Cs1 Br1 68.323(9) . 19_566 ?
Br1 Cs1 Br1 138.194(17) 10_665 19_566 ?
Br1 Cs1 Br1 82.159(6) 17_666 19_566 ?
I1 Cs1 Br1 68.323(9) 5_656 11_645 ?
I1 Cs1 Br1 111.677(9) . 11_645 ?
Br1 Cs1 Br1 82.159(6) 10_665 11_645 ?
Br1 Cs1 Br1 138.194(17) 17_666 11_645 ?
Br1 Cs1 Br1 61.585(18) 19_566 11_645 ?
I1 Cs1 Br1 111.676(9) 5_656 18_556 ?
I1 Cs1 Br1 68.324(9) . 18_556 ?
Br1 Cs1 Br1 61.585(18) 10_665 18_556 ?
Br1 Cs1 Br1 136.647(18) 17_666 18_556 ?
Br1 Cs1 Br1 82.159(6) 19_566 18_556 ?
Br1 Cs1 Br1 61.800(17) 11_645 18_556 ?
I1 Cs1 Br1 68.324(9) 5_656 9_445 ?
I1 Cs1 Br1 111.676(9) . 9_445 ?
Br1 Cs1 Br1 136.647(18) 10_665 9_445 ?
Br1 Cs1 Br1 61.585(18) 17_666 9_445 ?
Br1 Cs1 Br1 61.800(17) 19_566 9_445 ?
Br1 Cs1 Br1 82.159(6) 11_645 9_445 ?
Br1 Cs1 Br1 138.479(16) 18_556 9_445 ?
I1 Cs1 Br1 68.324(9) 5_656 12_465 ?
I1 Cs1 Br1 111.677(9) . 12_465 ?
Br1 Cs1 Br1 82.159(6) 10_665 12_465 ?
Br1 Cs1 Br1 61.800(17) 17_666 12_465 ?
Br1 Cs1 Br1 138.479(17) 19_566 12_465 ?
Br1 Cs1 Br1 136.647(18) 11_645 12_465 ?
Br1 Cs1 Br1 138.194(17) 18_556 12_465 ?
Br1 Cs1 Br1 82.159(6) 9_445 12_465 ?
I1 Cs1 Br1 111.677(9) 5_656 20_656 ?
I1 Cs1 Br1 68.323(9) . 20_656 ?
Br1 Cs1 Br1 61.800(17) 10_665 20_656 ?
Br1 Cs1 Br1 82.159(6) 17_666 20_656 ?
Br1 Cs1 Br1 136.647(18) 19_566 20_656 ?
Br1 Cs1 Br1 138.479(17) 11_645 20_656 ?
Br1 Cs1 Br1 82.159(6) 18_556 20_656 ?
Br1 Cs1 Br1 138.194(17) 9_445 20_656 ?
Br1 Cs1 Br1 61.585(18) 12_465 20_656 ?
I1 Cs1 Cs2 43.754(3) 5_656 25_666 ?
I1 Cs1 Cs2 136.246(3) . 25_666 ?
Br1 Cs1 Cs2 42.250(10) 10_665 25_666 ?
Br1 Cs1 Cs2 155.360(9) 17_666 25_666 ?
Br1 Cs1 Cs2 107.008(11) 19_566 25_666 ?
Br1 Cs1 Cs2 45.460(11) 11_645 25_666 ?
Br1 Cs1 Cs2 67.954(10) 18_556 25_666 ?
Br1 Cs1 Cs2 101.925(10) 9_445 25_666 ?
Br1 Cs1 Cs2 99.661(11) 12_465 25_666 ?
Br1 Cs1 Cs2 103.951(10) 20_656 25_666 ?
I1 Cs1 Cs2 136.246(3) 5_656 17_666 ?
I1 Cs1 Cs2 43.754(3) . 17_666 ?
Br1 Cs1 Cs2 155.360(9) 10_665 17_666 ?
Br1 Cs1 Cs2 42.250(10) 17_666 17_666 ?
Br1 Cs1 Cs2 45.460(11) 19_566 17_666 ?
Br1 Cs1 Cs2 107.008(11) 11_645 17_666 ?
Br1 Cs1 Cs2 101.925(10) 18_556 17_666 ?
Br1 Cs1 Cs2 67.954(10) 9_445 17_666 ?
Br1 Cs1 Cs2 103.951(10) 12_465 17_666 ?
Br1 Cs1 Cs2 99.661(11) 20_656 17_666 ?
Cs2 Cs1 Cs2 152.462(12) 25_666 17_666 ?
Mn1 I2 Cs2 174.99(3) . . ?
Mn1 I2 Cs2 86.310(16) . 3_755 ?
Cs2 I2 Cs2 89.597(14) . 3_755 ?
Mn1 I2 Cs2 86.310(16) . 19_566 ?
Cs2 I2 Cs2 89.597(14) . 19_566 ?
Cs2 I2 Cs2 70.255(19) 3_755 19_566 ?
Mn1 I2 Cs1 93.889(12) . 17_666 ?
Cs2 I2 Cs1 88.666(11) . 17_666 ?
Cs2 I2 Cs1 155.834(17) 3_755 17_666 ?
Cs2 I2 Cs1 85.630(8) 19_566 17_666 ?
Mn1 I2 Cs1 93.889(12) . 9_554 ?
Cs2 I2 Cs1 88.666(11) . 9_554 ?
Cs2 I2 Cs1 85.630(8) 3_755 9_554 ?
Cs2 I2 Cs1 155.834(17) 19_566 9_554 ?
Cs1 I2 Cs1 118.415(18) 17_666 9_554 ?
Br1 Mn1 Br1 110.421(17) 28_645 2_765 ?
Br1 Mn1 Br1 107.59(3) 28_645 27_565 ?
Br1 Mn1 Br1 110.421(17) 2_765 27_565 ?
Br1 Mn1 I2 110.421(17) 28_645 . ?
Br1 Mn1 I2 107.59(3) 2_765 . ?
Br1 Mn1 I2 110.421(17) 27_565 . ?
loop_
_geom_bond_atom_site_label_1
_geom_bond_atom_site_label_2
_geom_bond_distance
_geom_bond_site_symmetry_2
_geom_bond_publ_flag
I1 Cs2 3.8010(3) 17_666 ?
I1 Cs2 3.8010(3) 19_566 ?
I1 Cs2 3.8010(3) 3_655 ?
I1 Cs2 3.8010(3) . ?
I1 Cs1 3.9700(3) 17_666 ?
I1 Cs1 3.9700(3) . ?
Cs2 I2 3.6965(8) . ?
Cs2 Br1 3.6965(8) 18_556 ?
Cs2 Br1 3.9289(7) 19_576 ?
Cs2 Br1 3.9289(7) 3_655 ?
Cs2 Br1 3.9289(7) 20_656 ?
Cs2 Br1 3.9289(7) 4_575 ?
Cs2 Cs2 4.5213(12) 17_676 ?
Cs2 Cs2 5.3755(4) 19_576 ?
Cs2 Cs2 5.3755(4) 3_655 ?
Cs1 Br1 4.1545(4) 10_665 ?
Cs1 Br1 4.1545(4) 17_666 ?
Cs1 Br1 4.1545(4) 19_566 ?
Cs1 Br1 4.1545(4) 11_645 ?
Cs1 Br1 4.1545(4) 18_556 ?
Cs1 Br1 4.1545(4) 9_445 ?
Cs1 Br1 4.1545(4) 12_465 ?
Cs1 Br1 4.1545(4) 20_656 ?
I2 Mn1 2.5979(6) . ?
