#------------------------------------------------------------------------------
#$Date: 2020-10-27 00:25:48 +0200 (Tue, 27 Oct 2020) $
#$Revision: 258602 $
#$URL: file:///home/coder/svn-repositories/cod/cif/4/51/81/4518182.cif $
#------------------------------------------------------------------------------
#
# This file is available in the Crystallography Open Database (COD),
# http://www.crystallography.net/
#
# All data on this site have been placed in the public domain by the
# contributors.
#
data_4518182
loop_
_publ_author_name
'Venturi, Silvia'
'Brenna, Elisabetta'
'Colombo, Danilo'
'Fraaije, Marco W.'
'Gatti, Francesco G.'
'Macchi, Piero'
'Monti, Daniela'
'Trajkovic, Milos'
'Zamboni, Emilio'
_publ_section_title
;
 Multienzymatic Stereoselective Reduction of Tetrasubstituted Cyclic
 Enones to Halohydrins with Three Contiguous Stereogenic Centers
;
_journal_name_full               'ACS Catalysis'
_journal_page_first              13050
_journal_page_last               13057
_journal_paper_doi               10.1021/acscatal.0c04097
_journal_year                    2020
_chemical_absolute_configuration ad
_chemical_formula_sum            'C8 H15 Cl O'
_chemical_formula_weight         162.65
_space_group_IT_number           4
_space_group_name_Hall           'P 2yb'
_space_group_name_H-M_alt        'P 1 21 1'
_symmetry_cell_setting           monoclinic
_symmetry_Int_Tables_number      4
_symmetry_space_group_name_Hall  'P 2yb'
_symmetry_space_group_name_H-M   'P 1 21 1'
_atom_sites_solution_hydrogens   geom
_audit_creation_date             2018-12-16T11:39:54-00:00
_audit_creation_method           'WinGX routine CIF_UPDATE'
_cell_angle_alpha                90
_cell_angle_beta                 93.567(3)
_cell_angle_gamma                90
_cell_formula_units_Z            2
_cell_length_a                   6.2973(2)
_cell_length_b                   5.2861(2)
_cell_length_c                   12.6948(5)
_cell_measurement_reflns_used    2412
_cell_measurement_temperature    123(2)
_cell_measurement_theta_max      26.154
_cell_measurement_theta_min      3.197
_cell_volume                     421.77(3)
_computing_cell_refinement       'CrysAlisPro 1.171.40.29a (Rigaku OD, 2018)'
_computing_data_collection       'CrysAlisPro 1.171.40.29a (Rigaku OD, 2018)'
_computing_data_reduction        'CrysAlisPro 1.171.40.29a (Rigaku OD, 2018)'
_computing_structure_refinement  'SHELXL-2017/1 (Sheldrick, 2017)'
_diffrn_ambient_environment      N~2~
_diffrn_ambient_temperature      123(2)
_diffrn_detector                 'CCD plate'
_diffrn_detector_area_resol_mean 16.0965
_diffrn_detector_type            Eos
_diffrn_measured_fraction_theta_full 1
_diffrn_measured_fraction_theta_max 0.962
_diffrn_measurement_device       'four-circle diffractometer'
_diffrn_measurement_device_type  'SuperNova, Single source at offset/far, Eos'
_diffrn_measurement_method       '\w scans'
_diffrn_orient_matrix_type
'CrysAlisPro convention (1999,Acta A55,543-557)'
_diffrn_orient_matrix_UB_11      -0.0399824
_diffrn_orient_matrix_UB_12      -0.0612784
_diffrn_orient_matrix_UB_13      -0.0468276
_diffrn_orient_matrix_UB_21      -0.0769585
_diffrn_orient_matrix_UB_22      -0.0632398
_diffrn_orient_matrix_UB_23      0.0288722
_diffrn_orient_matrix_UB_31      -0.0722405
_diffrn_orient_matrix_UB_32      0.1012586
_diffrn_orient_matrix_UB_33      -0.0103028
_diffrn_radiation_monochromator  mirror
_diffrn_radiation_probe          x-ray
_diffrn_radiation_type           MoK\a
_diffrn_radiation_wavelength     0.71073
_diffrn_reflns_av_R_equivalents  0.0473
_diffrn_reflns_av_unetI/netI     0.0704
_diffrn_reflns_Laue_measured_fraction_full 1
_diffrn_reflns_Laue_measured_fraction_max 0.962
_diffrn_reflns_limit_h_max       8
_diffrn_reflns_limit_h_min       -8
_diffrn_reflns_limit_k_max       6
_diffrn_reflns_limit_k_min       -6
_diffrn_reflns_limit_l_max       16
_diffrn_reflns_limit_l_min       -16
_diffrn_reflns_number            7255
_diffrn_reflns_point_group_measured_fraction_full 1
_diffrn_reflns_point_group_measured_fraction_max 0.937
_diffrn_reflns_theta_full        25.242
_diffrn_reflns_theta_max         28.035
_diffrn_reflns_theta_min         1.607
_diffrn_source                   'micro-focus sealed X-ray tube'
_diffrn_source_type              'SuperNova (Mo) X-ray Source'
_exptl_absorpt_coefficient_mu    0.385
_exptl_absorpt_correction_T_max  1
_exptl_absorpt_correction_T_min  0.81184
_exptl_absorpt_correction_type   multi-scan
_exptl_absorpt_process_details
;
        CrysAlisPro 1.171.40.29a (Rigaku Oxford Diffraction, 2018)
        Empirical absorption correction using spherical harmonics,
 implemented in SCALE3 ABSPACK scaling algorithm.
;
_exptl_crystal_density_diffrn    1.281
_exptl_crystal_description       prism
_exptl_crystal_F_000             176
_exptl_crystal_size_max          0.202
_exptl_crystal_size_mid          0.129
_exptl_crystal_size_min          0.034
_refine_diff_density_max         0.256
_refine_diff_density_min         -0.266
_refine_diff_density_rms         0.051
_refine_ls_abs_structure_details
;
 Flack x determined using 673 quotients [(I+)-(I-)]/[(I+)+(I-)]
 (Parsons, Flack and Wagner, Acta Cryst. B69 (2013) 249-259).
;
_refine_ls_abs_structure_Flack   -0.01(5)
_refine_ls_extinction_method     none
_refine_ls_goodness_of_fit_ref   1.044
_refine_ls_hydrogen_treatment    constr
_refine_ls_matrix_type           full
_refine_ls_number_parameters     93
_refine_ls_number_reflns         1900
_refine_ls_number_restraints     1
_refine_ls_restrained_S_all      1.044
_refine_ls_R_factor_all          0.0432
_refine_ls_R_factor_gt           0.035
_refine_ls_shift/su_max          0
_refine_ls_shift/su_mean         0
_refine_ls_structure_factor_coef Fsqd
_refine_ls_weighting_details
'w=1/[\s^2^(Fo^2^)+(0.0257P)^2^+0.0511P] where P=(Fo^2^+2Fc^2^)/3'
_refine_ls_weighting_scheme      calc
_refine_ls_wR_factor_gt          0.0675
_refine_ls_wR_factor_ref         0.0716
_reflns_Friedel_coverage         0.758
_reflns_Friedel_fraction_full    1
_reflns_Friedel_fraction_max     0.907
_reflns_number_gt                1716
_reflns_number_total             1900
_reflns_threshold_expression     'I > 2\s(I)'
_cod_data_source_file            cs0c04097_si_002.cif
_cod_data_source_block           3c
_cod_original_sg_symbol_H-M      'P 21'
_cod_database_code               4518182
_shelx_res_file
;
TITL shelxt_a.res in P2(1)
    shelx.res
    created by SHELXL-2017/1 at 11:39:37 on 16-Dec-2018
CELL  0.71073   6.2973   5.2861  12.6948   90.000   93.567   90.000
ZERR     2.00   0.0002   0.0002   0.0005    0.000    0.003    0.000
LATT  -1
SYMM  - X, 1/2 + Y, - Z
SFAC  C    H    O    CL
UNIT  16 30 2 2
MERG   2
FMAP   2
PLAN   20
ACTA
BOND   $H
LIST   6
L.S.  10
TEMP  -150.00
WGHT    0.025700    0.051100
FVAR       6.39573
C1    1    0.820591    0.484539    0.276632    11.00000    0.01641    0.01044 =
         0.02003   -0.00028    0.00148   -0.00333
AFIX  13
H1    2    0.903677    0.327969    0.262994    11.00000   -1.20000
AFIX   0
C2    1    0.760668    0.480034    0.391100    11.00000    0.01564    0.01581 =
         0.01814   -0.00002    0.00020    0.00115
AFIX  13
H2    2    0.679499    0.637180    0.406156    11.00000   -1.20000
AFIX   0
C3    1    0.622560    0.250836    0.409492    11.00000    0.02072    0.01953 =
         0.02205    0.00283    0.00626   -0.00290
AFIX  23
H3A   2    0.579573    0.252715    0.483185    11.00000   -1.20000
H3B   2    0.706130    0.094979    0.399503    11.00000   -1.20000
AFIX   0
C4    1    0.423850    0.247048    0.334164    11.00000    0.01741    0.02509 =
         0.03157    0.00207    0.00272   -0.00415
AFIX  23
H4A   2    0.341801    0.090657    0.345443    11.00000   -1.20000
H4B   2    0.332385    0.393572    0.348905    11.00000   -1.20000
AFIX   0
C5    1    0.485438    0.258060    0.219824    11.00000    0.01867    0.02053 =
         0.02668   -0.00129   -0.00356   -0.00270
AFIX  23
H5A   2    0.354741    0.264275    0.172340    11.00000   -1.20000
H5B   2    0.564240    0.102380    0.203355    11.00000   -1.20000
AFIX   0
C6    1    0.624309    0.490291    0.199165    11.00000    0.01853    0.01392 =
         0.02131   -0.00069   -0.00106    0.00134
AFIX  13
H6    2    0.540124    0.644030    0.215798    11.00000   -1.20000
AFIX   0
C7    1    0.677797    0.510114    0.082800    11.00000    0.02727    0.02107 =
         0.02011    0.00092   -0.00479   -0.00152
AFIX  23
H7A   2    0.544077    0.495161    0.037932    11.00000   -1.20000
H7B   2    0.737451    0.680216    0.070771    11.00000   -1.20000
AFIX   0
C8    1    0.834498    0.312507    0.047184    11.00000    0.02985    0.02753 =
         0.02160   -0.00071    0.00177   -0.00256
AFIX 137
H8A   2    0.782009    0.142979    0.062911    11.00000   -1.50000
H8B   2    0.973477    0.338869    0.084706    11.00000   -1.50000
H8C   2    0.848724    0.328666   -0.028957    11.00000   -1.50000
AFIX   0
O1    3    0.944470    0.464748    0.462645    11.00000    0.02381    0.01994 =
         0.01998    0.00068   -0.00537   -0.00362
AFIX 147
H1A   2    0.985783    0.611328    0.479237    11.00000   -1.50000
AFIX   0
CL1   4    0.989505    0.757197    0.256897    11.00000    0.02262    0.01828 =
         0.02317    0.00174    0.00089   -0.00604
HKLF    4




REM  shelxt_a.res in P2(1)
REM R1 =  0.0350 for    1716 Fo > 4sig(Fo)  and  0.0432 for all    1900 data
REM     93 parameters refined using      1 restraints

END

WGHT      0.0257      0.0511

REM Highest difference peak  0.256,  deepest hole -0.266,  1-sigma level  0.051
Q1    1   0.7926  0.4739  0.3371  11.00000  0.05    0.26
Q2    1   0.6976  0.3614  0.3987  11.00000  0.05    0.24
Q3    1   0.5398  0.2387  0.3638  11.00000  0.05    0.23
Q4    1   0.7438  0.4243  0.0546  11.00000  0.05    0.21
Q5    1   0.7692  0.0527  0.3244  11.00000  0.05    0.20
Q6    1   0.6737  0.4880  0.1443  11.00000  0.05    0.19
Q7    1   0.9879  0.7613  0.3924  11.00000  0.05    0.19
Q8    1   0.7234  0.5967  0.4020  11.00000  0.05    0.19
Q9    1   0.9235  0.7776  0.3206  11.00000  0.05    0.19
Q10   1   0.7181  0.4939  0.2393  11.00000  0.05    0.19
Q11   1   0.7275 -0.0873  0.4162  11.00000  0.05    0.19
Q12   1   0.4631  0.2799  0.2831  11.00000  0.05    0.18
Q13   1   1.1386  0.6709  0.2546  11.00000  0.05    0.18
Q14   1   0.5073  0.7613  0.3138  11.00000  0.05    0.18
Q15   1   0.8283  0.4752  0.4164  11.00000  0.05    0.18
Q16   1   0.7742  0.2590  0.5363  11.00000  0.05    0.17
Q17   1   0.6033  0.2634  0.4416  11.00000  0.05    0.16
Q18   1   0.5870  0.5878  0.2042  11.00000  0.05    0.16
Q19   1   0.8582  0.6264  0.2688  11.00000  0.05    0.16
Q20   1   0.8836  0.8747  0.2675  11.00000  0.05    0.16
;
_shelx_res_checksum              89780
_shelx_hkl_file
;
   0  -6   0 4723.80 523.678   1
   0  -6  -1 1605.20 331.281   1
   0  -6   2 3783.04 537.049   9
   0  -6  -2 3662.03 484.513   1
   0  -6   3 14.4963 188.653   9
   0  -6  -3-56.4437 153.818   1
   0  -6  -4 2716.20 443.014   1
   0  -6   4 3088.95 499.588   9
   0  -6  -5-36.9687 179.681   1
   0  -6   5-103.083 234.969   9
   0  -6   6 1658.67 406.252   9
   0  -6  -6 1077.35 303.253   1
   0  -5   0 39.1074 127.635   1
   0  -5   1 2031.38 301.368   1
   0  -5  -1 1979.56 309.284   1
   0  -5  -2 1551.75 276.163   1
   0  -5   3 6902.63 640.694   9
   0  -5  -3 6673.57 596.352   1
   0  -5   4 1963.58 355.719   9
   0  -5  -4 2580.64 394.490   1
   0  -5  -5 2907.42 428.635   1
   0  -5   5 2545.61 422.242   7
   0  -5   5 2583.19 426.434   9
   0  -5   6 976.561 281.008   9
   0  -5  -6 841.288 269.835   1
   0  -5   6 595.273 275.525   7
   0  -5   7 2453.82 433.022   9
   0  -5  -7 3004.32 456.794   1
   0  -5   7 2922.31 459.579   7
   0  -5  -8 861.268 274.085   1
   0  -5   8 732.200 273.297   7
   0  -5   8 927.068 308.241   9
   0  -5  -9 2445.40 431.916   1
   0  -5   9 2677.02 467.100   7
   0  -5   9 2230.17 442.855   9
   0  -5  10 1042.07 353.033   9
   0  -5 -10 895.539 302.583   1
   0  -4   0 57884.2 1737.16   1
   0  -4   1 3730.78 356.002   1
   0  -4  -1 4381.65 406.439   1
   0  -4   2 12598.7 649.295   1
   0  -4   2 11342.2 716.258   7
   0  -4  -2 12038.9 709.192   1
   0  -4  -3 579.699 174.378   1
   0  -4   3 670.452 151.817   1
   0  -4   3 873.038 229.092   9
   0  -4   3 396.275 162.579   7
   0  -4   4 6731.71 559.230   7
   0  -4  -4 6640.09 556.853   1
   0  -4   4 6367.08 551.155   9
   0  -4  -5 30.8298 110.311   1
   0  -4   5 135.482 123.540   9
   0  -4   5-59.8427 143.795   7
   0  -4   6 11253.3 750.219   7
   0  -4   6 9342.80 712.297   9
   0  -4  -6 10344.2 733.104   1
   0  -4   7-84.9444 165.962   9
   0  -4   7 30.5221 144.622   7
   0  -4  -7-83.5489 144.201   1
   0  -4  -8 1854.39 342.732   1
   0  -4   8 1721.55 317.842   7
   0  -4   8 1494.33 319.717   9
   0  -4  -9 527.381 218.424   1
   0  -4   9 516.844 236.798   9
   0  -4   9 463.871 208.094   7
   0  -4  10 624.123 238.753   7
   0  -4 -10 623.961 250.875   1
   0  -4  10 578.071 311.916   9
   0  -4 -11 1450.56 340.409   1
   0  -4  11 1300.39 302.468   7
   0  -4  11 647.858 262.378   9
   0  -4  12 864.910 308.363   9
   0  -4 -12 1935.85 373.125   1
   0  -4 -13 494.425 229.960   1
   0  -3   0 39.5061 92.2009   1
   0  -3   0-1.18721 87.0092   7
   0  -3   1 12541.6 586.738   1
   0  -3  -1 13590.7 342.782   8
   0  -3   1 14983.0 696.465   7
   0  -3  -1 14578.9 669.323   1
   0  -3  -2 823.868 77.5846   4
   0  -3  -2 873.281 182.696   1
   0  -3   2 842.598 191.568   7
   0  -3   2 879.398 142.459   1
   0  -3  -3 9834.20 391.497   4
   0  -3   3 10046.8 468.597   1
   0  -3   3 10229.9 598.329   9
   0  -3  -3 9477.78 575.066   1
   0  -3   3 10469.8 595.788   7
   0  -3  -4 979.270 142.064   4
   0  -3   4 750.395 175.139   7
   0  -3  -4 707.231 178.993   1
   0  -3   4 937.859 203.369   9
   0  -3   4 1052.56 140.184   1
   0  -3   5 11502.7 687.678   9
   0  -3   5 12595.8 685.264   7
   0  -3  -5 11115.9 661.305   1
   0  -3  -5 10121.2 525.785   4
   0  -3   6 4846.04 463.799   9
   0  -3  -6 5164.09 458.060   1
   0  -3   6 5935.51 478.671   7
   0  -3  -6 4490.68 373.581   4
   0  -3   7 5505.73 511.063   9
   0  -3  -7 4258.31 396.389   4
   0  -3  -7 4698.61 452.122   1
   0  -3   7 5901.60 487.122   7
   0  -3  -8 991.596 233.618   1
   0  -3   8 1274.55 292.894   9
   0  -3   8 1153.10 249.404   7
   0  -3  -8 1059.19 221.117   4
   0  -3  -9 8165.56 635.408   1
   0  -3  -9 7401.85 603.488   4
   0  -3   9 9028.78 726.079   9
   0  -3   9 9044.77 635.557   7
   0  -3  10 8491.41 635.037   7
   0  -3 -10 9264.58 698.514   1
   0  -3  10 9170.92 762.258   9
   0  -3 -10 7420.16 636.051   4
   0  -3 -11 1488.66 300.385   1
   0  -3  11 2287.87 418.380   9
   0  -3 -11 1192.06 290.681   4
   0  -3  11 1687.39 299.246   7
   0  -3  12 1482.25 367.088   9
   0  -3 -12 1643.26 337.315   4
   0  -3 -12 2115.89 360.044   1
   0  -3  13 814.164 319.592   9
   0  -3 -13 1453.33 317.947   1
   0  -3 -13 1511.07 349.181   4
   0  -3 -14 147.282 179.351   4
   0  -3  14 128.063 256.596   9
   0  -3 -15 3384.54 546.164   4
   0  -2   0 13156.3 515.875   1
   0  -2   0 12488.8 528.594   7
   0  -2   1 641.900 137.760   7
   0  -2  -1 633.910 121.185   1
   0  -2   1 757.954 116.648   1
   0  -2   2 26831.3 749.114   1
   0  -2   2 26651.0 867.189   7
   0  -2  -2 25877.8 679.636   4
   0  -2  -2 27269.3 881.061   1
   0  -2  -3 6783.47 233.174   8
   0  -2   3 6508.14 399.449   7
   0  -2  -3 6696.86 337.357   4
   0  -2   3 7292.99 306.012   1
   0  -2  -3 7266.48 431.523   1
   0  -2   3 7008.50 421.726   9
   0  -2  -4 13494.7 620.438   1
   0  -2   4 12342.2 578.048   7
   0  -2   4 12992.4 374.042   5
   0  -2   4 13167.0 632.856   9
   0  -2  -4 11711.8 528.610   4
   0  -2  -4 12414.4 420.591   8
   0  -2   4 12345.0 404.438   1
   0  -2   5 350.308 44.3323   5
   0  -2   5 182.024 97.4162   7
   0  -2   5 201.531 122.170   9
   0  -2  -5 486.611 99.3117   8
   0  -2  -5 386.320 125.248   1
   0  -2  -5 298.461 109.328   4
   0  -2   6 5293.07 437.188   9
   0  -2   6 5706.32 404.473   7
   0  -2  -6 5886.66 432.293   4
   0  -2  -6 5576.59 425.362   1
   0  -2  -6 5177.67 332.133   8
   0  -2   7 90.1658 129.751   9
   0  -2   7 269.327 112.523   7
   0  -2  -7 411.637 141.261   1
   0  -2  -7 381.476 111.096   8
   0  -2  -7 145.532 117.803   4
   0  -2  -8 6996.02 509.036   1
   0  -2   8 6386.38 537.365   9
   0  -2  -8 6399.70 438.019   8
   0  -2   8 6999.59 474.451   7
   0  -2  -8 5544.67 493.086   4
   0  -2   9 286.416 115.904   7
   0  -2  -9 90.3559 92.3483   1
   0  -2  -9 163.031 104.910   8
   0  -2  -9 285.036 178.709   4
   0  -2   9 385.386 200.300   9
   0  -2 -10 7133.79 626.256   4
   0  -2 -10 8868.07 589.674   8
   0  -2  10 9089.39 579.700   7
   0  -2  10 9574.48 735.977   9
   0  -2 -10 8022.76 591.507   1
   0  -2 -11 2867.74 364.518   1
   0  -2  11 2824.86 435.873   9
   0  -2 -11 2859.32 415.356   4
   0  -2 -12 6585.23 665.432   4
   0  -2  12 6411.99 679.104   9
   0  -2 -12 7664.22 609.501   1
   0  -2  13 2912.22 509.201   9
   0  -2 -13 2350.66 429.992   4
   0  -2  13 2768.65 422.217   3
   0  -2 -14 1097.60 323.475   4
   0  -2  14 710.314 264.105   3
   0  -2  15-209.868 241.992   9
   0  -2  15 117.585 166.692   3
   0  -2 -15 220.872 197.289   4
   0  -2  16 810.200 303.316   3
   0  -1   0 5.22971 48.7383   7
   0  -1   0-9.93597 46.4336   1
   0  -1  -1 49530.1 1036.95   4
   0  -1  -1 51038.3 1159.43   1
   0  -1   1 49802.1 1066.88   1
   0  -1   1 51752.7 1152.48   7
   0  -1   2 2970.40 209.928   9
   0  -1  -2 3372.59 217.755   1
   0  -1  -2 3417.18 147.171   8
   0  -1   2 3048.34 133.853   1
   0  -1   2 3187.74 200.906   7
   0  -1  -3 56180.7 1373.30   1
   0  -1   3 58292.9 1418.30   9
   0  -1   3 56913.6 1341.66   7
   0  -1  -3 57828.1 1278.49   8
   0  -1  -4 2149.99 183.272   8
   0  -1   4 1928.93 178.092   7
   0  -1  -4 1984.88 193.377   1
   0  -1   4 2119.09 103.759   5
   0  -1   4 2096.87 218.886   9
   0  -1  -4 1632.48 206.028   4
   0  -1  -5 21637.8 746.487   8
   0  -1   5 21265.6 539.976   5
   0  -1   5 22310.0 828.859   9
   0  -1  -5 21719.5 832.864   4
   0  -1   5 24022.9 735.566   7
   0  -1  -5 22832.9 766.162   1
   0  -1   6 9084.62 531.236   9
   0  -1  -6 7165.27 484.038   4
   0  -1   6 8358.34 306.343   5
   0  -1  -6 8040.62 454.735   8
   0  -1   6 8279.57 411.625   7
   0  -1  -6 7382.33 424.106   1
   0  -1  -7 16504.4 813.491   4
   0  -1   7 16851.9 528.334   5
   0  -1   7 15806.4 780.315   9
   0  -1  -7 16166.8 740.377   8
   0  -1   7 17156.2 655.383   7
   0  -1  -7 17194.8 703.385   1
   0  -1  -8 2873.51 281.821   1
   0  -1  -8 2632.00 304.860   8
   0  -1  -8 2673.93 350.203   4
   0  -1   8 3011.67 360.565   9
   0  -1   8 2849.44 256.819   7
   0  -1   9 8274.09 623.402   9
   0  -1  -9 6814.91 578.327   4
   0  -1  -9 7991.65 497.268   1
   0  -1  -9 6932.10 524.175   8
   0  -1   9 7991.84 460.139   7
   0  -1  10 9157.72 690.416   9
   0  -1 -10 9097.01 558.058   1
   0  -1  10 8447.64 587.103   3
   0  -1 -10 7977.12 664.786   4
   0  -1 -10 7864.42 601.063   8
   0  -1  11 5736.94 507.895   3
   0  -1 -11 4942.96 503.976   8
   0  -1 -11 5203.34 431.852   1
   0  -1 -11 4796.07 545.199   4
   0  -1  11 4577.17 526.011   9
   0  -1  12 3606.78 429.071   3
   0  -1 -12 3446.97 492.010   4
   0  -1  12 3032.94 468.177   9
   0  -1 -13 1756.40 411.015   4
   0  -1  13 2251.09 377.141   3
   0  -1  13 1778.44 392.022   9
   0  -1  14 68.7711 229.280   9
   0  -1  14 290.714 178.181   3
   0  -1 -14 65.4385 201.718   4
   0  -1  15 2182.88 467.876   9
   0  -1 -15 2135.24 469.471   4
   0  -1  15 2531.13 430.303   3
   0  -1  16 2158.03 419.869   3
   0   0  -1 9279.12 259.795   8
   0   0   1 9144.45 256.258   9
   0   0  -2 30214.6 647.428   1
   0   0   2 29050.4 681.490   3
   0   0   2 29146.0 727.950   9
   0   0  -2 29966.5 733.650   8
   0   0   2 28593.5 658.899   5
   0   0  -3 2189.95 182.543   8
   0   0   3 2197.62 156.612   3
   0   0   3 2025.02 140.627   5
   0   0  -3 2068.44 128.718   1
   0   0   3 2326.25 186.961   9
   0   0   4 36318.4 913.930   5
   0   0   4 38631.1 969.878   3
   0   0  -4 36205.1 1038.08   8
   0   0  -4 35485.8 879.920   1
   0   0   4 38577.1 1052.23   9
   0   0  -5 974.112 115.600   1
   0   0   5 1000.85 130.875   5
   0   0   5 711.193 125.615   3
   0   0   5 827.014 92.9752   7
   0   0   5 684.940 147.503   9
   0   0  -5 1013.25 171.124   8
   0   0  -6 44108.7 1384.84   4
   0   0   6 42352.3 1203.81   3
   0   0   6 44288.6 1337.82   9
   0   0  -6 42216.4 1302.46   8
   0   0  -6 44417.6 1101.02   1
   0   0   6 42431.9 1036.62   7
   0   0   6 44000.0 1163.28   5
   0   0  -7 2597.50 319.254   4
   0   0   7 3509.99 298.854   3
   0   0   7 3127.05 331.266   9
   0   0  -7 2787.01 306.834   8
   0   0  -7 2759.63 221.454   1
   0   0   7 2603.43 192.685   7
   0   0  -8 1346.56 248.208   8
   0   0  -8 994.016 232.752   4
   0   0   8 1230.35 144.122   7
   0   0   8 1581.53 275.370   9
   0   0  -8 1070.56 150.611   1
   0   0   8 1090.80 201.147   3
   0   0   9 3063.59 329.260   3
   0   0  -9 2945.11 361.720   8
   0   0  -9 3097.91 264.830   1
   0   0   9 3568.98 409.659   9
   0   0  -9 2434.37 352.681   4
   0   0 -10 2564.21 364.197   8
   0   0  10 3231.69 351.633   3
   0   0 -10 2844.88 398.828   4
   0   0  10 2426.66 369.654   9
   0   0  11 795.281 239.690   9
   0   0 -11 648.310 218.827   8
   0   0  11 560.396 181.342   3
   0   0 -11 1105.15 295.301   4
   0   0  12 933.928 243.037   3
   0   0  12 799.421 259.077   9
   0   0 -12 1312.66 318.613   4
   0   0 -12 750.658 258.236   8
   0   0 -13 751.603 269.697   4
   0   0  13 893.632 293.823   9
   0   0  13 803.932 239.922   3
   0   0  14 3497.38 467.364   3
   0   0  14 3391.07 529.187   9
   0   0 -14 3370.95 536.430   4
   0   0  15 7429.55 705.144   3
   0   0 -15 6852.17 695.645   6
   0   0 -15 6294.52 765.241   4
   0   0  15 7283.16 795.060   9
   0   0  16 64.1974 152.397   3
   0   1   0-13.0308 42.7682  10
   0   1   0-15.1721 33.0738  11
   0   1   0 15.8432 46.9024   3
   0   1   0 3.60984 42.7886   6
   0   1   0-72.7554 57.4242   2
   0   1   1 51078.6 994.719  11
   0   1  -1 51289.0 1161.70   2
   0   1  -1 50412.6 1115.49   6
   0   1  -1 49998.5 1108.23   8
   0   1  -1 50847.6 1163.93   3
   0   1   1 49130.5 1163.46   3
   0   1  -1 49294.6 1031.55   4
   0   1   1 50533.1 1159.49  10
   0   1   1 47798.3 1146.71   2
   0   1   2 3217.29 124.287  11
   0   1   2 3202.53 211.302   3
   0   1  -2 2995.17 190.523   6
   0   1  -2 3129.42 210.945   8
   0   1   2 3275.99 207.195  10
   0   1   3 57908.2 1394.34   3
   0   1  -3 60013.1 1380.08   6
   0   1   3 60256.8 1406.43  10
   0   1  -3 59581.0 1448.98   8
   0   1   3 58124.7 1402.11   9
   0   1   3 56861.0 1221.11  11
   0   1   4 2203.41 210.241   9
   0   1  -4 1855.07 215.166   8
   0   1  -4 1824.65 207.658   4
   0   1   4 1762.63 183.480   3
   0   1  -4 2474.34 209.337   6
   0   1   4 1965.37 144.336  11
   0   1  -5 23793.4 778.681   6
   0   1  -5 21642.0 826.285   4
   0   1  -5 22014.3 836.677   8
   0   1   5 21305.6 761.898   3
   0   1   5 21834.4 799.356   9
   0   1  -6 7951.12 502.891   4
   0   1  -6 8160.38 292.491   1
   0   1  -6 8961.43 475.463   6
   0   1   6 8854.79 508.278   9
   0   1  -6 8910.54 534.190   8
   0   1   6 8545.20 470.198   3
   0   1  -7 16210.9 494.558   1
   0   1  -7 17866.1 747.457   6
   0   1  -7 16089.6 802.053   4
   0   1   7 16707.6 733.653   3
   0   1   7 17935.6 797.899   9
   0   1  -7 17105.9 814.716   8
   0   1  -8 2655.98 331.105   8
   0   1   8 2466.37 314.470   9
   0   1  -8 2983.06 353.760   4
   0   1   8 2273.61 281.646   3
   0   1  -8 2807.55 308.394   6
   0   1  -9 7461.19 533.990   6
   0   1   9 8108.09 599.644   9
   0   1  -9 7058.89 583.512   4
   0   1  -9 7054.77 573.311   8
   0   1   9 7192.01 523.256   3
   0   1 -10 7306.35 619.900   8
   0   1  10 8079.02 586.029   3
   0   1 -10 7839.80 650.643   4
   0   1  10 7440.87 614.562   9
   0   1 -10 8372.62 588.984   6
   0   1 -11 4950.37 543.620   8
   0   1  11 5035.51 523.494   9
   0   1  11 5292.16 499.476   3
   0   1 -11 5764.42 525.344   6
   0   1 -11 4572.14 522.179   4
   0   1  12 3373.60 462.399   9
   0   1 -12 2392.35 417.349   4
   0   1 -12 2620.69 373.324   6
   0   1  12 2860.35 386.225   3
   0   1 -13 2066.65 400.901   4
   0   1 -13 1742.43 308.188   6
   0   1  13 2617.39 390.439   3
   0   1  13 1781.20 391.387   9
   0   1 -14 37.1476 174.168   4
   0   1 -14-10.5606 163.903   6
   0   1  14 30.8606 127.240   3
   0   1  14-339.211 268.574   9
   0   1 -15 1370.01 401.296   4
   0   1 -15 1662.53 366.306   6
   0   1  15 1611.44 396.414   9
   0   1  15 1469.04 336.169   3
   0   2   0 13826.1 585.852   3
   0   2   0 13978.0 517.534   6
   0   2   1 719.242 84.7489  11
   0   2  -1 694.879 117.044   6
   0   2  -1 638.928 135.172   3
   0   2   1 747.443 135.402  10
   0   2   1 842.737 159.328   3
   0   2  -2 27099.9 688.851   4
   0   2   2 27521.8 917.376   3
   0   2  -2 27240.7 905.917   3
   0   2   2 27040.3 644.271  11
   0   2  -2 27638.4 840.112   6
   0   2   2 29147.1 922.620  10
   0   2   3 6843.09 233.397  11
   0   2   3 7007.95 424.745   3
   0   2   3 7037.85 420.908  10
   0   2  -3 6815.91 377.648   6
   0   2  -3 6390.27 323.370   4
   0   2   4 12549.3 372.696  11
   0   2   4 12266.2 596.148  10
   0   2  -4 13715.7 588.857   6
   0   2  -4 12786.2 546.097   4
   0   2   4 12346.9 600.789   3
   0   2  -4 14056.9 623.293   8
   0   2   5 180.130 109.113   3
   0   2  -5 414.224 129.086   8
   0   2   5 356.515 63.7497  11
   0   2  -5 278.054 104.291   6
   0   2  -5 334.858 117.863   4
   0   2   5 318.519 111.573  10
   0   2   6 6404.16 448.634  10
   0   2   6 6049.82 438.010   9
   0   2   6 6151.19 288.712  11
   0   2  -6 6033.73 425.669   6
   0   2  -6 6116.16 459.532   8
   0   2   6 5743.06 430.915   3
   0   2  -6 5676.03 419.450   4
   0   2   7 340.102 81.9794  11
   0   2  -7 500.311 163.859   4
   0   2  -7 218.432 136.174   8
   0   2   7 592.939 159.052  10
   0   2   7 475.491 145.989   3
   0   2  -7 497.860 144.597   6
   0   2   7 340.537 143.577   9
   0   2   8 6793.61 512.734  10
   0   2   8 6279.39 499.851   9
   0   2   8 5633.67 469.316   3
   0   2  -8 6257.62 529.706   8
   0   2  -8 5733.54 493.297   4
   0   2  -8 6088.59 474.513   6
   0   2   9 231.487 134.765   9
   0   2   9 61.5659 117.161   3
   0   2  -9 342.680 148.186   6
   0   2   9 530.604 188.234  10
   0   2  -9 454.240 178.908   4
   0   2  10 9559.37 674.440   3
   0   2 -10 8655.38 673.923   4
   0   2 -10 8692.85 632.908   6
   0   2  10 9273.20 685.259   9
   0   2  10 7755.26 621.523  10
   0   2 -11 2837.83 376.050   6
   0   2  11 3810.78 465.428   9
   0   2  11 2394.19 358.678   3
   0   2  11 2922.00 399.203  10
   0   2 -11 3069.90 421.722   4
   0   2  12 7702.13 690.795   9
   0   2 -12 7209.90 681.821   4
   0   2  12 7375.62 673.792  10
   0   2  12 7474.54 655.507   3
   0   2 -12 6520.76 599.581   6
   0   2  13 3296.03 487.205   9
   0   2  13 3161.48 454.387   3
   0   2 -13 3613.00 484.094   6
   0   2 -13 1765.92 377.212   4
   0   2  13 3743.42 501.386  10
   0   2  14 955.021 290.610   9
   0   2  14 1104.84 318.556  10
   0   2 -14 1415.32 340.850   6
   0   2  14 1602.52 353.913   3
   0   2 -14 893.029 291.451   4
   0   2  15-277.287 199.444   3
   0   2 -15-141.355 184.912   6
   0   2  15 13.4257 160.151  10
   0   2 -15 156.736 213.439   4
   0   2  15 122.290 215.905   9
   0   3   0 119.907 90.9584   3
   0   3   0 32.2638 62.0032   6
   0   3  -1 13923.3 708.669   3
   0   3  -1 15156.8 644.867   6
   0   3   1 14357.3 708.946  10
   0   3   1 15731.8 756.658   3
   0   3   2 758.142 163.352  10
   0   3  -2 591.995 138.241   6
   0   3  -2 769.202 174.991   3
   0   3   2 750.953 173.444   3
   0   3  -3 10757.1 621.212   3
   0   3   3 10287.9 611.013  10
   0   3  -3 9729.47 531.642   6
   0   3   3 9406.78 598.635   3
   0   3  -4 982.053 139.431   4
   0   3   4 767.304 189.835  10
   0   3  -4 1182.94 198.593   6
   0   3   4 771.097 193.171   3
   0   3   5 11039.0 673.950   3
   0   3  -5 10161.2 515.659   4
   0   3  -5 12067.3 640.387   6
   0   3   5 10527.4 654.107  10
   0   3  -6 4799.13 374.165   4
   0   3   6 4819.43 450.125   3
   0   3  -6 4561.62 403.995   6
   0   3   6 4162.66 422.561  10
   0   3  -7 5064.48 450.555   6
   0   3   7 4862.80 465.222   3
   0   3  -7 5055.93 422.373   4
   0   3   7 4646.84 473.259  10
   0   3   8 1028.16 248.448  10
   0   3  -8 1396.86 255.481   6
   0   3  -8 1334.20 239.995   4
   0   3   8 976.514 230.490   3
   0   3  -9 6856.15 570.580   6
   0   3  -9 7947.07 608.578   4
   0   3   9 7977.36 639.051  10
   0   3   9 7781.81 631.711   3
   0   3 -10 8037.19 644.820   6
   0   3  10 7803.03 659.016  10
   0   3  10 7955.89 664.015   3
   0   3 -10 7868.64 631.942   4
   0   3 -11 1886.79 339.347   6
   0   3  11 1302.21 302.460  10
   0   3 -11 1403.87 296.992   4
   0   3  11 1455.96 306.093   3
   0   3 -12 1449.92 333.264   4
   0   3 -12 1880.34 345.705   6
   0   3  12 2357.42 403.961   3
   0   3  12 1717.43 350.178   9
   0   3  12 1687.26 352.662  10
   0   3  13 1646.67 335.840   3
   0   3 -13 781.581 262.866   4
   0   3  13 1325.74 362.273   9
   0   3 -13 1150.01 290.027   6
   0   3  13 1230.25 331.608  10
   0   3 -14 114.559 177.709   6
   0   3  14-18.6095 189.569  10
   0   3  14-45.6061 126.469   3
   0   3  14 376.381 227.598   9
   0   4   0 55898.3 1826.69   3
   0   4   0 54030.8 1602.28   6
   0   4  -1 4457.32 449.496   3
   0   4   1 4001.62 434.075   3
   0   4  -1 4791.18 395.399   6
   0   4  -2 11098.2 632.791   6
   0   4   2 11108.0 716.430  10
   0   4   2 12981.5 788.562   3
   0   4  -2 11253.0 725.245   3
   0   4  -3 451.791 139.602   6
   0   4  -3 592.340 205.817   3
   0   4   3 491.730 153.276  10
   0   4   3 646.931 202.674   3
   0   4   4 6921.73 585.983   3
   0   4  -4 6343.84 496.408   6
   0   4   4 5777.90 529.746  10
   0   4  -5 93.9667 128.029   6
   0   4   5 117.796 137.828   3
   0   4   5-12.4081 127.967  10
   0   4   6 11041.9 772.981  10
   0   4  -6 10407.3 680.495   6
   0   4   6 10447.8 763.397   3
   0   4  -7 165.061 110.990   6
   0   4   7 139.805 150.399   3
   0   4   7 261.022 181.034  10
   0   4  -8 1495.33 282.346   6
   0   4   8 1514.86 309.263  10
   0   4   8 1801.59 335.920   3
   0   4   9 712.031 251.998  10
   0   4   9 647.617 271.123   3
   0   4  -9 278.953 176.663   6
   0   4 -10 701.087 238.291   6
   0   4  10 650.226 246.717  10
   0   4  10 505.458 210.942   3
   0   4 -11 778.922 250.835   6
   0   4  11 1017.86 290.373   3
   0   4  11 985.184 274.096  10
   0   4  12 1322.65 353.642   3
   0   4 -12 1581.71 343.203   6
   0   4  12 1770.85 377.762  10
   0   4  13 48.0469 170.203   3
   0   5   0 69.9343 173.672   3
   0   5   1 1742.52 338.637   3
   0   5  -1 1884.87 346.674   3
   0   5  -1 1972.31 288.397   6
   0   5  -2 1895.37 291.149   6
   0   5   2 1419.52 307.341   3
   0   5  -2 2108.17 359.861   3
   0   5  -3 6589.68 626.843   3
   0   5   3 5791.55 603.634   3
   0   5  -3 5738.43 513.661   6
   0   5   4 2387.79 412.672   3
   0   5   4 2648.84 410.355  10
   0   5  -4 2347.24 335.406   6
   0   5   5 3020.07 454.883   3
   0   5  -5 2780.31 372.775   6
   0   5   5 2544.05 405.069  10
   0   5   6 1257.83 304.651  10
   0   5  -6 801.723 214.499   6
   0   5   6 594.739 238.056   3
   0   5   7 3741.01 515.084   3
   0   5   7 3654.95 504.313  10
   0   5  -7 3170.39 426.440   6
   0   5   8 808.904 282.073   3
   0   5  -8 893.191 231.762   6
   0   5   8 1290.86 313.723  10
   0   5   9 2991.15 490.380   3
   0   5  -9 3429.24 465.784   6
   0   5   9 3801.45 546.644  10
   0   5 -10 589.273 226.452   6
   0   5  10 929.115 311.518   3
   0   5  10 1608.31 396.581  10
   0   5  11 3234.83 533.711   3
   0   5 -11 2935.21 458.261   6
   0   6   0 5246.74 627.954   3
   0   6  -1 1137.77 315.536   3
   0   6   1 1473.18 368.978   3
   0   6   2 3135.73 520.620   3
   0   6  -2 4135.35 556.015   3
   0   6  -2 3493.13 423.272   6
   0   6   3-190.758 199.756   3
   0   6  -3 290.869 145.552   6
   0   6  -3 7.11219 186.460   3
   0   6  -4 1961.22 337.463   6
   0   6   4 3525.54 541.750   3
   0   6   5-276.579 233.876   3
   0   6  -5 126.263 124.670   6
   0   6   6 1653.69 396.561  10
   0   6   6 1584.10 364.369   3
   0   6  -6 1646.67 332.583   6
   0   6   7 859.851 293.738   3
   0   6  -7 67.9617 121.218   6
   0   6  -8 1526.80 342.548   6
  -1  -6   6 1373.98 375.262   9
   1  -6  -6 925.940 307.520   1
  -1  -6   5 2036.12 440.349   9
   1  -6  -5 1065.75 302.421   1
   1  -6  -4 3825.13 528.265   1
  -1  -6   4 3158.03 525.560   9
   1  -6  -3-93.3776 146.105   1
  -1  -6   3 396.366 217.772   9
   1  -6  -2 2509.78 401.390   1
   1  -6  -1 2957.15 414.686   1
  -1  -6   0 1721.61 346.553   1
  -1  -6  -1 526.672 218.862   1
   1  -6   2 4241.96 569.994   9
  -1  -6  -2 3119.40 463.278   1
  -1  -6  -3 171.200 189.387   1
   1  -6   3 536.013 232.597   9
  -1  -6  -4 870.128 269.980   1
   1  -6   4 1119.39 320.278   9
  -1  -6  -5 535.363 268.793   1
   1  -6   5 640.428 259.482   9
  -1  -6  -6 2264.80 443.013   1
   1  -6   6 2937.01 489.752   9
   1  -5 -10 312.979 212.696   1
  -1  -5  10 257.778 246.339   9
   1  -5  -9 2056.11 410.960   1
  -1  -5   9 1970.71 413.853   9
  -1  -5   8 171.109 207.912   9
   1  -5  -8 551.521 236.532   1
  -1  -5   7 5838.49 652.485   9
   1  -5  -7 6591.81 658.523   1
   1  -5  -6 2088.09 378.524   1
  -1  -5   6 2010.67 386.884   9
   1  -5  -5 651.514 245.337   1
  -1  -5   5 1435.78 318.419   9
  -1  -5   4 466.754 230.769   9
   1  -5  -4 222.864 155.978   1
  -1  -5   3 5857.26 607.497   9
   1  -5  -3 5815.64 558.180   1
  -1  -5   2 208.086 147.620   1
   1  -5  -2 375.657 172.878   1
  -1  -5   1 17352.6 945.291   1
   1  -5  -1 17026.0 925.234   1
   1  -5   0 3496.39 459.973   7
   1  -5   0 4407.84 441.571   1
  -1  -5   0 5194.51 514.349   1
   1  -5   1 5343.81 468.512   1
  -1  -5  -1 5162.26 516.717   1
   1  -5   1 4069.09 462.559   7
   1  -5   2 218.412 150.259   7
   1  -5   2 233.051 147.570   9
  -1  -5  -2 335.599 163.143   1
   1  -5   3 7338.31 646.021   7
   1  -5   3 7351.47 656.925   9
  -1  -5  -3 6669.26 608.098   1
   1  -5   4-58.5290 175.751   9
  -1  -5  -4 90.5698 164.352   1
   1  -5   4 338.959 198.797   7
   1  -5   5 4001.65 508.980   7
   1  -5   5 4281.37 512.730   9
  -1  -5  -5 4419.84 525.175   1
  -1  -5  -6 253.948 158.470   1
   1  -5   6-41.5910 155.756   9
   1  -5   6 183.265 158.206   7
   1  -5   7 3103.48 456.458   7
   1  -5   7 2857.65 460.859   9
  -1  -5  -7 3081.97 468.784   1
   1  -5   8 1550.23 329.802   7
  -1  -5  -8 615.619 238.629   1
   1  -5   8 1022.41 269.498   9
  -1  -5  -9 1546.89 366.825   1
   1  -5   9 1246.98 335.600   9
   1  -5  10 845.580 332.325   9
  -1  -5 -10 915.535 321.211   1
   1  -4 -12 471.195 240.592   1
  -1  -4  12 580.760 277.891   9
  -1  -4  11 1147.86 351.374   9
   1  -4 -11 969.171 289.938   1
   1  -4 -10 1906.34 379.533   1
  -1  -4  10 1968.81 406.830   9
  -1  -4   9 575.269 223.475   9
   1  -4  -9 801.342 269.623   1
  -1  -4   8 2776.13 427.835   9
   1  -4  -8 3986.05 489.697   1
  -1  -4   7 6642.36 612.109   9
   1  -4  -7 5979.82 577.686   1
   1  -4  -6 5155.48 517.980   1
  -1  -4   6 4759.43 513.369   9
   1  -4  -5 5680.58 526.775   1
  -1  -4   5 5784.38 548.143   9
   1  -4  -4 11220.5 725.752   1
  -1  -4   4 11845.4 778.923   9
  -1  -4   4 11861.0 638.772   1
  -1  -4   3 714.649 187.996   1
  -1  -4   3 575.589 177.709   9
   1  -4  -3 549.004 185.521   1
   1  -4  -2 2988.79 350.587   7
  -1  -4   2 3761.68 369.339   1
   1  -4  -2 3346.54 369.665   1
   1  -4  -1 8957.89 577.349   7
   1  -4  -1 7537.52 535.731   1
  -1  -4   1 7417.56 532.785   1
  -1  -4   0 1475.58 250.234   1
   1  -4   0 2085.78 290.004   7
   1  -4   0 1297.46 242.067   1
   1  -4   1 1595.21 231.691   1
   1  -4   1 2008.05 290.501   7
  -1  -4  -1 1603.12 263.979   1
   1  -4   2 4330.49 357.970   1
   1  -4   2 3849.50 414.914   7
   1  -4   2 4067.14 421.876   9
  -1  -4  -2 4250.57 426.458   1
   1  -4   3 1212.44 246.802   7
  -1  -4  -3 1310.67 252.767   1
   1  -4   3 1585.61 279.311   9
   1  -4   4 7121.04 578.276   9
  -1  -4  -4 6123.12 541.797   1
   1  -4   4 6750.46 561.932   7
   1  -4   5 591.630 195.381   7
   1  -4   5 620.214 205.485   9
  -1  -4  -5 290.487 165.658   1
   1  -4   6 3320.18 417.129   7
  -1  -4  -6 3662.73 441.332   1
   1  -4   6 3022.01 410.564   9
   1  -4   7 443.631 204.510   9
   1  -4   7 583.955 225.392   7
  -1  -4  -7 383.150 179.776   1
   1  -4   8 8353.24 725.015   9
   1  -4   8 9599.76 734.101   7
  -1  -4  -8 7887.29 681.968   1
  -1  -4  -9 3901.52 495.331   1
   1  -4   9 4202.47 502.683   7
   1  -4   9 4220.74 544.626   9
  -1  -4 -10 10543.7 830.380   1
   1  -4  10 10107.5 858.277   9
   1  -4  10 11879.1 861.784   7
   1  -4  11 4839.70 610.372   9
  -1  -4 -11 4593.95 549.487   1
   1  -4  11 4999.46 572.453   7
  -1  -4 -12 944.806 288.295   1
   1  -4  12 993.010 282.402   7
   1  -4  12 691.956 305.516   9
  -1  -4 -13 212.423 195.346   1
   1  -3 -15 936.438 343.175   4
   1  -3 -14 1617.80 400.177   4
   1  -3 -14 1386.51 340.312   1
  -1  -3  14 1413.53 422.061   9
   1  -3 -13 2880.48 434.483   1
   1  -3 -13 3861.64 543.515   4
  -1  -3  13 3914.03 588.491   9
   1  -3 -12 145.069 171.887   4
  -1  -3  12 216.015 205.260   9
   1  -3 -12 519.857 222.457   1
  -1  -3  11 2257.80 415.563   9
   1  -3 -11 2826.49 416.066   4
   1  -3 -11 2575.87 395.333   1
  -1  -3  10 432.781 214.505   9
   1  -3 -10 822.139 230.014   1
   1  -3 -10 789.396 224.264   4
   1  -3  -9 4968.65 502.915   4
  -1  -3   9 4830.01 472.607   7
  -1  -3   9 4946.37 538.913   9
   1  -3  -9 5804.25 541.524   1
  -1  -3   8-50.8069 158.226   9
  -1  -3   8 139.629 127.629   7
   1  -3  -8 36.1136 132.412   1
   1  -3  -8 127.606 129.403   4
  -1  -3   7 4409.72 431.385   7
   1  -3  -7 5579.71 501.740   1
  -1  -3   7 5073.41 492.065   9
   1  -3  -6 7367.45 558.370   1
  -1  -3   6 7479.16 575.377   9
  -1  -3   5 10512.3 479.009   5
  -1  -3   5 9748.33 639.121   9
   1  -3  -5 9810.11 627.177   1
  -1  -3   5 11741.3 538.964   1
  -1  -3   4 1175.42 225.642   9
  -1  -3   4 1411.14 178.165   5
  -1  -3   4 1202.71 172.566   1
   1  -3  -4 707.215 173.572   1
   1  -3  -3 8575.85 545.061   1
  -1  -3   3 9483.52 597.699   9
   1  -3  -3 6601.57 476.682   7
  -1  -3   3 9007.11 493.028   1
   1  -3  -3 9618.24 364.981   8
   1  -3  -2 14416.0 486.821   8
  -1  -3   2 14874.5 665.737   1
   1  -3  -2 15285.5 720.515   1
   1  -3  -2 15363.3 663.652   7
   1  -3  -1 27416.0 969.125   7
  -1  -3   1 25959.4 955.762   1
   1  -3  -1 30262.3 1018.17   1
   1  -3  -1 27606.0 777.983   8
   1  -3   0 8499.74 383.759   8
  -1  -3   0 8269.62 502.350   1
   1  -3   0 8548.16 498.748   7
   1  -3   0 8290.42 473.809   1
  -1  -3  -1 33374.7 778.950   4
   1  -3   1 34593.0 1054.53   1
   1  -3   1 33389.6 1144.63   7
  -1  -3  -1 34915.6 1176.23   1
   1  -3   2 826.810 173.007   7
  -1  -3  -2 601.371 159.795   1
   1  -3   2 647.812 151.053   9
   1  -3   2 686.985 124.686   1
  -1  -3  -2 788.555 100.773   4
   1  -3   3 7410.12 501.270   9
  -1  -3  -3 7331.43 511.753   1
   1  -3   3 7607.77 380.926   1
  -1  -3  -3 7492.08 372.419   4
   1  -3   3 8272.97 532.870   7
  -1  -3  -4 993.214 150.111   4
   1  -3   4 886.363 180.603   7
   1  -3   4 983.303 203.381   9
  -1  -3  -4 962.929 199.207   1
  -1  -3  -5 14419.6 779.256   1
   1  -3   5 15724.8 788.874   7
  -1  -3  -5 14365.0 658.116   4
   1  -3   5 14725.3 786.437   9
  -1  -3  -6 1816.23 282.467   1
   1  -3   6 2486.41 321.861   7
  -1  -3  -6 1773.70 249.812   4
   1  -3   6 2226.01 323.097   9
  -1  -3  -7 4109.24 426.028   1
  -1  -3  -7 4170.19 401.763   4
   1  -3   7 3959.67 410.215   7
   1  -3   7 3902.97 435.955   9
  -1  -3  -8 58.4774 125.273   1
   1  -3   8 124.289 132.109   7
  -1  -3  -8 325.944 135.327   4
   1  -3   8 135.391 139.531   9
   1  -3   9 5661.06 576.276   9
  -1  -3  -9 5423.60 512.885   4
   1  -3   9 5744.02 532.397   7
  -1  -3  -9 5439.77 518.826   1
   1  -3  10 2496.49 423.588   9
  -1  -3 -10 2149.08 345.221   4
  -1  -3 -10 2451.23 354.571   1
   1  -3  10 2191.85 339.959   7
   1  -3  11 5377.41 532.024   7
   1  -3  11 5316.59 614.719   9
  -1  -3 -11 4485.21 500.607   1
  -1  -3 -11 4975.63 559.831   4
  -1  -3 -12 430.020 191.133   1
   1  -3  12 186.960 194.818   9
  -1  -3 -12 514.371 236.600   4
   1  -3  13 1380.98 376.889   9
  -1  -3 -13 1788.89 344.525   1
  -1  -3 -13 1872.17 371.877   4
  -1  -3 -14 349.111 229.755   4
   1  -2 -15 637.961 309.561   4
  -1  -2  15 475.544 270.501   9
  -1  -2  15 1104.36 328.028   3
  -1  -2  14 905.536 285.491   3
  -1  -2  14 1342.60 373.166   9
   1  -2 -14 870.803 315.132   4
  -1  -2  13 2154.33 405.193   3
   1  -2 -13 2013.27 347.231   1
   1  -2 -13 1796.43 385.352   4
  -1  -2  13 1958.21 423.397   9
  -1  -2  12 3248.31 490.555   9
   1  -2 -12 3946.41 446.007   1
   1  -2 -12 3045.97 469.672   4
   1  -2 -11 3789.97 426.931   1
  -1  -2  11 4051.24 502.825   9
   1  -2 -11 3993.30 433.421   8
   1  -2 -11 3715.65 489.175   4
   1  -2 -10 8529.32 694.630   4
   1  -2 -10 9247.19 631.372   8
  -1  -2  10 8539.97 694.489   9
   1  -2 -10 9210.31 640.716   1
   1  -2  -9 6866.18 537.015   1
   1  -2  -9 6733.25 506.062   8
  -1  -2   9 6447.69 566.625   9
  -1  -2   9 6381.40 477.227   7
  -1  -2   8 2373.33 334.945   9
   1  -2  -8 2299.83 281.058   8
  -1  -2   8 1838.78 247.178   7
   1  -2  -8 2355.36 300.299   1
  -1  -2   7 207.964 108.805   7
   1  -2  -7 252.122 117.778   1
   1  -2  -7 289.058 106.043   8
  -1  -2   7 276.230 131.048   9
   1  -2  -6 13932.5 687.310   1
   1  -2  -6 13893.4 609.181   8
  -1  -2   6 11652.9 605.390   7
  -1  -2   6 12723.4 483.462   5
  -1  -2   6 14512.9 732.815   9
  -1  -2   5 1370.89 146.155   5
   1  -2  -5 1572.92 183.182   8
   1  -2  -5 1631.76 225.215   1
  -1  -2   5 1817.99 249.631   9
  -1  -2   5 1711.43 218.372   7
   1  -2  -4 8760.07 505.259   1
  -1  -2   4 9629.53 532.444   9
   1  -2  -4 9416.18 408.946   8
  -1  -2   4 8521.21 407.241   1
  -1  -2   4 8730.57 390.429   5
  -1  -2   3 507.132 98.2186   5
  -1  -2   3 750.212 125.409   1
   1  -2  -3 557.720 137.831   1
   1  -2  -3 586.743 92.5942   8
   1  -2  -3 589.874 107.349   7
  -1  -2   3 380.658 110.622   9
  -1  -2   2 19887.3 675.174   1
   1  -2  -2 18861.0 562.797   8
   1  -2  -2 19892.1 635.933   7
   1  -2  -2 18565.4 701.884   1
   1  -2  -1 63181.3 1425.08   8
  -1  -2   1 61425.3 1559.93   1
   1  -2  -1 65335.9 1541.19   7
   1  -2  -1 64805.0 1580.42   1
  -1  -2   0 5867.00 352.094   1
  -1  -2   0 6176.15 238.071   4
   1  -2   0 6269.61 355.049   7
   1  -2   0 5999.75 327.032   1
  -1  -2  -1 1393.21 184.898   1
  -1  -2  -1 1378.60 120.316   4
   1  -2   1 1662.78 190.539   7
   1  -2   1 1840.53 163.424   1
  -1  -2  -2 14437.1 620.510   1
   1  -2   2 15159.6 607.298   9
   1  -2   2 14031.6 607.135   7
   1  -2   2 14149.9 474.966   1
  -1  -2  -2 13847.8 500.378   4
   1  -2   3 1651.18 122.713   1
  -1  -2  -3 1454.63 168.410   4
   1  -2   3 1357.09 210.083   9
  -1  -2  -3 1487.99 209.759   1
   1  -2   3 1823.74 221.950   7
   1  -2   4 9605.18 274.517   1
   1  -2   4 9235.27 523.226   9
  -1  -2  -4 9183.42 520.025   1
   1  -2   4 10434.9 543.088   7
  -1  -2  -4 9002.22 472.628   4
  -1  -2  -5 128.513 94.4560   1
   1  -2   5 486.984 151.860   9
  -1  -2  -5 225.136 112.679   4
   1  -2   5 254.304 115.296   7
  -1  -2  -6 9627.78 565.056   1
   1  -2   6 8604.67 563.628   9
   1  -2   6 8196.19 517.918   7
  -1  -2  -6 7559.94 506.691   4
  -1  -2  -7 494.788 146.694   1
   1  -2   7 258.392 144.902   9
  -1  -2  -7 379.003 148.300   4
   1  -2   7 407.213 143.250   7
   1  -2   8 9419.19 669.209   9
  -1  -2  -8 10282.2 622.844   1
  -1  -2  -8 9201.49 646.331   4
   1  -2   8 10517.5 615.397   7
   1  -2   9 1585.07 313.836   9
  -1  -2  -9 1699.48 312.975   4
   1  -2   9 1718.01 265.722   7
  -1  -2  -9 1519.43 259.196   1
  -1  -2 -10 404.213 199.773   4
   1  -2  10 522.760 159.658   7
  -1  -2 -10 551.408 162.654   1
   1  -2  10 571.912 231.250   9
   1  -2  11 242.581 131.475   7
   1  -2  11 506.985 216.804   9
  -1  -2 -11 376.482 186.294   4
  -1  -2 -11 434.975 156.609   1
  -1  -2 -12 2136.03 386.953   4
   1  -2  12 1444.49 348.362   9
   1  -2  13 1795.84 331.199   3
  -1  -2 -13 1500.54 365.984   4
   1  -2  13 1405.97 356.482   9
   1  -2  14 1772.77 425.735   9
  -1  -2 -14 1924.77 420.403   4
  -1  -2 -15 235.595 229.204   4
   1  -1 -16 1241.24 352.905   8
  -1  -1  16 1734.98 397.699   3
  -1  -1  15 390.065 240.152   3
   1  -1 -15 447.152 214.063   8
  -1  -1  15 584.075 285.519   9
   1  -1 -15 374.372 276.287   4
  -1  -1  14 914.628 311.168   9
   1  -1 -14 972.514 303.295   8
   1  -1 -14 822.290 299.048   4
  -1  -1  14 862.941 262.248   3
  -1  -1  13 4752.46 541.435   3
  -1  -1  13 5429.62 633.172   9
   1  -1 -13 5197.34 587.503   8
   1  -1 -13 4123.76 575.801   4
  -1  -1  12 2268.37 393.718   9
   1  -1 -12 2134.05 383.037   8
  -1  -1  12 2350.54 362.033   3
   1  -1 -12 2439.39 437.743   4
  -1  -1  11 2808.81 376.624   3
   1  -1 -11 3391.32 363.750   1
  -1  -1  11 2387.01 376.783   9
   1  -1 -11 2727.62 427.142   4
   1  -1 -11 1446.09 287.832   8
  -1  -1  10 41.9187 188.299   9
  -1  -1  10 235.797 124.425   3
   1  -1 -10 22.6805 101.146   1
   1  -1 -10 218.428 154.136   8
   1  -1  -9 8584.04 535.480   1
  -1  -1   9 8553.49 587.351   3
   1  -1  -9 8103.56 590.927   8
  -1  -1   9 9057.67 641.040   9
   1  -1  -8 1047.52 213.751   8
  -1  -1   8 793.118 136.697   5
   1  -1  -8 639.249 149.930   1
  -1  -1   8 435.252 114.384   7
  -1  -1   8 1155.39 236.893   9
  -1  -1   7 14647.2 568.429   5
   1  -1  -7 14394.0 701.842   8
  -1  -1   7 14764.1 582.999   7
   1  -1  -7 14655.0 672.328   1
  -1  -1   7 15253.2 749.569   9
  -1  -1   6 21440.3 684.001   5
   1  -1  -6 21161.2 788.841   1
   1  -1  -6 20996.0 815.195   8
  -1  -1   6 19694.6 689.703   7
  -1  -1   6 21151.3 847.404   9
   1  -1  -5 5477.05 354.151   8
  -1  -1   5 5160.05 281.111   5
  -1  -1   5 5127.46 365.765   9
  -1  -1   5 4501.50 293.579   7
   1  -1  -5 5588.74 362.401   1
  -1  -1   4 917.881 152.013   9
   1  -1  -4 1408.53 180.910   1
   1  -1  -4 1488.02 167.319   8
  -1  -1   4 1144.45 130.722   5
   1  -1  -3 41135.7 1097.87   1
  -1  -1   3 40961.6 1000.82   5
   1  -1  -3 39681.7 854.685   7
  -1  -1   3 42018.9 1098.79   9
   1  -1  -3 40916.9 1021.79   8
   1  -1  -2 37446.5 906.074   8
   1  -1  -2 36797.6 840.797   7
  -1  -1   2 39037.5 999.591   9
   1  -1  -2 36902.3 992.703   1
  -1  -1   2 39466.6 952.943   1
  -1  -1   2 37547.1 938.206   5
   1  -1  -1 78510.8 1600.86   8
   1  -1  -1 74682.7 1464.15  11
  -1  -1   1 73028.2 1642.66   1
   1  -1  -1 76283.7 1585.13   7
  -1  -1   1 74384.7 1565.65   4
   1  -1   0 68134.0 1460.15   8
  -1  -1   0 66729.0 1509.85   1
   1  -1   0 66213.6 1386.49  11
  -1  -1   0 66376.3 1416.68   4
   1  -1   0 69185.5 1484.63   7
  -1  -1  -1 91321.5 1944.97   1
   1  -1   1 89684.5 1874.51   9
  -1  -1  -1 87157.5 1868.65   4
  -1  -1  -2 7840.80 358.574   4
   1  -1   2 8696.59 366.403   9
  -1  -1  -2 7623.56 361.822   1
   1  -1   3 32153.8 922.028   9
  -1  -1  -3 33028.6 917.962   1
  -1  -1  -3 29755.4 920.529   4
   1  -1   4 886.295 153.956   9
  -1  -1  -4 874.084 138.657   1
  -1  -1  -4 927.218 161.943   4
  -1  -1  -5 15949.0 713.610   4
  -1  -1  -5 17837.9 665.391   1
   1  -1   5 18049.7 673.352   7
   1  -1   5 16348.3 705.900   9
   1  -1   6 1326.80 226.979   9
  -1  -1  -6 1953.43 212.888   1
  -1  -1  -6 1816.70 259.172   4
   1  -1   6 1984.19 216.398   7
   1  -1   7 11445.0 660.091   9
  -1  -1  -7 12146.0 573.474   1
   1  -1   7 10701.0 541.907   7
  -1  -1  -7 10412.3 648.555   4
  -1  -1  -8 50.8320 113.924   4
  -1  -1  -8 120.888 82.1674   1
   1  -1   8-12.6573 66.4855   7
   1  -1   8-88.6371 154.131   9
   1  -1   9 7611.56 611.342   9
  -1  -1  -9 7042.53 594.468   4
  -1  -1  -9 8205.09 501.620   1
   1  -1   9 8677.41 517.437   7
   1  -1  10 2562.42 307.062   3
  -1  -1 -10 2490.64 374.563   4
   1  -1  10 2553.87 291.124   7
  -1  -1 -10 2504.08 288.507   1
   1  -1  10 2236.95 355.049   9
   1  -1  11 7683.95 569.129   3
  -1  -1 -11 7710.78 688.552   4
   1  -1  11 7181.35 671.749   9
   1  -1  12 149.159 159.306   3
   1  -1  12 345.286 218.756   9
  -1  -1 -12-57.4289 178.724   4
   1  -1  13 2894.64 390.643   3
   1  -1  13 2396.32 435.126   9
  -1  -1 -13 1923.57 407.331   4
  -1  -1 -14 1565.07 393.590   4
   1  -1  14 1902.46 423.594   9
  -1  -1 -15 1600.28 418.287   4
   1  -1  15 1859.55 460.234   9
  -1   0  16-54.6809 227.508   9
  -1   0  16 331.405 215.897   3
   1   0 -16-170.543 270.983   8
   1   0 -15 193.900 213.063   8
  -1   0  15 1015.36 351.948   9
  -1   0  15 1053.45 312.087   3
   1   0 -15 344.348 309.513   4
  -1   0  14 2581.37 460.699   9
   1   0 -14 1267.60 335.861   8
   1   0 -14 1817.89 412.732   4
  -1   0  14 2790.84 442.532   3
   1   0 -13 472.828 237.169   4
   1   0 -13 128.522 169.078   8
  -1   0  13 650.302 254.473   9
  -1   0  13 155.038 154.187   3
  -1   0  12 1028.45 311.567   9
   1   0 -12 820.924 292.929   8
  -1   0  12 839.547 241.357   3
   1   0 -12 1279.11 313.621   4
  -1   0  11 2584.26 388.898   9
  -1   0  11 2372.13 343.519   3
   1   0 -11 2270.94 367.316   8
   1   0 -10 5907.83 413.371   1
   1   0 -10 4721.09 484.754   8
  -1   0  10 5007.65 465.135   3
  -1   0  10 5282.45 428.484   5
  -1   0  10 5335.42 515.177   9
  -1   0   9 1620.34 262.968   3
   1   0  -9 2013.51 305.138   8
   1   0  -9 1783.47 215.446   1
  -1   0   9 1300.31 257.895   9
  -1   0   9 1579.51 226.143   5
  -1   0   8 4043.34 368.070   3
   1   0  -8 3395.21 369.966   8
  -1   0   8 3186.28 298.562   5
  -1   0   8 3894.23 381.724   9
   1   0  -8 3830.77 301.188   1
  -1   0   7 22736.3 567.934   2
  -1   0   7 24244.8 854.628   5
   1   0  -7 24872.9 820.269   1
   1   0  -7 25247.2 980.601   8
  -1   0   7 26634.4 988.944   9
  -1   0   7 25563.2 933.375   3
   1   0  -6 26822.1 970.460   8
  -1   0   6 25434.7 930.836   9
  -1   0   6 27046.7 920.330   3
  -1   0   6 26731.1 645.331   2
  -1   0   6 27727.9 884.206   5
  -1   0   5 88170.8 2054.29   5
   1   0  -5 89922.6 2162.44   8
  -1   0   5 91117.7 2111.99   3
  -1   0   5 87809.2 2115.06   9
  -1   0   5 92448.0 1839.85   2
  -1   0   4 59614.9 1450.18   5
  -1   0   4 62622.9 1299.30   2
   1   0  -4 60154.1 1520.00   8
  -1   0   4 60102.4 1474.39   9
  -1   0   4 61999.6 1482.51   3
  -1   0   3 16447.3 531.085   9
  -1   0   3 16888.1 553.142   3
  -1   0   3 16565.0 545.945   5
   1   0  -3 17226.9 585.122   8
  -1   0   3 17959.0 472.022   2
   1   0  -2 123.890 57.3780  11
  -1   0   2 242.248 74.8992   3
  -1   0   2 74.2301 44.4689   9
  -1   0   2 58.0734 42.7295   2
  -1   0   2 131.890 67.3774   5
   1   0  -2 133.739 64.3611   8
  -1   0   1 66594.9 1398.98   4
  -1   0   1 66876.5 1420.54   5
   1   0  -1 66695.6 1405.62   8
  -1   0   1 67165.5 1359.94   3
   1   0  -1 65260.1 1363.25  11
  -1   0   1 65481.8 1381.02   2
  -1   0   0 5486.43 177.515   6
  -1   0   0 5794.41 237.549   5
   1   0   0 5817.56 232.697   8
  -1   0   0 6262.07 243.536   4
   1   0   0 5571.30 212.132  11
  -1   0   0 5898.68 226.335   2
  -1   0  -1 28779.7 655.284   6
   1   0   1 28991.0 665.494   9
  -1   0  -1 29652.5 691.522   2
  -1   0  -1 29198.7 682.826   1
  -1   0  -1 27840.6 697.859   5
  -1   0  -1 29307.7 747.605   4
   1   0   1 28997.8 708.189  11
  -1   0  -2 10.1016 46.8132   6
   1   0   2 60.3507 62.3032  11
   1   0   2 44.5298 57.4644   9
  -1   0  -2 25.8032 66.4382   4
  -1   0  -2 41.5233 41.1123   1
  -1   0  -2 48.9791 45.8939   2
  -1   0  -3 21674.3 722.625   4
   1   0   3 20146.8 642.862  11
  -1   0  -3 22957.9 557.428   2
   1   0   3 21125.4 681.617   9
  -1   0  -3 21660.8 565.112   1
   1   0   3 21593.0 547.575   3
  -1   0  -3 22094.8 640.341   6
   1   0   4 48449.3 1110.43   3
   1   0   4 45490.4 1274.56   9
  -1   0  -4 49493.5 1045.86   2
  -1   0  -4 46487.2 1083.21   1
  -1   0  -4 47112.9 1318.05   4
  -1   0  -5-25.9035 100.462   4
   1   0   5 66.5340 102.754   9
  -1   0  -5 11.1504 31.7826   2
  -1   0  -5 45.6061 45.5722   1
   1   0   5 41.8563 62.7094   3
  -1   0  -6 5578.88 435.590   4
   1   0   6 6103.05 345.630   3
  -1   0  -6 6077.83 227.937   2
  -1   0  -6 5899.13 294.827   1
   1   0   6 5664.61 423.127   9
   1   0   7 3612.34 362.187   9
  -1   0  -7 2953.31 218.470   1
   1   0   7 3135.46 266.930   3
  -1   0  -7 3208.39 362.720   4
  -1   0  -8 24126.9 765.316   1
   1   0   8 24939.5 889.974   3
  -1   0  -8 22112.0 1045.37   4
   1   0   8 22969.2 1038.51   9
   1   0   9 12454.6 637.242   3
  -1   0  -9 10413.9 734.394   4
   1   0   9 12832.2 785.141   9
   1   0  10 32183.7 1185.27   3
  -1   0 -10 34017.9 1450.35   4
   1   0  10 33179.8 1409.74   9
   1   0  11 11114.0 680.109   3
  -1   0 -11 10534.5 809.000   4
   1   0  11 10622.2 799.771   9
  -1   0 -11 11387.6 749.260   6
  -1   0 -12-107.492 153.245   6
   1   0  12 219.019 141.753   3
  -1   0 -12 273.788 197.462   4
   1   0  12 485.125 252.707   9
   1   0  13 81.8243 113.046   3
  -1   0 -13 177.724 198.145   4
   1   0  13 221.907 218.630   9
  -1   0 -13 335.342 178.897   6
  -1   0 -14 8775.11 850.467   4
   1   0  14 8724.23 839.215   9
   1   0  14 8169.96 707.811  11
  -1   0 -14 8571.01 749.971   6
   1   0  15 1017.00 317.350   9
  -1   0 -15 865.043 297.620   6
   1   0  15 836.861 252.144  11
  -1   0 -15 721.124 279.342   4
   1   0  16 3078.95 477.002  11
  -1   1  16 1949.98 439.161   3
   1   1 -15 449.942 268.310   4
  -1   1  15 320.317 238.275   9
  -1   1  15 793.724 284.846   3
   1   1 -15 465.197 294.089   8
   1   1 -15 736.329 238.538   6
   1   1 -14 1320.65 305.577   6
  -1   1  14 1555.94 347.549   9
   1   1 -14 744.702 286.396   8
   1   1 -14 1209.02 372.544   4
  -1   1  14 575.767 226.933   3
  -1   1  13 4074.72 518.360   9
  -1   1  13 4181.56 521.264   3
   1   1 -13 3527.07 519.846   4
   1   1 -13 4667.83 584.402   8
   1   1 -13 5171.11 537.923   6
   1   1 -12 1703.41 296.200   6
   1   1 -12 2381.16 423.943   4
  -1   1  12 2022.52 346.894   9
   1   1 -12 2026.96 399.470   8
  -1   1  12 1995.09 352.146   3
   1   1 -11 2729.56 347.226   6
  -1   1  11 2828.89 388.168   3
  -1   1  11 2329.20 367.649   9
   1   1 -11 2343.38 392.347   8
   1   1 -11 2781.37 417.339   4
  -1   1  11 3021.24 383.259   5
   1   1 -10 175.380 141.109   8
  -1   1  10-155.611 136.036   9
  -1   1  10 109.373 153.196   5
  -1   1  10 117.772 129.474   3
  -1   1   9 8547.98 597.030   3
   1   1  -9 8023.25 624.436   8
  -1   1   9 9717.63 614.809   5
  -1   1   9 8972.22 612.343   9
  -1   1   8 1155.90 218.968   9
   1   1  -8 1223.19 242.938   8
  -1   1   8 876.358 196.580   3
  -1   1   8 813.501 188.682   5
  -1   1   7 16231.7 745.459   5
   1   1  -7 16199.3 785.698   8
  -1   1   7 15118.0 712.318   9
  -1   1   7 14966.9 512.622   2
  -1   1   7 14623.4 721.118   3
  -1   1   6 22023.9 835.439   3
  -1   1   6 21168.5 800.500   9
  -1   1   6 19019.4 616.048   2
  -1   1   6 19631.9 803.851   5
   1   1  -6 21435.2 867.823   8
  -1   1   5 5000.10 334.692   9
   1   1  -5 5594.81 382.071   8
  -1   1   5 4833.06 270.626   2
  -1   1   5 4613.38 345.856   5
  -1   1   5 4946.81 349.424   3
  -1   1   4 994.969 155.894   3
  -1   1   4 1167.69 143.389   9
  -1   1   4 1216.14 170.981   5
  -1   1   4 1284.32 138.213   2
   1   1  -4 1097.73 169.708   8
   1   1  -4 1235.21 143.899   6
  -1   1   3 39649.1 1033.95   2
  -1   1   3 42548.0 1125.71   3
   1   1  -3 40745.7 995.256   6
  -1   1   3 42233.8 1037.88   9
  -1   1   3 41908.5 1041.69  10
   1   1  -3 40271.5 1097.54   8
  -1   1   3 39337.6 1113.97   5
  -1   1   2 37933.0 1026.13   5
   1   1  -2 38246.2 983.291   8
  -1   1   2 38924.9 995.090   2
   1   1  -2 38251.1 1002.32  11
  -1   1   2 37740.0 1020.88   3
  -1   1   2 39430.6 945.577  10
   1   1  -2 38894.1 890.682   6
  -1   1   1 76812.9 1558.69   4
  -1   1   1 73187.5 1656.51   5
  -1   1   1 76349.7 1590.51  10
  -1   1   1 71004.0 1668.14   2
  -1   1   1 75618.6 1683.20   3
   1   1  -1 74594.3 1501.07   6
   1   1  -1 76563.9 1639.82  11
   1   1  -1 76214.8 1595.52   8
   1   1   0 68023.9 1337.89   6
  -1   1   0 66679.8 1512.82   6
  -1   1   0 67864.3 1550.22   2
   1   1   0 69124.0 1473.08  11
   1   1   0 67681.4 1401.62   8
  -1   1   0 67658.1 1525.41   3
  -1   1   0 69561.0 1489.11   5
   1   1   0 66423.4 1502.73  10
  -1   1   0 70332.6 1431.38   4
   1   1   0 69185.7 1479.39   3
   1   1   1 89664.5 1770.97   8
  -1   1  -1 89756.3 1850.24   4
  -1   1  -1 91046.7 1807.65   5
  -1   1  -1 88288.9 1931.02   2
   1   1   1 87195.8 1903.92  10
   1   1   1 85298.7 1842.65   3
   1   1   1 90259.2 1852.19  11
  -1   1  -1 87691.6 1894.45   3
  -1   1  -1 88639.3 1908.64   6
  -1   1  -2 8480.37 359.350   2
   1   1   2 8018.29 316.253  11
   1   1   2 8013.56 357.798  10
  -1   1  -2 8180.20 342.512   3
  -1   1  -2 8371.62 362.801   4
   1   1   2 8163.86 325.120   3
  -1   1  -2 7959.05 360.012   6
  -1   1  -2 8354.49 255.537   5
  -1   1  -3 30551.3 924.815   4
   1   1   3 33246.2 846.863  11
   1   1   3 31828.7 909.743  10
   1   1   3 30964.2 925.409   9
  -1   1  -3 32107.0 852.452   2
   1   1   3 32125.6 838.961   3
  -1   1  -3 31965.9 670.483   5
  -1   1  -3 31797.1 914.891   6
  -1   1  -4 869.433 141.026   6
  -1   1  -4 898.075 111.440   2
   1   1   4 897.402 125.099   3
  -1   1  -4 881.193 155.618   4
   1   1   4 926.135 152.896   9
   1   1   4 1006.77 145.798  10
   1   1   4 767.341 116.375  11
   1   1   5 16048.8 696.955   9
  -1   1  -5 16147.2 532.233   2
   1   1   5 17547.7 622.830  11
   1   1   5 17050.7 620.711   3
  -1   1  -5 17930.5 742.419   4
  -1   1  -5 17051.3 404.807   5
  -1   1  -5 17886.1 689.305   6
  -1   1  -6 1634.94 142.931   2
   1   1   6 1705.61 196.214   3
   1   1   6 2019.98 259.678   9
   1   1   6 2041.20 208.201  11
  -1   1  -6 1673.69 215.817   6
  -1   1  -6 1409.60 231.755   4
   1   1   7 11314.2 563.148   3
   1   1   7 11542.8 657.522   9
   1   1   7 11801.5 565.598  11
  -1   1  -7 11118.5 665.210   4
  -1   1  -7 11638.6 415.051   2
  -1   1  -7 11989.3 624.879   6
  -1   1  -8 49.2625 92.7400   6
   1   1   8-144.302 157.357   9
   1   1   8 62.3277 83.1960  11
   1   1   8 75.8600 78.9213   3
  -1   1  -8 44.9232 106.894   4
   1   1   9 7616.07 506.869  11
  -1   1  -9 6827.49 523.625   6
  -1   1  -9 7807.11 622.822   4
   1   1   9 6963.17 494.146   3
   1   1   9 8511.66 630.265   9
   1   1  10 2259.72 352.473   9
   1   1  10 2502.99 311.902   3
  -1   1 -10 1991.81 308.892   6
   1   1  10 1929.23 263.198  11
  -1   1 -10 2199.30 365.051   4
   1   1  11 7343.30 567.482   3
   1   1  11 7162.71 544.947  11
   1   1  11 8275.72 687.749   9
  -1   1 -11 7512.55 685.462   4
  -1   1 -11 6922.30 585.383   6
   1   1  12-53.7073 113.389  11
   1   1  12 23.1827 102.941   3
   1   1  12 40.8578 180.963   9
  -1   1 -12 139.358 158.846   6
  -1   1 -12 382.050 209.213   4
   1   1  13 3168.13 485.204   9
  -1   1 -13 2450.85 430.393   4
  -1   1 -13 2183.16 371.460   6
   1   1  14 876.674 339.693   9
  -1   1 -14 1624.28 352.691   6
  -1   1 -14 2342.45 466.977   4
   1   1  15 1002.00 344.975   9
  -1   1 -15 1376.76 349.692   6
  -1   1 -15 806.422 304.095   4
   1   2 -15 864.907 270.151   6
  -1   2  15 223.611 168.905   9
   1   2 -15 186.295 220.716   4
  -1   2  15 663.566 274.851   3
  -1   2  15 876.734 314.649  10
  -1   2  14 1010.03 284.037   3
  -1   2  14 711.155 267.469  10
  -1   2  14 599.349 246.351   9
   1   2 -14 482.118 208.082   6
   1   2 -14 619.727 255.857   8
   1   2 -14 598.927 235.558   4
   1   2 -13 2099.17 353.538   6
   1   2 -13 1787.02 392.462   8
  -1   2  13 2241.81 404.701  10
  -1   2  13 1917.65 364.510   9
   1   2 -13 1781.15 383.363   4
  -1   2  13 1691.46 355.525   3
  -1   2  12 3925.25 484.480  10
   1   2 -12 3210.43 493.984   8
  -1   2  12 3733.88 489.564   3
  -1   2  12 4111.81 489.814   9
   1   2 -12 3525.81 483.326   4
   1   2 -12 2842.02 388.761   6
  -1   2  11 4064.34 472.076   3
  -1   2  11 4558.38 494.918  10
   1   2 -11 4109.28 444.408   6
  -1   2  11 4256.71 469.706   9
   1   2 -11 4320.58 507.922   4
   1   2 -11 3285.97 466.501   8
  -1   2  10 8154.98 627.204   9
   1   2 -10 9065.52 712.077   8
  -1   2  10 9675.37 671.393  10
  -1   2  10 8001.25 646.118   3
   1   2 -10 8919.99 703.353   4
   1   2 -10 9583.00 640.389   6
   1   2  -9 6842.30 583.141   8
  -1   2   9 7377.73 553.491  10
  -1   2   9 7501.50 592.969   3
  -1   2   9 7315.67 559.282   9
   1   2  -9 6236.15 494.889   6
  -1   2   9 7937.36 618.690   5
  -1   2   8 1822.92 275.668   3
  -1   2   8 2062.12 286.281   9
  -1   2   8 2018.52 304.439   5
  -1   2   8 1891.55 271.880  10
   1   2  -8 1829.30 254.186   6
   1   2  -8 2199.36 319.720   8
  -1   2   7 109.259 130.858   5
   1   2  -7-25.6421 74.1432   6
  -1   2   7 20.0296 74.4553   2
  -1   2   7 42.4371 103.685  10
  -1   2   7 202.860 128.539   3
   1   2  -7 99.9705 103.901   8
  -1   2   7 235.199 115.307   9
  -1   2   6 12730.5 683.410   3
   1   2  -6 13281.3 624.447   6
   1   2  -6 12540.0 677.610   8
  -1   2   6 13592.6 655.522   9
  -1   2   6 13565.2 728.254   5
  -1   2   6 12288.1 576.337   2
  -1   2   6 13384.7 654.756  10
   1   2  -5 1723.38 202.813   6
  -1   2   5 1756.51 246.052   5
  -1   2   5 1726.83 241.232   3
  -1   2   5 1855.32 228.760  10
  -1   2   5 1529.64 78.7848  11
   1   2  -5 1429.04 216.633   8
  -1   2   5 1533.73 194.728   2
   1   2  -4 7999.25 419.495   6
  -1   2   4 9728.93 541.083   5
  -1   2   4 8696.10 473.982  10
  -1   2   4 8480.40 465.989   2
   1   2  -4 8823.67 484.374   8
  -1   2   4 8415.85 502.762   3
  -1   2   3 736.296 148.721   5
   1   2  -3 563.403 119.136   8
  -1   2   3 491.521 126.623   2
  -1   2   3 789.860 136.911  10
   1   2  -3 465.059 100.139   6
  -1   2   3 506.405 133.749   3
   1   2  -2 18612.9 679.834  11
  -1   2   2 18362.3 683.983  10
  -1   2   2 17338.6 702.737   2
   1   2  -2 19803.6 644.515   8
  -1   2   2 18523.6 742.480   3
   1   2  -2 19465.0 609.248   6
  -1   2   2 18026.3 708.069   5
   1   2  -1 63273.4 1627.87   3
   1   2  -1 61694.1 1444.45   8
   1   2  -1 63425.6 1547.23  11
  -1   2   1 65593.4 1610.89   5
   1   2  -1 63473.6 1452.36   6
  -1   2   1 64748.1 1600.62  10
  -1   2   1 64538.6 1665.98   2
  -1   2   1 68514.4 1623.21   6
  -1   2   1 69435.1 1713.66   3
  -1   2   0 6040.71 382.610   2
   1   2   0 6946.55 334.028  11
   1   2   0 6880.21 259.626   8
   1   2   0 6246.82 370.941   3
  -1   2   0 6742.94 346.667   5
  -1   2   0 6589.71 238.238   4
  -1   2   0 6622.71 401.197   3
   1   2   0 6617.10 291.139   6
  -1   2   0 7001.58 386.108   6
  -1   2  -1 1673.25 193.596   6
  -1   2  -1 1672.41 156.942   5
  -1   2  -1 1639.39 124.329   4
   1   2   1 1366.28 188.382  10
  -1   2  -1 1509.32 196.717   3
  -1   2  -1 1403.39 183.203   2
   1   2   1 1786.12 94.1549   8
   1   2   1 1753.90 196.180   3
   1   2   1 1950.13 163.546  11
  -1   2  -2 14978.5 616.152   2
  -1   2  -2 14270.8 465.579   5
  -1   2  -2 15182.6 610.130   6
  -1   2  -2 14256.4 605.781   3
  -1   2  -2 14541.7 489.264   4
   1   2   2 14449.9 602.436   3
   1   2   2 14031.6 489.744  11
   1   2   2 13476.2 614.115  10
   1   2   3 1684.55 149.076  11
   1   2   3 1099.60 171.894  10
  -1   2  -3 1495.11 192.137   6
   1   2   3 1446.17 98.1610   8
   1   2   3 1441.71 187.513   3
  -1   2  -3 1348.56 155.879   4
  -1   2  -3 1670.47 201.636   3
  -1   2  -3 1576.63 196.272   2
  -1   2  -4 10081.4 530.986   6
  -1   2  -4 9497.24 474.923   2
   1   2   4 9688.23 400.191  11
   1   2   4 9896.51 539.948  10
  -1   2  -4 10518.1 495.796   4
   1   2   4 9651.42 503.368   3
  -1   2  -5 282.191 127.800   6
   1   2   5 232.246 71.4076  11
   1   2   5 110.950 87.6613   3
  -1   2  -5 161.877 89.4780   4
   1   2   5 303.778 114.102  10
  -1   2  -5 194.902 81.9370   2
   1   2   6 8781.60 555.742  10
   1   2   6 9025.47 424.796  11
   1   2   6 8591.71 517.351   3
  -1   2  -6 9048.15 460.585   2
   1   2   6 9607.98 582.625   9
  -1   2  -6 8319.42 527.531   4
  -1   2  -6 9116.00 552.558   6
  -1   2  -7 576.069 158.670   6
   1   2   7 238.611 131.728  10
   1   2   7 259.128 135.104   9
  -1   2  -7 327.936 96.3625   2
  -1   2  -7 327.326 121.906   4
   1   2   7 503.920 147.462   3
   1   2   7 399.970 101.763  11
   1   2   8 9892.90 601.411   3
   1   2   8 8966.77 629.217   9
  -1   2  -8 10662.9 678.184   4
  -1   2  -8 9371.96 624.744   6
   1   2   8 10440.6 526.589  11
   1   2   8 9573.26 636.259  10
   1   2   9 1638.31 292.852   9
   1   2   9 1512.10 269.233  10
  -1   2  -9 1580.74 263.906   6
   1   2   9 1567.48 256.042   3
  -1   2  -9 1289.82 261.750   4
   1   2  10 380.473 186.836  10
  -1   2 -10 576.220 171.525   6
   1   2  10 479.428 172.129   3
   1   2  10 427.805 203.222   9
  -1   2 -10 471.529 186.901   4
  -1   2 -11 169.953 120.639   6
  -1   2 -11 193.676 170.966   4
   1   2  11 91.2207 152.435   9
   1   2  11 696.708 240.350  10
   1   2  11 515.010 193.773   3
  -1   2 -12 1840.04 342.043   6
   1   2  12 1751.12 341.732   9
   1   2  12 2338.23 402.239  10
  -1   2 -12 2896.11 441.045   4
  -1   2 -13 1923.83 366.360   6
  -1   2 -13 2249.36 416.833   4
   1   2  13 1335.44 342.781  10
   1   2  13 2463.36 442.083   9
   1   2  14 2193.17 426.771  10
  -1   2 -14 1794.74 365.677   6
   1   2  14 1791.75 393.792   9
  -1   2 -14 1459.17 381.196   4
  -1   2 -15 326.033 223.728   4
  -1   3  14 941.372 318.538   3
  -1   3  14 903.558 288.158  10
  -1   3  14 1011.60 308.339   9
   1   3 -14 1460.97 338.326   6
   1   3 -13 2894.22 431.362   6
  -1   3  13 3329.62 478.872   9
   1   3 -13 3290.27 499.067   4
  -1   3  13 3452.73 516.432   3
  -1   3  13 2576.70 439.259  10
  -1   3  12 5.78840 138.235   3
   1   3 -12-32.8379 174.485   8
  -1   3  12 53.4205 133.576  10
   1   3 -12 109.792 145.114   4
   1   3 -12-73.0784 118.442   6
  -1   3  11 2151.96 372.050  10
   1   3 -11 2624.73 379.927   6
   1   3 -11 2623.68 430.276   8
  -1   3  11 2036.30 379.095   3
   1   3 -11 1649.86 328.232   4
   1   3 -10 543.546 172.784   6
   1   3 -10 703.238 246.698   8
  -1   3  10 504.377 166.141  10
   1   3 -10 714.259 232.758   4
  -1   3  10 466.118 218.597   3
   1   3  -9 5127.20 530.385   8
   1   3  -9 4965.83 468.887   6
   1   3  -9 4736.16 477.132   4
  -1   3   9 4865.13 487.807  10
  -1   3   9 5892.67 563.613   3
   1   3  -8 287.086 142.169   6
   1   3  -8 152.219 120.216   8
  -1   3   8 9.26254 119.107   3
   1   3  -8-56.4121 112.103   4
  -1   3   8 49.2784 103.217  10
   1   3  -7 5876.24 510.210   8
  -1   3   7 5399.05 477.136  10
   1   3  -7 5299.63 437.051   6
  -1   3   7 5247.53 495.618   3
  -1   3   6 6587.30 545.696   3
   1   3  -6 6629.51 508.022   8
   1   3  -6 7025.73 484.492   6
  -1   3   6 7108.12 508.281   2
  -1   3   6 7015.97 522.335  10
  -1   3   5 9971.95 662.126   3
   1   3  -5 11438.9 639.927   8
   1   3  -5 11515.7 594.012   6
  -1   3   5 11101.0 646.510   2
  -1   3   5 12253.1 685.709  10
  -1   3   4 1451.93 249.847   3
  -1   3   4 1359.65 229.337   2
   1   3  -4 1826.40 221.135   6
  -1   3   4 1190.28 211.080  10
   1   3  -4 1510.02 211.114   8
   1   3  -3 9843.63 502.595   8
  -1   3   3 10373.6 594.036  10
  -1   3   3 10126.8 610.268   2
   1   3  -3 9513.05 491.340   6
  -1   3   3 8888.88 588.902   3
   1   3  -2 14411.7 581.676   8
  -1   3   2 13799.5 724.269   2
  -1   3   2 15076.7 714.441  10
   1   3  -2 15418.1 747.497   3
   1   3  -2 15104.8 613.521   6
  -1   3   2 15907.7 797.534   3
   1   3  -1 24606.8 874.933  11
   1   3  -1 25810.4 1013.47   3
   1   3  -1 26434.4 768.834   8
  -1   3   1 29207.1 994.588   6
   1   3  -1 26351.2 846.938   6
  -1   3   1 28033.7 1081.72   3
  -1   3   1 28691.2 1079.19   2
  -1   3   0 8304.13 491.359   6
   1   3   0 8544.87 413.683   6
  -1   3   0 8690.47 576.447   2
   1   3   0 8378.66 431.479  11
   1   3   0 8376.90 527.450   3
  -1   3   0 8682.09 556.621   3
  -1   3  -1 33283.4 1196.41   3
   1   3   1 34669.5 1208.26  10
  -1   3  -1 34738.0 1213.13   2
   1   3   1 34327.7 994.511  11
   1   3   1 34596.7 1194.46   3
  -1   3  -1 35185.3 1155.46   6
  -1   3  -2 620.592 147.591   6
   1   3   2 690.795 179.515  10
  -1   3  -2 594.592 138.753   2
  -1   3  -2 794.501 185.875   3
   1   3   2 817.183 180.494   3
   1   3   2 558.993 104.112  11
   1   3   3 6748.82 508.593  10
  -1   3  -3 7458.28 351.567   4
  -1   3  -3 7452.94 507.499   2
   1   3   3 7426.83 367.749  11
  -1   3  -3 7823.58 521.359   3
   1   3   3 7158.13 502.073   3
  -1   3  -3 7381.44 491.662   6
  -1   3  -4 1160.18 206.488   6
   1   3   4 779.644 195.856  10
   1   3   4 941.854 127.107  11
  -1   3  -4 1121.44 207.487   2
   1   3   4 659.501 162.018   3
  -1   3  -4 1169.35 219.217   3
  -1   3  -4 1112.00 151.951   4
  -1   3  -5 15365.8 776.267   6
   1   3   5 15561.4 829.332  10
  -1   3  -5 15653.3 674.588   4
  -1   3  -5 15323.8 741.285   2
   1   3   5 14906.9 781.612   3
  -1   3  -6 1749.68 267.003   6
   1   3   6 2032.80 292.082   3
   1   3   6 2186.67 314.266  10
  -1   3  -6 1752.85 235.893   4
  -1   3  -6 2108.30 259.082   2
   1   3   7 3802.84 427.240  10
  -1   3  -7 4525.14 405.373   4
  -1   3  -7 3571.51 391.207   6
   1   3   7 3995.77 406.599   3
   1   3   8-43.2303 135.964  10
  -1   3  -8 308.816 131.310   4
  -1   3  -8 177.395 130.946   6
   1   3   8 83.0419 104.923   3
  -1   3  -9 5652.60 516.719   4
   1   3   9 5990.63 565.397  10
   1   3   9 5712.32 529.689   3
  -1   3  -9 5617.19 533.985   6
  -1   3 -10 2941.59 413.590   6
   1   3  10 2730.80 380.371   3
   1   3  10 2674.11 402.656  10
  -1   3 -10 2599.03 378.881   4
   1   3  11 5299.45 580.984  10
  -1   3 -11 6069.09 603.369   4
  -1   3 -11 4555.71 528.144   6
   1   3  11 6123.96 585.673   3
  -1   3 -12-151.581 151.234   6
   1   3  12 256.212 140.498  10
  -1   3 -12 329.558 197.677   4
  -1   3 -13 1911.79 374.821   6
   1   3  13 1827.45 403.639  10
  -1   3 -13 1631.95 368.049   4
  -1   4  13 1103.74 330.535   3
   1   4 -13 905.667 281.386   6
  -1   4  12 940.273 299.794  10
  -1   4  12 755.038 290.422   3
   1   4 -12 965.951 286.250   6
  -1   4  11 921.289 294.339   3
  -1   4  11 1036.75 285.295  10
   1   4 -11 1116.30 277.594   6
   1   4 -10 1508.94 303.490   6
  -1   4  10 1874.02 383.129   3
  -1   4  10 2415.29 404.018  10
   1   4  -9 978.337 244.739   6
  -1   4   9 671.431 244.306   3
  -1   4   9 1371.29 295.762  10
   1   4  -8 3283.12 396.981   6
  -1   4   8 3314.37 443.878  10
  -1   4   8 3326.35 475.706   3
  -1   4   7 7271.12 629.361  10
   1   4  -7 7450.12 570.243   6
  -1   4   7 6699.86 638.687   3
  -1   4   6 5442.81 530.200  10
   1   4  -6 4974.23 440.849   6
  -1   4   6 5679.36 568.094   3
  -1   4   5 5321.19 541.053   3
   1   4  -5 6168.27 473.012   6
  -1   4   5 4810.72 482.582  10
  -1   4   4 11433.7 737.107  10
   1   4  -4 10819.1 621.878   6
  -1   4   4 10670.5 755.554   3
   1   4  -3 622.703 149.138   6
  -1   4   3 396.023 167.615  10
  -1   4   3 476.912 197.150   3
   1   4  -2 3909.35 335.946   6
  -1   4   2 3543.40 428.039   3
   1   4  -2 4215.65 437.320   3
  -1   4   2 4008.38 431.978   2
  -1   4   1 7978.72 610.107   2
   1   4  -1 7396.67 583.187   3
   1   4  -1 7519.29 461.931   6
  -1   4   1 7134.84 588.412   3
  -1   4   0 1541.34 233.926   6
   1   4   0 1317.66 256.807   3
  -1   4   0 1985.71 314.601   3
  -1   4   0 1445.88 275.387   2
  -1   4  -1 1772.71 264.622   6
   1   4   1 2073.62 315.076   3
  -1   4  -1 1721.90 284.075   3
   1   4   1 1709.71 208.321  11
  -1   4  -1 1301.32 255.326   2
  -1   4  -2 3742.92 408.189   2
   1   4   2 3441.60 405.851  10
  -1   4  -2 4870.68 465.562   3
   1   4   2 4311.41 436.729   3
  -1   4  -2 4455.76 412.887   6
   1   4   3 1298.54 251.425   3
  -1   4  -3 1591.10 267.936   3
   1   4   3 1077.72 234.781  10
  -1   4  -3 1601.05 256.295   6
   1   4   4 6968.99 596.083  10
  -1   4  -4 6850.18 542.719   6
  -1   4  -4 7044.10 577.782   3
   1   4   4 6724.54 568.485   3
   1   4   5 316.659 192.367  10
  -1   4  -5 319.250 152.514   6
   1   4   5 608.028 202.320   3
   1   4   6 3133.45 415.818  10
   1   4   6 2992.30 404.638   3
  -1   4  -6 4120.55 449.560   6
   1   4   7 487.223 192.309   3
  -1   4  -7 291.176 151.824   6
   1   4   7 426.101 190.945  10
   1   4   8 8744.88 746.017  10
  -1   4  -8 8351.12 676.449   6
   1   4   8 8949.72 716.312   3
   1   4   9 4237.31 530.375  10
  -1   4  -9 4457.17 509.755   6
   1   4   9 4558.58 530.138   3
   1   4  10 9647.05 823.248  10
  -1   4 -10 9622.15 778.477   6
   1   4  10 10372.0 813.607   3
  -1   4 -11 5276.21 584.288   6
   1   4  11 4202.96 577.961  10
  -1   4 -12 214.992 187.410   6
   1   4  12 785.972 275.020  10
  -1   5  10 305.511 199.914  10
  -1   5  10 313.654 231.860   3
  -1   5   9 2752.69 474.445  10
  -1   5   9 1931.04 400.785   3
  -1   5   8 49.8380 180.147   3
  -1   5   8 68.7726 164.043  10
  -1   5   7 6885.35 685.169  10
  -1   5   7 5732.03 656.269   3
  -1   5   6 2381.44 403.481  10
  -1   5   6 1994.11 393.856   3
  -1   5   5 762.305 249.340   3
  -1   5   5 844.283 237.815  10
  -1   5   4 9.39782 143.985  10
  -1   5   4 426.387 219.768   3
  -1   5   3 6961.37 676.081   3
   1   5  -2 278.634 209.422   3
  -1   5   2 170.229 133.722   3
   1   5  -1 17439.8 1031.32   3
  -1   5   1 15206.9 983.757   3
   1   5   0 3877.47 489.658   3
  -1   5   0 4917.59 541.755   3
   1   5   1 5627.05 568.644   3
  -1   5  -1 4443.57 514.964   3
  -1   5  -1 5239.21 494.794   6
  -1   5  -2 291.540 152.018   6
  -1   5  -2 384.937 184.051   3
   1   5   2 467.700 186.704   3
  -1   5  -3 7666.74 678.268   3
  -1   5  -3 7226.44 600.286   6
   1   5   3 7330.22 657.823   3
  -1   5  -4-46.0585 127.107   6
  -1   5  -4-12.9524 144.222   3
   1   5   4 117.169 172.636   3
   1   5   4 243.535 194.654  10
  -1   5  -5 3940.46 467.165   6
   1   5   5 4135.29 506.230   3
   1   5   5 3427.98 486.638  10
  -1   5  -6 84.1470 151.461   6
   1   5   6 81.8962 128.420   3
   1   5   6 422.447 231.105  10
  -1   5  -7 3375.67 453.277   6
   1   5   7 3050.27 475.094  10
   1   5   7 2949.14 446.901   3
   1   5   8 985.181 282.764   3
  -1   5  -8 877.898 259.266   6
   1   5   8 898.712 325.006  10
  -1   5  -9 1380.35 319.825   6
   1   5   9 1371.22 347.346   3
   1   5   9 1789.01 410.859  10
   1   5  10 1135.65 330.491  10
  -1   5 -10 1075.49 311.590   6
  -1   6   7 337.480 212.691  10
  -1   6   6 1604.42 389.516   3
  -1   6   6 999.882 335.223  10
  -1   6   5 1143.10 346.496   3
  -1   6   4 5005.14 648.534   3
  -1   6   3 46.0667 176.704   3
  -1   6   2 1831.63 398.009   3
  -1   6   1 3910.58 554.828   3
   1   6  -1 3519.55 523.360   3
   1   6   0 1638.75 361.515   3
  -1   6   0 1600.58 377.201   3
   1   6   1-27.6117 168.616   3
  -1   6  -1 118.675 175.291   3
  -1   6  -2 2726.52 402.400   6
  -1   6  -2 2787.66 463.001   3
   1   6   2 2960.42 477.818   3
  -1   6  -3-13.5667 109.971   6
  -1   6  -3-3.21275 168.835   3
   1   6   3 193.263 214.998   3
   1   6   4 1475.85 349.714   3
  -1   6  -4 1027.30 269.246   6
  -1   6  -5 285.107 189.530   6
   1   6   5 270.923 213.248   3
  -1   6  -6 2678.64 437.107   6
   1   6   6 2188.12 444.059  10
   1   6   6 2886.72 494.386   3
  -1   6  -7-245.426 182.750   6
   1   6   7 107.895 194.840   3
   1   6   8 2525.05 481.204   3
   2  -6  -6 4455.54 604.004   1
   2  -6  -5 1365.76 348.355   1
  -2  -6   5 1929.94 435.385   9
   2  -6  -4 1369.83 320.160   1
  -2  -6   4 3090.87 527.136   9
   2  -6  -3 1501.84 326.503   1
  -2  -6   3 2005.12 426.714   9
   2  -6  -2 9195.88 758.817   1
  -2  -6   1 517.842 225.017   1
  -2  -6   0 11212.9 869.232   1
   2  -6   0 6698.26 666.697   7
   2  -6   1 395.619 207.384   9
  -2  -6  -1 130.203 161.547   1
   2  -6   1 222.284 155.323   7
   2  -6   2 1605.49 356.162   9
  -2  -6  -2 1679.45 374.256   1
   2  -6   2 2102.16 390.173   7
  -2  -6  -3-47.3097 161.637   1
   2  -6   3 9.49613 171.439   9
   2  -6   4 3538.63 520.246   9
  -2  -6  -4 3005.24 500.384   1
  -2  -6  -5 200.563 201.354   1
   2  -6   5 582.936 215.858   9
   2  -6   6 1581.21 394.278   9
  -2  -5   9 1176.98 360.824   9
   2  -5  -9 1028.42 318.708   1
   2  -5  -8 3780.11 541.488   1
  -2  -5   8 4551.62 602.403   9
  -2  -5   7 6625.53 704.395   9
   2  -5  -7 6120.35 658.204   1
  -2  -5   6 1139.67 313.396   9
   2  -5  -6 1877.69 379.116   1
  -2  -5   5 5525.78 609.876   9
   2  -5  -5 5124.60 563.899   1
   2  -5  -4 222.420 171.106   1
  -2  -5   4 820.726 277.592   9
   2  -5  -3 4909.07 524.522   1
  -2  -5   3 4209.84 533.814   9
  -2  -5   3 5329.18 525.000   1
  -2  -5   2 885.567 225.227   1
   2  -5  -2 651.054 205.053   1
   2  -5  -2 838.829 226.027   7
  -2  -5   1 5598.95 558.046   1
   2  -5  -1 6012.79 541.587   1
   2  -5  -1 6709.73 576.404   7
  -2  -5   0-7.93441 134.049   1
   2  -5   0-21.0915 111.976   1
   2  -5   0 68.4075 105.846   7
  -2  -5  -1 1617.64 312.089   1
   2  -5   1 2594.63 384.141   9
   2  -5   1 2568.21 394.415   7
  -2  -5  -2 138.311 159.695   1
   2  -5   2 230.578 128.627   9
   2  -5   2 556.724 200.018   7
   2  -5   3 3497.83 452.727   7
   2  -5   3 3850.68 464.660   9
  -2  -5  -3 3277.18 461.654   1
   2  -5   4 1933.06 347.377   9
   2  -5   4 2255.50 391.087   7
  -2  -5  -4 1593.59 333.571   1
   2  -5   5 190.903 168.316   9
  -2  -5  -5 320.717 191.072   1
   2  -5   5-14.2299 160.179   7
   2  -5   6 428.423 237.873   9
  -2  -5  -6 201.657 205.578   1
   2  -5   6 85.8119 171.883   7
   2  -5   7 6613.72 678.466   9
  -2  -5  -7 6210.48 671.034   1
   2  -5   7 6519.56 674.301   7
   2  -5   8 2835.18 468.542   9
  -2  -5  -8 3520.53 524.726   1
   2  -5   9 2808.89 477.382   9
  -2  -5  -9 2689.23 461.152   1
   2  -5  10 2427.45 492.318   9
   2  -4 -12 1306.03 360.933   1
  -2  -4  12 1296.30 391.994   9
   2  -4 -11 151.616 210.807   1
  -2  -4  11 887.029 322.980   9
  -2  -4  10 3260.29 503.073   9
   2  -4 -10 3412.50 480.780   1
  -2  -4   9 661.162 265.882   9
   2  -4  -9 1017.08 291.657   1
  -2  -4   8 2187.62 373.374   9
   2  -4  -8 2032.02 372.889   1
  -2  -4   7 147.317 146.155   9
   2  -4  -7 338.166 207.433   1
   2  -4  -6 2600.42 378.804   1
  -2  -4   6 2695.27 383.775   9
  -2  -4   5-32.7535 97.8361   1
  -2  -4   5 143.896 131.469   9
  -2  -4   4 4703.54 418.720   5
  -2  -4   4 4952.82 513.183   9
   2  -4  -4 5547.56 508.967   1
  -2  -4   4 4687.83 434.502   1
   2  -4  -3 743.525 205.879   1
  -2  -4   3 998.181 216.248   1
   2  -4  -3 920.746 199.185   7
  -2  -4   2 5367.19 483.837   1
   2  -4  -2 5529.21 453.094   7
   2  -4  -2 5929.09 498.559   1
  -2  -4   1 682.514 216.071   1
   2  -4  -1 468.447 147.048   1
   2  -4  -1 741.743 191.516   7
  -2  -4   0 6736.28 554.584   1
   2  -4   0 6499.58 512.821   7
   2  -4   0 7369.54 509.653   1
   2  -4   1 170.664 115.197   1
   2  -4   1-30.5633 116.513   7
   2  -4   2 11445.3 707.648   9
  -2  -4  -2 12810.8 794.193   1
   2  -4   2 13983.9 803.013   7
   2  -4   3 1652.19 279.255   9
  -2  -4  -3 2014.36 325.917   1
   2  -4   3 1752.40 296.554   7
   2  -4   4 11757.4 755.549   9
   2  -4   4 14219.8 856.575   7
  -2  -4  -4 14360.4 861.504   1
   2  -4   5 139.980 143.068   9
  -2  -4  -5 204.077 147.986   1
   2  -4   5 193.276 144.635   7
   2  -4   6 5954.34 563.759   9
  -2  -4  -6 4564.63 528.535   1
   2  -4   6 6750.17 600.196   7
   2  -4   7 121.092 186.709   9
   2  -4   7 375.555 203.787   7
  -2  -4  -7-32.8762 171.718   1
   2  -4   8 3538.05 487.245   9
   2  -4   8 3226.22 445.135   7
  -2  -4  -8 2586.69 408.926   1
   2  -4   9 4115.40 543.148   9
   2  -4   9 5751.38 604.306   7
  -2  -4  -9 4858.23 557.809   1
   2  -4  10 5661.77 654.044   9
  -2  -4 -10 5391.01 604.829   1
   2  -4  10 7533.20 703.189   7
   2  -4  11 108.320 139.142   7
  -2  -4 -11 12.3969 147.307   1
   2  -4  12 963.177 311.517   9
  -2  -4 -12 916.863 295.144   1
  -2  -3  14 920.101 342.615   9
   2  -3 -14 993.909 294.295   1
   2  -3 -14 846.520 332.217   4
  -2  -3  13 2063.94 441.002   9
   2  -3 -13 2344.09 450.079   4
   2  -3 -13 1897.36 368.145   1
   2  -3 -12 2049.41 384.400   1
   2  -3 -12 1740.19 372.317   4
  -2  -3  12 1335.69 343.648   9
   2  -3 -11 2325.44 393.513   1
  -2  -3  11 1524.30 328.107   9
   2  -3 -10 1378.27 287.065   1
  -2  -3  10 1904.75 365.351   9
  -2  -3   9 3069.54 424.920   9
   2  -3  -9 3493.89 438.326   1
   2  -3  -8 2376.56 354.883   1
  -2  -3   8 1802.19 326.605   9
  -2  -3   7 9197.93 671.575   9
   2  -3  -7 9402.27 667.501   1
   2  -3  -6 9812.72 665.591   1
  -2  -3   6 10544.5 693.522   9
  -2  -3   6 10102.3 542.931   5
  -2  -3   5 10745.4 570.190   5
   2  -3  -5 10505.4 669.465   1
  -2  -3   5 10609.5 672.579   9
   2  -3  -5 11076.4 544.489   8
  -2  -3   4 58.7402 101.721   9
  -2  -3   4 404.793 124.846   5
   2  -3  -4 199.615 122.039   1
   2  -3  -4 215.541 78.4286   8
  -2  -3   4 398.297 132.499   1
   2  -3  -4 332.450 103.541   7
   2  -3  -3 6520.69 481.816   1
   2  -3  -3 6793.66 391.322   8
  -2  -3   3 7409.96 481.852   5
  -2  -3   3 7010.28 479.490   1
   2  -3  -3 7133.30 421.696   7
   2  -3  -2 1063.91 155.609   8
   2  -3  -2 1189.69 199.513   1
  -2  -3   2 877.618 194.739   1
   2  -3  -2 757.251 159.839   7
   2  -3  -1 9591.27 551.443   1
  -2  -3   1 10560.0 614.697   1
   2  -3  -1 10462.3 498.453   8
   2  -3  -1 10631.1 395.570  11
   2  -3  -1 12187.6 605.992   7
  -2  -3   0 1807.19 263.749   1
   2  -3   0 1151.44 182.299   1
   2  -3   0 916.292 122.586  11
   2  -3   0 1488.57 184.116   8
  -2  -3   0 1222.14 140.562   4
   2  -3   0 1076.56 181.542   7
   2  -3   1 11704.1 555.505   1
  -2  -3  -1 11971.7 477.998   4
   2  -3   1 10728.7 579.723   9
   2  -3   1 12376.1 649.302   7
  -2  -3  -1 10734.5 638.091   1
   2  -3   1 11366.2 563.588   8
   2  -3   2 369.015 100.989   1
  -2  -3  -2 264.827 154.982   1
   2  -3   2 569.092 142.849   9
  -2  -3  -2 375.738 100.652   4
   2  -3   2 167.233 130.530   7
   2  -3   3 2790.09 330.800   7
   2  -3   3 2696.26 301.292   9
  -2  -3  -3 2569.69 247.682   4
  -2  -3  -3 2411.43 318.639   1
   2  -3   3 2739.66 228.157   1
   2  -3   4 1040.27 209.619   9
  -2  -3  -4 854.638 162.011   4
  -2  -3  -4 799.270 209.719   1
   2  -3   4 676.956 195.205   7
   2  -3   5 11037.1 680.829   9
  -2  -3  -5 10406.4 679.767   1
  -2  -3  -5 11216.6 616.712   4
   2  -3   5 12103.7 718.745   7
   2  -3   6 320.443 150.199   9
  -2  -3  -6 366.102 145.380   4
   2  -3   6 237.647 151.921   7
  -2  -3  -6 259.361 129.956   1
  -2  -3  -7 6184.34 510.964   4
   2  -3   7 6808.94 581.508   9
  -2  -3  -7 5877.50 537.347   1
   2  -3   7 7397.76 588.251   7
   2  -3   8 2082.99 352.901   9
  -2  -3  -8 2497.03 344.783   4
   2  -3   8 2685.08 370.727   7
  -2  -3  -8 2839.55 384.146   1
   2  -3   9 9093.46 744.887   9
  -2  -3  -9 7121.40 621.759   1
  -2  -3  -9 8629.59 673.408   4
   2  -3   9 9258.06 700.111   7
   2  -3  10 4004.04 515.719   9
  -2  -3 -10 3405.98 440.086   1
  -2  -3 -10 3383.51 446.340   4
   2  -3  10 3390.23 456.479   7
  -2  -3 -11 4786.90 533.990   1
   2  -3  11 3971.53 541.238   9
  -2  -3 -11 3688.29 494.877   4
   2  -3  11 5302.14 553.381   7
   2  -3  12 954.832 334.436   9
  -2  -3 -12 721.553 276.872   4
   2  -3  12 529.141 204.866   7
  -2  -3 -12 988.912 274.335   1
  -2  -3 -13 1439.74 356.945   4
   2  -3  13 1180.14 395.133   9
  -2  -3 -14 300.843 227.348   4
   2  -2 -15 2079.70 451.167   4
  -2  -2  15 2396.79 490.478   9
   2  -2 -14 565.154 210.396   1
  -2  -2  14 639.244 299.829   9
  -2  -2  14 798.568 294.780   3
   2  -2 -14 201.787 195.792   4
  -2  -2  13 225.845 163.937   3
   2  -2 -13 192.686 145.661   1
  -2  -2  12 2687.17 434.142   9
  -2  -2  12 3300.24 456.980   3
   2  -2 -12 3695.34 469.347   8
   2  -2 -12 3087.87 417.113   1
  -2  -2  11 1250.85 307.711   9
   2  -2 -11 1340.02 275.577   1
   2  -2 -11 1834.88 314.096   8
   2  -2 -10 1326.16 264.576   8
  -2  -2  10 1541.29 311.800   9
   2  -2 -10 1626.39 297.270   1
   2  -2  -9 492.865 170.172   8
  -2  -2   9 279.877 166.837   9
   2  -2  -9 544.118 204.962   1
   2  -2  -8 19120.6 937.471   1
  -2  -2   8 20042.6 977.064   9
   2  -2  -8 20335.0 929.855   8
  -2  -2   7 693.144 142.420   5
  -2  -2   7 364.640 159.892   9
   2  -2  -7 578.359 163.422   8
   2  -2  -7 350.147 132.344   1
   2  -2  -6 36986.6 1307.33   1
  -2  -2   6 37894.8 1310.36   9
   2  -2  -6 38097.2 1228.65   8
  -2  -2   6 38057.9 1152.94   5
  -2  -2   5 2078.39 266.482   9
   2  -2  -5 2860.02 269.243   8
   2  -2  -5 3663.16 347.946   1
  -2  -2   5 3429.00 287.346   5
   2  -2  -5 2531.79 178.312   7
   2  -2  -4 514.735 131.244   1
  -2  -2   4 391.876 135.045   9
   2  -2  -4 389.202 101.991   8
  -2  -2   4 265.029 97.7344   5
   2  -2  -4 345.034 79.5930   7
   2  -2  -3 9566.39 529.139   1
  -2  -2   3 10220.0 516.620   5
   2  -2  -3 9829.19 281.802  11
  -2  -2   3 9332.68 500.423   1
  -2  -2   3 10124.1 537.694   9
   2  -2  -3 10475.8 478.015   8
   2  -2  -3 9771.88 420.467   7
  -2  -2   2 97682.2 2323.70   5
   2  -2  -2 98893.2 1941.48  11
   2  -2  -2 96913.1 2211.49   8
   2  -2  -2 94991.5 2307.96   1
  -2  -2   2 94399.8 2322.12   1
   2  -2  -2 95535.2 2181.70   7
   2  -2  -1 5367.00 354.134   1
   2  -2  -1 5165.90 242.229  11
  -2  -2   1 5111.54 371.421   1
   2  -2  -1 5343.68 328.744   8
  -2  -2   1 5451.69 303.848   4
   2  -2  -1 5807.30 351.247   7
   2  -2   0 43262.4 1194.65   8
   2  -2   0 43089.8 1077.84  11
   2  -2   0 42373.7 1172.23   1
  -2  -2   0 42900.9 1122.27   4
  -2  -2   0 43338.4 1286.17   1
   2  -2   0 39327.2 1191.32   7
   2  -2   1 1935.79 187.335   1
   2  -2   1 1958.83 181.310  11
  -2  -2  -1 2207.16 204.124   4
   2  -2   1 2018.56 195.268   9
  -2  -2  -1 1804.47 229.653   1
   2  -2   1 1774.60 215.991   7
   2  -2   2 12119.0 464.091   1
  -2  -2  -2 12141.3 536.613   4
   2  -2   2 13118.7 562.008   9
   2  -2   2 13619.8 624.930   7
  -2  -2  -2 12134.7 615.355   1
  -2  -2  -3 495.203 152.721   1
   2  -2   3 541.022 84.5133   1
   2  -2   3 419.682 119.531   9
  -2  -2  -3 633.917 137.552   4
   2  -2   3 252.735 119.849   7
   2  -2   4 15428.7 712.444   9
  -2  -2  -4 15503.1 712.828   4
  -2  -2  -4 16960.7 758.780   1
   2  -2   4 16219.2 468.468   1
   2  -2   4 16793.6 761.333   7
  -2  -2  -5 843.651 172.123   4
   2  -2   5 1019.53 199.979   9
  -2  -2  -5 810.914 171.910   1
   2  -2   5 719.943 180.075   7
   2  -2   6 3852.61 385.132   9
  -2  -2  -6 3413.19 344.391   1
  -2  -2  -6 3485.07 363.023   4
   2  -2   6 3495.85 358.847   7
   2  -2   7 647.744 190.151   9
  -2  -2  -7 474.912 165.070   4
   2  -2   7 560.747 160.742   7
  -2  -2  -7 290.668 130.211   1
   2  -2   8 2084.93 331.232   9
  -2  -2  -8 3133.39 394.536   4
   2  -2   8 2766.29 340.681   7
  -2  -2  -8 2227.27 302.426   1
   2  -2   9 2989.84 376.262   7
  -2  -2  -9 2607.83 326.910   1
  -2  -2  -9 2702.08 397.706   4
   2  -2   9 3043.27 414.682   9
   2  -2  10 600.936 242.551   9
   2  -2  10 367.237 191.387   7
  -2  -2 -10 441.303 198.636   4
  -2  -2 -10 588.188 196.287   1
  -2  -2 -11 234.397 189.204   4
   2  -2  11 361.259 238.386   9
   2  -2  11 145.685 140.668   7
   2  -2  12 5781.72 669.711   9
  -2  -2 -12 5097.88 616.924   4
   2  -2  13 781.897 317.914   9
  -2  -2 -13 659.569 274.068   4
   2  -2  14 563.975 296.282   9
  -2  -2 -14 412.283 255.318   4
   2  -1 -16 1371.14 392.073   8
  -2  -1  15 2165.40 437.094   3
  -2  -1  15 2182.73 469.255   9
   2  -1 -15 2491.22 497.325   8
   2  -1 -15 2674.20 538.072   4
  -2  -1  14 1451.37 365.706   3
   2  -1 -14 1645.35 391.805   8
  -2  -1  14 1173.54 321.265   9
  -2  -1  13 1924.00 368.919   3
   2  -1 -13 1863.22 388.302   8
  -2  -1  13 1758.76 385.030   9
  -2  -1  12 4010.91 498.785   3
  -2  -1  12 3305.90 466.148   9
   2  -1 -12 3211.32 461.334   8
   2  -1 -12 3309.08 392.520   1
   2  -1 -11 3538.81 389.374   1
  -2  -1  11 3667.81 457.478   3
  -2  -1  11 3453.46 454.003   9
   2  -1 -11 3400.22 462.701   8
   2  -1 -10 849.518 242.323   8
  -2  -1  10 517.782 189.380   9
  -2  -1  10 300.316 163.706   3
   2  -1 -10 646.248 169.007   1
   2  -1  -9 4470.88 412.938   1
  -2  -1   9 4042.11 351.657   5
  -2  -1   9 4090.56 424.164   9
   2  -1  -9 3844.31 424.734   8
  -2  -1   9 4073.16 430.654   3
  -2  -1   8 12182.0 691.215   3
   2  -1  -8 12342.7 674.944   1
  -2  -1   8 11984.4 603.484   5
  -2  -1   8 12924.5 710.286   9
   2  -1  -8 11041.1 683.526   8
  -2  -1   7 16835.5 787.253   9
  -2  -1   7 17357.3 719.796   5
   2  -1  -7 18398.9 805.679   1
   2  -1  -7 17859.1 819.629   8
  -2  -1   6 8451.64 465.174   5
  -2  -1   6 8444.54 496.526   9
   2  -1  -6 8259.12 506.077   8
  -2  -1   5 22086.0 800.388   9
  -2  -1   5 20983.8 768.129   5
   2  -1  -5 19822.7 788.487   8
  -2  -1   4 1409.14 181.766   5
  -2  -1   4 1241.18 167.548   9
   2  -1  -4 1374.06 135.305  11
   2  -1  -4 1150.85 169.891   8
   2  -1  -3 24677.8 665.213  11
  -2  -1   3 23292.9 800.240   5
  -2  -1   3 24731.6 775.819   9
   2  -1  -3 24857.1 799.510   8
  -2  -1   2 1707.63 195.660   5
  -2  -1   2 1650.50 170.320   4
  -2  -1   2 1537.49 156.827   9
   2  -1  -2 1706.74 133.973  11
   2  -1  -2 1555.55 173.869   8
  -2  -1   1 21063.3 686.773   4
  -2  -1   1 22275.5 754.361   5
   2  -1  -1 20729.4 590.478  11
   2  -1  -1 21577.8 707.839   8
  -2  -1   1 21759.5 737.976   1
  -2  -1   0 3340.70 270.252   5
  -2  -1   0 3331.00 262.746   1
   2  -1   0 3620.35 173.541   9
   2  -1   0 3540.06 215.450  11
  -2  -1   0 3996.75 264.056   4
   2  -1   0 3610.61 259.212   8
   2  -1   1 24468.4 718.998  11
  -2  -1  -1 22036.1 741.078   4
  -2  -1  -1 22961.3 774.980   1
   2  -1   1 23614.7 771.544   8
   2  -1   1 23161.2 626.364   9
  -2  -1  -1 22420.9 495.090   6
  -2  -1  -2 645.586 130.124   1
   2  -1   2 920.818 125.523   9
   2  -1   2 815.523 128.576  11
  -2  -1  -2 767.650 137.943   4
  -2  -1  -3 2962.79 254.520   1
   2  -1   3 2670.27 229.314   9
  -2  -1  -3 2776.60 271.805   4
   2  -1   3 2943.89 252.452  11
   2  -1   4 14144.4 604.936   9
  -2  -1  -4 13632.5 584.233   1
  -2  -1  -4 13047.5 637.749   4
   2  -1   4 13457.3 601.045  11
   2  -1   5 8280.58 489.943   9
  -2  -1  -5 8508.60 456.903   1
  -2  -1  -5 8012.96 518.425   4
   2  -1   5 8541.36 488.336  11
   2  -1   6 2725.57 303.654   9
  -2  -1  -6 2866.75 269.725   1
  -2  -1  -6 2407.84 303.571   4
  -2  -1  -7 17052.3 718.198   1
   2  -1   7 16108.4 819.112   9
  -2  -1  -7 15821.4 843.793   4
   2  -1   8 6570.60 544.196   9
  -2  -1  -8 6438.32 560.414   4
  -2  -1  -8 6659.55 439.471   1
   2  -1   9 9835.42 713.865   9
  -2  -1  -9 10545.6 759.144   4
  -2  -1  -9 11088.7 593.754   1
   2  -1  10 7735.08 669.452   9
   2  -1  10 9048.75 603.307   7
  -2  -1 -10 8229.73 699.900   4
   2  -1  11 3850.35 510.418   9
  -2  -1 -11 3468.12 494.161   4
   2  -1  11 4375.80 428.992   7
   2  -1  12 719.329 216.875  11
  -2  -1 -12 635.010 275.045   4
  -2  -1 -13 2368.92 375.521   6
   2  -1  13 1768.05 343.461  11
   2  -1  13 1185.70 340.727   9
  -2  -1 -13 2477.42 462.794   4
  -2  -1 -14 1409.88 314.910   6
   2  -1  14 1490.15 403.965   9
   2  -1  14 909.465 286.462  11
  -2  -1 -14 1121.86 360.321   4
   2  -1  15 1918.56 468.639   9
  -2  -1 -15 2368.65 421.325   6
   2  -1  15 2169.84 414.563  11
   2   0 -16 795.172 350.082   8
  -2   0  16 859.107 329.915   9
  -2   0  15 3604.76 543.526   9
  -2   0  15 3237.78 517.071   3
   2   0 -15 1794.78 446.553   8
   2   0 -15 2722.18 553.409   4
  -2   0  14 1427.89 346.239   3
  -2   0  14 1070.50 292.565   9
   2   0 -14 292.319 258.609   8
  -2   0  13 339.552 239.210   3
   2   0 -13 265.049 255.476   8
  -2   0  13 96.9677 177.472   9
  -2   0  12 1344.59 297.625   3
  -2   0  12 1150.42 284.314   9
   2   0 -12 784.130 272.761   8
   2   0 -11 2661.89 315.726   1
   2   0 -11 2354.46 408.808   8
  -2   0  11 2484.74 373.275   9
  -2   0  11 2022.63 320.045   3
  -2   0  11 2251.50 321.171   5
  -2   0  10 5305.25 505.478   3
  -2   0  10 6076.85 489.419   5
   2   0 -10 5235.48 432.266   1
  -2   0  10 4297.84 455.380   9
   2   0 -10 5219.79 526.466   8
   2   0  -9 1776.18 308.398   8
  -2   0   9 1213.00 219.239   5
  -2   0   9 845.312 204.577   3
  -2   0   9 1522.40 269.924   9
  -2   0   8 5737.68 460.208   3
  -2   0   8 5644.69 440.015   5
   2   0  -8 5239.07 470.364   8
  -2   0   8 6215.70 474.110   9
  -2   0   7 2817.66 305.682   3
  -2   0   7 2412.89 274.802   5
  -2   0   7 3191.41 314.828   9
   2   0  -7 2692.54 319.952   8
  -2   0   7 2254.02 194.363   2
  -2   0   6 582.700 105.010   2
  -2   0   6 687.230 158.148   5
  -2   0   6 570.304 147.476   3
  -2   0   6 702.959 142.873   9
   2   0  -6 461.934 157.547   8
   2   0  -5 5230.43 381.716   8
  -2   0   5 3974.39 321.538   3
  -2   0   5 3766.00 309.499   5
   2   0  -5 4406.96 307.922  11
  -2   0   5 4648.02 310.602   9
  -2   0   5 4567.99 275.781   2
  -2   0   4 16212.9 618.885   3
  -2   0   4 14174.2 527.605   9
  -2   0   4 14844.1 621.550   5
  -2   0   4 15230.0 547.166   2
   2   0  -4 14504.5 620.421   8
   2   0  -4 15660.9 582.835  11
  -2   0   3 1292.94 147.447   2
  -2   0   3 1231.08 153.876   3
  -2   0   3 891.325 104.637   9
   2   0  -3 1155.49 141.667  11
   2   0  -3 1080.00 153.224   8
  -2   0   3 1073.40 153.047   5
  -2   0   2 12774.2 451.032   3
   2   0  -2 11869.4 444.227  11
  -2   0   2 11586.1 338.023   9
  -2   0   2 12859.7 490.744   4
  -2   0   2 11518.9 499.637   5
   2   0  -2 12275.6 496.236   8
  -2   0   2 12105.2 467.590   2
  -2   0   1 14529.8 451.373   3
   2   0  -1 15055.3 545.012   8
  -2   0   1 15259.2 545.220   4
   2   0  -1 14067.0 492.386  11
  -2   0   1 15372.9 568.920   5
  -2   0   1 14405.3 518.988   2
  -2   0   0 28441.4 662.987   3
  -2   0   0 28491.9 834.368   4
  -2   0   0 28884.5 840.769   5
   2   0   0 27561.7 820.208   8
   2   0   0 26907.1 766.994  11
  -2   0   0 28580.2 814.726   2
  -2   0   0 28129.4 682.238   6
  -2   0  -1 772.393 93.3777   6
  -2   0  -1 586.907 113.212   5
  -2   0  -1 693.423 114.563   2
   2   0   1 599.249 71.2582   9
   2   0   1 610.237 110.008  11
   2   0   1 770.109 67.6747  10
  -2   0  -1 824.369 137.563   4
   2   0   1 781.856 125.263   8
   2   0   2 59401.7 1475.18  11
  -2   0  -2 60061.7 1469.96   5
  -2   0  -2 61408.0 1427.13   1
   2   0   2 60833.3 1397.76   9
  -2   0  -2 63974.0 1569.94   4
  -2   0  -2 61737.7 1380.48   6
  -2   0  -2 61695.1 1447.01   2
   2   0   3 21297.9 726.855  11
  -2   0  -3 20372.2 681.221   5
   2   0   3 20709.2 470.135   3
  -2   0  -3 22184.0 668.453   6
  -2   0  -3 21420.4 794.407   4
  -2   0  -3 21343.6 648.885   1
   2   0   3 20616.1 695.839   9
  -2   0  -3 21533.9 664.549   2
   2   0   4 97824.3 1959.86   3
   2   0   4 101043. 2284.66  11
   2   0   4 96539.7 2277.81   9
  -2   0  -4 97167.4 2386.90   4
  -2   0  -4 96558.6 2114.01   1
  -2   0  -4 97961.4 2123.94   2
  -2   0  -4 96681.2 2182.08   6
  -2   0  -5 187.601 91.1350   6
  -2   0  -5 81.0364 56.5969   2
  -2   0  -5 118.893 65.0322   1
   2   0   5 115.981 108.464   9
   2   0   5 68.4251 46.5474   3
  -2   0  -5-52.2618 91.4272   4
   2   0   5-3.89493 73.0233  11
   2   0   6 11525.7 450.112   3
   2   0   6 12117.3 603.629  11
  -2   0  -6 11758.2 673.944   4
  -2   0  -6 11756.7 468.518   1
  -2   0  -6 11164.8 447.132   2
   2   0   6 10959.3 617.163   9
  -2   0  -6 11449.2 562.145   6
   2   0   7 3303.71 251.077   3
   2   0   7 3177.46 358.867   9
  -2   0  -7 2858.13 210.673   2
  -2   0  -7 3030.66 229.818   1
   2   0   7 3085.16 316.736  11
  -2   0  -7 2939.29 358.188   4
  -2   0  -7 3293.22 312.683   6
   2   0   8 4536.67 323.390   3
   2   0   8 4025.24 382.242  11
  -2   0  -8 4597.50 474.675   4
   2   0   8 4363.20 438.202   9
  -2   0  -8 4334.96 386.010   6
   2   0   9 19666.9 941.613  11
   2   0   9 20404.0 1042.88   9
  -2   0  -9 20994.5 1090.96   4
   2   0   9 22100.5 839.246   3
  -2   0  -9 20229.5 939.744   6
   2   0  10 12958.6 772.313  11
   2   0  10 11994.0 825.172   9
  -2   0 -10 12515.4 870.485   4
  -2   0 -10 12097.9 736.749   6
  -2   0 -11 214.916 156.596   6
   2   0  11-146.956 152.121  11
   2   0  11 50.3407 150.607   9
  -2   0 -11 15.3525 165.017   4
  -2   0 -12 1714.75 320.456   6
   2   0  12 1513.83 356.755   9
  -2   0 -12 987.021 293.042   4
   2   0  12 1528.37 305.400  11
  -2   0 -13 840.141 248.158   6
   2   0  13 953.318 260.306  11
   2   0  13 829.100 283.616   9
  -2   0 -13 837.411 298.371   4
  -2   0 -14 2907.73 435.676   6
   2   0  14 2611.34 481.580   9
   2   0  14 2284.22 395.211  11
  -2   0 -14 2070.33 442.049   4
  -2   0 -15 1.19608 156.301   6
   2   0  15 159.803 168.262  11
   2   0  15 441.651 308.170   9
  -2   0 -15-132.491 161.911   4
  -2   1  16 1104.23 325.443   9
   2   1 -15 1848.70 365.570   6
  -2   1  15 1679.10 386.996   3
  -2   1  15 2125.71 404.359   9
   2   1 -15 1657.44 408.611   8
   2   1 -15 1479.31 379.199   4
   2   1 -14 828.296 248.696   6
  -2   1  14 634.632 238.995   9
  -2   1  14 766.893 282.240   3
   2   1 -14 873.242 330.677   8
  -2   1  13 2656.61 408.717   5
   2   1 -13 2353.37 364.936   6
  -2   1  13 2527.80 427.860   3
   2   1 -13 1421.01 365.292   8
  -2   1  13 2467.15 397.336   9
  -2   1  12 4389.40 521.219   3
  -2   1  12 4094.78 474.333   5
   2   1 -12 3964.93 523.333   8
  -2   1  12 3773.48 466.624   9
  -2   1  11 3738.39 441.481   5
  -2   1  11 3331.48 413.241   9
  -2   1  11 3297.79 437.952   3
   2   1 -11 2963.04 432.768   8
  -2   1  10 357.442 166.202   5
  -2   1  10 287.741 215.632   3
  -2   1  10 756.979 198.628   9
   2   1 -10 458.392 195.974   8
  -2   1   9 4167.16 449.881   3
  -2   1   9 4218.54 427.162   5
  -2   1   9 3594.60 371.425   9
   2   1  -9 3856.59 434.703   8
  -2   1   8 11489.5 699.662   3
  -2   1   8 11271.6 685.603   5
   2   1  -8 11291.9 704.777   8
  -2   1   8 11429.4 632.046   9
  -2   1   7 18400.6 848.013   3
  -2   1   7 18535.1 847.961   5
  -2   1   7 18692.7 772.572   9
   2   1  -7 17664.0 862.733   8
  -2   1   7 17883.0 670.228   2
  -2   1   6 8284.59 515.643   3
  -2   1   6 7295.75 498.475   5
   2   1  -6 7912.48 516.884   8
  -2   1   6 8248.63 423.334   2
  -2   1   6 7714.84 434.871   9
  -2   1   5 22946.4 865.763   3
  -2   1   5 21532.1 861.129   5
  -2   1   5 22963.1 745.444   9
   2   1  -5 21575.7 854.635   8
  -2   1   5 20960.2 744.980   2
   2   1  -5 21191.1 826.128  11
  -2   1   4 1374.67 145.730   9
   2   1  -4 1425.82 194.531   8
  -2   1   4 1462.38 197.545   3
  -2   1   4 1404.87 155.581  10
  -2   1   4 1578.54 204.767   5
   2   1  -4 1370.31 185.040  11
  -2   1   4 1456.59 179.836   2
  -2   1   3 24838.8 829.977   3
  -2   1   3 25598.2 873.403   5
  -2   1   3 25381.4 686.377   9
  -2   1   3 24900.1 702.488  10
  -2   1   3 25445.3 824.031   2
   2   1  -3 24223.8 822.190   8
   2   1  -3 25082.4 824.724  11
  -2   1   2 1880.57 192.671   3
  -2   1   2 1510.51 184.056   2
  -2   1   2 2094.34 214.135   5
   2   1  -2 1646.30 180.647  11
  -2   1   2 1810.70 135.259  10
   2   1  -2 1806.74 185.275   8
  -2   1   1 23194.9 755.046   5
   2   1  -1 22668.7 703.040   8
  -2   1   1 22061.0 698.110   4
   2   1  -1 22588.0 721.336  11
  -2   1   1 22385.4 763.218   2
  -2   1   1 22811.3 576.713  10
  -2   1   1 22612.8 715.448   3
  -2   1   0 3580.80 246.866   5
   2   1   0 3628.29 250.562  11
  -2   1   0 3506.99 245.945   4
  -2   1   0 2855.91 210.294   3
  -2   1   0 4042.45 289.554   2
   2   1   0 3602.70 231.766   8
  -2   1   0 3160.64 232.507   6
  -2   1  -1 21479.6 672.862   5
  -2   1  -1 22353.3 754.835   2
  -2   1  -1 22913.6 735.392   4
   2   1   1 22259.7 677.253   8
   2   1   1 21688.4 672.729  10
   2   1   1 22759.9 715.733  11
  -2   1  -1 22406.8 714.658   6
  -2   1  -1 22923.3 666.307   3
   2   1   2 644.945 74.9300   3
  -2   1  -2 854.346 111.062   3
  -2   1  -2 769.930 126.168   6
   2   1   2 753.472 125.173  11
  -2   1  -2 978.084 154.191   4
   2   1   2 737.414 119.152  10
  -2   1  -2 897.329 143.198   2
  -2   1  -2 856.452 116.731   5
   2   1   2 949.350 123.637   8
   2   1   3 2548.60 225.004  11
   2   1   3 3043.78 248.874   9
  -2   1  -3 2988.36 191.372   5
  -2   1  -3 2896.80 264.851   4
  -2   1  -3 2875.63 241.526   2
   2   1   3 2881.42 236.871  10
   2   1   3 2706.35 165.870   3
  -2   1  -3 2911.97 247.925   6
  -2   1  -4 13347.7 636.461   4
   2   1   4 13703.1 607.514   9
   2   1   4 14481.9 593.848  10
  -2   1  -4 14164.7 566.860   2
   2   1   4 12314.5 440.976   3
  -2   1  -4 13844.4 458.542   5
   2   1   4 13807.1 575.382  11
  -2   1  -4 13851.2 603.974   6
   2   1   5 8211.12 468.387  10
   2   1   5 8766.43 504.341   9
  -2   1  -5 8571.41 529.544   4
  -2   1  -5 8283.07 419.438   2
  -2   1  -5 7621.12 321.637   5
   2   1   5 9232.85 474.357  11
  -2   1  -5 8072.69 471.341   6
   2   1   5 7640.96 352.209   3
   2   1   6 2458.14 209.617   3
   2   1   6 2415.94 255.570  11
  -2   1  -6 2258.20 164.297   5
   2   1   6 2455.05 284.868   9
  -2   1  -6 2670.41 229.865   2
  -2   1  -6 2686.09 314.924   4
   2   1   6 3033.52 302.813  10
  -2   1  -6 2884.45 290.478   6
   2   1   7 17518.7 672.915   3
  -2   1  -7 17233.8 800.438   6
   2   1   7 15854.2 812.818   9
  -2   1  -7 17169.4 876.188   4
  -2   1  -7 18322.1 654.077   2
   2   1   7 17223.1 758.839  11
   2   1   8 7003.78 430.445   3
   2   1   8 6693.05 480.636  11
   2   1   8 6901.02 549.959   9
  -2   1  -8 7502.73 599.904   4
  -2   1  -8 6670.04 497.665   6
   2   1   9 10729.4 635.511  11
   2   1   9 9197.67 676.092   9
  -2   1  -9 9704.89 723.543   4
  -2   1  -9 10234.2 659.474   6
   2   1  10 8292.46 588.302  11
  -2   1 -10 6998.25 649.003   4
   2   1  10 8900.26 697.985   9
  -2   1 -10 8259.48 628.246   6
  -2   1 -11 4087.55 459.046   6
   2   1  11 3804.22 418.189  11
   2   1  11 3898.95 488.806   9
  -2   1 -11 3522.14 483.654   4
  -2   1 -12 418.238 186.197   6
   2   1  12 1171.86 297.158   9
  -2   1 -12 594.829 253.456   4
   2   1  12 791.951 217.606  11
  -2   1 -13 2283.57 388.840   6
   2   1  13 2745.47 384.848  11
   2   1  13 1773.81 380.543   9
  -2   1 -13 2650.51 471.490   4
  -2   1 -14 970.708 292.848   6
   2   1  14 1286.45 358.674   9
  -2   1 -14 1349.35 339.474   4
  -2   1 -15 2788.48 485.154   6
   2   2 -15 2225.76 391.511   6
  -2   2  15 2482.11 454.714   3
  -2   2  15 2643.30 468.306   9
  -2   2  15 2666.85 458.435  10
   2   2 -15 1812.54 432.975   4
   2   2 -14 408.725 171.362   6
  -2   2  14 733.182 288.836   3
  -2   2  14 645.360 242.991  10
  -2   2  14 458.313 193.027   9
   2   2 -14 321.078 255.345   8
   2   2 -14 282.483 198.996   4
   2   2 -13 206.868 158.681   6
  -2   2  13 835.525 281.374   5
  -2   2  13 325.130 208.866   3
  -2   2  13 371.603 213.230  10
   2   2 -13 553.863 246.211   8
  -2   2  13 63.7182 133.046   9
   2   2 -12 2423.57 357.241   6
  -2   2  12 3060.21 469.060   3
  -2   2  12 3493.25 439.963  10
  -2   2  12 2415.63 363.664   9
   2   2 -12 2898.08 469.254   8
  -2   2  12 2783.83 455.696   5
  -2   2  11 1772.46 342.620   3
  -2   2  11 1742.89 315.022  10
  -2   2  11 2004.12 324.129   9
   2   2 -11 1834.00 363.542   8
  -2   2  11 2399.82 383.577   5
   2   2 -11 2082.42 308.253   6
   2   2 -10 1347.78 242.519   6
  -2   2  10 1572.41 294.620   5
  -2   2  10 1408.47 305.524   3
  -2   2  10 1880.64 299.993  10
   2   2 -10 986.269 262.064   8
  -2   2  10 1301.66 252.938   9
   2   2  -9 124.510 100.526   6
  -2   2   9 365.759 162.301   3
  -2   2   9 950.017 236.659   5
  -2   2   9 312.483 137.108  10
  -2   2   9 547.559 170.949   9
   2   2  -9 364.859 167.898   8
  -2   2   8 18755.9 956.626   3
  -2   2   8 19109.0 996.781   5
  -2   2   8 18916.3 873.789  10
  -2   2   8 19844.1 873.920   9
   2   2  -8 18362.8 959.345   8
  -2   2   8 21093.9 831.300   2
   2   2  -8 18756.1 827.454   6
  -2   2   7 192.638 140.721   3
  -2   2   7 341.718 120.773  10
   2   2  -7 623.232 141.508   6
  -2   2   7 515.259 177.880   5
  -2   2   7 345.548 120.094   9
   2   2  -7 724.792 203.432   8
  -2   2   7 514.567 132.570   2
  -2   2   6 37334.1 1340.08   3
  -2   2   6 37225.5 1356.05   5
  -2   2   6 37427.9 1215.50  10
   2   2  -6 39827.2 1351.20   8
  -2   2   6 39731.1 1242.29   2
   2   2  -6 38068.5 1153.89   6
  -2   2   5 3077.40 331.461   3
  -2   2   5 3328.10 354.482   5
   2   2  -5 3032.28 314.130   8
  -2   2   5 3308.22 307.778   2
  -2   2   5 3067.20 282.908  10
   2   2  -5 3027.40 255.210   6
  -2   2   4 216.141 106.536   2
   2   2  -4 374.038 88.6031   6
  -2   2   4 371.325 99.4187  10
  -2   2   4 359.500 121.803   3
   2   2  -4 520.922 127.245  11
  -2   2   4 225.790 109.857   5
   2   2  -4 557.264 136.874   8
  -2   2   3 10347.6 564.884   5
   2   2  -3 9979.28 529.637  11
  -2   2   3 9643.94 466.660  10
   2   2  -3 9895.53 503.458   8
  -2   2   3 9775.69 538.867   2
   2   2  -3 10023.7 399.384   6
  -2   2   3 9561.75 543.002   3
  -2   2   2 94981.5 2350.16   2
  -2   2   2 95418.0 2327.78   5
   2   2  -2 98077.4 2204.18   8
   2   2  -2 95546.8 1996.58   6
  -2   2   2 95473.3 2169.63  10
   2   2  -2 96680.1 2274.90  11
  -2   2   2 95134.5 2352.19   3
  -2   2   1 4943.55 340.213   5
   2   2  -1 5678.96 361.805  11
  -2   2   1 5141.41 281.370   4
   2   2  -1 5751.75 317.236   8
  -2   2   1 5239.24 389.126   2
  -2   2   1 5228.67 355.101   6
   2   2  -1 4890.37 210.869   6
  -2   2   1 5544.99 380.880   3
  -2   2   0 46385.0 1238.59   5
   2   2   0 43231.1 1209.51  11
  -2   2   0 43908.2 1122.59   4
  -2   2   0 43802.0 1329.82   2
   2   2   0 44492.7 1101.53   8
   2   2   0 43967.7 1211.36   3
  -2   2   0 43471.3 1272.61   6
  -2   2   0 43584.7 1283.97   3
  -2   2  -1 1885.93 222.076   6
  -2   2  -1 1933.16 238.339   2
  -2   2  -1 2195.35 201.303   5
   2   2   1 1976.53 206.268  11
  -2   2  -1 1632.02 202.113   3
   2   2   1 1663.35 203.953  10
  -2   2  -1 2027.88 185.149   4
   2   2   1 2043.61 162.041   8
   2   2   1 2080.62 207.154   3
  -2   2  -2 11922.1 469.227   5
   2   2   2 12114.7 525.663  11
  -2   2  -2 12923.8 525.032   4
   2   2   2 11739.7 433.877   8
  -2   2  -2 14306.1 649.203   2
   2   2   2 12175.1 594.645  10
   2   2   2 12055.4 521.654   3
  -2   2  -2 12291.9 564.107   3
  -2   2  -2 13111.9 608.223   6
  -2   2  -3 568.601 138.047   6
  -2   2  -3 445.147 132.776   2
  -2   2  -3 562.849 130.163   3
  -2   2  -3 565.700 86.8496   5
   2   2   3 651.110 158.851  10
   2   2   3 588.666 122.654  11
   2   2   3 377.352 99.1430   3
  -2   2  -3 754.583 136.819   4
   2   2   3 532.873 89.0920   8
  -2   2  -4 15438.4 473.099   5
   2   2   4 15420.8 623.381  11
   2   2   4 15966.0 731.631  10
  -2   2  -4 14877.8 675.746   2
  -2   2  -4 16195.3 697.986   4
   2   2   4 15391.1 554.174   8
   2   2   4 15574.6 626.560   3
  -2   2  -4 16121.5 730.225   6
  -2   2  -5 723.187 150.575   2
  -2   2  -5 946.117 194.897   6
   2   2   5 762.899 144.739  11
   2   2   5 875.811 151.691   3
   2   2   5 778.784 173.644  10
  -2   2  -5 749.823 177.682   4
   2   2   6 3416.48 292.589  11
   2   2   6 3518.13 357.746  10
  -2   2  -6 3212.73 344.318   4
  -2   2  -6 3491.57 305.565   2
  -2   2  -6 3474.56 357.659   6
   2   2   6 3653.78 305.220   3
  -2   2  -7 599.399 181.252   6
   2   2   7 390.512 112.800   3
   2   2   7 330.655 136.169   9
   2   2   7 636.329 177.943  10
  -2   2  -7 606.078 175.226   4
   2   2   7 448.646 126.607  11
  -2   2  -7 647.506 140.729   2
  -2   2  -8 2478.41 336.409   6
   2   2   8 2029.29 309.231  10
   2   2   8 2802.78 361.300   9
   2   2   8 2618.56 281.835  11
  -2   2  -8 2048.54 313.315   4
  -2   2  -9 3158.11 395.488   6
   2   2   9 3105.37 403.058   9
   2   2   9 3484.08 410.440  10
   2   2   9 3071.49 323.044  11
  -2   2  -9 3721.63 445.956   4
  -2   2 -10 509.911 195.720   6
   2   2  10 441.886 149.451  11
   2   2  10 762.107 251.006   9
   2   2  10 353.450 159.929  10
  -2   2 -10 613.927 221.958   4
  -2   2 -11 33.6223 135.039   6
   2   2  11 138.312 141.745  10
  -2   2 -11 33.8864 145.524   4
   2   2  11 143.693 195.214   9
   2   2  12 5396.88 597.111   9
  -2   2 -12 4417.29 573.214   4
   2   2  12 5163.78 578.648  10
  -2   2 -12 5175.24 583.695   6
  -2   2 -13 718.659 271.361   6
   2   2  13 325.165 175.030   9
   2   2  13 622.959 257.041  10
  -2   2 -13 752.606 300.643   4
  -2   2 -14 652.091 275.072   6
   2   2  14 251.816 201.928  10
   2   2  14 583.150 274.155   9
  -2   2 -14 1023.53 333.423   4
   2   3 -14 564.822 216.169   6
  -2   3  14 1115.56 344.042   3
  -2   3  14 330.308 206.819  10
   2   3 -13 1839.14 344.148   6
  -2   3  13 2081.21 420.220   3
  -2   3  13 1631.79 342.605  10
   2   3 -13 1290.25 378.688   8
   2   3 -13 1587.49 356.484   4
   2   3 -12 1516.83 293.176   6
  -2   3  12 2383.32 438.289   3
  -2   3  12 1749.75 338.344  10
   2   3 -12 1323.02 353.083   8
   2   3 -12 1504.40 330.457   4
   2   3 -11 1663.46 293.428   6
  -2   3  11 1844.88 359.314   3
  -2   3  11 1137.28 269.060  10
   2   3 -11 1116.72 308.874   8
   2   3 -10 1196.68 240.098   6
  -2   3  10 948.052 244.989  10
  -2   3  10 1070.23 267.222   3
  -2   3  10 1627.35 350.106   5
   2   3 -10 1417.84 316.564   8
  -2   3   9 3633.31 479.783   5
  -2   3   9 3613.76 461.514   3
  -2   3   9 3618.09 419.489  10
   2   3  -9 4061.01 487.798   8
   2   3  -9 3616.08 387.960   6
  -2   3   8 2314.32 329.857  10
   2   3  -8 2140.62 289.042   6
  -2   3   8 2114.15 366.725   5
  -2   3   8 2749.70 389.734   3
   2   3  -8 2666.48 385.543   8
  -2   3   8 2624.73 326.438   2
  -2   3   7 8192.44 660.895   5
  -2   3   7 7348.14 555.505  10
  -2   3   7 9173.10 607.838   2
   2   3  -7 8012.06 614.185   8
   2   3  -7 8483.89 533.731   6
  -2   3   7 8495.44 657.907   3
  -2   3   6 10028.7 718.843   5
  -2   3   6 11344.7 664.047  10
   2   3  -6 8984.37 609.626   8
  -2   3   6 9387.65 619.503   2
   2   3  -6 9991.97 552.680   6
  -2   3   6 9435.92 677.259   3
  -2   3   5 11116.9 715.910   5
  -2   3   5 11662.6 655.306  10
   2   3  -5 10987.1 646.093   8
  -2   3   5 10379.8 648.252   2
   2   3  -5 10080.7 530.364   6
  -2   3   5 10787.9 702.088   3
   2   3  -4 267.964 89.7147   6
  -2   3   4 171.332 146.278   5
  -2   3   4 299.398 120.938  10
   2   3  -4 329.465 135.608   8
  -2   3   4 380.285 141.717   3
  -2   3   4 135.594 130.423   2
  -2   3   3 6995.49 514.262   2
  -2   3   3 6814.25 454.825  10
   2   3  -3 7172.29 447.488   8
  -2   3   3 6333.17 487.917   5
   2   3  -3 5612.28 432.813  11
   2   3  -3 6903.21 374.628   6
  -2   3   3 6238.62 505.218   3
   2   3  -2 758.778 163.074  11
   2   3  -2 804.851 122.574   6
  -2   3   2 802.852 187.403   3
   2   3  -2 856.280 147.186   8
  -2   3   2 1253.81 192.744  10
  -2   3   2 841.424 188.133   5
  -2   3   2 741.430 180.656   2
  -2   3   1 10879.2 587.015   5
  -2   3   1 9337.45 556.680   6
   2   3  -1 10653.5 471.357   8
   2   3  -1 10142.0 546.169  11
  -2   3   1 10125.3 626.603   2
   2   3  -1 9454.45 401.683   6
  -2   3   1 9583.73 608.966   3
  -2   3   0 966.197 192.930   6
   2   3   0 1707.05 267.594   3
  -2   3   0 1532.55 242.898   3
  -2   3   0 1262.22 186.089   5
  -2   3   0 1052.41 120.105   4
   2   3   0 1403.24 204.399  11
  -2   3   0 1132.73 207.714   2
   2   3   1 10899.7 602.492   3
  -2   3  -1 12387.3 570.858   5
   2   3   1 12477.5 578.893  11
  -2   3  -1 10713.8 651.884   2
  -2   3  -1 12246.9 472.336   4
  -2   3  -1 12173.1 668.404   3
  -2   3  -1 12070.1 651.910   6
  -2   3  -2 462.496 149.306   6
   2   3   2 256.952 118.297   3
  -2   3  -2 979.339 201.779   3
   2   3   2 308.898 113.089  11
  -2   3  -2 382.393 97.5250   5
   2   3   2 335.491 139.805  10
  -2   3  -2 413.686 89.3221   4
  -2   3  -2 468.906 159.429   2
  -2   3  -3 2502.17 303.820   6
   2   3   3 2355.98 319.433  10
   2   3   3 2803.03 259.843  11
  -2   3  -3 2798.03 240.960   4
  -2   3  -3 2855.55 311.877   3
   2   3   3 2953.22 305.057   3
  -2   3  -3 2250.50 289.712   2
  -2   3  -4 918.803 192.968   6
  -2   3  -4 1002.61 197.239   3
  -2   3  -4 961.418 160.170   4
   2   3   4 984.752 221.093  10
   2   3   4 1116.23 201.796   3
   2   3   4 1059.47 164.496  11
  -2   3  -4 732.396 181.509   2
   2   3   5 10815.3 705.781  10
  -2   3  -5 11420.2 660.411   2
   2   3   5 11892.0 564.160  11
  -2   3  -5 11610.0 608.654   4
   2   3   5 11406.3 639.938   3
  -2   3  -5 10825.2 679.684   6
  -2   3  -6 875.533 212.725   6
   2   3   6 332.232 105.152  11
   2   3   6 156.613 129.791  10
  -2   3  -6 333.488 120.762   4
   2   3   6 235.568 109.865   3
  -2   3  -6 840.840 188.422   2
   2   3   7 6799.14 587.308  10
  -2   3  -7 6482.18 512.269   4
  -2   3  -7 6256.55 479.012   2
   2   3   7 7463.02 535.318   3
  -2   3  -7 6296.62 543.660   6
  -2   3  -8 2125.63 338.258   6
   2   3   8 1482.14 289.210  10
  -2   3  -8 1915.88 292.726   4
  -2   3  -9 9583.12 700.827   4
   2   3   9 7500.63 656.897  10
  -2   3  -9 8127.20 668.531   6
  -2   3 -10 2587.25 409.316   6
   2   3  10 3021.15 433.271  10
  -2   3 -10 3624.31 456.298   4
  -2   3 -11 4531.58 543.404   6
   2   3  11 3947.05 523.068  10
  -2   3 -11 3871.24 495.281   4
  -2   3 -12 377.644 221.562   6
   2   3  12 539.517 257.399  10
  -2   3 -12 1004.92 299.664   4
  -2   3 -13 1362.87 348.181   6
   2   3  13 814.684 292.499  10
  -2   4  12 1197.11 353.590   3
  -2   4  12 1164.16 306.583  10
   2   4 -12 1155.53 335.352   8
  -2   4  11-8.65456 139.829  10
   2   4 -11 209.273 205.451   8
  -2   4  10 3249.51 514.285   3
  -2   4  10 3540.05 482.896  10
   2   4 -10 3540.67 494.128   8
  -2   4   9 1232.11 271.775  10
   2   4  -9 882.843 264.571   8
  -2   4   9 993.049 290.602   3
  -2   4   8 1798.23 325.075  10
   2   4  -8 2069.25 353.863   8
  -2   4   8 1679.21 344.656   3
  -2   4   8 2572.17 368.511   2
  -2   4   7 67.0293 150.484   3
  -2   4   7 330.232 166.107  10
   2   4  -7 111.275 141.441   8
  -2   4   7 176.611 149.353   2
  -2   4   6 2168.47 364.396   3
  -2   4   6 2332.09 361.918   2
  -2   4   6 2536.38 367.036  10
  -2   4   5 356.096 157.565  10
  -2   4   5-39.6393 134.479   3
  -2   4   5 286.250 159.908   2
  -2   4   4 4865.92 453.377  10
  -2   4   4 3912.56 445.750   2
  -2   4   4 5070.02 529.662   3
  -2   4   3 920.675 243.176   3
  -2   4   3 1270.91 232.124  10
  -2   4   3 1148.67 266.900   2
   2   4  -2 5427.50 448.090  11
  -2   4   2 6763.58 582.307   2
  -2   4   2 5242.94 520.759   3
   2   4  -1 432.443 177.339   3
   2   4  -1 909.385 178.375  11
  -2   4   1 598.881 213.438   3
  -2   4   1 752.274 211.370   2
   2   4   0 6182.92 455.084  11
  -2   4   0 7981.52 620.714   2
   2   4   0 7356.85 567.868   3
  -2   4   0 6570.73 518.207   6
  -2   4   0 6193.89 545.794   3
  -2   4  -1 191.748 141.930   6
   2   4   1 290.964 169.398   3
  -2   4  -1-54.3489 151.560   3
   2   4   1 160.151 123.304  11
  -2   4  -1 149.431 129.315   2
   2   4   2 12722.8 639.065  11
  -2   4  -2 11204.9 751.811   2
   2   4   2 11551.7 720.640   3
  -2   4  -2 12130.1 759.695   3
  -2   4  -2 11851.9 730.157   6
  -2   4  -3 2015.82 310.564   6
  -2   4  -3 1810.74 302.091   3
   2   4   3 1825.87 291.226   3
   2   4   3 1440.86 280.243  10
  -2   4  -3 1696.09 289.957   2
  -2   4  -4 14522.9 852.694   2
  -2   4  -4 15030.0 860.343   3
   2   4   4 12158.7 824.261  10
   2   4   4 14430.5 818.953   3
  -2   4  -4 14366.5 844.069   6
  -2   4  -5 416.935 197.271   6
   2   4   5 411.644 160.219   3
  -2   4  -5 68.8710 125.551   2
   2   4   5 16.9733 131.588  10
   2   4   6 6098.20 601.126  10
  -2   4  -6 5406.09 506.858   2
   2   4   6 6035.19 536.069   3
  -2   4  -6 6117.70 563.493   6
  -2   4  -7 272.104 207.185   6
   2   4   7 169.270 185.640  10
  -2   4  -7 260.718 144.128   2
  -2   4  -8 3357.26 450.127   6
   2   4   8 3015.78 459.170  10
  -2   4  -9 4250.17 515.521   6
   2   4   9 3461.90 493.091  10
   2   4  10 4726.62 588.973  10
  -2   4 -10 4358.22 549.549   6
  -2   4 -11-239.086 185.659   6
   2   4  11-153.403 206.102  10
  -2   5  10-27.5314 155.675  10
  -2   5   9 645.286 259.286  10
  -2   5   9 850.719 298.942   3
  -2   5   8 3288.81 479.921  10
  -2   5   8 3767.88 563.852   3
  -2   5   7 6465.50 646.625  10
  -2   5   7 7479.74 762.699   3
  -2   5   6 1412.94 348.892   3
  -2   5   6 816.931 246.293  10
  -2   5   5 4201.42 552.478   3
  -2   5   5 5312.12 556.073  10
  -2   5   4 696.891 261.549   3
  -2   5   4 952.893 280.051   2
  -2   5   3 3253.32 483.818   3
  -2   5   3 4315.53 523.916   2
  -2   5   2 794.849 251.604   3
  -2   5   2 773.886 254.717   2
  -2   5   1 5771.61 620.193   2
  -2   5   1 7313.18 677.997   3
   2   5   0-63.7274 127.447   3
  -2   5   0-71.0421 148.691   3
  -2   5   0 77.6572 161.499   2
  -2   5  -1 1993.01 323.636   6
   2   5   1 2166.60 363.248   3
  -2   5  -1 2455.83 387.219   3
  -2   5  -1 2259.56 386.744   2
  -2   5  -2 204.655 176.520   6
  -2   5  -2 25.9937 143.055   3
  -2   5  -2 126.440 177.773   2
  -2   5  -3 3662.74 452.880   6
  -2   5  -3 4030.77 490.811   3
  -2   5  -3 3179.16 443.836   2
   2   5   3 4212.16 485.531   3
  -2   5  -4 1785.18 328.704   6
  -2   5  -4 1526.02 314.810   3
   2   5   4 1888.14 350.573   3
   2   5   4 1936.57 380.244  10
  -2   5  -4 1951.09 360.010   2
  -2   5  -5 108.249 144.959   6
   2   5   5 93.1864 122.427   3
   2   5   5 87.3194 158.594  10
  -2   5  -6 59.1216 153.721   6
   2   5   6 144.015 161.428  10
   2   5   7 5915.91 681.803  10
  -2   5  -7 6904.29 673.108   6
  -2   5  -8 3248.04 482.746   6
   2   5   8 3602.78 532.835  10
  -2   5  -9 2910.05 469.892   6
   2   5   9 2819.72 489.598  10
  -2   6   7 225.043 202.041  10
  -2   6   5 1068.70 354.968   3
  -2   6   4 2076.82 431.964   3
  -2   6   3 1581.60 388.436   3
  -2   6   2 7391.79 773.540   3
  -2   6   1 482.852 269.180   3
   2   6   0 8412.77 791.573   3
  -2   6   0 9062.69 825.372   3
   2   6   1 656.718 257.387   3
  -2   6  -1 474.091 254.478   3
  -2   6  -2 1955.07 370.762   6
   2   6   2 2776.88 451.947   3
  -2   6  -2 2648.05 459.307   3
  -2   6  -3 230.754 173.166   6
  -2   6  -3 383.479 223.471   3
   2   6   3 126.018 131.882   3
  -2   6  -4 2968.90 459.490   6
  -2   6  -4 3420.88 515.087   3
   2   6   4 3515.65 505.260   3
  -2   6  -5 215.187 165.142   6
   3  -6  -5 1069.82 317.256   1
   3  -6  -4 3526.63 510.602   1
  -3  -6   3 335.050 255.016   9
   3  -6  -3 434.263 229.627   1
  -3  -6   2 629.123 259.715   1
  -3  -6   1 1027.97 306.882   1
  -3  -6   0 2548.38 442.199   1
   3  -6   0 2591.04 421.509   7
  -3  -6  -1 9.12262 167.919   1
   3  -6   1 93.7646 129.774   7
  -3  -6  -2 2601.61 474.797   1
  -3  -6  -3 1842.71 410.173   1
  -3  -5   9 1552.53 360.377   9
  -3  -5   8 3216.35 520.524   9
   3  -5  -8 4407.99 589.304   1
  -3  -5   7 4879.76 607.660   9
   3  -5  -7 4388.91 571.884   1
  -3  -5   6 923.309 277.056   9
   3  -5  -6 1016.63 320.048   1
  -3  -5   5 2355.76 425.514   9
   3  -5  -5 3225.87 457.022   1
  -3  -5   4 704.711 194.193   1
  -3  -5   4 475.087 236.564   9
   3  -5  -4 241.520 168.367   1
  -3  -5   3 3277.00 434.686   1
  -3  -5   3 3399.69 473.972   9
   3  -5  -3 2907.01 414.587   1
  -3  -5   2 1433.45 289.063   1
  -3  -5   2 1241.93 293.808   5
   3  -5  -2 1467.93 292.841   1
  -3  -5   1 7288.69 665.309   1
   3  -5  -1 7030.12 603.939   7
   3  -5  -1 7164.89 607.845   1
  -3  -5   0 432.495 212.665   1
   3  -5   0 187.372 153.334   7
  -3  -5  -1 4577.39 536.576   1
   3  -5   1 3925.42 476.466   7
  -3  -5  -2 1611.49 357.732   1
   3  -5   2 946.022 280.589   7
   3  -5   3 13362.4 929.533   7
  -3  -5  -3 13922.4 972.445   1
   3  -5   4 1713.46 338.861   9
  -3  -5  -4 1403.02 336.786   1
   3  -5   4 939.901 253.676   7
   3  -5   5 3532.17 465.410   9
  -3  -5  -5 2909.01 479.503   1
   3  -5   5 3729.46 513.177   7
   3  -5   6 375.272 220.635   9
  -3  -5  -6 351.981 236.471   1
   3  -5   6 157.012 170.000   7
   3  -5   7 3353.21 490.389   9
  -3  -5  -7 2778.64 476.715   1
   3  -5   8 543.371 240.533   9
  -3  -5  -8 198.282 184.262   1
   3  -5   9 3466.27 551.212   9
  -3  -4  12 1993.92 431.897   9
   3  -4 -11 1001.02 298.942   1
  -3  -4  11 1436.45 351.439   9
   3  -4 -10 1309.44 346.101   1
  -3  -4  10 831.947 274.948   9
   3  -4  -9 607.378 267.746   1
  -3  -4   9 20.4011 180.121   9
  -3  -4   8 291.235 164.962   9
   3  -4  -8 343.703 210.313   1
   3  -4  -7 1306.50 298.566   1
  -3  -4   7 1931.61 357.676   9
   3  -4  -6 3846.68 483.899   1
  -3  -4   6 3872.74 477.794   9
   3  -4  -5 1941.44 336.176   1
  -3  -4   5 2321.99 356.958   9
  -3  -4   5 1784.71 296.842   1
   3  -4  -4 6570.17 579.797   1
  -3  -4   4 7021.88 570.202   5
  -3  -4   4 5586.21 519.849   1
  -3  -4   4 6833.45 614.895   9
  -3  -4   3 368.544 159.957   1
   3  -4  -3 410.211 202.277   1
  -3  -4   3 274.633 147.367   5
   3  -4  -3 342.314 155.278   7
   3  -4  -2 3143.86 369.177   1
  -3  -4   2 3525.34 419.208   1
  -3  -4   2 2999.79 394.235   5
   3  -4  -2 3677.72 377.093   7
  -3  -4   1 485.288 199.988   1
   3  -4  -1 73.1603 89.8774   1
   3  -4  -1 300.241 154.744   7
   3  -4   0 6508.28 498.985   9
  -3  -4   0 5775.46 549.035   1
   3  -4   0 5832.83 514.543   7
   3  -4   0 5272.61 452.347   1
  -3  -4  -1 65.7698 163.106   1
   3  -4   1-55.4150 110.089   9
   3  -4   1 105.297 92.5846   8
   3  -4   1-31.7528 119.895   7
   3  -4   2 1851.57 273.498   9
  -3  -4  -2 1599.82 310.820   1
   3  -4   2 2073.36 287.781   8
   3  -4   2 1805.78 313.116   7
   3  -4   3 160.072 133.212   9
  -3  -4  -3 72.8856 160.795   1
   3  -4   3 204.193 130.701   8
   3  -4   3-6.54970 111.312   7
   3  -4   4 137.237 96.5338  11
   3  -4   4 312.297 139.710   9
  -3  -4  -4 220.888 164.329   1
   3  -4   5 934.467 215.530  11
   3  -4   5 768.688 227.866   9
  -3  -4  -5 1142.27 287.378   1
   3  -4   5 1039.97 266.743   7
   3  -4   6 4371.98 499.711   9
   3  -4   6 6840.89 586.859  11
  -3  -4  -6 5974.24 607.950   1
   3  -4   6 6500.24 636.822   7
  -3  -4  -7 14.0519 155.325   1
   3  -4   7 70.5541 144.123   7
   3  -4   8 2494.85 415.124   9
  -3  -4  -8 2289.90 396.823   1
   3  -4   8 3317.06 466.566   7
   3  -4   9 132.171 178.087   9
  -3  -4  -9 513.264 260.721   1
   3  -4   9 254.420 175.413   7
   3  -4  10 1638.24 379.297   9
  -3  -4 -10 1155.10 310.098   1
   3  -4  11 1141.57 358.198   9
  -3  -4 -11 1133.46 323.043   1
   3  -4  11 829.879 305.004  11
   3  -3 -13 472.435 213.883   1
  -3  -3  13 254.411 207.659   3
  -3  -3  13 282.940 212.351   9
   3  -3 -12 330.598 196.559   1
  -3  -3  12 438.357 208.651   9
  -3  -3  11 896.224 266.735   9
   3  -3 -11 269.878 175.762   1
   3  -3 -10 2191.30 383.229   1
  -3  -3  10 1701.12 335.881   9
   3  -3  -9 11091.8 810.579   1
  -3  -3   9 9482.44 745.572   9
  -3  -3   8 2370.71 363.094   9
   3  -3  -8 2723.88 399.116   1
   3  -3  -7 3478.65 427.796   1
  -3  -3   7 4329.60 461.524   9
  -3  -3   6 2061.09 274.072   5
   3  -3  -6 2460.78 363.868   1
  -3  -3   6 2167.78 326.117   9
   3  -3  -6 2751.19 308.907   8
   3  -3  -5 3838.23 429.353   1
  -3  -3   5 4280.75 402.371   5
  -3  -3   5 4166.27 420.709   9
   3  -3  -5 4142.37 370.669   8
   3  -3  -4 2005.98 306.721   1
  -3  -3   4 2764.07 331.544   1
  -3  -3   4 2759.29 332.240   5
  -3  -3   4 2355.73 320.939   9
   3  -3  -4 2222.02 261.825   8
   3  -3  -4 2653.04 261.516   7
   3  -3  -3 10109.4 647.490   1
  -3  -3   3 10496.8 663.900   1
  -3  -3   3 10813.1 661.798   9
   3  -3  -3 10854.7 594.700   8
  -3  -3   3 11549.3 688.552   5
   3  -3  -3 11714.9 591.321   7
  -3  -3   2 2346.83 319.867   5
  -3  -3   2 2706.05 337.932   1
   3  -3  -2 2758.90 321.922   1
   3  -3  -2 2428.93 266.333   8
   3  -3  -2 2505.54 282.361   7
   3  -3  -1 10308.6 597.441   1
  -3  -3   1 9893.39 650.575   5
  -3  -3   1 10145.8 506.134   4
   3  -3  -1 9050.65 541.630   8
  -3  -3   1 10531.1 659.619   1
   3  -3  -1 10845.2 613.786   7
  -3  -3   0 1796.47 302.359   1
   3  -3   0 1465.19 215.463   1
   3  -3   0 1044.92 169.467   9
  -3  -3   0 1584.23 204.229   4
   3  -3   0 1293.65 163.345  11
   3  -3   0 1404.99 214.265   8
   3  -3   0 1012.88 202.488   7
   3  -3   1 11206.2 578.700   1
  -3  -3  -1 10725.6 543.957   4
   3  -3   1 11615.3 546.250  11
  -3  -3  -1 11635.9 710.973   1
   3  -3   1 11028.2 578.389   9
   3  -3   1 10301.1 605.081   8
   3  -3   1 11378.4 662.109   7
   3  -3   2 2567.96 256.084   1
   3  -3   2 3287.27 345.930   8
   3  -3   2 2844.66 278.153  11
  -3  -3  -2 2868.25 283.881   4
  -3  -3  -2 2254.59 330.272   1
   3  -3   2 2740.95 288.858   9
   3  -3   2 2928.99 342.522   7
   3  -3   3 13939.0 688.891  11
   3  -3   3 13529.0 706.143   9
  -3  -3  -3 12911.4 659.059   4
  -3  -3  -3 13814.2 799.326   1
   3  -3   3 12892.3 758.310   7
   3  -3   4 3006.19 343.480   9
  -3  -3  -4 1960.95 269.874   4
  -3  -3  -4 2824.30 371.730   1
   3  -3   4 2275.42 289.810  11
   3  -3   4 2006.51 304.764   7
   3  -3   5 13936.7 774.282  11
   3  -3   5 13428.9 775.318   9
  -3  -3  -5 14264.9 843.230   1
  -3  -3  -5 13484.4 743.805   4
   3  -3   5 14814.0 853.763   7
   3  -3   6 449.492 169.605  11
   3  -3   6 370.555 170.074   9
  -3  -3  -6 392.369 152.086   4
  -3  -3  -6 285.574 164.772   1
   3  -3   6 599.063 212.994   7
   3  -3   7 1454.67 298.894   9
   3  -3   7 1617.90 290.549  11
  -3  -3  -7 1453.85 290.454   1
  -3  -3  -7 1335.10 259.555   4
   3  -3   7 1947.97 339.031   7
   3  -3   8 351.402 168.153  11
   3  -3   8 396.673 212.462   9
  -3  -3  -8 356.630 182.731   4
  -3  -3  -8 651.333 229.324   1
   3  -3   8 44.9940 125.744   7
  -3  -3  -9 2772.14 396.687   1
  -3  -3  -9 2612.18 398.746   4
   3  -3   9 3163.41 443.275  11
   3  -3   9 2023.11 363.644   9
   3  -3   9 3048.10 443.600   7
   3  -3  10 335.567 194.180  11
   3  -3  10 316.448 200.710   9
  -3  -3 -10 598.884 219.309   4
  -3  -3 -10 701.352 230.624   1
   3  -3  10 279.976 187.271   7
   3  -3  11 2867.17 465.369  11
   3  -3  11 3483.63 534.323   9
  -3  -3 -11 3932.26 490.067   1
  -3  -3 -11 2431.26 414.567   4
   3  -3  11 3751.25 498.331   7
   3  -3  12 182.033 226.182   9
  -3  -3 -12 234.147 174.395   4
   3  -3  12 169.082 200.882  11
   3  -3  12 22.7623 157.722   7
   3  -3  13 573.825 299.920   9
  -3  -3 -13 265.612 183.133   4
  -3  -2  15 1406.50 367.235   9
   3  -2 -14 1079.80 296.583   1
  -3  -2  14 1291.09 379.593   3
  -3  -2  14 1204.60 336.543   9
  -3  -2  13 4291.02 572.317   9
  -3  -2  13 4915.81 603.840   3
   3  -2 -13 4678.72 546.293   1
   3  -2 -12 6049.20 600.839   1
  -3  -2  12 5614.49 600.522   3
   3  -2 -12 4963.09 578.829   8
  -3  -2  12 4035.32 530.060   9
   3  -2 -11 1370.39 298.516   1
  -3  -2  11 1617.30 342.088   9
  -3  -2  11 1308.75 309.563   3
   3  -2 -11 1507.32 323.653   8
   3  -2 -10 1204.02 282.245   1
  -3  -2  10 1162.14 255.896   9
  -3  -2  10 291.254 153.483   3
   3  -2 -10 484.366 215.595   8
  -3  -2   9 3069.37 388.451   9
   3  -2  -9 3570.00 422.564   8
   3  -2  -9 3665.94 426.616   1
   3  -2  -8 704.979 208.383   1
  -3  -2   8 896.218 188.492   5
  -3  -2   8 937.939 242.700   9
   3  -2  -8 1272.84 243.723   8
   3  -2  -7 35788.7 1389.96   1
  -3  -2   7 35024.0 1246.96   5
  -3  -2   7 37163.3 1343.10   9
   3  -2  -7 37127.3 1339.56   8
   3  -2  -6 11959.1 720.289   1
  -3  -2   6 11214.1 634.317   5
   3  -2  -6 11102.7 640.540   8
  -3  -2   6 12177.0 671.097   9
  -3  -2   5 2394.42 289.585   5
  -3  -2   5 2241.30 278.516   9
   3  -2  -5 2015.21 296.580   1
   3  -2  -5 2032.05 261.559   8
  -3  -2   4 3915.91 341.758   9
   3  -2  -4 3575.87 331.126   8
  -3  -2   4 3812.30 357.750   5
   3  -2  -4 3454.54 265.626   7
   3  -2  -3 2016.80 165.149  11
  -3  -2   3 2168.22 279.471   5
  -3  -2   3 2083.96 240.194   9
   3  -2  -3 2439.24 268.130   8
   3  -2  -3 2421.32 233.173   7
   3  -2  -2 8618.25 507.893   8
  -3  -2   2 7915.73 525.549   5
  -3  -2   2 8346.06 470.594   4
  -3  -2   2 8918.22 549.027   1
   3  -2  -2 9134.27 378.312  11
  -3  -2   1 4649.08 399.259   5
   3  -2  -1 3888.92 253.339  11
  -3  -2   1 3593.60 302.060   4
  -3  -2   1 4022.45 377.302   1
   3  -2  -1 3692.51 320.541   8
   3  -2   0 2125.23 191.456   9
  -3  -2   0 1710.61 214.158   4
  -3  -2   0 2412.79 296.507   1
  -3  -2   0 2040.65 286.451   5
   3  -2   0 2001.13 195.513  11
   3  -2   0 1629.88 223.480   8
   3  -2   1 2890.38 253.434  11
   3  -2   1 2839.55 233.718   9
  -3  -2  -1 2369.18 257.058   4
  -3  -2  -1 2980.44 320.722   1
   3  -2   1 2576.44 280.244   8
   3  -2   2 20173.1 783.822  11
  -3  -2  -2 19675.5 820.791   4
  -3  -2  -2 21629.9 919.326   1
   3  -2   2 21722.7 904.199   8
   3  -2   2 21599.8 766.000   9
   3  -2   3 4154.67 347.483  11
   3  -2   3 4946.78 355.007   9
  -3  -2  -3 4519.83 386.864   4
  -3  -2  -3 5656.76 443.567   1
  -3  -2  -4 7059.40 512.976   1
   3  -2   4 6232.72 453.872  11
   3  -2   4 7131.95 462.269   9
  -3  -2  -4 7706.88 534.902   4
   3  -2   5 462.844 148.657  11
   3  -2   5 354.874 144.065   9
  -3  -2  -5 443.369 151.188   1
  -3  -2  -5 572.196 161.452   4
   3  -2   6 4907.90 445.196  11
  -3  -2  -6 4823.43 438.241   1
  -3  -2  -6 4924.58 467.713   4
   3  -2   6 4900.34 440.252   9
   3  -2   7 291.691 158.892  11
   3  -2   7-83.1412 140.044   9
  -3  -2  -7 454.514 177.533   1
  -3  -2  -7 335.439 170.423   4
   3  -2   7 373.104 194.374   7
   3  -2   8 29982.7 1287.47  11
   3  -2   8 27549.2 1257.64   9
  -3  -2  -8 27103.8 1264.44   4
  -3  -2  -8 28874.8 1192.00   1
   3  -2   8 28466.2 1244.80   7
   3  -2   9 5614.13 546.401  11
   3  -2   9 5467.07 556.109   9
  -3  -2  -9 4676.66 524.768   4
  -3  -2  -9 4395.48 448.677   1
   3  -2   9 5103.63 512.340   7
   3  -2  10 3470.82 467.320  11
   3  -2  10 3804.45 487.891   9
  -3  -2 -10 4386.75 532.192   4
   3  -2  10 4759.61 511.466   7
   3  -2  11 449.088 225.032  11
   3  -2  11 463.125 252.458   9
  -3  -2 -11 502.855 265.430   4
   3  -2  11 417.637 194.929   7
   3  -2  12 2922.62 489.060   9
  -3  -2 -12 2630.77 492.056   4
   3  -2  12 2634.50 435.921  11
   3  -2  12 2675.12 421.249   7
   3  -2  13 1353.29 346.419  11
   3  -2  13 1147.43 370.391   9
  -3  -2 -13 431.899 233.977   4
   3  -2  14 1764.38 427.597   9
   3  -1 -15 855.703 310.149   8
  -3  -1  15 940.040 326.492   9
  -3  -1  14 1079.75 312.100   9
  -3  -1  14 1307.18 359.237   3
   3  -1 -14 1493.32 376.237   8
   3  -1 -13 210.679 151.859   1
  -3  -1  13-0.57047 136.709   9
   3  -1 -13 176.197 188.583   8
  -3  -1  12 1973.68 378.175   3
  -3  -1  12 1890.73 356.741   9
   3  -1 -12 1362.58 368.683   8
   3  -1 -12 1619.48 295.048   1
   3  -1 -11 3131.49 396.003   1
  -3  -1  11 2559.61 390.884   9
  -3  -1  11 3025.71 435.338   3
   3  -1 -11 2552.76 412.329   8
  -3  -1  10 2084.13 331.663   9
  -3  -1  10 3010.54 402.479   3
   3  -1 -10 2648.99 379.412   8
  -3  -1  10 1991.45 288.932   5
   3  -1 -10 2538.63 353.728   1
  -3  -1   9 8831.35 639.518   3
  -3  -1   9 8994.02 594.830   5
   3  -1  -9 7983.55 636.380   8
  -3  -1   9 9432.49 634.462   9
  -3  -1   8 9157.82 633.625   3
  -3  -1   8 9184.43 585.472   5
  -3  -1   8 9189.39 595.807   9
   3  -1  -8 9156.98 647.525   8
  -3  -1   8 10745.2 529.211   2
  -3  -1   7 6919.38 502.667   3
  -3  -1   7 6969.23 492.345   5
  -3  -1   7 7016.37 484.753   9
  -3  -1   7 7387.27 438.292   2
   3  -1  -7 8088.56 567.064   8
   3  -1  -6 2135.78 218.966  11
  -3  -1   6 2419.05 288.379   5
  -3  -1   6 2160.76 250.307   9
  -3  -1   6 2045.12 263.807   3
   3  -1  -6 2048.59 287.041   8
  -3  -1   5 12430.0 612.477   3
   3  -1  -5 11607.9 512.709  11
  -3  -1   5 11050.8 541.364   9
   3  -1  -5 11128.2 616.603   8
  -3  -1   5 12291.3 643.637   5
   3  -1  -4 3408.49 250.646  11
  -3  -1   4 3198.40 259.003   9
   3  -1  -4 3986.84 341.031   8
  -3  -1   4 3920.54 342.832   5
   3  -1  -3 10092.0 438.818  11
  -3  -1   3 9870.68 556.143   5
  -3  -1   3 9613.18 441.728   9
   3  -1  -3 10633.0 555.193   8
   3  -1  -2 6055.42 326.584  11
  -3  -1   2 5933.57 430.317   5
  -3  -1   2 6714.88 411.320   4
  -3  -1   2 5951.39 314.185   9
   3  -1  -2 6090.89 410.348   8
  -3  -1   1 24319.9 919.812   5
  -3  -1   1 23405.0 854.882   4
   3  -1  -1 24411.3 885.489   8
   3  -1  -1 23642.2 754.158  11
   3  -1   0 1520.13 177.563  11
  -3  -1   0 1913.18 253.517   5
   3  -1   0 1249.29 84.7715   9
  -3  -1   0 1593.47 217.051   4
   3  -1   0 1434.16 200.367   8
  -3  -1   0 1398.29 249.853   1
  -3  -1  -1 18073.3 774.444   5
   3  -1   1 17744.2 667.423  11
  -3  -1  -1 16999.1 723.718   4
  -3  -1  -1 17744.6 744.753   1
   3  -1   1 17291.0 737.581   8
   3  -1   1 16603.6 502.641   9
   3  -1   2 9518.23 491.824  11
  -3  -1  -2 10682.8 549.589   1
  -3  -1  -2 9879.31 556.090   5
   3  -1   2 9530.77 542.045   8
   3  -1   2 9284.38 397.128   9
  -3  -1  -2 9574.45 543.079   4
  -3  -1  -2 9203.21 318.075   6
   3  -1   3 42182.9 1267.64  11
   3  -1   3 40790.6 1151.01   9
  -3  -1  -3 39818.4 1330.58   4
  -3  -1  -3 44638.2 1306.87   1
  -3  -1  -3 40951.1 1026.94   6
   3  -1   4 9147.63 525.979  11
   3  -1   4 8487.32 475.035   9
  -3  -1  -4 8980.73 574.912   4
  -3  -1  -4 8958.50 513.624   1
  -3  -1  -4 8733.63 396.256   6
   3  -1   5 18617.1 831.073  11
   3  -1   5 19441.3 824.632   9
  -3  -1  -5 18422.4 897.043   4
  -3  -1  -5 20679.0 827.531   1
  -3  -1  -5 21032.7 721.910   6
  -3  -1  -6 791.750 141.930   6
   3  -1   6 914.526 197.131  11
  -3  -1  -6 1457.08 196.482   2
   3  -1   6 711.792 178.351   9
  -3  -1  -6 871.862 181.792   1
  -3  -1  -6 909.805 211.490   4
  -3  -1  -7 2633.97 288.336   1
   3  -1   7 2913.92 355.228   9
  -3  -1  -7 3245.71 392.812   4
   3  -1   7 3027.70 360.027  11
  -3  -1  -7 3274.55 280.611   2
  -3  -1  -7 3221.96 305.346   6
  -3  -1  -8 727.513 170.311   6
   3  -1   8 841.968 221.079   9
  -3  -1  -8 1027.92 185.931   1
   3  -1   8 842.529 217.934  11
  -3  -1  -8 680.904 216.929   4
   3  -1   9 6897.82 578.031  11
   3  -1   9 6379.87 593.441   9
  -3  -1  -9 6770.20 646.272   4
  -3  -1  -9 6941.46 516.921   6
  -3  -1 -10-21.7261 111.536   6
   3  -1  10 116.743 139.533   9
  -3  -1 -10 55.4884 170.660   4
   3  -1  10 404.100 178.343  11
  -3  -1 -11 2532.54 348.990   6
   3  -1  11 2547.34 386.923  11
   3  -1  11 2362.08 419.648   9
  -3  -1 -11 2667.63 448.202   4
  -3  -1 -12-41.5216 103.962   6
   3  -1  12 488.467 273.390   9
  -3  -1 -12 147.580 199.564   4
   3  -1  12 210.339 203.715  11
  -3  -1 -13 805.758 237.391   6
   3  -1  13 1357.84 344.894  11
   3  -1  13 459.484 274.846   9
  -3  -1 -13 1074.25 351.234   4
  -3  -1 -14 447.241 197.674   6
   3  -1  14 1055.81 334.074  11
   3  -1  14 833.727 328.523   9
  -3  -1 -14 23.0984 188.344   4
  -3  -1 -15 1401.53 340.441   6
  -3   0  15 2662.83 485.227   3
   3   0 -15 1185.09 363.989   8
  -3   0  14 1858.39 405.790   3
  -3   0  14 879.094 280.454   9
   3   0 -14 1330.01 410.050   8
  -3   0  13-145.847 179.890   3
  -3   0  13 11.2545 141.155   9
  -3   0  12 5372.13 590.235   3
  -3   0  12 4179.81 468.780   5
   3   0 -12 4903.36 477.942   1
  -3   0  12 3700.26 466.449   9
   3   0 -12 4844.65 584.622   8
  -3   0  11 2153.83 342.488   5
  -3   0  11 2257.48 374.915   3
  -3   0  11 2038.78 332.266   9
   3   0 -11 2120.91 383.897   8
  -3   0  10 248.948 135.639   5
  -3   0  10 205.439 146.333   3
  -3   0  10 458.113 183.570   9
   3   0 -10 511.107 204.320   8
  -3   0   9 633.538 172.539   9
  -3   0   9 503.265 174.041   5
   3   0  -9 372.475 188.517   8
  -3   0   9 607.779 187.911   3
  -3   0   8 4517.17 434.069   3
  -3   0   8 4099.83 401.419   5
   3   0  -8 4718.44 462.161   8
  -3   0   8 4301.96 382.350   9
  -3   0   8 4653.52 342.957   2
  -3   0   7 50.2394 87.9390   5
  -3   0   7 35.8498 70.5077   2
  -3   0   7 47.0575 108.395   3
  -3   0   7-0.23480 85.8489   9
   3   0  -7-8.58775 104.346   8
  -3   0   6 2992.23 309.233   3
  -3   0   6 3094.95 330.602   5
   3   0  -6 2638.29 286.575  11
  -3   0   6 2649.74 248.267   9
   3   0  -6 2396.99 301.367   8
  -3   0   6 2670.67 257.549   2
  -3   0   5 13126.9 630.398   3
  -3   0   5 12080.2 638.355   5
  -3   0   5 11969.9 496.598   9
   3   0  -5 11402.3 626.941   8
   3   0  -5 11359.2 571.964  11
  -3   0   5 12030.6 567.071   2
  -3   0   4 17097.5 679.884   3
  -3   0   4 15102.7 515.804   9
   3   0  -4 15253.7 700.116   8
   3   0  -4 14593.4 632.422  11
  -3   0   4 15087.2 708.168   5
  -3   0   4 15599.4 657.953   2
   3   0  -3 811.749 139.021  11
  -3   0   3 697.228 141.887   2
  -3   0   3 594.283 125.313   3
  -3   0   3 588.954 80.1179   9
  -3   0   3 741.330 160.984   5
   3   0  -3 638.384 150.998   8
  -3   0   2 6812.90 349.974   3
  -3   0   2 6307.18 421.104   5
   3   0  -2 5986.33 356.478  11
  -3   0   2 6139.43 197.570   9
  -3   0   2 6925.78 415.486   4
   3   0  -2 7012.99 434.287   8
  -3   0   2 6703.74 409.246   2
  -3   0   1 4845.74 266.580   3
   3   0  -1 5036.26 327.351  11
  -3   0   1 5509.82 384.026   5
  -3   0   1 5070.11 358.987   4
   3   0  -1 5201.16 363.941   8
  -3   0   1 5416.14 356.932   2
  -3   0   0 18297.4 533.156   3
  -3   0   0 19326.0 751.086   5
   3   0   0 18612.6 684.045  11
  -3   0   0 19498.0 755.943   4
   3   0   0 19412.6 743.036   8
  -3   0   0 19354.5 722.985   2
  -3   0   0 18518.2 558.212   6
  -3   0  -1 3446.05 311.019   4
  -3   0  -1 3020.75 274.696   5
   3   0   1 3190.02 145.748  10
   3   0   1 2875.40 272.081   8
   3   0   1 2921.05 256.442  11
  -3   0  -1 3373.05 279.923   2
  -3   0  -1 3242.50 211.681   6
  -3   0  -1 3035.13 141.672   3
  -3   0  -2 373.600 81.5771   6
   3   0   2 392.232 119.159  11
  -3   0  -2 452.789 116.493   2
   3   0   2 411.371 71.3377  10
   3   0   2 227.424 69.2243   9
  -3   0  -2 393.483 133.997   4
  -3   0  -2 372.361 115.809   5
   3   0   2 562.551 142.025   8
   3   0   3 4757.18 306.414   9
  -3   0  -3 4670.88 344.320   5
  -3   0  -3 4765.57 393.510   4
   3   0   3 5036.71 385.177   8
   3   0   3 4862.52 355.887  11
  -3   0  -3 4716.47 331.872   2
  -3   0  -3 4873.57 300.297   6
   3   0   4 3274.23 308.343  11
  -3   0  -4 3056.78 279.143   5
   3   0   4 2865.53 265.441   9
  -3   0  -4 3092.25 255.647   1
  -3   0  -4 3256.74 346.084   4
  -3   0  -4 3488.70 283.880   2
  -3   0  -4 2883.64 248.759   6
   3   0   5 3123.46 313.548  11
  -3   0  -5 3280.58 293.013   5
   3   0   5 3176.99 308.152   9
  -3   0  -5 3328.65 267.272   1
  -3   0  -5 3644.76 380.049   4
  -3   0  -5 3027.11 266.910   2
  -3   0  -5 3187.21 278.989   6
   3   0   6 16406.3 787.364   9
  -3   0  -6 15818.2 854.378   4
  -3   0  -6 16677.0 661.571   1
   3   0   6 16432.5 792.394  11
  -3   0  -6 17174.2 720.156   5
  -3   0  -6 16652.3 673.291   2
  -3   0  -6 16705.9 726.219   6
  -3   0  -7 1711.26 240.835   6
  -3   0  -7 1602.67 195.978   2
   3   0   7 1628.48 264.853  11
  -3   0  -7 2353.69 262.720   5
   3   0   7 1825.48 278.328   9
  -3   0  -7 1429.67 286.161   4
  -3   0  -8 1604.96 251.283   6
   3   0   8 1582.84 265.105  11
   3   0   8 1274.33 257.462   9
  -3   0  -8 1039.44 265.940   4
  -3   0  -9 34.5974 99.3676   6
   3   0   9 84.7519 121.251  11
   3   0   9 3.45054 131.125   9
  -3   0  -9 184.172 159.969   4
  -3   0 -10 2168.60 319.041   6
   3   0  10 1875.64 313.971  11
   3   0  10 2380.59 395.814   9
  -3   0 -10 2106.18 385.075   4
  -3   0 -11 3445.73 420.371   6
   3   0  11 3768.68 453.300  11
   3   0  11 3641.15 499.685   9
  -3   0 -11 3511.64 506.405   4
   3   0  12 6936.23 714.726   9
  -3   0 -12 8262.16 814.738   4
   3   0  12 8468.76 716.951  11
  -3   0 -12 7974.66 671.519   6
  -3   0 -13 174.127 173.048   6
   3   0  13-135.072 159.250  11
   3   0  13 262.496 237.996   9
  -3   0 -13-155.826 205.616   4
  -3   0 -14 3586.14 500.127   6
   3   0  14 3870.93 521.620  11
   3   0  14 3516.78 560.025   9
  -3   0 -14 2953.04 535.749   4
   3   1 -15 1251.43 303.227   6
  -3   1  14 1377.69 355.242   3
   3   1 -14 957.899 318.894   8
  -3   1  13 248.801 174.317   5
  -3   1  13 73.8742 139.214   3
   3   1 -13 298.599 206.935   8
  -3   1  12 1951.10 348.560   5
  -3   1  12 2312.50 405.140   3
   3   1 -12 2105.78 408.397   8
  -3   1  11 2521.92 392.484   5
  -3   1  11 2449.75 393.169   3
  -3   1  11 2204.07 332.906   9
   3   1 -11 2212.21 402.247   8
  -3   1  10 2661.90 395.068   3
  -3   1  10 2198.81 306.813   9
   3   1 -10 2380.29 398.712   8
  -3   1  10 2710.80 379.038   5
  -3   1   9 9880.24 698.402   3
  -3   1   9 8238.44 641.433   5
  -3   1   9 8510.88 562.594   9
   3   1  -9 8492.18 670.048   8
  -3   1   8 9860.65 667.014   3
  -3   1   8 10173.1 675.622   5
   3   1  -8 9357.86 673.745   8
  -3   1   8 10852.8 588.458   9
  -3   1   8 9872.79 541.560   2
  -3   1   7 7927.74 562.306   3
  -3   1   7 7199.40 549.198   5
  -3   1   7 7487.54 442.917   9
   3   1  -7 7158.96 551.559   8
  -3   1   7 7309.90 461.436   2
   3   1  -6 1637.72 248.943  11
  -3   1   6 2753.71 239.563   9
  -3   1   6 1833.70 274.647   5
  -3   1   6 2440.53 302.077   3
  -3   1   6 2629.19 277.315   2
   3   1  -6 2290.74 302.426   8
  -3   1   5 11313.3 624.686   3
  -3   1   5 12247.1 667.992   5
  -3   1   5 12025.2 507.148  10
   3   1  -5 12330.0 657.181   8
   3   1  -5 11401.2 609.102  11
  -3   1   5 11288.8 584.896   2
  -3   1   5 11525.7 470.143   9
  -3   1   4 4134.89 346.957   3
  -3   1   4 3566.52 346.353   5
   3   1  -4 3585.25 324.570  11
  -3   1   4 3894.23 240.183  10
  -3   1   4 3549.14 213.112   9
   3   1  -4 3272.46 321.661   8
  -3   1   4 3644.42 318.190   2
  -3   1   3 10008.0 513.655   3
   3   1  -3 10106.4 532.429  11
  -3   1   3 9740.38 363.977  10
   3   1  -3 10204.9 543.270   8
  -3   1   3 11035.9 587.564   5
  -3   1   3 10248.7 549.574   2
  -3   1   2 5580.69 355.034   3
  -3   1   2 5733.32 404.890   5
   3   1  -2 6303.63 399.784  11
  -3   1   2 5691.66 226.297  10
  -3   1   2 5889.58 377.747   4
   3   1  -2 5765.32 383.956   8
  -3   1   2 6208.70 419.582   2
  -3   1   1 23343.9 859.921   5
   3   1  -1 22799.7 833.170  11
  -3   1   1 23771.2 842.564   4
   3   1  -1 23704.1 836.691   8
  -3   1   1 24161.2 895.968   2
  -3   1   1 23522.7 778.390   3
  -3   1   0 1386.43 169.356   6
  -3   1   0 1097.19 183.252   2
  -3   1   0 1219.14 145.731   3
   3   1   0 1729.97 219.956  11
  -3   1   0 1472.60 197.049   5
  -3   1   0 1216.16 179.734   4
   3   1   0 1532.01 203.082   8
   3   1   1 17275.2 592.122  10
   3   1   1 18047.7 708.671  11
  -3   1  -1 18438.7 732.238   4
   3   1   1 16638.8 671.813   8
  -3   1  -1 17389.4 740.513   2
  -3   1  -1 17124.2 680.429   5
  -3   1  -1 17401.9 665.315   6
  -3   1  -1 16803.7 578.077   3
   3   1   2 9676.93 501.012  11
   3   1   2 9322.67 432.461  10
  -3   1  -2 9783.26 478.364   5
   3   1   2 9563.28 489.102   8
  -3   1  -2 9432.38 526.959   4
  -3   1  -2 9711.14 528.499   2
  -3   1  -2 9820.45 392.680   3
  -3   1  -2 9107.75 473.001   6
  -3   1  -3 42556.5 1199.92   5
   3   1   3 43242.0 1202.61  10
   3   1   3 44235.5 1297.35  11
  -3   1  -3 45076.6 1386.87   4
   3   1   3 43005.1 1270.52   8
  -3   1  -3 44706.1 1314.99   2
  -3   1  -3 43851.4 1073.77   3
  -3   1  -3 41987.7 1256.67   6
  -3   1  -4 8916.48 440.474   5
   3   1   4 8924.44 473.094  10
   3   1   4 9409.69 511.838   9
  -3   1  -4 9069.74 565.253   4
   3   1   4 9198.57 518.286  11
   3   1   4 9187.78 510.876   8
  -3   1  -4 8931.29 502.920   2
  -3   1  -4 8965.15 504.834   6
  -3   1  -5 19982.2 703.295   5
   3   1   5 19799.8 835.682  11
   3   1   5 20441.2 806.645  10
   3   1   5 20114.7 842.654   9
  -3   1  -5 20712.7 935.534   4
  -3   1  -5 20033.9 803.074   2
  -3   1  -5 19624.4 827.388   6
  -3   1  -6 1084.96 182.684   2
  -3   1  -6 725.529 160.831   6
   3   1   6 906.657 187.647  10
   3   1   6 1017.15 193.218  11
   3   1   6 742.652 182.519   9
  -3   1  -6 1176.32 227.306   4
   3   1   7 2999.85 335.582  10
   3   1   7 3439.08 353.046  11
   3   1   7 3572.03 380.053   9
  -3   1  -7 3546.51 423.390   4
  -3   1  -7 3624.05 315.691   2
  -3   1  -7 3395.85 357.298   6
  -3   1  -8 1011.23 211.058   6
   3   1   8 809.372 196.819  10
   3   1   8 946.787 213.658   9
   3   1   8 1061.74 219.542  11
  -3   1  -8 563.642 202.555   4
   3   1   9 7537.13 595.962  10
   3   1   9 6290.53 576.127   9
  -3   1  -9 7145.58 649.304   4
   3   1   9 7604.08 569.444  11
  -3   1  -9 6591.01 550.239   6
  -3   1 -10 30.8153 116.573   6
   3   1  10-48.4969 114.977  11
   3   1  10 28.0047 124.320  10
  -3   1 -10-345.821 196.170   4
  -3   1 -11 2998.53 412.916   6
   3   1  11 3085.51 428.052  10
   3   1  11 2939.80 454.438   9
   3   1  11 2868.54 380.857  11
  -3   1 -11 2377.68 428.380   4
  -3   1 -12-67.2457 151.954   6
   3   1  12 375.433 181.568  11
   3   1  12 330.012 203.908  10
   3   1  12 343.954 204.635   9
  -3   1 -12-160.695 197.355   4
  -3   1 -13 400.398 213.612   6
   3   1  13 1283.05 333.697  10
   3   1  13 539.148 187.426  11
   3   1  13 533.519 241.044   9
  -3   1 -13 670.950 279.411   4
  -3   1 -14 855.317 282.247   6
   3   1  14 443.992 169.201  11
   3   1  14 684.510 256.768  10
   3   1  14 441.483 268.221   9
  -3   1 -14 698.747 307.082   4
  -3   2  15 1437.08 346.927  10
  -3   2  15 1031.14 338.340   5
   3   2 -14 1029.66 265.265   6
  -3   2  14 1659.01 371.010   5
  -3   2  14 1139.40 348.590   3
  -3   2  14 1476.42 328.045  10
   3   2 -14 1650.79 444.397   8
  -3   2  13 4879.74 605.994   5
  -3   2  13 4909.01 626.747   3
  -3   2  13 4265.72 512.703  10
   3   2 -13 4267.18 607.834   8
   3   2 -13 4148.48 474.883   6
  -3   2  12 5156.20 605.659   3
  -3   2  12 5608.52 630.410   5
  -3   2  12 5245.77 537.618  10
   3   2 -12 4437.87 584.804   8
   3   2 -12 5125.43 495.966   6
   3   2 -11 1118.66 230.659   6
  -3   2  11 1836.20 348.892   5
  -3   2  11 1281.34 274.771  10
  -3   2  11 1881.12 369.820   3
   3   2 -11 1265.89 325.774   8
   3   2 -10 985.205 208.566   6
  -3   2  10 1146.64 286.363   5
  -3   2  10 734.702 243.169   3
  -3   2  10 810.340 204.333  10
   3   2 -10 1433.68 327.798   8
  -3   2   9 3600.06 379.178  10
  -3   2   9 3762.41 463.389   5
  -3   2   9 3664.65 440.424   3
   3   2  -9 2730.66 395.599   8
   3   2  -9 2802.76 315.282   6
  -3   2   8 1035.23 207.964   2
   3   2  -8 1280.92 207.877   6
  -3   2   8 748.644 210.136   5
  -3   2   8 682.652 208.665   3
  -3   2   8 867.473 192.686  10
   3   2  -8 828.193 237.714   8
  -3   2   7 35051.1 1379.26   3
  -3   2   7 37310.3 1439.40   5
  -3   2   7 37073.6 1234.37  10
   3   2  -7 34182.7 1361.19   8
  -3   2   7 36152.5 1270.17   2
   3   2  -7 35932.1 1138.99   6
  -3   2   6 10833.9 673.204   3
  -3   2   6 11640.0 720.760   5
   3   2  -6 10801.7 664.945  11
  -3   2   6 10417.3 558.726  10
   3   2  -6 11180.2 680.644   8
  -3   2   6 11406.5 641.508   2
   3   2  -6 11041.9 521.708   6
  -3   2   5 2177.30 284.026   2
  -3   2   5 2042.84 291.995   5
  -3   2   5 2416.21 244.083  10
  -3   2   5 2387.52 302.775   3
   3   2  -5 2298.50 287.402   8
   3   2  -5 2074.59 291.034  11
  -3   2   4 3382.20 346.147   3
  -3   2   4 3876.00 380.637   5
   3   2  -4 3363.98 338.239  11
   3   2  -4 4753.15 395.769   8
  -3   2   4 3495.04 351.213   2
  -3   2   4 3551.84 276.962  10
   3   2  -3 1955.84 262.835  11
  -3   2   3 2068.10 266.710   2
  -3   2   3 2192.54 274.637   5
  -3   2   3 2193.57 269.456   3
  -3   2   3 2121.25 199.727  10
   3   2  -3 1820.22 230.196   8
  -3   2   2 9217.79 547.510   5
   3   2  -2 9846.73 553.283  11
  -3   2   2 9024.21 408.104  10
  -3   2   2 9266.98 477.479   4
   3   2  -2 8648.17 491.563   8
  -3   2   2 9539.92 586.890   2
  -3   2   2 8924.97 533.452   3
  -3   2   1 3789.12 331.757   5
  -3   2   1 3915.67 301.073   4
   3   2  -1 3879.71 339.053  11
   3   2  -1 4187.28 314.814   8
  -3   2   1 4215.81 381.017   2
  -3   2   1 3516.80 316.117   6
  -3   2   1 4186.39 346.018   3
  -3   2   0 1361.51 206.076   6
  -3   2   0 2095.91 278.795   2
   3   2   0 1648.12 229.939  11
  -3   2   0 1876.40 225.336   3
  -3   2   0 1784.67 217.035   5
  -3   2   0 1835.08 208.312   4
   3   2   0 2015.15 213.901   8
  -3   2  -1 2683.45 259.385   5
   3   2   1 2911.07 287.366  11
   3   2   1 2352.27 260.132  10
  -3   2  -1 3313.45 284.406   4
   3   2   1 2934.38 246.584   8
  -3   2  -1 3107.10 327.404   2
  -3   2  -1 2563.52 256.063   3
  -3   2  -1 3074.30 301.128   6
  -3   2  -2 19745.8 731.525   5
   3   2   2 19257.2 802.466  10
  -3   2  -2 18989.8 782.084   4
   3   2   2 19653.3 714.041   8
  -3   2  -2 20554.8 885.459   2
   3   2   2 21397.9 825.226  11
  -3   2  -2 19430.0 760.520   3
  -3   2  -2 19452.2 828.089   6
  -3   2  -3 4513.52 306.495   5
   3   2   3 4712.45 382.568  10
  -3   2  -3 4739.62 375.468   4
   3   2   3 4743.29 326.230   8
  -3   2  -3 4613.50 399.411   2
   3   2   3 3973.08 340.264  11
   3   2   3 4609.40 280.088   3
  -3   2  -3 4892.47 345.960   3
  -3   2  -3 4681.12 393.974   6
   3   2   4 7550.52 475.141  11
   3   2   4 7356.92 495.685  10
  -3   2  -4 7281.12 495.895   4
   3   2   4 6516.15 403.865   8
  -3   2  -4 7033.12 490.706   2
  -3   2  -4 7309.57 430.778   3
  -3   2  -4 6649.16 484.556   6
  -3   2  -5 253.610 157.775   6
  -3   2  -5 670.180 171.774   2
   3   2   5 512.538 140.779  11
   3   2   5 538.063 159.151  10
  -3   2  -5 297.886 121.749   4
   3   2   5 558.406 131.424   8
   3   2   6 4473.74 420.104  10
  -3   2  -6 4550.32 433.588   4
   3   2   6 4384.94 379.692  11
  -3   2  -6 5299.03 425.272   2
   3   2   6 4565.29 364.565   8
  -3   2  -6 5022.89 454.447   6
  -3   2  -7 115.659 78.6813   2
  -3   2  -7 268.221 167.805   6
   3   2   7 412.382 143.233  11
   3   2   7 90.7892 108.079  10
  -3   2  -7 192.876 131.858   4
   3   2   8 29918.4 1151.51  11
   3   2   8 27095.4 1210.00  10
  -3   2  -8 28290.7 1287.09   4
   3   2   8 30571.6 1307.30   9
  -3   2  -8 28816.0 1246.77   6
   3   2   9 5221.60 463.862  11
   3   2   9 6031.25 553.942  10
   3   2   9 6510.64 593.170   9
  -3   2  -9 5061.59 541.134   4
  -3   2  -9 5725.66 545.585   6
  -3   2 -10 3569.24 448.000   6
   3   2  10 4357.43 441.616  11
   3   2  10 4468.82 513.838   9
   3   2  10 4446.36 496.510  10
  -3   2 -10 3741.89 486.681   4
  -3   2 -11 179.945 167.820   6
   3   2  11 410.481 186.307  11
   3   2  11 397.361 187.131  10
   3   2  11 272.796 223.879   9
  -3   2 -11 818.105 281.531   4
  -3   2 -12 2467.39 412.263   6
   3   2  12 1997.30 387.692  10
   3   2  12 2116.67 410.275   9
  -3   2 -12 3050.98 491.601   4
  -3   2 -13 1019.49 297.269   6
   3   2  13 1154.86 321.814  10
   3   2  13 319.057 215.198   9
  -3   2 -13 461.020 229.095   4
   3   2  14 1651.43 412.774  10
  -3   3  13 376.284 246.457   3
  -3   3  13 244.704 171.824  10
   3   3 -13 485.830 246.057   8
  -3   3  13 849.510 315.600   5
  -3   3  12 1107.36 347.242   5
  -3   3  12 797.275 229.172  10
  -3   3  12 841.372 306.977   3
   3   3 -12 800.702 297.560   8
  -3   3  11 624.514 211.098  10
  -3   3  11 883.126 310.598   5
  -3   3  11 731.621 273.272   3
   3   3 -11 622.577 268.206   8
  -3   3  10 2149.83 344.075  10
  -3   3  10 2790.60 444.496   5
  -3   3  10 1664.71 355.829   3
   3   3 -10 1998.87 376.168   8
  -3   3   9 10649.9 817.503   3
  -3   3   9 11300.9 856.203   5
  -3   3   9 10496.2 716.508  10
   3   3  -9 9753.57 776.593   8
  -3   3   8 3162.74 442.231   5
  -3   3   8 2802.46 409.003   3
  -3   3   8 2140.12 308.382  10
   3   3  -8 2687.56 389.481   8
  -3   3   8 1984.01 305.821   2
  -3   3   7 3713.73 455.629   5
  -3   3   7 3736.98 391.384  10
  -3   3   7 3431.27 398.872   2
   3   3  -7 3813.62 429.911   8
  -3   3   7 4006.79 465.833   3
  -3   3   6 2207.25 292.635  10
  -3   3   6 2331.52 359.587   5
  -3   3   6 2263.38 351.900   3
   3   3  -6 2476.17 344.799   8
  -3   3   6 2284.36 315.761   2
  -3   3   5 4530.24 470.709   5
   3   3  -5 3290.34 384.436  11
  -3   3   5 3422.31 402.546   3
  -3   3   5 4564.18 388.882  10
   3   3  -5 3191.35 368.514   8
  -3   3   5 3450.21 390.584   2
  -3   3   4 2002.01 302.753   2
   3   3  -4 2910.52 345.177  11
  -3   3   4 2552.08 356.420   5
  -3   3   4 2809.89 293.424  10
   3   3  -4 2629.69 321.489   8
  -3   3   4 2794.70 360.550   3
  -3   3   3 11405.7 696.561   5
   3   3  -3 11918.5 627.502   8
  -3   3   3 10168.7 674.492   2
   3   3  -3 9587.53 624.632  11
  -3   3   3 11515.1 580.353  10
  -3   3   3 11963.2 729.049   3
  -3   3   2 2559.01 339.285   2
   3   3  -2 2274.40 300.972  11
   3   3  -2 2826.89 287.180   8
  -3   3   2 2649.11 320.570   5
  -3   3   2 2356.56 315.568   3
  -3   3   1 11880.7 652.648   5
   3   3  -1 9335.61 583.552  11
  -3   3   1 10972.1 510.791   4
   3   3  -1 10344.1 524.101   8
  -3   3   1 10119.6 673.874   2
  -3   3   1 9369.41 621.317   3
  -3   3   0 1159.35 217.247   6
  -3   3   0 1248.83 245.033   2
  -3   3   0 951.674 194.626   3
   3   3   0 1781.01 266.524  11
  -3   3   0 1736.84 239.076   5
  -3   3   0 822.688 141.386   4
  -3   3  -1 11121.1 585.426   5
  -3   3  -1 11396.3 538.863   4
  -3   3  -1 10492.0 684.898   2
   3   3   1 10388.5 599.762  11
  -3   3  -1 11431.4 661.140   3
  -3   3  -1 10696.8 645.860   6
  -3   3  -2 2954.62 337.584   6
  -3   3  -2 2764.66 342.988   2
  -3   3  -2 2747.26 267.254   5
   3   3   2 2775.49 302.966  11
   3   3   2 2210.68 296.146  10
  -3   3  -2 2601.13 257.245   4
   3   3   2 2992.27 296.168   3
  -3   3  -2 2844.20 317.888   3
   3   3   3 12775.1 740.653  10
  -3   3  -3 12203.4 618.670   4
  -3   3  -3 13351.5 771.412   2
   3   3   3 12470.6 655.861  11
   3   3   3 13850.0 653.473   3
  -3   3  -3 12925.7 700.821   3
  -3   3  -3 12434.3 728.945   6
  -3   3  -4 2281.05 310.915   2
  -3   3  -4 1804.87 287.372   6
  -3   3  -4 2362.60 296.286   3
   3   3   4 2633.21 301.111  11
   3   3   4 2691.43 344.111  10
  -3   3  -4 2366.09 281.229   4
   3   3   5 13080.6 682.734  11
   3   3   5 14352.4 832.802  10
  -3   3  -5 14667.4 748.957   4
  -3   3  -5 14663.6 808.577   2
  -3   3  -5 13905.4 812.165   6
  -3   3  -6 446.328 174.966   6
   3   3   6 386.111 167.030  10
  -3   3  -6 548.273 159.814   4
   3   3   6 353.298 115.656  11
  -3   3  -6 460.387 151.137   2
  -3   3  -7 1410.10 284.166   6
   3   3   7 1186.02 257.022  10
   3   3   7 915.598 190.480  11
  -3   3  -7 1153.27 247.637   4
  -3   3  -7 1327.36 242.645   2
   3   3   8 86.3983 113.635  10
  -3   3  -8 85.6798 102.175   4
  -3   3  -9 2554.34 394.016   6
   3   3   9 2553.50 401.298  10
  -3   3  -9 3153.35 423.009   4
  -3   3 -10 189.503 156.927   6
   3   3  10 256.158 180.544  10
  -3   3 -10 308.069 186.545   4
  -3   3 -11 2704.39 439.435   6
   3   3  11 2967.76 466.626  10
  -3   3 -11 2439.47 426.210   4
  -3   3 -12 14.3328 167.975   6
   3   3  12-376.271 221.178  10
   3   4 -12 1849.26 416.234   8
  -3   4  11 1150.11 320.764   3
   3   4 -11 1394.84 347.271   8
  -3   4  10 463.646 244.332   5
   3   4 -10 1065.67 297.076   8
  -3   4  10 1140.82 345.142   3
  -3   4   9 3.84719 182.055   5
  -3   4   9 120.813 176.317   3
   3   4  -9 335.328 228.467   8
  -3   4   8 1193.94 271.455  10
   3   4  -8 859.878 255.560   8
  -3   4   8 403.316 267.082   5
  -3   4   8 742.314 255.914   3
  -3   4   8 917.366 240.492   2
  -3   4   7 1447.69 281.894  10
  -3   4   7 1454.10 337.802   5
  -3   4   7 1463.84 346.543   3
  -3   4   7 2183.30 361.067   2
  -3   4   6 3433.24 468.463   5
  -3   4   6 3927.34 499.158   3
  -3   4   6 3157.92 384.139  10
  -3   4   6 3500.75 446.428   2
  -3   4   5 3399.60 439.928   5
  -3   4   5 1881.44 345.418   3
  -3   4   5 1865.26 284.877  10
  -3   4   5 2581.58 383.680   2
  -3   4   4 8261.32 675.156   5
   3   4  -4 5558.35 524.378  11
  -3   4   4 6130.38 496.647  10
  -3   4   4 6439.68 601.757   2
  -3   4   4 6028.88 596.003   3
  -3   4   3 739.552 238.412   3
   3   4  -3 350.775 154.115  11
  -3   4   3 212.633 159.760   5
  -3   4   3 319.539 186.210   2
  -3   4   2 2736.26 393.626   3
   3   4  -2 2962.73 357.591  11
  -3   4   2 3462.58 405.006   5
  -3   4   2 3344.29 435.273   2
  -3   4   1 396.359 159.176   5
  -3   4   1 439.891 198.668   3
   3   4  -1 286.982 136.387  11
  -3   4   1 327.717 168.219   2
  -3   4   0 6553.51 508.308   5
   3   4   0 5141.39 460.002  11
  -3   4   0 5811.02 561.522   2
  -3   4   0 5701.37 514.191   6
  -3   4   0 4773.56 488.760   3
  -3   4  -1 22.1964 118.336   6
   3   4   1-7.56931 94.8831  11
   3   4   1-10.6954 117.802   3
  -3   4  -1-66.7594 122.811   3
  -3   4  -1 151.666 185.108   2
  -3   4  -2 1703.27 296.607   6
   3   4   2 1916.08 287.680   3
  -3   4  -2 2047.52 320.259   3
   3   4   2 2184.40 291.280  11
  -3   4  -2 1987.80 333.098   2
  -3   4  -3 178.484 138.933   6
  -3   4  -3 476.774 177.104   3
   3   4   3 113.155 102.598  11
   3   4   3 198.876 158.811  10
  -3   4  -3 111.473 144.833   2
  -3   4  -4 204.876 158.240   6
  -3   4  -4 534.427 182.521   3
   3   4   4 127.848 144.407  10
  -3   4  -4 144.612 137.123   2
  -3   4  -5 1110.17 268.672   6
   3   4   5 852.568 244.373  10
  -3   4  -5 1322.25 283.613   2
   3   4   6 5831.66 606.540  10
  -3   4  -6 5476.62 547.407   2
  -3   4  -6 6474.33 612.586   6
  -3   4  -7 83.8767 157.956   6
   3   4   7 142.456 146.383  10
  -3   4  -7 164.007 136.296   2
  -3   4  -8 2567.72 425.108   6
   3   4   8 2396.04 415.026  10
  -3   4  -9 188.061 179.552   6
   3   4   9-26.4396 159.802  10
  -3   4 -10 1228.48 323.951   6
   3   4  10 1798.46 399.860  10
   3   4  11 1301.91 377.218  10
  -3   5   8 3368.00 542.765   3
  -3   5   7 5399.29 668.190   3
  -3   5   7 4612.18 569.482   2
  -3   5   6 1193.55 350.875   3
  -3   5   6 494.445 226.081   2
  -3   5   5 2155.74 419.298   3
  -3   5   5 2492.60 413.707   2
  -3   5   4 490.976 246.507   3
  -3   5   4 1105.04 286.763   2
  -3   5   3 2741.94 428.664   3
  -3   5   3 2541.45 412.938   2
  -3   5   2 1531.04 343.525   3
   3   5  -2 1308.11 263.595  11
  -3   5   2 1817.97 378.890   2
   3   5  -1 6705.71 583.868  11
  -3   5   1 7376.49 715.933   2
  -3   5   1 8214.42 723.575   3
  -3   5   0 116.575 152.455   3
  -3   5   0 166.653 169.569   2
  -3   5  -1 4439.72 521.710   3
  -3   5  -1 4289.64 551.179   2
  -3   5  -1 4844.56 526.595   6
  -3   5  -2 845.122 249.935   6
  -3   5  -2 1304.08 297.769   3
  -3   5  -2 1854.74 368.139   2
  -3   5  -3 14243.5 989.320   2
  -3   5  -3 14094.5 947.209   3
  -3   5  -3 15050.9 962.557   6
  -3   5  -4 1044.07 282.292   6
  -3   5  -4 1286.66 293.525   3
  -3   5  -4 1639.95 350.723   2
  -3   5  -5 3761.77 499.318   6
   3   5   5 2961.86 474.503  10
  -3   5  -5 3210.37 474.692   2
  -3   5  -6 559.739 235.132   6
   3   5   6 500.518 240.045  10
  -3   5  -6 373.786 214.604   2
  -3   5  -7 2557.79 432.691   6
   3   5   7 3007.60 504.698  10
   3   5   8 154.740 234.351  10
  -3   6   4 1939.42 445.084   2
  -3   6   3 297.613 227.245   3
  -3   6   3 291.049 228.481   2
  -3   6   2 855.229 327.425   3
  -3   6   2 715.775 278.770   2
  -3   6   1 631.154 238.280   3
  -3   6   1 1144.66 337.664   2
  -3   6   0 2652.28 463.945   3
  -3   6   0 2499.90 461.372   2
  -3   6  -1 439.031 256.139   3
  -3   6  -1 195.575 218.922   2
  -3   6  -2 2280.91 414.852   6
  -3   6  -2 1731.74 386.011   3
  -3   6  -2 2585.19 476.742   2
  -3   6  -3 2208.28 423.976   3
  -3   6  -3 1723.42 393.981   2
  -3   6  -4 2128.68 429.067   3
  -4  -6   3 95.2552 182.683   1
  -4  -6   2 2014.73 450.283   1
  -4  -6   1 345.944 239.125   5
  -4  -6   0 3823.92 594.247   5
  -4  -5   8 2620.04 493.022   9
   4  -5  -7 2318.47 424.045   1
  -4  -5   7 2123.78 415.169   9
   4  -5  -6 3086.48 487.387   1
  -4  -5   6 2814.14 454.700   9
   4  -5  -5 2199.74 404.895   1
  -4  -5   5 1995.78 392.185   9
   4  -5  -4 344.745 159.604   1
  -4  -5   4 660.818 225.449   1
  -4  -5   4 681.401 261.662   9
   4  -5  -3 1571.79 312.651   1
  -4  -5   3 1424.54 336.563   1
  -4  -5   3 1482.63 347.754   5
  -4  -5   3 1398.02 331.559   9
   4  -5  -2 878.853 258.508   1
  -4  -5   2 1746.29 377.452   5
  -4  -5   2 1957.27 380.514   1
  -4  -5   1 5071.23 590.702   1
  -4  -5   1 4389.03 570.436   5
   4  -5  -1 4467.91 498.852   7
  -4  -5   0 79.8894 180.798   1
  -4  -5   0 417.916 229.508   5
   4  -5   0 564.529 210.303   7
  -4  -5  -1 1898.50 392.868   1
   4  -5   1 948.961 279.273   7
  -4  -5  -2 1907.79 410.243   1
   4  -5   2 2271.75 402.205   7
  -4  -5  -3 3589.90 535.115   1
   4  -5   3 3974.73 528.684   7
  -4  -5  -4 163.532 230.556   1
  -4  -5  -5 1280.54 370.278   1
   4  -4 -10 2542.04 464.837   1
  -4  -4  10 3315.04 496.713   9
  -4  -4   9 668.528 247.535   9
   4  -4  -9 1398.08 352.738   1
   4  -4  -8 15059.3 1035.12   1
  -4  -4   8 11279.9 873.924   9
  -4  -4   7 1417.34 316.120   9
   4  -4  -7 1305.84 337.065   1
  -4  -4   6 3235.28 444.319   9
   4  -4  -6 3468.04 477.109   1
  -4  -4   5 396.233 205.655   5
  -4  -4   5 618.111 219.900   9
   4  -4  -5 656.219 217.992   1
  -4  -4   4 3647.22 447.856   5
  -4  -4   4 3936.05 468.115   9
   4  -4  -4 3877.86 474.738   1
  -4  -4   3 868.653 255.999   1
  -4  -4   3 564.594 216.023   5
  -4  -4   3 602.751 204.070   9
   4  -4  -3 415.423 171.600   1
   4  -4  -2 5706.48 529.819   1
  -4  -4   2 4962.83 541.545   5
  -4  -4   2 6110.69 598.363   1
   4  -4  -2 5288.94 484.817   7
  -4  -4   1 812.350 243.169   1
  -4  -4   1 1328.71 323.947   5
   4  -4  -1 1336.09 259.951   1
   4  -4  -1 895.225 220.164   7
  -4  -4   0 2382.62 383.005   1
  -4  -4   0 2008.35 367.262   5
   4  -4   0 2610.98 335.215   8
   4  -4   0 2418.29 349.332   7
  -4  -4  -1 956.867 282.768   1
   4  -4   1 559.975 172.523   8
   4  -4   1 644.008 215.445   7
  -4  -4  -2 3361.93 474.452   1
   4  -4   2 3336.37 401.638   8
   4  -4   2 3909.58 468.357   7
  -4  -4  -3 1864.78 371.945   1
   4  -4   3 2017.27 322.404   8
   4  -4   3 1693.96 334.586   7
  -4  -4  -4 4702.05 556.677   1
   4  -4   4 5822.45 560.698   8
   4  -4   4 4802.51 555.149   7
  -4  -4  -5 131.937 176.689   1
   4  -4   5 163.324 145.029   8
   4  -4   5-184.071 193.063   7
   4  -4   6 2773.40 397.323  11
  -4  -4  -6 2999.94 473.091   1
   4  -4   6 2475.68 423.519   7
   4  -4   7 1401.38 318.897  11
  -4  -4  -7 1282.57 325.281   1
   4  -4   7 1050.12 301.453   7
   4  -4   8 732.836 272.062  11
  -4  -4  -8 529.051 260.517   1
   4  -4   9-11.1211 167.550  11
  -4  -4  -9-144.586 188.909   1
   4  -4  10 1995.61 411.770  11
  -4  -4 -10 1754.64 399.462   1
  -4  -3  12-151.369 226.661   3
   4  -3 -12 517.186 272.057   1
   4  -3 -11 1386.97 321.914   1
   4  -3 -10 2268.46 412.341   1
   4  -3  -9 2325.18 392.686   1
  -4  -3   9 1500.56 304.546   9
   4  -3  -8 3489.66 474.015   1
  -4  -3   8 3103.24 408.226   9
  -4  -3   7 3726.52 418.130   5
  -4  -3   7 3888.67 444.961   9
   4  -3  -7 4106.66 442.355   8
   4  -3  -7 3613.06 466.543   1
   4  -3  -6 1904.27 340.194   1
  -4  -3   6 1595.34 285.218   5
  -4  -3   6 1782.87 295.950   9
   4  -3  -6 1392.95 257.151   8
   4  -3  -5 4226.10 463.013   1
  -4  -3   5 3919.89 436.390   5
  -4  -3   5 4375.31 435.734   9
   4  -3  -5 3321.06 384.212   8
  -4  -3   4 2035.32 325.189   5
  -4  -3   4 2243.85 311.543   9
   4  -3  -4 1952.06 326.586   1
   4  -3  -4 2618.53 333.300   8
  -4  -3   3 2443.61 356.278   5
  -4  -3   3 2410.27 315.806   9
   4  -3  -3 2465.93 312.674   8
   4  -3  -3 2554.80 347.773   1
   4  -3  -3 2111.23 272.550   7
   4  -3  -2 515.112 177.555   1
  -4  -3   2 478.016 185.409   5
  -4  -3   2 369.388 185.495   1
   4  -3  -2 567.827 162.421   8
   4  -3  -2 685.693 190.325   7
   4  -3  -1 4726.70 433.373   1
  -4  -3   1 4356.71 479.245   5
  -4  -3   1 4684.29 392.689   4
  -4  -3   1 5085.44 502.828   1
   4  -3  -1 5122.33 449.176   8
   4  -3  -1 4910.06 438.477   7
  -4  -3   0 837.617 229.407   1
   4  -3   0 830.197 184.406   1
  -4  -3   0 1171.24 267.536   5
  -4  -3   0 770.777 166.774   4
   4  -3   0 1633.83 263.458   8
   4  -3   0 1244.67 245.564   7
   4  -3   1 5790.35 448.651   1
   4  -3   1 6495.85 441.603  11
  -4  -3  -1 5872.08 453.933   4
  -4  -3  -1 6072.87 560.104   1
   4  -3   1 6107.89 510.572   8
  -4  -3  -1 6396.03 577.940   5
   4  -3   1 6097.33 514.893   7
  -4  -3  -2 8323.62 560.619   4
  -4  -3  -2 9380.09 692.417   1
   4  -3   2 8414.51 534.970  11
   4  -3   2 7523.08 588.999   8
   4  -3   2 7991.01 616.195   7
   4  -3   3 1459.79 235.940  11
  -4  -3  -3 1893.38 335.126   1
  -4  -3  -3 1345.40 242.165   4
   4  -3   3 1639.58 289.012   8
   4  -3   3 1699.68 294.574   7
   4  -3   4 405.616 152.763  11
  -4  -3  -4 91.0233 135.783   1
  -4  -3  -4 533.914 172.727   4
   4  -3   4 346.452 158.421   8
   4  -3   4 90.2580 133.875   7
   4  -3   5 3736.02 412.332  11
  -4  -3  -5 3146.08 427.325   1
  -4  -3  -5 3253.10 390.013   4
   4  -3   5 3746.71 463.530   7
   4  -3   6 75.0540 129.650  11
  -4  -3  -6 248.426 183.616   1
  -4  -3  -6 40.1401 116.275   4
   4  -3   6 54.2922 145.864   7
   4  -3   7 6139.74 582.372  11
  -4  -3  -7 5462.83 549.763   4
  -4  -3  -7 6039.89 600.995   1
   4  -3   7 7625.83 680.178   7
   4  -3   8 2361.39 388.126  11
  -4  -3  -8 3113.88 444.971   1
  -4  -3  -8 2577.46 389.070   4
   4  -3   8 2767.04 441.759   7
   4  -3   9 3028.93 460.036  11
  -4  -3  -9 2957.14 430.260   1
  -4  -3  -9 3117.37 451.188   4
   4  -3   9 3273.00 507.519   7
   4  -3  10 308.295 216.188  11
  -4  -3 -10 416.014 182.022   1
  -4  -3 -10 57.6515 161.196   4
   4  -3  10 63.3559 161.512   7
   4  -3  11 3572.97 553.005  11
  -4  -3 -11 3523.65 528.172   4
  -4  -3 -12 258.831 188.777   4
   4  -2 -13 1235.18 316.262   1
  -4  -2  13 1658.84 396.103   3
   4  -2 -13 1147.85 346.872   8
   4  -2 -12 473.863 231.235   1
  -4  -2  12-114.899 200.018   3
   4  -2 -12-54.2502 194.218   8
  -4  -2  11 4150.07 521.631   3
   4  -2 -11 3976.16 532.563   8
   4  -2 -11 4464.98 541.288   1
   4  -2 -10 3682.67 485.618   1
  -4  -2  10 2919.33 428.015   3
   4  -2 -10 2815.53 425.921   8
   4  -2  -9-111.232 169.939   1
  -4  -2   9 148.230 102.375   5
  -4  -2   9 208.304 153.558   3
   4  -2  -9 134.437 176.189   8
  -4  -2   8 713.130 201.243   5
  -4  -2   8 1033.80 233.962   3
   4  -2  -8 919.423 260.291   1
   4  -2  -8 846.566 242.415   8
  -4  -2   7 678.483 175.097   5
   4  -2  -7 756.510 215.838   8
   4  -2  -6 3112.67 371.511   8
  -4  -2   6 3554.00 390.330   5
  -4  -2   5 128.652 119.147   5
  -4  -2   5-114.312 87.9546   9
   4  -2  -5-22.4141 113.362   8
  -4  -2   4 8756.00 616.999   5
  -4  -2   4 9348.74 545.153   9
   4  -2  -4 9385.29 614.880   8
  -4  -2   3 2441.37 343.445   5
  -4  -2   3 3265.46 303.528   9
   4  -2  -3 3168.89 352.204   8
   4  -2  -2 10737.6 501.361  11
  -4  -2   2 10474.2 678.590   5
  -4  -2   2 9988.97 591.402   4
   4  -2  -2 10466.1 641.397   8
  -4  -2   1 195.211 115.321   1
   4  -2  -1 413.241 122.927  11
  -4  -2   1 562.669 190.393   5
  -4  -2   1 339.890 123.789   4
   4  -2  -1 335.461 146.453   8
  -4  -2   0 5078.85 477.466   5
   4  -2   0 5149.87 365.164  11
  -4  -2   0 5058.23 419.315   4
  -4  -2   0 4148.56 424.882   1
   4  -2   0 4427.14 409.455   8
   4  -2   1 9914.88 542.037  11
  -4  -2  -1 10423.6 693.772   5
  -4  -2  -1 9615.45 597.188   4
  -4  -2  -1 9157.63 628.121   1
   4  -2   1 9720.39 629.514   8
   4  -2   2 30722.4 1097.13  11
  -4  -2  -2 28598.0 1239.17   5
  -4  -2  -2 30624.0 1186.88   4
  -4  -2  -2 30144.4 1232.59   1
   4  -2   2 33250.6 1270.41   8
   4  -2   3 13616.6 706.508  11
  -4  -2  -3 12027.3 724.250   4
  -4  -2  -3 12743.0 754.616   1
   4  -2   3 13188.0 780.179   8
  -4  -2  -3 13837.9 815.765   5
   4  -2   4 20914.8 933.352  11
  -4  -2  -4 20496.6 998.989   4
  -4  -2  -4 21066.5 1000.41   1
   4  -2   4 21776.3 1052.41   8
   4  -2   5 1124.24 233.085  11
  -4  -2  -5 1406.85 260.249   1
  -4  -2  -5 1664.09 290.632   4
  -4  -2  -6 3398.13 396.773   1
   4  -2   6 2202.14 328.926  11
  -4  -2  -6 2439.46 365.456   4
   4  -2   7 2944.20 390.326  11
  -4  -2  -7 2074.62 325.095   1
  -4  -2  -7 2407.16 372.550   4
   4  -2   8 5306.75 539.890  11
  -4  -2  -8 5618.81 575.715   4
  -4  -2  -8 5559.67 521.431   1
  -4  -2  -9 551.967 182.551   1
   4  -2   9 701.219 244.704   9
   4  -2   9 289.347 149.573  11
  -4  -2  -9 380.653 215.435   4
   4  -2   9 714.036 235.503   7
   4  -2  10 357.553 199.811  11
   4  -2  10 1201.97 328.554   9
  -4  -2 -10 773.386 275.902   4
   4  -2  10 398.235 216.906   7
   4  -2  11 891.997 297.257  11
   4  -2  11 1053.35 309.040   9
  -4  -2 -11 1136.03 315.194   4
   4  -2  11 1179.89 312.229   7
   4  -2  12 2111.58 403.484  11
   4  -2  12 1338.17 372.956   9
  -4  -2 -12 1835.42 395.146   4
   4  -2  12 2197.32 404.733   7
   4  -1 -14 3037.77 460.157   1
   4  -1 -14 2435.22 480.696   8
   4  -1 -13 3227.38 459.661   1
  -4  -1  13 3748.37 548.939   3
   4  -1 -13 4004.42 598.563   8
   4  -1 -12 1093.88 281.296   1
  -4  -1  12 720.407 255.514   3
   4  -1 -12 1272.03 334.422   8
  -4  -1  11 4442.15 477.909   5
   4  -1 -11 4182.46 503.116   1
  -4  -1  11 3186.78 464.128   3
   4  -1 -11 3204.96 469.531   8
  -4  -1  10 1040.48 245.973   5
  -4  -1  10 1179.31 278.931   3
   4  -1 -10 1275.27 316.760   8
  -4  -1   9 2527.46 351.657   5
  -4  -1   9 2859.64 396.125   3
   4  -1  -9 1822.80 334.310   8
  -4  -1   8 4829.80 467.311   3
  -4  -1   8 5245.48 486.953   5
   4  -1  -8 4324.60 479.078   8
  -4  -1   8 4777.55 402.553   2
  -4  -1   7 5869.63 501.509   3
  -4  -1   7 4620.64 451.767   5
   4  -1  -7 4646.71 471.621   8
  -4  -1   7 5535.51 434.059   2
  -4  -1   6 4109.99 398.822   3
   4  -1  -6 4035.77 342.956  11
  -4  -1   6 3674.57 395.942   5
   4  -1  -6 4215.40 434.999   8
  -4  -1   6 4362.00 386.312   2
  -4  -1   5 7376.35 496.668   3
   4  -1  -5 7393.98 454.521  11
  -4  -1   5 7823.11 565.584   5
   4  -1  -5 7785.51 564.818   8
  -4  -1   5 7765.73 517.833   2
  -4  -1   4 3494.19 313.645   3
   4  -1  -4 3262.26 287.048  11
  -4  -1   4 2693.03 326.946   5
   4  -1  -4 2495.00 319.640   8
  -4  -1   4 3370.18 341.620   2
  -4  -1   3 2438.84 248.595   3
   4  -1  -3 2244.90 238.035  11
  -4  -1   3 2308.83 302.286   5
  -4  -1   3 2112.12 276.206   4
   4  -1  -3 2245.42 296.220   8
   4  -1  -2 1272.74 205.823  11
  -4  -1   2 1111.81 224.776   5
  -4  -1   2 1321.08 170.596   3
  -4  -1   2 921.988 191.641   4
   4  -1  -2 918.404 228.682   8
  -4  -1   1 18151.0 621.601   3
   4  -1  -1 17591.4 711.040  11
  -4  -1   1 17226.7 840.249   5
  -4  -1   1 16778.7 791.870   4
   4  -1  -1 16794.0 811.439   8
  -4  -1   0 696.192 182.710   5
  -4  -1   0 655.751 173.459   4
   4  -1   0 574.486 135.655  11
   4  -1   0 713.077 184.266   8
   4  -1   1 4489.66 359.077  11
  -4  -1  -1 3406.51 368.865   5
  -4  -1  -1 4263.69 391.928   4
   4  -1   1 4776.84 421.767   8
  -4  -1  -2 11472.0 683.559   5
   4  -1   2 11625.1 617.948  11
  -4  -1  -2 11789.8 654.146   1
  -4  -1  -2 12107.2 698.359   4
   4  -1   2 11748.8 684.849   8
   4  -1   3 9979.42 583.763  11
  -4  -1  -3 10077.1 637.580   5
  -4  -1  -3 10235.0 653.859   4
  -4  -1  -3 9869.82 596.442   1
   4  -1   3 9602.23 634.470   8
  -4  -1  -3 9470.42 571.486   2
  -4  -1  -4-11.1744 80.2593   1
   4  -1   4 83.2271 107.620  11
  -4  -1  -4 3.01682 97.9064   5
  -4  -1  -4 52.9931 97.8925   2
  -4  -1  -4 63.6262 99.1927   4
   4  -1   4-0.35517 96.5283   8
   4  -1   5 4762.69 426.419  11
  -4  -1  -5 5179.20 459.970   5
   4  -1   5 5069.50 405.929   9
  -4  -1  -5 4731.55 472.781   4
  -4  -1  -5 4993.02 427.851   1
  -4  -1  -5 4818.31 399.960   2
   4  -1   6 54.1293 102.937  11
  -4  -1  -6 264.285 126.366   1
  -4  -1  -6 17.0610 101.884   5
  -4  -1  -6 223.019 119.234   2
   4  -1   6 351.827 149.391   9
  -4  -1  -6 172.659 141.939   4
   4  -1   7 4830.25 469.971  11
   4  -1   7 4915.78 470.021   9
  -4  -1  -7 5321.32 543.241   4
  -4  -1  -7 4949.04 433.753   1
  -4  -1  -7 5989.27 511.444   5
  -4  -1  -7 5404.88 423.710   2
   4  -1   8 2348.84 350.863  11
   4  -1   8 2001.69 322.168   9
  -4  -1  -8 1656.43 332.083   4
   4  -1   9 7714.56 647.103  11
   4  -1   9 7487.16 643.291   9
  -4  -1  -9 8283.92 735.765   4
   4  -1  10 169.877 195.545  11
   4  -1  10 79.7290 143.352   9
  -4  -1 -10-105.117 154.725   4
   4  -1  11 3870.18 506.813  11
   4  -1  11 4238.16 545.158   9
  -4  -1 -11 3307.46 533.697   4
   4  -1  12 1245.40 333.216  11
   4  -1  12 936.939 293.495   9
  -4  -1 -12 1038.74 342.658   4
   4  -1  13 5068.62 667.554   9
  -4  -1 -13 4529.79 658.031   4
   4  -1  14 1074.59 356.502   9
  -4   0  14 3353.26 544.800   3
   4   0 -14 2180.66 484.282   8
  -4   0  13 658.825 281.581   3
   4   0 -13 286.451 229.444   8
  -4   0  12 1111.62 318.438   3
   4   0 -12 1729.11 377.646   8
  -4   0  12 1167.93 280.399   5
  -4   0  11 2109.76 390.001   3
   4   0 -11 2700.39 443.955   8
  -4   0  11 2323.80 376.928   5
  -4   0  10 3039.45 406.123   5
  -4   0  10 3625.72 465.598   3
   4   0 -10 2542.93 411.582   8
  -4   0   9 800.270 220.207   5
  -4   0   9 1213.26 276.433   3
   4   0  -9 1206.59 275.684   8
  -4   0   8 30822.6 1286.54   3
  -4   0   8 30318.7 1282.89   5
   4   0  -8 28324.1 1289.96   8
  -4   0   8 30539.1 1131.15   2
   4   0  -7 190.636 117.108  11
  -4   0   7 21.6455 90.4928   2
  -4   0   7 302.745 165.902   5
  -4   0   7-41.0079 125.426   3
   4   0  -7 209.283 162.970   8
   4   0  -6 2456.77 294.659  11
  -4   0   6 2552.89 347.392   5
  -4   0   6 2643.14 317.106   3
   4   0  -6 2931.67 359.468   8
  -4   0   6 3031.74 324.099   2
  -4   0   5 1639.22 245.342   2
  -4   0   5 1681.39 269.205   5
  -4   0   5 1991.56 258.104   3
   4   0  -5 1569.50 240.943  11
   4   0  -5 1296.61 242.202   8
  -4   0   4 12797.6 629.218   3
  -4   0   4 11940.3 702.460   5
   4   0  -4 11971.8 690.292   8
  -4   0   4 13991.4 694.530   2
   4   0  -4 12542.2 636.313  11
   4   0  -3 165.564 90.0638  11
  -4   0   3 154.942 102.787   5
  -4   0   3 41.4922 94.5229   2
  -4   0   3 272.281 101.192   3
  -4   0   3 169.901 115.510   4
   4   0  -3 38.5419 116.183   8
  -4   0   2 5847.92 353.039   3
  -4   0   2 5560.29 451.906   5
   4   0  -2 5671.22 403.990  11
  -4   0   2 6044.41 445.672   4
   4   0  -2 5689.19 450.076   8
  -4   0   2 5954.50 443.517   2
  -4   0   1 2943.04 226.496   3
  -4   0   1 3119.11 332.666   5
   4   0  -1 2758.71 290.616  11
  -4   0   1 3453.64 343.827   4
   4   0  -1 3343.01 338.897   8
  -4   0   1 3624.74 346.657   2
  -4   0   0 5360.76 430.175   5
   4   0   0 5625.21 400.986  11
  -4   0   0 5629.12 440.569   4
   4   0   0 4842.99 407.722   8
  -4   0   0 5629.43 431.070   2
  -4   0  -1 222.601 74.7815   6
   4   0   1 324.622 113.977  11
  -4   0  -1 109.975 98.4396   2
  -4   0  -1 289.742 125.592   5
  -4   0  -1 187.109 111.822   4
   4   0   1 198.348 110.055   8
   4   0   2 10713.1 592.104  11
  -4   0  -2 10352.2 604.729   5
  -4   0  -2 10461.3 641.858   4
   4   0   2 12081.1 671.782   8
  -4   0  -2 12052.4 634.810   2
  -4   0  -2 10899.6 478.840   6
  -4   0  -3 685.660 128.674   6
   4   0   3 419.316 134.971  11
  -4   0  -3 647.399 149.260   2
  -4   0  -3 411.057 143.337   5
   4   0   3 862.935 138.337   9
  -4   0  -3 622.876 177.329   4
   4   0   3 653.789 171.179   8
   4   0   4 4498.75 396.889  11
  -4   0  -4 4337.83 383.547   5
   4   0   4 4072.07 321.668   9
  -4   0  -4 5161.82 465.109   4
   4   0   4 4645.31 425.776   8
  -4   0  -4 4471.03 377.547   2
  -4   0  -4 4872.13 339.547   6
  -4   0  -5 206.041 105.999   6
  -4   0  -5 96.7526 89.0174   2
  -4   0  -5 146.881 102.517   5
   4   0   5 212.266 125.577   9
   4   0   5 133.073 115.211  11
  -4   0  -5 170.309 132.797   4
   4   0   5 17.0926 95.8449   8
  -4   0  -6 14869.5 743.787   5
   4   0   6 14400.3 740.398   9
  -4   0  -6 13454.8 840.678   4
  -4   0  -6 13956.1 699.856   2
   4   0   6 14299.7 780.854  11
  -4   0  -6 14654.2 703.537   6
  -4   0  -7 92.7066 86.8977   6
  -4   0  -7 172.433 112.098   2
   4   0   7 366.303 160.126  11
   4   0   7 68.7133 122.947   9
  -4   0  -7 278.926 176.859   4
  -4   0  -8 756.258 194.450   6
   4   0   8 484.934 177.056  11
   4   0   8 701.569 208.972   9
  -4   0  -8 891.302 259.338   4
  -4   0  -9 26.3256 116.702   6
   4   0   9-23.2249 116.722  11
   4   0   9-67.1428 111.661   9
  -4   0  -9-38.6772 154.219   4
  -4   0 -10 3020.43 387.896   6
   4   0  10 3714.17 461.226  11
   4   0  10 3213.14 442.656   9
  -4   0 -10 3742.74 523.730   4
  -4   0 -11 1.79494 125.779   6
   4   0  11-98.5278 143.916  11
   4   0  11 150.286 154.026   9
  -4   0 -11-211.083 199.311   4
  -4   0 -12 373.498 170.871   6
   4   0  12 499.065 209.540  11
   4   0  12 82.2930 166.607   9
  -4   0 -12 536.684 281.805   4
  -4   0 -13 2254.51 395.567   6
   4   0  13 2677.16 460.073  11
   4   0  13 3255.45 527.448   9
  -4   0 -13 3279.48 570.993   4
   4   0  14 656.489 288.684   9
  -4   1  14 2933.05 491.763   5
  -4   1  13 3023.56 470.928   5
  -4   1  13 3618.29 558.012   3
   4   1 -13 2848.15 512.098   8
  -4   1  12 809.487 257.258   5
   4   1 -12 379.487 252.696   8
  -4   1  11 3351.28 467.718   5
  -4   1  11 3897.35 520.731   3
   4   1 -11 3809.79 527.356   8
  -4   1  10 1290.88 275.548   5
  -4   1  10 1255.79 302.929   3
   4   1 -10 1660.68 336.782   8
  -4   1   9 2549.02 384.127   5
  -4   1   9 2151.70 354.213   3
   4   1  -9 2352.41 383.404   8
  -4   1   8 4682.12 493.882   3
  -4   1   8 4239.98 472.298   5
   4   1  -8 5116.55 523.467   8
  -4   1   8 5207.85 439.250   2
  -4   1   7 5327.70 486.629   3
  -4   1   7 4917.55 490.108   5
   4   1  -7 4004.50 419.543  11
   4   1  -7 4468.04 470.014   8
  -4   1   7 4157.87 397.955   2
  -4   1   6 3652.97 373.598   3
  -4   1   6 4077.19 439.125   5
   4   1  -6 3885.17 393.047  11
  -4   1   6 3590.90 374.729   2
   4   1  -6 3179.51 385.422   8
  -4   1   5 6804.38 502.091   3
  -4   1   5 7084.45 549.562   5
   4   1  -5 8068.11 549.217  11
   4   1  -5 7110.95 543.068   8
  -4   1   5 7819.77 542.386   2
  -4   1   4 2815.77 304.083   3
  -4   1   4 3193.07 356.598   5
   4   1  -4 2459.51 310.072  11
   4   1  -4 3039.19 347.454   8
  -4   1   4 3056.18 336.238   2
   4   1  -3 2211.26 275.168  11
  -4   1   3 1655.01 249.793   2
  -4   1   3 1993.03 281.431   5
  -4   1   3 1881.13 233.325   3
  -4   1   3 1441.79 218.775   4
   4   1  -3 1810.99 254.014   8
   4   1  -2 1004.74 198.922  11
  -4   1   2 1448.89 244.665   2
  -4   1   2 1541.08 262.413   5
  -4   1   2 1421.36 200.101   3
  -4   1   2 1365.27 232.086   4
   4   1  -2 730.249 175.336   8
  -4   1   1 19419.6 852.510   5
  -4   1   1 18909.1 823.349   4
   4   1  -1 17900.8 809.367   8
   4   1  -1 17144.4 787.162  11
  -4   1   1 18103.4 842.478   2
  -4   1   1 17676.9 690.588   3
  -4   1   0 364.350 98.4410   6
  -4   1   0 512.407 156.236   2
   4   1   0 413.356 132.630  11
  -4   1   0 533.952 112.327   3
  -4   1   0 759.318 167.692   5
  -4   1   0 478.327 149.182   4
   4   1   0 698.780 167.859   8
  -4   1  -1 4522.26 378.143   5
  -4   1  -1 3889.13 368.142   4
   4   1   1 4331.12 369.435   8
  -4   1  -1 3967.22 383.336   2
   4   1   1 3866.33 358.012  11
  -4   1  -1 4487.65 342.605   6
  -4   1  -2 12332.4 630.647   5
   4   1   2 11408.5 501.783  10
   4   1   2 12419.8 657.576  11
  -4   1  -2 12460.5 687.523   4
   4   1   2 13026.5 664.827   8
  -4   1  -2 12035.1 665.393   2
  -4   1  -2 11695.8 586.532   6
  -4   1  -3 11423.5 591.272   5
   4   1   3 9833.84 595.225  11
   4   1   3 10523.8 504.869  10
  -4   1  -3 10481.7 654.458   4
   4   1   3 10804.2 614.495   8
  -4   1  -3 9444.91 594.290   2
  -4   1  -3 10008.6 556.095   6
  -4   1  -4 99.7110 92.7094   6
  -4   1  -4 72.6426 92.4991   5
   4   1   4 63.2570 77.6808  10
  -4   1  -4 107.250 112.890   4
   4   1   4 31.5851 103.231  11
  -4   1  -4 51.4573 87.0153   2
   4   1   4 177.370 102.665   8
  -4   1  -5 5370.86 391.318   5
   4   1   5 5004.93 437.435  11
   4   1   5 5063.86 385.423  10
   4   1   5 4684.76 399.376   9
  -4   1  -5 5604.48 506.045   4
   4   1   5 5441.16 455.435   8
  -4   1  -5 5493.96 438.197   2
  -4   1  -5 4781.12 405.498   6
  -4   1  -6 123.201 93.4054   6
  -4   1  -6 352.661 146.082   2
   4   1   6 73.4650 93.4343  10
   4   1   6 67.2108 97.9603  11
   4   1   6 268.005 124.938   9
  -4   1  -6 55.8094 162.874   4
   4   1   6 197.438 114.726   8
   4   1   7 4146.71 428.999  11
   4   1   7 4433.66 410.300  10
   4   1   7 4819.39 456.667   9
  -4   1  -7 5799.21 560.399   4
  -4   1  -7 4646.00 408.175   2
  -4   1  -7 5772.49 482.502   6
  -4   1  -8 1868.39 305.905   6
   4   1   8 2193.68 323.587  11
   4   1   8 2379.07 318.101  10
   4   1   8 2152.94 333.556   9
  -4   1  -8 1905.57 353.415   4
   4   1   9 7132.30 596.569  11
   4   1   9 7655.38 604.548  10
   4   1   9 7380.94 628.989   9
  -4   1  -9 7269.85 687.215   4
  -4   1  -9 7136.18 596.839   6
  -4   1 -10 99.9783 117.019   6
   4   1  10 135.685 155.755  11
   4   1  10 486.951 177.428  10
   4   1  10 218.265 194.143   9
  -4   1 -10 67.6427 193.318   4
  -4   1 -11 4035.42 481.951   6
   4   1  11 3733.19 462.546  11
   4   1  11 3368.17 451.685  10
   4   1  11 3561.96 488.189   9
  -4   1 -11 4451.26 587.856   4
  -4   1 -12 1069.32 282.602   6
   4   1  12 1276.59 295.635  11
   4   1  12 1998.97 370.929  10
   4   1  12 2135.66 403.383   9
  -4   1 -12 1511.25 388.678   4
  -4   1 -13 4168.91 547.828   6
   4   1  13 3531.48 539.389   9
   4   1  13 5186.83 592.935  11
  -4   2  14-91.4137 236.592   5
  -4   2  13 973.823 341.143   3
  -4   2  13 1041.31 324.684   5
   4   2 -13 950.020 360.011   8
  -4   2  12 210.838 186.800   5
  -4   2  12 87.0716 188.461   3
   4   2 -12 209.053 227.787   8
  -4   2  11 3343.47 500.986   5
  -4   2  11 3590.03 513.569   3
   4   2 -11 3919.52 579.445   8
  -4   2  10 2830.96 445.375   5
  -4   2  10 3055.20 453.617   3
   4   2 -10 2947.33 459.754   8
  -4   2   9 103.211 147.987   5
  -4   2   9-113.251 148.795   3
   4   2  -9 34.4623 150.591   8
  -4   2   8 558.294 164.377   2
  -4   2   8 849.294 249.452   5
  -4   2   8 768.160 246.534   3
   4   2  -8 991.376 250.479   8
  -4   2   7 475.684 155.738   2
   4   2  -7 581.620 189.772  11
  -4   2   7 428.555 188.553   5
  -4   2   7 431.430 180.978   3
   4   2  -7 548.830 211.248   8
  -4   2   6 3008.84 361.219   2
   4   2  -6 3738.31 416.206  11
  -4   2   6 3266.50 412.500   5
  -4   2   6 2787.94 363.824   3
   4   2  -6 3024.53 380.599   8
  -4   2   5 183.327 147.278   2
  -4   2   5 242.991 145.251   5
  -4   2   5 41.6417 93.8198   3
   4   2  -5-29.2953 113.782  11
   4   2  -5 10.8171 111.488   8
  -4   2   4 9448.07 648.177   5
   4   2  -4 8842.12 617.598  11
   4   2  -4 9505.19 623.899   8
  -4   2   4 9232.34 632.007   2
  -4   2   4 9862.41 633.139   3
  -4   2   3 2490.11 327.831   2
   4   2  -3 2934.32 346.345  11
  -4   2   3 2769.65 343.584   5
   4   2  -3 2829.82 322.745   8
  -4   2   3 3356.92 348.256   3
   4   2  -2 10619.5 637.505  11
  -4   2   2 9538.32 623.503   5
  -4   2   2 11109.3 603.182   4
   4   2  -2 11553.9 638.615   8
  -4   2   2 9532.42 656.929   2
  -4   2   2 10493.8 611.793   3
  -4   2   1 654.932 192.767   2
   4   2  -1 292.577 132.866  11
  -4   2   1 723.755 165.505   3
  -4   2   1 697.310 209.763   5
  -4   2   1 435.612 131.718   4
   4   2  -1 467.118 145.931   8
  -4   2   0 5326.71 428.526   5
   4   2   0 5172.15 433.884  11
  -4   2   0 5474.47 422.661   4
   4   2   0 5629.75 414.713   8
  -4   2   0 5532.80 482.351   2
  -4   2   0 4382.24 385.770   6
  -4   2   0 5021.97 388.424   3
  -4   2  -1 9263.17 556.366   5
   4   2   1 9976.72 603.565  11
  -4   2  -1 9049.75 562.250   4
   4   2   1 10145.1 560.502   8
  -4   2  -1 9567.86 640.116   2
  -4   2  -1 8764.84 557.806   6
  -4   2  -1 8958.94 509.944   3
  -4   2  -2 31400.9 1088.51   5
   4   2   2 29809.2 1137.53  11
   4   2   2 28370.6 1041.10  10
  -4   2  -2 29750.1 1141.13   4
   4   2   2 30705.3 1073.31   8
  -4   2  -2 31421.0 1231.51   2
  -4   2  -2 29663.8 1131.02   6
  -4   2  -3 13712.4 652.266   5
   4   2   3 13301.0 718.763  11
   4   2   3 13704.2 694.844  10
  -4   2  -3 13574.4 745.235   4
   4   2   3 14010.5 685.204   8
  -4   2  -3 13411.0 764.838   2
  -4   2  -3 13669.6 734.421   6
   4   2   4 21043.1 940.400  11
   4   2   4 22219.8 940.136  10
  -4   2  -4 20481.9 972.541   4
   4   2   4 21087.1 886.180   8
  -4   2  -4 20321.3 973.056   2
  -4   2  -4 21265.6 966.302   6
  -4   2  -5 1466.23 260.586   6
  -4   2  -5 1529.63 262.880   2
   4   2   5 1391.55 251.035  11
   4   2   5 1258.37 226.832  10
  -4   2  -5 1999.20 304.093   4
   4   2   5 1842.55 256.194   8
  -4   2  -6 3170.19 381.069   6
  -4   2  -6 2651.50 343.049   2
   4   2   6 3069.24 357.585  11
   4   2   6 3276.68 369.044  10
  -4   2  -6 2737.31 375.209   4
  -4   2  -7 2331.03 347.447   6
  -4   2  -7 2678.73 335.937   2
   4   2   7 2457.06 335.275  11
   4   2   7 2446.15 335.163  10
  -4   2  -7 2513.91 368.541   4
   4   2   8 5758.11 509.743  11
   4   2   8 5282.43 511.163  10
  -4   2  -8 5772.39 577.744   4
  -4   2  -8 5208.14 524.856   6
  -4   2  -9 247.944 160.999   6
   4   2   9 360.682 144.325  11
   4   2   9 640.483 204.519  10
  -4   2  -9 308.635 205.647   4
  -4   2 -10 310.898 189.595   6
   4   2  10 303.325 167.179  11
   4   2  10 991.735 253.455  10
  -4   2 -10 868.582 279.109   4
  -4   2 -11 1032.25 284.775   6
   4   2  11 855.104 240.394  11
   4   2  11 632.953 214.591  10
   4   2  11 685.692 235.761   9
  -4   2 -11 244.320 159.442   4
  -4   2 -12 1616.25 350.902   6
   4   2  12 1736.30 329.514  11
   4   2  12 1725.22 364.267  10
   4   2  12 2057.39 429.669   9
  -4   2 -12 1845.89 402.035   4
   4   2  13 586.191 276.957  10
   4   2  13 448.230 270.243   9
  -4   3  12-267.521 240.516   5
  -4   3  12-77.1738 182.219   3
   4   3 -12 37.6568 180.626   8
  -4   3  11 1191.75 343.283   5
  -4   3  11 1421.99 345.141   3
   4   3 -11 1117.96 334.404   8
  -4   3  10 2305.15 427.451   3
   4   3 -10 2395.46 420.026   8
  -4   3  10 2230.61 424.292   5
  -4   3   9 1715.04 354.514   3
  -4   3   9 1949.24 397.980   5
   4   3  -9 2700.72 435.720   8
  -4   3   8 3863.46 450.435   2
  -4   3   8 3450.82 479.183   5
  -4   3   8 3388.74 471.164   3
   4   3  -8 3089.81 437.329   8
  -4   3   7 3873.22 505.597   5
  -4   3   7 3228.62 443.569   3
  -4   3   7 4386.29 467.654   2
   4   3  -7 3503.73 444.372   8
  -4   3   6 2437.17 359.956   2
   4   3  -6 1309.95 285.278  11
  -4   3   6 1761.38 325.383   5
  -4   3   6 1520.38 287.845   3
   4   3  -6 1694.40 307.497   8
  -4   3   5 3722.72 433.665   2
  -4   3   5 3240.38 413.921   3
   4   3  -5 3586.88 427.706  11
  -4   3   5 3428.84 431.368   5
   4   3  -5 3766.07 417.089   8
   4   3  -4 1677.86 301.780  11
  -4   3   4 2157.84 335.080   2
  -4   3   4 2294.43 343.050   3
  -4   3   4 2361.80 343.604   5
   4   3  -4 2114.73 307.490   8
  -4   3   3 2377.16 365.076   2
   4   3  -3 2026.62 314.820  11
  -4   3   3 2078.06 309.111   3
  -4   3   3 2347.25 336.363   5
   4   3  -3 2403.33 315.604   8
  -4   3   2 521.415 193.835   2
   4   3  -2 380.794 158.146  11
  -4   3   2 588.530 185.012   3
  -4   3   2 278.677 140.384   5
   4   3  -2 606.816 162.004   8
  -4   3   1 3941.87 404.697   5
   4   3  -1 4845.00 456.817  11
  -4   3   1 4382.78 368.078   4
  -4   3   1 4125.21 462.439   2
  -4   3   1 3960.76 407.139   3
  -4   3   0 1382.21 240.776   6
  -4   3   0 792.662 227.964   2
  -4   3   0 1241.36 232.139   3
   4   3   0 1091.85 221.802  11
  -4   3   0 875.631 182.946   5
  -4   3   0 887.455 183.250   4
  -4   3  -1 6014.31 463.922   5
   4   3   1 6323.64 510.162  11
  -4   3  -1 5931.77 443.800   4
  -4   3  -1 6509.51 570.563   2
  -4   3  -1 6703.81 537.088   6
  -4   3  -1 6027.80 486.393   3
   4   3   2 8703.77 602.895  11
  -4   3  -2 8453.21 549.960   4
  -4   3  -2 8425.06 651.347   2
  -4   3  -2 7792.14 548.396   3
  -4   3  -2 8447.38 613.255   6
  -4   3  -3 1377.54 258.568   6
  -4   3  -3 1729.46 308.098   2
   4   3   3 1170.70 237.204  10
  -4   3  -3 1062.12 203.868   4
   4   3   3 1084.23 232.589  11
  -4   3  -4 313.415 168.606   6
  -4   3  -4 319.205 182.887   2
   4   3   4 291.225 142.956  11
   4   3   4 221.202 144.505  10
  -4   3  -4 190.872 125.472   4
   4   3   5 4058.00 414.057  11
   4   3   5 3848.31 441.658  10
  -4   3  -5 3977.12 422.180   4
  -4   3  -5 4052.63 447.806   2
  -4   3  -5 4025.41 456.110   6
  -4   3  -6-132.536 132.470   2
  -4   3  -6 21.0129 137.368   6
   4   3   6 157.990 113.703  11
   4   3   6 206.787 133.785  10
  -4   3  -6 88.1833 116.582   4
   4   3   7 5841.15 508.981  11
   4   3   7 5473.24 556.304  10
  -4   3  -7 4976.03 512.132   4
  -4   3  -7 5302.11 517.979   2
  -4   3  -7 5015.72 533.492   6
  -4   3  -8 2281.78 386.183   6
   4   3   8 2428.08 338.934  11
   4   3   8 2458.75 395.012  10
  -4   3  -8 2999.64 420.746   4
  -4   3  -9 2891.23 440.969   6
   4   3   9 3298.47 462.899  10
  -4   3  -9 2387.76 400.473   4
  -4   3 -10 499.550 224.925   6
   4   3  10 317.887 153.889  10
  -4   3 -10 232.959 183.913   4
  -4   3 -11 2827.66 463.607   6
   4   3  11 2296.63 420.690  10
   4   3  12 1210.86 332.084  10
   4   4 -11 1452.65 383.629   8
  -4   4  10 3231.20 532.579   5
  -4   4  10 3201.32 541.825   3
   4   4 -10 2896.48 482.649   8
  -4   4   9 726.857 308.374   3
  -4   4   9 1003.16 319.944   5
  -4   4   8 14112.9 1030.96   5
  -4   4   8 12468.4 898.482   2
  -4   4   8 12059.1 965.879   3
  -4   4   7 1590.31 349.570   5
  -4   4   7 1636.77 371.486   3
  -4   4   7 1631.27 332.310   2
  -4   4   6 3858.23 510.065   5
  -4   4   6 3120.97 479.253   3
  -4   4   6 3524.20 472.237   2
   4   4  -5 607.198 222.607  11
  -4   4   5 352.561 208.080   5
  -4   4   5 717.100 245.354   3
  -4   4   5 682.536 234.174   2
   4   4  -4 3348.49 441.391  11
  -4   4   4 3936.25 491.659   3
  -4   4   4 3638.19 460.397   5
  -4   4   4 3274.81 457.389   2
  -4   4   3 347.012 143.074   5
  -4   4   3 698.525 264.669   3
   4   4  -3 868.803 252.564  11
  -4   4   3 467.948 212.665   2
  -4   4   2 5875.77 549.180   5
   4   4  -2 5916.86 557.235  11
  -4   4   2 4861.15 555.406   2
  -4   4   2 5182.64 539.891   3
  -4   4   1 990.633 292.133   2
  -4   4   1 751.920 216.227   3
   4   4  -1 1053.22 247.033  11
  -4   4   1 1208.27 250.618   5
  -4   4   0 2137.65 373.970   2
  -4   4   0 1951.48 324.999   3
   4   4   0 2663.83 371.738  11
  -4   4   0 2663.42 375.078   6
  -4   4  -1 805.971 224.033   6
  -4   4  -1 831.476 221.404   3
   4   4   1 572.747 202.637  11
  -4   4  -1 534.226 217.350   2
  -4   4  -2 3425.73 435.114   6
  -4   4  -2 3486.25 415.295   3
   4   4   2 3738.92 425.123  11
  -4   4  -2 4200.10 509.213   2
  -4   4  -3 1537.41 310.334   6
  -4   4  -3 1322.62 264.729   3
   4   4   3 1681.36 286.792  11
  -4   4  -3 2119.27 368.801   2
   4   4   4 4320.52 514.689  10
  -4   4  -4 4844.17 548.363   2
   4   4   4 4862.39 472.079  11
  -4   4  -4 5541.18 562.815   6
  -4   4  -5 163.868 160.141   6
   4   4   5 7.91859 131.193  10
  -4   4  -5 91.3134 147.690   2
  -4   4  -6 2556.42 422.612   6
   4   4   6 2956.01 444.943  10
  -4   4  -6 2798.68 420.339   2
  -4   4  -7 795.890 276.434   6
   4   4   7 1038.64 280.873  10
  -4   4  -8 766.593 283.722   6
   4   4   8 916.070 275.624  10
  -4   4  -9 175.771 202.888   6
   4   4   9 358.352 209.281  10
   4   4  10 1651.11 407.881  10
  -4   5   7 2224.28 455.237   5
  -4   5   7 1383.34 383.900   3
  -4   5   7 2211.31 416.299   2
  -4   5   6 2464.86 447.774   5
  -4   5   6 2031.17 416.391   3
  -4   5   6 1861.24 403.742   2
  -4   5   5 2283.71 450.909   3
  -4   5   5 1985.63 394.348   5
  -4   5   5 2096.51 408.648   2
  -4   5   4 649.317 263.414   3
  -4   5   4 771.160 263.990   5
  -4   5   4 805.596 281.448   2
  -4   5   3 1363.40 329.137   3
   4   5  -3 1154.92 292.352  11
  -4   5   3 1180.40 287.308   5
  -4   5   3 1644.38 373.442   2
  -4   5   2 1368.85 318.799   3
   4   5  -2 912.777 256.690  11
  -4   5   2 919.352 305.937   2
   4   5  -1 4836.52 539.816  11
  -4   5   1 4621.06 559.175   3
  -4   5   1 4829.33 613.664   2
  -4   5   0 427.794 190.921   3
   4   5   0 34.5712 155.819  11
  -4   5   0 8.96673 203.010   2
  -4   5  -1 2018.91 372.791   3
  -4   5  -1 2195.34 427.467   2
  -4   5  -1 1786.68 352.365   6
  -4   5  -2 1039.68 269.199   6
  -4   5  -2 1939.51 366.088   3
  -4   5  -2 1613.19 371.622   2
  -4   5  -3 3981.52 516.128   6
  -4   5  -3 3837.37 493.900   3
  -4   5  -3 4513.80 579.785   2
  -4   5  -4 237.496 176.897   6
  -4   5  -4 294.637 208.817   2
  -4   5  -5 2077.34 392.168   6
  -4   5  -5 1941.11 384.146   2
  -4   5  -6-35.4495 186.414   6
   4   5   6 175.797 173.702  10
  -4   5  -6-77.8258 182.153   2
   4   5   7 2147.88 437.420  10
   5  -5  -5 3375.69 515.362   1
   5  -5  -4 679.642 262.840   1
  -5  -5   3 1671.05 375.671   5
  -5  -5   2 868.630 276.747   1
  -5  -5   2 401.878 229.482   5
  -5  -5   1 1574.22 386.078   1
  -5  -5   1 2524.22 480.559   5
  -5  -5   0 864.164 333.285   5
  -5  -5   0 905.735 335.342   1
   5  -5   0 508.757 206.141   7
  -5  -5  -1 1767.03 409.013   1
  -5  -5  -1 2139.32 452.020   5
   5  -5   1 2113.34 399.189   7
  -5  -5  -2 3588.09 573.973   5
   5  -4  -8 1062.85 330.943   1
   5  -4  -7 2833.21 474.129   1
   5  -4  -6 1448.11 338.456   1
  -5  -4   6 954.675 289.383   5
   5  -4  -5 346.848 220.874   1
  -5  -4   5 467.723 205.065   5
   5  -4  -4 2250.26 379.005   1
  -5  -4   4 2589.78 425.533   5
   5  -4  -3 2078.91 366.227   1
  -5  -4   3 1566.19 343.847   5
  -5  -4   2 2932.24 476.796   1
   5  -4  -2 3134.88 413.470   1
  -5  -4   2 3157.09 477.911   5
  -5  -4   1 679.479 271.476   1
  -5  -4   1 804.366 297.331   5
   5  -4  -1 140.295 120.601   8
   5  -4  -1 521.030 188.889   7
  -5  -4   0 6134.70 665.456   5
  -5  -4   0 5674.73 635.914   1
   5  -4   0 6139.31 585.542   8
   5  -4   0 6469.26 607.582   7
  -5  -4  -1 2199.69 413.417   1
  -5  -4  -1 1487.52 344.132   5
   5  -4   1 1224.46 282.227   8
   5  -4   1 1358.01 292.459   7
  -5  -4  -2 5803.41 665.417   5
  -5  -4  -2 6240.29 671.403   1
   5  -4   2 6658.86 631.412   8
   5  -4   2 6284.79 631.542   7
  -5  -4  -3 1397.31 336.069   1
  -5  -4  -3 2324.05 448.338   5
   5  -4   3 1940.98 347.117   8
   5  -4   3 1866.57 376.490   7
  -5  -4  -4 705.205 275.118   1
  -5  -4  -4 1121.16 321.176   5
   5  -4   4 994.401 275.910   8
   5  -4   4 1096.97 312.962   7
  -5  -4  -5 459.829 229.985   1
   5  -4   5 477.228 223.640   8
  -5  -4  -6 2937.31 488.643   1
   5  -4   6 2912.29 476.069   8
  -5  -4  -7 909.127 292.693   1
   5  -4   7 519.757 259.525   8
   5  -4   8 1657.48 389.309  11
  -5  -3  11 1141.77 335.230   3
  -5  -3  10 2709.60 448.693   3
   5  -3 -10 2662.05 475.060   1
  -5  -3   9 2347.98 412.052   3
   5  -3  -9 2239.67 431.694   1
   5  -3  -8 1397.42 334.707   1
   5  -3  -8 822.886 265.240   8
  -5  -3   7 3985.29 491.923   5
   5  -3  -7 4736.73 555.953   1
   5  -3  -7 3541.21 463.484   8
  -5  -3   6 810.545 241.496   5
   5  -3  -6 1102.60 262.270   8
   5  -3  -6 902.331 261.752   1
   5  -3  -5 5941.82 594.640   1
  -5  -3   5 4807.13 529.704   5
   5  -3  -5 5384.21 541.687   8
   5  -3  -4 349.401 168.752   1
  -5  -3   4 452.422 199.840   5
   5  -3  -4 404.576 175.212   8
   5  -3  -3 6476.65 589.687   1
  -5  -3   3 6323.16 614.144   5
   5  -3  -3 6707.78 591.669   8
  -5  -3   2 320.633 176.987   5
  -5  -3   2 560.927 179.238   4
   5  -3  -2 278.042 163.307   8
   5  -3  -2 408.069 197.015   7
  -5  -3   1 1464.89 326.253   1
  -5  -3   1 2315.16 396.708   5
  -5  -3   1 1660.08 272.079   4
   5  -3  -1 2046.20 327.198   8
   5  -3  -1 1707.28 285.616   7
  -5  -3   0 4548.23 525.084   1
  -5  -3   0 4406.47 524.230   5
  -5  -3   0 5079.10 465.837   4
   5  -3   0 5858.12 550.554   8
   5  -3   0 5076.86 499.586   7
  -5  -3  -1 10661.9 833.702   5
  -5  -3  -1 9632.87 662.119   4
  -5  -3  -1 10310.7 783.764   1
   5  -3   1 10368.2 755.879   8
   5  -3   1 9185.36 694.411   7
  -5  -3  -2 2930.16 445.376   5
  -5  -3  -2 1846.65 294.715   4
  -5  -3  -2 2785.59 456.293   1
   5  -3   2 2640.44 406.246   8
   5  -3   2 2312.26 359.751   7
   5  -3   3 10020.7 663.048  11
  -5  -3  -3 9801.43 801.827   5
  -5  -3  -3 9717.81 701.519   4
  -5  -3  -3 10318.6 792.605   1
   5  -3   3 9997.87 778.159   8
   5  -3   3 9287.23 732.793   7
  -5  -3  -4 422.180 186.384   1
  -5  -3  -4 830.273 265.766   5
  -5  -3  -4 787.972 228.625   4
   5  -3   4 802.120 216.738  11
   5  -3   4 393.391 201.272   8
   5  -3   4 423.287 219.401   7
   5  -3   5 4114.01 459.270  11
  -5  -3  -5 4026.44 509.516   1
  -5  -3  -5 3340.48 483.647   5
  -5  -3  -5 4815.68 529.583   4
   5  -3   5 3939.72 511.597   8
   5  -3   5 3583.38 489.759   7
   5  -3   6 457.180 178.980  11
  -5  -3  -6 392.684 196.256   1
  -5  -3  -6 228.741 175.189   5
  -5  -3  -6 353.279 199.744   4
   5  -3   6 283.290 216.898   8
   5  -3   6 164.158 199.383   7
   5  -3   7 3114.93 436.932  11
  -5  -3  -7 2536.76 426.219   1
  -5  -3  -7 2120.74 380.290   4
   5  -3   7 2748.65 467.342   8
   5  -3   7 2373.02 433.613   7
   5  -3   8 191.703 196.925  11
  -5  -3  -8-89.9785 150.441   1
  -5  -3  -8 85.6153 127.594   4
   5  -3   9 1603.98 352.627  11
  -5  -3  -9 1525.75 336.347   1
  -5  -3  -9 1060.72 295.118   4
  -5  -3 -10 926.144 315.673   4
   5  -2 -13 235.522 207.784   8
   5  -2 -12 755.822 252.577   1
  -5  -2  12 757.469 311.297   3
   5  -2 -12 816.806 306.747   8
  -5  -2  11 1382.81 346.471   3
   5  -2 -11 1438.04 348.814   8
   5  -2 -11 849.515 300.596   1
  -5  -2  10 1214.78 298.232   3
   5  -2 -10 818.943 286.440   8
   5  -2 -10 976.234 298.007   1
  -5  -2   9 443.087 185.466   5
   5  -2  -9 184.223 168.209   1
  -5  -2   9 578.258 230.707   3
   5  -2  -9 501.435 241.717   8
  -5  -2   8 1362.64 285.867   5
  -5  -2   8 1040.94 243.235   2
  -5  -2   8 1366.58 307.552   3
   5  -2  -8 925.439 280.317   8
  -5  -2   7 2091.22 336.543   5
  -5  -2   7 2521.83 355.875   2
  -5  -2   7 2265.46 339.546   3
   5  -2  -7 1624.44 317.591   8
  -5  -2   6 1798.10 330.600   5
  -5  -2   6 1658.27 277.844   3
   5  -2  -6 1620.03 317.612   8
  -5  -2   5 2096.32 347.132   5
  -5  -2   5 2233.33 294.340   3
   5  -2  -5 2438.95 365.369   8
  -5  -2   4 159.728 140.281   5
   5  -2  -4 542.305 194.750   8
   5  -2  -3 9761.79 698.589   8
  -5  -2   3 9987.37 729.892   5
  -5  -2   2 4265.09 480.785   5
  -5  -2   2 5060.09 463.838   4
   5  -2  -2 4491.97 467.861   8
   5  -2  -1 247.824 116.159  11
  -5  -2   1 319.862 170.061   5
  -5  -2   1 402.417 141.849   4
   5  -2  -1 153.110 129.572   8
   5  -2   0 5497.82 428.103  11
  -5  -2   0 4747.06 511.647   5
  -5  -2   0 4560.39 450.634   4
   5  -2   0 4749.27 477.439   8
   5  -2   1 43.0400 109.825  11
  -5  -2  -1 175.423 169.399   5
  -5  -2  -1 202.923 110.200   4
   5  -2   1-29.8424 139.360   8
  -5  -2  -2 1012.90 258.661   1
   5  -2   2 1186.46 220.877  11
  -5  -2  -2 1801.85 330.377   5
  -5  -2  -2 1316.12 253.152   4
   5  -2   2 1307.09 275.509   8
  -5  -2  -3 1562.54 298.608   1
   5  -2   3 1178.33 232.757  11
  -5  -2  -3 1255.86 290.646   5
  -5  -2  -3 1247.80 254.168   4
   5  -2   3 1476.29 297.832   8
  -5  -2  -4 2763.09 391.650   1
   5  -2   4 3041.66 366.639  11
  -5  -2  -4 2545.34 376.372   5
  -5  -2  -4 2968.31 403.825   4
   5  -2   4 3367.77 437.028   8
   5  -2   5 874.528 226.684  11
  -5  -2  -5 589.888 229.154   5
  -5  -2  -5 782.755 246.304   4
  -5  -2  -5 819.245 240.781   1
   5  -2   5 579.446 210.637   8
   5  -2   6 4749.46 497.610  11
  -5  -2  -6 5896.78 592.966   5
  -5  -2  -6 4811.82 549.079   4
  -5  -2  -6 4945.28 519.120   1
   5  -2   6 5284.06 574.674   8
  -5  -2  -6 4881.65 476.722   2
   5  -2   7 11.7294 120.680  11
  -5  -2  -7 261.340 175.373   1
  -5  -2  -7 270.551 189.103   5
  -5  -2  -7 132.359 149.406   4
   5  -2   7-100.777 200.220   8
   5  -2   8 2055.51 370.358  11
  -5  -2  -8 1868.82 331.057   1
  -5  -2  -8 2006.44 371.688   5
  -5  -2  -8 2049.02 397.809   4
   5  -2   9 30.0138 157.283  11
  -5  -2  -9 688.908 249.458   5
  -5  -2  -9 394.392 244.225   4
   5  -2  10 6735.99 694.176  11
  -5  -2 -10 6099.54 699.608   4
  -5  -2 -11-243.669 235.931   4
   5  -1 -13 109.437 138.781   1
   5  -1 -13 204.557 207.150   8
  -5  -1  12 1446.45 358.218   3
   5  -1 -12 1228.38 323.907   1
   5  -1 -12 1256.74 357.510   8
  -5  -1  11 2731.44 416.877   5
  -5  -1  11 1633.54 345.075   3
   5  -1 -11 2785.22 475.008   8
  -5  -1  10 2048.39 363.047   5
  -5  -1  10 1870.87 334.338   3
   5  -1 -10 1693.67 376.993   8
  -5  -1   9 3456.43 450.113   5
  -5  -1   9 2162.91 356.074   3
   5  -1  -9 3176.18 464.048   8
  -5  -1   8 1707.15 324.369   5
  -5  -1   8 1401.48 264.654   2
  -5  -1   8 1071.86 260.462   3
   5  -1  -8 1208.86 295.452   8
  -5  -1   7 4850.70 474.855   3
  -5  -1   7 3823.12 463.675   5
   5  -1  -7 4712.17 524.569   8
  -5  -1   7 4140.34 434.562   2
  -5  -1   6 1917.20 329.740   5
  -5  -1   6 2095.35 307.794   2
  -5  -1   6 2606.85 338.993   3
   5  -1  -6 2352.26 373.658   8
  -5  -1   5 6342.13 495.541   3
   5  -1  -5 6359.19 475.952  11
  -5  -1   5 6281.11 569.305   5
   5  -1  -5 6137.57 550.679   8
  -5  -1   5 6204.55 517.153   2
   5  -1  -4 1216.12 207.572  11
  -5  -1   4 623.558 198.164   5
  -5  -1   4 924.108 226.637   2
   5  -1  -4 945.510 246.858   8
   5  -1  -3 7872.75 513.711  11
  -5  -1   3 7787.01 618.429   5
  -5  -1   3 7917.74 593.580   4
   5  -1  -3 7357.81 590.956   8
  -5  -1   3 7380.36 574.790   2
   5  -1  -2 689.274 169.829  11
  -5  -1   2 937.541 248.389   5
  -5  -1   2 903.621 218.885   2
  -5  -1   2 1025.78 209.958   4
   5  -1  -2 828.593 221.439   8
  -5  -1   1 6537.52 565.871   5
  -5  -1   1 6256.05 515.769   4
   5  -1  -1 6033.58 527.773   8
   5  -1  -1 6046.90 450.076  11
  -5  -1   1 5716.22 503.929   2
   5  -1   0 3878.54 367.540  11
  -5  -1   0 4047.52 444.585   5
  -5  -1   0 3857.38 410.760   4
   5  -1   0 3908.38 426.256   8
  -5  -1   0 3697.54 402.965   2
   5  -1   1 8723.71 577.744  11
  -5  -1  -1 10966.7 730.654   5
  -5  -1  -1 8542.83 638.584   4
   5  -1   1 9546.18 678.956   8
  -5  -1  -1 9580.99 646.071   2
   5  -1   2 4832.78 431.787  11
  -5  -1  -2 4976.89 489.187   5
  -5  -1  -2 4089.64 447.128   4
   5  -1   2 4746.43 486.249   8
  -5  -1  -2 4985.54 466.484   2
   5  -1   3 16314.3 845.186  11
  -5  -1  -3 15236.4 888.945   5
  -5  -1  -3 16003.7 923.259   4
   5  -1   3 16903.2 945.189   8
  -5  -1  -3 16640.9 879.434   2
  -5  -1  -4 1458.87 284.761   5
  -5  -1  -4 1244.82 243.090   2
  -5  -1  -4 757.109 230.491   4
   5  -1   4 1044.83 226.700  11
   5  -1   4 1247.66 271.357   8
   5  -1   5 4429.66 457.187  11
  -5  -1  -5 4904.10 492.859   5
  -5  -1  -5 4556.73 451.934   1
   5  -1   5 4881.75 516.753   8
  -5  -1  -5 4044.20 481.293   4
  -5  -1  -5 4034.75 423.098   2
  -5  -1  -6 87.9405 104.621   1
   5  -1   6 275.510 163.333  11
  -5  -1  -6 0.36133 97.9940   2
  -5  -1  -6 179.387 154.434   5
  -5  -1  -6 189.730 184.186   4
   5  -1   6 203.083 165.189   8
  -5  -1  -7 4204.74 467.323   5
   5  -1   7 3351.75 439.587  11
  -5  -1  -7 3767.30 496.616   4
   5  -1   7 3868.13 488.655   8
   5  -1   8 233.425 163.608  11
  -5  -1  -8 252.319 198.167   4
   5  -1   9 3249.12 447.237  11
  -5  -1  -9 3259.61 487.110   4
   5  -1  10-238.000 181.863  11
  -5  -1 -10 81.1459 182.307   4
   5  -1  11 1083.41 309.013  11
  -5  -1 -11 155.580 197.747   4
  -5   0  13 4890.50 598.191   5
  -5   0  13 5377.72 689.039   3
   5   0 -13 5176.74 700.443   8
  -5   0  12 2027.04 391.467   5
  -5   0  12 2535.69 471.625   3
   5   0 -12 2974.12 517.883   8
  -5   0  11 187.440 166.730   5
  -5   0  11 93.8268 146.905   3
   5   0 -11 338.188 261.910   8
  -5   0  10 133.013 150.305   5
  -5   0  10 23.6208 137.932   3
   5   0 -10-95.7193 185.097   8
  -5   0   9 9430.06 744.820   3
  -5   0   9 8044.50 696.475   5
   5   0  -9 9860.71 804.661   8
   5   0  -8 2343.79 335.858  11
  -5   0   8 1739.72 329.230   5
  -5   0   8 1916.99 326.976   3
   5   0  -8 2193.62 390.592   8
  -5   0   8 3062.53 376.734   2
  -5   0   7 3773.09 439.992   3
   5   0  -7 3196.83 381.961  11
  -5   0   7 4042.38 477.273   5
   5   0  -7 4662.02 523.538   8
  -5   0   7 3983.21 423.724   2
   5   0  -6 356.493 146.580  11
  -5   0   6 211.812 122.218   2
  -5   0   6 589.589 207.418   5
  -5   0   6 618.753 190.665   3
   5   0  -6 572.454 223.862   8
   5   0  -5 434.352 154.956  11
  -5   0   5 241.383 131.630   2
  -5   0   5 891.048 237.033   5
  -5   0   5 454.758 163.373   3
   5   0  -5 791.347 240.377   8
  -5   0   4 9307.91 564.148   3
  -5   0   4 9132.10 673.932   5
   5   0  -4 8556.79 576.420  11
   5   0  -4 8904.33 654.842   8
  -5   0   4 8556.12 615.895   2
   5   0  -3 1102.48 208.995  11
  -5   0   3 1350.53 250.173   2
  -5   0   3 1346.60 261.518   5
  -5   0   3 1487.51 255.238   4
   5   0  -3 1298.38 246.961   8
   5   0  -2 3095.90 336.033  11
  -5   0   2 3061.52 359.755   2
  -5   0   2 2488.12 345.273   5
  -5   0   2 2370.48 321.721   4
   5   0  -2 2845.12 355.589   8
   5   0  -1 359.716 137.779  11
  -5   0   1 177.708 114.069   2
  -5   0   1 125.893 117.140   5
  -5   0   1 269.083 135.487   4
   5   0  -1 487.692 175.774   8
  -5   0   0 13827.0 785.080   5
   5   0   0 11878.4 680.646  11
  -5   0   0 12869.3 765.300   4
   5   0   0 12388.6 751.230   8
  -5   0   0 11806.9 723.484   2
   5   0   1 1119.82 218.966  11
  -5   0  -1 1035.18 227.547   2
  -5   0  -1 1254.43 239.526   5
  -5   0  -1 1254.27 249.531   4
   5   0   1 1192.73 236.228   8
  -5   0  -2 13412.0 772.624   5
   5   0   2 13037.0 737.441  11
  -5   0  -2 13530.9 816.726   4
   5   0   2 13369.3 802.647   8
  -5   0  -2 13906.8 779.908   2
   5   0   3 1787.90 282.800  11
  -5   0  -3 1204.06 241.423   2
  -5   0  -3 1406.11 241.378   5
  -5   0  -3 1325.14 275.957   4
   5   0   3 1633.33 283.282   8
   5   0   4 438.249 161.318  11
  -5   0  -4 512.775 168.884   2
  -5   0  -4 546.451 167.141   5
  -5   0  -4 233.315 155.399   4
   5   0   4 646.027 187.266   8
   5   0   5 169.478 149.728  11
  -5   0  -5 294.224 151.913   2
  -5   0  -5 387.260 160.024   5
  -5   0  -5 298.954 178.039   4
   5   0   5 80.2567 123.646   8
   5   0   6 4962.95 506.092  11
  -5   0  -6 6289.65 519.570   5
  -5   0  -6 5189.08 563.348   4
   5   0   6 6110.84 571.103   8
  -5   0  -6 6654.99 534.072   2
   5   0   7 579.347 197.906  11
  -5   0  -7 109.579 146.062   4
   5   0   7 904.504 243.827   8
   5   0   8 1438.02 299.283  11
  -5   0  -8 1384.08 327.737   4
   5   0   8 1691.47 329.269   8
   5   0   9-132.120 181.464  11
  -5   0  -9 150.714 183.852   4
   5   0  10 3640.65 484.397  11
  -5   0 -10 4428.35 595.043   4
   5   0  11 431.020 211.731  11
  -5   0 -11 979.433 347.118   4
  -5   1  13 196.819 212.719   5
  -5   1  12 1577.13 369.767   5
  -5   1  12 1895.19 406.841   3
   5   1 -12 1120.28 373.483   8
  -5   1  11 1963.50 391.566   5
  -5   1  11 1848.89 376.389   3
   5   1 -11 2744.33 495.781   8
  -5   1  10 1703.59 366.503   5
  -5   1  10 2251.99 393.731   3
   5   1 -10 2266.25 434.079   8
  -5   1   9 2822.67 427.271   5
  -5   1   9 3001.78 434.034   3
   5   1  -9 2663.09 438.452   8
  -5   1   8 1346.13 262.211   2
   5   1  -8 1755.39 320.830  11
  -5   1   8 1698.75 332.379   5
  -5   1   8 1209.54 275.042   3
   5   1  -8 713.721 250.546   8
  -5   1   7 5175.84 511.490   3
  -5   1   7 4616.34 515.849   5
   5   1  -7 4078.39 466.923  11
  -5   1   7 5214.64 497.407   2
   5   1  -7 4192.94 502.986   8
  -5   1   6 2647.86 358.817   2
   5   1  -6 1911.85 313.174  11
  -5   1   6 1786.80 327.371   5
  -5   1   6 2220.25 320.997   3
   5   1  -6 1963.54 338.368   8
  -5   1   5 6477.62 517.267   3
  -5   1   5 6235.56 573.379   5
   5   1  -5 6089.63 533.713  11
   5   1  -5 6330.53 577.517   8
  -5   1   5 6751.45 564.374   2
  -5   1   4 1150.78 255.389   2
   5   1  -4 982.296 220.630  11
  -5   1   4 829.350 218.640   5
  -5   1   4 835.446 189.255   3
   5   1  -4 849.068 231.606   8
  -5   1   3 6755.17 481.318   3
  -5   1   3 7491.97 599.462   5
   5   1  -3 7205.95 552.899  11
  -5   1   3 7430.83 563.052   4
   5   1  -3 7052.29 569.145   8
  -5   1   3 7291.60 581.268   2
   5   1  -2 758.309 197.623  11
  -5   1   2 1366.44 254.977   2
  -5   1   2 982.030 227.991   5
  -5   1   2 1221.25 245.006   4
   5   1  -2 1095.61 235.511   8
  -5   1   1 5775.24 507.828   5
   5   1  -1 5859.27 488.354  11
  -5   1   1 7021.29 545.751   4
   5   1  -1 6511.96 517.862   8
  -5   1   1 6379.36 540.463   2
  -5   1   0 4250.51 418.361   5
   5   1   0 3511.64 381.234  11
  -5   1   0 3931.49 412.244   4
   5   1   0 3885.36 400.603   8
  -5   1   0 3682.47 415.352   2
  -5   1  -1 9453.85 632.711   5
   5   1   1 10018.2 650.716  11
  -5   1  -1 9079.30 643.817   4
   5   1   1 8730.40 616.564   8
  -5   1  -1 8590.16 630.079   2
  -5   1  -1 9689.48 546.851   6
  -5   1  -2 4877.16 440.024   5
   5   1   2 4818.70 452.201  11
  -5   1  -2 5140.03 489.917   4
   5   1   2 5777.52 503.971   8
  -5   1  -2 4960.17 465.156   2
  -5   1  -2 5382.34 409.737   6
  -5   1  -3 13978.7 773.208   5
   5   1   3 17521.3 896.230  11
  -5   1  -3 16871.2 927.913   4
   5   1   3 16545.2 874.960   8
  -5   1  -3 16270.2 871.454   2
  -5   1  -3 17292.2 792.569   6
  -5   1  -4 736.912 169.456   6
  -5   1  -4 719.932 197.896   2
   5   1   4 1002.51 226.541  11
  -5   1  -4 779.079 199.463   5
  -5   1  -4 676.388 214.113   4
   5   1   4 536.082 176.960   8
   5   1   5 3404.53 408.585  11
  -5   1  -5 4935.57 518.305   4
   5   1   5 4484.50 462.109   8
  -5   1  -5 4419.24 444.465   2
  -5   1  -5 4092.05 403.022   6
  -5   1  -6-56.3442 100.108   6
  -5   1  -6 407.530 157.122   2
   5   1   6 267.690 160.973  11
  -5   1  -6 162.539 167.335   4
   5   1   6 66.0899 105.727   8
   5   1   7 3303.80 419.760  11
  -5   1  -7 4496.14 530.888   4
   5   1   7 2887.76 386.439   8
  -5   1  -7 4219.43 434.456   6
   5   1   8-263.680 162.060  11
  -5   1  -8 193.440 170.165   4
   5   1   8 76.8247 110.664   8
   5   1   9 3282.83 447.962  11
  -5   1  -9 3003.50 457.181   4
   5   1   9 4169.55 489.542   8
   5   1  10 308.631 184.890  11
  -5   1 -10-163.488 176.823   4
   5   1  10-70.7736 129.083   8
   5   1  11 645.976 248.733  11
  -5   1 -11 1171.89 349.586   4
  -5   2  12 1467.53 398.231   5
  -5   2  12 814.666 318.884   3
  -5   2  11 556.333 276.585   5
  -5   2  11 1006.04 299.848   3
   5   2 -11 937.416 326.004   8
  -5   2  10 1322.63 343.032   5
  -5   2  10 1635.21 355.719   3
   5   2 -10 1080.79 312.663   8
  -5   2   9 667.289 233.013   5
  -5   2   9 344.917 193.499   3
   5   2  -9 259.044 172.694   8
  -5   2   8 1376.75 290.781   2
   5   2  -8 1010.77 274.267  11
  -5   2   8 1002.86 291.664   5
  -5   2   8 1051.68 275.534   3
   5   2  -8 1253.43 307.512   8
  -5   2   7 1763.55 304.855   2
   5   2  -7 2355.57 377.314  11
  -5   2   7 1606.46 345.914   5
  -5   2   7 1680.34 317.877   3
   5   2  -7 2268.68 377.564   8
  -5   2   6 1885.99 330.407   2
   5   2  -6 1596.06 319.382  11
  -5   2   6 1761.26 341.440   5
  -5   2   6 1958.54 327.752   3
   5   2  -6 1638.27 318.484   8
  -5   2   5 2198.69 345.969   2
   5   2  -5 1908.85 338.220  11
  -5   2   5 2052.77 332.726   5
  -5   2   5 2120.63 315.250   3
   5   2  -5 1896.42 327.366   8
  -5   2   4 269.530 145.943   2
   5   2  -4 203.359 144.500  11
  -5   2   4 115.282 123.078   5
  -5   2   4 327.621 144.565   3
   5   2  -4 368.515 162.009   8
  -5   2   3 8643.78 666.271   5
   5   2  -3 10846.9 720.334  11
   5   2  -3 9075.70 653.748   8
  -5   2   3 8983.14 682.746   2
  -5   2   3 8708.56 600.368   3
  -5   2   2 4436.76 467.732   5
   5   2  -2 4856.66 478.096  11
  -5   2   2 4512.97 430.884   4
   5   2  -2 4367.57 433.421   8
  -5   2   2 4530.13 484.000   2
  -5   2   1 214.157 143.093   2
   5   2  -1 425.151 193.917  11
  -5   2   1 177.630 155.502   5
  -5   2   1 510.386 168.368   4
   5   2  -1 388.658 163.295   8
  -5   2   0 4715.69 448.621   5
   5   2   0 4318.25 447.775  11
  -5   2   0 4006.30 422.472   4
   5   2   0 4967.53 447.039   8
  -5   2   0 4778.46 486.037   2
  -5   2  -1 64.3304 91.9724   6
  -5   2  -1 277.735 169.204   2
   5   2   1 156.095 132.848  11
  -5   2  -1 186.118 139.257   5
  -5   2  -1 25.1905 97.7469   4
   5   2   1 124.442 102.001   8
  -5   2  -2 1576.00 261.622   6
  -5   2  -2 1146.53 243.085   2
   5   2   2 1704.43 291.042  11
  -5   2  -2 1282.26 237.219   5
  -5   2  -2 1164.66 241.662   4
   5   2   2 1309.92 238.370   8
  -5   2  -3 1220.61 238.480   6
  -5   2  -3 1467.27 282.101   2
   5   2   3 1050.89 246.762  11
  -5   2  -3 1183.83 245.318   4
   5   2   3 1303.11 252.324   8
  -5   2  -4 2662.19 340.358   6
  -5   2  -4 2300.21 340.778   2
   5   2   4 3017.99 390.633  11
  -5   2  -4 2707.02 375.658   4
   5   2   4 2836.34 348.327   8
  -5   2  -5 954.322 234.539   6
  -5   2  -5 511.329 172.773   2
   5   2   5 609.529 211.314  11
  -5   2  -5 904.667 240.702   4
   5   2   6 4924.41 503.504  11
  -5   2  -6 4926.69 525.729   4
  -5   2  -6 4832.90 498.081   2
  -5   2  -6 5635.44 529.551   6
  -5   2  -7 172.156 157.860   6
   5   2   7 302.335 178.508  11
  -5   2  -7 101.964 158.897   4
  -5   2  -8 2139.03 345.226   6
   5   2   8 1792.03 336.377  11
  -5   2  -8 1674.32 351.081   4
  -5   2  -9 635.364 217.990   6
   5   2   9 441.953 206.617  11
  -5   2  -9 499.757 239.252   4
   5   2  10 5067.74 565.576  11
  -5   2 -10 5977.69 673.872   4
  -5   2 -10 5234.82 585.718   6
   5   2  11-52.5865 128.047  11
  -5   2 -11-178.003 210.238   4
   5   3 -11 671.869 300.688   8
  -5   3  10 2016.67 432.251   5
  -5   3  10 2038.41 429.446   3
   5   3 -10 2405.73 463.445   8
  -5   3   9 1943.24 407.010   5
  -5   3   9 2185.89 413.616   3
   5   3  -9 2365.67 444.974   8
  -5   3   8 618.635 229.787   2
  -5   3   8 1378.60 341.809   5
  -5   3   8 970.138 298.192   3
   5   3  -8 1766.27 354.965   8
  -5   3   7 3581.63 468.454   2
   5   3  -7 3104.97 465.700  11
  -5   3   7 3423.84 494.400   5
  -5   3   7 3725.99 489.926   3
   5   3  -7 4143.31 507.595   8
  -5   3   6 769.092 235.174   2
   5   3  -6 937.409 285.982  11
  -5   3   6 966.758 265.191   5
  -5   3   6 1114.07 269.664   3
   5   3  -6 817.186 245.907   8
  -5   3   5 4700.11 526.863   2
  -5   3   5 5205.64 562.034   5
   5   3  -5 5463.57 574.678  11
   5   3  -5 5941.96 576.614   8
  -5   3   5 6238.13 595.914   3
  -5   3   4 230.104 149.689   2
   5   3  -4 289.726 189.771  11
  -5   3   4 236.550 157.233   3
  -5   3   4 483.935 226.211   5
   5   3  -4 207.700 152.867   8
  -5   3   3 6989.38 619.494   5
   5   3  -3 6829.70 622.497  11
   5   3  -3 6827.47 576.274   8
  -5   3   3 6646.07 639.045   2
  -5   3   3 6481.56 582.370   3
  -5   3   2 346.680 203.464   2
  -5   3   2 394.857 156.150   3
   5   3  -2 288.043 178.555  11
  -5   3   2 504.236 186.275   5
  -5   3   1 1195.08 291.911   2
   5   3  -1 2249.23 352.576  11
  -5   3   1 1462.96 273.793   5
  -5   3   1 1908.85 279.439   4
  -5   3   0 3792.05 477.676   2
  -5   3   0 4831.22 470.353   5
   5   3   0 4726.92 492.946  11
  -5   3   0 5448.01 472.251   4
   5   3   1 11011.9 750.410  11
  -5   3  -1 10275.5 670.909   4
  -5   3  -1 11338.6 816.420   2
  -5   3  -1 9866.71 699.785   6
  -5   3  -2 2050.90 321.497   6
  -5   3  -2 2070.27 346.137   2
   5   3   2 2681.46 368.133  11
  -5   3  -2 1997.25 305.728   4
   5   3   3 10744.5 744.202  11
  -5   3  -3 10033.0 693.814   4
  -5   3  -3 9859.58 768.086   2
  -5   3  -3 10214.4 732.954   6
  -5   3  -4 309.452 156.685   6
  -5   3  -4 301.822 184.652   2
   5   3   4 576.693 202.113  11
  -5   3  -4 522.947 186.580   4
  -5   3  -5 3138.51 420.096   6
  -5   3  -5 3856.10 472.471   2
   5   3   5 3272.25 419.596  11
  -5   3  -5 4125.57 460.104   4
  -5   3  -6 346.811 178.690   6
   5   3   6 136.169 145.933  11
  -5   3  -6 361.924 195.140   4
  -5   3  -7 2858.67 432.274   6
   5   3   7 2411.23 375.505  11
  -5   3  -7 2868.61 425.883   4
  -5   3  -8 71.5045 180.810   6
   5   3   8 319.604 198.859  11
  -5   3  -8 261.009 181.130   4
  -5   3  -9 1462.34 331.265   6
   5   3   9 1402.47 312.631  11
  -5   3 -10 180.307 178.831   6
  -5   4   8 856.986 308.001   5
  -5   4   8 517.679 237.138   3
  -5   4   8 1303.97 327.103   2
  -5   4   7 1955.94 405.861   5
  -5   4   7 2189.23 426.724   3
  -5   4   7 3104.18 475.678   2
  -5   4   6 665.821 237.653   2
   5   4  -6 1196.45 334.731  11
  -5   4   6 827.443 272.941   5
  -5   4   6 672.989 245.599   3
  -5   4   5 149.567 162.031   2
   5   4  -5 181.697 151.579  11
  -5   4   5-120.762 131.867   3
  -5   4   5-48.0601 175.326   5
  -5   4   4 1741.53 352.880   2
   5   4  -4 2198.13 392.243  11
  -5   4   4 2247.65 390.281   3
  -5   4   4 2544.94 422.038   5
  -5   4   3 2005.01 385.809   2
  -5   4   3 2025.13 373.562   3
   5   4  -3 1656.44 345.967  11
  -5   4   3 2174.43 380.696   5
  -5   4   2 2753.20 453.750   2
  -5   4   2 2303.65 367.391   3
   5   4  -2 1839.43 354.968  11
  -5   4   2 2249.04 361.078   5
  -5   4   1 236.262 183.242   2
   5   4  -1 175.750 185.992  11
   5   4   0 6174.68 612.955  11
  -5   4   0 5870.80 636.956   2
  -5   4  -1 1587.36 358.962   2
   5   4   1 694.169 213.990  11
  -5   4  -1 1521.09 331.209   6
   5   4   2 7052.65 631.448  11
  -5   4  -2 7026.95 703.390   2
  -5   4  -2 6410.06 617.180   6
  -5   4  -3 1695.08 341.137   6
  -5   4  -3 1936.77 388.176   2
   5   4   3 1458.86 289.542  11
  -5   4  -4 486.598 218.095   2
  -5   4  -4 1156.63 286.000   6
   5   4   4 1290.39 280.181  11
  -5   4  -5 252.528 171.317   2
  -5   4  -5 479.163 223.411   6
   5   4   5 684.053 220.473  11
  -5   4  -6 2855.31 444.748   6
  -5   4  -6 2368.43 420.061   2
  -5   4  -7 532.212 235.951   6
  -5   5   5 2808.43 495.830   3
  -5   5   5 2816.53 482.769   5
  -5   5   4 1198.18 355.753   3
   5   5  -4 669.859 281.335  11
  -5   5   4 1536.61 362.482   5
  -5   5   4 893.621 297.342   2
  -5   5   3 1511.15 356.160   3
   5   5  -3 2085.31 397.934  11
  -5   5   3 2103.29 453.233   2
  -5   5   2 668.691 248.078   3
   5   5  -2 642.825 248.909  11
  -5   5   2 1239.21 342.601   2
  -5   5   1 1695.24 344.430   3
   5   5  -1 947.168 290.178  11
  -5   5   1 2433.89 461.614   2
   5   5   0 1088.76 280.682  11
  -5   5   0 694.465 303.868   2
   5   5   1 2201.85 396.080  11
  -5   5  -1 1531.46 380.652   2
  -5   5  -2 3747.74 507.652   6
  -5   5  -2 2977.39 520.671   2
  -6  -4   6 4405.25 584.777   5
  -6  -4   5 1890.68 414.702   5
   6  -4  -5 1835.07 371.224   1
   6  -4  -4 6671.41 696.237   1
  -6  -4   4 9016.34 847.976   5
  -6  -4   3 484.694 262.917   5
   6  -4  -3 545.743 202.309   1
  -6  -4   2 1754.93 428.882   5
   6  -4  -2 2009.77 380.296   8
  -6  -4   1 774.589 330.832   5
   6  -4  -1 930.236 268.813   8
  -6  -4   0 2888.16 501.210   5
   6  -4   0 2900.94 462.117   8
   6  -4   0 1967.44 377.863   7
  -6  -4  -1 6145.84 728.692   5
  -6  -4  -1 6543.05 723.392   1
   6  -4   1 5333.27 621.539   8
   6  -4   1 5012.30 587.543   7
  -6  -4  -2 7509.98 812.083   5
  -6  -4  -2 6233.79 715.176   1
   6  -4   2 7249.48 722.064   8
   6  -4   3 532.045 237.773   8
   6  -4   4 1575.14 392.413   8
  -6  -3   8 999.934 304.589   5
  -6  -3   8 1352.99 328.126   2
   6  -3  -8 955.987 311.907   8
   6  -3  -8 1193.08 346.924   1
  -6  -3   7 1705.88 370.559   5
   6  -3  -7 1055.77 287.989   1
   6  -3  -7 761.720 277.736   8
   6  -3  -6 1550.62 370.299   1
  -6  -3   6 1540.18 352.743   5
   6  -3  -6 2203.93 396.372   8
   6  -3  -5-138.768 151.067   1
  -6  -3   5 452.192 205.104   5
   6  -3  -5 307.184 229.444   8
  -6  -3   4 3768.62 520.629   5
   6  -3  -4 3841.17 510.234   8
  -6  -3   3 4491.68 580.134   5
   6  -3  -3 4536.45 545.346   8
  -6  -3   2 1026.45 292.700   5
   6  -3  -2 1436.24 320.907   8
  -6  -3   1 3496.96 531.349   5
  -6  -3   1 2146.66 346.736   4
   6  -3  -1 3295.30 467.931   8
   6  -3  -1 2290.54 362.341   7
  -6  -3   0 1670.14 362.020   5
  -6  -3   0 1442.57 283.942   4
   6  -3   0 2020.29 383.141   8
  -6  -3  -1 2303.75 412.683   5
  -6  -3  -1 2663.61 389.791   4
   6  -3   1 3271.44 473.212   8
  -6  -3  -2 645.785 253.355   1
  -6  -3  -2 423.412 244.296   5
  -6  -3  -2 855.838 234.041   4
   6  -3   2 406.962 201.932   8
  -6  -3  -3 2405.38 424.559   1
  -6  -3  -3 2253.41 429.577   5
  -6  -3  -3 2774.30 413.619   4
   6  -3   3 2552.41 433.138   8
  -6  -3  -4-60.6474 143.839   1
  -6  -3  -4-62.5316 177.053   5
  -6  -3  -4-74.7581 155.809   4
   6  -3   4-234.879 239.532   8
   6  -3   4-525.712 223.903   7
  -6  -3  -5 1448.19 342.765   1
   6  -3   5 1404.66 294.629  11
  -6  -3  -5 2026.32 425.531   5
  -6  -3  -5 2016.11 370.028   4
   6  -3   5 2022.93 411.077   8
  -6  -3  -6 531.912 243.865   1
   6  -3   6 456.967 218.580  11
  -6  -3  -6 650.263 294.968   5
  -6  -3  -6 399.494 163.255   4
   6  -3   6 820.635 316.050   8
  -6  -3  -7 1203.95 313.766   1
   6  -3   7 2441.72 417.792  11
  -6  -3  -7 1851.78 416.649   5
  -6  -3  -7 1819.12 389.542   4
  -6  -3  -8 90.1636 190.666   1
  -6  -3  -8-33.8144 220.831   4
  -6  -2  11 676.557 238.630   3
  -6  -2  10 2937.47 473.431   5
  -6  -2  10 2558.78 420.021   3
   6  -2 -10 2399.99 468.462   8
  -6  -2   9 481.696 244.066   5
   6  -2  -9 1048.44 336.599   8
  -6  -2   8 1055.86 294.795   5
  -6  -2   8 959.723 264.249   2
   6  -2  -8 1383.98 354.574   8
  -6  -2   7 1867.67 372.374   5
  -6  -2   7 1755.51 334.127   2
   6  -2  -7 1153.04 317.720   8
  -6  -2   6 3158.85 465.377   5
  -6  -2   6 3630.96 463.918   2
   6  -2  -6 3666.94 508.223   8
  -6  -2   5 392.760 223.468   5
  -6  -2   5 702.876 237.456   2
   6  -2  -5 775.900 251.232   8
  -6  -2   4 1691.09 353.964   5
  -6  -2   4 1923.18 349.783   2
   6  -2  -4 3017.02 441.756   8
  -6  -2   3 514.399 243.943   5
  -6  -2   3 344.159 194.104   2
   6  -2  -3 77.8106 128.058   8
  -6  -2   2 987.081 303.302   5
  -6  -2   2 1129.82 288.464   2
   6  -2  -2 1363.26 314.340   8
  -6  -2   1 753.347 259.724   5
  -6  -2   1 406.948 206.241   2
  -6  -2   1 427.893 167.925   4
   6  -2  -1 642.215 220.988   8
   6  -2   0 2981.66 357.312  11
  -6  -2   0 2568.91 422.563   5
  -6  -2   0 3217.83 436.553   2
  -6  -2   0 3168.19 415.091   4
   6  -2   0 3397.07 458.815   8
   6  -2   1 814.100 201.761  11
  -6  -2  -1 549.244 251.523   5
  -6  -2  -1 661.955 241.216   2
  -6  -2  -1 621.932 217.989   4
   6  -2   1 809.960 254.318   8
   6  -2   2 1879.04 301.039  11
  -6  -2  -2 2035.20 380.477   5
  -6  -2  -2 2072.75 361.723   2
  -6  -2  -2 1457.40 312.888   4
   6  -2   2 2099.78 388.911   8
   6  -2   3 354.850 143.158  11
  -6  -2  -3 508.569 226.665   5
  -6  -2  -3 901.630 251.053   2
  -6  -2  -3 710.743 238.975   4
   6  -2   3 658.099 252.103   8
   6  -2   4 6679.55 595.085  11
  -6  -2  -4 5932.73 641.263   5
  -6  -2  -4 7194.27 680.404   4
   6  -2   4 5681.08 624.531   8
  -6  -2  -4 6710.81 629.193   2
  -6  -2  -5 2112.23 353.384   1
   6  -2   5 1780.05 330.979  11
  -6  -2  -5 2525.63 424.788   5
  -6  -2  -5 1832.02 331.113   2
  -6  -2  -5 2092.32 388.757   4
   6  -2   5 2752.35 461.136   8
  -6  -2  -6 2181.98 375.706   1
   6  -2   6 2388.87 392.186  11
  -6  -2  -6 2027.06 382.074   5
  -6  -2  -6 1490.54 304.534   2
  -6  -2  -6 1947.54 394.774   4
   6  -2   6 2302.07 423.176   8
  -6  -2  -7 1409.76 319.412   1
   6  -2   7 1394.34 318.845  11
  -6  -2  -7 1331.95 346.005   5
  -6  -2  -7 938.412 289.401   4
   6  -2   7 1262.37 337.841   8
   6  -2   8 3533.84 501.655  11
  -6  -2  -8 3684.77 522.551   5
  -6  -2  -8 4178.49 578.666   4
   6  -2   8 3787.03 573.657   8
  -6  -2  -9 95.7594 177.807   4
  -6  -1  11 155.195 178.731   5
  -6  -1  11 379.763 233.546   3
   6  -1 -11 505.347 260.588   8
  -6  -1  10 2128.40 404.029   5
  -6  -1  10 2018.63 388.745   3
   6  -1 -10 1849.16 424.569   8
  -6  -1   9 730.550 264.494   5
  -6  -1   9 458.369 193.331   3
   6  -1  -9 1203.01 344.792   8
  -6  -1   8 1294.09 318.684   5
  -6  -1   8 1048.21 275.823   2
   6  -1  -8 926.022 290.722   8
  -6  -1   7 1547.26 331.693   5
  -6  -1   7 1311.02 281.903   2
   6  -1  -7 2184.64 416.509   8
  -6  -1   6 1267.43 303.103   5
  -6  -1   6 1980.60 335.285   2
   6  -1  -6 1319.57 320.849   8
  -6  -1   5 737.987 247.411   5
  -6  -1   5 728.663 228.571   2
   6  -1  -5 761.074 221.611   8
   6  -1  -4 3910.13 410.471  11
  -6  -1   4 3091.68 456.112   5
   6  -1  -4 4149.32 507.604   8
  -6  -1   4 4492.94 493.343   2
   6  -1  -3 3548.16 383.574  11
  -6  -1   3 3295.62 452.141   5
  -6  -1   3 3468.11 430.826   2
  -6  -1   3 3483.41 439.455   4
   6  -1  -3 3201.91 437.328   8
   6  -1  -2 3721.27 397.805  11
  -6  -1   2 3929.96 489.062   5
  -6  -1   2 3962.31 467.266   2
  -6  -1   2 3626.24 443.055   4
   6  -1  -2 3311.99 441.435   8
   6  -1  -1 5129.75 471.613  11
  -6  -1   1 4768.41 534.137   5
  -6  -1   1 6343.43 582.148   4
   6  -1  -1 5444.18 556.464   8
  -6  -1   1 5148.78 534.818   2
   6  -1   0 1662.91 288.493  11
  -6  -1   0 1719.92 332.451   5
  -6  -1   0 1638.11 315.310   2
  -6  -1   0 1232.76 263.230   4
   6  -1   0 2503.44 384.885   8
   6  -1   1 2754.66 369.351  11
  -6  -1  -1 2604.68 395.022   5
  -6  -1  -1 3279.49 430.371   2
  -6  -1  -1 2661.50 399.436   4
   6  -1   1 3061.28 440.675   8
   6  -1   2 804.776 231.345  11
  -6  -1  -2 975.271 263.291   5
  -6  -1  -2 761.933 243.652   2
  -6  -1  -2 918.125 265.811   4
   6  -1   2 551.600 207.129   8
   6  -1   3 3109.12 392.986  11
  -6  -1  -3 3368.55 434.301   2
  -6  -1  -3 2435.51 392.155   5
  -6  -1  -3 2978.78 431.676   4
   6  -1   3 2408.16 395.869   8
   6  -1   4 316.820 164.645  11
  -6  -1  -4 789.241 237.372   2
  -6  -1  -4 912.567 268.030   5
  -6  -1  -4 357.267 202.976   4
   6  -1   4 829.217 254.627   8
   6  -1   5 1690.21 317.698  11
  -6  -1  -5 1726.90 312.843   2
  -6  -1  -5 2251.87 371.540   5
  -6  -1  -5 2398.21 414.652   4
   6  -1   5 1763.18 363.896   8
   6  -1   6 1067.19 292.009  11
  -6  -1  -6 704.684 205.704   2
  -6  -1  -6 591.726 211.952   5
  -6  -1  -6 674.330 265.607   4
   6  -1   6 717.567 256.827   8
   6  -1   7 2341.44 389.618  11
  -6  -1  -7 2040.70 364.741   5
  -6  -1  -7 2479.04 442.632   4
   6  -1   7 1896.47 371.740   8
   6  -1   8 72.0130 139.312  11
  -6  -1  -8 540.251 242.027   4
   6  -1   8 363.449 226.613   8
   6  -1   9 2543.35 428.452  11
  -6  -1  -9 1807.94 398.240   4
   6  -1   9 1319.53 369.728   8
  -6   0  12 55.9521 201.903   5
  -6   0  11 338.465 207.268   5
  -6   0  11 396.346 234.379   3
   6   0 -11 67.3856 183.557   8
  -6   0  10 1373.64 347.527   5
  -6   0  10 1393.75 332.469   3
   6   0 -10 1417.95 381.715   8
  -6   0   9 1179.09 317.972   5
  -6   0   9 1809.14 363.129   3
   6   0  -9 1416.21 375.636   8
  -6   0   8 777.975 220.086   2
  -6   0   8 1385.47 333.897   5
  -6   0   8 1087.39 266.334   3
   6   0  -8 827.677 274.299   8
   6   0  -7 442.731 204.574  11
  -6   0   7 930.774 246.484   2
  -6   0   7 731.342 253.377   5
   6   0  -7 430.041 235.231   8
  -6   0   6 5979.50 627.455   5
   6   0  -6 6745.52 591.432  11
   6   0  -6 7216.13 684.446   8
  -6   0   6 6865.59 613.619   2
  -6   0   5 5220.57 563.510   5
   6   0  -5 3812.77 438.904  11
   6   0  -5 3700.63 481.131   8
  -6   0   5 4883.87 521.817   2
  -6   0   4 15772.7 984.142   5
   6   0  -4 14666.2 854.702  11
   6   0  -4 15613.8 969.621   8
  -6   0   4 15704.9 939.062   2
   6   0  -3 668.854 209.224  11
  -6   0   3 307.329 189.361   2
  -6   0   3 360.835 206.555   5
  -6   0   3 442.099 178.933   4
   6   0  -3 504.249 195.525   8
   6   0  -2 1809.62 295.752  11
  -6   0   2 1350.43 300.281   2
  -6   0   2 2688.31 399.693   5
  -6   0   2 2000.04 331.841   4
   6   0  -2 1973.61 338.717   8
   6   0  -1 481.045 175.068  11
  -6   0   1 622.036 197.310   2
  -6   0   1 369.283 188.285   5
  -6   0   1 84.9403 144.121   4
   6   0  -1 398.587 184.250   8
  -6   0   0 4640.29 502.098   5
   6   0   0 5376.82 505.778  11
  -6   0   0 5471.04 546.691   4
   6   0   0 5100.51 531.688   8
  -6   0   0 5386.09 535.098   2
  -6   0  -1 14760.0 902.627   5
   6   0   1 14328.1 847.843  11
  -6   0  -1 13807.2 895.060   4
   6   0   1 13432.7 884.330   8
  -6   0  -1 15112.7 907.465   2
  -6   0  -2 9999.87 730.141   5
   6   0   2 9578.21 695.489  11
  -6   0  -2 9961.57 764.580   4
   6   0   2 9392.61 733.386   8
  -6   0  -2 9036.55 699.006   2
   6   0   3 330.487 161.904  11
  -6   0  -3 423.122 203.034   2
  -6   0  -3 612.012 197.699   5
  -6   0  -3 395.853 180.160   4
   6   0   3 90.7294 125.298   8
   6   0   4 2561.45 385.496  11
  -6   0  -4 2382.08 362.470   2
  -6   0  -4 1852.19 319.099   5
  -6   0  -4 2794.34 433.616   4
   6   0   4 2152.10 369.787   8
   6   0   5 116.578 143.150  11
  -6   0  -5 317.149 171.282   2
  -6   0  -5 620.151 213.955   5
  -6   0  -5 375.386 207.023   4
   6   0   5 170.429 173.152   8
   6   0   6 5794.66 582.499  11
  -6   0  -6 5940.08 644.843   4
   6   0   6 6555.25 645.685   8
  -6   0  -6 5915.00 569.586   2
   6   0   7-180.608 162.108  11
  -6   0  -7 285.947 221.104   4
   6   0   7-104.596 167.076   8
   6   0   8 993.026 258.956  11
  -6   0  -8 1461.31 359.715   4
   6   0   8 835.385 261.652   8
   6   0   9 88.9747 142.475  11
  -6   0  -9 504.807 259.322   4
   6   0   9 213.955 182.082   8
   6   0  10 1673.12 378.310   8
  -6   1  11 1102.07 332.822   5
  -6   1  11 738.737 270.424   3
  -6   1  10 1592.65 365.907   5
  -6   1  10 1690.53 354.640   3
   6   1 -10 2054.44 451.023   8
   6   1  -9 1062.05 280.237  11
  -6   1   9 972.182 293.226   5
  -6   1   9 248.921 176.016   3
   6   1  -9 1563.87 382.309   8
  -6   1   8 1513.31 293.014   2
   6   1  -8 1305.94 316.853  11
  -6   1   8 1021.30 282.336   5
  -6   1   8 967.688 255.033   3
   6   1  -8 1300.87 336.702   8
  -6   1   7 1715.27 322.191   2
   6   1  -7 1649.57 328.128  11
  -6   1   7 1819.23 379.461   5
   6   1  -7 2248.94 426.545   8
  -6   1   6 1732.85 328.471   2
   6   1  -6 1837.15 339.129  11
  -6   1   6 1283.22 324.904   5
   6   1  -6 1868.35 382.906   8
  -6   1   5 827.661 252.129   2
   6   1  -5 687.938 240.762  11
  -6   1   5 845.422 266.468   5
   6   1  -5 648.905 241.162   8
  -6   1   4 2969.41 424.443   2
   6   1  -4 3539.04 434.970  11
  -6   1   4 3859.75 494.096   5
   6   1  -4 4155.74 492.113   8
  -6   1   3 3909.85 471.468   2
   6   1  -3 2848.74 385.499  11
  -6   1   3 2965.08 419.348   5
  -6   1   3 2740.64 387.924   4
   6   1  -3 3260.35 431.597   8
   6   1  -2 4163.22 462.378  11
  -6   1   2 3503.20 441.228   2
  -6   1   2 2919.86 411.848   5
  -6   1   2 3690.32 438.578   4
   6   1  -2 3642.73 446.317   8
  -6   1   1 5739.01 557.085   5
   6   1  -1 5684.12 533.958  11
  -6   1   1 5703.01 545.718   4
   6   1  -1 6096.15 570.429   8
  -6   1   1 5353.26 558.904   2
  -6   1   0 1959.15 337.971   2
   6   1   0 1114.19 267.598  11
  -6   1   0 1770.79 314.509   5
  -6   1   0 1057.24 259.159   4
   6   1   0 1101.68 249.514   8
  -6   1  -1 2880.73 395.374   2
   6   1   1 2971.75 397.999  11
  -6   1  -1 2259.52 344.417   5
  -6   1  -1 3021.84 417.781   4
   6   1   1 2316.95 356.176   8
  -6   1  -2 422.455 181.775   2
   6   1   2 826.887 228.156  11
  -6   1  -2 688.352 218.771   5
  -6   1  -2 853.407 247.192   4
   6   1   2 924.319 251.664   8
  -6   1  -3 2337.57 365.221   2
   6   1   3 3006.84 415.214  11
  -6   1  -3 2080.61 331.706   5
  -6   1  -3 2431.93 392.319   4
   6   1   3 3434.68 432.221   8
  -6   1  -4 228.602 152.535   2
   6   1   4 395.805 178.098  11
  -6   1  -4 433.548 204.681   4
   6   1   4 332.815 168.573   8
  -6   1  -5 2131.06 347.301   2
   6   1   5 2008.23 359.028  11
  -6   1  -5 1952.63 367.495   4
   6   1   5 1945.49 340.702   8
  -6   1  -6 957.929 233.287   2
   6   1   6 882.599 251.353  11
  -6   1  -6 572.429 241.417   4
   6   1   6 568.980 206.010   8
   6   1   7 1868.79 347.947  11
  -6   1  -7 2716.59 470.783   4
   6   1   7 2467.71 385.473   8
   6   1   8 140.125 165.418  11
  -6   1  -8 262.626 224.128   4
   6   1   8 350.980 184.333   8
   6   1   9 2746.21 438.792  11
  -6   1  -9 2359.88 466.311   4
   6   1   9 2787.02 442.868   8
  -6   2  10 2005.84 408.965   3
   6   2 -10 2307.16 486.468   8
   6   2  -9 519.890 245.976  11
  -6   2   9 723.870 291.476   5
  -6   2   9 916.249 265.846   3
   6   2  -9 1110.67 345.615   8
  -6   2   8 1213.68 297.864   2
   6   2  -8 1431.30 353.499  11
  -6   2   8 1014.71 312.235   5
  -6   2   8 1399.19 319.825   3
   6   2  -8 1250.30 350.292   8
  -6   2   7 1720.16 344.512   2
   6   2  -7 1520.07 344.279  11
  -6   2   7 2021.15 407.741   5
  -6   2   7 2329.75 387.362   3
   6   2  -7 1696.88 361.187   8
  -6   2   6 3498.47 480.280   2
   6   2  -6 3641.30 499.338  11
  -6   2   6 3358.26 489.955   5
   6   2  -6 4389.11 549.381   8
  -6   2   5 535.575 230.563   2
   6   2  -5 279.894 204.379  11
  -6   2   5 699.900 244.080   5
   6   2  -5 901.929 276.418   8
  -6   2   4 2010.51 373.587   2
   6   2  -4 1684.57 334.778  11
  -6   2   4 1738.41 324.456   5
   6   2  -4 2450.94 386.171   8
  -6   2   3-112.834 213.556   2
   6   2  -3 331.352 188.748  11
  -6   2   3 208.379 125.152   5
   6   2  -3 603.656 223.511   8
  -6   2   2 1104.23 284.257   2
   6   2  -2 863.771 232.314  11
  -6   2   2 1192.31 282.372   5
  -6   2   2 1283.92 273.163   4
   6   2  -2 344.484 167.359   8
  -6   2   1 810.413 250.558   2
   6   2  -1 447.382 198.155  11
  -6   2   1 555.772 200.085   5
  -6   2   1 596.016 200.039   4
   6   2  -1 537.292 194.171   8
  -6   2   0 4089.84 503.429   2
   6   2   0 3072.48 411.306  11
  -6   2   0 2727.19 386.585   5
  -6   2   0 3373.27 420.196   4
   6   2   0 3388.68 414.095   8
  -6   2  -1 968.657 244.849   2
   6   2   1 845.977 254.924  11
  -6   2  -1 993.812 241.279   5
  -6   2  -1 834.610 238.913   4
   6   2   1 546.541 179.623   8
  -6   2  -2 1410.14 309.709   2
   6   2   2 1607.75 303.505  11
  -6   2  -2 1805.44 331.930   4
   6   2   2 1644.48 299.407   8
  -6   2  -3 616.432 221.311   2
   6   2   3 588.375 197.954  11
  -6   2  -3 520.875 211.210   4
  -6   2  -4 4720.24 538.449   4
  -6   2  -4 4885.23 543.670   2
  -6   2  -5 2314.47 371.413   2
   6   2   5 2210.09 376.684  11
  -6   2  -5 2484.70 406.747   4
  -6   2  -6 2091.22 360.186   2
   6   2   6 1926.28 354.315  11
  -6   2  -6 2802.22 434.061   4
   6   2   7 1020.59 282.463  11
  -6   2  -7 1057.82 321.338   4
   6   2   8 3478.08 491.426  11
  -6   2  -8 3525.96 522.165   4
  -6   3   9 787.801 286.120   3
   6   3  -9 1167.46 361.314   8
  -6   3   8 967.859 293.231   2
   6   3  -8 1404.03 375.241  11
  -6   3   8 1040.33 330.253   5
  -6   3   8 839.555 270.365   3
   6   3  -8 631.208 235.525   8
  -6   3   7 661.163 266.221   2
   6   3  -7 1468.04 366.136  11
  -6   3   7 910.688 311.866   5
  -6   3   7 1231.89 319.693   3
   6   3  -7 1003.41 286.751   8
  -6   3   6 1538.23 338.535   2
   6   3  -6 1602.73 352.627  11
  -6   3   6 1604.90 364.216   5
   6   3  -6 1579.24 357.519   8
  -6   3   5 352.508 181.065   2
   6   3  -5 229.188 195.960  11
  -6   3   5 256.819 214.340   5
  -6   3   4 3913.57 523.488   2
   6   3  -4 3831.44 516.217  11
  -6   3   4 2904.26 438.917   5
  -6   3   3 3301.55 500.288   2
   6   3  -3 4866.17 569.644  11
  -6   3   3 4853.17 550.997   5
  -6   3   2 1470.86 342.128   2
   6   3  -2 1325.25 314.536  11
  -6   3   2 966.372 265.287   5
  -6   3   1 2514.27 434.812   2
   6   3  -1 2940.14 433.164  11
  -6   3   1 2705.72 401.650   5
  -6   3   1 3042.84 396.647   4
  -6   3   0 1678.09 364.187   2
   6   3   0 1861.57 360.772  11
  -6   3   0 1921.16 313.582   4
  -6   3  -1 2290.89 412.261   2
   6   3   1 2878.96 433.545  11
  -6   3  -1 2509.45 364.750   4
  -6   3  -2 1297.70 268.647   6
  -6   3  -2 739.739 246.521   2
   6   3   2 664.300 225.802  11
  -6   3  -2 678.020 211.500   4
  -6   3  -3 2556.53 384.231   6
  -6   3  -3 2689.67 430.438   2
   6   3   3 2534.82 406.967  11
  -6   3  -3 2415.81 370.768   4
  -6   3  -4 86.5798 125.314   6
  -6   3  -4-172.396 176.568   2
   6   3   4-56.2407 138.840  11
  -6   3  -4 124.690 153.475   4
  -6   3  -5 2148.44 373.598   6
  -6   3  -5 1510.20 336.238   2
   6   3   5 1873.53 360.888  11
  -6   3  -5 2078.64 369.466   4
  -6   3  -6 268.670 178.594   6
  -6   3  -6 722.139 243.674   2
   6   3   6 732.465 233.686  11
  -6   3  -6 730.011 252.019   4
  -6   3  -7 1429.36 337.355   6
   6   3   7 1701.88 343.170  11
  -6   3  -8 236.502 184.602   6
  -6   4   6 4145.48 585.034   2
  -6   4   6 4458.83 600.864   3
  -6   4   5 2110.21 429.002   2
  -6   4   5 1480.61 371.514   5
  -6   4   4 8200.04 782.997   5
   6   4  -4 7907.21 794.771  11
  -6   4   4 9177.51 846.525   2
  -6   4   3 310.389 223.806   2
   6   4  -3 123.101 202.353  11
  -6   4   3 390.043 204.531   5
  -6   4   2 1731.67 398.046   2
   6   4  -2 1666.96 379.387  11
  -6   4   1 314.518 246.277   2
   6   4  -1 723.751 259.315  11
  -6   4   0 2560.20 459.831   2
   6   4   0 2189.47 397.633  11
  -6   4  -1 5071.76 636.707   2
   6   4   1 5473.97 609.455  11
  -6   4  -2 5736.06 675.322   2
   6   4   2 6041.45 650.572  11
  -6   4  -2 6085.09 634.062   6
  -6   4  -3 706.741 227.130   6
  -6   4  -3 807.120 289.151   2
   6   4   3 592.301 232.314  11
  -6   4  -4 1288.52 324.649   6
  -6   4  -4 1088.88 312.563   2
   6   4   4 1236.53 291.055  11
  -6   4  -5 287.766 208.741   6
   6   4   5 245.689 209.537  11
   7  -3  -5 3985.16 583.842   8
   7  -3  -4 1061.18 335.403   8
  -7  -3   3 2751.01 492.260   5
   7  -3  -3 4389.72 581.077   8
  -7  -3   2 166.251 189.359   5
  -7  -3   2 385.274 221.178   2
   7  -3  -2 256.367 188.631   8
  -7  -3   1 765.457 319.725   5
  -7  -3   1 457.078 212.647   2
  -7  -3   1 336.912 156.718   4
   7  -3  -1 902.298 328.268   8
  -7  -3   0 1138.87 277.697   4
   7  -3   0 764.555 266.393   8
  -7  -3  -1 3252.93 474.226   4
   7  -3   1 2134.24 424.594   8
  -7  -3  -2 471.762 230.782   4
   7  -3   2 822.028 305.243   8
  -7  -3  -3 1207.86 325.084   4
  -7  -3  -4 1139.19 315.166   4
  -7  -2   8 655.964 236.183   2
  -7  -2   7-322.987 254.138   5
  -7  -2   7 144.753 165.826   2
   7  -2  -7 14.1871 195.386   8
  -7  -2   6 987.641 332.887   5
  -7  -2   6 1005.74 295.217   2
   7  -2  -6 1827.39 388.605   8
  -7  -2   5 237.696 172.164   5
  -7  -2   5 27.9825 169.545   2
   7  -2  -5 199.850 187.650   8
  -7  -2   4 1848.43 403.813   5
  -7  -2   4 1451.72 352.325   2
   7  -2  -4 1222.62 345.919   8
  -7  -2   3 1194.63 323.196   5
  -7  -2   3 1259.13 313.970   2
   7  -2  -3 644.314 257.829   8
  -7  -2   2 1724.85 381.167   5
  -7  -2   2 1174.29 333.089   2
  -7  -2   2 1094.85 291.269   4
   7  -2  -2 1246.99 332.582   8
  -7  -2   1 633.768 270.839   5
  -7  -2   1 388.367 210.058   2
  -7  -2   1 161.630 152.148   4
   7  -2  -1 406.858 266.092   8
  -7  -2   0 5009.97 618.283   5
  -7  -2   0 4840.85 597.383   2
  -7  -2   0 4380.14 544.577   4
   7  -2   0 5631.86 652.077   8
  -7  -2  -1 399.191 255.297   5
  -7  -2  -1-248.429 192.236   2
  -7  -2  -1 15.2738 156.220   4
   7  -2   1-31.7774 156.048   8
   7  -2   2 1580.49 313.691  11
  -7  -2  -2 1196.25 333.672   5
  -7  -2  -2 1612.27 336.655   2
  -7  -2  -2 1560.89 343.311   4
   7  -2   2 1153.06 338.936   8
   7  -2   3-281.910 165.963  11
  -7  -2  -3 26.1780 159.395   5
  -7  -2  -3-155.322 161.206   2
  -7  -2  -3 91.3943 177.827   4
   7  -2   3 235.845 242.606   8
   7  -2   4 1417.86 323.599  11
  -7  -2  -4 1397.26 358.789   5
  -7  -2  -4 970.747 288.502   2
  -7  -2  -4 1305.11 342.162   4
   7  -2   4 1462.66 382.885   8
   7  -2   5 989.505 279.905  11
  -7  -2  -5 784.852 269.065   2
  -7  -2  -5 456.762 258.105   5
  -7  -2  -5 533.992 254.997   4
   7  -2   6 169.186 210.331  11
  -7  -2  -6 122.575 160.753   2
  -7  -1   8 1770.13 348.203   2
  -7  -1   8 1969.43 431.012   5
  -7  -1   7 2742.54 442.803   2
  -7  -1   7 2319.31 446.871   5
   7  -1  -7 2279.57 454.497   8
  -7  -1   6 1956.31 370.674   2
  -7  -1   6 1414.14 355.083   5
   7  -1  -6 2110.33 426.758   8
  -7  -1   5 6826.53 711.516   5
   7  -1  -5 8004.31 777.037   8
  -7  -1   5 6812.15 684.502   2
  -7  -1   4 1332.72 326.379   2
  -7  -1   4 1512.09 370.789   5
   7  -1  -4 1159.78 327.062   8
  -7  -1   3 3314.47 488.702   2
  -7  -1   3 2358.74 427.065   5
  -7  -1   3 2741.71 439.155   4
   7  -1  -3 2872.54 468.004   8
   7  -1  -2 1257.46 262.611  11
  -7  -1   2 1568.70 337.698   2
  -7  -1   2 1579.11 342.466   5
  -7  -1   2 1012.88 284.272   4
   7  -1  -2 1062.04 307.627   8
   7  -1  -1 1151.72 263.114  11
  -7  -1   1 1073.88 311.255   2
  -7  -1   1 1615.66 368.644   5
  -7  -1   1 1092.44 313.066   4
   7  -1  -1 1238.80 334.100   8
   7  -1   0 1045.85 270.698  11
  -7  -1   0 997.814 291.090   2
  -7  -1   0 644.629 253.190   5
  -7  -1   0 1278.36 332.732   4
   7  -1   0 1025.55 279.737   8
   7  -1   1 4028.64 485.473  11
  -7  -1  -1 4434.50 564.392   5
  -7  -1  -1 3820.80 522.365   4
   7  -1   1 4378.14 576.040   8
  -7  -1  -1 5017.76 588.466   2
   7  -1   2 895.801 254.068  11
  -7  -1  -2 577.685 232.281   2
  -7  -1  -2 1209.73 312.302   5
  -7  -1  -2 1004.39 316.140   4
   7  -1   2 701.610 280.898   8
   7  -1   3 2172.94 372.429  11
  -7  -1  -3 1315.64 317.175   2
  -7  -1  -3 1539.26 342.629   5
  -7  -1  -3 2406.49 442.626   4
   7  -1   3 1493.88 377.398   8
   7  -1   4 1694.51 351.656  11
  -7  -1  -4 1434.31 315.442   2
  -7  -1  -4 1528.36 341.779   5
  -7  -1  -4 1371.48 343.777   4
   7  -1   4 1444.56 351.297   8
   7  -1   5 3447.10 493.724  11
  -7  -1  -5 2610.25 432.302   2
  -7  -1  -5 3613.31 513.445   5
  -7  -1  -5 3297.51 522.680   4
   7  -1   5 2785.14 508.847   8
   7  -1   6 1213.33 330.026  11
  -7  -1  -6 718.328 237.653   2
  -7  -1  -6 464.897 203.340   5
  -7  -1  -6 639.847 274.286   4
   7  -1   6 375.353 262.599   8
  -7   0   8 1173.63 308.043   2
  -7   0   8 1095.13 365.027   5
   7   0  -8 896.145 320.342   8
  -7   0   7 121.907 169.619   2
  -7   0   7 404.662 242.178   5
   7   0  -7 267.277 226.459   8
   7   0  -6 171.715 164.112  11
  -7   0   6 588.807 236.936   2
  -7   0   6 720.821 279.155   5
   7   0  -6 308.113 215.723   8
  -7   0   5 5657.82 657.053   5
   7   0  -5 6428.81 613.328  11
   7   0  -5 6453.83 692.780   8
  -7   0   5 6411.98 656.222   2
   7   0  -4 188.205 158.078  11
  -7   0   4 523.912 261.484   2
  -7   0   4-148.297 164.104   5
   7   0  -4 132.157 161.811   8
   7   0  -3 2604.03 396.732  11
  -7   0   3 2444.36 425.504   2
  -7   0   3 3255.86 487.477   5
  -7   0   3 3838.54 514.702   4
   7   0  -3 3724.45 512.727   8
   7   0  -2 3166.59 434.237  11
  -7   0   2 3956.21 516.969   2
  -7   0   2 3309.40 486.728   5
  -7   0   2 3772.76 503.415   4
   7   0  -2 3584.94 506.973   8
   7   0  -1-56.0733 128.965  11
  -7   0   1-94.7922 156.156   2
  -7   0   1-22.1409 158.681   5
  -7   0   1 29.2220 147.614   4
   7   0  -1 274.007 192.025   8
   7   0   0 569.954 213.307  11
  -7   0   0 699.148 235.114   2
  -7   0   0 568.732 205.147   5
  -7   0   0 65.2413 183.969   4
   7   0   0 466.935 222.921   8
   7   0   1 1071.33 266.079  11
  -7   0  -1 1158.95 306.871   2
  -7   0  -1 1221.12 300.157   5
  -7   0  -1 1090.64 308.436   4
   7   0   1 1173.01 315.730   8
   7   0   2 1384.65 314.184  11
  -7   0  -2 1055.84 290.711   2
  -7   0  -2 1520.80 324.818   5
  -7   0  -2 1624.16 366.400   4
   7   0   2 1179.08 316.430   8
   7   0   3 361.479 198.925  11
  -7   0  -3 496.801 240.352   2
  -7   0  -3 678.255 230.339   5
  -7   0  -3 63.0124 179.326   4
   7   0   3 985.724 300.255   8
  -7   0  -4 6611.61 650.451   5
   7   0   4 6421.60 639.467  11
  -7   0  -4 6896.94 718.005   4
   7   0   4 6871.24 709.136   8
  -7   0  -4 6475.14 665.935   2
  -7   0  -5 247.949 171.426   2
   7   0   5 84.9131 159.042  11
  -7   0  -5-72.0403 169.291   4
   7   0   5 108.847 164.321   8
  -7   0  -6 3853.29 515.129   2
   7   0   6 3933.07 530.500  11
  -7   0  -6 4803.19 632.243   4
   7   0   6 4673.45 597.539   8
   7   0   7 13.2844 156.802   8
   7   1  -9 406.290 241.566  11
  -7   1   8 2000.57 392.150   2
   7   1  -8 1987.22 402.403  11
  -7   1   7 2318.95 416.306   2
   7   1  -7 2023.62 401.795  11
  -7   1   7 2198.48 443.289   5
   7   1  -7 3290.80 553.321   8
  -7   1   6 1206.51 309.997   2
   7   1  -6 1166.36 306.434  11
  -7   1   6 1341.63 359.343   5
   7   1  -6 1381.98 378.275   8
  -7   1   5 6288.81 694.124   5
   7   1  -5 7581.50 709.276  11
   7   1  -5 6713.97 705.436   8
  -7   1   5 6984.11 697.922   2
  -7   1   4 1161.39 336.113   2
   7   1  -4 976.512 271.076  11
  -7   1   4 1953.46 398.253   5
   7   1  -4 1085.60 318.834   8
  -7   1   3 2969.55 466.605   2
   7   1  -3 2832.64 425.602  11
  -7   1   3 2132.07 401.658   5
   7   1  -3 2658.28 442.564   8
  -7   1   2 1373.10 348.018   2
   7   1  -2 1039.23 283.084  11
  -7   1   2 1225.72 314.713   5
  -7   1   2 1132.35 291.627   4
   7   1  -2 934.350 270.102   8
  -7   1   1 1660.66 366.272   2
   7   1  -1 1442.92 322.175  11
  -7   1   1 796.846 252.892   5
  -7   1   1 1013.23 279.733   4
   7   1  -1 1817.24 359.443   8
  -7   1   0 580.866 244.514   2
   7   1   0 427.981 219.258  11
  -7   1   0 840.357 263.278   5
  -7   1   0 951.450 288.875   4
   7   1   0 1009.19 260.697   8
  -7   1  -1 3752.78 518.626   2
   7   1   1 4194.13 521.133  11
  -7   1  -1 4380.87 518.721   5
  -7   1  -1 4135.94 527.593   4
   7   1   1 5124.09 579.720   8
  -7   1  -2 776.784 268.291   2
   7   1   2 866.012 270.033  11
  -7   1  -2 895.841 244.569   5
  -7   1  -2 1258.06 330.557   4
   7   1   2 763.720 274.085   8
  -7   1  -3 1444.29 345.698   2
   7   1   3 1383.55 324.569  11
  -7   1  -3 1861.24 391.095   4
   7   1   3 1479.29 333.486   8
  -7   1  -4 1544.20 347.641   2
   7   1   4 1924.49 388.288  11
  -7   1  -4 1881.10 389.932   4
   7   1   4 2138.41 400.011   8
  -7   1  -5 1215.37 305.583   2
   7   1   5 2882.50 449.793  11
  -7   1  -5 3576.53 534.532   4
   7   1   5 2142.53 394.486   8
  -7   1  -6 490.348 219.612   2
  -7   1  -6 644.594 285.395   4
   7   1   6 1067.59 310.916   8
   7   1   7 4202.91 557.207   8
  -7   2   8 730.155 238.314   2
  -7   2   7 343.344 212.852   2
   7   2  -7 71.7519 189.510  11
   7   2  -7 284.979 245.466   8
  -7   2   6 1361.61 344.198   2
   7   2  -6 1613.46 403.817  11
  -7   2   6 2596.29 464.804   5
   7   2  -6 2225.25 445.118   8
  -7   2   5 91.6864 155.533   2
   7   2  -5 240.787 204.041  11
  -7   2   5 428.693 251.767   5
   7   2  -5 290.827 219.170   8
  -7   2   4 1067.16 290.401   2
   7   2  -4 1278.82 326.870  11
  -7   2   4 913.780 270.763   5
   7   2  -4 1568.72 345.451   8
  -7   2   3 806.546 281.174   2
   7   2  -3 578.574 257.472  11
  -7   2   3 1041.32 284.050   5
   7   2  -3 1287.31 318.565   8
  -7   2   2 1103.29 301.161   2
   7   2  -2 1119.70 300.796  11
  -7   2   2 1655.42 357.448   5
  -7   2   2 1258.88 296.200   4
   7   2  -2 1042.57 293.450   8
  -7   2   1 328.817 217.721   2
   7   2  -1 534.018 247.312  11
  -7   2   1 87.8949 160.501   5
  -7   2   1 479.740 212.182   4
   7   2  -1 549.859 208.299   8
  -7   2   0 4575.15 591.044   2
   7   2   0 4683.21 559.715  11
  -7   2   0 4249.90 521.408   5
  -7   2   0 4525.21 535.020   4
   7   2   0 4249.58 513.807   8
  -7   2  -1 205.802 197.388   2
   7   2   1 524.425 266.162  11
  -7   2  -1 211.020 168.100   4
   7   2   1 156.433 172.000   8
  -7   2  -2 978.143 267.928   2
   7   2   2 1582.64 366.825  11
  -7   2  -2 1821.98 356.704   4
  -7   2  -3 118.553 148.398   2
   7   2   3 12.9668 153.954  11
  -7   2  -3 375.990 188.361   4
  -7   2  -4 2144.70 421.687   2
   7   2   4 1156.30 332.789  11
  -7   2  -4 1210.99 328.634   4
  -7   2  -5 645.040 239.672   2
  -7   2  -5 666.103 256.194   4
  -7   2  -6 386.596 213.343   2
  -7   3   4 1151.20 308.808   5
  -7   3   3 3245.49 496.583   5
  -7   3   2 399.776 250.548   2
  -7   3   2 413.051 192.855   5
  -7   3   1 601.500 251.230   2
   7   3  -1 750.159 282.535  11
  -7   3   1 1409.85 302.441   4
  -7   3   0 1214.48 273.066   4
  -7   3  -1 2300.03 367.959   4
   8  -1   0 387.331 211.002  11
   8  -1   1 2151.70 401.241  11
   8  -1   2 97.9023 163.642  11
   8   0  -4 679.547 250.899  11
   8   0  -3 140.495 165.228  11
   8   0  -2 3046.83 466.874  11
   8   0  -1 976.971 278.760  11
   8   0   0 1193.28 312.374  11
   8   0   1 411.936 231.812  11
  -8   0  -1 662.496 257.445   5
  -8   0  -2 1016.01 317.801   5
  -8   0  -3 1111.31 317.542   5
  -8   1   0-464.896 234.040   5
  -8   1  -1 1234.61 324.345   5
   0   0   0    0.00    0.00   0

TITL 18FG002b in P2(1)
REM P2(1) (#4 in standard setting)
CELL 0.71073   6.297319   5.286120  12.694818  90.0000  93.5674  90.0000
ZERR    2.00   0.000189   0.000170   0.000463   0.0000   0.0030   0.0000
LATT -1
SYMM -x, y+1/2,-z
SFAC C H O Cl
UNIT 16.00 30.00 2.00 2.00
TREF
HKLF 4
END
;
_shelx_hkl_checksum              39561
loop_
_symmetry_equiv_pos_as_xyz
'x, y, z'
'-x, y+1/2, -z'
loop_
_atom_site_label
_atom_site_type_symbol
_atom_site_fract_x
_atom_site_fract_y
_atom_site_fract_z
_atom_site_U_iso_or_equiv
_atom_site_adp_type
_atom_site_occupancy
_atom_site_site_symmetry_order
_atom_site_calc_flag
_atom_site_refinement_flags_posn
_atom_site_refinement_flags_adp
_atom_site_refinement_flags_occupancy
_atom_site_disorder_assembly
_atom_site_disorder_group
C1 C 0.8206(4) 0.4845(6) 0.2766(2) 0.0156(5) Uani 1 1 d . . . . .
H1 H 0.903677 0.327969 0.262994 0.019 Uiso 1 1 calc R U . . .
C2 C 0.7607(4) 0.4800(6) 0.39110(19) 0.0166(6) Uani 1 1 d . . . . .
H2 H 0.679499 0.63718 0.406156 0.02 Uiso 1 1 calc R U . . .
C3 C 0.6226(3) 0.2508(8) 0.40949(19) 0.0206(5) Uani 1 1 d . . . . .
H3A H 0.579573 0.252715 0.483185 0.025 Uiso 1 1 calc R U . . .
H3B H 0.70613 0.094979 0.399503 0.025 Uiso 1 1 calc R U . . .
C4 C 0.4238(4) 0.2470(8) 0.3342(2) 0.0246(6) Uani 1 1 d . . . . .
H4A H 0.341801 0.090657 0.345443 0.03 Uiso 1 1 calc R U . . .
H4B H 0.332385 0.393572 0.348905 0.03 Uiso 1 1 calc R U . . .
C5 C 0.4854(3) 0.2581(9) 0.21982(18) 0.0222(5) Uani 1 1 d . . . . .
H5A H 0.354741 0.264275 0.17234 0.027 Uiso 1 1 calc R U . . .
H5B H 0.56424 0.10238 0.203355 0.027 Uiso 1 1 calc R U . . .
C6 C 0.6243(4) 0.4903(6) 0.1992(2) 0.0180(6) Uani 1 1 d . . . . .
H6 H 0.540124 0.64403 0.215798 0.022 Uiso 1 1 calc R U . . .
C7 C 0.6778(4) 0.5101(6) 0.0828(2) 0.0231(6) Uani 1 1 d . . . . .
H7A H 0.544077 0.495161 0.037932 0.028 Uiso 1 1 calc R U . . .
H7B H 0.737451 0.680216 0.070771 0.028 Uiso 1 1 calc R U . . .
C8 C 0.8345(4) 0.3125(6) 0.0472(2) 0.0263(8) Uani 1 1 d . . . . .
H8A H 0.782009 0.142979 0.062911 0.039 Uiso 1 1 calc R U . . .
H8B H 0.973477 0.338869 0.084706 0.039 Uiso 1 1 calc R U . . .
H8C H 0.848724 0.328666 -0.028957 0.039 Uiso 1 1 calc R U . . .
O1 O 0.9445(3) 0.4647(4) 0.46264(14) 0.0215(5) Uani 1 1 d . . . . .
H1A H 0.985783 0.611328 0.479237 0.032 Uiso 1 1 calc R U . . .
Cl1 Cl 0.98951(9) 0.75720(17) 0.25690(5) 0.02138(17) Uani 1 1 d . . . . .
loop_
_atom_site_aniso_label
_atom_site_aniso_U_11
_atom_site_aniso_U_22
_atom_site_aniso_U_33
_atom_site_aniso_U_23
_atom_site_aniso_U_13
_atom_site_aniso_U_12
C1 0.0164(12) 0.0104(14) 0.0200(13) -0.0003(12) 0.0015(10) -0.0033(11)
C2 0.0156(12) 0.0158(15) 0.0181(14) 0.0000(12) 0.0002(10) 0.0012(12)
C3 0.0207(11) 0.0195(14) 0.0221(12) 0.0028(18) 0.0063(9) -0.0029(17)
C4 0.0174(11) 0.0251(16) 0.0316(14) 0.002(2) 0.0027(10) -0.0041(17)
C5 0.0187(11) 0.0205(14) 0.0267(13) -0.001(2) -0.0036(10) -0.0027(18)
C6 0.0185(13) 0.0139(15) 0.0213(14) -0.0007(13) -0.0011(11) 0.0013(12)
C7 0.0273(14) 0.0211(17) 0.0201(14) 0.0009(13) -0.0048(12) -0.0015(13)
C8 0.0299(14) 0.028(2) 0.0216(14) -0.0007(13) 0.0018(11) -0.0026(13)
O1 0.0238(10) 0.0199(11) 0.0200(11) 0.0007(9) -0.0054(8) -0.0036(9)
Cl1 0.0226(3) 0.0183(3) 0.0232(3) 0.0017(4) 0.0009(2) -0.0060(3)
loop_
_atom_type_symbol
_atom_type_description
_atom_type_scat_dispersion_real
_atom_type_scat_dispersion_imag
_atom_type_scat_source
C C 0.0033 0.0016 'International Tables Vol C Tables 4.2.6.8 and 6.1.1.4'
H H 0 0 'International Tables Vol C Tables 4.2.6.8 and 6.1.1.4'
O O 0.0106 0.006 'International Tables Vol C Tables 4.2.6.8 and 6.1.1.4'
Cl Cl 0.1484 0.1585 'International Tables Vol C Tables 4.2.6.8 and 6.1.1.4'
loop_
_exptl_crystal_face_index_h
_exptl_crystal_face_index_k
_exptl_crystal_face_index_l
_exptl_crystal_face_perp_dist
0 0 1 0.0171
0 0 -1 0.0171
-5 0 1 0.0643
5 0 -1 0.0643
0 -5 3 0.0939
0 5 -3 0.0939
loop_
_geom_angle_atom_site_label_1
_geom_angle_atom_site_label_2
_geom_angle_atom_site_label_3
_geom_angle
_geom_angle_site_symmetry_1
_geom_angle_site_symmetry_3
_geom_angle_publ_flag
C2 C1 C6 112.01(19) . . ?
C2 C1 Cl1 109.00(18) . . ?
C6 C1 Cl1 110.59(18) . . ?
C2 C1 H1 108.4 . . ?
C6 C1 H1 108.4 . . ?
Cl1 C1 H1 108.4 . . ?
O1 C2 C3 107.8(2) . . ?
O1 C2 C1 111.61(19) . . ?
C3 C2 C1 109.7(2) . . ?
O1 C2 H2 109.2 . . ?
C3 C2 H2 109.2 . . ?
C1 C2 H2 109.2 . . ?
C2 C3 C4 111.7(3) . . ?
C2 C3 H3A 109.3 . . ?
C4 C3 H3A 109.3 . . ?
C2 C3 H3B 109.3 . . ?
C4 C3 H3B 109.3 . . ?
H3A C3 H3B 107.9 . . ?
C5 C4 C3 110.37(18) . . ?
C5 C4 H4A 109.6 . . ?
C3 C4 H4A 109.6 . . ?
C5 C4 H4B 109.6 . . ?
C3 C4 H4B 109.6 . . ?
H4A C4 H4B 108.1 . . ?
C4 C5 C6 111.9(3) . . ?
C4 C5 H5A 109.2 . . ?
C6 C5 H5A 109.2 . . ?
C4 C5 H5B 109.2 . . ?
C6 C5 H5B 109.2 . . ?
H5A C5 H5B 107.9 . . ?
C1 C6 C7 113.7(2) . . ?
C1 C6 C5 108.6(2) . . ?
C7 C6 C5 112.2(2) . . ?
C1 C6 H6 107.3 . . ?
C7 C6 H6 107.3 . . ?
C5 C6 H6 107.3 . . ?
C8 C7 C6 115.0(2) . . ?
C8 C7 H7A 108.5 . . ?
C6 C7 H7A 108.5 . . ?
C8 C7 H7B 108.5 . . ?
C6 C7 H7B 108.5 . . ?
H7A C7 H7B 107.5 . . ?
C7 C8 H8A 109.5 . . ?
C7 C8 H8B 109.5 . . ?
H8A C8 H8B 109.5 . . ?
C7 C8 H8C 109.5 . . ?
H8A C8 H8C 109.5 . . ?
H8B C8 H8C 109.5 . . ?
C2 O1 H1A 109.5 . . ?
loop_
_geom_bond_atom_site_label_1
_geom_bond_atom_site_label_2
_geom_bond_distance
_geom_bond_site_symmetry_2
_geom_bond_publ_flag
C1 C2 1.524(3) . ?
C1 C6 1.531(3) . ?
C1 Cl1 1.818(3) . ?
C1 H1 1 . ?
C2 O1 1.428(3) . ?
C2 C3 1.518(5) . ?
C2 H2 1 . ?
C3 C4 1.527(3) . ?
C3 H3A 0.99 . ?
C3 H3B 0.99 . ?
C4 C5 1.527(3) . ?
C4 H4A 0.99 . ?
C4 H4B 0.99 . ?
C5 C6 1.539(5) . ?
C5 H5A 0.99 . ?
C5 H5B 0.99 . ?
C6 C7 1.539(4) . ?
C6 H6 1 . ?
C7 C8 1.525(4) . ?
C7 H7A 0.99 . ?
C7 H7B 0.99 . ?
C8 H8A 0.98 . ?
C8 H8B 0.98 . ?
C8 H8C 0.98 . ?
O1 H1A 0.84 . ?
