#------------------------------------------------------------------------------
#$Date: 2021-02-03 22:28:05 +0200 (Wed, 03 Feb 2021) $
#$Revision: 261416 $
#$URL: file:///home/coder/svn-repositories/cod/cif/4/51/84/4518473.cif $
#------------------------------------------------------------------------------
#
# This file is available in the Crystallography Open Database (COD),
# http://www.crystallography.net/
#
# All data on this site have been placed in the public domain by the
# contributors.
#
data_4518473
loop_
_publ_author_name
'Nakashima, Tomoya'
'Nakayama, Yuushou'
'Shiono, Takeshi'
'Tanaka, Ryo'
_publ_section_title
;
 Neutral, Noncoordinating, and Hydrocarbon-Soluble Protic Cocatalyst for
 Olefin Polymerization
;
_journal_issue                   2
_journal_name_full               'ACS Catalysis'
_journal_page_first              865
_journal_page_last               870
_journal_paper_doi               10.1021/acscatal.0c04758
_journal_volume                  11
_journal_year                    2021
_chemical_formula_sum            'C15 H8 F8 Sn'
_chemical_formula_weight         458.90
_space_group_crystal_system      monoclinic
_space_group_IT_number           11
_space_group_name_Hall           '-P 2yb'
_space_group_name_H-M_alt        'P 1 21/m 1'
_atom_sites_solution_hydrogens   mixed
_audit_creation_method           SHELXL-2016/4
_cell_angle_alpha                90
_cell_angle_beta                 110.083(3)
_cell_angle_gamma                90
_cell_formula_units_Z            2
_cell_length_a                   7.1648(19)
_cell_length_b                   12.225(3)
_cell_length_c                   8.905(2)
_cell_measurement_reflns_used    3926
_cell_measurement_temperature    123(2)
_cell_measurement_theta_max      27.43
_cell_measurement_theta_min      2.95
_cell_volume                     732.6(3)
_computing_cell_refinement       'Bruker SAINT'
_computing_data_collection       'Bruker APEX2'
_computing_data_reduction        'Bruker SAINT'
_computing_molecular_graphics    'Bruker SHELXTL'
_computing_publication_material  'Bruker SHELXTL'
_computing_structure_refinement  'SHELXL-2016/4 (Sheldrick, 2016)'
_computing_structure_solution    'SHELXS-97 (Sheldrick 2008)'
_diffrn_ambient_temperature      123(2)
_diffrn_measured_fraction_theta_full 0.971
_diffrn_measured_fraction_theta_max 0.965
_diffrn_measurement_device_type  'Bruker APEX-II CCD'
_diffrn_measurement_method       '\f and \w scans'
_diffrn_radiation_type           MoK\a
_diffrn_radiation_wavelength     0.71069
_diffrn_reflns_av_R_equivalents  0.0175
_diffrn_reflns_av_unetI/netI     0.0224
_diffrn_reflns_Laue_measured_fraction_full 0.971
_diffrn_reflns_Laue_measured_fraction_max 0.965
_diffrn_reflns_limit_h_max       9
_diffrn_reflns_limit_h_min       -8
_diffrn_reflns_limit_k_max       15
_diffrn_reflns_limit_k_min       -10
_diffrn_reflns_limit_l_max       10
_diffrn_reflns_limit_l_min       -11
_diffrn_reflns_number            3949
_diffrn_reflns_point_group_measured_fraction_full 0.971
_diffrn_reflns_point_group_measured_fraction_max 0.965
_diffrn_reflns_theta_full        25.240
_diffrn_reflns_theta_max         27.431
_diffrn_reflns_theta_min         2.435
_exptl_absorpt_coefficient_mu    1.829
_exptl_absorpt_correction_T_max  0.7455
_exptl_absorpt_correction_T_min  0.6161
_exptl_absorpt_correction_type   multi-scan
_exptl_absorpt_process_details   'SADABS, Bruker, 2016'
_exptl_crystal_colour            Colorless
_exptl_crystal_density_diffrn    2.080
_exptl_crystal_description       Block
_exptl_crystal_F_000             440
_exptl_crystal_size_max          0.200
_exptl_crystal_size_mid          0.200
_exptl_crystal_size_min          0.100
_refine_diff_density_max         0.507
_refine_diff_density_min         -0.930
_refine_diff_density_rms         0.165
_refine_ls_extinction_method     none
_refine_ls_goodness_of_fit_ref   1.163
_refine_ls_hydrogen_treatment    mixed
_refine_ls_matrix_type           full
_refine_ls_number_parameters     123
_refine_ls_number_reflns         1687
_refine_ls_number_restraints     0
_refine_ls_restrained_S_all      1.163
_refine_ls_R_factor_all          0.0261
_refine_ls_R_factor_gt           0.0258
_refine_ls_shift/su_max          0.023
_refine_ls_shift/su_mean         0.006
_refine_ls_structure_factor_coef Fsqd
_refine_ls_weighting_details
'w=1/[\s^2^(Fo^2^)+(0.0634P)^2^+1.4824P] where P=(Fo^2^+2Fc^2^)/3'
_refine_ls_weighting_scheme      calc
_refine_ls_wR_factor_gt          0.1012
_refine_ls_wR_factor_ref         0.1015
_reflns_Friedel_coverage         0.000
_reflns_number_gt                1661
_reflns_number_total             1687
_reflns_threshold_expression     'I > 2\s(I)'
_cod_data_source_file            cs0c04758_si_002.cif
_cod_data_source_block           DHSA
_cod_depositor_comments
;
The following automatic conversions were performed:

data item '_exptl_absorpt_correction_type' value 'Multi-Scan' was
changed to 'multi-scan' in accordance with the
/home/data/users/saulius/crontab/automatic-downloads/current/ACS/lib/dictionaries/cif_core.dic
dictionary named 'cif_core.dic' version 2.4.2 last updated on
2011-04-26.

Automatic conversion script
Id: cif_fix_values 7556 2019-12-06 15:28:31Z antanas 
;
_cod_original_sg_symbol_H-M      'P 21/m'
_cod_database_code               4518473
_shelx_shelxl_version_number     2016/4
_shelx_space_group_comment
;
The symmetry employed for this shelxl refinement is uniquely defined
by the following loop, which should always be used as a source of
symmetry information in preference to the above space-group names.
They are only intended as comments.
;
_shelx_estimated_absorpt_t_min   0.711
_shelx_estimated_absorpt_t_max   0.838
_shelx_res_file
;
TITL aa
 a.res created by SHELXL-2016/4 at 19:21:26 on 18-Nov-2019
REM  Yadorkari-X generated
CELL 0.71069 7.1648 12.2247 8.9053 90.0000 110.0828 90.0000
ZERR 2.0 0.0019 0.0032 0.0023 0.0000 0.0026 0.0000
LATT 1
SYMM -X, 0.50000+Y,-Z
REM  SPGR P21/m monoclinic
SFAC C H F Sn
UNIT 30 16 16 2
SIZE 0.20 0.20 0.10
TEMP -150.0
L.S. 1
FMAP 2
PLAN -25
ACTA
CONF
WPDB -1
BOND$H
MERG 2
OMIT   4  14   0
OMIT   3  13   0

WGHT    0.063400    1.482400
FVAR       0.21079
SN1   4    0.112456    0.250000    0.614545    10.50000    0.02022    0.01934 =
         0.01828    0.00000    0.00872    0.00000
C1    1   -0.096432    0.250000    0.736754    10.50000    0.02714    0.04059 =
         0.03218    0.00000    0.01873    0.00000
AFIX 137
H3    2   -0.148264    0.175825    0.736872    10.50000   -1.50000
H4    2   -0.206262    0.299655    0.682401    10.50000   -1.50000
H5    2   -0.030814    0.274520    0.847180    10.50000   -1.50000
AFIX   0
C2    1   -0.011722    0.250000    0.361261    10.50000    0.03723    0.04409 =
         0.01606    0.00000    0.00573    0.00000
AFIX 137
H6    2   -0.058046    0.176196    0.323554    10.50000   -1.50000
H7    2    0.089489    0.272794    0.316542    10.50000   -1.50000
H8    2   -0.123969    0.301011    0.326687    10.50000   -1.50000
AFIX   0
C3    1    0.331002    0.123060    0.708600    11.00000    0.02297    0.01353 =
         0.02437    0.00261    0.01228    0.00379
C4    1    0.337317    0.027581    0.630034    11.00000    0.02636    0.01948 =
         0.02711   -0.00414    0.01345   -0.00668
C5    1    0.489260   -0.048274    0.689424    11.00000    0.03532    0.01710 =
         0.03795    0.00126    0.02429    0.00287
C6    1    0.638774   -0.026835    0.831066    11.00000    0.02787    0.01463 =
         0.04015    0.01126    0.01940    0.00826
C7    1    0.634876    0.070657    0.911373    11.00000    0.02457    0.02516 =
         0.02613    0.00456    0.01295   -0.00104
C8    1    0.484962    0.145442    0.853750    11.00000    0.02564    0.01507 =
         0.02246    0.00149    0.01332   -0.00215
C9    1    0.485649    0.250000    0.946974    10.50000    0.03344    0.02115 =
         0.02072    0.00000    0.01135    0.00000
F1    3    0.194334    0.004296    0.488812    11.00000    0.03426    0.02880 =
         0.03410   -0.01340    0.01201   -0.00848
F2    3    0.489812   -0.141440    0.609256    11.00000    0.05051    0.01829 =
         0.05828   -0.00691    0.03123    0.00125
F3    3    0.786539   -0.099453    0.890666    11.00000    0.03514    0.03034 =
         0.05558    0.01144    0.02299    0.01204
F4    3    0.785648    0.086362    1.051060    11.00000    0.02901    0.03708 =
         0.03053    0.00645    0.00534    0.00543
H2    2    0.359166    0.250000    0.983436    10.50000    0.00796
H1    2    0.594381    0.250000    1.044959    10.50000    0.03186

HKLF 4




REM  aa
REM R1 =  0.0258 for    1661 Fo > 4sig(Fo)  and  0.0261 for all    1687 data
REM    123 parameters refined using      0 restraints

END

WGHT      0.0634      1.4817

REM Highest difference peak  0.507,  deepest hole -0.930,  1-sigma level  0.165
Q1    1   0.2513  0.1619  0.6658  11.00000  0.05    0.51
Q2    1   0.3892  0.1905  1.0574  11.00000  0.05    0.47
Q3    1   0.4415  0.1447  0.7631  11.00000  0.05    0.46
Q4    1   0.3679  0.0782  0.6788  11.00000  0.05    0.45
Q5    1  -0.0379  0.2500  0.6189  10.50000  0.05    0.44
Q6    1   0.1391  0.1360  0.7033  11.00000  0.05    0.44
Q7    1   0.7022  0.0670  0.7457  11.00000  0.05    0.43
Q8    1  -0.0004  0.1837  0.6993  11.00000  0.05    0.43
Q9    1  -0.2499  0.0783  0.6748  11.00000  0.05    0.43
Q10   1   0.5788  0.2500  1.2315  10.50000  0.05    0.43
Q11   1   0.2644  0.2500  0.6253  10.50000  0.05    0.42
Q12   1   0.2674  0.1672  0.5684  11.00000  0.05    0.42
Q13   1   0.5363  0.0894  0.9135  11.00000  0.05    0.41
Q14   1   0.4380 -0.0046  0.6610  11.00000  0.05    0.41
Q15   1  -0.0635  0.2500  0.1231  10.50000  0.05    0.40
Q16   1   0.2661  0.1028  0.7520  11.00000  0.05    0.40
Q17   1   0.0093  0.1009  0.6788  11.00000  0.05    0.40
Q18   1   0.3655  0.1400  0.5640  11.00000  0.05    0.39
Q19   1   0.5988  0.0387  0.7137  11.00000  0.05    0.38
Q20   1   0.6761 -0.1992  0.8839  11.00000  0.05    0.38
Q21   1   0.3802  0.2500  1.1623  10.50000  0.05    0.38
Q22   1   0.7055 -0.1461  0.9869  11.00000  0.05    0.37
Q23   1   0.3970  0.0461  0.8742  11.00000  0.05    0.37
Q24   1   0.7942  0.2067  1.1260  11.00000  0.05    0.36
Q25   1   0.1923  0.1024  0.5709  11.00000  0.05    0.35
;
_shelx_res_checksum              32037
_shelx_hkl_file
;
  -1   0   0   11.30    0.71
  -2   0   0    0.13    0.03
   2   0   0    0.09    0.02
  -3   0   0  294.91   13.44
   3   0   0  293.87   12.50
   4   0   0   29.73    0.77
  -4   0   0   29.09    0.79
  -5   0   0   61.93    1.58
   5   0   0   62.17    1.55
   6   0   0    6.19    0.26
  -6   0   0    6.07    0.29
   7   0   0   36.27    1.00
   8   0   0   30.76    0.90
  -1   1   0  187.69    6.87
   1   1   0  192.29    7.16
  -1   1   0  183.89    6.92
  -2  -1   0  159.09    7.66
  -2   1   0  165.19    6.14
   2   1   0  167.17    7.51
  -2   1   0  162.73    7.62
  -3  -1   0  106.94    2.91
  -3   1   0  107.93    2.90
   3   1   0  105.29    2.85
  -3   1   0  110.49    2.87
   4  -1   0   16.72    0.48
  -4  -1   0   17.36    0.50
  -4   1   0   16.84    0.49
   4   1   0   16.31    0.47
   5  -1   0   24.31    0.66
   5   1   0   23.22    0.65
  -5   1   0   22.39    0.68
   6  -1   0   65.00    1.63
  -6   1   0   62.85    1.67
   6   1   0   65.05    1.63
   7  -1   0   30.13    0.86
   7   1   0   30.19    0.86
  -7   1   0   29.60    0.91
   8  -1   0   13.15    0.48
   8   1   0   13.19    0.48
  -1   2   0  396.28   12.68
  -1   2   0  402.45   13.23
   1   2   0  419.96   13.51
  -2   2   0  267.23   10.60
   2   2   0  277.11   11.31
  -2   2   0  269.19   10.39
  -3   2   0   45.51    2.16
   3   2   0   47.95    1.35
  -3   2   0   47.10    1.38
   4   2   0   87.37    2.48
  -4   2   0   90.32    2.48
  -4   2   0   92.56    6.36
   5  -2   0  205.41    9.76
  -5   2   0  195.69    5.26
   5   2   0  191.69    5.12
   6  -2   0   34.43    0.94
  -6   2   0   34.48    0.98
   6   2   0   34.39    0.94
   7  -2   0   23.06    0.70
   7   2   0   23.60    0.70
  -7   2   0   22.41    0.74
   8  -2   0   25.27    0.77
   8   2   0   25.23    0.77
  -1   3   0   59.51    1.62
  -1   3   0   61.82    1.61
  -2   3   0  224.47    8.09
  -2   3   0  212.47    9.67
   2   3   0  223.59   10.31
  -3   3   0  138.04    6.60
   3   3   0  139.36    7.57
  -3   3   0  138.80    3.62
  -4   3   0    1.01    0.09
  -4   3   0    1.10    0.08
   4   3   0    0.92    0.08
  -5   3   0    5.79    0.25
   5   3   0    6.15    0.24
  -5   3   0    5.81    0.24
   6  -3   0   51.46    1.32
  -6   3   0   49.29    1.35
   6   3   0   50.77    1.32
   7  -3   0   48.81    1.32
   7   3   0   50.16    1.32
  -7   3   0   49.19    1.37
   8  -3   0    8.89    0.37
   8   3   0    8.68    0.37
  -8   3   0    8.87    0.42
   0   4   0   97.56    5.49
   1   4   0  384.59   14.30
  -1   4   0  381.35   13.31
  -1   4   0  378.40   14.03
   2   4   0    5.44    0.18
  -2   4   0    5.10    0.18
  -2   4   0    5.14    0.17
  -3   4   0    4.79    0.18
   3   4   0    5.29    0.19
  -3   4   0    4.87    0.19
   4   4   0  256.62    9.48
  -4   4   0  260.34    6.69
  -4   4   0  258.51    6.63
  -5   4   0   49.62    1.27
   5   4   0   48.43    1.27
  -5   4   0   50.29    1.30
   6   4   0   11.68    0.41
  -6   4   0   12.28    0.45
   7  -4   0    6.49    0.29
  -7   4   0    6.29    0.32
   7   4   0    6.19    0.29
   8  -4   0   16.38    0.56
   8   4   0   16.00    0.56
  -8   4   0   16.21    0.62
   0   5   0    0.03    0.02
   0   5   0    0.02    0.02
  -1   5   0   60.75    1.71
   1   5   0   64.65    1.74
  -1   5   0   60.88    1.85
  -2   5   0  164.16    4.91
  -2   5   0  171.91    8.22
   2   5   0  181.94    4.51
   3   5   0  125.82    7.96
  -3   5   0  121.50    3.38
  -3   5   0  125.38    3.27
   4   5   0    9.37    0.32
  -4   5   0    9.95    0.34
  -4   5   0    9.81    0.32
   5   5   0   23.77    0.68
  -5   5   0   24.00    0.68
  -5   5   0   24.23    0.71
   6   5   0   46.05    1.22
  -6   5   0   45.39    1.22
  -6   5   0   46.07    1.26
   7  -5   0   31.71    0.92
   7   5   0   32.22    0.92
  -7   5   0   32.88    0.98
   8   5   0    4.35    0.25
  -8   5   0    4.51    0.29
   0   6   0  269.92   11.93
   0   6   0  260.43   11.45
   1   6   0  180.93    9.51
  -1   6   0  222.15   10.10
  -1   6   0  210.03   10.25
   1   6   0  223.99    5.33
  -2   6   0    2.32    0.11
  -2   6   0    2.28    0.11
   2   6   0    2.40    0.12
  -3   6   0   26.19    0.71
   3   6   0   27.20    0.72
  -3   6   0   25.82    0.70
  -4   6   0   75.32    2.08
   4   6   0   77.81    2.11
  -4   6   0   79.53    2.15
   5   6   0   30.63    0.86
  -5   6   0   32.16    0.89
  -5   6   0   31.59    0.86
  -6   6   0   26.71    0.79
   6   6   0   24.73    0.75
  -6   6   0   25.60    0.75
   7   6   0    0.58    0.12
  -7   6   0    0.57    0.13
  -8   6   0   18.60    0.68
   8   6   0   17.97    0.62
   0   7   0    0.13    0.04
   0   7   0    0.11    0.04
  -1   7   0   55.04    1.55
  -1   7   0   54.92    1.43
   1   7   0   54.98    1.45
  -2   7   0  156.92    4.21
  -2   7   0  157.55    4.14
   2   7   0  170.15    4.38
   3   7   0   57.81    2.22
  -3   7   0   54.25    1.38
  -3   7   0   54.35    1.55
  -4   7   0    2.97    0.17
  -4   7   0    3.03    0.16
   4   7   0    2.74    0.16
  -5   7   0    2.49    0.17
  -5   7   0    2.37    0.15
   5   7   0    2.32    0.15
   6   7   0   44.97    1.21
  -6   7   0   43.94    1.20
  -6   7   0   45.63    1.24
   7   7   0   26.95    0.82
  -7   7   0   27.17    0.85
   0   8   0  402.87   10.18
   0   8   0  427.23   18.84
  -1   8   0   62.24    1.64
  -1   8   0   60.82    1.60
   1   8   0   60.56    1.51
  -2   8   0    4.94    0.19
  -2   8   0    4.63    0.19
   2   8   0    4.92    0.23
   3   8   0   54.07    1.34
  -3   8   0   51.25    1.37
  -3   8   0   51.24    1.32
   4   8   0   42.58    1.11
  -4   8   0   41.80    1.09
  -4   8   0   40.60    1.10
  -5   8   0   59.28    1.50
  -5   8   0   58.15    1.52
   5   8   0   56.93    1.51
  -6   8   0    1.26    0.14
   6   8   0    1.27    0.14
  -7   8   0    0.19    0.08
   7   8   0    0.22    0.08
  -1   9   0  135.71    4.87
  -1   9   0  131.15    3.51
   1   9   0  130.64    3.43
   2   9   0   32.16    0.87
  -2   9   0   32.16    0.86
  -2   9   0   33.67    0.87
   3   9   0   61.79    1.51
  -3   9   0   56.26    1.46
  -3   9   0   56.18    1.46
  -4   9   0   11.93    0.41
   4   9   0   12.13    0.42
  -4   9   0   12.12    0.40
   5   9   0   24.21    0.73
  -5   9   0   25.01    0.72
  -5   9   0   24.17    0.73
  -6   9   0   15.54    0.54
   6   9   0   14.98    0.52
   7   9   0   14.14    0.52
  -7   9   0   14.31    0.54
   0  10   0  132.60    3.31
   0  10   0  127.74    5.12
  -1  10   0    1.18    0.11
   1  10   0    1.15    0.11
  -1  10   0    1.36    0.11
   2  10   0  110.19    4.54
  -2  10   0  110.74    5.97
  -2  10   0  116.41    2.83
  -3  10   0   20.02    0.58
  -3  10   0   20.11    0.58
   3  10   0   19.25    0.64
  -4  10   0   31.12    0.88
  -4  10   0   31.15    0.88
   4  10   0   32.59    0.91
   5  10   0  118.32    2.93
  -5  10   0  117.41    2.97
   6  10   0    0.44    0.10
  -6  10   0    0.51    0.11
   0  11   0    0.06    0.05
   1  11   0    0.48    0.10
  -2  11   0  101.57    2.58
  -2  11   0  105.59    2.54
  -3  11   0   38.98    1.04
  -3  11   0   38.83    1.04
   4  11   0    0.37    0.10
  -4  11   0    0.52    0.09
  -4  11   0    0.44    0.08
  -5  11   0    0.17    0.07
   5  11   0   -0.02    0.07
   6  11   0   39.50    1.14
  -6  11   0   39.40    1.13
   0  12   0   82.95    2.09
  -1  12   0   85.03    2.24
   1  12   0   95.48    2.29
   2  12   0    0.41    0.10
   4  12   0   16.94    0.63
   5  12   0    4.47    0.29
   0  13   0    0.08    0.06
   1  13   0   41.34    1.12
  -1  13   0   37.66    1.08
  -2  13   0   27.49    0.74
   2  13   0   21.14    0.78
   3  13   0    6.84    0.35
   4  13   0    0.28    0.08
   0  14   0   30.56    0.90
   1  14   0   36.28    1.04
  -1  14   0   35.05    1.01
  -2  14   0    0.03    0.05
   2  14   0    0.06    0.10
   3  14   0    0.24    0.11
   4  14   0    6.51    0.36
   0  15   0    0.00    0.06
  -1  15   0   12.98    0.49
   1  15   0   13.47    0.51
   2  15   0   25.75    0.84
   8   0  -1    0.36    0.09
   7   0  -1    2.92    0.19
   6   0  -1   74.24    1.87
   5   0  -1  167.42    4.45
   4   0  -1   31.10    0.81
  -2   0   1  230.41    9.93
  -1   0   1  393.62   12.21
   0   0  -1  130.61    4.89
  -1   0  -1   27.77    0.75
   1   0   1   28.58    0.74
  -1   0  -1   27.34    0.68
  -2   0  -1    3.26    0.13
   2   0   1    3.28    0.11
  -2   0  -1    3.43    0.09
  -3   0  -1  185.14    4.95
  -3   0  -1  187.97    5.93
   3   0   1  205.45    4.93
   4   0   1  139.90    5.72
  -4   0  -1  139.79    3.73
  -5   0  -1   57.67    1.48
   5   0   1   56.08    1.43
   6   0   1   38.10    1.01
  -6   0  -1   37.29    1.06
   7   0   1   21.25    0.64
  -7   0  -1   20.91    0.70
   8   0   1   20.72    0.66
   8  -1  -1   26.79    0.81
   8   1  -1   26.76    0.81
   7  -1  -1   46.90    1.27
   7   1  -1   48.41    1.28
   6  -1  -1    5.60    0.25
   6   1  -1    5.61    0.24
   5  -1  -1   15.93    0.48
   5   1  -1   15.49    0.48
  -5   1   1   16.19    0.50
  -4   1   1  259.29   13.71
  -4   1   1  268.73    6.86
   4   1  -1  272.34    6.83
  -3   1   1  107.59    6.81
   3   1  -1  108.86    2.86
  -3   1   1  103.80    2.86
  -2   1   1  118.49    6.48
   2   1  -1  125.18    3.15
  -2   1   1  124.02    3.15
   1  -1  -1    7.98    0.20
  -1   1   1    8.34    0.22
  -1   1   1    8.61    0.22
   1   1  -1    8.37    0.22
   0   1   1   82.64    2.06
  -1  -1  -1  321.70    9.21
  -1  -1  -1  310.97   10.16
  -1   1  -1  306.94   11.54
   1   1   1  334.40   10.95
  -1   1  -1  326.63    9.63
   2  -1   1  157.63    6.51
  -2  -1  -1  154.13    4.61
  -2  -1  -1  151.39    3.93
  -2   1  -1  156.69    6.78
  -2   1  -1  153.62    3.66
   2   1   1  156.65    7.04
   3  -1   1   36.03    0.94
  -3  -1  -1   37.02    0.98
  -3  -1  -1   36.12    0.88
  -3   1  -1   38.37    0.88
   3   1   1   35.35    0.97
  -3   1  -1   37.03    1.06
  -4  -1  -1   45.35    1.18
   4  -1   1   46.68    1.15
  -4   1  -1   43.97    1.08
  -4   1  -1   47.02    1.24
   4   1   1   45.28    1.22
   5  -1   1  144.31    8.15
  -5  -1  -1  148.51    3.98
   5   1   1  154.63    3.99
  -5   1  -1  148.90    4.07
   6  -1   1   39.15    1.04
  -6  -1  -1   39.10    1.10
  -6   1  -1   39.06    1.10
   6   1   1   38.93    1.04
   7  -1   1   18.42    0.58
  -7   1  -1   19.26    0.65
   7   1   1   18.47    0.59
   8  -1   1    0.15    0.10
   8   1   1    0.18    0.07
   8  -2  -1    7.15    0.33
   8   2  -1    7.44    0.33
   7  -2  -1   11.04    0.41
   7   2  -1   11.20    0.41
   6  -2  -1   67.31    1.69
   6   2  -1   65.89    1.69
  -6   2   1   66.43    1.72
  -5   2   1   92.77    6.19
  -5   2   1   90.95    2.54
   5   2  -1   92.33    2.58
  -4   2   1   71.87    2.10
  -4   2   1   74.55    2.04
   4   2  -1   75.94    2.04
  -3   2   1   50.22    1.40
  -3   2   1   48.92    1.42
   3   2  -1   51.20    1.45
  -2   2   1  104.19    4.37
   1  -2  -1  456.77   11.89
   1   2  -1  453.12   14.26
  -1   2   1  455.73   14.77
  -1   2   1  459.22   13.28
   0   2   1   60.23    2.95
  -1  -2  -1   18.28    0.44
   1   2   1   18.70    1.09
  -1   2  -1   18.27    0.48
  -1   2  -1   17.14    0.52
  -2  -2  -1   35.04    0.89
  -2  -2  -1   35.07    1.01
  -2   2  -1   37.54    1.02
   2   2   1   35.79    1.03
  -2   2  -1   35.96    1.06
  -3  -2  -1   87.02    2.36
   3   2   1   85.05    5.54
  -3   2  -1   89.36    2.42
  -3   2  -1   89.56    2.38
  -3   2  -1   87.72    2.66
   4  -2   1  109.46    2.78
  -4  -2  -1  102.97    2.90
   4   2   1  102.55    2.82
  -4   2  -1  103.39    2.87
   5  -2   1    6.54    0.25
   5   2   1    6.81    0.26
  -5   2  -1    6.86    0.29
   6  -2   1    0.58    0.09
   6   2   1    0.60    0.10
  -6   2  -1    0.69    0.12
   7  -2   1   27.98    0.80
   7   2   1   28.07    0.80
  -7   2  -1   26.84    0.86
  -8   2  -1   29.89    0.96
   8   2   1   29.64    0.87
   8  -3  -1   27.84    0.84
   8   3  -1   28.13    0.84
   7  -3  -1   22.38    0.70
  -7   3   1   22.64    0.73
   7   3  -1   23.52    0.70
  -6   3   1   10.26    0.39
   6   3  -1   10.40    0.37
   5   3  -1   16.86    0.51
  -5   3   1   17.73    0.53
  -5   3   1   17.67    0.52
  -4   3   1   34.83    0.90
  -4   3   1   33.99    0.90
   4   3  -1   34.78    0.90
  -3   3   1  504.07   19.82
  -3   3   1  532.85   20.41
  -2   3   1  159.76    7.62
  -2   3   1  145.46    7.62
   2   3  -1  154.49    7.88
  -1   3   1   26.18    2.07
  -1   3   1   26.02    1.49
   1   3  -1   26.96    0.77
   0   3   1  150.20    5.04
  -1   3  -1  141.67    5.26
  -1   3  -1  129.74    6.97
   1   3   1  143.79    3.54
  -2   3  -1  207.29    8.91
  -2   3  -1  196.10   10.14
   2   3   1  203.32    9.68
  -3   3  -1   11.26    0.35
  -3   3  -1   11.35    0.33
   3   3   1   11.33    0.34
  -3   3  -1   11.72    0.28
  -4   3  -1    3.34    0.15
   4   3   1    3.33    0.15
  -4   3  -1    3.05    0.17
   5  -3   1   49.06    1.22
   5   3   1   47.24    1.22
  -5   3  -1   46.56    1.26
   6  -3   1   93.66    2.32
  -6   3  -1   92.88    2.38
   6   3   1   95.44    2.33
   7  -3   1   23.53    0.71
  -7   3  -1   23.93    0.78
   7   3   1   24.09    0.72
   8   3   1    1.76    0.17
  -8   3  -1    1.83    0.20
   8  -4  -1    0.99    0.15
   8   4  -1    1.07    0.14
  -8   4   1    1.01    0.16
   7   4  -1   24.18    0.74
  -7   4   1   25.46    0.78
  -6   4   1   48.07    1.28
  -6   4   1   48.99    1.30
   6   4  -1   47.90    1.27
  -5   4   1    8.04    0.30
   5   4  -1    7.76    0.29
  -5   4   1    7.80    0.29
  -4   4   1   34.05    0.91
   4   4  -1   35.56    0.91
  -4   4   1   35.00    0.91
   3   4  -1   17.03    0.46
  -3   4   1   15.89    0.46
  -3   4   1   16.84    0.46
   2   4  -1    8.86    0.26
  -2   4   1    9.55    0.27
  -2   4   1    8.22    0.25
  -1   4   1  482.10   14.74
   1   4  -1  475.41   16.23
  -1   4   1  472.48   16.77
   0   4   1  448.80   13.49
   0   4  -1  438.00   16.44
  -1   4  -1  154.10    3.82
  -1   4  -1  149.46    3.97
   1   4   1  159.33    3.99
  -2   4  -1  361.67   13.60
  -2   4  -1  347.28   15.43
   2   4   1  363.10   14.90
   3   4   1  161.61    7.57
  -3   4  -1  162.72    4.15
  -3   4  -1  161.19    4.31
   4   4   1   50.83    1.28
  -4   4  -1   50.26    1.37
  -4   4  -1   51.19    1.39
  -5   4  -1    0.13    0.05
   5   4   1    0.13    0.05
   6  -4   1    1.78    0.14
  -6   4  -1    1.66    0.16
   6   4   1    1.74    0.14
  -7   4  -1   16.10    0.59
   7   4   1   16.31    0.54
   8   4   1    9.29    0.39
  -8   4  -1    9.07    0.44
   8  -5  -1   32.90    0.97
   8   5  -1   32.13    0.95
  -8   5   1   32.44    1.00
  -7   5   1   36.40    1.05
  -7   5   1   35.67    1.01
   7   5  -1   35.32    1.00
  -6   5   1    0.76    0.11
   6   5  -1    0.74    0.10
  -6   5   1    0.82    0.10
  -5   5   1   13.81    0.45
   5   5  -1   13.34    0.43
  -5   5   1   13.46    0.44
  -4   5   1  102.12    7.01
  -4   5   1  101.35    2.91
   4   5  -1  104.43    2.75
   3   5  -1  146.09    8.83
  -3   5   1  142.30    3.80
  -3   5   1  145.40    8.47
  -2   5   1   72.73    1.99
  -2   5   1   71.59    2.04
   2   5  -1   76.08    2.02
  -1   5   1    4.50    0.16
   1   5  -1    4.60    0.16
   1   5  -1    4.06    0.16
  -1   5   1    4.28    0.14
   0   5   1   55.13    2.55
   0   5   1   46.03    1.34
   0   5  -1   54.09    1.47
  -1   5  -1  372.40   14.15
  -1   5  -1  369.26   13.29
   1   5   1  322.50   15.35
  -2   5  -1   97.20    5.14
  -2   5  -1   95.25    2.66
   2   5   1  100.70    2.71
  -3   5  -1   10.91    0.35
   3   5   1   10.75    0.34
  -3   5  -1   11.14    0.33
   4   5   1   35.13    0.93
  -4   5  -1   35.69    0.96
  -4   5  -1   35.49    0.92
  -5   5  -1   66.32    1.70
  -5   5  -1   65.11    1.65
   5   5   1   65.89    1.66
   6  -5   1   56.56    1.48
   6   5   1   57.05    1.48
  -6   5  -1   57.05    1.53
  -7   5  -1    8.19    0.39
   7   5   1    8.05    0.34
   8  -6  -1    6.99    0.34
   8   6  -1    6.92    0.33
  -8   6   1    6.82    0.36
   7   6  -1    0.07    0.06
  -7   6   1    0.08    0.05
  -7   6   1    0.11    0.06
  -6   6   1   57.17    1.50
  -6   6   1   58.19    1.51
   6   6  -1   56.49    1.49
  -5   6   1  158.80    9.77
  -5   6   1  156.01    9.68
   5   6  -1  153.75    9.27
  -4   6   1   58.43    1.63
   4   6  -1   57.11    1.49
  -4   6   1   55.67    2.27
  -3   6   1   57.25    1.49
   3   6  -1   59.01    1.54
  -3   6   1   59.00    3.00
   2   6  -1  314.46   14.42
  -2   6   1  281.04   13.30
  -2   6   1  291.28   12.22
   1   6  -1  166.16    6.59
   1   6  -1  158.39    4.32
  -1   6   1  169.32    4.29
  -1   6   1  171.09    7.92
   0   6   1   14.43    0.41
   0   6  -1   13.72    0.39
   0   6  -1   13.07    0.39
   0   6   1   13.69    0.36
  -1   6  -1   20.52    0.52
  -1   6  -1   19.18    0.55
   2   6   1    0.44    0.06
  -2   6  -1    0.55    0.05
  -3   6  -1   18.61    0.55
   3   6   1   18.85    0.54
  -3   6  -1   19.12    0.52
   4   6   1  112.36    3.05
  -4   6  -1  114.98    3.00
  -4   6  -1  116.62    3.25
  -5   6  -1   46.42    1.19
  -5   6  -1   45.68    1.24
   5   6   1   45.46    1.21
  -6   6  -1    0.47    0.10
   6   6   1    0.43    0.09
   7   6   1   47.37    1.30
  -7   6  -1   48.11    1.36
   8   7  -1   24.94    0.80
  -8   7   1   25.72    0.84
   7   7  -1   26.19    0.79
  -7   7   1   25.59    0.79
  -7   7   1   26.50    0.82
  -6   7   1   11.82    0.44
  -6   7   1   11.68    0.42
   6   7  -1   11.68    0.42
   5   7  -1   24.61    0.72
  -5   7   1   25.32    0.72
  -5   7   1   24.71    0.72
  -4   7   1  107.19    3.01
  -4   7   1  109.36    6.93
   4   7  -1  109.85    2.75
  -3   7   1  122.81    3.38
   3   7  -1  127.91    3.38
  -3   7   1  127.02    3.39
  -2   7   1   14.75    0.41
  -2   7   1   14.63    0.43
   2   7  -1   15.62    0.44
   1   7  -1    2.32    0.12
  -1   7   1    2.30    0.10
  -1   7   1    2.17    0.12
   0   7  -1   83.46    5.02
   0   7   1   85.42    2.30
   0   7  -1   91.19    2.36
   0   7   1   94.07    2.49
  -1   7  -1   62.56    4.09
  -1   7  -1   65.34    2.50
   1   7   1   62.79    1.59
  -2   7  -1  147.64    7.40
   2   7   1  160.67    4.84
  -2   7  -1  141.70    3.95
  -3   7  -1   17.52    0.50
   3   7   1   17.73    0.53
  -3   7  -1   18.69    0.54
  -4   7  -1   25.45    0.70
  -4   7  -1   25.67    0.73
   4   7   1   24.67    0.71
  -5   7  -1   78.04    1.99
   5   7   1   77.48    1.96
   6   7   1   32.08    0.92
  -6   7  -1   32.59    0.96
  -7   7  -1   13.96    0.54
   7   7   1   13.28    0.49
   7   8  -1    4.96    0.27
  -7   8   1    5.26    0.28
  -7   8   1    5.53    0.29
   6   8  -1   25.72    0.77
  -6   8   1   26.24    0.79
  -6   8   1   25.82    0.78
   5   8  -1   44.01    1.18
  -5   8   1   44.94    1.18
  -5   8   1   43.57    1.18
  -4   8   1   15.76    0.49
   4   8  -1   16.48    0.50
  -4   8   1   15.83    0.50
  -3   8   1    2.74    0.15
  -3   8   1    2.76    0.14
   3   8  -1    2.93    0.16
  -2   8   1   10.80    0.36
  -2   8   1   10.90    0.34
   2   8  -1   12.54    0.39
   2   8  -1   12.21    0.38
   1   8  -1  161.86    9.08
  -1   8   1  166.59    7.67
  -1   8   1  164.49    4.31
   0   8   1  209.74    5.35
   0   8   1  219.78   11.88
   0   8  -1  216.63    9.43
   0   8  -1  208.05    5.50
  -1   8  -1    3.07    0.14
  -1   8  -1    2.89    0.16
   1   8   1    3.03    0.14
   2   8   1   21.11    0.70
  -2   8  -1   25.02    0.67
  -2   8  -1   26.61    0.66
  -3   8  -1  104.60    5.71
  -3   8  -1  105.16    4.66
   3   8   1  111.51    2.92
  -4   8  -1   76.76    1.94
  -4   8  -1   78.30    1.91
   4   8   1   75.84    1.93
  -5   8  -1    0.06    0.06
   5   8   1    0.15    0.07
  -6   8  -1    4.68    0.27
   6   8   1    4.60    0.25
   7   8   1    4.75    0.27
  -7   8  -1    5.15    0.30
  -7   9   1   14.42    0.53
   7   9  -1   13.63    0.51
  -6   9   1    6.06    0.29
   6   9  -1    6.17    0.29
  -6   9   1    5.83    0.29
   5   9  -1    2.62    0.18
  -5   9   1    2.60    0.17
  -5   9   1    2.60    0.17
  -4   9   1   66.29    1.67
   4   9  -1   65.80    1.69
  -4   9   1   67.06    1.69
  -3   9   1   70.08    1.80
  -3   9   1   70.03    1.86
   3   9  -1   76.43    1.83
  -2   9   1  113.49    5.12
  -2   9   1  109.95    2.96
   2   9  -1  107.51    5.41
  -1   9   1    6.88    0.26
   1   9  -1    6.76    0.27
  -1   9   1    7.03    0.23
   0   9  -1   61.81    1.55
   0   9   1   62.09    1.55
   0   9   1   63.87    1.57
   0   9  -1   60.79    1.56
   1   9   1  120.05    5.52
  -1   9  -1  123.03    6.23
  -1   9  -1  120.55    7.46
   2   9   1   38.21    1.13
  -2   9  -1   39.66    1.04
  -2   9  -1   42.09    1.03
  -3   9  -1    3.04    0.15
  -3   9  -1    2.71    0.16
   3   9   1    2.98    0.19
  -4   9  -1    4.75    0.23
   4   9   1    4.90    0.25
   5   9   1   55.22    1.46
  -5   9  -1   55.40    1.48
  -6   9  -1   30.34    0.92
   6   9   1   30.11    0.89
   7  10  -1    1.78    0.18
   6  10  -1   35.34    1.01
  -6  10   1   35.36    1.01
  -6  10   1   34.77    1.06
  -5  10   1   24.02    0.75
  -5  10   1   24.40    0.74
   5  10  -1   24.90    0.74
  -4  10   1   13.53    0.46
   4  10  -1   14.47    0.48
  -4  10   1   12.89    0.50
   3  10  -1    0.15    0.06
  -3  10   1    0.14    0.05
   3  10  -1    0.06    0.07
  -2  10   1   47.81    1.23
   2  10  -1   47.02    1.24
   1  10  -1   99.96    2.46
  -1  10   1  100.31    2.65
   0  10  -1   75.06    1.87
   0  10   1   76.61    1.89
   0  10  -1   74.84    1.90
  -2  10  -1   18.80    0.57
  -2  10  -1   20.17    0.56
  -3  10  -1   50.87    1.34
  -3  10  -1   52.76    1.37
  -4  10  -1   13.64    0.47
   4  10   1   14.77    0.52
  -5  10  -1   13.07    0.48
   5  10   1   13.51    0.49
  -6  10  -1    1.53    0.17
   6  10   1    1.53    0.17
   6  11  -1    0.32    0.09
  -5  11   1    1.78    0.15
   5  11  -1    1.68    0.17
  -4  11   1   39.24    1.09
   4  11  -1   40.63    1.13
  -3  11   1   59.46    1.51
   3  11  -1   57.34    1.51
  -2  11   1   24.59    0.71
   2  11  -1   24.14    0.71
   1  11  -1    0.37    0.09
   1  11  -1    0.53    0.10
   0  11  -1   39.24    1.06
   0  11   1   40.80    1.08
   0  11  -1   39.79    1.09
   1  11   1   87.27    2.16
  -1  11  -1   83.32    2.09
  -1  11  -1   83.19    2.11
  -2  11  -1   35.90    0.99
  -2  11  -1   37.56    0.98
   3  11   1    0.19    0.07
  -4  11  -1    8.30    0.33
   4  11   1    6.60    0.36
  -5  11  -1   19.10    0.63
   5  11   1   18.90    0.66
  -5  12   1   11.99    0.46
   5  12  -1   12.28    0.49
  -4  12   1   21.28    0.64
   4  12  -1   18.08    0.67
  -2  12   1   34.76    0.96
  -1  12   1   70.92    1.86
   1  12  -1   70.81    1.90
   1  12  -1   77.67    1.89
   0  12  -1   13.72    0.46
   0  12  -1   14.15    0.50
   0  12   1   14.18    0.48
   1  12   1   20.28    0.63
  -1  12  -1   18.40    0.58
  -1  12  -1   18.20    0.57
  -2  12  -1   20.55    0.62
   4  12   1   11.35    0.48
   5  12   1    3.44    0.28
  -5  12  -1    4.95    0.27
   5  13  -1    9.74    0.46
   4  13  -1    5.97    0.33
  -2  13   1    6.64    0.30
   1  13  -1    0.36    0.09
  -1  13   1    0.30    0.08
   0  13  -1   14.08    0.48
   0  13   1   14.89    0.51
  -1  13  -1   32.60    0.95
   1  13   1   34.89    0.99
   2  13   1   50.01    1.41
   3  13   1    0.08    0.07
   4  13   1    0.99    0.14
   4  14  -1    2.06    0.20
   3  14  -1    3.49    0.26
  -2  14   1   17.59    0.60
   2  14  -1   19.17    0.66
  -1  14   1   33.36    0.98
   1  14  -1   34.44    0.98
   0  14  -1   12.71    0.46
   0  14   1   12.96    0.48
   1  14   1    1.87    0.19
   2  14   1    6.00    0.34
   3  14   1    4.61    0.32
   2  15  -1   18.09    0.63
  -2  15   1   17.01    0.60
   1  15  -1    2.03    0.19
  -1  15   1    2.22    0.19
   0  15   1   14.41    0.53
   1  15   1   25.66    0.82
   2  15   1    8.76    0.42
   9   0  -2    4.29    0.27
   8   0  -2   30.81    0.91
   7   0  -2   53.98    1.43
   6   0  -2   44.39    1.18
   5   0  -2    4.78    0.21
  -3   0   2   27.41    1.72
  -2   0   2    9.16    0.26
   0   0  -2   53.42    1.43
   0   0   2   54.21    1.33
  -1   0  -2  247.59   10.04
   1   0   2  250.08    8.19
  -1   0  -2  230.85    7.43
  -2   0  -2  209.81    5.16
  -2   0  -2  215.68    5.38
   2   0   2  212.71    8.07
  -3   0  -2  380.13   16.03
  -3   0  -2  406.66   11.06
   3   0   2  385.36   15.18
  -4   0  -2   17.55    0.52
   4   0   2   16.79    0.48
  -4   0  -2   17.37    0.44
   5   0   2   97.63    3.67
  -5   0  -2   95.34    2.57
   6   0   2   14.99    0.47
  -6   0  -2   15.09    0.53
  -7   0  -2   18.19    0.65
   9  -1  -2   41.42    1.20
   9   1  -2   42.26    1.20
   8  -1  -2    9.49    0.39
   8   1  -2    9.42    0.39
   7  -1  -2   13.53    0.47
   7   1  -2   13.11    0.46
   6  -1  -2   22.79    0.67
   6   1  -2   22.48    0.66
   5   1  -2   36.18    0.96
  -5   1   2   36.52    0.97
  -4   1   2  275.00   14.06
  -3   1   2   66.17    1.85
   3   1  -2   66.30    1.82
  -2   1   2  387.55   14.66
   1  -1  -2  543.90   14.13
  -1  -1   2  502.42   15.32
  -1   1   2  551.39   16.60
   0  -1  -2  152.42    5.13
   0  -1  -2  160.93    5.32
   0   1  -2  156.97    6.85
   0   1   2  164.92    5.84
  -1  -1  -2  322.80   11.59
   1  -1   2  332.98    9.55
  -1   1  -2  314.33   12.70
   1   1   2  327.92   11.19
  -2  -1  -2   27.75    1.21
   2  -1   2   29.03    0.92
  -2  -1  -2   27.70    0.68
  -2   1  -2   27.61    0.72
   2   1   2   28.54    0.74
  -2   1  -2   27.09    0.67
  -3  -1  -2    1.51    0.07
  -3  -1  -2    1.51    0.10
  -3   1  -2    1.59    0.11
   3   1   2    1.83    0.09
  -3   1  -2    1.76    0.06
  -4  -1  -2  140.95    3.37
   4  -1   2  138.07    3.57
  -4  -1  -2  139.58    3.66
  -4   1  -2  134.72    3.38
  -4   1  -2  141.60    3.82
   4   1   2  144.22    3.63
   5  -1   2   26.97    0.73
  -5  -1  -2   26.80    0.78
  -5   1  -2   27.50    0.79
   5   1   2   26.67    0.73
  -6  -1  -2   43.73    1.21
   6  -1   2   42.71    1.13
  -6   1  -2   44.12    1.22
   6   1   2   42.80    1.14
  -7   1  -2    0.03    0.06
   7   1   2    0.06    0.05
  -8   1  -2    5.91    0.35
   9  -2  -2    0.45    0.11
   9   2  -2    0.58    0.12
   8  -2  -2    0.12    0.08
   8   2  -2    0.09    0.06
   7  -2  -2   45.48    1.24
   7   2  -2   45.61    1.23
   6   2  -2   69.49    1.76
  -5   2   2   40.85    1.09
  -5   2   2   41.39    1.09
   5   2  -2   42.57    1.09
  -4   2   2    0.47    0.06
   4   2  -2    0.31    0.06
  -4   2   2    0.42    0.06
   3  -2  -2  171.10    4.46
   3   2  -2  165.13    4.29
  -3   2   2  156.71    5.43
  -3   2   2  168.79    9.24
   2  -2  -2  885.01   22.97
  -2   2   2 1000.00   29.19
   2   2  -2  877.67   27.28
   1  -2  -2   11.94    0.30
   1   2  -2   11.99    0.31
  -1   2   2   12.16    0.32
   0  -2  -2   21.51    0.55
   0   2   2   20.46    0.53
   0   2  -2   21.18    0.63
  -1  -2  -2  143.66    3.52
   1   2   2  144.18    3.58
  -1   2  -2  135.25    3.65
  -1   2  -2  144.54    4.81
   2  -2   2  162.81    4.26
  -2  -2  -2  175.04    4.22
  -2  -2  -2  175.20    4.43
  -2   2  -2  178.07    4.52
   2   2   2  180.16    4.43
  -3  -2  -2   36.68    0.90
  -3  -2  -2   36.69    0.96
   3  -2   2   37.53    0.92
  -3   2  -2   37.50    0.97
   3   2   2   38.30    2.18
  -3   2  -2   37.08    0.89
  -4  -2  -2   11.79    0.39
   4  -2   2   11.45    0.35
  -4   2  -2   12.07    0.40
   4   2   2   11.72    0.36
  -5  -2  -2    7.18    0.30
   5  -2   2    6.88    0.26
  -5   2  -2    7.42    0.31
   5   2   2    7.22    0.27
  -6   2  -2   46.46    1.28
   6   2   2   45.84    1.21
  -7   2  -2   44.10    1.26
   7   2   2   42.75    1.17
   8  -3  -2   66.52    1.76
   8   3  -2   66.34    1.75
   7   3  -2   11.36    0.42
  -6   3   2   14.49    0.48
  -6   3   2   13.83    0.47
   6   3  -2   13.64    0.46
  -5   3   2  172.71    4.70
   5   3  -2  175.88    4.71
  -5   3   2  178.03    4.73
   4   3  -2  213.18    5.53
  -4   3   2  211.90   11.93
  -4   3   2  208.65    5.47
  -3   3   2  108.17    2.92
  -3   3   2  112.03    5.63
   2  -3  -2  155.30    4.75
  -2   3   2  159.76    4.05
   2   3  -2  157.29    5.72
  -2   3   2  156.19    5.80
   1  -3  -2   22.73    0.56
  -1   3   2   22.26    1.22
  -1   3   2   22.72    0.58
   1   3  -2   23.99    1.28
   1   3  -2   22.35    0.64
   0  -3  -2  101.13    2.38
   0   3   2   89.13    4.82
   0   3  -2   97.05    2.61
  -1  -3  -2  183.62    4.26
  -1   3  -2  170.32    5.49
  -1   3  -2  168.92    9.01
   1   3   2  177.99    8.63
  -2  -3  -2  129.41    5.64
  -2  -3  -2  122.14    3.11
   2   3   2  127.43    3.32
  -2   3  -2  130.99    3.20
  -2   3  -2  122.58    7.51
  -3  -3  -2   34.73    0.92
  -3  -3  -2   34.81    0.87
  -3   3  -2   36.13    0.84
   3   3   2   36.22    0.91
  -3   3  -2   35.27    0.93
   4  -3   2  107.22    2.76
   4   3   2  108.05    5.62
  -4   3  -2  109.44    2.85
   5  -3   2  132.85    3.46
   5   3   2  133.39    6.70
  -5   3  -2  136.29    3.56
   6   3   2    7.04    0.29
  -6   3  -2    7.32    0.34
  -7   3  -2    1.18    0.16
   7   3   2    1.14    0.13
   8  -4  -2   14.64    0.54
   8   4  -2   15.11    0.53
  -7   4   2   37.08    1.06
   7   4  -2   36.46    1.03
  -7   4   2   37.14    1.04
  -6   4   2   36.21    1.00
  -6   4   2   36.58    1.00
   6   4  -2   35.67    0.98
  -5   4   2   35.61    0.97
  -5   4   2   36.48    0.98
   5   4  -2   37.12    0.97
   4   4  -2   20.76    0.58
  -4   4   2   21.05    0.59
  -4   4   2   20.54    0.58
  -3   4   2  150.86    3.92
  -3   4   2  145.41    4.31
   3   4  -2  147.93    3.92
   2  -4  -2   85.43    2.11
   2   4  -2   85.48    2.30
  -2   4   2   87.56    2.39
  -2   4   2   87.82    2.78
   1  -4  -2   88.85    2.19
   1   4  -2   87.37    5.83
   1   4  -2   89.65    2.31
  -1   4   2   89.99    2.39
  -1   4   2   87.55    2.41
   0  -4  -2   18.04    0.42
   0   4   2   16.36    0.45
   0   4  -2   15.35    0.42
   0   4  -2   17.02    0.46
  -1  -4  -2   61.52    1.51
  -1   4  -2   60.22    1.75
  -1   4  -2   61.27    1.53
  -2  -4  -2  154.11    3.84
  -2   4  -2  155.07    4.13
  -2   4  -2  159.29    3.91
   2   4   2  156.03    4.06
  -3   4  -2  173.62    7.42
   3   4   2  175.99    4.50
  -3   4  -2  168.61    4.59
   4   4   2   30.36    0.81
  -4   4  -2   30.55    0.85
   5   4   2   11.18    0.37
  -5   4  -2   10.64    0.41
  -6   4  -2   47.56    1.33
   6   4   2   48.34    1.27
  -7   4  -2   25.66    0.84
   7   4   2   25.93    0.77
   8   5  -2   28.68    0.86
  -7   5   2    0.12    0.06
   7   5  -2    0.06    0.05
  -7   5   2    0.17    0.07
  -6   5   2    0.23    0.06
  -6   5   2    0.27    0.07
   6   5  -2    0.33    0.07
   5   5  -2  119.90    7.71
  -5   5   2  120.08    3.12
  -5   5   2  121.59    3.19
   4   5  -2   97.13    2.56
  -4   5   2   93.22    3.83
  -4   5   2   94.60    6.77
  -3   5   2  185.73    9.30
  -3   5   2  185.25   10.65
   3   5  -2  189.98    4.89
  -2   5   2    3.13    0.11
   2   5  -2    2.83    0.12
  -2   5   2    3.01    0.13
   1   5  -2   18.61    0.48
  -1   5   2   17.92    0.50
  -1   5   2   19.53    0.48
   1   5  -2   18.12    0.51
   0   5  -2  374.29   13.23
   0   5  -2  360.94   15.60
   0   5   2  355.60   10.73
   0   5   2  359.73   14.59
  -1   5  -2   43.68    1.91
  -1   5  -2   45.86    1.97
   2   5   2   34.26    0.87
  -2   5  -2   33.32    0.87
  -2   5  -2   33.35    0.88
  -3   5  -2   38.58    0.95
   3   5   2   38.31    0.98
  -3   5  -2   36.75    1.00
  -4   5  -2   48.40    1.29
   4   5   2   51.04    1.27
  -4   5  -2   48.28    1.25
   5   5   2   73.68    1.84
  -5   5  -2   72.43    1.88
   6   5   2   19.09    0.59
  -6   5  -2   18.69    0.64
   7   5   2    0.30    0.08
  -7   5  -2    0.27    0.09
   8   6  -2    2.33    0.19
  -8   6   2    2.49    0.21
  -8   6   2    2.65    0.20
  -7   6   2   46.15    1.25
   7   6  -2   44.36    1.22
  -7   6   2   43.74    1.23
  -6   6   2   43.20    1.16
  -6   6   2   41.80    1.16
   6   6  -2   43.41    1.15
  -5   6   2   15.05    0.48
  -5   6   2   14.83    0.47
   5   6  -2   15.11    0.47
   4   6  -2    1.61    0.11
  -4   6   2    1.59    0.11
  -4   6   2    1.57    0.12
  -3   6   2  100.18    2.87
  -3   6   2  105.33    2.76
   3   6  -2  106.36    2.82
  -2   6   2  189.38    8.28
  -2   6   2  189.99    4.98
   2   6  -2  194.26    4.93
   1   6  -2   61.28    1.68
   1   6  -2   59.75    1.59
  -1   6   2   64.98    1.58
  -1   6   2   62.07    1.75
   0   6   2    9.71    0.30
   0   6  -2    9.04    0.27
   0   6   2    9.14    0.24
   0   6  -2    8.64    0.30
  -1   6  -2  106.24    2.65
  -1   6  -2  101.06    6.86
   2   6   2  162.59    7.51
  -2   6  -2  155.90    6.68
  -2   6  -2  145.24    4.09
  -3   6  -2   67.24    1.72
  -3   6  -2   63.28    3.75
   3   6   2   66.82    1.73
   4   6   2    5.27    0.23
  -4   6  -2    5.40    0.25
  -5   6  -2    3.64    0.22
   5   6   2    3.89    0.20
  -6   6  -2   21.23    0.70
   6   6   2   21.09    0.65
   7   6   2   16.23    0.55
  -7   6  -2   16.19    0.61
  -8   7   2   15.75    0.58
  -8   7   2   14.91    0.56
   8   7  -2   15.15    0.55
  -7   7   2    5.39    0.28
  -7   7   2    5.68    0.29
   7   7  -2    5.47    0.28
  -6   7   2   13.14    0.45
   6   7  -2   12.63    0.45
  -6   7   2   12.70    0.46
   5   7  -2   40.08    1.08
  -5   7   2   39.70    1.09
  -5   7   2   41.08    1.07
  -4   7   2   58.45    1.51
   4   7  -2   59.65    1.50
  -4   7   2   59.71    1.61
  -3   7   2  187.15    9.45
  -3   7   2  181.90    6.36
   3   7  -2  185.82    4.90
   2   7  -2    8.18    0.27
  -2   7   2    7.91    0.27
  -2   7   2    7.81    0.23
   2   7  -2    7.65    0.28
   1   7  -2  116.17    7.49
  -1   7   2  116.85    3.24
  -1   7   2  121.16    3.50
   0   7  -2  211.44    5.67
   0   7  -2  214.71    6.98
   0   7   2  215.72    5.28
   0   7   2  231.47   12.11
  -1   7  -2   89.21    6.08
  -1   7  -2   95.51    2.38
   3   7   2   44.37    1.12
  -3   7  -2   39.97    1.11
  -4   7  -2   21.81    0.67
   4   7   2   23.13    0.66
  -5   7  -2   31.92    0.94
   5   7   2   32.60    0.91
   6   7   2   18.10    0.59
  -6   7  -2   18.17    0.63
  -7   7  -2    0.89    0.16
   7   7   2    0.85    0.13
  -7   8   2   29.30    0.89
  -7   8   2   29.61    0.89
   7   8  -2   28.84    0.87
  -6   8   2   29.79    0.86
  -6   8   2   29.75    0.88
   6   8  -2   30.10    0.87
  -5   8   2    7.31    0.31
  -5   8   2    7.20    0.29
   5   8  -2    7.17    0.30
  -4   8   2   21.73    0.65
  -4   8   2   22.42    0.62
   4   8  -2   22.33    0.64
  -3   8   2    2.95    0.16
   3   8  -2    2.98    0.16
  -3   8   2    3.20    0.14
   2   8  -2  151.27    3.83
   2   8  -2  140.75    7.20
  -2   8   2  140.06    3.71
  -2   8   2  144.13    3.81
   1   8  -2   79.07    3.19
  -1   8   2   78.82    2.17
   0   8  -2    6.17    0.22
   0   8  -2    6.33    0.25
   0   8   2    6.14    0.24
  -1   8  -2   52.13    1.39
  -1   8  -2   56.50    1.34
  -2   8  -2   76.43    1.89
  -2   8  -2   72.66    1.97
   3   8   2  112.69    2.71
  -3   8  -2  104.98    6.10
   4   8   2    4.04    0.22
  -4   8  -2    4.10    0.22
   5   8   2    3.82    0.22
  -5   8  -2    3.86    0.23
  -6   8  -2   21.18    0.71
   6   8   2   21.32    0.67
   7   9  -2    8.93    0.39
  -7   9   2    9.25    0.40
  -6   9   2   10.05    0.40
   6   9  -2    9.67    0.39
   5   9  -2   48.08    1.27
  -5   9   2   46.67    1.27
   4   9  -2  185.05    9.66
  -4   9   2  177.19    4.86
   3   9  -2    9.03    0.32
  -3   9   2    8.20    0.31
   3   9  -2    8.21    0.32
   2   9  -2   30.08    0.79
   2   9  -2   24.90    0.79
  -2   9   2   29.20    0.78
  -1   9   2   49.12    1.26
   1   9  -2   49.63    1.28
   0   9  -2   35.43    0.92
   0   9   2   36.93    0.96
   0   9  -2   34.57    0.97
  -1   9  -2  104.14    2.61
  -1   9  -2  104.99    4.38
   3   9   2    5.33    0.29
  -3   9  -2    6.48    0.27
   4   9   2  161.07    4.80
  -4   9  -2  153.69    4.16
   5   9   2   25.40    0.76
  -5   9  -2   23.90    0.76
   6   9   2    7.59    0.35
  -6   9  -2    7.69    0.37
  -7  10   2   11.37    0.46
   7  10  -2   11.12    0.45
  -6  10   2   34.85    1.02
   6  10  -2   35.01    1.00
   5  10  -2   25.66    0.76
  -5  10   2   25.19    0.77
  -4  10   2    1.27    0.13
   4  10  -2    1.21    0.13
   3  10  -2  106.71    2.56
   3  10  -2  101.47    2.59
  -3  10   2  100.81    2.59
   2  10  -2   91.28    2.28
  -2  10   2   92.13    2.44
  -1  10   2   28.77    0.80
   1  10  -2   29.28    0.82
   0  10  -2    8.26    0.29
   0  10  -2    8.43    0.34
   0  10   2    8.48    0.32
  -1  10  -2   27.87    0.80
   1  10   2   26.29    0.81
  -1  10  -2   28.23    0.74
   3  10   2   11.20    0.45
   4  10   2   13.83    0.55
  -4  10  -2   16.25    0.53
  -5  10  -2    0.97    0.14
   5  10   2    0.76    0.15
  -6  10  -2   11.92    0.49
   6  10   2   11.92    0.48
   6  11  -2   12.17    0.47
  -6  11   2   12.42    0.48
   5  11  -2   17.89    0.59
  -5  11   2   17.49    0.59
   4  11  -2   70.32    1.75
   4  11  -2   63.78    1.72
  -4  11   2   65.72    1.72
   3  11  -2   38.91    1.24
   3  11  -2   48.21    1.23
  -3  11   2   49.40    1.23
  -2  11   2    0.43    0.09
   2  11  -2    0.22    0.08
   1  11  -2   76.75    1.93
   1  11  -2   75.96    1.94
  -1  11   2   76.33    1.92
   0  11  -2    6.93    0.26
   0  11   2    6.73    0.29
   0  11  -2    6.88    0.32
  -1  11  -2  101.62    2.60
   1  11   2  107.85    2.62
   2  11   2    0.30    0.09
   4  11   2    9.04    0.41
  -5  11  -2   23.11    0.71
   5  11   2   18.95    0.72
  -6  12   2    7.26    0.35
   6  12  -2    7.44    0.36
   5  12  -2    3.79    0.24
  -5  12   2    3.34    0.22
   5  12  -2    3.23    0.22
  -4  12   2    2.59    0.19
   4  12  -2    2.38    0.21
   4  12  -2    2.44    0.19
   3  12  -2   18.43    0.61
  -3  12   2   19.26    0.60
   2  12  -2   39.61    1.11
  -2  12   2   40.00    1.09
   1  12  -2    9.14    0.36
   1  12  -2    9.32    0.38
  -1  12   2    9.00    0.36
   0  12  -2   29.58    0.90
   0  12   2   29.64    0.86
  -1  12  -2   16.72    0.57
   1  12   2   18.30    0.59
  -2  12  -2   74.70    1.70
   2  12   2   55.06    1.71
  -4  12  -2    2.14    0.18
   5  13  -2   18.20    0.69
  -5  13   2   19.98    0.66
   4  13  -2   12.49    0.51
  -2  13   2    0.32    0.08
   2  13  -2    0.41    0.10
  -1  13   2    1.47    0.16
   1  13  -2    1.74    0.18
   1  13  -2    1.32    0.14
   0  13   2  125.38    3.05
   0  13  -2  119.91    3.08
   1  13   2   12.79    0.47
  -1  13  -2   11.62    0.45
  -2  13  -2    3.47    0.21
   2  13   2    3.45    0.27
   3  13   2    3.87    0.29
   3  14  -2    4.49    0.29
  -2  14   2   42.36    1.22
   2  14  -2   46.15    1.26
  -1  14   2   32.51    0.96
   0  14   2    1.77    0.18
   1  14   2   21.74    0.71
   2  14   2   19.66    0.69
   3  14   2   11.13    0.51
  -2  15   2    0.91    0.15
  -1  15   2    7.67    0.36
   0  15   2   28.47    0.88
   1  15   2   14.38    0.55
   9   0  -3   10.94    0.45
   8   0  -3   40.71    1.15
   7   0  -3   57.39    1.51
   6   0  -3   68.32    1.74
  -4   0   3   59.10    1.56
  -3   0   3  197.26    5.06
  -2   0   3   74.79    2.04
   1   0  -3   11.12    0.29
  -1   0   3   10.77    0.29
   0   0   3  146.91    4.59
   0   0  -3  144.43    3.70
   0   0  -3  145.98    4.80
   1   0   3  109.18    2.63
  -1   0  -3  104.61    6.01
  -1   0  -3  105.03    2.61
   2   0   3  335.96   11.56
  -2   0  -3  319.72    7.77
  -2   0  -3  325.54   12.00
   3   0   3   59.93    2.24
  -3   0  -3   61.08    1.46
  -3   0  -3   60.90    1.60
   4   0   3    3.21    0.15
  -4   0  -3    3.53    0.19
  -4   0  -3    3.37    0.13
  -5   0  -3   51.26    1.36
   5   0   3   50.90    1.29
  -6   0  -3   45.77    1.28
  -7   0  -3   10.43    0.46
   9  -1  -3    8.07    0.38
   9   1  -3    8.03    0.37
   8  -1  -3   11.55    0.45
   8   1  -3   11.40    0.44
   7  -1  -3    2.40    0.18
   7   1  -3    2.87    0.19
   6   1  -3   70.26    1.78
  -5   1   3  194.58    5.25
   5   1  -3  200.24    5.26
   4   1  -3   56.73    4.21
  -4   1   3   55.07    1.66
  -3   1   3   19.69    0.53
  -2  -1   3  121.97    5.82
  -2   1   3  121.17    3.16
   1  -1  -3  133.49    3.63
   1  -1  -3  129.12    4.89
  -1  -1   3  129.10    5.06
   1   1  -3  135.39    6.96
  -1   1   3  129.99    6.21
   0  -1  -3   30.21    0.76
   0   1  -3   26.91    0.78
   0   1   3   28.95    0.79
  -1  -1  -3   15.54    0.39
   1  -1   3   15.85    0.38
  -1  -1  -3   15.94    0.42
  -1   1  -3   15.61    0.43
   1   1   3   15.60    0.41
  -2  -1  -3    1.70    0.08
  -2  -1  -3    1.83    0.10
   2  -1   3    2.16    0.08
  -2   1  -3    1.71    0.10
  -2   1  -3    1.88    0.07
   2   1   3    1.88    0.09
   3  -1   3   84.71    3.97
  -3  -1  -3   81.78    2.21
  -3  -1  -3   84.47    2.41
  -3   1  -3   82.93    2.30
  -3   1  -3   83.15    2.02
   3   1   3   89.08    2.24
  -4  -1  -3  157.79    6.34
   4  -1   3  157.06    4.68
  -4  -1  -3  156.01    3.81
  -4   1  -3  157.69    4.24
   4   1   3  160.91    4.04
  -5  -1  -3   14.83    0.50
   5   1   3   14.52    0.45
  -5   1  -3   14.86    0.51
  -6  -1  -3    2.17    0.19
  -6   1  -3    2.38    0.20
  -7  -1  -3   17.51    0.64
  -7   1  -3   17.73    0.65
   9  -2  -3    4.04    0.27
   9   2  -3    4.13    0.26
   8  -2  -3   36.57    1.05
   8   2  -3   35.77    1.04
   7   2  -3   44.43    1.21
   6   2  -3   22.59    0.67
  -6   2   3   22.34    0.67
  -5   2   3    2.99    0.16
   4  -2  -3  107.26    2.54
   4   2  -3  106.19    2.95
  -4   2   3  106.02    5.11
   3  -2  -3  308.55    9.25
  -3   2   3  316.94   14.69
   3   2  -3  316.32   14.07
   2  -2  -3  237.46    7.16
   2   2  -3  250.65    9.93
  -2   2   3  227.04   10.87
   1  -2  -3    0.43    0.03
   0  -2  -3  209.38    7.43
   0  -2  -3  212.15    6.90
   0   2   3  222.96    7.83
   0   2  -3  212.04   10.32
  -1  -2  -3  346.05   12.44
  -1   2  -3  336.52   13.58
  -2  -2  -3  111.99    4.62
   2  -2   3  115.31    2.76
  -2  -2  -3  108.73    2.75
  -2   2  -3  111.40    3.03
   2   2   3  110.87    5.90
  -2   2  -3  111.05    2.71
   3  -2   3   30.81    0.79
  -3  -2  -3   32.35    0.79
  -3  -2  -3   31.70    0.84
   3   2   3   31.95    0.82
  -3   2  -3   32.16    0.77
  -3   2  -3   31.70    0.86
  -4  -2  -3   13.90    0.38
  -4  -2  -3   14.02    0.45
  -4   2  -3   13.80    0.46
   4   2   3   14.41    0.42
  -5  -2  -3   16.28    0.54
  -5   2  -3   16.46    0.56
   5   2   3   16.69    0.50
  -6  -2  -3   35.63    1.04
   6   2   3   35.08    0.96
  -6   2  -3   36.25    1.05
  -7   2  -3   13.62    0.55
   9  -3  -3   29.76    0.93
   9   3  -3   29.81    0.92
   8  -3  -3    0.03    0.07
   8   3  -3    0.02    0.06
   7   3  -3   17.15    0.57
  -7   3   3   17.82    0.58
  -6   3   3   38.88    1.07
   6   3  -3   39.57    1.06
   5   3  -3   33.34    0.90
  -5   3   3   33.68    0.91
   4   3  -3   40.22    1.03
  -4   3   3   40.52    1.05
   3  -3  -3   85.71    2.05
   3   3  -3   82.41    2.25
  -3   3   3   83.46    6.06
   2  -3  -3   37.70    0.93
   2   3  -3   35.04    1.02
  -2   3   3   37.84    2.79
   1  -3  -3  358.90   11.52
   1   3  -3  367.13   15.07
  -1   3   3  361.84   13.95
   1   3  -3  371.81   11.83
   0  -3  -3  332.20   10.94
   0   3   3  329.79   13.27
   0   3  -3  331.98   14.31
  -1  -3  -3    0.66    0.05
  -1  -3  -3    0.68    0.05
  -1   3  -3    0.47    0.07
  -2  -3  -3  139.39    3.50
  -2  -3  -3  142.50    6.56
   2  -3   3  151.11    3.50
   2   3   3  145.25    5.96
  -2   3  -3  135.19    3.78
  -3  -3  -3  176.04    4.31
  -3  -3  -3  174.74    4.56
   3  -3   3  179.66    4.38
  -3   3  -3  170.23    4.68
  -3   3  -3  177.78    4.24
   3   3   3  180.92    4.52
  -4  -3  -3    4.46    0.16
  -4  -3  -3    4.49    0.21
  -4   3  -3    4.53    0.22
   4   3   3    4.36    0.19
  -5  -3  -3   17.32    0.57
  -5   3  -3   18.13    0.59
   5   3   3   17.12    0.52
  -6   3  -3    0.03    0.06
   6   3   3    0.04    0.05
  -7   3  -3    8.73    0.42
   8   4  -3   60.50    1.61
   7   4  -3   59.35    1.55
  -7   4   3   58.96    1.57
  -6   4   3    7.64    0.32
   6   4  -3    7.87    0.31
  -5   4   3    8.79    0.32
   5   4  -3    8.47    0.31
  -4   4   3  106.06    2.80
  -4   4   3  102.83    2.82
   4   4  -3  103.44    2.86
   3  -4  -3  170.61    4.06
   3   4  -3  166.93    8.71
  -3   4   3  169.02    4.50
   2  -4  -3    8.67    0.24
  -2   4   3    8.76    0.28
   2   4  -3    9.27    0.26
   1  -4  -3   39.47    0.93
   1   4  -3   37.61    1.02
  -1   4   3   38.25    1.04
   1   4  -3   38.78    1.15
   0  -4  -3   28.41    0.70
   0   4   3   28.15    1.25
   0   4  -3   28.34    0.75
   0   4  -3   29.02    0.69
  -1  -4  -3  230.82    5.55
  -1   4  -3  227.43    5.90
  -1   4  -3  226.88    6.99
  -2  -4  -3  198.14    4.93
   2   4   3  207.42    5.18
  -2   4  -3  206.16    6.76
  -2   4  -3  193.48    5.24
  -3  -4  -3   32.36    0.80
  -3   4  -3   31.21    0.86
   3   4   3   31.45    0.83
  -4   4  -3    1.12    0.13
   4   4   3    1.18    0.10
  -5   4  -3   76.80    1.99
   5   4   3   77.04    1.92
  -6   4  -3   37.89    1.11
   6   4   3   37.25    1.03
   7   4   3    7.49    0.46
  -7   4  -3    7.33    0.38
   8   5  -3    8.33    0.36
  -8   5   3    8.10    0.38
  -7   5   3   13.74    0.50
   7   5  -3   14.01    0.49
  -6   5   3   32.07    0.90
  -6   5   3   32.09    0.92
   6   5  -3   32.31    0.90
  -5   5   3  130.29    8.92
   5   5  -3  131.24    3.44
  -5   5   3  128.49    3.44
  -4   5   3   41.01    1.05
  -4   5   3   41.69    1.09
   4   5  -3   41.90    1.12
   3  -5  -3    1.53    0.06
   3   5  -3    1.70    0.10
  -3   5   3    1.64    0.08
  -3   5   3    1.57    0.11
   2  -5  -3  156.07    3.89
   2   5  -3  162.00    8.35
   2   5  -3  160.92    4.25
  -2   5   3  162.74    3.90
  -2   5   3  157.69    6.46
   1  -5  -3    9.87    0.28
   1   5  -3   12.32    0.35
   1   5  -3   10.34    0.29
  -1   5   3   10.24    0.32
   0  -5  -3  267.71    6.49
   0   5  -3  266.26    7.69
   0   5  -3  270.30    8.39
  -1  -5  -3    4.57    0.15
  -1   5  -3    4.35    0.19
  -1   5  -3    4.19    0.13
  -2  -5  -3    3.72    0.14
   2   5   3    3.83    0.18
  -2   5  -3    3.65    0.18
   3   5   3   78.02    1.92
  -3   5  -3   71.40    2.71
   4   5   3   70.39    1.73
  -4   5  -3   67.69    1.77
  -5   5  -3   33.94    0.99
   5   5   3   34.09    0.93
  -6   5  -3    9.73    0.43
   6   5   3   10.25    0.38
   7   5   3    6.24    0.29
  -7   5  -3    5.97    0.35
   8   6  -3   23.96    0.76
  -8   6   3   23.99    0.78
   7   6  -3   28.72    0.83
  -7   6   3   27.61    0.85
  -6   6   3   30.90    0.87
  -6   6   3   30.43    0.89
   6   6  -3   30.65    0.87
  -5   6   3    1.59    0.13
  -5   6   3    1.64    0.12
   5   6  -3    1.48    0.12
   4   6  -3   44.07    1.14
  -4   6   3   44.62    1.17
  -4   6   3   44.82    1.16
   3   6  -3  191.42    4.93
  -3   6   3  185.23    5.02
  -3   6   3  191.53    4.75
  -2   6   3  193.70    4.96
  -2   6   3  190.20    4.60
   2   6  -3  186.20    9.08
   2   6  -3  185.25    5.00
   1  -6  -3    0.07    0.02
  -1   6   3    0.13    0.04
   1   6  -3    0.07    0.04
   0  -6  -3  180.93    4.44
   0   6  -3  177.46   10.32
   0   6   3  182.94    6.51
   0   6  -3  178.91    5.31
  -1  -6  -3  140.42    3.45
  -1   6  -3  135.13    4.45
  -1   6  -3  131.92    8.70
  -2   6  -3  113.56    2.92
   2   6   3   86.53    2.48
   3   6   3    1.69    0.13
  -3   6  -3    1.27    0.12
   4   6   3    1.54    0.13
  -4   6  -3    1.84    0.15
  -5   6  -3   11.26    0.44
   5   6   3   11.62    0.41
  -6   6  -3   21.86    0.73
   6   6   3   21.55    0.67
  -8   7   3    3.73    0.25
   8   7  -3    3.78    0.24
   7   7  -3    0.11    0.06
  -7   7   3    0.13    0.07
  -7   7   3    0.07    0.06
  -6   7   3   61.16    1.61
   6   7  -3   60.02    1.58
  -6   7   3   61.34    1.58
  -5   7   3  104.39    4.44
   5   7  -3  103.08    5.35
  -5   7   3  104.08    2.64
  -4   7   3   41.24    1.10
   4   7  -3   42.41    1.08
  -4   7   3   40.43    1.06
  -3   7   3    8.11    0.29
   3   7  -3    8.01    0.28
   2   7  -3   73.98    1.99
  -2   7   3   72.97    1.96
   2   7  -3   71.13    2.02
  -1   7   3  115.11    3.02
   1   7  -3  113.66    7.12
   0   7  -3    7.86    0.30
   0   7  -3    7.95    0.24
   0   7   3    8.19    0.28
   1   7   3    4.94    0.23
  -2   7  -3    0.27    0.06
  -3   7  -3   87.68    3.96
   3   7   3   94.73    2.29
   4   7   3   65.03    1.59
  -4   7  -3   58.17    1.60
   5   7   3   11.78    0.42
  -5   7  -3   11.37    0.45
   6   7   3    0.51    0.10
  -6   7  -3    0.47    0.11
   8   8  -3   23.06    0.75
  -8   8   3   23.09    0.77
  -7   8   3   46.28    1.30
   7   8  -3   46.06    1.27
  -6   8   3   16.30    0.56
   6   8  -3   16.06    0.54
  -5   8   3    9.21    0.36
   5   8  -3    9.14    0.34
   4   8  -3   79.43    2.02
  -4   8   3   78.60    3.02
  -3   8   3   72.99    3.54
   3   8  -3   75.54    3.09
   3   8  -3   73.88    1.91
   2   8  -3   21.33    0.59
  -2   8   3   20.33    0.59
   2   8  -3   20.15    0.60
  -1   8   3    0.85    0.09
   1   8  -3    0.84    0.11
   0   8  -3   11.76    0.34
   0   8   3   11.82    0.38
   0   8  -3   11.54    0.41
  -3   8  -3   69.10    1.61
   3   8   3   53.93    1.60
   4   8   3    9.08    0.37
  -4   8  -3    8.34    0.35
  -5   8  -3   35.71    1.06
   5   8   3   36.92    1.03
  -6   8  -3   24.44    0.81
   6   8   3   24.53    0.76
   7   9  -3    4.91    0.27
  -7   9   3    5.14    0.29
  -6   9   3   29.09    0.88
   6   9  -3   29.54    0.86
   5   9  -3   32.54    0.91
  -5   9   3   32.57    0.94
  -4   9   3   11.60    0.42
   4   9  -3   11.87    0.40
  -3   9   3    8.85    0.33
   3   9  -3    8.80    0.34
   3   9  -3    9.17    0.32
  -2   9   3   12.79    0.40
   2   9  -3   13.07    0.42
   2   9  -3   10.25    0.39
  -1   9   3  147.05    3.95
   1   9  -3  149.69    7.98
   0   9   3   69.20    1.71
   0   9  -3   66.46    1.75
   1   9   3    4.64    0.25
  -1   9  -3    5.23    0.25
   3   9   3   15.66    0.55
  -4   9  -3   28.86    0.82
   4   9   3   24.53    0.82
   5   9   3    3.21    0.24
  -5   9  -3    3.48    0.24
  -7  10   3   11.98    0.49
   7  10  -3   11.82    0.47
   6  10  -3   16.72    0.57
  -6  10   3   16.93    0.59
   5  10  -3    3.07    0.19
  -5  10   3    3.21    0.21
  -4  10   3   11.65    0.42
   4  10  -3   12.01    0.42
   4  10  -3   11.82    0.43
   3  10  -3  115.06    2.79
  -3  10   3  109.47    2.90
   3  10  -3  108.67    2.74
   2  10  -3   48.90    1.30
  -2  10   3   48.87    1.28
   1  10  -3    4.96    0.24
  -1  10   3    6.22    0.26
   1  10  -3    5.94    0.27
   0  10  -3   67.95    1.79
   0  10   3   69.15    1.74
  -1  10  -3   85.94    2.22
   1  10   3   90.13    2.22
   2  10   3   18.61    0.62
   4  10   3    0.25    0.09
  -5  10  -3   10.57    0.43
   5  10   3    8.60    0.43
   6  11  -3    9.50    0.39
  -6  11   3    9.50    0.41
   5  11  -3   33.16    0.97
  -5  11   3   32.86    0.97
   5  11  -3   33.97    0.96
  -4  11   3   25.56    0.78
   4  11  -3   27.18    0.78
   4  11  -3   25.24    0.78
   3  11  -3    0.22    0.08
   3  11  -3    0.35    0.09
   2  11  -3   26.33    0.79
  -2  11   3   25.77    0.76
   1  11  -3   46.36    1.27
  -1  11   3   47.21    1.24
   0  11  -3   57.51    1.59
   0  11   3   60.56    1.54
   1  11   3    0.68    0.14
  -2  11  -3   13.40    0.47
  -4  11  -3   20.45    0.68
   5  11   3    2.60    0.23
  -6  12   3    2.05    0.19
   6  12  -3    2.27    0.20
   6  12  -3    2.21    0.20
  -5  12   3    1.27    0.15
   5  12  -3    1.32    0.16
   5  12  -3    1.47    0.16
   4  12  -3   27.43    0.87
   4  12  -3   28.66    0.86
  -4  12   3   28.71    0.85
   3  12  -3   30.40    0.91
  -3  12   3   31.52    0.90
  -2  12   3   23.86    0.72
   2  12  -3   23.37    0.74
   1  12  -3    0.19    0.08
   0  12  -3    6.77    0.35
   0  12   3    7.11    0.31
   1  12   3   55.94    1.50
  -1  12  -3   56.93    1.52
  -2  12  -3   39.90    1.13
   2  12   3   41.75    1.19
   3  12   3    3.00    0.25
   5  13  -3   35.22    1.05
  -5  13   3   36.62    1.06
   5  13  -3   33.62    1.07
   4  13  -3   10.84    0.44
  -4  13   3   10.90    0.44
  -3  13   3    2.19    0.18
   3  13  -3    2.02    0.20
  -2  13   3   30.94    0.91
   2  13  -3   31.02    0.93
  -1  13   3   10.67    0.42
   1  13  -3   10.64    0.45
   0  13  -3   20.26    0.71
   0  13   3   19.94    0.65
   1  13   3    1.67    0.18
  -1  13  -3    1.61    0.17
  -2  13  -3    0.61    0.12
   2  13   3    0.48    0.13
  -3  14   3   49.92    1.36
   3  14  -3   47.64    1.37
  -2  14   3    7.40    0.34
   2  14  -3    7.45    0.37
  -1  14   3    1.84    0.18
   1  14  -3    1.84    0.22
   0  14  -3   19.33    0.70
   0  14   3   19.89    0.66
   1  14   3   29.88    0.92
  -1  14  -3   30.15    0.91
  -2  14  -3   20.35    0.68
   2  14   3   20.42    0.71
  -2  15   3   13.42    0.52
  -1  15   3   30.56    0.94
   0  15   3   23.98    0.78
   9   0  -4   21.38    0.72
   8   0  -4   48.73    1.34
   7   0  -4    6.91    0.31
   6   0  -4    6.78    0.29
  -5   0   4  131.66    6.87
  -4   0   4   80.66    5.39
  -3   0   4  129.36    3.44
  -2   0   4   17.08    0.45
  -1   0   4   39.28    2.10
   1   0  -4   40.01    2.31
   0   0  -4  445.70   14.09
   0   0   4  456.39   13.12
   0   0  -4  449.21   17.03
  -1   0  -4    0.41    0.05
  -1   0  -4    0.43    0.04
  -2   0  -4   92.01    2.44
   2   0   4   92.95    2.34
  -2   0  -4   92.95    2.27
  -3   0  -4    0.05    0.05
  -3   0  -4    0.09    0.02
   3   0   4    0.06    0.03
  -4   0  -4   26.66    0.68
  -4   0  -4   26.89    0.77
  -5   0  -4   60.99    1.61
  -6   0  -4   10.29    0.43
  -7   0  -4    3.24    0.26
   9  -1  -4    1.44    0.17
   9   1  -4    1.51    0.17
   8  -1  -4   11.71    0.46
   8   1  -4   11.78    0.46
   7  -1  -4   53.97    1.45
   7   1  -4   54.71    1.45
   6   1  -4   94.74    2.33
  -6   1   4   91.60    5.12
   5   1  -4   10.88    0.37
  -5   1   4   10.52    0.37
  -4   1   4    2.26    0.13
  -3  -1   4   24.56    0.65
  -3   1   4   24.93    0.66
  -2  -1   4  242.06   10.62
   2  -1  -4  260.35    7.61
  -2   1   4  243.30   11.31
  -1  -1   4  318.16   10.58
   1  -1  -4  315.24   11.70
   1  -1  -4  315.32   10.06
  -1   1   4  315.36   11.98
   1   1  -4  307.17   13.35
   0  -1  -4   14.32    0.37
   0  -1  -4   13.89    0.35
   0   1   4   13.40    0.35
   0   1  -4   12.98    0.39
  -1  -1  -4   25.13    0.62
  -1  -1  -4   25.13    0.64
  -1   1  -4   24.18    0.65
  -1   1  -4   25.06    0.61
  -2  -1  -4  194.67    4.76
  -2  -1  -4  191.64    4.98
   2  -1   4  199.21    4.75
  -2   1  -4  192.56    5.10
   2   1   4  198.94    4.86
  -2   1  -4  197.88    5.25
  -3  -1  -4  109.68    2.66
  -3  -1  -4  109.07    2.91
   3   1   4  110.72    2.79
  -3   1  -4  110.68    5.43
  -3   1  -4  110.78    3.36
  -4  -1  -4    5.21    0.18
  -4  -1  -4    5.16    0.24
  -4   1  -4    5.00    0.25
  -5  -1  -4    2.47    0.18
  -5   1  -4    2.48    0.19
  -6  -1  -4   13.02    0.50
  -6   1  -4   13.12    0.51
  -7  -1  -4   23.42    0.80
  -7   1  -4   23.97    0.81
   9  -2  -4   15.45    0.58
   9   2  -4   15.35    0.57
   8  -2  -4   38.41    1.13
   8   2  -4   40.11    1.12
   7   2  -4   17.24    0.56
  -7   2   4   16.38    0.56
  -6   2   4    4.39    0.22
   6   2  -4    4.36    0.22
  -5   2   4   33.90    0.93
   5   2  -4   34.84    0.93
   4  -2  -4   35.06    0.86
   4   2  -4   36.44    0.92
  -4   2   4   34.50    0.93
   3  -2  -4  214.53    7.11
  -3   2   4  218.13   11.18
   3   2  -4  224.32    5.63
   2  -2  -4    2.81    0.09
  -2   2   4    2.59    0.11
   2   2  -4    2.44    0.12
   2   2  -4    2.53    0.10
   1  -2  -4   64.75    1.62
   1  -2  -4   64.69    2.93
   1   2  -4   61.22    3.85
  -1   2   4   62.87    1.72
   1   2  -4   62.46    2.31
   0  -2  -4  213.24    5.03
   0  -2  -4  211.90    5.04
   0   2  -4  202.86    5.39
   0   2   4  198.12    8.44
  -1  -2  -4  287.24   10.67
  -1  -2  -4  295.75    7.04
  -1   2  -4  293.98    7.36
  -2  -2  -4   25.94    0.66
  -2  -2  -4   25.96    0.69
   2   2   4   26.55    0.68
  -2   2  -4   26.29    0.64
  -2   2  -4   26.23    0.71
  -3  -2  -4   49.46    1.28
  -3  -2  -4   50.44    1.22
  -3   2  -4   49.90    1.30
   3   2   4   49.45    1.24
  -3   2  -4   51.10    1.20
  -4  -2  -4   25.14    0.65
  -4  -2  -4   24.84    0.73
  -4   2  -4   25.50    0.75
   4   2   4   25.68    0.69
  -5  -2  -4   28.87    0.86
  -5   2  -4   29.63    0.88
  -6  -2  -4    9.45    0.41
  -6   2  -4    9.52    0.42
  -7   2  -4    0.19    0.10
   9  -3  -4    3.47    0.25
   9   3  -4    3.23    0.24
   8   3  -4    2.21    0.18
  -7   3   4   34.83    1.01
   7   3  -4   35.61    1.00
  -6   3   4   94.32    2.57
   6   3  -4   93.79    2.56
  -5   3   4   72.28    5.01
   5   3  -4   75.74    2.07
   4  -3  -4    8.65    0.23
   4   3  -4    8.60    0.29
  -4   3   4    8.65    0.31
   3  -3  -4  445.08   12.74
   3   3  -4  442.73   16.84
  -3   3   4  428.82   18.68
   2  -3  -4  185.72    4.85
  -2   3   4  181.25    7.84
   2   3  -4  187.91    4.86
   2   3  -4  189.96    4.66
   1  -3  -4   55.77    2.71
  -1   3   4   54.14    2.97
   1   3  -4   53.93    3.01
   1   3  -4   54.42    1.36
   0  -3  -4    0.53    0.04
   0  -3  -4    0.52    0.05
   0   3   4    0.43    0.05
  -1  -3  -4   12.39    0.34
  -1  -3  -4   12.43    0.34
  -1   3  -4   12.95    0.39
  -2  -3  -4   63.84    1.51
  -2  -3  -4   63.71    3.14
   2   3   4   60.72    1.55
  -2   3  -4   63.17    1.61
  -3  -3  -4   40.93    1.08
  -3  -3  -4   41.67    1.04
  -3   3  -4   43.41    1.01
  -3   3  -4   40.40    1.11
   3   3   4   43.33    1.07
  -4  -3  -4   85.76    2.16
  -4  -3  -4   86.81    2.08
   4   3   4   87.37    2.67
  -4   3  -4   85.94    2.18
  -5  -3  -4    2.09    0.17
  -5   3  -4    1.72    0.17
  -6   3  -4   28.82    0.91
  -8   4   4   23.19    0.76
   8   4  -4   24.05    0.75
   7   4  -4   39.04    1.08
  -7   4   4   38.12    1.10
  -6   4   4    2.52    0.17
   6   4  -4    2.59    0.17
  -5   4   4   57.30    1.49
   5   4  -4   58.03    1.47
   4  -4  -4  329.54    9.38
   4   4  -4  338.30    8.47
  -4   4   4  342.97   16.56
   3  -4  -4   20.64    0.52
   3   4  -4   20.61    0.56
  -3   4   4   21.42    0.59
   2  -4  -4   13.25    0.34
   2   4  -4   13.13    0.40
  -2   4   4   13.05    0.38
   2   4  -4   13.04    0.36
   1  -4  -4   92.34    2.67
   1   4  -4   91.50    6.17
  -1   4   4   91.35    2.48
   1   4  -4   87.18    2.81
   0  -4  -4   31.72    0.77
   0   4  -4   31.30    0.84
   0   4   4   30.95    0.80
  -1  -4  -4  155.67    3.80
  -1  -4  -4  151.72    3.81
  -1   4  -4  154.30    4.16
  -2  -4  -4   25.09    0.66
  -2  -4  -4   24.51    0.63
  -2   4  -4   24.69    0.69
  -3  -4  -4    8.26    0.29
  -3  -4  -4    8.70    0.26
  -3   4  -4    8.02    0.32
   3   4   4    8.66    0.29
  -3   4  -4    8.10    0.23
  -4  -4  -4   67.72    1.65
   4   4   4   68.19    1.69
  -4   4  -4   66.86    1.75
   5   4   4   44.50    1.18
  -5   4  -4   45.68    1.26
  -6   4  -4   10.81    0.46
  -8   5   4   14.27    0.54
   8   5  -4   14.64    0.53
  -7   5   4   30.17    0.91
   7   5  -4   30.77    0.89
   6   5  -4   61.40    1.58
  -6   5   4   61.26    1.61
   5   5  -4   58.03    1.48
  -5   5   4   58.66    1.51
   4   5  -4   28.67    0.77
  -4   5   4   28.38    0.79
   3  -5  -4   35.06    0.86
  -3   5   4   36.04    0.94
   3   5  -4   35.38    0.90
   2  -5  -4  142.81    5.25
  -2   5   4  137.38    6.95
   2   5  -4  141.24    3.60
   2   5  -4  141.95    3.83
   1  -5  -4  160.87    6.51
  -1   5   4  157.44    4.17
   1   5  -4  156.86    3.93
   1   5  -4  164.31    4.36
   0  -5  -4   16.26    0.43
   0   5   4   15.78    0.46
   0   5  -4   16.60    0.50
  -1  -5  -4   36.24    0.91
  -1   5  -4   37.23    0.98
   2   5   4   37.13    0.99
  -3  -5  -4   94.06    2.24
   3   5   4   95.81    2.31
  -3   5  -4   90.60    2.32
  -4   5  -4   11.24    0.43
   4   5   4   11.54    0.39
  -5   5  -4    1.80    0.18
   5   5   4    1.93    0.15
  -6   5  -4   14.77    0.57
  -8   6   4   13.99    0.54
   8   6  -4   14.55    0.52
   7   6  -4   16.80    0.56
  -7   6   4   16.34    0.58
   6   6  -4   10.08    0.37
  -6   6   4   10.31    0.40
  -5   6   4    0.62    0.09
   5   6  -4    0.70    0.09
   4   6  -4  142.17    8.65
  -4   6   4  134.30    9.55
   3  -6  -4   90.92    2.25
  -3   6   4   92.07    4.54
   3   6  -4   91.18    2.43
   3   6  -4   92.76    6.04
   2  -6  -4   28.27    0.70
  -2   6   4   27.82    0.75
   2   6  -4   26.87    0.71
   2   6  -4   28.34    0.77
   1  -6  -4  121.70    3.04
   1   6  -4  118.44    6.41
  -1   6   4  120.84    6.20
   0  -6  -4  140.87    3.45
   0   6  -4  131.75    8.87
   0   6   4  136.93    3.58
  -1  -6  -4  187.19    4.69
  -1   6  -4  191.97    6.36
  -2  -6  -4    0.49    0.07
  -2   6  -4    0.53    0.09
   3   6   4    1.90    0.16
  -3   6  -4    2.26    0.16
  -4   6  -4   23.69    0.75
   4   6   4   25.81    0.73
   5   6   4   22.06    0.66
  -5   6  -4   21.32    0.71
  -6   6  -4    8.71    0.41
   6   6   4    8.63    0.36
  -8   7   4    5.06    0.30
   8   7  -4    5.11    0.28
  -7   7   4   49.35    1.37
   7   7  -4   49.10    1.34
  -6   7   4   57.57    1.54
   6   7  -4   57.53    1.50
  -5   7   4    0.92    0.11
   5   7  -4    0.98    0.10
   4   7  -4   12.91    0.41
  -4   7   4   13.01    0.44
   3   7  -4   37.58    0.96
  -3   7   4   36.94    0.98
   3   7  -4   36.09    0.99
   2  -7  -4  108.32    2.61
   2   7  -4  105.80    2.99
   2   7  -4  107.89    2.79
  -2   7   4  104.04    2.97
   1  -7  -4  155.66    3.80
  -1   7   4  153.37    4.08
   1   7  -4  156.99    9.60
   0  -7  -4   13.36    0.36
   0   7  -4   12.16    0.44
   0   7   4   12.45    0.40
  -1  -7  -4    8.46    0.26
   1   7   4    7.40    0.31
  -1   7  -4    8.70    0.33
   4   7   4    6.43    0.31
  -4   7  -4    6.33    0.30
  -5   7  -4    3.71    0.25
   5   7   4    3.99    0.24
  -6   7  -4    6.14    0.35
   6   7   4    6.21    0.31
   8   8  -4   31.62    0.96
   7   8  -4   12.47    0.46
  -7   8   4   12.28    0.49
  -6   8   4    0.07    0.06
   6   8  -4    0.10    0.05
  -5   8   4   97.26    2.42
   5   8  -4   94.89    3.30
   4   8  -4   17.41    0.53
  -4   8   4   17.42    0.55
   3   8  -4   50.10    1.31
  -3   8   4   49.35    1.29
   3   8  -4   49.67    1.26
   2   8  -4    0.09    0.04
  -2   8   4    0.11    0.05
   2   8  -4    0.22    0.07
  -1   8   4   29.42    0.80
   1   8  -4   29.60    0.84
   0   8  -4   79.81    2.07
   0   8   4   83.35    2.06
  -1   8  -4   29.22    0.85
   1   8   4   29.83    0.84
   3   8   4    2.28    0.18
  -4   8  -4   17.76    0.56
   4   8   4   13.03    0.53
  -5   8  -4   18.48    0.64
   5   8   4   17.67    0.63
   7   9  -4   14.26    0.51
  -7   9   4   13.69    0.54
  -6   9   4   51.31    1.42
   6   9  -4   51.60    1.38
  -5   9   4   43.98    1.22
   5   9  -4   44.36    1.19
   4   9  -4    5.75    0.27
   4   9  -4    5.27    0.24
  -4   9   4    5.74    0.26
   3   9  -4   71.99    1.84
  -3   9   4   71.22    1.82
   3   9  -4   72.88    1.79
   2   9  -4   88.69    2.20
  -2   9   4   86.44    2.37
   1   9  -4   54.72    1.41
  -1   9   4   52.21    1.37
   0   9   4    2.17    0.15
   0   9  -4    2.18    0.19
   1   9   4   12.29    0.43
  -1   9  -4   11.27    0.43
   2   9   4    4.42    0.26
   4   9   4    9.32    0.41
   5   9   4    0.26    0.10
  -5   9  -4    0.45    0.11
  -7  10   4    3.03    0.23
   7  10  -4    3.36    0.23
  -6  10   4    0.58    0.12
   6  10  -4    0.58    0.11
   5  10  -4   31.29    0.89
   5  10  -4   31.32    0.92
  -5  10   4   31.55    0.93
   4  10  -4   29.63    0.84
  -4  10   4   29.92    0.87
   4  10  -4   29.93    0.87
  -3  10   4   47.67    1.27
   3  10  -4   47.72    1.28
   3  10  -4   47.32    1.25
   2  10  -4    0.73    0.13
  -2  10   4    0.66    0.10
  -1  10   4    4.07    0.21
   1  10  -4    4.39    0.24
   0  10  -4  105.20    2.68
   0  10   4  105.47    2.60
   1  10   4   39.35    1.07
  -1  10  -4   37.93    1.09
  -2  10  -4   20.64    0.61
   2  10   4   15.76    0.60
  -6  11   4   29.81    0.93
   6  11  -4   30.23    0.90
   5  11  -4    8.21    0.37
   5  11  -4    8.49    0.35
  -5  11   4    8.23    0.37
   4  11  -4    0.09    0.06
  -4  11   4    0.11    0.06
  -3  11   4   29.66    0.86
   3  11  -4   29.91    0.88
  -2  11   4   68.38    1.75
   2  11  -4   67.89    1.78
   1  11  -4   24.57    0.76
  -1  11   4   23.08    0.71
   0  11   4   10.81    0.40
   0  11  -4   10.68    0.46
   1  11   4    4.38    0.25
  -1  11  -4    4.48    0.26
  -2  11  -4   58.93    1.61
   2  11   4   62.90    1.65
   3  11   4   10.78    0.46
   5  12  -4    8.86    0.38
   5  12  -4    8.56    0.39
  -5  12   4    8.56    0.39
   4  12  -4   55.50    1.52
  -4  12   4   57.31    1.52
   3  12  -4   16.26    0.58
  -3  12   4   16.53    0.56
   2  12  -4    2.28    0.20
  -2  12   4    2.46    0.18
  -1  12   4   10.95    0.42
   1  12  -4   11.32    0.46
   0  12   4   25.26    0.76
   0  12  -4   24.94    0.83
   1  12   4   39.65    1.12
  -1  12  -4   39.36    1.14
  -2  12  -4    2.19    0.18
   2  12   4    2.44    0.22
   3  12   4    0.15    0.12
  -3  12  -4    0.42    0.10
   5  13  -4    8.01    0.39
  -5  13   4    7.92    0.38
  -4  13   4    0.68    0.13
   4  13  -4    0.45    0.11
  -3  13   4   20.81    0.68
   3  13  -4   20.42    0.70
  -2  13   4   12.74    0.47
   2  13  -4   12.69    0.50
  -1  13   4   62.27    1.65
   1  13  -4   62.19    1.72
   0  13  -4    2.29    0.24
   0  13   4    2.39    0.19
  -1  13  -4   11.16    0.46
   1  13   4   10.95    0.44
  -2  13  -4   25.94    0.85
   2  13   4   28.71    0.87
  -3  14   4    2.36    0.20
   3  14  -4    2.08    0.22
  -2  14   4   27.04    0.85
   2  14  -4   27.68    0.89
   1  14  -4   31.32    1.02
  -1  14   4   31.28    0.94
   0  14  -4   28.20    0.93
   0  14   4   28.50    0.87
  -1  14  -4   33.63    1.02
   1  14   4   33.63    1.01
   9   0  -5   18.99    0.67
   8   0  -5   16.31    0.58
   7   0  -5    3.53    0.22
  -5   0   5  213.09    6.01
  -4   0   5   41.93    1.08
  -3   0   5   32.19    0.83
  -2   0   5  214.32    8.86
   2   0  -5  214.27    9.45
   1   0  -5   70.81    1.92
  -1   0   5   69.33    1.80
   0   0  -5   17.95    0.47
   0   0  -5   18.74    0.51
   0   0   5   19.17    0.47
  -1   0  -5   25.85    0.65
  -1   0  -5   26.71    0.70
  -2   0  -5    3.36    0.16
  -2   0  -5    2.95    0.12
  -3   0  -5   70.42    1.68
  -3   0  -5   69.72    1.77
  -4   0  -5   73.67    1.88
  -5   0  -5   23.68    0.75
  -6   0  -5    0.19    0.09
   9  -1  -5    1.99    0.19
   9   1  -5    2.00    0.19
   8  -1  -5   18.47    0.64
   8   1  -5   19.29    0.64
   7   1  -5   71.08    1.84
   6   1  -5   26.13    0.75
  -6   1   5   24.69    0.75
  -5   1   5    1.97    0.14
   5   1  -5    2.03    0.14
  -4  -1   5   68.39    1.75
  -4   1   5   65.90    1.87
  -3  -1   5  248.31    9.97
  -3   1   5  248.71   12.51
  -2  -1   5  172.99    4.33
   2  -1  -5  174.89    6.85
   2  -1  -5  168.36    6.94
   2   1  -5  171.97    4.43
  -2   1   5  169.23    7.88
  -1  -1   5    4.51    0.14
   1  -1  -5    4.72    0.16
   1  -1  -5    4.56    0.14
  -1   1   5    4.66    0.16
   1   1  -5    4.78    0.18
   0  -1  -5   20.30    0.53
   0  -1  -5   19.80    0.51
   0   1  -5   20.04    0.56
   0   1   5   20.43    0.51
  -1  -1  -5   76.76    1.94
  -1  -1  -5   80.18    2.03
  -1   1  -5   78.30    2.77
   1   1   5   78.65    3.59
  -1   1  -5   78.51    2.08
  -2  -1  -5   62.49    2.61
  -2  -1  -5   63.42    1.52
  -2   1  -5   63.94    1.52
  -2   1  -5   63.53    1.59
  -3  -1  -5   20.30    0.61
  -3  -1  -5   20.49    0.54
  -3   1  -5   20.77    0.53
  -3   1  -5   20.54    0.62
  -4   1  -5    0.15    0.08
  -5  -1  -5   19.86    0.65
  -5   1  -5   19.56    0.66
  -6  -1  -5   25.67    0.83
  -6   1  -5   25.62    0.83
   9  -2  -5   16.96    0.62
   9   2  -5   17.18    0.62
   8  -2  -5    6.15    0.32
   8   2  -5    6.40    0.31
   7   2  -5   18.81    0.61
  -7   2   5   18.49    0.62
  -6   2   5   23.63    0.72
   6   2  -5   24.50    0.71
   5   2  -5   49.98    1.27
  -5   2   5   48.19    1.28
   4  -2  -5   26.09    0.63
   4   2  -5   26.23    0.71
  -4   2   5   25.36    0.72
   3  -2  -5   37.67    1.39
  -3   2   5   36.70    0.95
   3   2  -5   36.67    0.94
   2  -2  -5   69.56    2.53
   2  -2  -5   66.54    3.01
   2   2  -5   67.74    3.34
  -2   2   5   67.48    1.84
   2   2  -5   67.87    4.35
   1  -2  -5  166.04    4.08
   1  -2  -5  164.63    4.55
   1   2  -5  160.70    8.95
   1   2  -5  157.17    3.93
  -1   2   5  167.15    7.68
   0  -2  -5  251.16    6.15
   0  -2  -5  258.97    6.12
   0   2   5  251.47    6.19
   0   2  -5  244.29    6.43
  -1  -2  -5   15.34    0.40
  -1  -2  -5   15.58    0.42
   1   2   5   14.33    0.42
  -1   2  -5   15.03    0.45
  -2  -2  -5   23.03    0.65
  -2  -2  -5   23.94    0.61
  -2   2  -5   23.88    0.67
  -2   2  -5   24.03    0.60
  -3  -2  -5   96.41    2.28
  -3  -2  -5   92.36    2.34
  -3   2  -5   95.18    2.46
  -3   2  -5   97.89    2.28
  -4  -2  -5   37.12    1.03
  -4  -2  -5   37.70    0.95
  -4   2  -5   37.75    1.05
  -5  -2  -5   11.21    0.43
  -5   2  -5   11.30    0.45
  -6   2  -5    0.05    0.08
   9  -3  -5    6.59    0.35
   9   3  -5    7.01    0.35
   8   3  -5   37.89    1.09
  -8   3   5   37.80    1.11
   7   3  -5   50.66    1.35
  -7   3   5   48.95    1.36
   6   3  -5   24.39    0.71
  -6   3   5   24.03    0.73
  -5   3   5    5.21    0.24
   5   3  -5    5.48    0.23
   4  -3  -5   77.39    1.86
  -4   3   5   75.22    5.61
   4   3  -5   75.24    2.09
   3  -3  -5   41.76    1.02
   3   3  -5   40.06    1.03
  -3   3   5   41.49    1.12
   2  -3  -5  165.90    6.42
   2  -3  -5  169.72    4.07
   2   3  -5  164.75    4.39
   2   3  -5  160.74    6.94
  -2   3   5  164.31    8.96
   1  -3  -5   47.20    1.21
   1  -3  -5   51.56    1.22
   1   3  -5   48.67    1.90
  -1   3   5   49.18    1.24
   0  -3  -5    1.59    0.07
   0  -3  -5    1.14    0.07
   0   3  -5    1.27    0.11
   0   3   5    1.42    0.09
  -1  -3  -5  102.14    2.41
  -1  -3  -5  101.67    2.51
  -1   3  -5   99.11    3.46
   1   3   5   93.40    3.04
  -2  -3  -5  137.16    3.57
  -2  -3  -5  142.14    3.43
  -2   3  -5  140.47    6.08
  -2   3  -5  141.74    3.41
  -3  -3  -5   19.97    0.63
  -3  -3  -5   21.23    0.55
   3   3   5   19.60    0.61
  -3   3  -5   20.78    0.63
  -3   3  -5   21.29    0.53
  -4  -3  -5   10.18    0.32
  -4   3  -5   10.00    0.40
  -5   3  -5   18.41    0.64
  -6   3  -5   26.84    0.88
   8   4  -5    3.64    0.23
  -8   4   5    3.66    0.25
  -7   4   5    2.75    0.20
   7   4  -5    2.87    0.19
   6   4  -5   29.10    0.82
  -6   4   5   28.43    0.85
   5   4  -5   68.69    1.73
  -5   4   5   68.79    3.88
   4  -4  -5  116.45    2.84
  -4   4   5  115.22    3.29
   4   4  -5  117.32    3.04
   3  -4  -5   12.68    0.33
  -3   4   5   12.25    0.39
   3   4  -5   12.38    0.36
   3   4  -5   12.16    0.39
   2  -4  -5   33.07    0.81
  -2   4   5   33.07    0.86
   2   4  -5   31.85    0.81
   2   4  -5   33.30    0.87
   1  -4  -5  259.47    7.10
  -1   4   5  261.38   12.17
   1   4  -5  256.19   13.53
   0  -4  -5   97.24    3.51
   0   4   5   97.31    2.56
   0   4  -5   94.14    2.54
  -1  -4  -5    1.78    0.09
  -1   4  -5    1.87    0.13
   1   4   5    1.56    0.12
  -2  -4  -5   44.95    1.11
  -2   4  -5   44.69    1.18
  -3  -4  -5    3.38    0.15
  -3   4  -5    3.23    0.20
  -3   4  -5    3.07    0.12
  -4  -4  -5   61.84    1.52
  -4   4  -5   61.89    1.64
  -5   4  -5   13.90    0.53
  -6   4  -5    0.39    0.12
   8   5  -5   28.10    0.86
  -8   5   5   28.04    0.89
  -7   5   5   41.02    1.19
   7   5  -5   42.84    1.16
  -6   5   5   15.90    0.55
   6   5  -5   16.38    0.52
   5   5  -5    5.48    0.24
  -5   5   5    5.54    0.26
   4  -5  -5   73.18    1.82
   4   5  -5   79.37    4.15
  -4   5   5   75.69    1.90
   3  -5  -5  147.80    3.67
  -3   5   5  149.45    4.11
   3   5  -5  148.95    3.86
   3   5  -5  150.44    4.06
   2  -5  -5   94.63    3.78
  -2   5   5   96.45    4.00
   2   5  -5   94.15    2.63
   2   5  -5   87.33    4.25
   1  -5  -5   18.05    0.47
  -1   5   5   17.78    0.51
   1   5  -5   17.68    0.53
   0  -5  -5   13.42    0.37
   0   5  -5   12.78    0.45
   0   5   5   13.29    0.39
  -1  -5  -5  154.39    3.92
  -1   5  -5  161.13    9.92
   1   5   5  163.04    4.12
  -2  -5  -5    5.32    0.19
  -2   5  -5    5.14    0.24
  -3  -5  -5   34.86    0.89
  -3   5  -5   33.94    0.97
  -4  -5  -5    0.27    0.04
   4   5   5    0.18    0.08
  -4   5  -5    0.29    0.09
  -5   5  -5   16.24    0.59
  -8   6   5    6.26    0.34
   8   6  -5    5.86    0.30
   7   6  -5    0.77    0.12
  -7   6   5    1.08    0.14
  -6   6   5   51.64    1.41
   6   6  -5   52.75    1.38
   5   6  -5   78.16    2.86
  -5   6   5   76.24    1.97
   4   6  -5   12.27    0.38
  -4   6   5   11.97    0.42
   3  -6  -5    1.64    0.08
  -3   6   5    2.09    0.14
   3   6  -5    1.90    0.14
   3   6  -5    1.59    0.10
   2  -6  -5   15.68    0.42
  -2   6   5   15.10    0.47
   2   6  -5   15.83    0.49
   1  -6  -5  106.07    2.57
   1   6  -5  105.91    2.95
  -1   6   5  106.96    2.92
   0  -6  -5   47.34    1.16
   0   6   5   47.73    1.20
   0   6  -5   46.25    1.26
  -1  -6  -5   72.82    1.81
   1   6   5   76.35    1.86
  -2  -6  -5    4.81    0.19
  -2   6  -5    4.75    0.23
  -3  -6  -5   77.64    1.87
  -3   6  -5   75.32    1.96
  -5   6  -5    4.64    0.28
  -8   7   5   10.79    0.47
   8   7  -5   10.80    0.44
   7   7  -5   47.76    1.30
  -7   7   5   47.73    1.35
   6   7  -5   22.55    0.68
  -6   7   5   21.73    0.71
   5   7  -5    0.08    0.04
  -5   7   5    0.09    0.05
   4   7  -5   36.68    0.97
  -4   7   5   36.83    1.01
   4   7  -5   37.02    1.01
   3  -7  -5  110.93    2.66
   3   7  -5  106.55    2.86
   3   7  -5  109.49    3.52
  -3   7   5  109.80    7.29
   2  -7  -5  116.38    2.72
  -2   7   5  110.85    3.11
   2   7  -5  113.73    2.92
   1  -7  -5    0.12    0.03
   1   7  -5    0.16    0.07
   0  -7  -5    7.75    0.25
   0   7   5    7.82    0.28
   0   7  -5    7.16    0.33
  -1  -7  -5   26.61    0.72
  -1   7  -5   27.20    0.80
   1   7   5   28.75    0.78
  -2  -7  -5   71.97    1.73
  -2   7  -5   69.25    1.81
   4   7   5    1.04    0.15
  -5   7  -5    5.95    0.33
  -7   8   5    3.35    0.24
   7   8  -5    3.25    0.21
  -6   8   5   19.64    0.66
   6   8  -5   20.27    0.63
  -5   8   5   71.06    1.83
   5   8  -5   69.52    1.78
   4   8  -5   29.88    0.82
  -4   8   5   30.01    0.86
   4   8  -5   30.56    0.87
  -3   8   5    2.06    0.15
   3   8  -5    2.13    0.16
   2  -8  -5  132.43    3.17
  -2   8   5  128.98    3.57
   2   8  -5  127.88    5.87
   1  -8  -5   40.37    1.01
  -1   8   5   40.38    1.06
   1   8  -5   40.07    1.10
   0  -8  -5   59.06    1.43
   0   8  -5   54.82    1.54
   0   8   5   59.43    1.47
  -1  -8  -5    0.56    0.08
   1   8   5    0.59    0.11
  -1   8  -5    0.73    0.12
   2   8   5    0.30    0.10
  -2   8  -5    0.49    0.10
   5   8   5    7.73    0.38
  -7   9   5   37.56    1.13
   7   9  -5   38.11    1.09
  -6   9   5   12.49    0.49
   6   9  -5   12.42    0.45
   5   9  -5    1.44    0.15
   5   9  -5    1.14    0.12
   4   9  -5   32.09    0.93
  -4   9   5   32.41    0.92
   3   9  -5   48.13    1.29
  -3   9   5   47.63    1.27
  -2   9   5   51.03    1.33
   2   9  -5   51.02    1.37
  -1   9   5   11.81    0.41
   1   9  -5   12.15    0.45
   0   9   5    3.86    0.20
   0   9  -5    3.68    0.25
  -1   9  -5   43.73    1.23
   1   9   5   45.74    1.20
   2   9   5   46.71    1.30
  -2   9  -5   48.80    1.30
   3   9   5    3.61    0.26
   4   9   5    0.89    0.15
  -6  10   5   18.88    0.65
   6  10  -5   18.10    0.60
   5  10  -5   12.51    0.48
  -5  10   5   12.61    0.48
   5  10  -5   12.33    0.45
   4  10  -5   16.68    0.57
  -4  10   5   16.24    0.55
  -3  10   5    5.34    0.26
   3  10  -5    5.27    0.28
  -2  10   5    7.63    0.32
   2  10  -5    8.15    0.35
   1  10  -5   86.11    2.19
  -1  10   5   83.75    2.13
   0  10  -5   84.51    2.25
   0  10   5   87.62    2.16
   1  10   5    5.60    0.27
  -1  10  -5    5.66    0.30
   2  10   5   15.64    0.55
  -2  10  -5   13.80    0.52
   3  10   5   17.47    0.63
  -6  11   5    4.13    0.27
   6  11  -5    4.11    0.27
   6  11  -5    4.11    0.25
  -5  11   5    0.20    0.08
   5  11  -5    0.20    0.08
   4  11  -5   17.05    0.59
  -4  11   5   17.37    0.59
  -3  11   5   40.51    1.14
   3  11  -5   42.49    1.18
   2  11  -5   43.35    1.21
  -2  11   5   41.84    1.16
  -1  11   5    9.05    0.36
   1  11  -5    9.37    0.42
   0  11   5    5.94    0.28
   0  11  -5    5.76    0.34
   1  11   5   42.28    1.17
  -1  11  -5   42.22    1.21
   2  11   5   23.31    0.73
  -2  11  -5   21.68    0.72
  -3  11  -5    5.82    0.31
   3  11   5    4.60    0.32
  -5  12   5   55.76    1.53
   5  12  -5   54.51    1.52
   4  12  -5    8.04    0.38
  -4  12   5    7.96    0.36
   3  12  -5    1.59    0.19
  -3  12   5    1.64    0.16
  -2  12   5   19.43    0.64
   2  12  -5   20.59    0.69
   1  12  -5   31.96    1.00
  -1  12   5   31.29    0.92
   0  12   5   18.55    0.61
   0  12  -5   18.66    0.69
   1  12   5    3.24    0.23
  -1  12  -5    3.91    0.26
   2  12   5    0.13    0.09
  -2  12  -5    0.27    0.09
   4  13  -5   26.77    0.87
  -4  13   5   27.31    0.85
   3  13  -5   33.55    1.02
  -3  13   5   33.04    0.98
  -2  13   5   24.91    0.79
   2  13  -5   26.61    0.85
  -1  13   5    1.07    0.15
   1  13  -5    1.23    0.21
   0  13   5    5.22    0.29
   0  13  -5    5.37    0.35
  -1  13  -5   24.12    0.80
   1  13   5   24.98    0.78
  -2  14   5    4.59    0.28
   2  14  -5    5.00    0.33
  -1  14   5   24.27    0.78
   1  14  -5   24.34    0.87
   0  14  -5   22.83    0.81
   0  14   5   23.05    0.75
   9   0  -6    4.95    0.30
   8   0  -6    7.26    0.35
   7   0  -6   36.03    1.03
  -5   0   6   35.72    0.97
  -4   0   6   23.56    0.66
   3   0  -6   15.10    0.43
  -3   0   6   14.81    0.44
  -2   0   6  188.77    9.25
   2   0  -6  194.60    4.93
   1   0  -6  265.11    9.79
  -1   0   6  261.98    8.63
   1   0  -6  271.12   12.21
   0   0  -6    9.88    0.28
   0   0  -6   10.20    0.32
  -1   0  -6   60.40    1.46
  -1   0  -6   61.04    1.51
  -2   0  -6   97.03    2.47
  -2   0  -6   97.07    2.31
  -3   0  -6   31.79    0.89
  -3   0  -6   31.99    0.81
  -4   0  -6    9.35    0.38
  -5   0  -6    0.21    0.09
   9  -1  -6   20.71    0.73
   9   1  -6   21.99    0.73
   8  -1  -6   22.05    0.73
   8   1  -6   21.86    0.72
   7   1  -6   20.49    0.66
   6   1  -6    6.43    0.29
  -6   1   6    6.92    0.30
  -5   1   6   36.64    1.00
  -4  -1   6  126.68    4.19
  -4   1   6  128.83    3.41
   3  -1  -6   60.04    1.56
   3  -1  -6   59.14    1.44
  -3  -1   6   56.99    1.57
   3   1  -6   56.61    1.58
  -3   1   6   58.32    2.08
  -2  -1   6   27.09    0.69
   2  -1  -6   26.89    0.70
   2  -1  -6   27.42    0.67
   2   1  -6   27.00    0.72
  -2   1   6   26.98    0.71
   1  -1  -6   51.29    1.30
   1  -1  -6   52.69    1.64
   1   1  -6   53.73    1.35
  -1   1   6   52.18    1.35
   0  -1  -6   46.23    1.16
   0  -1  -6   46.14    1.14
   0   1  -6   45.93    1.14
   0   1  -6   49.90    1.20
  -1  -1  -6   87.59    2.12
  -1  -1  -6   85.23    2.06
  -1   1  -6   86.60    2.08
  -1   1  -6   86.04    2.11
  -2  -1  -6   19.12    0.51
  -2  -1  -6   18.79    0.55
  -2   1  -6   19.03    0.50
  -2   1  -6   19.26    0.57
  -3  -1  -6    4.21    0.17
  -3  -1  -6    4.21    0.21
  -3   1  -6    4.10    0.16
  -3   1  -6    4.11    0.22
  -4  -1  -6   29.35    0.80
  -4  -1  -6   28.70    0.85
  -4   1  -6   29.40    0.87
  -5   1  -6   25.18    0.80
   9  -2  -6    6.97    0.37
   9   2  -6    7.19    0.36
   8   2  -6    0.45    0.10
  -7   2   6   62.27    1.64
   7   2  -6   60.65    1.62
  -6   2   6   82.31    2.08
   6   2  -6   81.23    2.06
  -5   2   6   34.02    0.95
   5   2  -6   35.28    0.94
   4  -2  -6    0.09    0.02
   4   2  -6    0.11    0.04
  -4   2   6    0.07    0.04
   3  -2  -6   46.81    1.12
   3   2  -6   47.70    1.27
  -3   2   6   45.39    1.18
   3   2  -6   44.95    1.15
   2  -2  -6  112.42    2.89
   2  -2  -6  116.08    2.77
   2   2  -6  111.75    3.04
  -2   2   6  112.20    5.73
   1  -2  -6   35.83    0.86
   1  -2  -6   34.11    0.88
  -1   2   6   34.12    0.88
   1   2  -6   35.21    0.92
   0  -2  -6   48.23    1.20
   0   2   6   49.98    1.21
   0   2  -6   49.81    1.27
  -1  -2  -6    0.46    0.07
  -1   2  -6    0.67    0.09
  -2  -2  -6   63.87    1.55
  -2   2  -6   64.08    1.62
  -2   2  -6   63.58    1.54
  -3  -2  -6  101.38    2.41
  -3   2  -6  100.27    2.50
  -3   2  -6  100.14    2.39
  -4  -2  -6   23.23    0.63
  -4   2  -6   23.24    0.73
  -5   2  -6    0.57    0.12
   8   3  -6   36.30    1.05
  -8   3   6   35.56    1.07
  -7   3   6    9.39    0.39
   7   3  -6    8.92    0.37
  -6   3   6    1.40    0.14
   6   3  -6    1.30    0.13
   5   3  -6   36.47    0.99
  -5   3   6   36.88    1.01
   4  -3  -6  102.07    2.53
   4   3  -6  103.34    2.64
  -4   3   6  104.09    6.24
   3  -3  -6  117.39    2.81
  -3   3   6  116.50    5.62
   3   3  -6  113.74    3.10
   3   3  -6  111.40    2.93
   1  -3  -6    2.83    0.11
  -1   3   6    2.59    0.13
   1   3  -6    2.86    0.16
   0  -3  -6  121.45    3.03
   0   3  -6  119.56    3.27
   0   3   6  124.15    6.15
  -1  -3  -6   69.16    1.67
   1   3   6   68.18    1.68
  -1   3  -6   69.38    1.73
  -2  -3  -6    4.66    0.18
  -2   3  -6    4.73    0.16
  -2   3  -6    5.08    0.23
  -3  -3  -6    2.06    0.13
  -3   3  -6    2.24    0.17
  -3   3  -6    2.24    0.11
  -4  -3  -6   18.30    0.52
  -4   3  -6   18.41    0.62
  -5   3  -6   35.72    1.07
   8   4  -6    2.71    0.21
  -8   4   6    2.82    0.22
   7   4  -6    3.60    0.22
  -7   4   6    3.46    0.23
   6   4  -6  111.33    2.76
  -6   4   6  112.73    4.12
   5   4  -6  147.57    3.77
  -5   4   6  144.10    5.28
   4  -4  -6    3.01    0.12
  -4   4   6    3.19    0.18
   4   4  -6    3.25    0.16
   3  -4  -6   86.84    2.19
  -3   4   6   89.99    2.26
   3   4  -6   88.15    2.44
   2  -4  -6  119.35    2.94
   2   4  -6  114.43    7.88
  -2   4   6  116.01    6.45
   1  -4  -6  111.38    2.71
   1   4  -6  109.19    2.95
  -1   4   6  110.52    2.89
   0   4  -6    0.58    0.11
  -1  -4  -6   12.22    0.36
  -1   4  -6   13.34    0.43
   1   4   6   12.45    0.38
  -2  -4  -6   11.40    0.34
  -2   4  -6   11.04    0.40
  -2   4  -6   11.01    0.31
  -3  -4  -6   62.95    1.56
  -3   4  -6   63.56    1.65
  -4  -4  -6   29.65    0.79
  -4   4  -6   29.13    0.89
  -5   4  -6    0.38    0.11
  -8   5   6   31.17    0.99
   8   5  -6   32.34    0.95
   7   5  -6    0.46    0.09
  -6   5   6   30.86    0.91
   6   5  -6   30.66    0.87
   5   5  -6  169.35    9.85
  -5   5   6  170.88    8.73
   4  -5  -6   28.16    0.70
  -4   5   6   28.49    0.80
   4   5  -6   27.09    0.74
   4   5  -6   27.24    0.79
   3  -5  -6   99.38    2.43
   3   5  -6   96.77    4.88
  -3   5   6  100.79    2.48
   2  -5  -6    0.17    0.03
   2   5  -6    0.17    0.06
   1  -5  -6    0.81    0.07
  -1   5   6    1.03    0.09
   1   5  -6    1.13    0.12
   0  -5  -6  157.30    5.23
   0   5   6  152.36    3.90
   0   5  -6  147.31    4.07
  -1  -5  -6    8.13    0.27
  -1   5  -6    8.46    0.33
   1   5   6    8.64    0.30
  -2  -5  -6   45.95    1.14
  -2   5  -6   44.37    1.21
  -3  -5  -6    7.61    0.27
  -3   5  -6    7.29    0.33
  -4  -5  -6   20.88    0.59
  -4   5  -6   20.34    0.68
  -5   5  -6   30.69    0.96
   8   6  -6    4.17    0.26
  -8   6   6    4.33    0.28
   7   6  -6   67.59    1.75
  -7   6   6   66.40    1.80
   6   6  -6   27.45    0.80
  -6   6   6   28.24    0.85
   5   6  -6    4.44    0.21
  -5   6   6    4.09    0.23
  -4   6   6    9.24    0.35
   4   6  -6    8.85    0.35
   3  -6  -6    7.66    0.24
  -3   6   6    7.64    0.30
   3   6  -6    7.61    0.31
   2  -6  -6   64.05    1.55
  -2   6   6   65.95    1.61
   2   6  -6   62.27    1.64
   1  -6  -6  104.45    2.50
  -1   6   6  102.68    3.52
   1   6  -6  103.47    2.57
   0  -6  -6   71.62    1.73
   0   6   6   70.97    1.76
   0   6  -6   70.62    1.85
  -1  -6  -6   18.07    0.52
  -1   6  -6   18.60    0.59
   1   6   6   19.74    0.56
  -2  -6  -6   85.57    1.98
   2   6   6   74.77    2.02
  -2   6  -6   81.99    2.06
  -3  -6  -6   45.69    1.16
  -3   6  -6   44.73    1.25
  -4   6  -6    9.35    0.41
  -5   6  -6    0.05    0.08
   8   7  -6   32.71    0.97
  -8   7   6   31.70    1.01
  -7   7   6   12.18    0.50
   7   7  -6   12.18    0.45
  -6   7   6   14.45    0.53
   6   7  -6   14.38    0.49
   5   7  -6   11.18    0.42
   5   7  -6   10.75    0.38
  -5   7   6   11.07    0.42
  -4   7   6   56.07    1.47
   4   7  -6   55.70    1.47
   3  -7  -6   72.12    1.75
  -3   7   6   72.63    1.83
   3   7  -6   72.54    1.85
   2  -7  -6    0.59    0.07
   2   7  -6    0.63    0.12
  -2   7   6    0.54    0.09
   1  -7  -6    9.77    0.31
  -1   7   6    9.89    0.34
   1   7  -6    9.95    0.38
   0  -7  -6   31.74    0.82
   0   7  -6   30.73    0.93
   0   7   6   31.54    0.85
  -1  -7  -6   63.62    1.60
  -1   7  -6   64.81    1.69
   1   7   6   66.45    1.65
  -2  -7  -6   10.58    0.34
  -2   7  -6   10.64    0.41
   2   7   6   10.15    0.40
  -3  -7  -6    4.59    0.21
  -3   7  -6    4.30    0.26
  -4   7  -6   12.17    0.49
  -7   8   6   17.55    0.64
   7   8  -6   17.26    0.59
  -6   8   6   48.54    1.35
   6   8  -6   47.32    1.28
  -5   8   6   41.41    1.16
   5   8  -6   40.85    1.15
   4   8  -6    0.48    0.10
  -4   8   6    0.47    0.09
   3  -8  -6   18.30    0.49
   3   8  -6   17.50    0.58
  -3   8   6   18.08    0.57
   2  -8  -6  128.05    3.01
   2   8  -6  123.82    3.11
  -2   8   6  126.86    3.32
   1  -8  -6   44.92    1.14
   1   8  -6   45.69    1.25
  -1   8   6   45.77    1.20
   0  -8  -6    2.28    0.13
   0   8   6    2.29    0.15
   0   8  -6    2.10    0.20
  -1  -8  -6    5.81    0.23
   1   8   6    6.03    0.27
  -1   8  -6    5.87    0.29
  -2  -8  -6   25.04    0.70
   2   8   6   26.86    0.76
  -2   8  -6   23.71    0.77
  -4   8  -6    3.86    0.26
  -7   9   6   10.37    0.47
   7   9  -6   10.99    0.43
  -6   9   6    1.63    0.17
   5   9  -6   12.63    0.48
  -5   9   6   12.74    0.48
  -4   9   6   64.16    1.67
   4   9  -6   62.88    1.67
  -3   9   6   26.58    0.78
   3   9  -6   26.54    0.81
   2  -9  -6   16.39    0.46
  -2   9   6   16.68    0.53
   2   9  -6   15.45    0.55
   1  -9  -6   23.33    0.64
   1   9  -6   23.69    0.76
  -1   9   6   23.60    0.69
   0  -9  -6   43.26    1.11
   0   9   6   44.25    1.16
   0   9  -6   43.04    1.25
   1   9   6   37.83    1.03
  -1   9  -6   36.73    1.07
  -2   9  -6    2.10    0.18
   2   9   6    2.05    0.19
   3   9   6    1.32    0.22
  -3   9  -6    1.73    0.18
  -6  10   6   44.11    1.28
   6  10  -6   45.11    1.28
   5  10  -6   20.22    0.67
  -5  10   6   19.77    0.67
  -4  10   6    0.10    0.06
   4  10  -6    0.00    0.06
  -3  10   6   30.19    0.88
   3  10  -6   30.31    0.91
  -2  10   6   27.99    0.81
   2  10  -6   27.35    0.85
   1  10  -6   29.04    0.91
  -1  10   6   29.13    0.84
   0  10   6    6.16    0.28
   0  10  -6    6.26    0.35
   2  10   6   23.54    0.72
  -2  10  -6   21.35    0.73
   3  10   6   31.10    0.95
  -3  10  -6   30.58    0.95
  -6  11   6    0.44    0.11
   5  11  -6   17.35    0.62
  -5  11   6   16.91    0.61
  -4  11   6   41.93    1.19
   4  11  -6   42.52    1.21
   3  11  -6   17.37    0.61
  -3  11   6   17.02    0.58
  -2  11   6    0.92    0.13
   2  11  -6    0.88    0.16
   1  11  -6    6.75    0.37
  -1  11   6    6.81    0.31
   0  11  -6   14.37    0.58
   0  11   6   14.48    0.50
   1  11   6   25.56    0.78
  -1  11  -6   26.11    0.83
  -2  11  -6    9.71    0.43
   2  11   6   10.11    0.42
   5  12  -6   15.13    0.58
  -5  12   6   14.71    0.56
  -4  12   6    2.01    0.18
   4  12  -6    2.11    0.22
  -3  12   6   11.48    0.45
   3  12  -6   11.62    0.49
   2  12  -6   38.68    1.12
  -2  12   6   35.54    1.05
  -1  12   6   36.62    1.03
   1  12  -6   35.26    1.12
   0  12  -6    8.05    0.42
   0  12   6    8.11    0.36
   1  12   6   13.46    0.50
  -1  12  -6   13.57    0.54
  -3  13   6   15.92    0.58
   3  13  -6   16.56    0.62
  -2  13   6    2.67    0.21
   2  13  -6    2.36    0.24
   1  13  -6    1.39    0.22
  -1  13   6    1.22    0.16
   0  13  -6   44.30    1.31
   0  13   6   43.24    1.23
   8   0  -7    7.37    0.35
   7   0  -7   31.83    0.94
  -6   0   7   39.90    1.10
  -5   0   7   44.12    1.17
  -4   0   7   54.79    1.40
  -3   0   7  135.83    3.55
   3   0  -7  136.23    3.55
   2   0  -7  107.92    2.89
   2   0  -7  109.21    2.63
   1   0  -7    0.63    0.09
   1   0  -7    0.65    0.06
   0   0  -7   27.82    0.73
   0   0  -7   26.86    0.69
  -1   0  -7   51.59    1.27
  -1   0  -7   52.43    1.32
  -2   0  -7   23.66    0.62
  -2   0  -7   23.65    0.69
  -3   0  -7   22.33    0.58
  -3   0  -7   20.73    0.80
   8  -1  -7   14.05    0.54
   8   1  -7   14.11    0.53
   7   1  -7    1.18    0.14
  -7   1   7    1.42    0.16
   6   1  -7   56.52    1.52
  -6   1   7   59.51    1.54
   5  -1  -7   60.46    1.45
  -5   1   7   60.32    1.56
   4  -1  -7  107.61    3.42
  -4  -1   7  105.07    2.83
  -4   1   7  104.57    2.93
   4   1  -7  109.01    2.90
   3  -1  -7    0.04    0.03
   3  -1  -7    0.01    0.02
   3   1  -7    0.04    0.04
   2  -1  -7   19.27    0.50
   2   1  -7   19.59    0.55
  -2   1   7   18.96    0.59
   1  -1  -7   81.68    2.33
   1   1  -7   81.94    2.29
   1   1  -7   81.74    2.03
   0  -1  -7   67.58    1.65
   0   1  -7   70.27    1.71
   0   1  -7   67.76    1.65
  -1  -1  -7   47.74    1.17
  -1   1  -7   47.45    1.23
  -1   1  -7   46.96    1.16
  -2  -1  -7    7.44    0.25
  -2   1  -7    7.68    0.30
  -2   1  -7    7.39    0.24
  -3  -1  -7   22.29    0.60
  -3   1  -7   22.01    0.68
  -3   1  -7   22.35    0.59
  -4   1  -7   39.86    1.13
   8   2  -7   29.76    0.91
  -7   2   7   63.63    1.69
   7   2  -7   62.19    1.66
   6   2  -7   26.39    0.79
  -6   2   7   27.62    0.81
   5   2  -7    5.63    0.25
  -5   2   7    6.05    0.27
   4  -2  -7    9.48    0.27
  -4   2   7    9.52    0.34
   4   2  -7    9.58    0.34
   4   2  -7    8.95    0.32
   3  -2  -7   60.41    1.43
   3   2  -7   59.08    1.50
  -3   2   7   58.65    2.30
   2  -2  -7   36.04    0.86
   2   2  -7   34.48    0.92
  -2   2   7   33.71    0.90
   1  -2  -7   11.84    0.33
   1   2  -7   11.54    0.40
   0   2  -7    0.69    0.06
   0   2  -7    0.49    0.09
  -1  -2  -7   43.46    1.08
  -1   2  -7   43.24    1.07
  -1   2  -7   43.09    1.14
  -2  -2  -7   95.12    2.27
  -2   2  -7   92.89    2.26
  -2   2  -7   95.57    2.36
  -3  -2  -7   17.87    0.50
  -3   2  -7   17.48    0.58
  -3   2  -7   17.31    0.48
  -4  -2  -7   -0.01    0.04
  -4   2  -7   -0.01    0.07
  -8   3   7    0.55    0.12
   8   3  -7    0.59    0.13
  -7   3   7   -0.01    0.05
   7   3  -7    0.04    0.06
   6   3  -7   33.45    0.95
  -6   3   7   34.77    0.99
  -5   3   7   92.17    2.29
   5   3  -7   90.01    2.25
   4  -3  -7   51.58    1.23
  -4   3   7   50.44    1.32
   4   3  -7   50.33    1.32
   3  -3  -7   11.09    0.31
   3   3  -7   11.02    0.38
  -3   3   7   11.16    0.37
   2  -3  -7   16.87    0.44
  -2   3   7   15.86    0.48
   2   3  -7   16.59    0.51
   1  -3  -7  160.17    3.97
  -1   3   7  160.72    4.08
   1   3  -7  160.47    4.30
   0  -3  -7   47.40    1.19
   0   3  -7   49.45    1.28
  -1  -3  -7   11.29    0.34
  -1   3  -7   11.18    0.39
  -1   3  -7   11.46    0.32
  -2  -3  -7    0.16    0.04
  -2   3  -7    0.17    0.03
  -3  -3  -7   23.43    0.64
  -3   3  -7   23.16    0.72
  -4  -3  -7   27.56    0.75
  -4   3  -7   27.39    0.85
   8   4  -7   22.56    0.74
  -8   4   7   23.07    0.78
   7   4  -7   25.08    0.78
  -7   4   7   25.90    0.82
   6   4  -7   25.50    0.76
  -6   4   7   26.01    0.80
   5   4  -7    1.73    0.17
  -5   4   7    2.18    0.16
   4  -4  -7    8.93    0.26
  -4   4   7    9.12    0.34
   4   4  -7    8.91    0.34
   3  -4  -7   50.38    1.21
   3   4  -7   47.93    1.29
  -3   4   7   49.95    1.28
   2  -4  -7   71.55    1.69
   2   4  -7   69.50    1.77
  -2   4   7   68.63    3.42
   1  -4  -7   60.84    1.48
  -1   4   7   60.97    1.51
   1   4  -7   60.53    1.58
   0  -4  -7   38.85    1.00
   0   4  -7   41.15    1.10
  -1  -4  -7   71.51    1.73
  -1   4  -7   69.98    1.80
  -2  -4  -7   50.11    1.24
  -2   4  -7   48.99    1.32
  -2   4  -7   49.13    1.21
  -3  -4  -7    7.94    0.28
  -3   4  -7    7.54    0.34
  -4  -4  -7    0.11    0.04
  -4   4  -7    0.27    0.10
  -8   5   7    9.65    0.44
   8   5  -7    9.31    0.40
  -7   5   7    3.51    0.24
   7   5  -7    3.27    0.21
   6   5  -7   23.47    0.71
  -6   5   7   24.66    0.77
   5   5  -7   84.25    2.15
  -5   5   7   85.72    2.17
   4  -5  -7   36.25    0.89
  -4   5   7   35.81    0.99
   4   5  -7   34.99    0.99
   3  -5  -7    7.59    0.24
  -3   5   7    7.62    0.30
   3   5  -7    7.55    0.31
   2  -5  -7   20.56    0.54
   2   5  -7   20.05    0.62
  -2   5   7   20.24    0.59
   1  -5  -7   41.07    1.03
  -1   5   7   42.13    1.07
   1   5  -7   40.67    1.13
   0  -5  -7  146.40    4.48
   0   5   7  153.19    3.69
   0   5  -7  151.22    6.08
  -1  -5  -7    2.02    0.13
  -1   5  -7    2.02    0.16
  -2  -5  -7    0.71    0.10
  -2   5  -7    0.59    0.07
  -2   5  -7    0.43    0.10
  -3  -5  -7   23.58    0.65
  -3   5  -7   22.72    0.73
  -4  -5  -7   29.78    0.80
  -4   5  -7   28.98    0.91
   8   6  -7   11.91    0.47
  -8   6   7   12.13    0.52
   7   6  -7   33.34    0.98
  -7   6   7   34.53    1.04
  -6   6   7   50.59    1.40
   5   6  -7    0.15    0.07
  -5   6   7    0.15    0.07
   4  -6  -7   32.08    0.84
  -4   6   7   33.35    0.93
   4   6  -7   32.95    0.93
   3  -6  -7   70.70    1.69
  -3   6   7   69.42    1.77
   3   6  -7   68.94    1.79
   2  -6  -7   32.96    0.83
   2   6  -7   32.11    0.92
  -2   6   7   32.45    0.89
  -1   6   7    0.18    0.06
   0  -6  -7   12.83    0.40
   0   6   7   13.93    0.43
   0   6  -7   13.09    0.49
  -1  -6  -7    3.98    0.18
  -1   6  -7    4.20    0.23
  -2  -6  -7   51.75    1.30
  -2   6  -7   50.81    1.39
  -3  -6  -7   18.99    0.56
  -3   6  -7   18.81    0.64
  -4  -6  -7    2.62    0.17
  -4   6  -7    2.38    0.22
  -7   7   7    0.12    0.08
   6   7  -7   53.62    1.46
  -6   7   7   53.76    1.48
  -5   7   7   40.12    1.15
   5   7  -7   41.20    1.14
  -4   7   7   53.98    1.42
   4   7  -7   52.74    1.42
   3  -7  -7    0.56    0.07
   3   7  -7    0.40    0.09
  -3   7   7    0.37    0.08
   2  -7  -7   19.76    0.54
  -2   7   7   19.98    0.60
   2   7  -7   19.91    0.64
   1  -7  -7   56.11    1.40
   1   7  -7   55.46    1.52
  -1   7   7   57.07    1.44
   0  -7  -7   16.65    0.48
   0   7  -7   16.22    0.58
   0   7   7   17.03    0.52
  -1  -7  -7   43.14    1.12
  -1   7  -7   43.30    1.20
   1   7   7   44.34    1.15
  -2  -7  -7    2.30    0.15
  -2   7  -7    2.33    0.19
  -3  -7  -7   22.33    0.63
  -3   7  -7   21.60    0.73
  -7   8   7   29.68    0.95
  -6   8   7   11.11    0.46
   6   8  -7   11.33    0.46
  -5   8   7    3.49    0.23
   5   8  -7    3.61    0.23
  -4   8   7    3.62    0.22
   4   8  -7    3.56    0.23
   3  -8  -7   75.34    1.85
   3   8  -7   77.53    1.98
  -3   8   7   75.89    1.94
   2  -8  -7   33.14    0.86
   2   8  -7   32.68    0.96
  -2   8   7   33.48    0.92
   1  -8  -7    5.31    0.21
  -1   8   7    5.46    0.25
   1   8  -7    5.16    0.30
   0  -8  -7    2.71    0.15
   0   8   7    2.89    0.18
   0   8  -7    2.56    0.22
  -1  -8  -7   53.46    1.38
   1   8   7   55.84    1.42
  -1   8  -7   54.13    1.47
  -2  -8  -7   33.78    0.90
  -2   8  -7   33.33    0.99
  -3   8  -7    3.73    0.26
   6   9  -7   13.27    0.52
  -6   9   7   13.53    0.53
  -5   9   7   31.91    0.94
   5   9  -7   30.26    0.93
  -4   9   7   54.73    1.46
   4   9  -7   53.49    1.47
   2  -9  -7    3.33    0.16
   2   9  -7    3.53    0.24
  -2   9   7    3.57    0.21
   1  -9  -7   63.53    1.59
  -1   9   7   64.52    1.65
   1   9  -7   63.20    1.74
   0  -9  -7   35.45    0.95
   0   9   7   36.18    1.00
   0   9  -7   36.10    1.08
  -1  -9  -7    9.98    0.35
  -1   9  -7   10.01    0.42
   1   9   7    9.95    0.38
   2   9   7    3.12    0.22
  -2   9  -7    3.16    0.23
   6  10  -7    5.86    0.33
  -6  10   7    6.00    0.33
  -5  10   7    0.02    0.06
   5  10  -7    0.04    0.07
   4  10  -7   14.96    0.56
  -4  10   7   15.35    0.54
   3  10  -7    7.77    0.37
  -3  10   7    8.16    0.35
   2  10  -7   28.56    0.88
  -2  10   7   27.78    0.83
   1  10  -7    6.66    0.37
  -1  10   7    6.68    0.30
   0  10   7    0.31    0.08
   0  10  -7    0.30    0.11
   1  10   7   29.40    0.85
  -1  10  -7   28.24    0.89
   2  10   7   28.77    0.85
  -2  10  -7   26.93    0.88
  -5  11   7   21.35    0.73
   5  11  -7   21.49    0.74
   4  11  -7   16.49    0.61
  -4  11   7   16.72    0.59
   3  11  -7    2.60    0.23
  -3  11   7    2.66    0.20
   2  11  -7    6.48    0.35
  -2  11   7    6.14    0.30
   1  11  -7   34.09    1.10
  -1  11   7   35.86    1.01
   0  11  -7   23.37    0.80
   0  11   7   23.57    0.73
   1  11   7    9.95    0.41
  -1  11  -7    9.61    0.44
   4  12  -7    4.79    0.31
  -4  12   7    4.85    0.28
  -3  12   7   29.48    0.91
   3  12  -7   30.95    0.96
  -2  12   7   27.91    0.86
   2  12  -7   28.64    0.94
   1  12  -7    2.59    0.28
  -1  12   7    2.55    0.20
   0  12  -7   17.95    0.68
   0  12   7   17.30    0.61
   8   0  -8   39.17    1.15
   7   0  -8    6.88    0.33
  -6   0   8    0.06    0.05
  -5   0   8   23.76    0.70
   4   0  -8   28.67    0.72
   3   0  -8   50.78    1.24
   2   0  -8    8.67    0.26
   1   0  -8    0.70    0.07
   0   0  -8   59.18    1.44
  -1   0  -8  113.29    2.70
  -2   0  -8   15.84    0.45
  -3   0  -8    0.40    0.05
   8  -1  -8    1.19    0.16
   8   1  -8    1.13    0.16
  -7   1   8   22.62    0.72
   7   1  -8   21.44    0.70
  -6   1   8   31.27    0.90
   6   1  -8   29.50    0.87
   5  -1  -8   43.72    1.08
   5   1  -8   45.03    1.17
  -5   1   8   43.65    1.19
   4  -1  -8    6.66    0.21
   4   1  -8    6.70    0.27
  -4   1   8    6.69    0.27
   3  -1  -8    7.89    0.24
   3   1  -8    7.70    0.29
   2  -1  -8   78.01    1.91
   2   1  -8   81.53    1.98
   1  -1  -8   81.84    1.97
   1   1  -8   83.62    2.05
   1   1  -8   81.25    1.97
   0  -1  -8   25.32    0.67
   0   1  -8   25.70    0.66
   0   1  -8   25.88    0.72
  -1  -1  -8    2.85    0.15
  -1   1  -8    2.90    0.14
  -2  -1  -8   20.11    0.56
  -2   1  -8   20.32    0.55
  -3  -1  -8   24.02    0.66
  -3   1  -8   24.46    0.65
   8   2  -8   47.21    1.33
  -7   2   8   15.42    0.56
   7   2  -8   14.59    0.53
  -6   2   8    0.86    0.12
   6   2  -8    0.96    0.12
   5  -2  -8   28.50    0.73
   5   2  -8   28.95    0.82
  -5   2   8   29.02    0.84
   4  -2  -8   72.87    1.76
  -4   2   8   73.76    1.85
   4   2  -8   73.66    1.85
   3  -2  -8   67.37    1.60
   3   2  -8   65.03    1.67
   2  -2  -8    0.25    0.03
   1  -2  -8   15.74    0.43
   1   2  -8   15.03    0.50
   0  -2  -8   45.47    1.14
   0   2  -8   45.80    1.13
   0   2  -8   46.45    1.20
  -1  -2  -8   36.18    0.92
  -1   2  -8   35.27    0.90
  -1   2  -8   35.86    0.98
  -2  -2  -8   17.17    0.50
  -2   2  -8   17.18    0.48
  -2   2  -8   17.86    0.57
  -3  -2  -8    0.16    0.04
  -3   2  -8    0.23    0.09
  -3   2  -8    0.10    0.04
  -8   3   8    5.74    0.33
   8   3  -8    5.48    0.30
   7   3  -8   30.09    0.91
  -7   3   8   31.52    0.95
  -6   3   8   60.42    1.61
  -5   3   8   49.13    1.33
   5   3  -8   49.93    1.32
   4  -3  -8    0.87    0.07
   4   3  -8    0.84    0.11
  -4   3   8    0.85    0.10
   3  -3  -8   28.93    0.73
   3   3  -8   27.83    0.80
  -3   3   8   28.43    0.79
   2  -3  -8   62.45    1.52
   2   3  -8   62.86    1.61
   1  -3  -8   27.43    0.69
   1   3  -8   25.22    0.78
   0  -3  -8   27.10    0.71
   0   3  -8   27.56    0.78
   0   3  -8   26.97    0.70
  -1  -3  -8    0.08    0.03
  -1   3  -8    0.12    0.03
  -1   3  -8    0.20    0.07
  -2  -3  -8   13.25    0.41
  -2   3  -8   13.67    0.48
  -2   3  -8   13.56    0.39
  -3  -3  -8   29.53    0.79
  -3   3  -8   29.02    0.88
   8   4  -8    2.30    0.20
  -8   4   8    2.29    0.22
  -7   4   8   30.20    0.94
  -6   4   8    0.35    0.09
  -5   4   8   10.06    0.40
   5   4  -8   10.30    0.39
   4  -4  -8   77.97    1.85
  -4   4   8   76.37    1.95
   4   4  -8   76.28    1.95
   3  -4  -8   19.27    0.51
   3   4  -8   19.08    0.60
  -3   4   8   19.06    0.58
   2  -4  -8   55.64    1.35
   2   4  -8   54.24    1.44
   1  -4  -8   45.42    1.12
   1   4  -8   44.01    1.23
   0  -4  -8   55.19    1.39
   0   4  -8   57.42    1.48
  -1  -4  -8   49.93    1.26
  -1   4  -8   50.22    1.33
  -1   4  -8   49.81    1.23
  -2  -4  -8    9.75    0.32
  -2   4  -8    9.33    0.29
  -2   4  -8    9.46    0.38
  -3  -4  -8    0.21    0.05
  -3   4  -8    0.41    0.10
  -7   5   8    3.76    0.26
   6   5  -8   55.72    1.50
  -6   5   8   55.65    1.52
  -5   5   8   39.83    1.13
   5   5  -8   40.10    1.11
   4  -5  -8    0.03    0.02
  -4   5   8    0.05    0.05
   4   5  -8    0.09    0.06
   3  -5  -8    1.97    0.11
   3   5  -8    1.78    0.16
  -3   5   8    1.97    0.14
   2  -5  -8   55.48    1.36
  -2   5   8   54.14    1.41
   2   5  -8   55.93    1.46
   1  -5  -8   90.67    2.16
   1   5  -8   87.60    2.28
   0  -5  -8    5.84    0.23
   0   5  -8    6.05    0.29
  -1  -5  -8    0.03    0.03
  -1   5  -8    0.25    0.08
  -2  -5  -8   10.40    0.35
  -2   5  -8   10.35    0.42
  -2   5  -8   11.03    0.32
  -3  -5  -8   28.44    0.78
  -3   5  -8   28.34    0.88
  -7   6   8   36.54    1.11
  -6   6   8   10.38    0.44
   6   6  -8   10.25    0.42
  -5   6   8    8.82    0.38
   5   6  -8    8.85    0.37
   4  -6  -8   70.60    1.73
   4   6  -8   70.53    1.84
  -4   6   8   72.51    1.84
   3  -6  -8   14.77    0.42
  -3   6   8   14.53    0.49
   3   6  -8   14.43    0.51
   2  -6  -8    1.05    0.10
   2   6  -8    1.00    0.14
  -2   6   8    1.12    0.11
   1  -6  -8    7.68    0.27
   1   6  -8    7.82    0.37
  -1   6   8    7.37    0.33
   0  -6  -8   10.78    0.35
   0   6  -8   11.36    0.44
  -1  -6  -8   71.51    1.77
  -1   6  -8   71.68    1.86
  -2  -6  -8    9.96    0.34
  -2   6  -8    9.76    0.31
  -2   6  -8   10.03    0.41
  -3  -6  -8    1.04    0.13
  -3   6  -8    1.02    0.16
   7   7  -8   37.31    1.10
  -7   7   8   35.81    1.11
   6   7  -8   12.90    0.50
  -6   7   8   12.61    0.50
   5   7  -8   23.33    0.74
  -5   7   8   23.44    0.75
  -4   7   8   12.81    0.47
   4   7  -8   13.03    0.48
   3  -7  -8   12.88    0.38
   3   7  -8   12.60    0.48
  -3   7   8   12.78    0.45
   2  -7  -8   50.87    1.29
   2   7  -8   52.83    1.41
  -2   7   8   50.91    1.35
   1  -7  -8   40.75    1.04
  -1   7   8   40.88    1.08
   1   7  -8   39.07    1.17
   0  -7  -8   22.10    0.63
   0   7  -8   22.87    0.74
  -1  -7  -8    2.67    0.17
  -1   7  -8    2.59    0.20
  -2  -7  -8   21.17    0.61
  -2   7  -8   20.60    0.70
  -6   8   8    2.89    0.23
   6   8  -8    2.85    0.23
  -5   8   8   12.02    0.48
   5   8  -8   12.53    0.49
  -4   8   8   21.74    0.69
   4   8  -8   21.85    0.71
   3  -8  -8   45.26    1.15
  -3   8   8   44.65    1.23
   3   8  -8   45.72    1.27
   2  -8  -8    6.01    0.23
   2   8  -8    6.50    0.33
  -2   8   8    5.65    0.27
   1  -8  -8    4.77    0.21
  -1   8   8    5.17    0.25
   1   8  -8    4.99    0.31
   0  -8  -8   53.48    1.38
   0   8  -8   56.36    1.51
   0   8   8   53.17    1.57
  -1  -8  -8   31.90    0.87
  -1   8  -8   32.33    0.96
  -2  -8  -8   10.32    0.36
  -2   8  -8    9.93    0.44
  -6   9   8   33.14    1.02
   6   9  -8   32.89    1.01
  -5   9   8   24.08    0.78
   5   9  -8   23.94    0.78
  -4   9   8    0.20    0.07
   4   9  -8    0.21    0.10
   3  -9  -8    8.13    0.29
  -3   9   8    8.73    0.36
   3   9  -8    8.39    0.39
   2  -9  -8   28.32    0.78
  -2   9   8   28.80    0.85
   2   9  -8   29.77    0.92
   1  -9  -8   20.95    0.60
   1   9  -8   20.48    0.74
  -1   9   8   21.43    0.65
   0  -9  -8   16.91    0.53
   0   9  -8   18.07    0.65
   0   9   8   17.68    0.57
  -1  -9  -8    0.07    0.04
  -1   9  -8    0.07    0.07
  -5  10   8   15.56    0.58
   5  10  -8   15.02    0.58
  -4  10   8   33.10    0.98
   4  10  -8   32.54    1.00
   3 -10  -8   23.18    0.67
   3  10  -8   24.65    0.80
  -3  10   8   23.98    0.75
   2 -10  -8    0.07    0.03
  -2  10   8    0.14    0.07
   2  10  -8    0.11    0.09
   1 -10  -8    7.74    0.30
   1  10  -8    7.57    0.41
  -1  10   8    7.96    0.34
   0 -10  -8   17.78    0.55
   0  10  -8   18.24    0.67
   0  10   8   18.01    0.60
  -3  11   8    5.03    0.28
   3  11  -8    4.94    0.31
   2  11  -8   32.34    1.04
  -2  11   8   32.00    0.95
   1  11  -8   18.37    0.72
  -1  11   8   18.81    0.62
   5   0  -9   72.32    1.74
   4   0  -9   30.67    0.78
   3   0  -9    9.09    0.28
   2   0  -9    0.68    0.08
   1   0  -9   25.32    0.66
   0   0  -9  107.52    2.57
  -1   0  -9    6.31    0.23
  -2   0  -9    0.14    0.04
  -7   1   9   19.96    0.67
  -6   1   9   27.86    0.95
   5  -1  -9    0.23    0.03
   4  -1  -9   15.54    0.43
   3  -1  -9   96.72    2.30
   3   1  -9   95.54    2.30
   2  -1  -9   20.43    0.55
   2   1  -9   20.56    0.55
   1  -1  -9   14.95    0.43
   1   1  -9   15.11    0.43
   0  -1  -9    1.25    0.11
   0   1  -9    1.50    0.11
  -1  -1  -9   12.95    0.39
  -1   1  -9   12.90    0.38
  -2  -1  -9   26.36    0.71
  -2   1  -9   26.21    0.70
  -7   2   9    2.19    0.19
   6   2  -9   23.96    0.72
  -6   2   9   22.45    0.73
   5  -2  -9   53.90    1.31
   5   2  -9   53.71    1.42
   4  -2  -9   45.93    1.13
   4   2  -9   45.56    1.22
   3  -2  -9   16.28    0.45
   3   2  -9   16.38    0.52
   2  -2  -9   34.92    0.88
   2   2  -9   34.20    1.07
   1  -2  -9   25.20    0.66
   1   2  -9   24.51    0.65
   0  -2  -9   32.32    0.85
   0   2  -9   33.26    0.84
  -1  -2  -9   13.96    0.42
  -1   2  -9   13.59    0.40
  -2  -2  -9    0.14    0.04
  -2   2  -9    0.13    0.03
  -7   3   9   30.07    0.94
   6   3  -9    9.53    0.39
  -6   3   9    9.56    0.40
   5   3  -9    0.20    0.07
  -5   3   9    0.11    0.06
   4  -3  -9    9.52    0.29
   4   3  -9    9.51    0.37
   3  -3  -9   16.47    0.46
   3   3  -9   16.49    0.54
   2  -3  -9  101.44    2.42
   2   3  -9  100.44    2.53
   1  -3  -9   14.96    0.43
   1   3  -9   14.58    0.51
   0  -3  -9    1.84    0.13
   0   3  -9    1.93    0.12
   0   3  -9    2.02    0.16
  -1  -3  -9   26.53    0.72
  -1   3  -9   26.48    0.79
  -1   3  -9   26.61    0.70
  -2  -3  -9   26.27    0.73
  -2   3  -9   26.61    0.70
   7   4  -9    0.09    0.07
  -7   4   9    0.19    0.08
   6   4  -9   19.23    0.64
  -6   4   9   19.14    0.65
   5   4  -9   34.14    0.97
  -5   4   9   33.37    0.98
   4  -4  -9   29.22    0.75
   4   4  -9   29.11    0.86
   3  -4  -9    6.41    0.23
   3   4  -9    6.30    0.30
   2   4  -9    0.33    0.09
   1  -4  -9   46.10    1.16
   1   4  -9   46.20    1.28
   0  -4  -9   43.00    1.11
   0   4  -9   44.52    1.10
   0   4  -9   43.54    1.19
  -1  -4  -9   16.84    0.50
  -1   4  -9   16.36    0.47
  -1   4  -9   16.69    0.56
  -2  -4  -9    0.12    0.04
  -2   4  -9    0.09    0.03
  -2   4  -9    0.19    0.08
  -7   5   9   23.60    0.80
   7   5  -9   24.26    0.78
  -6   5   9   21.47    0.71
   6   5  -9   21.04    0.70
  -5   5   9    0.09    0.06
   5   5  -9    0.11    0.07
   4  -5  -9   14.85    0.43
   4   5  -9   14.90    0.53
  -4   5   9   14.74    0.51
   3  -5  -9   43.77    1.10
   3   5  -9   43.67    1.21
   2  -5  -9   34.34    0.89
   2   5  -9   34.42    1.01
   1  -5  -9   11.00    0.35
   1   5  -9   10.80    0.45
   0  -5  -9    0.72    0.10
   0   5  -9    0.76    0.13
  -1  -5  -9   15.98    0.49
  -1   5  -9   16.45    0.46
  -1   5  -9   16.22    0.56
  -2  -5  -9   13.50    0.43
  -2   5  -9   13.45    0.51
  -2   5  -9   13.61    0.40
  -6   6   9    9.36    0.42
   6   6  -9    9.44    0.41
   5   6  -9   47.86    1.33
  -5   6   9   48.17    1.34
   4  -6  -9   39.03    0.98
  -4   6   9   38.84    1.09
   4   6  -9   37.62    1.10
   3  -6  -9    6.87    0.25
   3   6  -9    6.60    0.32
  -3   6   9    6.48    0.42
   2  -6  -9    6.11    0.24
   2   6  -9    6.73    0.34
   1  -6  -9   45.87    1.17
   1   6  -9   45.52    1.30
   0  -6  -9   25.18    0.70
   0   6  -9   25.11    0.78
  -1  -6  -9    8.36    0.31
  -1   6  -9    8.21    0.28
  -1   6  -9    8.66    0.38
   6   7  -9   16.77    0.61
  -6   7   9   17.01    0.62
   5   7  -9    1.86    0.19
  -5   7   9    2.18    0.19
  -4   7   9   14.19    0.51
   4   7  -9   13.68    0.53
   3  -7  -9   52.12    1.31
   3   7  -9   51.67    1.43
  -3   7   9   51.72    1.39
   2  -7  -9   35.36    0.93
   2   7  -9   35.51    1.07
   1  -7  -9    0.22    0.04
   1   7  -9    0.32    0.12
   0  -7  -9    0.05    0.03
   0   7  -9    0.23    0.09
  -1  -7  -9   10.94    0.38
  -1   7  -9   11.17    0.45
  -5   8   9   28.73    0.89
   5   8  -9   28.20    0.89
   4   8  -9   24.63    0.79
  -4   8   9   23.48    0.76
   3  -8  -9    6.22    0.25
  -3   8   9    6.32    0.30
   3   8  -9    6.39    0.34
   2  -8  -9    8.76    0.31
   2   8  -9    9.17    0.43
   1  -8  -9    4.34    0.21
   1   8  -9    4.34    0.30
   0  -8  -9   50.48    1.31
   0   8  -9   51.43    1.43
  -4   9   9    6.50    0.33
   4   9  -9    6.57    0.36
   3  -9  -9   23.16    0.67
  -3   9   9   23.78    0.75
   3   9  -9   24.71    0.80
   2  -9  -9   11.62    0.38
  -2   9   9   11.07    0.43
   2   9  -9   10.84    0.50
   1  -9  -9   33.44    0.92
   1   9  -9   34.25    1.07
   5   0 -10   23.34    0.62
   4   0 -10    3.76    0.17
   3   0 -10    2.84    0.14
   2   0 -10   18.42    0.51
   1   0 -10   28.22    0.74
   0   0 -10   10.97    0.35
  -1   0 -10    0.07    0.04
   5  -1 -10    9.08    0.28
   5   1 -10    8.76    0.28
   4  -1 -10   54.13    1.34
   4   1 -10   54.93    1.35
   3  -1 -10   24.09    0.64
   3   1 -10   23.87    0.64
   2  -1 -10   19.59    0.54
   2   1 -10   19.75    0.54
   1  -1 -10    0.02    0.03
   1   1 -10    0.02    0.03
   0  -1 -10   22.27    0.62
   0   1 -10   22.57    0.61
  -1  -1 -10   31.99    0.84
  -1   1 -10   31.55    0.84
   5  -2 -10   26.48    0.69
   4  -2 -10   16.11    0.46
   3  -2 -10   11.75    0.36
   3   2 -10   11.91    0.36
   2  -2 -10   18.88    0.52
   2   2 -10   18.07    0.51
   1  -2 -10   42.43    1.07
   1   2 -10   41.21    1.06
   0  -2 -10    3.92    0.19
   0   2 -10    3.98    0.17
  -1  -2 -10    0.02    0.03
  -1   2 -10    0.04    0.03
   4  -3 -10   46.64    1.17
   3  -3 -10   73.89    1.80
   2  -3 -10    4.86    0.20
   2   3 -10    4.60    0.19
   1  -3 -10    5.99    0.24
   1   3 -10    6.14    0.23
   0  -3 -10   11.33    0.37
   0   3 -10   11.81    0.36
  -1  -3 -10   20.08    0.58
  -1   3 -10   19.91    0.56
   6   4 -10   45.45    1.27
   5   4 -10   15.57    0.55
   4  -4 -10    0.31    0.04
   4   4 -10    0.55    0.11
   3  -4 -10    0.25    0.04
   2  -4 -10   16.89    0.49
   2   4 -10   17.17    0.61
   1  -4 -10   23.66    0.66
   1   4 -10   23.24    0.83
   1   4 -10   24.22    0.64
   0  -4 -10    6.83    0.26
   0   4 -10    6.88    0.25
  -1  -4 -10    0.41    0.06
  -1   4 -10    0.75    0.10
   6   5 -10    3.61    0.25
  -6   5  10    3.58    0.28
   5   5 -10   32.31    0.97
   4  -5 -10   18.37    0.52
   4   5 -10   18.17    0.62
   3  -5 -10   38.13    1.00
   3   5 -10   39.85    1.12
   2  -5 -10   10.25    0.34
   2   5 -10   10.14    0.45
   1  -5 -10    0.07    0.04
   1   5 -10    0.19    0.09
   0  -5 -10   20.53    0.60
   0   5 -10   20.96    0.68
   0   5 -10   21.68    0.59
   5   6 -10   22.38    0.75
   4  -6 -10   14.26    0.43
   4   6 -10   14.00    0.53
   3  -6 -10    5.14    0.22
   3   6 -10    5.31    0.30
   2  -6 -10   32.33    0.87
   2   6 -10   32.88    1.02
   1  -6 -10   18.58    0.55
   1   6 -10   18.78    0.66
   0  -6 -10    5.49    0.24
   0   6 -10    5.67    0.30
   4   7 -10   33.11    1.01
   3  -7 -10   25.58    0.72
   3   7 -10   26.32    0.84
   2  -7 -10    8.13    0.30
   2   7 -10    7.83    0.41
   1  -7 -10    0.11    0.04
   1   7 -10    0.21    0.10
   5   0 -11   15.73    0.45
   4   0 -11   51.79    1.29
   3   0 -11    4.48    0.19
   2   0 -11   17.82    0.51
   1   0 -11    6.05    0.24
   5  -1 -11   22.15    0.60
   5   1 -11   21.82    0.60
   4  -1 -11   39.89    1.01
   4   1 -11   39.54    1.02
   3  -1 -11    3.54    0.17
   3   1 -11    3.40    0.17
   2  -1 -11    0.01    0.03
   2   1 -11    0.03    0.03
   1  -1 -11   21.26    0.60
   1   1 -11   21.41    0.60
   5  -2 -11    2.82    0.15
   5   2 -11    2.77    0.15
   4  -2 -11   -0.02    0.03
   4   2 -11   -0.03    0.03
   3  -2 -11   28.43    0.77
   3   2 -11   29.48    0.77
   2  -2 -11   41.35    1.05
   2   2 -11   40.09    1.04
   1  -2 -11    3.30    0.18
   1   2 -11    3.30    0.17
   4  -3 -11   14.65    0.44
   3  -3 -11   10.07    0.33
   3   3 -11    9.98    0.33
   2  -3 -11    0.83    0.11
   2   3 -11    0.80    0.10
   1  -3 -11    9.01    0.32
   1   3 -11    9.66    0.32
   4  -4 -11    2.53    0.15
   3  -4 -11   16.96    0.50
   2  -4 -11   21.58    0.61
   2   4 -11   21.49    0.60
   0   0   0    0.00    0.00
;
_shelx_hkl_checksum              94919
loop_
_space_group_symop_operation_xyz
'x, y, z'
'-x, y+1/2, -z'
'-x, -y, -z'
'x, -y-1/2, z'
loop_
_atom_site_label
_atom_site_type_symbol
_atom_site_fract_x
_atom_site_fract_y
_atom_site_fract_z
_atom_site_U_iso_or_equiv
_atom_site_adp_type
_atom_site_occupancy
_atom_site_site_symmetry_order
_atom_site_calc_flag
_atom_site_refinement_flags_posn
_atom_site_refinement_flags_adp
_atom_site_refinement_flags_occupancy
_atom_site_disorder_assembly
_atom_site_disorder_group
SN1 Sn 0.11246(4) 0.250000 0.61454(3) 0.01873(15) Uani 1 2 d S T P . .
C1 C -0.0964(8) 0.250000 0.7368(7) 0.0311(11) Uani 1 2 d S T P . .
H3 H -0.148264 0.175825 0.736872 0.047 Uiso 0.5 1 calc R U P . .
H4 H -0.206262 0.299655 0.682401 0.047 Uiso 0.5 1 calc R U P . .
H5 H -0.030814 0.274520 0.847180 0.047 Uiso 0.5 1 calc R U P . .
C2 C -0.0117(9) 0.250000 0.3613(6) 0.0333(12) Uani 1 2 d S T P . .
H6 H -0.058046 0.176196 0.323554 0.050 Uiso 0.5 1 calc R U P . .
H7 H 0.089489 0.272794 0.316542 0.050 Uiso 0.5 1 calc R U P . .
H8 H -0.123969 0.301011 0.326687 0.050 Uiso 0.5 1 calc R U P . .
C3 C 0.3310(5) 0.1231(3) 0.7086(4) 0.0192(6) Uani 1 1 d . . . . .
C4 C 0.3373(5) 0.0276(3) 0.6300(4) 0.0232(7) Uani 1 1 d . . . . .
C5 C 0.4893(6) -0.0483(3) 0.6894(5) 0.0271(7) Uani 1 1 d . . . . .
C6 C 0.6388(5) -0.0268(3) 0.8311(5) 0.0255(7) Uani 1 1 d . . . . .
C7 C 0.6349(5) 0.0707(3) 0.9114(4) 0.0242(7) Uani 1 1 d . . . . .
C8 C 0.4850(5) 0.1454(3) 0.8537(4) 0.0197(6) Uani 1 1 d . . . . .
C9 C 0.4856(8) 0.250000 0.9470(6) 0.0246(10) Uani 1 2 d S T P . .
F1 F 0.1943(3) 0.0043(2) 0.4888(3) 0.0323(5) Uani 1 1 d . . . . .
F2 F 0.4898(4) -0.1414(2) 0.6093(3) 0.0391(6) Uani 1 1 d . . . . .
F3 F 0.7865(4) -0.0995(2) 0.8907(3) 0.0384(6) Uani 1 1 d . . . . .
F4 F 0.7856(3) 0.0864(2) 1.0511(3) 0.0335(5) Uani 1 1 d . . . . .
H2 H 0.359(8) 0.250000 0.983(6) 0.008(12) Uiso 1 2 d S . P . .
H1 H 0.594(11) 0.250000 1.045(9) 0.032(17) Uiso 1 2 d S . P . .
loop_
_atom_site_aniso_label
_atom_site_aniso_U_11
_atom_site_aniso_U_22
_atom_site_aniso_U_33
_atom_site_aniso_U_23
_atom_site_aniso_U_13
_atom_site_aniso_U_12
SN1 0.0202(2) 0.0193(2) 0.0183(2) 0.000 0.00872(14) 0.000
C1 0.027(2) 0.041(3) 0.032(3) 0.000 0.019(2) 0.000
C2 0.037(3) 0.044(3) 0.016(2) 0.000 0.006(2) 0.000
C3 0.0230(14) 0.0135(14) 0.0244(15) 0.0026(12) 0.0123(12) 0.0038(12)
C4 0.0264(16) 0.0195(16) 0.0271(16) -0.0041(13) 0.0134(14) -0.0067(13)
C5 0.0353(19) 0.0171(16) 0.0380(19) 0.0013(14) 0.0243(16) 0.0029(14)
C6 0.0279(17) 0.0146(15) 0.0402(19) 0.0113(14) 0.0194(15) 0.0083(13)
C7 0.0246(16) 0.0252(17) 0.0261(16) 0.0046(14) 0.0129(13) -0.0010(13)
C8 0.0256(15) 0.0151(14) 0.0225(14) 0.0015(12) 0.0133(13) -0.0021(12)
C9 0.033(3) 0.021(2) 0.021(2) 0.000 0.011(2) 0.000
F1 0.0343(12) 0.0288(12) 0.0341(12) -0.0134(10) 0.0120(10) -0.0085(10)
F2 0.0505(15) 0.0183(11) 0.0583(15) -0.0069(11) 0.0312(13) 0.0013(10)
F3 0.0351(12) 0.0303(13) 0.0556(15) 0.0114(11) 0.0230(12) 0.0120(10)
F4 0.0290(11) 0.0371(13) 0.0305(11) 0.0064(10) 0.0053(9) 0.0054(10)
loop_
_atom_type_symbol
_atom_type_description
_atom_type_scat_dispersion_real
_atom_type_scat_dispersion_imag
_atom_type_scat_source
C C 0.0033 0.0016 'International Tables Vol C Tables 4.2.6.8 and 6.1.1.4'
H H 0.0000 0.0000 'International Tables Vol C Tables 4.2.6.8 and 6.1.1.4'
F F 0.0171 0.0103 'International Tables Vol C Tables 4.2.6.8 and 6.1.1.4'
Sn Sn -0.6537 1.4246 'International Tables Vol C Tables 4.2.6.8 and 6.1.1.4'
loop_
_geom_angle_atom_site_label_1
_geom_angle_atom_site_label_2
_geom_angle_atom_site_label_3
_geom_angle
_geom_angle_site_symmetry_1
_geom_angle_site_symmetry_3
_geom_angle_publ_flag
C2 SN1 C1 115.5(2) . . ?
C2 SN1 C3 113.33(14) . 4_565 ?
C1 SN1 C3 110.17(14) . 4_565 ?
C2 SN1 C3 113.33(14) . . ?
C1 SN1 C3 110.17(14) . . ?
C3 SN1 C3 91.91(18) 4_565 . ?
SN1 C1 H3 109.5 . . ?
SN1 C1 H4 109.5 . . ?
H3 C1 H4 109.5 . . ?
SN1 C1 H5 109.5 . . ?
H3 C1 H5 109.5 . . ?
H4 C1 H5 109.5 . . ?
SN1 C2 H6 109.5 . . ?
SN1 C2 H7 109.5 . . ?
H6 C2 H7 109.5 . . ?
SN1 C2 H8 109.5 . . ?
H6 C2 H8 109.5 . . ?
H7 C2 H8 109.5 . . ?
C4 C3 C8 118.8(3) . . ?
C4 C3 SN1 124.1(3) . . ?
C8 C3 SN1 116.8(2) . . ?
F1 C4 C3 120.5(3) . . ?
F1 C4 C5 117.3(3) . . ?
C3 C4 C5 122.2(3) . . ?
F2 C5 C6 120.4(3) . . ?
F2 C5 C4 120.5(4) . . ?
C6 C5 C4 119.0(3) . . ?
F3 C6 C5 119.9(3) . . ?
F3 C6 C7 120.9(4) . . ?
C5 C6 C7 119.2(3) . . ?
F4 C7 C8 121.7(3) . . ?
F4 C7 C6 116.3(3) . . ?
C8 C7 C6 122.0(3) . . ?
C7 C8 C3 118.7(3) . . ?
C7 C8 C9 120.1(3) . . ?
C3 C8 C9 121.2(3) . . ?
C8 C9 C8 114.1(4) 4_565 . ?
C8 C9 H2 108.9(13) 4_565 . ?
C8 C9 H2 108.9(13) . . ?
C8 C9 H1 110(2) 4_565 . ?
C8 C9 H1 110(2) . . ?
H2 C9 H1 104(5) . . ?
loop_
_geom_bond_atom_site_label_1
_geom_bond_atom_site_label_2
_geom_bond_distance
_geom_bond_site_symmetry_2
_geom_bond_publ_flag
SN1 C2 2.122(5) . ?
SN1 C1 2.131(5) . ?
SN1 C3 2.159(3) 4_565 ?
SN1 C3 2.159(3) . ?
C1 H3 0.9800 . ?
C1 H4 0.9800 . ?
C1 H5 0.9800 . ?
C2 H6 0.9800 . ?
C2 H7 0.9800 . ?
C2 H8 0.9800 . ?
C3 C4 1.370(5) . ?
C3 C8 1.408(5) . ?
C4 F1 1.352(4) . ?
C4 C5 1.389(5) . ?
C5 F2 1.345(4) . ?
C5 C6 1.371(6) . ?
C6 F3 1.343(4) . ?
C6 C7 1.395(5) . ?
C7 F4 1.352(4) . ?
C7 C8 1.369(5) . ?
C8 C9 1.523(4) . ?
C9 C8 1.523(4) 4_565 ?
C9 H2 1.06(5) . ?
C9 H1 0.95(8) . ?
loop_
_geom_torsion_atom_site_label_1
_geom_torsion_atom_site_label_2
_geom_torsion_atom_site_label_3
_geom_torsion_atom_site_label_4
_geom_torsion
_geom_torsion_site_symmetry_1
_geom_torsion_site_symmetry_2
_geom_torsion_site_symmetry_3
_geom_torsion_site_symmetry_4
_geom_torsion_publ_flag
C8 C3 C4 F1 -178.7(3) . . . . ?
SN1 C3 C4 F1 -4.3(5) . . . . ?
C8 C3 C4 C5 0.6(5) . . . . ?
SN1 C3 C4 C5 175.0(3) . . . . ?
F1 C4 C5 F2 -1.0(5) . . . . ?
C3 C4 C5 F2 179.6(3) . . . . ?
F1 C4 C5 C6 179.0(3) . . . . ?
C3 C4 C5 C6 -0.3(5) . . . . ?
F2 C5 C6 F3 -0.2(5) . . . . ?
C4 C5 C6 F3 179.7(3) . . . . ?
F2 C5 C6 C7 179.7(3) . . . . ?
C4 C5 C6 C7 -0.3(5) . . . . ?
F3 C6 C7 F4 -0.6(5) . . . . ?
C5 C6 C7 F4 179.4(3) . . . . ?
F3 C6 C7 C8 -179.4(3) . . . . ?
C5 C6 C7 C8 0.6(5) . . . . ?
F4 C7 C8 C3 -179.1(3) . . . . ?
C6 C7 C8 C3 -0.3(5) . . . . ?
F4 C7 C8 C9 0.4(5) . . . . ?
C6 C7 C8 C9 179.1(3) . . . . ?
C4 C3 C8 C7 -0.3(5) . . . . ?
SN1 C3 C8 C7 -175.1(2) . . . . ?
C4 C3 C8 C9 -179.7(3) . . . . ?
SN1 C3 C8 C9 5.5(4) . . . . ?
C7 C8 C9 C8 121.7(4) . . . 4_565 ?
C3 C8 C9 C8 -58.9(6) . . . 4_565 ?
