#------------------------------------------------------------------------------
#$Date: 2021-07-25 01:20:33 +0300 (Sun, 25 Jul 2021) $
#$Revision: 267735 $
#$URL: file:///home/coder/svn-repositories/cod/cif/4/51/89/4518920.cif $
#------------------------------------------------------------------------------
#
# This file is available in the Crystallography Open Database (COD),
# http://www.crystallography.net/
#
# All data on this site have been placed in the public domain by the
# contributors.
#
data_4518920
loop_
_publ_author_name
'Doma\'nski, Mateusz A.'
'Kraszewski, Karol'
'Paluch, Piotr'
'Gu\'nka, Piotr A.'
_publ_section_title
;
 Arsenic(III)-oxide Intercalates with Potassium Chloride: Water-Induced
 Varieties and New Synthesis Methods
;
_journal_name_full               'Crystal Growth &amp; Design'
_journal_paper_doi               10.1021/acs.cgd.1c00555
_journal_year                    2021
_chemical_absolute_configuration ad
_chemical_formula_moiety         'As2 O3, 1(K), 1(Cl), 1.5(O2)'
_chemical_formula_sum            'As2 Cl K O6'
_chemical_formula_weight         320.39
_space_group_crystal_system      hexagonal
_space_group_IT_number           183
_space_group_name_Hall           'P 6 -2'
_space_group_name_H-M_alt        'P 6 m m'
_atom_sites_solution_primary     dual
_audit_creation_date             2021-01-14
_audit_creation_method
;
Olex2 1.3-dev
(compiled 2020.12.01 svn.r5f60950 for OlexSys, GUI svn.r6226)
;
_cell_angle_alpha                90
_cell_angle_beta                 90
_cell_angle_gamma                120
_cell_formula_units_Z            1
_cell_length_a                   5.2774(2)
_cell_length_b                   5.2774(2)
_cell_length_c                   8.3169(6)
_cell_measurement_reflns_used    2124
_cell_measurement_temperature    293(2)
_cell_measurement_theta_max      29.1690
_cell_measurement_theta_min      4.4240
_cell_volume                     200.601(18)
_computing_cell_refinement       'CrysAlisPro 1.171.40.84a (Rigaku OD, 2020)'
_computing_data_collection       'CrysAlisPro 1.171.40.84a (Rigaku OD, 2020)'
_computing_data_reduction        'CrysAlisPro 1.171.40.84a (Rigaku OD, 2020)'
_computing_molecular_graphics    'Olex2 1.3-dev (Dolomanov et al., 2009)'
_computing_publication_material  'Olex2 1.3-dev (Dolomanov et al., 2009)'
_computing_structure_refinement  'SHELXL 2018/3 (Sheldrick, 2015)'
_computing_structure_solution    'SHELXT 2018/2 (Sheldrick, 2018)'
_diffrn_ambient_temperature      293(2)
_diffrn_detector                 'CCD plate'
_diffrn_detector_area_resol_mean 10.3347
_diffrn_detector_type            Atlas
_diffrn_measured_fraction_theta_full 0.990
_diffrn_measured_fraction_theta_max 0.993
_diffrn_measurement_details
;
List of Runs (angles in degrees, time in seconds):

  # Type    Start    End  Width  t~exp~   \w     \q     \k     \f   Frames
--------------------------------------------------------------------------
  1  \w    -44.00  59.00   1.00   24.00    --  -19.50  19.00  90.00  103
  2  \w    -49.00  54.00   1.00   24.00    --  -19.50  57.00 120.00  103
  3  \w   -109.00 -34.00   1.00   24.00    --  -19.50-179.00 150.00   75
  4  \w    -10.00  94.00   1.00   24.00    --   19.97  57.00  30.00  104
  5  \w    -59.00  54.00   1.00   24.00    --   19.97 -77.00 -30.00  113
  6  \w     56.00 110.00   1.00   24.00    --   19.97 179.00 -90.00   54
  7  \w    -20.00  26.00   1.00   24.00    --   19.97  97.00 156.00   46
  8  \w    -81.00 -42.00   1.00   24.00    --  -19.50 131.00 131.00   39
  9  \w    -46.00  56.00   1.00   24.00    --  -19.50  38.00-120.00  102
 10  \w     22.00  81.00   1.00   24.00    --   19.97-131.00  60.00   59
 11  \w     -4.00  62.00   1.00   24.00    --   19.97 -99.00  90.00   66
 12  \w    -10.00  94.00   1.00   24.00    --   19.97  57.00 -90.00  104
 13  \w    -10.00  94.00   1.00   24.00    --   19.97  57.00 150.00  104
;
_diffrn_measurement_device       'four-circle diffractometer'
_diffrn_measurement_device_type  'Xcalibur, Atlas, Gemini ultra'
_diffrn_measurement_method       '\w scans'
_diffrn_orient_matrix_type
'CrysAlisPro convention (1999,Acta A55,543-557)'
_diffrn_orient_matrix_UB_11      -0.0303343000
_diffrn_orient_matrix_UB_12      -0.0523720000
_diffrn_orient_matrix_UB_13      -0.0802695000
_diffrn_orient_matrix_UB_21      0.1433974000
_diffrn_orient_matrix_UB_22      0.0216187000
_diffrn_orient_matrix_UB_23      -0.0070400000
_diffrn_orient_matrix_UB_31      -0.0509445000
_diffrn_orient_matrix_UB_32      -0.1445371000
_diffrn_orient_matrix_UB_33      0.0279446000
_diffrn_radiation_monochromator  graphite
_diffrn_radiation_probe          x-ray
_diffrn_radiation_type           'Mo K\a'
_diffrn_radiation_wavelength     0.71073
_diffrn_reflns_av_R_equivalents  0.0672
_diffrn_reflns_av_unetI/netI     0.0225
_diffrn_reflns_Laue_measured_fraction_full 0.990
_diffrn_reflns_Laue_measured_fraction_max 0.993
_diffrn_reflns_limit_h_max       7
_diffrn_reflns_limit_h_min       -7
_diffrn_reflns_limit_k_max       7
_diffrn_reflns_limit_k_min       -7
_diffrn_reflns_limit_l_max       11
_diffrn_reflns_limit_l_min       -11
_diffrn_reflns_number            5769
_diffrn_reflns_point_group_measured_fraction_full 0.990
_diffrn_reflns_point_group_measured_fraction_max 0.993
_diffrn_reflns_theta_full        25.242
_diffrn_reflns_theta_max         29.374
_diffrn_reflns_theta_min         4.459
_diffrn_source                   'fine-focus sealed X-ray tube'
_diffrn_source_type              'Enhance (Mo) X-ray Source'
_exptl_absorpt_coefficient_mu    9.154
_exptl_absorpt_correction_T_max  0.948
_exptl_absorpt_correction_T_min  0.510
_exptl_absorpt_correction_type   analytical
_exptl_absorpt_process_details
;
CrysAlisPro 1.171.40.84a (Rigaku Oxford Diffraction, 2020)
Analytical numeric absorption correction using a multifaceted crystal
model based on expressions derived by R.C. Clark & J.S. Reid.
(Clark, R. C. & Reid, J. S. (1995). Acta Cryst. A51, 887-897)
Empirical absorption correction using spherical harmonics,
implemented in SCALE3 ABSPACK scaling algorithm.
;
_exptl_crystal_colour            colourless
_exptl_crystal_colour_primary    colourless
_exptl_crystal_density_diffrn    2.652
_exptl_crystal_description       plate
_exptl_crystal_F_000             150
_exptl_crystal_size_max          0.096
_exptl_crystal_size_mid          0.055
_exptl_crystal_size_min          0.005
_refine_diff_density_max         1.269
_refine_diff_density_min         -0.458
_refine_diff_density_rms         0.150
_refine_ls_abs_structure_details
;
 Refined as an inversion twin.
;
_refine_ls_abs_structure_Flack   0.47(6)
_refine_ls_extinction_method     none
_refine_ls_goodness_of_fit_ref   1.064
_refine_ls_hydrogen_treatment    undef
_refine_ls_matrix_type           full
_refine_ls_number_parameters     21
_refine_ls_number_reflns         285
_refine_ls_number_restraints     1
_refine_ls_restrained_S_all      1.062
_refine_ls_R_factor_all          0.0289
_refine_ls_R_factor_gt           0.0279
_refine_ls_shift/su_max          0.000
_refine_ls_shift/su_mean         0.000
_refine_ls_structure_factor_coef Fsqd
_refine_ls_weighting_details
'w=1/[\s^2^(Fo^2^)+(0.0534P)^2^] where P=(Fo^2^+2Fc^2^)/3'
_refine_ls_weighting_scheme      calc
_refine_ls_wR_factor_gt          0.0680
_refine_ls_wR_factor_ref         0.0686
_reflns_Friedel_coverage         0.887
_reflns_Friedel_fraction_full    0.989
_reflns_Friedel_fraction_max     0.993
_reflns_number_gt                278
_reflns_number_total             285
_reflns_threshold_expression     'I > 2\s(I)'
_cod_data_source_file            cg1c00555_si_002.cif
_cod_data_source_block           pg52intercalateX_KCl
_cod_original_cell_volume        200.60(2)
_cod_database_code               4518920
_shelx_shelxl_version_number     2018/3
_chemical_oxdiff_formula         'K As2 O3 Cl H4 O2'
_shelx_space_group_comment
;
The symmetry employed for this shelxl refinement is uniquely defined
by the following loop, which should always be used as a source of
symmetry information in preference to the above space-group names.
They are only intended as comments.
;
_reflns_odcompleteness_completeness 99.35
_reflns_odcompleteness_iscentric 1
_reflns_odcompleteness_theta     29.51
_olex2_refinement_description
;
1. Twinned data refinement
 Scales: 0.53(6)
 0.47(6)
2. Others
 Fixed Sof: O4(0.25)
;
_shelx_res_file
;
TITL pg52_b.res in P6mm
    pg52.res
    created by SHELXL-2018/3 at 11:45:18 on 14-Jan-2021
REM Old TITL pg52 in P6mm
REM SHELXT solution in P6mm: R1 0.159, Rweak 0.075, Alpha 0.011
REM <I/s> 0.000 for 0 systematic absences, Orientation as input
REM Flack x = 0.466 ( 0.012 ) from 100 Parsons' quotients
REM Formula found by SHELXT: O6 As
CELL 0.71073 5.2774 5.2774 8.3169 90 90 120
ZERR 1 0.0002 0.0002 0.0006 0 0 0
LATT -1
SYMM -Y,+X-Y,+Z
SYMM +Y-X,-X,+Z
SYMM -X,-Y,+Z
SYMM +Y,-X+Y,+Z
SYMM -Y+X,+X,+Z
SYMM -Y,-X,+Z
SYMM +Y-X,+Y,+Z
SYMM +X,+X-Y,+Z
SYMM +Y,+X,+Z
SYMM -Y+X,-Y,+Z
SYMM -X,-X+Y,+Z
SFAC As Cl K O
UNIT 2 1 1 6

L.S. 50
PLAN  5
CONF
CONN 0 $K
LIST 6
MORE -1
fmap 2
acta
TWIN -1 0 0 0 -1 0 0 0 -1 2
OMIT -2 59
REM <olex2.extras>
REM <HklSrc "%./pg52.hkl">
REM </olex2.extras>

WGHT    0.053400
BASF   0.47248
FVAR       1.38089
AS1   1    0.666667    0.333333    0.276100    10.16667    0.00755    0.00755 =
         0.02630    0.00000    0.00000    0.00378
K1    3    0.000000    0.000000   -0.001847    10.08333    0.03034    0.03034 =
         0.03478    0.00000    0.00000    0.01517
CL1   2    1.000000    0.000000    0.419741    10.08333    0.02291    0.02291 =
         0.03749    0.00000    0.00000    0.01146
O1    4    0.500000    0.500000    0.158028    10.25000    0.00981    0.00981 =
         0.02796    0.00000    0.00000    0.00738
O4    4    0.369330    0.369330   -0.256239    10.25000    0.20503    0.20503 =
         0.11024   -0.02863   -0.02863    0.06414
HKLF 4




REM  pg52_b.res in P6mm
REM wR2 = 0.0686, GooF = S = 1.064, Restrained GooF = 1.062 for all data
REM R1 = 0.0279 for 278 Fo > 4sig(Fo) and 0.0289 for all 285 data
REM 21 parameters refined using 0 restraints

END

WGHT      0.0534      0.0000

REM Highest difference peak  1.269,  deepest hole -0.458,  1-sigma level  0.150
Q1    1   0.6667  0.3333  0.1783  10.16667  0.05    1.27
Q2    1   0.6667  0.3333  0.3797  10.16667  0.05    1.18
Q3    1   1.0000  0.0000  0.2795  10.08333  0.05    1.12
Q4    1   1.0000  0.0000  0.5180  10.08333  0.05    1.08
Q5    1   0.0000  0.0000  0.0838  10.08333  0.05    0.76
;
_shelx_res_checksum              39612
_shelx_hkl_file
;
   0   0 -12  166.65   82.48
   0   0 -11  367.99   85.28
   0   0 -11  323.47   87.85
   0   0 -10  372.67   80.94
   0   0 -10  266.71   69.78
   0   0  -9  547.61   82.21
   0   0  -8 1858.95   90.63
   0   0  -8 1806.34  127.06
   0   0  -8 1645.00  122.90
   0   0  -7 3271.72  137.03
   0   0  -7 2947.42  168.54
   0   0  -7 3133.04  170.02
   0   0  -6 1942.83  120.29
   0   0  -6 2212.00   96.66
   0   0  -6 1883.40  119.19
   0   0  -5  562.87   57.97
   0   0  -5  602.35   40.66
   0   0  -5  560.53   58.18
   0   0  -5  672.90   53.32
   0   0  -4 3411.68  155.72
   0   0  -4 3467.87  149.38
   0   0  -4 3197.28  152.94
   0   0  -4 3431.10  135.42
   0   0  -3 1640.80   85.43
   0   0  -3 1605.29   79.52
   0   0  -3 1487.92   68.70
   0   0  -2 5999.37  221.76
   0   0  -2 5809.02  212.55
   0   0  -2 5835.09  224.46
   0   0   2 6081.88  224.77
   0   0   2 5693.24  212.60
   0   0   2 5967.16  227.02
   0   0   3 1718.54   88.44
   0   0   3 1558.18   81.01
   0   0   3 1578.04   71.66
   0   0   3 1736.39   87.68
   0   0   3 1731.52   91.92
   0   0   4 3354.14  153.09
   0   0   4 3726.34  161.95
   0   0   4 3461.02  155.20
   0   0   4 3310.17  146.04
   0   0   4 3308.34  157.01
   0   0   4 3301.30  140.88
   0   0   5  613.92   49.85
   0   0   5  545.52   58.35
   0   0   5  596.37   44.33
   0   0   6 2073.74  126.79
   0   0   6 2177.81  105.36
   0   0   7 3017.66  171.41
   0   0   7 2858.48  151.07
   0   0   7 3284.79  143.60
   0   0   8 1886.53   98.94
   0   0   8 1715.42  109.14
   0   0   8 1478.34  122.34
   0   0   9  703.40   59.33
   0   0   9  617.33   66.43
   0   0   9  524.31   83.61
   0   0  10  309.53   55.69
   0   0  10  450.64   79.72
   0   0  11  235.86   68.89
   0  -1 -12   69.54   72.72
   1  -1 -12  159.35   73.28
   1   0 -12   -5.30   76.28
  -1   0 -12  138.16   79.77
   1  -1 -12  -23.19   79.61
   0  -1 -11   -3.20   61.99
   0  -1 -11   41.58   61.65
   1  -1 -11   79.45   71.07
   1   0 -11  109.68   63.00
   1   0 -11  139.44   75.54
  -1   1 -11   39.34   64.04
   1  -1 -11   96.08   69.33
   0   1 -11   57.77   62.39
   1   0 -10  248.22   69.12
   1  -1 -10  175.27   63.57
   0   1 -10  197.46   60.09
   1  -1 -10  210.19   75.59
  -1   0 -10  158.24   66.53
  -1   1 -10  286.67   69.30
   0   1 -10  217.80   65.34
   0   1 -10  209.49   77.21
   0  -1 -10  100.50   61.17
   1   0 -10  224.26   75.61
   0  -1 -10  211.42   66.16
   1  -1  -9  407.69   75.38
  -1   1  -9  421.34   77.77
  -1   0  -9  274.44   76.03
   1   0  -9  375.40   72.40
   0   1  -9  334.48   75.63
   0  -1  -9  316.76   71.46
   0  -1  -9  451.76   51.63
   1  -1  -9  285.63   64.43
  -1   0  -9  435.94   52.23
   1   0  -9  281.47   73.27
   0   1  -9  375.94   66.57
   0   1  -9  349.12   65.85
  -1   0  -8  130.34   57.21
  -1   1  -8  141.00   52.77
   0  -1  -8  138.51   36.01
   1   0  -8  155.61   53.29
   0   1  -8  200.25   50.63
   1   0  -8  105.37   51.21
   0   1  -8  199.03   61.57
  -1   1  -8  180.98   34.79
   1  -1  -8   92.71   46.33
   1  -1  -8  134.63   28.08
   0  -1  -8  177.13   56.68
   0   1  -8  130.49   45.80
   1  -1  -8  102.49   54.35
  -1   0  -8  162.17   37.62
  -1   0  -7   47.88   31.90
  -1   0  -7   31.55   39.73
  -1   1  -7   50.31   44.30
   0   1  -7   28.42   12.52
   0   1  -7   17.67   34.68
   0   1  -7   54.64   39.58
   0  -1  -7   45.03   28.29
   0   1  -7   24.75   14.36
   1   0  -7   48.02   45.05
   0  -1  -7   31.48   44.89
  -1   1  -7   56.69   27.47
   1  -1  -7   45.97   21.34
  -1   0  -7   17.68   46.86
   1  -1  -7   44.81   38.76
  -1   1  -7   40.69   23.97
   1  -1  -7   57.05   49.06
   1   0  -7   42.62   48.64
   1  -1  -6  390.24   35.82
   1   0  -6  437.67   64.07
  -1   0  -6  425.64   50.89
  -1   0  -6  245.52   42.54
   0   1  -6  375.54   44.64
  -1   0  -6  452.22   62.89
  -1   0  -6  345.74   43.38
  -1   1  -6  451.58   45.00
   0   1  -6  356.18   46.51
   0   1  -6  421.12   27.64
  -1   1  -6  383.01   37.93
  -1   1  -6  421.30   59.83
   1   0  -6  265.78   59.71
   0  -1  -6  424.79   43.64
   0   1  -6  317.70   49.78
   1  -1  -6  357.51   58.24
   1  -1  -6  213.56   58.29
   0  -1  -6  357.25   55.35
  -1   0  -6  430.60   60.28
   0  -1  -5 1248.03   93.83
   0   1  -5 1338.64   61.70
  -1   1  -5 1408.92   77.65
   0   1  -5 1278.36   85.68
   0   1  -5 1485.55   81.94
  -1   1  -5 1460.83   73.71
   1  -1  -5 1292.43   71.27
  -1   0  -5 1513.49   82.79
   0   1  -5 1329.69   79.06
   0  -1  -5 1508.20   83.16
  -1   0  -5 1421.00   97.50
   1  -1  -5 1228.86   95.87
   1   0  -5 1286.50   88.04
   1   0  -5 1160.55   90.40
  -1   1  -5 1218.03   88.16
  -1   1  -5 1253.57   87.17
  -1   0  -5 1217.48   79.01
  -1   0  -5 1369.86   82.46
   1   0  -4  769.96   57.07
   0   1  -4  759.26   50.70
   1  -1  -4  736.83   55.98
  -1   0  -4  785.92   49.90
   0  -1  -4  686.68   60.51
   0  -1  -4  838.95   69.40
  -1   1  -4  845.75   43.14
  -1   0  -4  911.73   54.75
  -1   0  -4  766.46   57.52
   1   0  -4  707.02   56.07
   0   1  -4  682.74   53.82
  -1   1  -4  772.96   57.05
   0   1  -4  727.29   65.59
   1  -1  -4  744.64   46.14
   1  -1  -4  901.86   68.61
   0   1  -4  750.94   48.87
   0  -1  -4  777.16   62.39
   0   1  -4  774.03   52.49
   0  -1  -4  794.37   57.05
   1  -1  -4  858.14   64.97
  -1   1  -4  693.94   41.54
   0   1  -4  676.17   38.61
   0   1  -3 1655.74   75.57
  -1   1  -3 1694.05   71.77
   0   1  -3 1651.56   75.76
   0   1  -3 1651.76   91.65
   0  -1  -3 1801.73   90.37
  -1   0  -3 1816.11   81.01
  -1   0  -3 1649.98   73.44
   0  -1  -3 1646.74   88.61
   0  -1  -3 1615.13   97.13
   1  -1  -3 1833.43   98.52
  -1   0  -3 1607.78   88.02
   0   1  -3 1674.15   82.12
   0  -1  -3 1621.08   85.90
   1   0  -3 1565.33   82.86
   1  -1  -3 1711.83   75.93
   1  -1  -3 1637.11   90.92
   0   1  -3 1646.63   69.46
  -1   1  -3 1728.84   66.34
   1   0  -3 1684.49   84.67
   0   1  -3 1634.11   79.41
  -1   1  -3 1686.12   85.23
   1  -1  -3 1603.47   81.23
  -1   1  -2 4931.76  190.76
   0   1  -2 4989.26  177.34
   1  -1  -2 5362.10  207.55
   0   1  -2 4810.83  180.55
   1  -1  -2 4995.37  185.47
   1   0  -2 4863.09  176.94
   0  -1  -2 5522.35  198.17
   1  -1  -2 5037.98  191.05
  -1   0  -2 4792.15  177.02
   1  -1  -2 4930.70  195.45
   0   1  -2 4707.77  178.22
   0   1  -2 5100.14  193.75
   0  -1  -2 4796.40  191.18
   0  -1  -2 4719.22  203.54
   0   1  -2 5008.72  197.09
   1   0  -2 4566.67  188.48
  -1   1  -2 4891.04  181.35
   0   1  -2 5044.43  183.71
   1  -1  -2 4671.59  185.33
   1   0  -2 5158.26  193.54
   0   1  -1 1392.30   64.44
   0  -1  -1 1454.92   67.12
   0  -1  -1 1446.32   70.40
   1  -1  -1 1408.38   75.00
  -1   1  -1 1363.14   62.50
   1  -1  -1 1378.80   67.53
   0   1  -1 1411.52   66.63
   0   1  -1 1485.34   61.01
   0  -1  -1 1349.40   54.63
  -1   1  -1 1406.66   63.92
   1  -1  -1 1363.91   59.88
  -1   0  -1 1412.91   67.62
  -1   1  -1 1408.97   65.74
  -1   0  -1 1340.52   56.72
   0   1  -1 1380.68   64.03
   0  -1  -1 1243.84   58.44
   1  -1  -1 1489.33   66.25
   0   1  -1 1419.30   65.87
   1   0  -1 1371.03   56.14
   0   1  -1 1390.21   56.71
   0  -1  -1 1430.61   56.14
   0   1  -1 1264.21   57.59
   1  -1   0  151.68   20.69
   0  -1   0  133.54   18.94
  -1   0   0  142.36   20.55
   0  -1   0  150.77   15.07
  -1   1   0  173.19   18.79
  -1   0   0  134.80   14.92
   1   0   0  150.00   17.70
   0  -1   0  144.20   17.73
   1  -1   0  143.58   21.29
   1   0   0  156.35   15.67
  -1   0   0  142.54   20.75
  -1   1   0  142.06   16.41
   0   1   0  196.27   14.50
   0   1   0  173.19   18.82
  -1   1   0  150.45   16.90
   0   1   0  158.76   17.37
   0   1   0  135.20   17.79
   1  -1   0  156.07   20.10
   0   1   0  164.50   19.90
   0  -1   0  142.02   20.29
   0  -1   1 1371.97   62.15
   1   0   1 1426.15   59.23
   0   1   1 1405.42   66.33
   0   1   1 1402.24   56.20
  -1   1   1 1374.20   59.83
   0  -1   1 1270.10   60.02
   1   0   1 1537.26   66.10
   0  -1   1 1407.29   57.40
   1  -1   1 1376.31   64.53
  -1   1   1 1396.20   62.78
   0  -1   1 1351.06   65.89
  -1   0   1 1549.94   68.95
  -1   0   1 1427.76   56.39
  -1   0   1 1296.50   54.86
   1  -1   1 1470.92   67.34
   0  -1   1 1405.41   66.23
  -1   0   1 1478.33   63.15
   1   0   1 1413.46   71.59
   1   0   1 1238.62   53.24
  -1   0   2 4679.84  174.08
  -1   1   2 5201.79  190.48
  -1   0   2 5069.82  188.15
  -1   0   2 5341.81  194.68
  -1   1   2 4905.88  181.98
   1   0   2 4821.38  192.26
   1  -1   2 5006.70  191.06
  -1   1   2 5077.98  184.74
   0   1   2 5365.73  194.86
   0   1   2 4938.55  189.50
   0  -1   2 4850.83  181.31
   0  -1   2 4712.83  174.97
   1   0   2 5214.70  194.68
  -1   0   2 4901.25  179.12
   0  -1   2 4849.68  190.21
   0  -1   2 4680.00  194.18
   0   1   2 4967.97  189.50
   0  -1   2 4210.89  172.59
  -1   0   2 4651.79  190.53
   1  -1   2 4836.99  186.79
  -1   0   2 4745.88  174.26
   1  -1   2 4854.30  190.75
   1   0   2 4958.94  197.01
  -1   1   2 4918.26  188.19
   0  -1   2 5084.87  190.09
   1  -1   2 5217.81  191.57
   1   0   2 4703.49  183.47
   1   0   2 4924.06  189.82
   0  -1   3 1574.92   67.23
  -1   1   3 1612.07   72.13
   1  -1   3 1853.81   87.41
   1   0   3 1607.57   88.11
   1  -1   3 1578.13   65.91
   0   1   3 1792.13   91.21
   1  -1   3 1621.37   83.81
  -1   1   3 1730.32   86.29
   0  -1   3 1628.16   82.15
   0  -1   3 1705.30   78.14
   1  -1   3 1662.94   69.86
   0   1   3 1467.48   84.28
  -1   1   3 1637.30   81.09
   0   1   3 1595.25   80.43
   0  -1   3 1553.34   89.26
   1   0   3 1456.24   75.18
   0  -1   3 1555.42   71.13
  -1   0   3 1533.98   67.27
   0  -1   3 1621.50   84.85
  -1   0   3 1698.63   89.56
   1   0   3 1591.81   83.72
   1  -1   3 1579.23   85.54
   1  -1   3 1734.85   79.91
   1  -1   3 1706.29   81.25
  -1   0   3 1497.87   84.95
  -1   0   3 1459.64   80.88
  -1   0   3 1696.03   81.97
   1  -1   3 1771.45   87.10
  -1   0   3 1649.12   77.99
   1   0   3 1552.47   88.58
  -1   0   4  733.34   43.16
   1  -1   4  739.24   42.55
   1   0   4  745.45   60.38
   1  -1   4  750.42   54.17
  -1   0   4  761.56   56.57
   0   1   4  690.43   51.41
  -1   1   4  806.76   56.82
   1  -1   4  780.24   60.18
   1   0   4  758.06   50.21
   0   1   4  773.29   63.36
   1  -1   4  742.60   61.05
   0  -1   4  697.12   50.35
   0  -1   4  728.15   56.08
  -1   0   4  823.09   61.60
   1  -1   4  788.48   42.93
  -1   0   4  679.86   56.31
  -1   0   4  729.98   54.54
   0  -1   4  818.39   65.06
   0   1   4  735.27   61.98
   0  -1   4  735.31   60.42
  -1   1   4  879.33   63.28
  -1   1   4  812.60   45.11
   0  -1   4  822.26   55.34
  -1   0   4  764.15   62.21
  -1   0   4  821.40   63.36
   0  -1   4  749.37   43.15
   1   0   4  766.87   66.48
  -1   1   4  812.87   60.18
   1  -1   4  837.86   55.83
   1   0   4  842.95   63.97
   1  -1   4  792.09   60.18
  -1   0   5 1202.55   91.79
   0  -1   5 1319.23   91.27
  -1   0   5 1242.37   80.06
  -1   1   5 1187.53   84.78
   0   1   5 1381.98   89.99
   1  -1   5 1375.82   66.65
   0  -1   5 1274.89   80.41
   1  -1   5 1284.96   81.46
  -1   0   5 1349.17   84.43
   0  -1   5 1406.67   82.39
   0  -1   5 1310.28   69.27
   1  -1   5 1291.55   66.75
   1  -1   5 1207.16   91.38
   1  -1   5 1433.34   89.59
   1   0   5 1255.08   53.29
  -1   1   5 1239.92   82.03
  -1   1   5 1264.75   66.00
   1   0   5 1283.74   77.04
   1   0   5 1255.97   89.11
   0   1   5 1366.46   78.98
  -1   0   5 1228.22   68.48
   0  -1   5 1291.19   83.53
  -1   1   5 1338.90   92.77
  -1   1   6  347.50   59.67
   0  -1   6  293.74   37.16
  -1   0   6  371.38   41.68
   1  -1   6  378.57   35.35
  -1   0   6  412.00   47.44
  -1   0   6  335.72   50.20
   1  -1   6  350.66   35.36
  -1   1   6  376.12   34.31
   0   1   6  355.01   42.14
   1   0   6  340.16   57.27
   1  -1   6  323.30   60.48
   0   1   6  375.15   53.15
   0  -1   6  409.22   45.17
  -1   1   6  338.71   47.87
   0  -1   6  372.14   54.23
  -1   0   6  357.60   59.20
   1  -1   6  386.32   49.34
   1   0   6  361.34   23.68
   0   1   6  340.44   51.38
   1  -1   7   30.59   39.67
   1   0   7    4.08   44.64
  -1   1   7   29.28   30.18
   0   1   7   49.34   35.73
   0  -1   7   30.62   25.81
  -1   1   7   16.65   36.99
   1   0   7   33.19   13.05
  -1   0   7   32.71   40.72
   0   1   7   50.41   37.19
   1  -1   7   43.22   30.15
   1  -1   7   40.48   21.30
   1  -1   7   38.78   18.88
   0  -1   7   17.32   22.03
   1   0   7   21.17   30.24
  -1   0   7   15.41   31.79
  -1   1   7   44.47   18.25
   0  -1   7   27.22   38.24
  -1   0   7   24.31   27.55
  -1   0   7  -10.72   25.60
   0   1   8  166.38   50.64
   0   1   8  162.71   44.86
  -1   0   8  155.51   54.98
   0   1   8  218.55   35.49
   0  -1   8  148.99   54.81
   1  -1   8  160.67   28.17
   1   0   8  176.14   55.04
  -1   1   8  221.22   57.63
   0  -1   8  235.86   43.38
   0  -1   8  132.73   32.37
  -1   0   8  244.88   45.07
  -1   1   8  166.57   46.67
  -1   1   8  114.74   38.20
  -1   0   8  119.78   43.91
   1  -1   8  184.29   39.07
   1   0   8  104.60   36.13
   1  -1   8  165.98   53.46
  -1   1   9  397.58   57.78
   0  -1   9  441.21   77.85
  -1   1   9  419.50   74.77
   1   0   9  452.49   76.23
   0  -1   9  441.93   55.29
  -1   0   9  515.42   82.16
   1  -1   9  408.58   75.44
   0  -1   9  364.32   44.92
   1   0   9  329.60   52.48
  -1   1   9  343.12   62.83
   0   1   9  367.93   69.34
  -1   0   9  417.15   60.24
   0   1   9  307.11   55.96
   1  -1   9  382.77   48.43
   1  -1   9  365.67   56.69
   1   0  10  103.80   40.43
   1  -1  10  153.15   64.89
   1   0  10  253.54   74.09
   0   1  10  134.21   60.29
   0   1  10  191.56   54.46
  -1   1  10  168.82   48.35
   1  -1  10   89.92   37.88
  -1   0  10  223.62   48.34
   0  -1  10  107.52   63.64
  -1   0  10  233.11   65.10
  -1   1  10  208.29   66.85
   1   0  11   75.69   62.65
   1  -1  11   47.00   62.19
   1   0  11   67.00   44.43
   0  -1  11  -35.35   53.28
  -1   1  11   26.34   48.01
   0   1  11   62.19   62.83
  -1   1  11   36.44   51.39
   0   1  11   77.90   47.70
   0  -1  11  173.69   65.14
  -1   0  11   -4.64   57.92
   2  -1 -12  280.17   84.29
   2  -1 -12  275.27   84.41
  -1   2 -12  227.01   86.25
  -1   2 -11  322.51   84.94
   2  -1 -11  333.08   83.88
   1  -2 -11  227.02   80.33
   1  -2 -11  210.28   78.00
   1   1 -11  201.80   84.27
   2  -1 -11  221.25   83.67
  -2   1 -11  212.54   83.87
  -1   2 -11  267.91   77.11
   1  -2 -10  357.67   81.96
  -2   1 -10  225.30   77.67
   1   1 -10  296.22   84.33
  -1   2 -10  248.54   63.60
  -1  -1 -10  331.09   59.54
   2  -1 -10  177.99   69.96
   1  -2 -10  163.43   65.85
   2  -1 -10  250.63   77.72
   1  -2  -9  247.25   60.70
  -1   2  -9  275.67   70.28
   2  -1  -9  146.07   61.82
   1   1  -9  216.16   54.83
  -2   1  -9  277.07   50.56
  -2   1  -9  249.01   72.32
   1   1  -9  317.29   82.28
   1  -2  -9  281.66   72.80
   1  -2  -9  274.70   44.78
   2  -1  -9  229.21   82.45
  -1  -1  -9  216.46   50.76
   1  -2  -8  861.34   71.52
   1   1  -8  775.74   99.95
   1  -2  -8  867.74   87.11
   1  -2  -8 1083.12  106.32
   2  -1  -8  866.19  108.38
   1   1  -8  993.47   84.43
   2  -1  -8  728.27   99.62
  -1  -1  -8  903.60   80.64
  -1  -1  -8  914.22  102.06
  -1   2  -8  916.78   96.30
  -2   1  -8 1143.60   89.12
  -2   1  -8  972.08  106.12
  -1   2  -8 1085.04   70.38
   1  -2  -7 2162.22  116.41
  -2   1  -7 1991.56  145.79
   1  -2  -7 2024.76  144.15
  -1   2  -7 2032.44  105.83
  -1  -1  -7 2307.52  128.39
  -1  -1  -7 2067.64  143.86
  -1   2  -7 2174.70  137.00
   1  -2  -7 1869.72  124.28
  -2   1  -7 2170.10  126.79
   2  -1  -7 1823.10  135.07
   1   1  -7 1721.92  141.24
   2  -1  -7 2181.39  145.35
   1   1  -7 2156.91  125.55
  -1  -1  -7 2073.61  147.83
  -1   2  -6 1796.59   80.23
  -1  -1  -6 1695.12  106.64
  -1   2  -6 1723.07  109.81
   1   1  -6 1503.62  120.64
   1   1  -6 1782.35  107.99
   1  -2  -6 1588.30  121.94
   2  -1  -6 1593.30  112.49
  -1  -1  -6 1448.22  115.13
   2  -1  -6 1873.79  117.65
   1  -2  -6 1846.05  104.03
  -1   2  -6 1623.85  113.85
  -2   1  -6 1670.19  121.25
  -2   1  -6 1669.22  108.21
   1   1  -6 1730.22   97.65
  -1  -1  -6 1823.03  132.50
   1  -2  -5 2180.20  113.93
  -1   2  -5 2236.83  110.87
   2  -1  -5 2081.68  123.27
   1  -2  -5 2171.34  141.61
   2  -1  -5 2269.85  126.66
  -1  -1  -5 2343.50  142.28
  -1  -1  -5 1971.23  129.60
   1  -2  -5 2403.65  122.84
  -2   1  -5 2261.58  123.64
  -1   2  -5 2274.07  120.73
  -1  -1  -5 2042.45  119.65
   1   1  -5 2176.66  109.61
  -1   2  -5 2196.29  125.42
   1   1  -5 2162.35  107.94
  -2   1  -5 2260.19  130.63
   1   1  -5 1998.05  127.86
  -2   1  -5 2261.24  111.69
  -1   2  -5 2255.98   92.15
   1  -2  -4 3219.12  177.66
  -1   2  -4 3438.15  157.11
  -2   1  -4 3504.40  149.74
  -1  -1  -4 3373.01  164.29
   1  -2  -4 3457.88  158.54
   1  -2  -4 3609.56  161.60
  -1  -1  -4 3871.69  178.60
  -2   1  -4 3319.51  160.06
  -1  -1  -4 3493.41  160.00
  -1   2  -4 3484.26  152.22
  -1   2  -4 3559.14  153.01
   2  -1  -4 3214.75  162.25
   1  -2  -4 3432.13  145.91
   1   1  -4 3226.26  143.61
   1   1  -4 3298.84  146.03
  -1  -1  -4 3711.25  164.57
   1   1  -4 3762.21  159.58
  -1   2  -4 3650.00  133.05
  -1  -1  -4 3233.00  171.36
   1  -2  -3 4365.74  164.26
  -1  -1  -3 4477.64  181.82
  -1   2  -3 4323.41  188.80
   1  -2  -3 4703.46  203.52
   1  -2  -3 4194.60  182.15
   1   1  -3 4079.48  168.67
   1   1  -3 4570.89  187.24
  -1   2  -3 4648.81  187.53
   2  -1  -3 4418.28  175.17
   1   1  -3 4251.95  163.05
  -2   1  -3 4561.95  194.31
  -1   2  -3 4379.61  181.93
   2  -1  -3 4290.80  186.42
  -2   1  -3 4262.31  173.50
  -1   2  -3 4210.34  185.96
  -1   2  -3 4221.69  156.72
  -1   2  -3 4369.96  179.25
  -1  -1  -3 4564.93  180.25
  -2   1  -3 4039.72  178.95
   1   1  -3 4525.00  184.38
   1  -2  -3 3970.15  195.58
  -1   2  -3 4597.36  178.67
   2  -1  -3 4190.38  184.59
   1   1  -3 4381.97  163.35
   2  -1  -3 4714.51  193.19
  -1   2  -3 4617.47  175.88
   1   1  -3 4344.52  180.65
  -2   1  -3 4015.18  157.43
   1  -2  -2 2543.09  129.25
  -1   2  -2 2765.82  104.14
  -2   1  -2 3076.75  132.38
  -1  -1  -2 2597.43  111.89
  -1   2  -2 2840.46  121.49
   1  -2  -2 2828.85  131.05
  -1   2  -2 2738.07  119.65
   2  -1  -2 2794.55  127.22
   1   1  -2 2656.19  113.07
   2  -1  -2 2781.72  127.54
   1   1  -2 2619.18  114.65
   1   1  -2 2733.49  120.91
  -1  -1  -2 2726.09  114.63
  -1   2  -2 2706.16  120.60
  -1   2  -2 2966.17  121.61
   1   1  -2 2665.44  120.43
   2  -1  -2 2672.77  116.47
  -1   2  -2 2808.68  125.33
   1  -2  -2 2487.87   98.96
   2  -1  -2 2632.83  123.06
  -2   1  -2 2592.75  114.31
  -1  -1  -2 2605.82  118.02
  -1   2  -2 2624.71  125.44
  -1   2  -2 2939.62  118.13
  -1  -1  -2 2582.06  126.56
   1   1  -2 2606.05  110.66
   1  -2  -2 2751.40  127.40
  -1   2  -2 2925.47  126.72
   1   1  -2 2545.07  114.96
   2  -1  -1 6097.96  244.87
  -2   1  -1 6113.29  233.15
  -1   2  -1 6569.79  236.95
  -1   2  -1 6679.71  249.11
   2  -1  -1 6147.39  246.63
   1  -2  -1 6028.82  246.20
   1  -2  -1 6207.81  242.51
  -2   1  -1 6024.69  226.24
  -1   2  -1 6771.53  247.50
  -1  -1  -1 6228.38  239.67
  -1  -1  -1 6088.77  232.04
   1  -2  -1 6142.18  245.60
   2  -1  -1 6141.80  240.32
  -1  -1  -1 5967.56  238.68
   1   1  -1 6260.03  232.73
  -1   2  -1 6151.95  241.30
  -2   1  -1 6717.04  250.86
  -1   2  -1 6833.13  245.38
  -1  -1  -1 6425.50  241.38
   1   1  -1 6124.33  244.09
  -1   2  -1 6601.60  246.55
   1   1  -1 5993.85  235.69
  -1   2  -1 6775.78  242.66
   1   1  -1 6608.67  240.92
   1  -2  -1 6388.57  247.30
  -1   2  -1 6387.51  233.74
   1  -2   0 8930.68  333.70
   1  -2   0 8641.96  340.00
   1   1   0 8754.88  331.01
  -1   2   0 9693.15  343.21
  -1  -1   0 9360.62  339.56
  -1   2   0 9362.05  341.72
  -1   2   0 9407.51  333.02
  -2   1   0 9852.69  323.10
   1   1   0 8729.99  329.92
   1   1   0 8792.09  332.17
   1   1   0 9165.00  346.16
   1   1   0 8837.24  335.38
   1  -2   0 9144.20  336.22
  -1   2   0 9550.84  341.59
  -1   2   0 8996.96  337.24
  -2   1   0 8700.70  336.79
   2  -1   0 9283.85  338.36
  -1  -1   0 8429.67  339.55
  -1   2   0 9954.28  343.74
  -1  -1   0 8764.47  339.96
  -1  -1   0 8630.41  333.79
   2  -1   0 8878.76  338.76
  -2   1   0 9999.00  346.17
   1   1   0 8890.52  337.51
   1   1   0 9236.12  334.92
   1   1   1 6218.98  242.90
  -1   2   1 6252.31  242.03
  -1  -1   1 6042.81  236.88
  -1  -1   1 5921.29  235.64
   2  -1   1 6095.44  241.27
  -1  -1   1 6308.85  232.66
   1   1   1 6095.47  222.45
  -1   2   1 6601.69  242.19
  -1  -1   1 6700.96  244.32
   2  -1   1 6568.15  243.36
  -1  -1   1 6327.53  235.61
  -2   1   1 6522.87  238.23
   1   1   1 6612.65  251.68
   1  -2   1 6193.44  239.38
  -2   1   1 6407.15  243.52
   1  -2   1 6146.89  229.04
  -1  -1   1 5825.59  242.86
   1   1   1 6673.16  238.38
   1   1   1 5985.22  235.73
   2  -1   1 5580.50  227.48
  -1  -1   1 5938.86  232.28
   1  -2   1 6013.74  241.46
   2  -1   1 6280.98  234.93
   1  -2   1 6354.93  226.59
   1  -2   2 2725.96  123.10
  -1  -1   2 2735.49  116.39
   1   1   2 2789.16  115.55
  -1  -1   2 2649.29  120.46
  -1   2   2 2726.45  115.29
   1  -2   2 2719.24  120.33
   1   1   2 2841.02  132.25
  -1   2   2 2813.44  123.32
   1  -2   2 2532.55  103.56
  -1  -1   2 2844.09  130.43
  -2   1   2 2835.78  125.91
   2  -1   2 2633.04  124.87
  -1  -1   2 2573.99  120.53
   1  -2   2 2817.95  126.85
   2  -1   2 2786.14  116.78
  -1  -1   2 2723.73  117.71
  -1  -1   2 2927.95  130.15
   2  -1   2 2907.48  118.62
  -1  -1   2 2609.11  110.12
   1  -2   2 2810.03  123.34
   1  -2   2 2563.95  117.71
   1   1   2 2696.79  132.35
  -2   1   2 2909.81  119.44
   2  -1   2 3083.65  129.41
  -2   1   3 4365.03  165.86
  -2   1   3 4340.73  183.28
  -2   1   3 4345.79  172.73
  -1  -1   3 4172.66  183.12
  -1  -1   3 4074.54  188.42
   1   1   3 4390.01  166.40
   1  -2   3 4557.83  179.77
   2  -1   3 3978.53  182.11
  -1  -1   3 4063.62  175.54
  -1  -1   3 4043.48  157.74
   2  -1   3 4455.11  179.03
  -1   2   3 4097.91  177.15
   1   1   3 4547.37  192.79
   2  -1   3 4139.55  162.98
   1   1   3 3988.71  173.31
   1   1   3 4764.44  194.58
   1  -2   3 4061.82  171.53
   1  -2   3 4516.25  181.19
   1  -2   3 4380.48  159.69
  -1  -1   3 4416.04  178.37
  -2   1   3 4493.81  186.91
   1  -2   3 4133.22  180.59
   2  -1   3 4646.61  188.93
  -1  -1   3 3942.87  157.11
   2  -1   3 4477.83  173.49
  -1   2   3 4351.31  176.41
  -1  -1   4 3255.25  152.57
   1   1   4 3442.33  134.69
   1  -2   4 3488.63  150.85
  -2   1   4 3420.77  161.93
   1  -2   4 3340.55  144.97
   1  -2   4 3589.58  156.72
  -1   2   4 3433.74  150.12
  -1  -1   4 3139.47  161.84
  -2   1   4 3209.75  131.99
  -1   2   4 3441.50  156.84
   1  -2   4 3283.08  159.23
  -1  -1   4 3461.08  157.52
   2  -1   4 3763.02  160.26
   2  -1   4 3226.32  158.71
   2  -1   4 3157.87  134.04
  -1  -1   4 3343.13  167.93
  -2   1   4 3273.55  144.24
   2  -1   4 3362.86  160.12
  -1  -1   4 3288.85  137.75
   1  -2   4 3433.65  140.12
   2  -1   4 3440.75  147.79
   1   1   4 3352.65  152.64
  -1   2   5 2090.40  132.12
  -1  -1   5 1992.69  104.90
   2  -1   5 2182.08   98.06
   2  -1   5 2267.58  126.37
   1   1   5 2006.69  114.65
   1  -2   5 2243.33  102.76
  -1   2   5 2219.97  110.36
   1  -2   5 2223.14  112.51
  -2   1   5 2151.43  136.16
  -1  -1   5 1946.93  115.44
  -1  -1   5 2082.36  106.00
   1  -2   5 2136.37  124.27
   2  -1   5 1886.04  120.10
   1   1   5 2252.32  121.49
  -1  -1   5 2049.14  131.00
   1  -2   5 1953.56  123.75
   1   1   5 2229.52   93.17
  -2   1   5 2239.27   90.09
  -2   1   5 2140.52  107.30
   1  -2   5 2027.07  104.79
  -1  -1   5 2182.33  125.78
  -1   2   5 2090.96  125.98
  -2   1   5 2111.56  124.18
   1  -2   6 1731.95   83.85
  -1   2   6 1627.15  109.21
  -2   1   6 1592.31   59.06
   1  -2   6 1793.89   88.28
   1   1   6 1571.72   95.41
  -1  -1   6 1584.85  101.10
  -1  -1   6 1837.64  105.68
   1  -2   6 1648.78  114.28
   2  -1   6 1628.40  106.56
   1   1   6 1528.84  104.86
  -1   2   6 1789.36  109.82
  -1  -1   6 1490.99  107.47
  -1  -1   6 1490.61   89.30
   2  -1   6 1476.67  102.95
   2  -1   6 1716.31   82.83
   1   1   6 1791.81   68.47
  -2   1   6 1625.19  107.42
   1  -2   6 1574.61  105.20
   1  -2   6 1683.92   91.30
  -2   1   6 1696.43  108.51
   1   1   7 2192.15   84.34
   1  -2   7 2187.00  114.04
  -1   2   7 1961.84  129.32
  -2   1   7 2153.13  130.48
  -1  -1   7 2216.46  139.19
   2  -1   7 2094.71   99.13
   1  -2   7 1999.95  138.70
  -1  -1   7 2001.14  136.02
  -1   2   7 2060.00  129.02
   1  -2   7 1907.85  137.36
   1  -2   7 2091.96  112.79
  -1  -1   7 2262.04  127.70
   1   1   7 2046.58  124.87
   2  -1   7 1898.78  125.54
  -2   1   7 2002.01  137.25
   2  -1   7 2041.96  137.25
   1   1   7 2111.75  137.25
  -1   2   8 1051.11   95.66
  -1  -1   8  975.01  101.55
   2  -1   8  933.98  107.96
   1  -2   8  898.39  101.82
   1  -2   8  796.59  101.64
  -1  -1   8 1052.40   87.97
  -2   1   8 1069.24   91.27
  -1  -1   8  717.63   93.96
  -2   1   8 1024.44   96.51
  -2   1   8  872.92  108.34
   1  -2   8 1024.39   76.83
   1   1   8  966.42  100.85
   2  -1   8 1178.57   98.18
   1   1   8 1109.38  102.86
   1  -2   8 1009.04   79.23
  -1   2   8  840.37   91.23
   1   1   9  268.57   64.40
  -2   1   9  361.13   79.81
  -1  -1   9  350.84   72.66
   1  -2   9  379.66   78.50
   1  -2   9  365.11   78.44
   1  -2   9  278.47   46.43
  -1  -1   9  289.88   70.14
  -1  -1   9  308.74   57.67
   2  -1   9  250.78   57.16
  -1   2   9  262.52   60.04
  -2   1   9  269.70   54.10
  -2   1   9  172.82   54.86
   2  -1   9  300.37   79.80
   1   1   9  219.80   61.07
  -1   2   9  299.00   61.16
  -1  -1  10  288.46   57.40
  -1  -1  10  282.74   67.90
  -1   2  10  249.88   57.98
   2  -1  10  253.56   57.32
   1  -2  10  364.97   81.02
  -2   1  10  295.47   59.91
  -1   2  10  301.58   77.71
   1  -2  10  276.50   78.33
   1   1  10  374.93   75.65
  -2   1  10  150.43   61.75
   1   1  10  240.51   61.91
   2  -1  10  302.52   75.47
  -1  -1  10  257.03   71.58
  -2   1  11  274.32   75.17
  -1   2  11  260.56   73.76
   2  -1  11  253.75   64.78
   1   1  11  263.16   76.60
   2  -1  11  372.03   86.72
  -1   2  11  171.14   55.50
   1  -2  11  199.72   74.18
  -1  -1  11  362.34   77.48
  -1  -1  11  175.68   64.67
   1  -2  11  325.35   80.58
  -1   2  12  153.90   60.94
   2  -2 -11    0.70   65.49
  -2   0 -11   27.32   66.90
  -2   2 -11   96.54   74.93
   0   2 -11   34.65   69.05
   0  -2 -11   11.44   69.35
   2  -2 -11   77.18   66.48
   2   0 -11  179.99   77.03
  -2   2 -10   73.73   65.69
   0  -2 -10  145.90   64.43
  -2   0 -10   58.78   50.54
   0   2 -10  133.47   54.95
   2   0 -10   75.31   69.22
   2  -2 -10   39.30   49.78
   0   2 -10  171.22   64.74
   2   0 -10  106.56   65.73
   2  -2 -10  107.75   71.30
  -2   0 -10   70.18   67.59
   0  -2 -10   81.46   58.47
   2  -2  -9  113.71   68.34
   0  -2  -9  136.07   68.46
   0   2  -9  177.96   71.55
  -2   0  -9  111.67   62.71
   0  -2  -9   53.77   37.64
  -2   0  -9  245.62   53.78
   2  -2  -9  141.49   54.69
  -2   2  -9  200.51   76.13
   2   0  -9  243.24   78.19
   0   2  -9  161.53   52.00
  -2   2  -9  155.34   44.59
   2   0  -9   96.44   65.88
  -2   2  -8   51.39   33.97
   0  -2  -8   40.46   35.99
  -2   0  -8    9.17   37.65
   2   0  -8   63.73   60.06
  -2   2  -8    2.20   56.59
   2  -2  -8  105.89   56.90
   0   2  -8  -39.02   51.78
   0   2  -8   65.63   40.79
   2  -2  -8   58.43   64.58
   0  -2  -8   10.65   50.39
   2   0  -8   16.09   54.35
  -2   0  -8   44.80   50.03
   0   2  -7   81.80   13.97
  -2   2  -7  104.79   36.11
  -2   0  -7   64.37   43.00
   0   2  -7   26.44   42.61
   2  -2  -7   19.53   50.51
   0   2  -7   56.97   40.16
   2   0  -7   89.00   50.94
  -2   2  -7    4.52   39.28
   2   0  -7   30.80   43.00
   0  -2  -7   57.52   37.72
   2  -2  -7   51.28   39.64
   0  -2  -7   75.56   45.89
  -2   0  -7   44.25   44.38
   0   2  -7   35.15   23.72
   0   2  -6  578.35   36.24
  -2   2  -6  548.21   40.54
  -2   0  -6  552.49   43.47
  -2   2  -6  512.29   64.14
   0  -2  -6  578.22   74.05
   0   2  -6  463.39   42.94
   0   2  -6  639.94   72.63
   2  -2  -6  460.79   57.77
   2   0  -6  520.15   69.06
   0  -2  -6  548.65   59.87
  -2   2  -6  501.19   65.76
   2  -2  -6  550.56   52.07
  -2   0  -6  488.49   61.47
   0   2  -6  481.43   57.48
   0   2  -6  569.45   50.12
   2   0  -6  609.61   64.73
   2  -2  -6  586.03   76.95
  -2   0  -6  536.83   73.00
   0   2  -6  448.13   70.50
   0   2  -5 1683.85   92.61
   0   2  -5 1556.50  119.60
  -2   2  -5 1695.01   80.16
  -2   0  -5 1712.15  107.07
   0   2  -5 1611.29  104.08
  -2   2  -5 1577.60  103.63
   0  -2  -5 1686.76  105.28
  -2   0  -5 1618.63   76.83
  -2   0  -5 1613.78  115.57
   0   2  -5 1468.53   76.30
   2   0  -5 1545.65  107.76
   0  -2  -5 1478.48  113.16
   2  -2  -5 1565.25  109.96
   0   2  -5 1669.66   87.05
   2   0  -5 1773.94  101.31
   2  -2  -5 1704.73   94.69
  -2   2  -5 1626.38  104.08
   0   2  -5 1735.31   80.29
   0  -2  -4 1616.44   83.65
   2  -2  -4 1763.21   91.23
  -2   0  -4 1674.98   73.01
   0   2  -4 1852.16   85.03
   0  -2  -4 1680.94   98.38
   0   2  -4 1616.78  107.37
  -2   2  -4 1627.27   98.96
   0  -2  -4 1645.94  112.55
   2   0  -4 1521.62  101.31
   0   2  -4 1669.87   84.83
   0  -2  -4 1635.17  104.95
  -2   0  -4 1607.76  108.16
   2   0  -4 1731.97   96.66
   0   2  -4 1696.29   98.82
  -2   0  -4 1676.22  106.47
   2  -2  -4 1687.49   90.95
   2  -2  -4 1745.43  107.55
  -2   2  -4 1795.27  102.95
   0   2  -4 1749.35   86.89
  -2   2  -4 1818.77   82.83
   2  -2  -3 2124.00  107.48
   2  -2  -3 1979.77  111.12
   0   2  -3 1947.22   90.43
   0   2  -3 1959.34   92.96
   0  -2  -3 2181.93  125.02
   0  -2  -3 1998.48   86.91
   0   2  -3 1996.55  110.56
   0   2  -3 1905.41   81.99
  -2   2  -3 2357.42  108.73
   0   2  -3 1879.53  107.23
   2   0  -3 1851.05   81.23
  -2   0  -3 1882.51   78.00
   2   0  -3 1837.78   99.69
  -2   2  -3 1907.96   91.18
  -2   2  -3 2095.01  107.19
   0  -2  -3 2166.35   96.43
   0   2  -3 1914.80  101.56
  -2   2  -3 2015.51  103.09
   2  -2  -3 2098.12   96.73
   0  -2  -2 2090.96   87.05
   0  -2  -2 2066.71  114.00
  -2   2  -2 2318.73  109.21
   0  -2  -2 2042.64   95.28
  -2   0  -2 2139.99   91.49
  -2   0  -2 2520.62  110.16
   0   2  -2 2138.12   93.98
   0   2  -2 2101.74  106.63
   2   0  -2 2154.59   95.31
   0   2  -2 2360.39  110.69
   0   2  -2 2344.56  102.37
   0   2  -2 2296.66  107.86
   0   2  -2 2452.79  112.94
   2   0  -2 2120.68   90.81
  -2   0  -2 2140.49  108.60
  -2   0  -2 2339.77  113.72
   2   0  -2 2079.60  106.15
   2  -2  -2 2122.61   97.76
  -2   2  -2 2227.19  102.56
   0   2  -2 2260.88  102.90
   0   2  -2 2282.15   92.42
   2  -2  -2 2207.49  120.76
   0  -2  -2 2091.02   89.36
  -2   2  -2 1965.27  104.03
   0   2  -2 2069.45  104.21
   2  -2  -2 2230.89  108.41
   2  -2  -2 2165.30  111.36
   0  -2  -2 2433.72  115.04
   0  -2  -1  462.58   36.92
  -2   0  -1  527.82   46.61
   0   2  -1  477.13   40.95
   0   2  -1  495.47   39.39
  -2   2  -1  490.33   42.59
  -2   0  -1  493.30   36.67
  -2   2  -1  526.13   40.71
   0  -2  -1  466.83   43.70
   0   2  -1  463.30   42.29
   2  -2  -1  440.44   36.26
   2   0  -1  496.70   35.09
   0  -2  -1  515.50   28.79
   0   2  -1  500.92   29.26
   2  -2  -1  440.83   43.57
  -2   2  -1  477.51   36.98
   0   2  -1  522.85   43.17
   0   2  -1  524.87   37.04
   2   0  -1  506.81   30.32
   2  -2  -1  518.60   38.52
  -2   0  -1  483.25   38.68
   2  -2  -1  480.83   52.94
   0   2  -1  475.08   32.00
  -2   2  -1  523.46   31.98
   0   2  -1  554.13   35.93
   2  -2  -1  466.02   42.97
   0   2   0  486.47   38.89
  -2   2   0  479.69   37.08
  -2   2   0  480.43   38.08
  -2   0   0  448.35   46.29
   2  -2   0  476.85   42.84
  -2   0   0  461.23   40.90
   0   2   0  444.30   38.76
   2  -2   0  450.27   41.06
   0  -2   0  370.20   33.82
   0   2   0  452.41   43.98
  -2   2   0  435.95   36.62
   0  -2   0  425.71   40.51
   0   2   0  482.90   41.57
  -2   0   0  475.23   33.75
   0   2   0  424.74   38.07
   2   0   0  461.32   37.36
  -2   2   0  456.48   34.67
   2  -2   0  446.34   35.05
   0  -2   0  430.31   37.32
   0   2   0  417.62   29.16
   0   2   0  428.20   39.37
   2   0   0  427.54   32.61
  -2   0   0  445.97   43.67
   2  -2   0  550.07   51.48
  -2   0   0  384.61   25.75
   0   2   0  461.63   41.06
   0  -2   1  529.35   45.50
  -2   0   1  446.34   29.54
   2  -2   1  492.22   38.12
   2  -2   1  505.49   38.80
   2   0   1  504.68   25.08
  -2   0   1  462.98   24.00
  -2   0   1  442.36   46.16
   0   2   1  507.07   28.91
  -2   2   1  535.61   42.50
   0  -2   1  461.51   43.16
   2   0   1  529.98   39.94
  -2   0   1  472.51   44.34
   0   2   1  535.76   38.11
   0   2   1  555.35   53.50
  -2   2   1  484.13   43.95
   0  -2   1  429.71   42.34
   0  -2   1  500.18   39.37
   0  -2   1  492.04   30.25
   0   2   1  562.20   45.91
   2  -2   1  522.87   39.02
  -2   0   1  513.61   29.83
   2  -2   1  512.75   43.30
   2  -2   1  504.90   37.75
  -2   0   1  497.89   45.50
  -2   2   1  559.19   38.45
   0  -2   2 2201.21  111.03
   0   2   2 2325.39  122.35
   2   0   2 2269.10   94.51
  -2   0   2 1942.22  118.41
   0  -2   2 2039.18   97.14
   0   2   2 2304.12  109.67
   2   0   2 2209.95   85.20
  -2   0   2 2432.86  115.39
  -2   0   2 2146.53  100.73
   0   2   2 2216.08  110.02
   2  -2   2 2051.85  105.76
   2  -2   2 2226.35  103.12
  -2   0   2 2316.08   92.76
  -2   2   2 2265.79  109.68
   2  -2   2 2069.19  104.32
   2  -2   2 2120.13  107.65
   2   0   2 2236.74  107.16
   0  -2   2 2041.12   93.07
  -2   2   2 2357.42   98.87
   2  -2   2 2343.40  111.65
  -2   0   2 2168.27   94.41
   0  -2   2 2037.25  108.23
  -2   2   2 2347.96  105.42
  -2   0   2 2159.75   89.14
   0   2   2 2341.42  106.75
  -2   0   2 2061.48  107.06
   2  -2   2 2123.38   84.44
   0  -2   2 2147.59   99.87
   0   2   2 2115.98   88.37
  -2   0   3 1832.49   99.14
   0   2   3 1965.99   93.83
   0  -2   3 1912.89  103.68
  -2   0   3 1935.52   84.83
   0  -2   3 1885.46   89.23
  -2   0   3 1884.03   85.22
  -2   0   3 1865.44   81.00
  -2   0   3 1786.20   87.33
   0   2   3 2228.15  101.84
  -2   2   3 2100.99   98.50
   0  -2   3 1918.03  106.33
   2   0   3 2338.23  112.95
  -2   0   3 2133.35  119.48
   0  -2   3 1746.23  103.21
  -2   0   3 1852.19  105.27
   0  -2   3 1962.13  106.63
   2   0   3 2025.07   99.11
  -2   2   3 1914.38  102.20
   2   0   3 2179.52  101.82
   2  -2   3 1952.44  103.88
   2  -2   3 1952.55  104.41
  -2   2   3 2157.19   98.29
   0  -2   3 1910.48   83.35
  -2   0   4 1513.49   64.89
  -2   2   4 1884.76   88.32
   2  -2   4 2072.67   96.55
  -2   0   4 1765.34  108.25
  -2   0   4 1737.94  101.03
   2  -2   4 1499.53   96.01
   0   2   4 1742.62   97.86
   0  -2   4 1822.81  101.48
  -2   0   4 1689.95  101.74
   2  -2   4 1641.11   95.58
  -2   0   4 1657.92   65.44
   2  -2   4 1560.09   96.88
  -2   0   4 1725.54   83.91
  -2   2   4 1752.95  100.20
   2   0   4 1836.90  101.15
   0  -2   4 1661.08   73.43
   0  -2   4 1682.97  100.48
  -2   0   4 1689.89   70.80
   0   2   4 1596.27   99.79
   0  -2   4 1631.12  102.88
   2  -2   4 1633.50  100.05
   0  -2   4 1763.35   86.02
   2   0   5 1576.40  100.90
   0  -2   5 1722.89  107.33
   0  -2   5 1570.93  105.74
   2  -2   5 1670.11   98.89
  -2   0   5 1825.38  110.76
   2  -2   5 1435.34  100.63
  -2   2   5 1687.41   84.67
   0  -2   5 1602.95  102.61
  -2   2   5 1615.28  101.25
   0   2   5 1456.79  100.53
  -2   2   5 1607.78  107.44
   0  -2   5 1547.25   70.90
  -2   0   5 1631.20  105.18
   0  -2   5 1357.89   69.76
   0  -2   5 1716.60   89.92
  -2   0   5 1422.67   67.40
  -2   0   5 1724.74   89.17
   0   2   5 1607.72   99.11
   2  -2   5 1553.99  103.38
   0  -2   6  348.39   38.80
  -2   0   6  553.95   61.88
   0  -2   6  399.86   60.79
   2  -2   6  616.93   69.85
  -2   0   6  561.89   52.37
   2   0   6  581.67   67.47
  -2   2   6  525.90   44.73
  -2   0   6  541.19   67.70
  -2   2   6  491.61   64.96
  -2   2   6  505.43   65.17
   0   2   6  564.42   62.77
   0  -2   6  612.60   67.41
   2  -2   6  468.05   63.41
  -2   0   6  487.17   34.21
   2   0   6  535.51   53.54
   0   2   6  604.01   67.30
   2  -2   6  557.18   63.31
   0  -2   6  512.42   35.65
   0  -2   6  545.13   65.76
   0   2   7   69.45   41.78
  -2   2   7   39.99   40.66
   2   0   7   97.85   45.13
   0  -2   7   25.96   43.24
   0  -2   7   55.84   44.54
   2  -2   7   86.03   51.68
   0  -2   7   60.84   19.33
  -2   2   7   56.07   41.72
   2  -2   7   72.23   40.58
   0  -2   7   73.17   36.30
  -2   0   7   45.99   49.34
   2   0   7   82.41   34.61
   2  -2   7   20.44   45.26
   0   2   7   66.42   50.89
  -2   0   7   40.49   38.54
  -2   2   8   22.64   49.64
   0  -2   8   33.88   43.93
   2   0   8  119.05   61.30
  -2   0   8  -30.66   51.72
   2  -2   8   28.59   53.00
  -2   0   8   10.91   38.08
   2  -2   8   24.73   59.26
   0   2   8   12.97   41.46
   0  -2   8   -2.22   50.72
   2   0   8   60.00   38.43
   0  -2   8   29.66   35.04
   2  -2   8   22.95   37.29
   0   2   8   -9.69   42.53
  -2   2   8   48.52   38.06
  -2   0   9  123.15   64.17
   0  -2   9  136.66   58.21
   0   2   9  203.17   61.56
   2  -2   9  121.74   63.06
   2   0   9  145.12   48.02
   0   2   9   92.93   51.87
  -2   0   9  126.24   45.12
  -2   2   9  163.82   52.05
   0  -2   9  124.46   45.75
   2  -2   9  180.71   69.53
   0  -2   9   64.46   65.28
   2  -2   9  173.08   53.67
  -2   2   9  182.61   63.42
   2   0   9  129.81   67.25
  -2   2  10  103.85   54.39
   0   2  10  -39.83   59.00
   2  -2  10  115.69   59.84
  -2   0  10  122.29   62.38
   0  -2  10   97.89   57.82
   2  -2  10  128.32   47.10
  -2   2  10   82.11   63.24
  -2   2  10   96.59   50.53
  -2   0  10   83.33   42.51
   0  -2  10  149.16   67.10
   2   0  10  113.91   66.93
   2  -2  10  -48.69   59.59
   0   2  10   49.89   53.75
  -2   2  11  126.68   56.20
  -2   2  11  172.69   75.03
   0  -2  11   94.59   63.66
   2   0  11 -100.99   66.00
   0   2  11  216.39   59.02
   0  -2  11   34.61   58.06
   2  -2  11  128.49   70.27
   2  -2  11  131.62   71.71
   2   0  11  171.87   62.66
  -2   0  11  157.62   65.44
   0   2  11  112.98   70.02
   2   0  12   23.95   53.69
  -2   2  12   83.88   69.37
   3  -1 -11 -104.63   86.55
   3  -2 -11  -26.25   63.49
  -2   3 -11   36.20   59.58
   3  -1 -11  137.45   75.29
   2  -3 -11   13.07   65.85
  -1   3 -10   52.12   54.90
   1  -3 -10  130.31   74.28
   3  -2 -10   94.04   71.90
  -3   2 -10    0.24   83.27
   2   1 -10  140.09   81.49
   1   2 -10   50.89   69.84
  -1   3 -10  191.65   66.12
  -3   1 -10   90.39   57.32
  -1  -2 -10   92.26   51.58
   3  -1 -10  103.75   86.28
  -3   1 -10  109.14   77.11
   2  -3 -10  117.23   80.46
  -2  -1 -10  208.30   64.42
  -2   3 -10  246.35   74.06
   3  -2 -10  117.66   74.88
   3  -1 -10  122.72   88.70
  -1   3  -9  141.48   62.10
  -3   1  -9  206.37   77.29
   3  -2  -9  253.69   99.76
  -3   2  -9  252.30   87.00
  -2   3  -9  275.10   71.93
   2  -3  -9  300.15   63.78
   2   1  -9  272.77   85.10
  -1  -2  -9  322.59   64.17
  -3   1  -9  315.00   66.90
  -1   3  -9  473.18   89.09
  -2  -1  -9  296.15   67.66
  -2  -1  -9  248.69   82.56
   2  -3  -9  223.42   81.26
  -3   2  -9  301.28   61.02
   3  -1  -9  261.34   83.64
   1  -3  -9  237.60   82.24
   1   2  -9  297.58   82.07
   3  -1  -9  263.32   81.07
   3  -2  -9  157.06   65.50
   1  -3  -9  174.69   48.91
  -2  -1  -8   95.00   65.06
  -3   2  -8  119.58   65.53
   2  -3  -8  122.47   66.60
  -1   3  -8  121.51   50.06
  -2   3  -8  127.79   63.74
  -2  -1  -8  186.45   54.37
   1  -3  -8  203.50   73.05
  -3   2  -8  146.90   56.29
   1  -3  -8   76.29   44.91
   1   2  -8  246.78   75.74
   3  -1  -8   74.27   61.75
   2   1  -8   17.58   67.33
   1  -3  -8   82.12   41.44
   3  -2  -8   89.24   60.53
  -1  -2  -8  111.59   54.10
  -3   1  -8   69.50   47.91
   3  -2  -8   86.30   51.67
   2   1  -8  164.56   59.00
   2  -3  -8  150.90   40.11
   3  -1  -8  150.85   63.17
  -3   1  -8  133.72   71.71
  -2   3  -8  170.59   44.05
   2  -3  -8  127.66   48.57
  -2  -1  -7   24.09   53.29
   2  -3  -7   40.18   57.06
  -3   1  -7   -5.64   56.56
   3  -1  -7   -7.14   43.71
  -1   3  -7   24.64   44.46
  -2   3  -7  -15.87   38.86
   3  -2  -7   86.89   57.22
   3  -2  -7  -38.54   42.09
   1  -3  -7    4.15   50.38
  -3   2  -7   20.60   38.96
   2  -3  -7   73.27   37.25
   2   1  -7   58.75   54.75
   1   2  -7  -10.37   54.60
   1  -3  -7   52.35   36.35
  -2  -1  -7    7.16   43.67
   1   2  -7   38.72   25.70
   2  -3  -7   32.79   34.48
  -3   1  -7   35.74   42.72
  -3   2  -7   19.89   41.20
  -1  -2  -7   18.92   39.25
   2   1  -7   57.63   42.27
   3  -1  -7    5.66   39.18
  -1   3  -7   32.15   38.74
  -2   3  -7   45.58   44.71
  -3   1  -6  276.66   61.72
   2  -3  -6  271.61   73.51
  -2  -1  -6  233.95   54.51
  -3   1  -6  262.01   55.69
   3  -2  -6  322.17   62.27
   3  -1  -6  297.41   56.70
   1   2  -6  305.09   36.79
   3  -2  -6  238.90   52.37
  -1   3  -6  241.33   52.89
  -2   3  -6  248.25   53.43
   1  -3  -6  275.51   37.19
  -3   2  -6  211.59   54.72
   2   1  -6  285.42   46.22
  -2  -1  -6  254.45   63.82
   1   2  -6  186.06   57.94
  -2   3  -6  441.76   61.04
   1  -3  -6  188.31   59.76
   1  -3  -6  337.21   55.48
  -3   2  -6  316.58   55.81
   2   1  -6  212.59   55.91
  -1  -2  -6  287.03   55.34
   2  -3  -6  334.04   52.99
   3  -1  -6  198.96   50.59
  -1   3  -6  274.12   49.32
   1   2  -6  243.96   38.22
   1   2  -5  807.16   71.75
   3  -2  -5  913.54   81.60
   1   2  -5  819.33   53.41
  -2  -1  -5  739.04   82.62
   2  -3  -5  876.66   90.65
  -1   3  -5  882.78   46.78
  -3   1  -5  932.67   83.29
   1   2  -5  814.71   52.40
   1  -3  -5  807.03   49.40
   2  -3  -5  817.28   55.68
  -3   1  -5  881.02   82.78
  -3   2  -5  829.91   42.38
  -2   3  -5  780.68   71.86
  -1   3  -5  807.69   66.36
   3  -1  -5  797.16   76.53
   2  -3  -5  791.31   74.68
   1   2  -5  797.84   45.51
   3  -2  -5  807.35   69.01
   1  -3  -5  882.13   83.84
   1   2  -5  775.22   80.52
   3  -2  -5  817.96   72.30
   1  -3  -5  771.58   86.61
   2   1  -5  810.49   80.78
  -1  -2  -5  676.53   41.11
  -1   3  -5  719.28   72.23
  -3   2  -5  793.55   76.40
  -1  -2  -5  955.02   84.86
  -2  -1  -5  877.94   80.88
  -3   2  -5  806.42   72.74
  -2   3  -5  797.37   75.53
   3  -1  -5  889.50   78.84
   2   1  -5  932.45   67.39
  -3   1  -4  453.78   22.13
   3  -1  -4  511.96   43.83
  -1  -2  -4  431.35   48.43
   2  -3  -4  458.54   66.34
   2  -3  -4  479.22   52.52
  -2   3  -4  417.82   53.49
   1  -3  -4  459.53   66.57
  -3   2  -4  547.50   58.47
   3  -2  -4  542.74   61.15
   2   1  -4  493.80   60.09
   1  -3  -4  380.21   25.45
   3  -1  -4  467.57   57.18
  -1  -2  -4  528.05   47.38
  -2  -1  -4  505.21   61.85
   1   2  -4  526.20   39.22
  -2   3  -4  538.04   55.33
  -1   3  -4  480.20   55.06
  -3   1  -4  514.21   58.51
  -1  -2  -4  445.56   26.71
   1   2  -4  456.72   59.47
  -1  -2  -4  436.96   61.17
   3  -2  -4  457.92   53.77
   3  -1  -4  514.68   56.34
   2  -3  -4  503.79   35.81
   3  -2  -4  490.97   51.90
   1  -3  -4  544.86   59.87
  -2  -1  -4  415.17   61.95
  -3   2  -4  449.07   50.56
   2   1  -4  489.91   48.07
   1   2  -4  493.50   33.82
  -1   3  -4  475.44   49.39
   1   2  -4  489.21   35.96
   1   2  -4  466.72   50.27
  -1   3  -4  584.98   45.23
  -1   3  -4  506.08   35.57
  -3   2  -4  538.91   35.25
  -3   1  -4  568.25   63.99
  -3   2  -3 1071.62   64.05
   3  -2  -3 1053.38   72.18
   3  -2  -3 1106.60   80.26
  -2  -1  -3  961.67   82.07
   2  -3  -3 1030.58   83.00
   1   2  -3 1071.95   54.52
  -3   2  -3 1046.36   77.42
  -1   3  -3 1101.32   78.26
   1  -3  -3 1064.40   89.39
   1  -3  -3 1124.47   79.76
   2  -3  -3 1075.42   76.24
  -3   1  -3 1186.74   56.35
  -2  -1  -3 1023.29   59.63
  -1   3  -3 1162.52   70.36
  -1  -2  -3 1020.22   47.95
   1   2  -3  848.83   42.11
   1   2  -3 1040.50   68.39
  -1  -2  -3 1091.48   64.75
  -2  -1  -3  954.88   82.17
   3  -1  -3 1076.68   79.52
   2  -3  -3  990.36   50.96
  -1  -2  -3 1013.71   84.12
  -1  -2  -3 1153.15   67.24
   1   2  -3 1141.65   79.62
  -2   3  -3  955.94   75.15
   1   2  -3 1160.43   65.95
   2  -3  -3 1074.09   80.84
  -1   3  -3 1234.97   66.85
   1   2  -3 1052.84   69.33
  -2  -1  -3 1243.43   74.01
  -2   3  -3 1045.98   74.96
  -3   1  -3 1111.20   82.52
   2   1  -3  927.44   64.76
   2   1  -3 1105.04   71.24
   2   1  -3 1157.11   83.15
  -3   1  -3 1095.57   77.92
   3  -1  -3 1150.99   81.02
   1   2  -3 1074.11   46.89
  -1   3  -3 1224.83   76.77
  -1   3  -3 1118.23   58.43
   3  -1  -3 1058.29   64.54
   3  -2  -2 2285.93  114.64
   1   2  -2 2065.91  112.64
   2  -3  -2 2152.18  119.60
  -3   2  -2 1968.04  114.29
   1   2  -2 1967.50   82.46
   2   1  -2 2286.24  106.97
  -1  -2  -2 2291.95  105.12
  -3   1  -2 2076.45   97.64
  -1   3  -2 2101.72   99.48
  -2   3  -2 2138.10  114.50
   1   2  -2 2176.63  105.47
   1  -3  -2 2074.10  126.41
   2   1  -2 2330.99  106.68
  -1   3  -2 2168.17  105.06
  -2  -1  -2 2061.05  102.46
  -1   3  -2 2169.67  108.17
   1   2  -2 2182.22  109.50
   2   1  -2 2118.53   89.60
  -1   3  -2 2217.76  104.24
   1   2  -2 2091.21   90.90
   2   1  -2 2136.79  118.28
   3  -1  -2 2252.86  120.41
  -3   2  -2 2056.14  105.54
   1   2  -2 2210.21  111.80
   2  -3  -2 2153.60  115.53
  -3   2  -2 2234.63   99.03
  -2  -1  -2 2391.74  109.38
   3  -2  -2 2170.31  119.63
  -2  -1  -2 2216.58  115.84
   3  -1  -2 2181.04  119.04
  -1  -2  -2 2106.48  108.81
   2  -3  -2 2302.31  116.08
   2  -3  -2 2276.34  121.85
   3  -1  -2 2038.24  103.67
  -1  -2  -2 2142.89   93.33
  -2   3  -2 2500.06  114.28
  -2   3  -2 2211.74   93.22
  -2   3  -1  993.71   68.09
   2   1  -1  961.54   58.41
   2  -3  -1 1018.13   69.07
   1   2  -1 1083.22   69.59
   1   2  -1 1036.89   69.26
  -3   1  -1 1037.32   49.44
   1  -3  -1  901.30   68.95
  -1   3  -1  996.24   50.19
  -2  -1  -1  945.12   57.35
   2   1  -1  998.29   47.82
   1  -3  -1  852.61   73.32
   1   2  -1 1007.74   63.79
  -2  -1  -1  880.40   60.66
   1   2  -1 1064.45   49.58
  -2  -1  -1  943.22   61.97
   2  -3  -1  955.02   70.96
  -3   2  -1  976.37   50.52
   1   2  -1  895.55   59.69
   2  -3  -1 1090.88   71.83
  -1  -2  -1 1030.36   61.45
  -1  -2  -1  934.80   45.24
   1   2  -1 1053.17   66.22
  -2  -1  -1 1057.66   70.10
   3  -2  -1 1130.70   74.99
   1   2  -1 1051.50   65.65
   2  -3  -1  739.09   64.38
   2   1  -1  871.38   67.67
   2  -3  -1  895.39   65.98
   3  -2  -1 1007.04   50.51
  -1   3  -1 1101.05   67.32
   1   2  -1 1053.99   71.09
   3  -2  -1  970.21   68.94
   3  -1  -1  930.82   62.45
   1   2  -1 1070.11   58.19
  -1   3  -1  993.71   60.41
  -1   3  -1 1044.10   53.63
  -2   3  -1 1087.22   65.34
   1  -3  -1  990.85   69.28
  -1  -2  -1  994.98   67.46
  -2   3  -1  893.32   66.41
   3  -2  -1 1087.15   70.33
   2   1  -1  961.79   53.77
  -2   3  -1  988.82   63.39
   2   1  -1 1066.54   69.45
   1  -3   0  109.86   31.68
   2   1   0  104.05   18.78
  -1   3   0  140.26   18.19
   3  -2   0  130.73   18.91
   2   1   0  121.67   24.77
   1   2   0   84.51   30.62
  -2  -1   0  118.57   29.18
  -1   3   0  129.96   28.10
   2  -3   0  160.80   26.28
   2   1   0  124.11   15.12
   2   1   0  167.01   33.21
  -1   3   0  115.95   17.62
   3  -1   0  124.10   30.28
  -1   3   0  145.45   27.58
   1   2   0  123.48   24.83
   1   2   0  123.03   24.33
   3  -2   0  126.97   29.36
  -2  -1   0  139.29   20.73
  -3   1   0  123.46   25.37
  -3   2   0  153.03   31.90
  -1  -2   0  146.97   27.77
   1   2   0  152.26   24.44
   2   1   0  104.22   18.40
   2   1   0  105.25   31.30
   2  -3   0  152.04   32.53
   1   2   0  140.30   27.71
  -2   3   0  127.80   22.18
  -2   3   0  136.22   38.52
   1  -3   0  168.03   29.90
   2   1   0   99.75   32.79
  -2  -1   0  143.99   31.37
   1  -3   0  126.86   30.46
   2  -3   0  102.42   28.07
   1   2   0   91.91   31.28
   1   2   0  128.75   28.82
  -1   3   0  107.55   28.36
   3  -2   0  177.81   28.53
   2  -3   0  126.62   25.88
  -2  -1   0  125.82   24.18
  -1  -2   0  118.59   29.98
  -3   2   0  138.41   20.29
  -1   3   0  155.14   24.33
  -1  -2   0  114.68   15.77
   2  -3   1  979.66   56.04
  -3   2   1 1017.85   53.40
  -3   2   1  915.15   49.29
   3  -2   1 1001.51   50.79
   2  -3   1  917.93   66.88
   1  -3   1  955.21   69.76
  -1   3   1 1016.57   65.02
   1   2   1 1004.27   70.67
   1  -3   1  987.59   54.02
   2   1   1 1000.16   58.51
   2   1   1 1095.41   69.30
  -1  -2   1  878.63   68.57
  -2  -1   1  973.93   70.50
   1   2   1  966.91   66.36
  -3   2   1 1206.03   73.73
   3  -1   1 1134.56   69.02
   1   2   1 1016.01   54.68
  -2   3   1  936.47   49.35
  -2  -1   1 1042.72   65.72
   1   2   1  929.79   58.62
  -2  -1   1  997.55   59.81
   3  -2   1  914.09   54.84
  -3   1   1  889.78   59.23
   2   1   1  966.84   68.08
   3  -1   1  873.81   46.17
   2   1   1  950.55   48.88
  -1  -2   1 1006.02   67.33
   2   1   1 1012.85   58.47
   1  -3   1  988.69   65.99
   3  -2   1  951.03   67.22
   1   2   1 1134.01   68.00
   3  -1   1  922.85   65.89
  -3   1   1 1155.14   66.34
   1   2   1 1085.01   70.18
   2  -3   1  916.98   66.77
   2  -3   1  978.12   58.14
  -1  -2   1 1042.33   54.13
  -2  -1   1  938.31   57.36
   3  -2   1 1008.28   60.96
   3  -2   1  966.33   68.55
  -2   3   1  956.26   79.12
  -1   3   1  894.95   46.64
  -2   3   1 1073.50   68.86
  -1   3   1  931.84   66.98
   2  -3   1  922.96   67.83
  -1  -2   1  953.15   66.67
  -3   2   2 2031.90  114.65
  -1  -2   2 2030.33  106.27
   3  -2   2 2112.52   98.93
   2   1   2 2231.47  109.15
   3  -2   2 2022.82  114.59
   3  -2   2 2384.10  100.11
  -3   1   2 2247.68  105.40
   2  -3   2 2298.84  116.31
  -2  -1   2 2170.61   97.84
   2  -3   2 2078.25  114.05
   1   2   2 2460.96  113.09
  -1  -2   2 2160.00  119.90
   1  -3   2 2174.45  107.72
   2   1   2 1922.68  109.66
  -2  -1   2 2043.29  119.62
   2  -3   2 2114.11  112.73
  -2  -1   2 2339.07  105.08
   2  -3   2 2047.01  113.29
  -2   3   2 2139.27   87.33
  -3   1   2 1911.45  100.46
  -2  -1   2 2171.56  105.10
   3  -2   2 2104.14  109.25
  -2  -1   2 2087.31  108.29
  -1   3   2 2173.50  118.15
  -3   2   2 2093.99  111.77
   3  -1   2 2103.97   99.53
   3  -1   2 2060.62  114.15
   2  -3   2 2177.01   97.69
  -2   3   2 2096.82  104.06
  -2   3   2 2102.29  126.72
   1  -3   2 2210.76  118.36
  -1   3   2 2239.38   93.53
  -1  -2   2 2133.79  105.18
  -1  -2   2 2049.72  102.40
   2   1   2 2154.93  109.99
   1   2   2 2587.09  122.19
  -1  -2   2 2106.65  112.74
   3  -2   2 2059.26  102.52
   1   2   2 2011.38  101.24
   3  -1   3  997.70   76.89
   1  -3   3 1089.66   78.50
  -1  -2   3 1019.59   75.33
   2  -3   3 1111.56   77.33
   1  -3   3 1015.88   65.91
   3  -1   3 1169.18   65.61
   3  -2   3 1077.39   77.39
   2   1   3 1096.77   65.91
  -2  -1   3 1032.21   84.35
  -1  -2   3 1044.01   71.68
  -2  -1   3 1201.05   66.02
   2  -3   3  958.24   75.20
  -1  -2   3 1120.57   82.32
   1   2   3 1117.09   68.79
  -3   2   3  994.81   79.52
  -2  -1   3 1163.32   64.85
  -3   2   3 1146.70   69.15
  -1  -2   3 1011.85   60.15
   3  -2   3 1002.71   70.52
  -2  -1   3  976.59   68.37
   1  -3   3  992.49   80.20
   2  -3   3 1032.66   79.93
   3  -1   3 1086.86   62.62
   1  -3   3 1141.57   80.65
   2  -3   3 1117.45   58.33
   1  -3   3 1101.12   77.66
  -3   1   3 1117.72   65.21
  -2  -1   3 1046.43   57.65
  -1  -2   3  999.50   74.46
   2  -3   3 1095.74   72.60
  -2   3   3 1049.12   86.63
  -3   2   3 1059.85   78.26
  -3   1   3 1000.94   78.25
  -2   3   3 1185.15   71.50
  -2  -1   3 1045.31   73.99
   3  -2   3 1187.07   58.18
  -1   3   3 1054.97   63.97
   1   2   3  970.92   74.96
  -1   3   3  978.51   79.59
   1  -3   3  972.24   67.68
   2   1   3 1068.44   74.92
  -3   2   4  393.23   58.64
   2  -3   4  472.44   55.69
  -2   3   4  419.54   60.05
  -1  -2   4  545.78   58.26
   1  -3   4  426.45   55.68
  -2  -1   4  463.52   44.80
   1  -3   4  525.12   56.45
   2  -3   4  394.46   57.58
  -2  -1   4  445.53   46.50
   1   2   4  447.66   44.13
  -1  -2   4  562.47   55.99
   1  -3   4  601.73   60.10
   3  -2   4  487.29   52.04
  -1  -2   4  516.34   60.90
  -1   3   4  550.76   62.76
   2  -3   4  521.74   52.30
   2  -3   4  578.03   41.07
   3  -1   4  579.39   51.42
   3  -2   4  462.33   29.59
   1  -3   4  453.34   60.63
  -2   3   4  530.63   52.70
   2  -3   4  479.89   56.18
  -2  -1   4  468.34   30.53
  -2  -1   4  427.25   61.60
  -3   2   4  510.47   42.56
   1  -3   4  503.70   44.94
   3  -1   4  514.73   44.26
   3  -2   4  475.16   50.53
   1   2   4  521.39   45.52
   1  -3   4  477.19   54.11
   3  -2   4  496.17   56.06
   3  -2   4  477.51   32.14
  -3   1   4  540.77   44.58
  -3   1   4  493.28   36.90
   3  -1   4  508.95   57.70
  -3   2   4  497.60   57.20
  -3   1   4  457.59   56.90
  -2  -1   4  424.92   53.45
  -1   3   4  559.43   53.83
  -1  -2   4  534.91   59.46
   1   2   4  445.56   53.84
   2   1   4  468.49   37.66
   2   1   4  471.77   52.35
   3  -1   4  551.85   44.13
   2  -3   4  476.14   54.81
  -1  -2   4  437.06   34.69
  -1  -2   5  822.75   48.55
   3  -2   5  888.83   79.98
  -3   1   5  845.92   58.19
   2   1   5  771.51   44.05
  -2  -1   5  933.01   88.34
   2  -3   5  889.93   56.55
   1  -3   5  862.19   78.37
  -1  -2   5  906.84   73.15
   2  -3   5  830.92   77.89
  -1  -2   5  849.96   84.88
   3  -2   5  769.59   72.21
   1  -3   5  940.50   77.86
  -1   3   5  814.23   69.18
   1   2   5  877.96   67.89
   3  -2   5  763.42   39.95
   1  -3   5  806.53   58.69
  -3   1   5  866.97   47.11
   1   2   5  790.16   74.08
   3  -1   5  840.29   80.12
  -2  -1   5  662.30   43.50
   2  -3   5  758.51   79.03
   3  -2   5  824.09   70.93
   1  -3   5  916.59   81.64
   2  -3   5  887.83   69.50
   1  -3   5  847.46   75.99
  -3   2   5  928.58   94.42
  -2   3   5  807.76   81.38
  -3   2   5  881.89   56.63
   1   2   5  913.08   63.21
  -1   3   5  738.11   82.57
  -3   2   5  854.36   80.27
  -3   1   5  723.08   76.82
  -2  -1   5  880.11   79.38
  -1  -2   5  800.38   75.71
   2   1   5  714.83   68.75
  -2   3   5  879.76   74.80
   2  -3   5  881.66   78.52
  -2  -1   5  766.56   65.05
  -3   2   6  256.31   58.52
  -1  -2   6  208.68   53.72
  -1   3   6  311.74   51.41
   2  -3   6  263.06   55.02
  -1   3   6  360.12   72.32
   2   1   6  204.96   44.45
   1   2   6  215.67   46.55
   3  -1   6  199.59   55.24
  -2  -1   6  244.60   52.36
   2  -3   6  250.21   54.40
  -3   1   6  255.69   18.25
   2  -3   6  276.52   46.42
   3  -2   6  263.26   52.75
  -3   2   6  266.66   32.05
  -2  -1   6  265.56   59.99
  -3   1   6  354.50   37.01
  -2  -1   6  260.68   48.38
  -1  -2   6  235.96   33.22
  -1  -2   6  217.58   49.26
  -2  -1   6  161.06   27.19
  -2   3   6  194.11   51.97
  -3   1   6  236.62   19.73
   1  -3   6  213.64   59.40
   1   2   6  258.48   37.88
  -1  -2   6  313.26   58.66
  -2   3   6  303.83   58.95
   3  -2   6  250.38   54.99
   3  -2   6  180.19   15.74
   1  -3   6  316.28   52.79
   1  -3   6  153.97   50.46
   1   2   6  258.42   49.17
   1  -3   6  325.09   38.13
  -3   2   6  285.86   55.88
  -3   1   6  144.88   51.91
   2   1   6  298.01   51.71
  -3   1   7   21.59   41.74
  -1  -2   7   57.06   44.82
  -1   3   7   49.10   44.85
  -2   3   7   52.80   46.61
   1  -3   7   -4.55   49.50
   1   2   7    5.36   44.80
   2  -3   7   67.08   46.78
   1  -3   7   16.74   22.52
   3  -1   7   26.05   40.69
  -3   2   7   62.33   46.80
   3  -2   7   28.59   47.37
   3  -2   7   -1.14   46.78
   2  -3   7   42.33   32.82
  -1  -2   7   26.86   42.90
  -2  -1   7   44.34   44.07
  -2  -1   7   45.73   45.02
  -1  -2   7   54.60   44.89
   1  -3   7   12.02   36.59
   2   1   7  109.82   41.89
   1   2   7   19.14   41.09
  -3   1   7   72.43   42.34
   2  -3   7   59.16   46.01
  -1   3   7    6.76   49.42
  -3   2   7   18.28   39.43
   2   1   7   28.01   41.30
   1  -3   7   39.21   47.72
  -2   3   7   37.56   51.61
  -2  -1   7   19.56   53.72
  -3   2   8  138.96   58.03
  -2  -1   8   81.05   57.77
  -1   3   8  134.76   49.72
  -2   3   8   61.37   51.37
   1  -3   8   85.36   60.10
   1   2   8  133.58   60.00
  -1   3   8   91.92   51.11
   2  -3   8   86.11   69.33
   3  -2   8  181.62   61.83
   1   2   8   92.14   55.23
   2   1   8  159.14   44.79
   2   1   8   75.99   57.11
   3  -2   8  210.81   65.95
   3  -1   8   64.92   43.57
   3  -2   8  154.88   59.77
  -2   3   8  258.75   68.34
   2  -3   8  192.72   51.10
   2  -3   8  141.52   63.92
  -3   1   8  109.46   43.86
  -3   1   8  139.01   64.81
   1  -3   8  149.37   45.69
  -1  -2   8  121.36   49.64
  -2  -1   8   53.37   49.51
  -2  -1   8  113.64   48.62
   1  -3   8  175.29   61.94
  -1  -2   8   49.12   48.30
  -1  -2   8  135.99   56.14
  -3   2   8   29.83   47.90
   1  -3   9  348.26   93.91
  -3   1   9  236.66   79.60
  -2  -1   9  329.55   74.48
  -2   3   9  297.74   67.94
  -1   3   9  322.30   74.70
  -1   3   9  245.46   63.25
   1  -3   9  279.02   75.96
   1   2   9  253.35   66.61
   2  -3   9  298.28   84.23
   2   1   9  319.18   88.09
   3  -2   9  356.81   70.72
   3  -1   9  276.06   61.36
   1   2   9  248.19   77.33
   2  -3   9  300.37   56.94
  -2  -1   9  218.07   71.01
   3  -2   9  188.10   67.32
  -2  -1   9  328.79   66.79
   2   1   9  315.49   69.33
  -1  -2   9  231.09   63.55
  -1  -2   9  279.03   80.79
  -1  -2   9  245.98   60.42
   1  -3   9  325.07   62.64
   2  -3   9  342.80   85.09
  -3   2   9  323.59   86.51
   3  -2   9  312.37   82.58
  -2   3   9  225.44   71.14
  -3   1   9  322.68   66.87
  -3   2   9  296.45   66.14
  -2   3  10  165.09   60.56
  -2  -1  10   66.51   57.89
  -2   3  10  192.97   61.10
  -1   3  10  282.50   72.37
  -1   3  10  157.61   61.85
   1  -3  10   60.99   64.23
   2  -3  10  244.32   78.23
   1   2  10   60.81   60.21
   2   1  10   92.21   62.29
   3  -2  10   99.71   72.60
   3  -1  10  104.56   51.54
  -2  -1  10  233.75   66.99
   3  -2  10   55.15   51.04
  -3   1  10   32.84   78.18
  -1  -2  10  218.83   59.27
  -1  -2  10  110.17   70.60
  -1  -2  10  196.10   64.93
   3  -2  10  157.76   67.44
  -3   1  10  132.16   57.88
  -3   2  10  147.28   74.96
  -2  -1  10   88.76   52.41
   2  -3  10   90.86   79.88
  -3   2  10  120.71   44.08
   1   2  10  180.22   64.99
   1  -3  10  155.72   77.03
   2   1  10   55.28   53.10
  -3   2  10  231.29   65.03
  -2   3  11  -74.18   55.73
  -2   3  11    4.31   44.73
  -1   3  11  122.24   59.13
   1   2  11  -46.99   57.83
   1  -3  11   60.33   74.26
   1   2  11 -171.70   71.15
   2   1  11  -38.40   54.03
  -2  -1  11  -16.79   57.65
   3  -1  11  -23.70   44.91
   3  -2  11  178.10   79.82
   3  -2  11   83.53   55.76
  -3   1  11   41.12   43.53
  -1  -2  11  -12.95   57.55
  -1   3  11  270.09   75.84
  -3   2  11  -13.67   46.19
  -1  -2  11   20.32   56.18
  -2  -1  11   94.17   52.98
   3  -3 -10  203.52   97.79
   0  -3 -10  230.41   77.53
   0  -3 -10  337.85   70.65
  -3   0 -10  164.18   77.28
   3   0 -10  154.07   85.04
   0   3 -10  161.58   73.41
  -3   0 -10  299.45   71.32
  -3   3 -10  112.60   87.81
   3  -3  -9  286.24   93.25
   3   0  -9  186.34   78.19
  -3   0  -9  217.28   80.29
   3  -3  -9  184.28   64.44
   3   0  -9  230.10   96.56
   0   3  -9  130.68   73.37
   0  -3  -9  247.04   56.59
  -3   0  -9  220.43   58.34
   0  -3  -9  124.15   67.74
  -3   3  -9  353.10   68.82
  -3   3  -9  146.60   67.68
   0   3  -8  603.83   73.40
   0  -3  -8  876.96   90.25
   0  -3  -8  667.86  101.51
   3   0  -8  682.03   91.49
  -3   0  -8  496.87   92.10
  -3   0  -8  839.34   92.38
   3  -3  -8  821.23   86.54
  -3   3  -8  880.19   85.18
   3   0  -8  587.42  100.43
   0   3  -8  491.83   95.15
  -3   3  -8  718.45   96.77
   3  -3  -8  726.99  118.86
   3   0  -7 1555.80  116.68
   0  -3  -7 1598.20  118.19
   0   3  -7 1544.59  125.16
  -3   3  -7 1492.03  121.06
   3  -3  -7 1347.45  133.39
   0   3  -7 1300.11  130.60
  -3   0  -7 1285.45  128.83
   0   3  -7 1358.78  101.04
   3   0  -7 1392.44  125.84
   3  -3  -7 1444.02  105.10
  -3   0  -7 1477.04  120.61
  -3   3  -7 1598.38  126.55
   0  -3  -7 1241.99  124.20
   3   0  -6 1299.76  100.24
   3  -3  -6 1387.80  117.77
   3  -3  -6 1319.74   93.41
   0   3  -6 1253.18  103.72
  -3   3  -6 1331.84  105.73
  -3   3  -6 1223.60  104.50
  -3   0  -6 1114.53  113.76
   0  -3  -6 1301.19  120.43
   0  -3  -6 1254.26  104.47
   3   0  -6 1117.82  106.32
  -3   0  -6 1174.95  103.68
   0   3  -6 1254.82  120.46
   0   3  -6 1328.07   86.83
   3   0  -5 1387.81  109.01
   0   3  -5 1270.36   97.82
  -3   3  -5 1269.88   98.18
   0   3  -5 1437.28   82.57
  -3   3  -5 1451.30   81.99
  -3   0  -5 1392.83  115.88
   0  -3  -5 1177.67  115.74
   0   3  -5 1510.39   84.95
  -3   3  -5 1404.97  103.82
   0  -3  -5 1432.95   75.53
  -3   0  -5 1512.43  112.82
   0   3  -5 1236.07  104.50
   3  -3  -5 1326.68  111.03
   0  -3  -5 1492.06   84.36
   3   0  -5 1495.39   99.35
   0  -3  -5 1262.32  106.76
   3   0  -4 2531.56  102.98
   3  -3  -4 2542.27  138.44
   0   3  -4 2241.15  130.63
  -3   3  -4 2317.80  133.26
  -3   3  -4 2451.19  139.48
  -3   0  -4 2224.18  145.54
   3  -3  -4 2364.49  143.98
  -3   0  -4 2261.63   96.43
   0  -3  -4 2311.18  144.82
   0   3  -4 2511.52  126.28
   0  -3  -4 2396.04  103.10
   3   0  -4 2287.63  141.28
  -3   0  -4 2774.93  154.74
   0   3  -4 2197.24  136.44
   3   0  -4 2515.48  122.82
   0  -3  -4 2210.82  154.28
   0  -3  -4 2400.74  116.37
   0   3  -4 2552.49  104.82
   0   3  -4 2658.62  115.49
   3   0  -4 2605.90  135.54
   0  -3  -4 2228.90  114.17
   3  -3  -3 2552.11  139.23
   0   3  -3 2491.87  110.46
   3  -3  -3 2486.12  133.41
   0   3  -3 2263.75  126.35
  -3   3  -3 2222.50  126.20
  -3   0  -3 2369.87  105.60
   3  -3  -3 2376.73  115.54
   0  -3  -3 2392.92   96.27
   3   0  -3 2437.10  137.68
   0   3  -3 2282.90  126.56
  -3   0  -3 2571.15  147.38
   3   0  -3 2427.94  111.89
   0  -3  -3 2279.33  135.28
   0   3  -3 2517.57  107.12
   3   0  -3 2474.37  129.33
  -3   3  -3 2236.04  130.33
   0  -3  -3 2404.95  113.76
   0   3  -3 2300.61  118.19
   3   0  -3 2234.32  103.46
  -3   0  -3 2307.58  134.26
   0  -3  -3 2338.57  141.46
   0   3  -2 2262.27  116.33
  -3   3  -2 2017.70  113.33
   3  -3  -2 1976.80  103.44
   3  -3  -2 2085.05  119.47
  -3   0  -2 2102.29  101.87
   0   3  -2 2043.32   99.88
   3  -3  -2 2308.26  110.80
   0  -3  -2 2098.23  121.72
   0  -3  -2 2080.19  120.36
   0   3  -2 2105.99  109.28
   0  -3  -2 2243.76   87.87
  -3   0  -2 1992.63  130.20
   3  -3  -2 2150.88  122.91
  -3   3  -2 2199.45  110.53
   0  -3  -2 2096.08  105.91
  -3   3  -2 2007.06  118.08
   3   0  -2 2125.33   94.29
   3   0  -2 2039.53  122.17
   0  -3  -2 2002.31  119.04
   3   0  -2 2129.02   99.89
   0   3  -2 2018.25   97.06
   0   3  -2 2276.50  102.95
   0   3  -1 3401.90  147.98
  -3   3  -1 3626.66  155.43
   0   3  -1 3367.02  136.33
  -3   0  -1 3006.73  147.76
  -3   0  -1 3252.39  150.16
   0  -3  -1 3378.81  162.69
   0  -3  -1 3250.40  154.68
   3  -3  -1 3171.71  147.42
  -3   3  -1 3793.36  161.13
   0   3  -1 3171.99  143.78
  -3   3  -1 3499.12  150.33
  -3   3  -1 3364.57  141.69
  -3   0  -1 3216.39  129.49
   3   0  -1 3293.38  145.06
   3  -3  -1 3383.22  147.55
  -3   0  -1 3131.24  174.02
   3  -3  -1 3380.61  161.33
   0   3  -1 3278.05  153.82
   3  -3  -1 3377.14  162.05
   0  -3  -1 3245.59  162.32
  -3   3   0 6226.05  243.19
   0   3   0 5973.52  232.55
   0   3   0 6306.24  246.53
   3   0   0 5901.59  245.13
   3  -3   0 5936.16  241.49
   0   3   0 6901.77  253.24
  -3   0   0 5741.19  252.08
   3   0   0 5593.20  215.42
  -3   3   0 6798.56  248.97
   3   0   0 6449.95  238.79
   0  -3   0 6076.89  259.33
  -3   3   0 7264.53  253.17
   0  -3   0 6052.22  256.93
  -3   0   0 6389.81  239.21
   3   0   0 5913.50  259.16
  -3   0   0 5894.54  274.05
  -3   3   0 6089.61  243.89
   3  -3   0 6146.09  253.68
   3  -3   0 6396.33  258.71
   3  -3   0 6346.46  260.05
   0   3   0 6070.06  252.79
   0  -3   0 5829.72  253.63
  -3   3   1 3339.12  148.14
   0  -3   1 3217.14  159.33
   0   3   1 3393.83  165.68
  -3   0   1 3131.86  162.70
   3   0   1 3001.04  160.05
  -3   3   1 3529.01  152.64
   0   3   1 3666.38  151.71
   3   0   1 3186.17  153.90
   0  -3   1 3150.51  160.56
   0  -3   1 3145.58  153.38
   0   3   1 3201.81  130.63
   3   0   1 3336.86  129.25
   0  -3   1 2628.68  151.71
   3   0   1 3649.78  149.85
   0  -3   1 3261.11  163.09
   0   3   1 3072.04  157.22
  -3   3   1 3569.41  150.12
   3  -3   1 3347.63  154.80
   3  -3   1 3409.47  147.48
   3  -3   1 3488.42  151.55
   3  -3   1 3254.93  159.88
  -3   3   1 3073.56  153.46
   3  -3   1 3305.14  146.45
   3  -3   1 3399.39  161.66
  -3   0   1 3620.80  137.54
  -3   0   2 2167.18   93.93
   3  -3   2 2233.62  109.71
   0  -3   2 2233.78  121.55
  -3   3   2 1903.98  117.61
  -3   0   2 1888.34   84.16
   3   0   2 2101.84   86.19
   3  -3   2 2197.38   92.86
  -3   0   2 1949.05  125.82
   0  -3   2 2267.82  118.98
   3  -3   2 2091.30  110.65
  -3   0   2 2054.81   89.31
   0  -3   2 2063.36  120.23
   3   0   2 1972.44  119.33
   3   0   2 2151.37  117.40
  -3   3   2 2212.76  105.60
   3  -3   2 2095.36  117.91
   0  -3   2 2361.90  125.43
   3   0   2 2087.08   88.60
   3  -3   2 2231.97  119.84
   0   3   2 1998.90  117.04
   0  -3   2 2035.99   96.45
  -3   0   3 2223.27  129.23
   3  -3   3 2632.33  125.22
   0  -3   3 2345.99  132.02
  -3   0   3 2316.57  105.81
   3   0   3 2512.97  108.02
  -3   0   3 2335.64  146.97
   0  -3   3 2409.45  136.11
   0  -3   3 2203.67  126.81
  -3   0   3 2470.85   99.96
   3  -3   3 2384.13  126.54
  -3   0   3 2272.69   98.02
   0  -3   3 2288.45  116.30
  -3   3   3 2516.70  116.24
  -3   0   3 2291.89  113.42
   3  -3   3 2692.70  135.40
   3   0   3 2515.53   91.88
  -3   3   3 2283.45  141.63
   3  -3   3 2384.57  130.62
  -3   3   3 2403.79  128.14
   0   3   3 2095.91  128.75
   0   3   3 2003.59   95.41
   3  -3   4 2512.02  138.06
   3  -3   4 2548.69  132.80
   0  -3   4 2298.01  137.46
   3   0   4 2403.46  119.66
  -3   0   4 2581.67  154.05
   0  -3   4 2461.32  137.90
   3  -3   4 2427.47  135.20
  -3   0   4 2561.46  112.04
  -3   0   4 2378.06  137.65
  -3   0   4 2420.23  108.08
  -3   3   4 2683.39  124.40
  -3   0   4 2498.42  105.59
   3  -3   4 2447.29  138.07
  -3   0   4 2274.64  119.63
   0  -3   4 2485.40  142.93
  -3   3   4 2424.41  135.09
  -3   3   4 2497.46  152.64
   0   3   4 2034.83  134.97
   0  -3   4 2261.82  129.12
   0   3   4 2119.30  108.97
   3   0   4 2432.86  127.80
   0  -3   5 1422.86   69.68
   0  -3   5 1291.40  104.25
  -3   0   5 1177.85   57.54
  -3   0   5 1407.68  109.85
   0  -3   5 1403.42  102.60
   3  -3   5 1311.48   99.61
  -3   0   5 1380.22   82.39
   0   3   5 1274.09   82.97
   0  -3   5 1387.42  107.13
   3  -3   5 1200.25   97.45
  -3   0   5 1373.64   74.52
  -3   0   5 1431.86   58.90
   3  -3   5 1409.15  101.62
  -3   3   5 1239.87  108.01
   0   3   5 1388.55  105.48
  -3   3   5 1245.65   96.36
  -3   0   5 1412.56  104.03
   0  -3   5 1331.93  102.57
   3   0   5 1279.13   87.36
   0  -3   6 1183.42  104.28
   0   3   6 1434.07  101.16
   3  -3   6 1318.90  104.98
  -3   0   6 1404.30  110.97
   0  -3   6 1288.95  103.41
   3  -3   6 1325.94  107.39
  -3   0   6 1217.17   85.80
   0  -3   6 1233.02  108.74
   3  -3   6 1278.55  104.89
  -3   3   6 1124.23  102.54
   0   3   6 1342.28  108.91
  -3   3   6 1161.25  100.37
  -3   0   6 1308.30  110.88
   3   0   6 1197.14   87.09
   0  -3   6 1097.81  101.51
   0  -3   7 1313.50  122.53
   3   0   7 1442.31   99.90
   0  -3   7 1418.13  118.68
  -3   0   7 1481.02  119.43
   0  -3   7 1526.84  121.34
   3  -3   7 1460.72  126.56
  -3   0   7 1309.09  103.48
  -3   0   7 1256.25  117.50
   3  -3   7 1509.49  122.55
   0   3   7 1398.49  122.24
  -3   3   7 1351.89  120.68
  -3   3   7 1485.48  120.34
   0  -3   7 1485.74  119.64
   0   3   7 1434.89  109.13
  -3   3   8  644.29   93.80
  -3   0   8  678.84  100.25
  -3   3   8  667.70   91.80
   0  -3   8  666.27   91.55
  -3   0   8  883.26   93.38
   0  -3   8  814.05  100.47
   3  -3   8  625.50   98.76
   0  -3   8  799.76   90.61
  -3   0   8  721.38   90.34
   0   3   8  695.68  102.58
   3  -3   8  816.10   98.53
   3   0   8  646.58   73.29
   0   3   8  708.73   81.60
  -3   3   9  293.62   68.51
  -3   3   9  170.46   71.33
  -3   0   9  150.75   76.67
   0  -3   9  213.70   66.02
   0   3   9  353.75   71.20
  -3   0   9  217.67   59.67
   3  -3   9  324.66   68.18
   0  -3   9  332.56   84.27
   3  -3   9  282.24   83.88
   0  -3   9  324.93   70.72
   0   3   9  177.39   72.23
   3   0   9  215.17   63.15
  -3   0   9  244.48   69.11
  -3   3  10  161.99   71.14
  -3   3  10  175.93   69.95
  -3   0  10  210.16   71.32
   0  -3  10  166.82   73.94
   0   3  10  109.69   59.00
   0  -3  10  242.96   89.83
  -3   0  10  245.17   64.65
   3  -3  10  233.40   90.30
   3   0  10  341.60   69.37
   0   3  10  245.46   82.98
  -3   0  10  242.35   62.86
   3  -3  10  241.35   65.36
   0   3  11  266.39   86.57
  -3   0  11  185.47   64.81
   3   0  11  205.28   72.24
   2   2 -10  270.08  105.72
  -2   4 -10  232.99   90.26
  -2  -2 -10  177.95   75.61
   4  -2 -10   35.65   77.49
  -2   4 -10  358.26   85.15
  -4   2 -10  247.05   75.21
   4  -2 -10  346.64  103.30
   2  -4 -10  147.05   89.27
  -4   2 -10  224.10  103.23
   2  -4  -9  371.06   66.12
  -2  -2  -9  354.77   76.88
  -4   2  -9  246.82   88.71
  -2   4  -9  326.22   78.64
  -4   2  -9  506.32   84.82
   2  -4  -9  353.87   86.96
   2   2  -9  274.90  100.10
   4  -2  -9  201.99   84.11
   4  -2  -9  294.85   87.40
   2  -4  -8  978.26   95.82
   4  -2  -8  916.71  109.17
  -2   4  -8  871.60  105.16
   4  -2  -8  782.34  105.23
   2  -4  -8  899.14  118.66
  -2   4  -8 1055.44  107.22
  -4   2  -8  961.05  119.66
  -2  -2  -8  987.75  102.98
   2   2  -8  726.53  113.22
  -4   2  -8 1054.73  111.26
  -2   4  -7 1531.46  130.18
   2  -4  -7 1507.29  136.34
   2  -4  -7 1339.10  114.34
   4  -2  -7 1421.66  125.40
   2   2  -7 1130.96  124.57
  -4   2  -7 1408.82  130.58
  -4   2  -7 1667.42  131.77
  -2   4  -7 1511.28  116.79
  -2  -2  -7 1401.39  123.18
   4  -2  -7 1698.68  131.61
   4  -2  -6 1034.39  103.91
  -2  -2  -6 1137.88  105.01
   2   2  -6 1078.96   75.28
  -2   4  -6  958.07   97.35
   2  -4  -6  894.53  109.44
  -2   4  -6 1032.17   90.43
   4  -2  -6 1086.87   99.71
  -4   2  -6  866.11   98.22
   2   2  -6  894.99  100.43
   2  -4  -6 1113.29  102.88
  -4   2  -6 1040.10  100.85
   4  -2  -5  656.91   62.70
   2  -4  -5  602.08   86.05
  -4   2  -5  732.92   78.02
  -2   4  -5  617.44   73.94
  -4   2  -5  564.12   30.42
  -2   4  -5  622.72   67.68
   2   2  -5  486.20   74.60
   4  -2  -5  585.15   73.18
  -2  -2  -5  719.93   81.17
  -4   2  -5  679.87   77.07
   4  -2  -5  626.23   75.80
   2   2  -5  527.29   49.62
   2  -4  -5  612.13   75.53
   4  -2  -4 1060.39   78.53
   2   2  -4 1035.47   76.77
  -4   2  -4  974.78   76.23
  -2   4  -4 1226.72   93.80
   2  -4  -4  962.40  102.65
   2  -4  -4 1041.49   89.23
  -4   2  -4 1087.39   89.86
   4  -2  -4 1122.51   92.77
  -2   4  -4 1074.16   83.10
  -2  -2  -4  948.60   94.17
   4  -2  -4 1135.51   90.94
   2   2  -4  949.86   89.15
   2   2  -4 1022.40   65.31
  -4   2  -4 1037.67   70.48
   2  -4  -4 1071.69   86.45
  -2   4  -4  926.24   48.77
   2   2  -4 1113.66   69.20
   2   2  -3 1277.79   78.41
   2  -4  -3 1472.50  116.97
   2  -4  -3 1596.67  103.64
  -2   4  -3 1508.54   93.24
  -2  -2  -3 1515.62   85.72
   2   2  -3 1363.34   99.20
  -2   4  -3 1325.45   96.99
   2   2  -3 1503.47   84.99
  -4   2  -3 1495.75   71.52
   2  -4  -3 1618.95  100.39
   2   2  -3 1325.24   75.13
   4  -2  -3 1523.99  100.86
   2  -4  -3 1599.50  103.57
  -2  -2  -3 1625.58   94.23
  -4   2  -3 1397.23   97.19
  -2  -2  -3 1502.54  113.91
   4  -2  -3 1677.43  109.63
  -2   4  -3 1347.71   67.82
  -2  -2  -3 1761.73   84.18
   4  -2  -3 1478.88   90.64
   2   2  -2 1405.02   74.66
   2  -4  -2 1477.91  104.73
   2   2  -2 1570.16   82.03
  -4   2  -2 1579.73   84.05
   2  -4  -2 1410.32  108.12
   2  -4  -2 1500.68  101.72
  -2   4  -2 1390.58   85.04
  -2   4  -2 1570.80   98.61
  -2  -2  -2 1560.73   93.91
  -2  -2  -2 1400.18  107.51
   4  -2  -2 1533.42  102.62
   2   2  -2 1577.97  102.41
   2  -4  -2 1473.18   98.39
  -4   2  -2 1509.67   67.00
   4  -2  -2 1448.15   65.90
  -2  -2  -2 1433.57   92.64
   4  -2  -2 1456.06   94.90
  -2   4  -2 1727.38   91.79
  -4   2  -2 1448.28   98.24
  -2  -2  -2 1613.68   82.21
   2  -4  -2 1585.63  104.06
   4  -2  -2 1637.15  107.25
   2  -4  -1 3749.30  175.15
  -2  -2  -1 3742.78  165.58
   2   2  -1 3758.89  167.12
   4  -2  -1 3975.99  176.20
   2  -4  -1 3823.19  172.72
   2   2  -1 4409.81  146.03
  -4   2  -1 4015.89  145.85
   2   2  -1 4134.84  157.28
  -4   2  -1 3980.48  169.92
  -2   4  -1 4002.02  167.72
   4  -2  -1 4144.21  181.13
  -2   4  -1 3871.53  167.68
  -2  -2  -1 3864.18  160.26
   2  -4  -1 4211.55  177.70
   2  -4  -1 4181.20  175.16
  -2  -2  -1 4021.76  145.32
   2  -4  -1 4091.17  173.84
   4  -2  -1 4097.78  169.40
  -2   4  -1 4489.65  154.13
  -2  -2  -1 3721.49  175.40
   2  -4   0 8840.03  358.20
   2  -4   0 8892.44  347.56
   2  -4   0 9329.77  357.31
  -2   4   0 8151.88  318.78
   2   2   0 8712.24  337.33
  -2  -2   0 8214.22  351.62
   2  -4   0 8818.03  356.43
   4  -2   0 9250.15  354.90
  -4   2   0 8658.09  348.26
   2  -4   0 8581.57  355.09
   2   2   0 8564.72  346.14
   2   2   0 8485.87  330.54
  -2   4   0 9140.82  337.68
   2   2   0 8057.85  318.15
   4  -2   0 8801.58  358.58
  -2  -2   0 9184.92  346.86
  -2  -2   0 8699.12  326.71
  -2   4   0 8190.14  350.60
  -2   4   0 9465.60  331.58
  -2  -2   0 8325.99  351.13
   2  -4   1 4052.45  189.27
   2  -4   1 3860.30  191.46
   4  -2   1 3999.69  155.26
  -2  -2   1 3768.60  190.82
   2   2   1 4007.33  169.76
   2  -4   1 3866.41  174.03
   4  -2   1 3886.77  192.84
   2   2   1 3857.57  179.49
  -4   2   1 3789.05  179.97
  -2  -2   1 3773.53  179.64
   2   2   1 3782.78  157.82
   4  -2   1 4153.92  181.46
  -2  -2   1 3813.13  180.92
   2  -4   1 3930.59  189.55
   4  -2   1 3914.76  187.38
  -2   4   1 3899.86  192.94
  -2  -2   1 4280.16  169.53
   2  -4   2 1569.97   99.25
   4  -2   2 1553.75   67.94
  -2  -2   2 1602.59   95.02
   2  -4   2 1460.76  100.50
   2  -4   2 1696.92   84.93
  -2  -2   2 1480.87   89.24
   2  -4   2 1567.88  102.83
   4  -2   2 1544.80   80.03
  -4   2   2 1527.46   64.98
  -2  -2   2 1594.16  108.42
  -4   2   2 1372.32   92.22
  -2  -2   2 1639.39   90.15
   2  -4   2 1448.60  101.52
   2  -4   2 1568.78  107.32
   4  -2   2 1613.46   90.75
   4  -2   2 1523.98  101.60
   4  -2   2 1547.37   92.01
  -2   4   2 1407.73  106.65
  -2   4   2 1554.94   82.10
   2   2   2 1429.14   92.43
   2   2   2 1321.61   97.89
   4  -2   3 1631.10   79.93
  -2  -2   3 1364.96   95.64
   2  -4   3 1551.15  106.11
   2  -4   3 1536.97   67.76
  -2  -2   3 1474.66   90.82
   2  -4   3 1508.85  107.06
  -2  -2   3 1334.63  107.37
   4  -2   3 1468.34   88.80
   4  -2   3 1611.24  109.25
   4  -2   3 1539.54   92.92
   2  -4   3 1385.07   96.50
  -2   4   3 1628.11  121.51
   2  -4   3 1446.94  108.13
  -2   4   3 1653.17   88.43
  -2  -2   3 1466.86   94.21
   2   2   3 1496.97  104.89
  -2  -2   4  966.94   82.55
   2  -4   4 1142.85   91.75
  -2  -2   4 1061.07   64.43
  -2  -2   4 1089.43   78.13
   2  -4   4 1137.43   92.39
  -2  -2   4  994.50   94.91
   4  -2   4 1110.87   77.87
   2  -4   4  954.78   93.65
   4  -2   4 1081.32   76.39
   4  -2   4  986.88   88.93
  -2   4   4 1219.96  112.87
  -4   2   4 1078.76   90.90
  -2   4   4 1135.50   76.92
  -2  -2   4 1002.86   84.11
   2   2   4  993.43   85.83
   2  -4   4 1132.52   82.31
   2  -4   5  552.91   69.83
  -2  -2   5  712.93   72.56
  -2  -2   5  600.58   61.83
  -2  -2   5  758.85   92.05
   4  -2   5  563.37   62.72
  -2  -2   5  551.15   38.94
   2  -4   5  515.50   78.02
   4  -2   5  664.58   63.70
   2  -4   5  519.76   71.35
  -2   4   5  651.17   86.80
  -4   2   5  710.87   82.87
  -2   4   5  645.11   68.58
  -2  -2   5  688.77   80.33
   2   2   5  643.76   70.86
   4  -2   5  576.01   45.35
   4  -2   5  602.47   74.11
   2  -4   5  796.64   66.82
  -2  -2   6 1009.03   97.01
   2  -4   6 1032.00   99.76
  -2   4   6  958.93  105.11
  -2  -2   6  906.76   83.40
   2  -4   6 1021.80   98.86
  -2  -2   6  916.15  102.74
   4  -2   6  858.67   83.83
   4  -2   6 1017.46  100.39
  -4   2   6  983.58  100.44
   4  -2   6  869.87   57.08
   2   2   6 1026.29   94.35
  -2   4   6 1072.52   97.05
  -2  -2   6  970.04  100.99
   2  -4   6  946.89   77.60
   2  -4   6 1076.67   96.37
  -2  -2   7 1411.43  123.46
   2  -4   7 1522.82  132.34
  -2  -2   7 1522.71  113.02
   2  -4   7 1502.26  129.18
  -2  -2   7 1583.89  132.79
   4  -2   7 1382.97  123.47
   4  -2   7 1478.60  132.22
  -2   4   7 1541.12  135.43
   2   2   7 1297.46  113.85
  -4   2   7 1705.54  135.95
   2  -4   7 1373.35  103.07
  -2   4   7 1508.20  116.54
  -2  -2   7 1556.08  130.51
   2  -4   7 1388.14  127.98
  -2  -2   8  736.58  103.82
   2  -4   8  630.13  104.12
   2  -4   8  959.92  107.45
   4  -2   8  756.45   99.30
  -2  -2   8  966.62   99.17
   2  -4   8 1049.62  115.75
  -2  -2   8  789.43   98.40
   4  -2   8  810.58  103.03
  -2   4   8  818.79  107.68
   2   2   8  922.45  100.13
  -4   2   8  941.86  107.26
  -2   4   8  853.70   94.77
   2  -4   9  305.03   84.52
  -4   2   9  373.95   85.98
  -2  -2   9  342.16   83.60
  -2   4   9  408.89   74.66
  -2   4   9  278.44   73.77
   2  -4   9  363.97   88.73
   2   2   9  336.89   76.17
   2  -4   9  383.82   95.92
   4  -2   9  422.57   78.97
  -2  -2   9  392.98   80.72
   4  -2   9  319.92   82.66
  -2  -2   9  439.94   83.41
  -4   2   9  308.65   66.78
  -4   2  10  285.28   91.31
  -2  -2  10  213.40   74.27
  -2   4  10   30.79   51.00
  -2   4  10  219.37   71.98
   2  -4  10  339.59   89.98
   2   2  10  272.21   83.06
   2  -4  10  247.01   87.25
   4  -2  10  234.15   73.43
  -4   2  10  274.26   65.11
   2  -4  10  177.71   87.62
  -2  -2  10  340.00   88.88
   4  -2  10  289.34   82.07
  -2  -2  10  237.49   77.34
  -1  -3 -10   65.38   56.17
  -3   4 -10  -11.52   66.33
  -4   1 -10  162.14   77.30
   4  -1 -10   -2.69   91.79
   4  -1 -10   45.11   83.84
  -3  -1 -10  104.03   62.11
   4  -3 -10   19.09   83.68
   3  -4  -9  190.58   96.32
  -3  -1  -9  221.12   81.12
  -4   1  -9  203.85   87.19
  -3   4  -9  132.60   76.72
   4  -1  -9  331.00   93.54
   4  -3  -9  349.07   82.11
   4  -1  -9  152.38   85.50
  -4   3  -9  140.32   79.55
   3   1  -9  153.06   94.29
   1   3  -9   43.43   72.89
  -1   4  -9  202.26   75.86
  -1  -3  -9  245.46   69.21
   1  -4  -9  289.50   64.76
  -3  -1  -9  192.66   68.18
   4  -3  -9  187.33   82.20
  -4   1  -9  254.22   76.27
  -4   3  -9  305.07   78.32
   1  -4  -9  201.11   85.03
   3  -4  -8  110.65   71.74
  -4   1  -8   79.71   58.46
  -3  -1  -8   18.14   47.91
  -1   4  -8   59.05   68.87
   1  -4  -8  103.04   71.09
   4  -1  -8   93.56   55.84
  -3   4  -8  119.88   69.84
  -3   4  -8   37.85   53.02
   4  -3  -8  124.18   65.87
  -1   4  -8   45.75   59.37
   3   1  -8   38.89   66.79
   1  -4  -8  106.10   51.27
   1   3  -8   76.55   69.72
   4  -1  -8   24.31   59.03
  -3  -1  -8   11.72   60.67
  -4   3  -8  139.68   71.28
  -1  -3  -8   60.37   55.00
   4  -3  -8  112.45   58.63
  -4   1  -8   54.41   63.51
  -4   3  -8   54.86   58.40
  -1   4  -8    5.29   46.10
   4  -1  -7   34.39   52.52
   4  -1  -7   -2.93   50.85
  -4   3  -7   50.32   55.11
  -1   4  -7   35.55   52.47
  -3   4  -7   11.19   45.12
   3   1  -7   44.44   42.60
   1  -4  -7    1.42   52.75
   4  -3  -7   76.98   49.63
  -3  -1  -7  -12.94   50.36
  -4   1  -7  -56.86   64.29
  -1   4  -7   15.47   38.28
  -1   4  -7  -41.81   58.83
  -3   4  -7   39.50   55.27
   3   1  -7   45.94   55.14
   1  -4  -7  101.93   50.02
   1   3  -7    7.43   53.03
  -1  -3  -7    0.67   55.91
   4  -3  -7   82.25   57.71
   1  -4  -7   -6.55   41.45
  -3  -1  -7   66.13   51.08
  -4   3  -7   53.42   52.92
   3  -4  -7  -39.97   65.95
  -4   1  -7    8.60   53.65
   1  -4  -6   95.21   60.54
   4  -1  -6  268.79   55.20
   3   1  -6  273.38   53.59
   1   3  -6  162.06   47.91
  -4   3  -6  176.37   52.52
   4  -3  -6  239.93   67.80
  -1   4  -6  156.91   51.86
  -3   4  -6  159.44   52.15
  -3  -1  -6  192.75   63.01
  -4   1  -6  205.47   62.59
  -4   1  -6  241.04   65.45
   4  -1  -6  176.84   62.27
  -3   4  -6  161.33   49.62
  -4   3  -6  173.38   55.31
  -1   4  -6  206.92   47.13
   4  -3  -6  195.97   47.97
   3  -4  -6  172.50   34.45
   3   1  -6  151.72   59.53
   1  -4  -6  215.74   63.27
   1   3  -6  208.54   61.10
   3  -4  -6  155.79   65.74
   1  -4  -6  226.90   49.98
  -1  -3  -6  176.54   60.18
  -3  -1  -6  252.14   61.74
  -1   4  -6   85.87   58.91
   4  -3  -5  683.13   82.80
   4  -1  -5  661.11   54.22
   4  -3  -5  717.68   75.31
   4  -3  -5  463.84   64.61
   1   3  -5  662.81   68.72
  -4   3  -5  551.27   66.82
  -3   4  -5  591.57   73.73
  -1   4  -5  492.01   68.84
  -4   3  -5  649.89   74.54
  -3  -1  -5  506.82   79.26
  -3   4  -5  602.60   74.34
  -4   1  -5  457.15   71.84
  -4   1  -5  684.47   86.90
   4  -1  -5  692.58   81.11
  -3  -1  -5  618.16   81.83
   3  -4  -5  588.49   45.31
  -1  -3  -5  558.51   82.23
   3  -4  -5  582.39   82.90
   3   1  -5  589.56   81.51
   1   3  -5  573.61   75.00
   1  -4  -5  430.97   70.87
  -1   4  -5  498.80   79.22
  -1   4  -5  612.65   62.28
   1  -4  -5  627.77   65.70
   1  -4  -5  433.06   76.32
   3   1  -5  628.49   64.45
   4  -1  -5  706.51   80.10
  -1   4  -5  597.77   49.84
   4  -1  -4  389.22   43.12
   4  -3  -4  346.11   63.47
   1   3  -4  272.08   19.07
   3  -4  -4  426.05   64.51
   4  -3  -4  417.48   53.96
  -1   4  -4  272.07   36.35
  -4   1  -4  223.11   50.22
   3  -4  -4  365.01   65.28
   1   3  -4  310.71   49.22
  -4   3  -4  342.32   52.16
  -1   4  -4  348.20   56.32
  -3   4  -4  339.63   54.42
   1   3  -4  327.40   26.52
   1   3  -4  339.00   59.71
   1   3  -4  294.56   21.36
  -4   1  -4  392.31   29.34
  -3  -1  -4  329.26   61.40
  -3  -1  -4  330.15   34.09
  -4   3  -4  433.23   60.41
  -3   4  -4  364.57   58.01
   3  -4  -4  344.18   31.49
  -1   4  -4  333.08   48.00
   4  -3  -4  369.96   54.93
   1  -4  -4  421.42   65.28
  -1   4  -4  287.90   56.22
  -1  -3  -4  407.98   42.92
  -1  -3  -4  384.74   67.64
   1  -4  -4  348.32   67.68
  -3  -1  -4  408.04   65.81
   3   1  -4  379.04   51.94
   1  -4  -4  351.17   50.72
  -4   1  -4  389.51   66.04
   4  -1  -4  410.17   61.45
   3   1  -4  333.26   62.68
   4  -1  -4  333.07   60.79
  -1  -3  -4  383.91   42.57
   3   1  -3  728.05   65.79
   1   3  -3  789.91   36.17
   3  -4  -3  576.17   68.90
   3  -4  -3  784.62   78.17
   1  -4  -3  613.73   84.47
  -4   1  -3  620.36   75.76
   1   3  -3  760.39   64.44
  -4   3  -3  647.71   61.24
  -1   4  -3  576.09   64.26
  -3   4  -3  617.23   66.39
  -3   4  -3  718.09   72.47
   1  -4  -3  622.92   69.83
  -4   1  -3  689.93   48.42
   4  -3  -3  715.86   68.75
  -1  -3  -3  625.49   68.59
  -3  -1  -3  592.82   73.73
   1   3  -3  626.57   41.94
  -1   4  -3  594.06   56.67
  -1   4  -3  627.35   60.03
  -1  -3  -3  726.20   54.77
  -1  -3  -3  594.58   74.29
   4  -3  -3  699.28   65.04
   3   1  -3  733.58   77.63
  -3  -1  -3  619.12   79.06
   1   3  -3  523.32   64.75
   4  -1  -3  648.16   72.78
   1   3  -3  563.58   38.26
  -3  -1  -3  646.66   53.18
  -4   1  -3  708.93   70.46
   1  -4  -3  635.32   62.37
   4  -1  -3  646.66   43.91
  -4   3  -3  704.61   54.91
   1   3  -3  694.73   41.70
   1  -4  -3  673.53   74.93
   4  -1  -3  664.19   73.08
   3  -4  -3  617.83   64.92
   3   1  -3  622.79   38.85
  -1  -3  -3  574.02   39.01
  -1   4  -3  646.66   58.90
   4  -3  -3  659.58   73.02
  -1   4  -3  614.10   53.51
   4  -1  -3  691.11   56.51
  -4   3  -3  710.67   73.65
   1   3  -2 1288.98   77.56
  -3   4  -2 1288.32   96.82
   3  -4  -2 1544.72  107.33
   3  -4  -2 1454.93  104.50
   1   3  -2 1377.70   88.04
  -4   3  -2 1552.57   92.66
  -4   1  -2 1407.10   83.95
   4  -1  -2 1335.29  103.65
  -3  -1  -2 1372.07   86.08
   4  -3  -2 1432.52   77.87
  -4   1  -2 1192.46   89.54
  -1  -3  -2 1355.85  102.81
   1   3  -2 1347.42   65.27
  -1   4  -2 1407.69   88.06
   1  -4  -2 1388.09  102.05
  -3  -1  -2 1219.70  110.20
  -4   3  -2 1472.32  101.46
   4  -3  -2 1359.74   93.18
   3   1  -2 1486.03  105.14
   1   3  -2 1487.76   94.88
  -1  -3  -2 1607.08   84.32
  -1   4  -2 1186.97   81.37
  -4   1  -2 1438.89  108.01
   1  -4  -2 1518.55   96.36
   3  -4  -2 1434.52  102.39
   4  -1  -2 1667.56  107.80
   1  -4  -2 1622.62  111.54
   3   1  -2 1437.43   74.40
  -4   3  -2 1503.93   80.39
   3   1  -2 1365.51   81.78
   3  -4  -2 1612.63   99.63
  -1  -3  -2 1377.27   97.46
   1  -4  -2 1466.63  104.83
  -3   4  -2 1434.62   72.29
   4  -3  -2 1420.33  104.69
   4  -1  -2 1460.07   88.36
  -1   4  -2 1263.87   80.97
  -1   4  -2 1382.79   84.67
   4  -3  -2 1355.13   96.20
   1   3  -2 1307.49   75.76
  -4   1  -1  466.34   53.59
   3  -4  -1  641.63   63.80
   3  -4  -1  514.48   61.54
   1   3  -1  611.91   49.64
  -1  -3  -1  572.54   61.40
   1  -4  -1  604.60   61.50
  -4   1  -1  595.36   68.37
   1   3  -1  567.29   44.92
  -4   1  -1  551.00   55.52
  -1  -3  -1  563.65   62.60
   3   1  -1  582.59   40.70
  -3  -1  -1  564.10   54.87
   1   3  -1  600.98   51.93
   3  -4  -1  594.45   65.12
  -4   3  -1  541.60   60.60
  -3  -1  -1  568.97   54.50
  -3   4  -1  520.08   60.08
  -3   4  -1  589.04   51.61
   4  -1  -1  551.81   65.49
   3   1  -1  567.58   63.17
   1   3  -1  609.55   55.76
  -3  -1  -1  535.64   69.59
  -1   4  -1  545.07   45.36
  -1  -3  -1  565.11   50.45
   1  -4  -1  506.36   60.17
   3   1  -1  520.97   45.93
   4  -3  -1  649.67   43.75
  -1   4  -1  542.82   38.34
   3  -4  -1  558.72   58.47
  -1  -3  -1  595.01   63.44
   1  -4  -1  516.92   63.92
   4  -3  -1  524.50   64.29
  -3   4  -1  621.35   49.44
   4  -1  -1  609.09   57.49
  -3  -1  -1  578.02   47.74
  -1   4  -1  556.05   43.71
  -1   4  -1  584.13   55.77
   1  -4  -1  590.47   60.48
   4  -3  -1  683.06   66.08
   4  -3  -1  492.10   56.66
   3  -4   0  196.78   37.06
  -3   4   0  161.66   34.64
   3   1   0  141.85   32.25
   3   1   0  123.86   23.88
  -3   4   0  180.53   31.59
  -1   4   0  148.39   36.97
  -3  -1   0  161.02   40.65
   1  -4   0  129.98   32.55
   1   3   0  145.03   38.23
  -4   3   0  155.86   37.96
   4  -1   0  126.07   37.69
   3  -4   0  139.54   37.57
   3   1   0  148.88   23.74
   4  -3   0  192.08   27.17
  -4   3   0  165.98   29.73
   4  -3   0  145.15   40.70
  -3  -1   0  150.22   25.08
   1   3   0  175.58   33.19
  -4   1   0  176.52   43.04
   1   3   0  157.87   37.45
   3  -4   0  153.24   37.74
  -3  -1   0  157.97   38.32
   4  -3   0  152.86   38.05
   4  -1   0  169.51   44.09
   3   1   0  129.76   38.28
   1   3   0  167.53   31.86
  -3   4   0  136.08   38.60
   1  -4   0  127.97   39.07
   4  -3   0  143.56   39.45
  -1   4   0  114.22   20.51
   1  -4   0  153.75   39.61
  -1  -3   0  108.28   32.51
  -1  -3   0  123.57   36.67
  -1  -3   0  117.56   35.24
   3  -4   0  119.65   38.68
   4  -3   0  165.82   40.49
  -4   1   0  131.97   43.77
  -3  -1   0  162.50   30.53
  -1  -3   0  102.56   37.23
   1  -4   0  162.13   46.21
  -1   4   0   -5.17   25.93
  -4   3   1  638.40   43.81
   3   1   1  573.82   48.37
   1   3   1  556.15   47.21
   1  -4   1  406.73   37.31
  -1  -3   1  589.77   56.56
  -3  -1   1  483.46   58.56
  -4   3   1  524.09   44.50
   1   3   1  569.39   46.15
   3   1   1  548.63   44.99
  -1  -3   1  548.49   62.39
  -4   3   1  514.23   58.06
   1  -4   1  549.07   57.28
   1  -4   1  565.70   58.89
   3   1   1  661.36   65.61
  -3   4   1  614.37   44.41
  -3  -1   1  594.03   58.56
  -4   1   1  616.13   69.61
   4  -1   1  434.08   60.28
   3  -4   1  553.12   64.65
   4  -3   1  545.89   59.15
   3  -4   1  689.60   62.53
  -1  -3   1  582.55   61.20
   4  -1   1  582.99   57.80
   1  -4   1  585.71   67.44
  -3   4   1  539.52   61.04
   4  -3   1  603.99   59.67
   1  -4   1  528.63   62.38
   4  -3   1  640.82   63.49
  -1   4   1  498.26   58.15
   3  -4   1  620.51   54.78
  -1  -3   1  493.84   33.54
   3  -4   1  547.88   47.48
   1   3   1  502.20   58.01
   3  -4   1  577.90   61.30
   1   3   1  537.62   55.39
   1  -4   2 1325.02   87.03
  -4   3   2 1334.85   73.70
   4  -3   2 1476.60   74.79
   3   1   2 1477.84   80.13
  -3  -1   2 1356.65   76.45
   3  -4   2 1437.87   94.64
  -1  -3   2 1212.73   90.83
   1  -4   2 1479.22  101.06
  -1  -3   2 1312.86   98.62
   3   1   2 1314.17   60.95
   3  -4   2 1349.06   92.13
  -4   3   2 1342.57   74.52
  -3  -1   2 1363.87  102.01
   4  -1   2 1229.65   63.78
  -4   1   2 1273.33   94.83
   1  -4   2 1422.42   90.34
  -1  -3   2 1312.93   84.71
   4  -1   2 1191.42   95.95
   3   1   2 1355.98   94.41
  -3  -1   2 1443.99   86.22
  -3   4   2 1484.84   67.70
   1   3   2 1379.81   76.92
   1  -4   2 1347.79   99.16
   4  -3   2 1369.68   92.98
   4  -1   2 1358.65   75.13
   4  -1   2 1424.12   96.04
   3  -4   2 1463.08   93.92
  -1  -3   2 1377.81   96.35
   1  -4   2 1350.04   98.40
  -4   3   2 1343.38   92.82
  -3   4   2 1430.07  109.04
   4  -3   2 1371.31   83.18
   4  -3   2 1342.51   95.89
   3  -4   2 1355.08   80.26
  -3  -1   2 1458.12   92.18
  -1   4   2 1287.78   95.08
   3  -4   2 1394.46   99.43
  -1  -3   2 1314.62   75.62
   3  -4   2 1560.26   98.06
   1   3   2 1405.32   96.53
   3  -4   2 1286.95   66.17
   1  -4   3  708.40   60.62
   4  -3   3  744.39   55.82
  -3  -1   3  692.50   58.95
   3  -4   3  731.53   68.98
  -1  -3   3  578.35   64.87
   1  -4   3  667.90   72.36
   4  -1   3  750.41   50.49
  -4   1   3  657.20   52.74
   3   1   3  482.63   47.74
  -4   3   3  703.97   54.15
  -1  -3   3  742.44   65.47
   1  -4   3  586.87   67.46
   3  -4   3  570.46   63.64
  -3  -1   3  618.56   75.35
   4  -3   3  697.34   60.87
  -1  -3   3  754.28   77.16
  -1  -3   3  635.45   54.99
  -4   1   3  683.46   62.98
  -3   4   3  627.51   42.11
   1  -4   3  579.70   73.79
   3  -4   3  721.74   77.79
   4  -3   3  641.85   66.03
   4  -1   3  605.74   66.49
   1  -4   3  629.90   71.43
  -4   3   3  635.45   70.13
   3  -4   3  680.89   53.06
   4  -3   3  685.39   70.67
  -3   4   3  611.48   74.23
   4  -3   3  638.73   46.73
  -4   1   3  534.58   67.22
  -3   4   3  644.36   61.45
  -3  -1   3  737.97   67.67
  -1   4   3  532.91   67.80
   3  -4   3  648.02   67.10
  -1  -3   3  540.55   55.62
  -1   4   3  630.75   43.46
   1   3   3  644.50   69.05
   3   1   3  612.12   63.65
  -1  -3   4  367.99   52.81
  -1   4   4  345.09   41.18
  -3   4   4  351.37   60.18
   1  -4   4  328.05   47.69
  -1  -3   4  381.03   63.91
  -3  -1   4  341.18   49.07
   3  -4   4  393.39   56.57
  -1  -3   4  303.85   55.67
   1  -4   4  308.21   57.01
   1   3   4  319.60   56.18
   4  -1   4  334.87   56.37
   3   1   4  321.57   51.00
   4  -1   4  342.91   37.32
   4  -3   4  389.07   48.17
  -3  -1   4  433.46   42.73
   4  -3   4  367.80   57.55
  -4   1   4  325.05   27.93
  -1  -3   4  384.56   53.89
   1  -4   4  382.56   57.43
   3  -4   4  423.29   58.32
   4  -3   4  308.54   47.53
   3  -4   4  322.15   55.10
  -4   1   4  407.27   65.53
  -3  -1   4  408.23   37.63
  -3  -1   4  320.84   67.30
   1  -4   4  294.53   43.26
   1  -4   4  379.90   58.82
  -1   4   4  335.98   62.14
   3  -4   4  320.77   61.69
   4  -3   4  327.94   54.58
   3  -4   4  321.12   39.94
   4  -3   4  377.23   27.77
   4  -3   4  365.69   23.74
  -4   3   4  372.31   59.16
  -4   1   4  308.14   55.75
   4  -1   4  359.50   44.95
  -3   4   4  415.12   56.38
  -3  -1   4  369.10   58.52
  -4   3   4  287.71   58.74
  -4   3   5  541.29   86.86
   1  -4   5  560.66   54.89
  -3   4   5  536.83   78.73
   4  -3   5  686.23   67.13
  -3  -1   5  553.81   63.95
  -1  -3   5  593.37   73.74
  -1   4   5  578.31   78.26
   3  -4   5  546.00   74.71
   1  -4   5  549.08   75.07
   1   3   5  467.45   72.58
   4  -1   5  505.30   70.98
  -4   1   5  670.78   80.97
  -3  -1   5  647.11   85.79
  -1  -3   5  697.46   72.90
  -3  -1   5  578.56   53.22
   3  -4   5  600.50   74.57
   4  -3   5  630.38   68.57
  -4   1   5  533.80   45.51
   1  -4   5  483.82   68.77
  -3  -1   5  544.34   35.54
   1  -4   5  475.13   69.04
  -4   1   5  587.96   50.15
  -1  -3   5  507.63   77.11
   4  -3   5  575.10   69.61
   3  -4   5  578.03   80.36
   4  -3   5  618.68   74.46
  -4   3   5  660.53   77.23
   3  -4   5  564.64   67.14
  -4   1   5  615.00   80.23
  -3   4   5  609.92   69.13
  -3  -1   5  570.58   71.65
  -1  -3   5  518.04   65.23
  -1   4   5  604.29   56.77
   3   1   5  532.94   64.78
   4  -1   5  609.78   56.30
   1  -4   5  559.53   65.30
  -4   3   6  184.45   68.44
  -3   4   6  223.90   57.56
  -3  -1   6  206.29   58.20
  -1  -3   6  166.84   52.74
  -1   4   6  168.67   45.31
  -3   4   6  171.90   56.78
   1  -4   6  238.58   54.62
  -1   4   6  223.35   67.48
   3  -4   6  179.90   54.00
  -1  -3   6  201.14   58.28
   1  -4   6  158.77   58.54
   1   3   6  139.40   52.31
   3   1   6  189.08   46.11
   4  -1   6  154.72   35.21
   4  -1   6  162.87   59.81
  -1  -3   6  150.00   56.24
   4  -3   6  255.51   60.23
  -1  -3   6  214.00   51.44
   1  -4   6  261.58   57.75
  -3  -1   6  210.13   41.35
   3  -4   6  186.52   55.46
   3  -4   6  258.75   53.62
   4  -3   6  203.28   49.52
  -4   1   6  196.69   37.13
  -3  -1   6  207.23   58.09
   1  -4   6  216.35   36.01
  -4   1   6  253.14   60.15
   4  -3   6  141.24   51.48
   1  -4   6  105.66   60.47
   3  -4   6  217.17   63.47
  -4   3   6  180.52   54.70
  -4   1   6  139.22   53.68
  -3   4   7  -15.08   43.44
  -3  -1   7  -14.72   51.10
  -3   4   7    7.92   51.32
  -1  -3   7   79.55   55.55
  -1   4   7  131.48   42.89
   1  -4   7  -23.35   47.14
   1   3   7   77.58   40.22
  -1   4   7   64.08   65.16
   1  -4   7   43.79   49.70
   1   3   7   -8.69   43.94
   4  -1   7   78.08   30.33
   1  -4   7  -31.32   46.77
   3   1   7   63.78   43.84
   4  -1   7   -4.23   46.47
   4  -3   7  -71.12   55.54
  -1  -3   7  144.80   59.04
   1  -4   7    3.90   47.23
   3  -4   7   30.85   46.37
   3  -4   7   79.34   54.98
  -3  -1   7  -11.60   39.91
  -4   1   7   61.56   39.80
  -4   1   7   45.71   45.43
   4  -3   7    8.38   43.57
  -3  -1   7   53.83   49.30
   3  -4   7   41.31   46.41
  -1  -3   7   31.26   46.68
  -1  -3   7   34.90   52.64
  -4   3   7    4.00   50.18
  -4   3   7   52.79   50.26
  -4   1   7   57.42   58.14
  -4   3   8   12.65   51.01
  -4   1   8  131.01   57.18
  -3   4   8   24.30   59.67
  -3  -1   8   17.96   55.96
  -3   4   8  115.52   59.59
  -1  -3   8  109.92   56.91
  -1   4   8  137.74   46.90
   1  -4   8   35.78   61.84
   1   3   8   22.25   44.85
  -1   4   8   98.81   62.81
   1   3   8  109.47   54.17
   3  -4   8  388.98   76.91
  -1  -3   8   68.86   71.03
   1  -4   8   41.36   58.71
   3   1   8   80.00   53.13
   4  -1   8  157.47   57.23
   4  -3   8  129.94   60.66
  -1  -3   8   70.96   49.85
   1  -4   8  105.93   61.00
   3  -4   8   98.05   61.94
  -4   1   8  119.23   54.00
  -3  -1   8  -10.26   47.49
  -3  -1   8  125.15   52.96
  -1  -3   8  122.01   61.93
   1  -4   8   29.38   50.85
   3  -4   8   39.95   36.80
   4  -3   8  259.71   72.17
  -4   3   8  143.03   63.45
  -4   3   9  207.67   76.54
  -4   1   9  230.03   77.53
  -3   4   9  136.05   68.97
  -3  -1   9   76.32   67.32
  -3   4   9  230.61   65.79
  -1  -3   9  100.03   65.67
   1  -4   9  173.82   75.33
  -1   4   9  204.83   80.91
   1   3   9  206.33   81.50
   3   1   9  350.55   75.27
   3  -4   9  129.98   67.64
   1  -4   9   98.23   75.78
   4  -1   9  175.50   58.37
   1  -4   9   79.04   63.58
   4  -3   9  256.82   81.99
  -1  -3   9  274.16   76.55
   3  -4   9  153.54   80.80
   4  -3   9  254.85   84.28
  -3  -1   9  138.79   57.99
  -3  -1   9  252.58   66.13
  -1  -3   9  195.40   74.39
   1  -4   9  266.30   68.19
  -4   1   9  230.28   67.22
  -1  -3   9  288.74   93.75
  -4   3   9   94.29   62.27
  -4   3  10  269.12   86.61
  -3   4  10  -53.48   59.75
  -3   4  10  -73.50   66.76
  -3  -1  10   13.61   65.99
  -1  -3  10   19.68   55.99
  -1   4  10   73.61   69.78
   1  -4  10  -64.27   69.39
   1   3  10  163.35   79.37
   3  -4  10   96.80   58.52
  -1  -3  10  114.96   92.60
  -4   1  10  114.18   50.34
   4  -1  10   74.75   43.14
  -1  -3  10  244.40   70.27
   4  -3  10  137.83   67.55
   4  -3  10  230.79   89.49
  -3  -1  10  -21.89   44.15
  -1  -3  10   31.57   74.25
  -4   0 -10   56.98   65.24
   0  -4 -10  149.52   51.48
  -4   4  -9  225.67   71.67
  -4   0  -9  102.73   78.94
   0  -4  -9   27.48   56.02
  -4   0  -9  158.68   62.96
  -4   4  -9  -83.05   63.72
   4   0  -9  -39.80   74.46
   0   4  -9   37.38   56.12
   0  -4  -9   74.34   80.54
   4  -4  -9   35.05   92.37
  -4   4  -8   18.24   68.44
   4   0  -8   46.75   57.68
  -4   0  -8   51.30   64.45
   0   4  -8  -43.35   72.73
   0  -4  -8   35.45   44.10
   4  -4  -8  -53.47   69.05
  -4   0  -8   61.99   56.11
   4   0  -8  -53.43   66.21
  -4   4  -8   15.74   53.01
   0  -4  -8  -88.27   67.74
   4   0  -7   30.42   53.07
   4   0  -7   11.43   53.30
   0  -4  -7  -19.96   60.07
   0   4  -7  -44.27   49.83
  -4   4  -7   17.72   46.94
  -4   0  -7   33.80   61.58
  -4   4  -7   70.57   52.23
   4  -4  -7   44.96   64.73
   0   4  -7   36.08   60.58
   0  -4  -7   82.12   48.21
  -4   0  -7   27.99   62.47
   4   0  -6  296.58   63.52
   0   4  -6  244.95   58.03
  -4   4  -6  280.20   63.38
   4  -4  -6  338.60   75.32
  -4   0  -6  235.53   74.44
   4   0  -6  276.35   67.85
   4  -4  -6  226.17   51.32
  -4   4  -6  369.82   70.33
   0   4  -6  276.74   69.98
   0  -4  -6  487.74   79.01
  -4   0  -6  313.62   75.73
   0  -4  -6  232.55   80.62
   4  -4  -5  792.12   85.99
   0   4  -5  683.53   76.39
  -4   4  -5  744.88   78.35
   4  -4  -5  432.83   83.74
   0   4  -5  760.06   58.00
  -4   4  -5  722.70   83.81
  -4   0  -5  658.56   90.58
   0  -4  -5  738.84   95.99
   4  -4  -5  750.09   66.46
  -4   0  -5  828.78   96.42
   0   4  -5  612.64   79.30
   0  -4  -5  603.09  102.30
   4   0  -5  627.74   85.66
   4   0  -5  814.75   82.06
   0  -4  -4  746.42   92.04
   4  -4  -4  844.07   91.36
   4  -4  -4  775.31   82.57
  -4   0  -4  711.64   49.21
   0   4  -4  670.66   71.99
  -4   4  -4  669.15   73.33
   0   4  -4  737.12   55.22
  -4   4  -4  806.83   83.42
  -4   0  -4  543.96   82.09
   0  -4  -4  685.21   86.53
   4  -4  -4  749.53   64.66
   4   0  -4  615.59   80.92
  -4   0  -4  803.76   90.91
   0   4  -4  655.19   72.94
   0  -4  -4  718.85   81.69
   4   0  -4  866.86   85.01
   0   4  -4  802.55   68.62
   4   0  -4  783.63   50.29
   4  -4  -3  920.41   90.49
   4  -4  -3  889.48   87.39
   0   4  -3  839.15   79.41
  -4   4  -3  726.22   73.94
  -4   0  -3  937.68   64.15
  -4   0  -3  824.90   82.97
   0   4  -3  889.68   60.21
  -4   4  -3  884.65   84.39
   0  -4  -3 1039.00   95.63
   0  -4  -3  892.14   89.85
   4   0  -3  953.31   93.68
   0   4  -3  809.19   74.48
  -4   0  -3  903.02   96.37
   4   0  -3  816.02   84.67
   0  -4  -3  926.90   90.02
   4  -4  -3  959.28   78.54
  -4   0  -3  878.93   57.22
   4   0  -3  841.11   58.81
   0   4  -3  819.73   71.09
   4  -4  -2  853.33   78.75
   0  -4  -2  882.95   67.96
   0   4  -2  949.67   75.49
  -4   4  -2  885.66   74.65
  -4   0  -2  802.39   61.79
  -4   0  -2  951.52   78.86
  -4   4  -2  849.27   77.41
   0   4  -2  827.55   57.45
   4   0  -2  856.79   82.62
   0   4  -2  735.77   62.52
  -4   0  -2  840.38   90.17
   4  -4  -2  824.74   79.76
   0  -4  -2  749.68   78.24
  -4   0  -2  880.43   45.69
   4  -4  -2  877.14   66.97
   0  -4  -2  847.23   80.73
   4   0  -2  924.70   61.59
   4  -4  -2  802.28   79.87
   0   4  -2  832.41   69.68
   0   4  -1  201.46   29.97
   0   4  -1  217.39   44.28
   4   0  -1  154.13   36.13
  -4   0  -1  154.51   39.13
  -4   4  -1  223.24   48.05
   4  -4  -1  149.53   46.33
  -4   0  -1  180.67   37.33
   4   0  -1   97.84   42.96
   0   4  -1  181.24   32.17
   0  -4  -1  128.24   43.22
   0  -4  -1  218.61   45.38
  -4   0  -1  167.17   55.62
   4  -4  -1  162.73   49.73
   4  -4  -1  244.48   41.30
   0  -4  -1  196.68   48.04
   4  -4  -1  196.67   50.39
   0   4   0   -8.38   30.36
   4   0   0   29.70   29.49
   0   4   0  -35.52   30.46
   4  -4   0   23.67   34.94
  -4   4   0   24.90   37.10
  -4   0   0   26.64   29.87
   4   0   0   32.80   34.96
   0  -4   0  -36.65   34.82
   0  -4   0   15.11   35.24
  -4   0   0    1.51   39.69
   4  -4   0   32.09   39.71
   4  -4   0   24.06   37.16
   0   4   0   -0.95   20.74
   4  -4   0   -3.20   28.38
   0  -4   0    4.45   35.12
  -4   4   0   39.11   26.23
  -4   4   1  158.82   37.42
   4  -4   1  230.26   35.01
   0   4   1  249.49   47.42
   4   0   1  149.80   39.74
  -4   4   1  264.30   52.82
  -4   0   1  237.43   50.32
   4   0   1  183.61   49.85
   0   4   1  146.98   24.22
   4   0   1  151.51   16.52
   4  -4   1  188.25   45.04
   0  -4   1  134.40   39.25
   0  -4   1  261.44   52.15
   0  -4   1  105.33   44.50
   4  -4   1  203.46   45.90
   4  -4   1  236.61   53.06
  -4   0   1  188.29   48.50
  -4   0   1  211.88   32.44
   4  -4   1  199.48   40.31
   0  -4   1  224.41   48.42
   4   0   2  818.51   50.08
   0  -4   2  784.87   79.76
  -4   0   2  860.75   88.50
   4  -4   2  754.67   69.67
  -4   0   2  917.93   53.03
   0  -4   2  843.38   83.09
   0  -4   2  847.98   73.02
   4   0   2  920.51   85.99
   4   0   2  839.81   51.62
  -4   0   2  836.63   75.13
   4  -4   2  944.50   85.04
   4   0   2  929.10   79.05
   4  -4   2  970.49   78.84
   0  -4   2  919.22   86.61
  -4   4   2  913.33   81.46
   4  -4   2  909.66   57.15
   4  -4   2  894.76   80.28
   0   4   2  810.43   78.41
  -4   0   3  822.70   54.56
  -4   0   3  919.46   47.07
   4  -4   3 1041.06   78.79
   0  -4   3  949.63   90.98
  -4   0   3  722.82   89.16
   4  -4   3  847.43   76.81
   0  -4   3  815.67   72.51
  -4   0   3  868.77   71.05
   4   0   3  796.17   41.02
   4  -4   3  780.43   82.31
   4  -4   3 1005.15   80.64
   4   0   3  904.95   83.55
   0  -4   3  749.07   85.46
   0  -4   3  720.62   81.30
  -4   4   3  801.89   84.77
  -4   4   3  984.65   83.43
  -4   0   3  691.29   76.35
   4  -4   3  949.77   87.62
   0   4   3  863.40   87.64
   0  -4   3  799.74   58.08
  -4   4   4  692.17   91.16
  -4   0   4  741.99   59.09
   4  -4   4  749.78   72.44
   0  -4   4  678.56   78.08
   4  -4   4  731.82   80.17
  -4   0   4  812.05   94.07
   0  -4   4  742.87   78.56
   4  -4   4  755.12   75.79
   0  -4   4  705.86   82.99
   4   0   4  746.60   80.73
   4  -4   4  676.47   78.68
  -4   4   4  776.04   79.16
  -4   0   4  807.43   82.71
   0   4   4  691.94   80.97
   0  -4   4  639.47   59.49
   4   0   4  672.84   70.03
  -4   4   5  678.12   91.09
  -4   0   5  716.60   68.07
   4  -4   5  889.19   84.05
   0  -4   5  786.68   89.46
   4   0   5  652.88   86.43
  -4   0   5  820.74   94.68
   0  -4   5  774.85   82.82
   4  -4   5  736.02   80.42
   0  -4   5  636.91   83.14
   4  -4   5  583.23   83.06
   4  -4   5  762.80   83.25
  -4   4   5  683.69   82.26
   0   4   5  718.02   86.11
   0  -4   5  738.51   72.53
   4   0   5  613.07   66.25
  -4   0   5  597.99   80.07
  -4   4   6  247.75   71.61
   0  -4   6  246.35   60.68
   4   0   6  199.45   63.95
   0   4   6  272.24   67.24
   4  -4   6  258.18   57.74
   0  -4   6  218.02   61.86
   4   0   6  338.37   53.55
   4  -4   6  291.69   66.21
   0  -4   6  212.87   61.54
   4  -4   6  316.38   65.73
   0  -4   6  234.59   67.43
  -4   0   6  240.48   67.60
   4  -4   6  170.04   62.12
  -4   4   6  314.04   65.53
  -4   0   6  266.16   64.49
  -4   4   7   30.15   46.93
  -4   0   7   50.79   50.80
  -4   4   7  119.77   64.31
   0  -4   7   10.62   52.37
   0   4   7  129.06   56.67
   4  -4   7   36.81   52.34
   4   0   7  125.92   61.02
   0  -4   7   62.98   57.67
   4   0   7   38.45   42.21
   4  -4   7    9.07   47.96
   0  -4   7  -10.58   49.23
   4  -4   7   73.98   56.52
  -4   0   7   51.34   50.86
   0  -4   7  -40.47   53.35
  -4   4   8  142.72   64.32
  -4   0   8  -90.12   62.94
  -4   4   8   64.95   57.40
   0  -4   8   96.07   63.53
   0   4   8   69.61   65.19
   4  -4   8  112.20   58.83
   4   0   8  -77.48   42.88
   0  -4   8   -4.99   63.87
   4  -4   8  -16.53   61.99
   0  -4   8   10.30   52.71
   4  -4   8    1.05   51.56
  -4   0   8   45.33   42.78
   0  -4   8 -124.53   65.30
  -4   4   9    5.24   52.88
  -4   4   9  -39.88   65.96
  -4   0   9   45.29   70.63
   0  -4   9    9.86   64.78
   0   4   9   51.67   80.26
   4  -4   9   98.55   66.58
   0  -4   9  185.54   83.55
   4   0   9   31.73   51.27
   4  -4   9   -0.22   57.92
   0  -4   9   92.38   71.59
   4  -4   9   -0.25   64.63
  -4   0   9   98.46   61.99
   0  -4   9  107.49   65.32
  -4   4  10  129.94   84.88
   0  -4  10  116.40   74.64
   4  -4  10   36.38   64.27
  -3   5  -9  229.89   72.21
   5  -3  -9   61.04   82.49
   5  -2  -9   96.97   70.18
  -2   5  -9  116.43   70.30
  -2  -3  -9  183.98   72.13
  -3  -2  -9  190.65   78.13
   5  -3  -9  385.88   89.21
  -5   2  -9  271.53   84.05
  -5   3  -9  141.22  130.17
   5  -2  -9    6.36   65.12
   2  -5  -9   67.17   59.64
   3  -5  -8   95.46   71.06
  -2   5  -8  107.37   60.92
  -3   5  -8   65.78   64.04
   5  -2  -8   38.70   55.53
   5  -3  -8   49.89   77.14
  -5   2  -8   45.42   80.39
  -5   3  -8  -78.03   75.81
  -2   5  -8   23.88   53.80
  -3   5  -8  107.65   59.22
   5  -2  -8  173.97   74.93
   2  -5  -8  121.73   58.89
   3   2  -8   -9.23   71.66
   2   3  -8   53.39   74.24
  -2   5  -8  116.98   65.18
  -2  -3  -8  100.06   66.84
   5  -3  -8   30.01   57.12
  -5   2  -8  175.66   75.34
  -5   3  -8   74.42   68.27
  -3  -2  -8   57.84   66.22
   2  -5  -8   98.77   69.82
   5  -3  -7   22.00   45.64
   3  -5  -7  130.98   74.01
   5  -2  -7   -3.83   51.91
   5  -3  -7   35.41   53.35
  -2   5  -7   -1.53   57.61
  -3   5  -7   16.07   46.62
   2  -5  -7   24.82   53.68
  -5   3  -7   69.20   64.61
  -2   5  -7    6.27   33.83
   5  -2  -7   85.33   68.57
   3   2  -7   20.38   61.63
   2   3  -7  151.18   70.44
  -2   5  -7   29.41   53.27
  -5   2  -7    1.08   59.92
  -2  -3  -7    3.02   60.27
  -3  -2  -7  -28.90   56.91
   2  -5  -7  -84.56   52.28
  -5   2  -7   41.59   63.50
  -5   3  -7   -3.14   61.05
   2  -5  -7   71.67   69.61
  -3   5  -7  -51.63   40.82
   3  -5  -6  191.04   77.25
   5  -2  -6  135.96   62.68
   5  -3  -6  203.13   68.40
  -2   5  -6  207.03   61.83
  -3   5  -6  136.45   57.67
  -2   5  -6  124.89   46.37
  -3   5  -6  110.94   47.51
   3  -5  -6  128.25   63.71
   5  -2  -6   92.83   63.10
   5  -3  -6  191.21   51.99
   2  -5  -6  129.97   60.35
   3   2  -6  163.25   69.44
   2   3  -6  186.60   60.95
   2  -5  -6  120.54   65.70
   5  -3  -6  155.28   58.30
  -5   3  -6  125.88   61.86
  -2  -3  -6  271.01   72.70
  -3  -2  -6  170.59   68.61
  -5   2  -6  203.58   68.44
   2  -5  -6  141.98   55.02
  -2   5  -6   41.63   52.06
   3  -5  -6  217.43   62.03
  -5   2  -6  233.09   72.04
  -5   3  -6  203.15   63.76
   5  -3  -5  358.89   75.85
   2   3  -5  293.68   54.46
  -5   3  -5  412.83   64.40
  -2   5  -5  388.24   66.97
  -3   5  -5  391.65   67.87
  -5   2  -5  396.55   76.76
  -5   3  -5  393.59   74.66
  -2   5  -5  375.98   58.25
  -3   5  -5  407.30   71.14
   2  -5  -5  248.90   72.84
   5  -3  -5  403.55   68.79
   3  -5  -5  379.51   76.36
   5  -2  -5  376.93   72.02
   5  -2  -5  444.57   60.75
   3   2  -5  291.84   74.30
   2  -5  -5  471.10   82.32
   2   3  -5  343.20   73.69
   5  -3  -5  408.84   64.65
  -2   5  -5  330.14   73.92
  -2  -3  -5  347.44   78.72
  -3  -2  -5  394.98   78.78
   2  -5  -5  397.14   71.26
   3  -5  -5  427.35   77.44
  -5   2  -5  296.93   74.00
   2  -5  -5  294.74   72.33
   3  -5  -5  470.70   74.44
  -2  -3  -5  505.09   75.02
   3   2  -5  417.05   54.07
   3  -5  -5  340.43   87.27
   5  -2  -5  324.93   73.95
   5  -2  -4  262.85   69.55
   2   3  -4  311.71   53.27
  -5   3  -4  280.58   46.78
  -2   5  -4  291.68   61.31
  -3   5  -4  333.01   63.86
  -2   5  -4  285.03   50.53
   2  -5  -4  424.42   80.43
  -5   2  -4  292.53   58.86
  -5   3  -4  321.47   63.29
   3   2  -4  256.93   63.62
  -5   2  -4  239.68   30.17
  -3   5  -4  341.02   60.18
   5  -2  -4  338.10   54.40
   5  -3  -4  274.25   58.29
   5  -3  -4  237.15   58.47
   2  -5  -4  264.14   65.27
   2   3  -4  221.27   56.90
  -2   5  -4  202.43   52.79
  -2  -3  -4  263.08   71.43
  -3  -2  -4  229.43   67.63
   3   2  -4  314.22   49.88
   2  -5  -4  349.62   62.78
   3  -5  -4  273.93   62.62
   3  -5  -4  259.98   73.31
  -5   2  -4  276.87   65.97
   5  -2  -4  282.47   62.55
   2  -5  -4  179.23   61.43
   3  -5  -4  222.65   61.69
  -2  -3  -4  296.97   59.46
  -3  -2  -4  254.49   51.23
   5  -3  -4  372.03   69.32
  -2   5  -3  423.18   47.85
   5  -2  -3  437.78   68.41
   2   3  -3  418.69   52.14
  -5   3  -3  408.36   52.48
  -3   5  -3  485.80   64.80
  -5   2  -3  486.80   51.45
  -2   5  -3  496.41   68.45
  -3   5  -3  518.75   67.13
   2  -5  -3  465.43   76.04
  -5   2  -3  550.04   68.47
  -5   3  -3  409.47   64.92
  -2   5  -3  432.60   57.84
   5  -3  -3  520.12   70.97
   5  -3  -3  470.40   68.00
   2   3  -3  469.53   66.28
  -2   5  -3  388.81   57.74
   2  -5  -3  476.78   73.93
  -3  -2  -3  407.44   53.28
   3  -5  -3  360.44   77.25
  -2  -3  -3  450.00   77.62
   3  -5  -3  416.42   73.22
  -3  -2  -3  430.14   81.23
   3   2  -3  584.93   60.96
   2   3  -3  404.01   44.70
   5  -2  -3  509.34   74.86
   2  -5  -3  447.43   66.59
   3  -5  -3  469.53   69.22
   3   2  -3  511.98   72.82
  -5   2  -3  499.06   75.07
   5  -3  -3  445.09   38.72
   5  -3  -3  477.24   72.37
  -3  -2  -3  356.80   52.90
  -2  -3  -3  445.65   63.32
   3  -5  -3  464.45   67.98
   2  -5  -3  451.76   72.48
   5  -2  -3  578.21   65.80
   3  -5  -2  920.65   96.16
  -3  -2  -2  852.81   95.04
   3  -5  -2  950.52   93.57
   2   3  -2  936.12   69.85
  -5   3  -2  854.99   70.78
   2  -5  -2  887.48   97.78
   3  -5  -2  979.56   89.93
  -5   3  -2  959.70   86.94
  -3  -2  -2 1100.20   82.51
  -3   5  -2 1024.24   89.07
  -2   5  -2  995.51   82.33
  -2  -3  -2  938.35   83.46
   2  -5  -2 1029.57   94.40
  -2  -3  -2  872.29   91.91
   5  -3  -2  869.21   87.92
   5  -2  -2  960.20   95.38
   3   2  -2  922.62   89.13
   2   3  -2  995.26   86.54
  -2   5  -2  889.42   69.22
  -5   2  -2  997.83   96.17
   2  -5  -2 1040.47   90.66
   3  -5  -2  833.37   87.79
   3   2  -2  856.75   57.73
   5  -3  -2  776.47   45.51
   5  -2  -2  918.09   93.84
  -3  -2  -2  995.97   76.92
  -2  -3  -2  949.94   84.57
   2  -5  -2 1075.97   97.21
   5  -3  -2  942.54   92.64
  -5   2  -2  896.97   84.33
  -3   5  -2  903.61   64.38
  -2   5  -2  959.30   82.49
   5  -2  -2  977.64   84.12
   5  -3  -2  886.84   85.10
   2   3  -1  374.05   57.28
  -2   5  -1  423.73   57.25
   3   2  -1  400.43   32.65
  -5   2  -1  424.77   35.30
  -5   3  -1  385.77   46.89
   2   3  -1  350.26   44.59
   2  -5  -1  390.15   62.39
  -2   5  -1  509.00   59.58
   5  -3  -1  375.00   56.34
  -5   2  -1  389.93   55.99
  -3   5  -1  432.52   61.99
   3  -5  -1  352.78   57.75
   5  -2  -1  575.52   73.16
   5  -2  -1  326.62   63.40
   3   2  -1  420.64   63.23
  -2  -3  -1  334.27   59.24
  -3  -2  -1  358.48   55.13
   3  -5  -1  411.36   64.46
  -2   5  -1  317.49   38.63
  -2  -3  -1  391.72   58.41
   5  -3  -1  409.24   65.25
   3   2  -1  402.03   44.78
   2  -5  -1  370.78   62.73
  -3  -2  -1  327.65   60.78
   5  -3  -1  415.64   61.89
   2  -5  -1  386.71   63.68
   3  -5  -1  391.64   63.85
  -5   3  -1  397.81   60.74
  -3  -2  -1  400.74   52.33
  -2  -3  -1  319.40   55.22
  -3   5  -1  504.48   55.51
   3  -5  -1  376.35   62.75
   2  -5  -1  340.08   64.93
   5  -2  -1  496.98   62.23
  -2  -3  -1  394.29   30.39
   2  -5  -1  299.71   56.67
  -3   5   0   95.27   40.59
  -2   5   0  120.87   43.43
   3   2   0   83.17   16.88
  -5   2   0  116.70   19.61
   5  -2   0  165.80   42.92
   2  -5   0  168.55   40.40
   5  -3   0   81.60   39.58
   3  -5   0  114.56   39.75
  -5   2   0   93.60   36.50
  -5   3   0  163.63   44.30
  -3   5   0   95.84   42.97
   2   3   0  160.91   41.01
   5  -3   0   95.75   40.69
   5  -2   0   66.79   42.17
   3   2   0  131.74   42.89
   5  -3   0  120.55   49.96
  -3  -2   0  157.19   45.30
   3  -5   0   86.54   40.43
   2  -5   0  104.40   46.27
  -2   5   0  107.68   18.84
  -2  -3   0  129.80   43.70
   2  -5   0  107.16   44.54
  -2  -3   0  117.39   38.85
  -3  -2   0  122.73   44.01
   2  -5   0  141.70   48.07
   3  -5   0  125.52   53.30
   5  -3   0  109.54   44.02
  -3  -2   0   75.78   36.02
  -2  -3   0  104.26   41.16
   3  -5   0   84.50   47.01
   2  -5   0  108.35   52.35
  -3  -2   0  144.59   30.56
  -2  -3   0  140.33   21.50
  -3   5   1  318.50   68.23
  -2   5   1  410.59   62.77
   2   3   1  371.53   60.23
   5  -2   1  519.20   65.70
   2  -5   1  403.06   44.24
   3  -5   1  432.40   53.87
  -3  -2   1  340.12   58.61
  -5   2   1  397.22   54.34
   2   3   1  312.40   49.55
   5  -2   1  307.31   62.10
   3  -5   1  414.34   62.10
  -5   3   1  385.12   57.34
   3   2   1  301.85   55.47
  -2  -3   1  404.65   61.73
   2  -5   1  309.94   56.14
  -2  -3   1  295.82   50.10
  -3  -2   1  348.12   54.80
   2  -5   1  363.63   64.11
   3  -5   1  417.02   66.37
   5  -3   1  358.32   58.38
   5  -2   1  400.42   55.15
  -3  -2   1  368.36   51.57
  -2  -3   1  270.00   55.44
   3  -5   1  394.69   64.28
   2  -5   1  372.70   65.86
   5  -3   1  546.09   67.15
  -2   5   1  391.03   35.39
  -3  -2   1  467.65   51.26
  -2  -3   1  436.20   40.96
   3  -5   2 1040.55   89.40
   2  -5   2  920.70   83.64
   3  -5   2  848.45   68.97
   5  -2   2  820.02   50.11
  -3  -2   2  798.83   86.88
  -2  -3   2 1065.73   98.74
  -5   2   2  943.31   76.64
  -5   3   2  985.47   85.92
   2  -5   2  698.34   46.06
  -2  -3   2  955.47   79.68
   2   3   2  724.89   72.45
   3   2   2  963.57   82.30
  -3  -2   2  840.47   73.31
   3  -5   2  913.59   93.19
   2  -5   2  907.19   92.25
   5  -3   2  903.16   82.55
   5  -2   2  891.18   73.03
   5  -2   2  973.02   86.83
  -2  -3   2 1046.16   90.03
   3  -5   2  864.82   85.46
   2  -5   2 1178.44   99.51
   5  -3   2 1077.81   92.30
  -3   5   2  847.79   93.91
  -3   5   2 1039.16   72.97
  -2   5   2  811.07   88.91
  -3  -2   2 1071.69   77.82
  -2   5   2  933.38   54.10
  -2  -3   2  833.11   68.57
   2   3   2  882.01   86.32
   3   2   2  949.81   87.81
  -2  -3   3  389.23   56.08
   3  -5   3  475.26   50.23
  -3   5   3  455.55   74.40
  -2   5   3  516.83   78.64
   5  -3   3  485.46   41.56
  -3  -2   3  474.62   58.09
  -2  -3   3  617.36   69.58
   3  -5   3  575.07   71.19
   2  -5   3  501.61   68.62
   3   2   3  430.37   66.04
   5  -2   3  470.84   69.95
   5  -3   3  438.95   48.94
  -2  -3   3  405.39   51.88
   3  -5   3  482.45   66.28
   5  -2   3  477.07   55.09
  -5   2   3  480.84   58.88
  -5   3   3  454.63   61.18
   3  -5   3  449.15   63.66
  -3  -2   3  416.98   71.92
   2  -5   3  419.28   59.51
  -2  -3   3  454.08   73.91
   2  -5   3  450.93   75.58
   3  -5   3  400.61   70.83
   5  -3   3  475.27   62.27
   2  -5   3  452.91   70.57
   5  -3   3  585.88   74.22
  -3   5   3  635.20   58.87
  -3  -2   3  500.93   58.93
  -2   5   3  412.68   42.52
   2   3   3  564.48   74.65
  -3  -2   3  394.80   49.15
  -3  -2   4  252.26   52.52
  -2  -3   4  247.26   50.93
  -3   5   4  436.25   73.94
  -2   5   4  334.54   72.56
  -2  -3   4  295.97   42.01
   5  -3   4  300.44   40.27
  -3  -2   4  319.71   54.92
  -2  -3   4  187.67   56.84
   3  -5   4  336.42   57.20
   2  -5   4  289.34   56.94
   2   3   4  274.48   57.62
   3   2   4  214.88   58.37
   5  -2   4  202.18   53.82
   5  -3   4  337.33   63.54
   3  -5   4  317.80   61.92
   5  -3   4  286.16   46.28
   5  -2   4  234.42   41.75
   2  -5   4  192.15   52.07
  -5   2   4  275.60   49.00
   3  -5   4  232.18   53.12
  -3  -2   4  211.65   64.05
   2  -5   4  245.79   48.26
  -2  -3   4  209.60   57.69
  -3  -2   4  213.48   36.90
   2  -5   4  332.44   72.21
   3  -5   4  272.29   67.06
   5  -2   4  285.85   47.62
   5  -3   4  329.85   56.99
  -5   3   4  314.57   64.32
  -5   2   4  269.35   58.24
  -3   5   4  362.37   54.09
  -3   5   5  446.29   64.82
  -3  -2   5  339.22   64.06
  -2  -3   5  347.51   59.49
  -3   5   5  313.61   69.82
  -2   5   5  499.03   92.87
   5  -3   5  390.39   52.72
  -3  -2   5  395.85   66.43
  -2  -3   5  437.84   70.02
   3  -5   5  360.06   68.33
   2  -5   5  447.07   75.32
   2   3   5  481.94   72.97
   3   2   5  413.34   67.09
   5  -2   5  357.98   46.44
   5  -2   5  375.77   70.07
   5  -3   5  383.91   71.46
  -3  -2   5  426.70   54.34
  -2  -3   5  367.42   60.02
   2  -5   5  489.04   74.46
   3  -5   5  397.06   72.17
   5  -3   5  400.25   55.58
   3  -5   5  433.24   65.35
   5  -2   5  369.21   56.43
  -5   2   5  311.01   55.41
  -3  -2   5  422.57   89.00
   2  -5   5  430.29   58.88
  -5   2   5  558.13   59.13
  -2  -3   5  396.33   79.10
   3  -5   5  404.79   78.95
   5  -2   5  338.66   49.95
   5  -3   5  484.06   65.95
  -5   3   5  297.00   72.29
  -5   2   5  431.96   77.34
  -3   5   6  172.55   52.32
  -3  -2   6  205.19   67.52
  -2  -3   6  138.19   55.42
  -3   5   6  242.76   66.23
  -2   5   6  145.76   65.86
   5  -3   6  259.28   52.57
  -3  -2   6  236.28   60.53
  -2  -3   6  139.93   62.05
   3  -5   6  115.63   53.73
   2  -5   6  184.54   55.81
   2   3   6  145.64   54.50
   3   2   6  187.75   58.44
   5  -2   6  117.50   55.22
   5  -3   6   83.50   52.86
  -3  -2   6   92.69   37.43
  -2  -3   6  165.72   44.37
   2  -5   6  251.90   62.68
   3  -5   6   75.22   49.99
   5  -3   6  157.72   51.81
   5  -2   6  130.35   52.36
   3  -5   6  196.28   51.02
   2  -5   6  198.90   44.17
  -3  -2   6  150.14   66.74
  -2  -3   6  179.46   71.46
   3  -5   6  142.43   71.38
   5  -3   6  191.76   56.56
  -5   3   6  174.43   59.06
  -5   2   6   56.52   52.45
  -3   5   7  -87.67   60.58
  -3  -2   7  -30.51   65.34
  -2  -3   7   16.45   49.02
  -3   5   7   33.47   57.66
  -2   5   7   16.87   52.46
  -3  -2   7    9.60   49.65
  -2  -3   7   71.40   62.06
   3  -5   7   52.41   45.83
   2  -5   7  -19.59   45.96
   2   3   7   55.94   53.36
   3   2   7   33.14   47.28
   5  -2   7   42.39   61.08
  -3  -2   7   -0.45   51.65
   5  -3   7  -30.19   58.25
  -2  -3   7    1.66   37.52
   2  -5   7  -41.94   55.75
   3  -5   7  -38.92   55.49
   5  -2   7   57.28   48.01
  -5   2   7   -8.69   49.41
   3  -5   7  105.87   44.25
   5  -3   7    6.67   49.85
  -2  -3   7   -6.26   52.19
  -5   3   7   73.50   55.59
  -5   2   7   86.50   59.48
  -5   3   8  147.87   67.78
  -5   2   8  284.28   73.80
  -3  -2   8  -46.02   63.70
  -2  -3   8  173.57   75.03
  -3   5   8   29.08   51.81
  -2   5   8   73.97   64.87
  -3  -2   8   63.44   58.05
   2   3   8   92.37   62.06
  -2  -3   8   71.64   58.84
   3  -5   8   84.61   55.82
   2  -5   8  116.01   58.37
   3   2   8   48.61   52.33
   5  -2   8   66.12   61.94
   5  -3   8  -30.46   67.37
   2  -5   8  -25.35   64.08
   3  -5   8   -8.76   63.73
   5  -3   8  -50.82   59.39
   5  -2   8  138.21   70.68
  -5   2   8  142.30   51.64
  -3  -2   8   69.86   60.64
  -2  -3   8  135.66   55.87
  -2  -3   8   93.89   62.23
  -3  -2   9   -0.46   54.18
  -2  -3   9  107.84   70.66
   2   3   9  167.02   69.21
   3   2   9  231.03   74.14
  -3  -2   9   93.20   79.29
  -2  -3   9  104.61   80.09
   3  -5   9  127.86   68.38
  -5   2   9   23.09   52.17
   5  -2   9  143.86   65.07
   5  -3   9   41.80   65.30
  -2  -3   9  159.95   66.28
   5  -3   9  -20.74   69.47
   5  -2   9   98.36   67.13
  -3  -2   9  151.55   68.40
  -2  -3   9  171.94   61.99
   5  -1  -9  384.79   89.38
   1  -5  -9  140.67   66.30
  -1  -4  -9  131.07   70.24
  -5   4  -9  272.45   90.05
  -1   5  -8  518.72   97.13
  -4   5  -8  502.23   99.09
   5  -1  -8  198.44   76.89
   1  -5  -8  271.80   92.48
  -4  -1  -8  326.43   91.61
  -5   1  -8  315.42  102.36
  -5   4  -8  538.71   99.84
   5  -4  -8  520.51  107.44
   5  -1  -8  341.73   87.24
   4   1  -8  297.40   90.87
   1  -5  -8  414.53   83.09
   1   4  -8  207.12   89.53
  -1   5  -8  412.68  108.45
  -1  -4  -8  525.77   93.20
  -4  -1  -8  436.06   90.62
  -5   1  -8  623.28  105.26
  -4   5  -8  391.07   85.67
  -5   4  -8  487.97   91.00
   4  -5  -8  422.23  119.13
   5  -1  -7  929.97  113.67
  -5   4  -7  823.38  106.14
   1  -5  -7  724.63  118.27
  -4   5  -7  880.19  107.20
  -1   5  -7  598.25   95.93
  -4   5  -7  863.62  108.02
   5  -4  -7  798.03  114.11
  -4  -1  -7  717.79  118.81
  -5   1  -7  800.35  121.78
  -5   4  -7  739.89  106.59
   5  -1  -7  865.19  123.16
   4   1  -7  876.97  118.40
   1  -5  -7  672.61   98.08
   1   4  -7  683.79  102.33
  -1   5  -7  688.02  116.04
  -1  -4  -7  724.25  104.20
  -4  -1  -7  873.12  115.17
  -5   1  -7  797.28  111.86
   4  -5  -7  864.78  129.20
   4   1  -6  695.93   85.46
   5  -1  -6  811.07   97.97
   5  -4  -6  876.88   95.73
   1   4  -6  693.21   85.66
  -5   4  -6  666.60   85.88
  -1   5  -6  598.30   92.00
  -4   5  -6  683.96   90.38
   5  -4  -6  675.67  104.71
  -4   5  -6  753.21   97.97
  -4  -1  -6  600.32  102.07
  -5   1  -6  436.73   94.97
  -5   4  -6  722.32   98.17
   5  -4  -6  778.18   83.66
   5  -1  -6  758.40  105.29
   4   1  -6  560.52   89.23
   1  -5  -6  653.69   99.42
   1   4  -6  625.94   92.16
  -1   5  -6  655.19   99.14
  -1  -4  -6  551.95   90.99
   4  -5  -6  605.94  108.22
  -4  -1  -6  778.33  103.40
  -5   1  -6  865.06  107.07
  -1  -4  -6  910.17  106.63
   1  -5  -6  733.07  101.41
   1  -5  -6  573.25  108.12
   5  -4  -5  884.03  108.55
   5  -4  -5  890.21   96.16
   1   4  -5  875.87   88.17
  -5   4  -5  732.87   84.42
  -1   5  -5  785.36   89.05
  -4   5  -5  848.70   98.39
  -4  -1  -5  810.59  103.12
  -5   4  -5  810.56   97.18
  -1   5  -5  960.70   76.70
  -4   5  -5 1010.40  101.19
  -5   1  -5  810.92  101.64
   5  -4  -5  827.92   85.07
   5  -1  -5  812.46  104.37
  -4  -1  -5  807.90  104.56
   4  -5  -5  767.34  109.68
  -5   1  -5  887.09  109.75
   4   1  -5  711.22  102.60
   1   4  -5  646.24   89.12
   1  -5  -5  688.85   97.38
  -1   5  -5  687.67   88.09
  -1  -4  -5  738.51  105.77
   1  -5  -5  982.72   86.63
   1  -5  -5  934.70  106.40
   4  -5  -5  817.51   93.48
   1  -5  -5  632.74  109.95
  -1  -4  -5  715.61   96.28
   4   1  -5  928.07   89.66
   5  -1  -5  828.41   96.95
   5  -4  -4 1376.13  112.41
   4  -5  -4 1451.47  123.03
   4  -5  -4 1128.91  115.48
   1   4  -4 1064.82   93.30
  -5   4  -4 1143.22   97.75
  -1   5  -4 1029.43  101.90
  -4   5  -4 1225.84  106.27
  -4  -1  -4 1012.66  109.58
  -5   1  -4 1188.64  111.41
  -5   4  -4 1245.18  111.51
  -1   5  -4 1348.86   92.41
  -4   5  -4 1371.38  113.43
  -4  -1  -4  981.25   74.98
   1  -5  -4  947.98  123.89
   1  -5  -4 1068.02  113.14
   5  -4  -4 1183.23   97.75
   5  -1  -4 1106.79  114.31
   4   1  -4 1045.33  110.06
  -4  -1  -4 1224.53  120.80
   1   4  -4 1064.44  101.70
  -1   5  -4  965.18   90.28
  -5   1  -4 1306.07  125.89
  -1  -4  -4 1030.74  115.04
   1  -5  -4 1401.83  101.67
   4  -5  -4 1164.75  112.00
   4   1  -4 1205.30  101.93
   1  -5  -4 1345.33  117.96
   4  -5  -4 1225.88  102.87
  -1  -4  -4 1163.48  107.55
   5  -4  -4 1454.15   92.96
  -4  -1  -4 1234.08   87.40
   5  -1  -4 1242.51  110.79
  -1   5  -4 1354.87   90.71
   5  -4  -4 1154.58  117.92
   5  -1  -4 1264.21   84.35
   5  -4  -3 1314.00  107.50
   4  -5  -3 1268.84  115.90
   4  -5  -3 1242.32  113.56
   1   4  -3 1111.88   93.18
  -5   4  -3 1194.65   95.90
  -1   5  -3 1168.31  101.28
  -4   5  -3 1128.21  100.35
  -5   1  -3 1316.90   82.37
  -4  -1  -3 1157.51  107.06
  -5   1  -3 1153.36  100.33
  -4  -1  -3 1282.60   87.12
  -5   4  -3 1384.61  113.53
  -4   5  -3 1365.32  110.13
  -1   5  -3 1372.84   90.01
   1  -5  -3 1132.76  110.82
   1  -5  -3 1347.50  118.47
  -1  -4  -3 1132.46  110.53
   5  -4  -3 1344.07   99.36
   5  -1  -3 1277.23  116.34
   4   1  -3 1265.41  117.00
  -4  -1  -3 1170.87  120.52
   1   4  -3 1006.99   93.75
  -1   5  -3 1052.51   84.52
  -5   1  -3 1358.11  125.86
   1  -5  -3 1373.89  103.68
   4  -5  -3 1128.44  108.36
   4   1  -3 1359.82  103.57
   5  -1  -3 1562.19  118.37
   5  -4  -3 1405.71   86.75
  -4  -1  -3 1303.56   85.13
   4  -5  -3 1146.27   99.27
  -1  -4  -3 1342.95  111.63
   1  -5  -3 1123.69  109.27
  -1   5  -3 1170.02   88.27
   5  -1  -3 1247.22   87.86
   5  -4  -3 1231.40  111.66
   4  -5  -2 1183.20  107.55
   4  -5  -2 1059.48  103.46
   1   4  -2 1124.80   87.43
  -5   4  -2 1150.73   91.32
  -5   1  -2 1234.27   83.68
  -4  -1  -2 1070.09   93.92
  -4  -1  -2  986.35   82.07
  -5   1  -2 1064.40   89.87
  -5   4  -2 1120.30   99.61
  -4   5  -2 1167.09  103.52
  -1   5  -2 1132.68   83.98
   1  -5  -2 1144.85  102.82
   1  -5  -2 1041.54   94.94
  -1  -4  -2 1070.76  102.68
   5  -4  -2 1093.12   91.28
   5  -1  -2 1216.98  108.43
   4   1  -2 1121.08  105.83
   1   4  -2 1059.21   87.20
  -4  -1  -2  859.53  106.95
  -1   5  -2  912.68   72.22
  -5   1  -2 1148.09  114.94
   1  -5  -2 1203.37   97.15
   4  -5  -2 1046.57  103.15
   5  -1  -2 1194.19  103.82
   5  -4  -2 1047.00   72.80
   4  -5  -2 1233.32   97.39
  -1  -4  -2 1046.59   99.03
   1  -5  -2 1010.69  101.40
   4   1  -2 1049.59   72.73
   5  -1  -2 1181.79   86.98
   5  -4  -2 1125.50  104.80
  -1   5  -2 1099.67   86.88
   1   4  -2 1175.36   96.81
   5  -4  -2 1242.31  105.01
   4  -5  -1 1837.05  130.62
   4  -5  -1 1842.94  125.10
   1   4  -1 1843.70  114.17
  -5   1  -1 1833.71  116.81
  -4  -1  -1 1834.99  118.42
  -5   1  -1 1973.65  118.60
  -5   4  -1 1876.13  129.61
  -4   5  -1 1723.94  124.39
  -1   5  -1 1938.95  115.39
   1  -5  -1 1915.32  132.68
  -1  -4  -1 1796.31  127.63
   1  -5  -1 1552.55  108.19
   5  -1  -1 2007.23  139.17
   4   1  -1 1718.57  128.35
   1   4  -1 1681.89  108.49
  -4  -1  -1 1840.42  141.13
  -1   5  -1 1490.83   90.05
  -5   1  -1 1710.16  138.52
   1  -5  -1 1859.62  125.44
   4  -5  -1 1832.92  132.46
   5  -4  -1 1958.43  132.96
   4   1  -1 1619.36  102.19
   5  -4  -1 2101.98  101.26
   4  -5  -1 1778.85  126.43
  -1  -4  -1 1545.36  131.51
   1  -5  -1 1618.46  135.43
  -4   5  -1 1740.39  100.92
   5  -1  -1 1903.96  117.02
   5  -4  -1 1880.93  133.14
  -1   5  -1 1821.78  118.10
   5  -4  -1 1927.91  131.90
   1   4  -1 1806.85  123.13
   4  -5   0 2748.23  164.38
  -5   1   0 2459.17  151.80
  -4  -1   0 2471.05  151.93
  -4  -1   0 2432.18  119.81
  -5   1   0 2715.39  140.30
  -5   4   0 2675.89  159.89
  -4   5   0 2665.00  160.48
  -1  -4   0 2444.03  158.54
  -1  -4   0 2583.50  154.67
   5  -1   0 2784.49  168.74
   4   1   0 2416.50  156.71
   1   4   0 2652.03  134.56
  -4  -1   0 2859.87  167.11
  -5   1   0 2514.12  174.54
   1  -5   0 2672.60  157.39
   1  -5   0 2651.31  159.58
   4  -5   0 2888.41  165.89
   5  -4   0 2743.39  161.36
   4   1   0 2525.32  139.06
   4  -5   0 2563.02  155.64
  -1  -4   0 2568.31  166.38
   1  -5   0 2684.56  168.25
   5  -1   0 2849.06  154.34
  -4   5   0 2785.10  142.78
   5  -4   0 2690.65  161.55
  -1   5   0 2546.33  151.40
   5  -4   0 2807.46  163.34
   1   4   0 2459.47  154.24
   4  -5   0 2949.85  155.56
   1   4   1 1736.16   99.21
   5  -1   1 1830.29  134.04
  -5   1   1 1761.54  131.41
  -4  -1   1 1632.03  124.43
  -5   1   1 1733.59  104.51
  -5   4   1 1835.03  127.92
  -4   5   1 2059.04  135.98
  -1  -4   1 1803.85  131.41
   1  -5   1 1911.92  126.19
  -1  -4   1 1750.21  119.77
   4   1   1 1865.40  130.51
  -4  -1   1 1698.51  119.90
  -5   1   1 1856.39  139.48
   1  -5   1 1839.28  129.73
   4  -5   1 1897.40  134.06
   5  -4   1 1879.75  129.35
   4   1   1 1734.60  113.68
   4  -5   1 1648.30  121.75
   5  -4   1 1989.49  130.74
  -1  -4   1 1600.32  134.18
   1  -5   1 1688.23  134.34
   5  -1   1 1755.82  119.22
  -4   5   1 1702.23  115.53
  -1   5   1 1708.37  123.29
   5  -4   1 1809.33  128.49
   1   4   1 1793.04  125.57
   4  -5   1 1845.25  117.16
   4  -5   1 1841.54  129.35
  -5   1   2 1172.85  115.06
  -4  -1   2 1249.73  109.87
  -1  -4   2 1016.22  101.54
  -5   4   2 1054.15   96.68
   1  -5   2 1169.15   95.87
   5  -1   2 1298.01  109.68
   4   1   2 1002.67   98.48
  -4  -1   2 1131.30   89.03
  -5   1   2 1167.98  104.43
  -1  -4   2  951.70   85.59
   1  -5   2 1121.27  103.92
   4  -5   2 1103.61  105.63
   5  -4   2 1040.11   94.81
   5  -1   2 1220.76   75.67
   4   1   2  993.52   90.14
   5  -4   2 1105.78   99.18
  -1  -4   2 1126.00  103.76
   1  -5   2  995.11  102.24
   5  -1   2 1135.77   95.11
  -4   5   2 1062.09   96.81
  -4  -1   2 1029.63   92.18
   5  -4   2 1078.21   98.95
  -1   5   2 1131.23  100.53
   4  -5   2 1192.08   87.42
   1   4   2 1122.77  100.62
   4  -5   2 1162.81  101.24
   1  -5   3 1124.10  106.08
  -1  -4   3 1216.56  106.20
   4  -5   3 1491.26  107.09
  -5   1   3 1165.01  122.45
   4  -5   3 1257.27  103.44
   5  -4   3 1408.84   96.00
  -4  -1   3 1255.76  119.97
  -1  -4   3 1330.82  117.58
  -1  -4   3 1147.50   88.94
  -4  -1   3 1232.81   88.15
  -5   1   3 1412.20  104.80
   1  -5   3 1155.59  113.59
   4  -5   3 1346.83  117.50
   5  -4   3 1307.18  108.51
   5  -1   3 1388.87   78.08
   4   1   3 1075.51   99.31
   5  -1   3 1176.27  104.46
   1  -5   3 1252.87  114.51
  -4   5   3 1304.71  119.21
  -5   1   3 1314.29  115.44
  -4   5   3 1438.05  104.39
   5  -4   3 1292.70  112.27
   4  -5   3 1370.22   91.15
  -4  -1   3 1305.09  105.73
  -1   5   3 1052.66  106.07
   1   4   3 1265.35  109.03
   4  -5   3 1052.49   99.58
   4   1   3 1133.47  101.04
  -4  -1   4 1123.38   83.30
   5  -4   4 1387.62   90.39
   4  -5   4 1241.12  103.93
  -1  -4   4 1148.35  108.22
   1  -5   4 1196.97  109.46
  -5   1   4 1164.07  120.24
   1  -5   4 1318.02  111.66
   4  -5   4 1200.99  104.04
   5  -4   4 1283.41   95.75
  -4  -1   4 1164.06  125.66
   5  -1   4 1055.84   77.34
  -1  -4   4 1139.79  118.30
  -1  -4   4 1163.42   87.48
  -4  -1   4 1193.35   79.64
  -5   1   4 1161.66   91.01
   4  -5   4 1166.80  113.66
   5  -4   4 1160.67  107.10
   5  -1   4 1341.80  112.33
  -5   4   4 1319.10  115.93
  -4   5   4 1221.52  119.91
   4  -5   4 1292.07   87.66
   5  -4   4 1136.00  110.51
  -5   4   4 1119.46  103.16
  -5   1   4 1184.94  111.45
  -4   5   4 1147.93   98.02
  -1   5   4 1040.99  111.37
  -4  -1   4 1184.97  105.28
   1   4   4 1078.29  107.12
   4  -5   4 1101.71  103.34
  -1  -4   4 1038.97   79.03
   4   1   4 1185.84  104.19
  -4  -1   5  823.69   75.24
   5  -4   5  905.94   81.61
   4  -5   5  984.72   98.09
  -1  -4   5  760.70   96.80
   1  -5   5  846.24   99.08
  -5   1   5  781.09  104.68
  -1  -4   5  846.48   91.31
   1  -5   5  856.31   95.91
   4  -5   5  847.80   97.34
   5  -4   5  801.22   83.84
  -1  -4   5  910.12  110.29
  -4  -1   5  821.60  112.08
   5  -4   5  827.24   93.03
   4  -5   5  583.78   92.92
   5  -1   5  902.66  102.00
  -4   5   5  861.30  102.29
   5  -4   5  997.84  105.17
  -1   5   5  953.70  108.77
  -5   4   5  908.10   97.24
  -4   5   5  826.05   86.76
  -4  -1   5  912.29   99.08
   1   4   5  978.29  102.51
   4  -5   5  812.81   91.57
  -1  -4   5  758.52   80.27
   4   1   5  716.89   84.45
   5  -1   5  805.61   76.53
  -5   1   5  739.25   98.32
  -5   4   5  685.84   97.87
  -4  -1   6  580.25   89.12
  -4   5   6  743.21  102.11
  -1  -4   6  635.14   83.00
  -1   5   6  669.39  104.50
  -4  -1   6  649.03   79.23
   5  -4   6  670.99   78.70
   1   4   6  637.69   91.90
   4  -5   6  721.33   99.25
  -1  -4   6  683.55   95.01
   1  -5   6  791.12   96.02
   4   1   6  697.26   83.20
   5  -1   6  531.06   88.92
  -5   1   6  927.61  106.69
   5  -4   6  739.72   89.65
   5  -4   6  791.90  100.89
  -1  -4   6  675.14   90.36
   1  -5   6  779.75   94.38
   4  -5   6  649.66   86.70
  -4  -1   6  820.66  108.92
  -1  -4   6  777.00  108.38
   4  -5   6  659.82  102.67
   5  -4   6  614.29   86.82
  -4   5   6  795.43   92.06
   4  -5   6  802.29   95.62
   5  -1   6  736.19   73.67
   1  -5   6  688.27   78.48
  -5   4   6  493.04   90.37
  -5   4   6  705.35   92.54
  -5   1   6  690.50   97.50
  -4   5   7  683.73   93.75
  -4  -1   7  704.05  102.43
  -1  -4   7  686.08   82.79
   1  -5   7  563.95   81.35
  -1   5   7  764.13  120.55
   1   4   7  598.76   96.55
  -4  -1   7  744.69   80.49
   5  -4   7  690.74   87.54
   4  -5   7  759.25  102.05
  -1  -4   7  763.01  101.33
   1  -5   7  869.64  110.36
   4   1   7  635.52   83.89
   5  -1   7  544.61   97.37
  -1  -4   7  879.23  101.21
   5  -4   7  923.18  105.25
   5  -4   7  837.09  112.25
   1  -5   7  749.97  101.35
   4  -5   7  927.00  109.04
   4  -5   7  875.81  104.76
  -5   1   7  642.44   96.69
  -4  -1   7  850.27  111.17
  -1  -4   7  724.08  104.85
   5  -4   7  815.57  104.57
  -4   5   7  889.38  111.49
  -5   4   7  887.67  122.45
  -5   4   7  833.44  104.24
  -5   1   7  835.29  108.58
  -5   4   8  554.43   91.10
  -5   1   8  399.27   95.30
  -4   5   8  489.09   94.89
  -4  -1   8  405.44   94.96
  -4   5   8  464.13   99.25
  -1   5   8  343.06  109.48
   4   1   8  452.15   90.07
   1   4   8  344.07   95.03
   4  -5   8  499.10   93.19
  -1  -4   8  467.86   93.07
   1  -5   8  526.34   98.20
   4   1   8  409.79   71.18
   5  -1   8  226.50   72.33
   5  -4   8  291.62   83.11
  -1  -4   8  449.25   84.20
   1  -5   8  450.54   87.26
   4  -5   8  425.89   90.46
   5  -4   8  365.80   82.94
   4  -5   8  456.95   80.62
  -5   1   8  488.73   86.24
  -4  -1   8  562.52   94.98
  -1  -4   8  327.20   85.02
  -4   5   9  265.70   95.60
  -4  -1   9  243.16   86.50
   4  -5   9  139.75   59.67
   5  -4   9  167.01   85.54
  -1  -4   9  102.66   62.03
   5  -4   9  302.82   94.42
  -1  -4   9  177.23   75.75
   0   5  -8  116.50   60.87
  -5   5  -8   81.19   74.00
  -5   0  -8  -21.54   81.29
   0   5  -8   -1.98   73.98
   0  -5  -8  122.41   81.12
   5   0  -7   38.99   60.74
   0   5  -7  141.28   55.51
  -5   5  -7   67.62   60.68
  -5   0  -7  -19.80   68.20
  -5   5  -7   39.61   65.27
   5  -5  -7   17.11   78.02
   5   0  -7   17.56   80.23
   0   5  -7   63.29   78.33
   0  -5  -7   41.35   59.53
  -5   0  -7   67.22   71.81
   0  -5  -7    9.26   75.04
   0   5  -6   88.57   46.38
  -5   5  -6  240.62   67.69
  -5   0  -6  153.80   71.04
   5  -5  -6  173.90   75.73
  -5   5  -6   57.46   59.40
   5   0  -6  181.72   74.54
   0   5  -6   89.74   58.24
   0  -5  -6  167.24   64.98
  -5   0  -6  181.98   72.19
   0  -5  -6  136.44   76.68
   5  -5  -6   69.81   59.80
   5   0  -6  114.02   63.06
   0   5  -5  374.82   65.70
  -5   5  -5  293.33   71.81
   5  -5  -5  213.14   76.91
  -5   0  -5  343.09   82.57
  -5   5  -5  355.50   71.32
   5   0  -5  308.17   82.98
   0   5  -5  171.69   68.39
   0  -5  -5  247.52   78.46
   5  -5  -5  338.90   71.10
  -5   0  -5  416.81   84.83
   5   0  -5  299.85   70.54
   0  -5  -5  308.47   81.05
   5  -5  -5  258.93   63.90
   0   5  -4  280.22   51.26
   5  -5  -4  299.43   81.37
   0   5  -4  214.93   55.29
  -5   5  -4  174.00   52.48
  -5   0  -4  207.98   70.45
  -5   5  -4  137.11   54.55
   5   0  -4  229.01   72.40
   0   5  -4  152.46   54.32
   5  -5  -4  203.72   62.45
   0  -5  -4  155.41   62.27
   5   0  -4  250.96   65.94
  -5   0  -4  201.81   70.38
   5  -5  -4  176.24   56.68
   0  -5  -4  246.08   69.16
   5  -5  -3  385.31   78.52
   0   5  -3  391.40   57.76
   0   5  -3  490.01   68.79
  -5   5  -3  317.98   64.45
  -5   0  -3  436.55   76.20
  -5   5  -3  473.35   73.70
  -5   0  -3  334.52   47.55
   5   0  -3  389.02   75.18
   5  -5  -3  285.47   68.05
   0   5  -3  374.96   58.88
   5   0  -3  290.44   65.59
   0  -5  -3  335.62   73.04
   0  -5  -3  361.39   61.21
  -5   0  -3  301.60   76.88
   5  -5  -3  371.11   69.83
   5  -5  -3  343.60   59.52
   0  -5  -3  314.46   71.46
   5  -5  -2  767.47   90.48
   0   5  -2  569.69   74.85
  -5   5  -2  637.78   78.15
  -5   0  -2  596.36   64.79
   0   5  -2  660.68   60.93
  -5   0  -2  648.30   81.43
  -5   5  -2  570.54   77.28
   0   5  -2  647.16   63.25
   5   0  -2  553.78   85.64
   0  -5  -2  669.66   88.12
   0  -5  -2  577.40   74.34
  -5   0  -2  718.77   97.47
   5  -5  -2  632.20   87.41
   5  -5  -2  674.19   70.96
   5   0  -2  636.50   62.62
   0  -5  -2  597.55   85.95
   0   5  -2  672.75   76.26
   5  -5  -2  716.29   87.69
   0   5  -1  325.51   56.61
   5   0  -1  304.40   53.58
   5   0  -1  329.55   66.66
  -5   0  -1  293.74   59.26
  -5   5  -1  313.14   63.14
   0   5  -1  374.52   48.87
   5  -5  -1  276.49   61.29
  -5   0  -1  336.23   53.85
   0   5  -1  250.51   41.89
   0  -5  -1  207.62   57.69
   0  -5  -1  316.77   58.83
  -5   0  -1  124.98   68.10
   5  -5  -1  264.41   66.64
   5  -5  -1  261.71   54.13
   0  -5  -1  243.77   65.54
   5  -5  -1  310.01   69.16
   0   5   0   88.83   45.44
   5   0   0  105.22   43.01
  -5   0   0   90.36   45.52
  -5   5   0   99.93   52.73
   5  -5   0  119.08   48.28
  -5   0   0   55.09   44.35
   5   0   0   21.63   45.16
   0  -5   0   49.64   45.32
   0  -5   0  106.77   52.09
  -5   0   0   63.16   58.94
   5  -5   0   94.74   50.14
   5  -5   0   29.96   39.04
   0  -5   0    9.19   56.13
   5  -5   0   18.21   44.59
   0   5   1  285.46   59.57
   5   0   1  298.30   56.23
   5  -5   1  252.87   57.93
  -5   0   1  285.77   61.71
   5   0   1  235.58   61.49
   0  -5   1  244.35   54.73
  -5   0   1  265.87   62.53
   5  -5   1  282.74   63.56
   0  -5   1  302.83   69.06
   5  -5   1  317.33   58.89
  -5   5   1  427.02   71.45
  -5   5   1  261.06   52.03
  -5   5   2  665.91   86.86
   0  -5   2  693.48   77.74
   5  -5   2  641.09   84.37
  -5   0   2  546.44   82.49
   5   0   2  678.92   87.03
   5  -5   2  676.56   89.30
  -5   0   2  618.38   75.24
   5   0   2  602.77   74.79
   5  -5   2  539.18   75.06
   0  -5   2  625.47   87.31
   0   5   2  663.16   86.42
  -5   0   2  561.74   82.06
  -5   5   2  594.30   75.86
  -5   5   3  373.85   70.13
   0   5   3  253.78   63.21
   5   0   3  432.66   67.02
   5  -5   3  388.04   67.68
  -5   0   3  385.49   83.63
   0  -5   3  315.42   58.16
   0  -5   3  417.07   74.07
   5  -5   3  366.70   66.33
  -5   0   3  353.01   54.31
   5  -5   3  362.70   75.51
   0  -5   3  293.29   70.75
  -5   5   3  491.06   72.19
  -5   0   3  322.87   67.86
  -5   5   4  205.26   71.78
   0   5   4  105.45   57.52
   5  -5   4  241.66   56.23
   0  -5   4  199.42   64.07
   5   0   4  140.14   54.93
   5   0   4  247.80   55.84
   5  -5   4  262.17   57.49
   5  -5   4  189.12   63.45
  -5   0   4  208.63   76.52
   5  -5   4  233.42   56.21
   0  -5   4  252.20   70.12
   5  -5   4  272.26   72.14
  -5   5   4  162.93   59.79
  -5   0   4  128.87   58.65
  -5   5   5  301.85   88.48
   0   5   5  360.46   79.08
   5  -5   5  220.55   54.82
   0  -5   5  176.25   66.78
   5   0   5  289.50   72.01
   5   0   5  238.42   58.70
   5  -5   5  408.81   70.66
   5  -5   5  328.92   72.89
  -5   0   5  293.18   85.93
   0  -5   5  309.80   81.81
   5  -5   5  243.58   75.72
  -5   5   5  329.05   74.46
  -5   0   5  323.48   76.29
  -5   5   6   33.32   65.85
   0   5   6   91.44   63.80
   5  -5   6  294.67   59.39
   0  -5   6  136.16   63.42
   5   0   6  103.13   70.64
   5   0   6  138.05   48.05
   0  -5   6   89.40   58.68
   5  -5   6   86.11   57.26
   5  -5   6  162.72   63.61
  -5   0   6  163.79   67.80
   0  -5   6  116.03   71.69
   5  -5   6   50.59   65.47
  -5   5   6  100.20   64.03
  -5   0   6  109.71   56.97
  -5   0   7  222.17   63.77
  -5   5   7  103.63   79.28
   0   5   7  197.86   69.17
   5  -5   7  136.25   66.35
   0  -5   7   47.87   64.11
   5   0   7   64.44   58.72
   0  -5   7   12.80   56.82
   5  -5   7   32.45   49.64
   5  -5   7   14.24   56.02
  -5   0   7  -23.93   55.02
   0  -5   7  113.38   64.99
   5  -5   7  101.99   68.24
  -5   5   7  105.38   66.60
  -5   5   8 -153.24   70.92
  -5   0   8  -31.66   66.66
   0  -5   8   89.39   65.76
   5  -5   8  -52.13   61.45
   5  -5   8   44.67   79.87
   0  -5   8   -3.04   57.81
   6  -3  -8  158.75   93.79
  -3   6  -8  163.15   89.79
  -3  -3  -8  424.28  103.26
   6  -3  -7  597.09  117.15
  -3   6  -7  680.15  110.10
  -6   3  -7  784.53  122.05
  -3   6  -7  662.79   94.99
   6  -3  -7  558.92   99.96
   3  -6  -7  699.29  104.24
   3  -6  -7  581.59  118.46
   3   3  -7  621.20  105.47
  -3   6  -7  751.57  104.54
  -3  -3  -7  796.69  116.24
   3  -6  -7  614.69  101.38
  -6   3  -7  808.08  125.93
   3  -6  -7  770.88  116.30
  -3  -3  -7  687.26  104.53
   6  -3  -6  569.77   92.75
  -3   6  -6  598.79   97.01
  -6   3  -6  445.28   94.80
   3  -6  -6  539.20   94.54
   6  -3  -6  519.52   95.18
   3  -6  -6  567.12  101.01
   3   3  -6  681.60  105.18
  -3   6  -6  437.15   84.30
  -3  -3  -6  753.66  112.28
  -3   6  -6  444.97   74.63
   3  -6  -6  507.34   98.78
  -6   3  -6  531.47  100.27
   3  -6  -6  492.20  100.83
  -3  -3  -6  478.91   88.73
  -3   6  -5  617.62   91.62
   3  -6  -5  501.12   90.55
  -6   3  -5  726.63  102.15
  -3   6  -5  626.16   85.58
   6  -3  -5  833.25  101.83
   3  -6  -5  666.94  101.71
   3   3  -5  607.90   92.79
   6  -3  -5  670.62   86.83
  -3  -3  -5  701.30  113.97
   3  -6  -5  685.42   97.27
  -6   3  -5  597.55   96.63
  -3  -3  -5  638.15   90.68
   3  -6  -5  621.55   97.42
   6  -3  -5  793.39  108.56
   6  -3  -4 1022.63   98.18
  -3   6  -4  818.98   96.62
   3  -6  -4  711.95  106.35
  -6   3  -4  873.59  103.93
  -3   6  -4 1044.19   98.67
   3  -6  -4  996.28  116.24
   6  -3  -4  999.70  106.93
  -6   3  -4  927.22  113.15
   3   3  -4  696.60   98.94
  -3  -3  -4  719.92  111.46
   3  -6  -4 1238.66  113.84
  -3  -3  -4  866.41   95.81
   3  -6  -4  963.12  104.70
   6  -3  -4  976.14  108.62
  -3   6  -3  864.44  101.26
   3  -6  -3  929.32  119.42
  -6   3  -3 1008.69  105.96
  -3   6  -3 1050.84   99.30
  -3  -3  -3  881.36  111.53
   6  -3  -3 1077.71  107.95
   3   3  -3  899.41  101.70
  -3   6  -3  876.56   85.71
  -6   3  -3  910.82  106.18
   3  -6  -3  908.06  104.56
  -3  -3  -3  973.81   93.87
   3  -6  -3  853.78  102.45
   6  -3  -3 1066.56  114.54
   6  -3  -3 1056.57  100.66
   3  -6  -2 1011.02  111.09
  -6   3  -2  907.51   96.41
  -3   6  -2  860.38   95.02
  -3  -3  -2  891.05   90.48
  -3  -3  -2  988.88  109.57
   6  -3  -2  843.97   99.07
   3   3  -2  723.37   89.62
   3  -6  -2  942.95  100.65
  -3  -3  -2  897.22   89.96
   3  -6  -2  815.29  100.03
   6  -3  -2 1014.39  112.24
   6  -3  -2  960.05   97.01
   3  -6  -1 1133.92  117.61
   3  -6  -1 1413.75  127.77
  -6   3  -1 1400.99  113.66
  -3  -3  -1 1219.23  108.72
  -3   6  -1 1278.83  112.69
  -3  -3  -1 1182.89  112.68
   6  -3  -1 1342.51  121.15
   3   3  -1 1387.82  110.91
   3  -6  -1 1338.15  122.08
   6  -3  -1 1411.82  125.53
  -3  -3  -1 1420.32  114.33
   3  -6  -1 1346.78  129.82
  -3   6  -1 1272.29  109.79
   6  -3  -1 1327.98  111.99
   3  -6   0 1730.92  138.29
   3  -6   0 2013.68  134.34
  -3  -3   0 1877.86  140.39
  -6   3   0 1789.11  133.73
  -3   6   0 1976.71  140.94
  -3  -3   0 1833.97  134.97
   6  -3   0 1751.50  139.66
   3   3   0 1893.29  132.86
   3  -6   0 1703.72  138.50
   6  -3   0 2284.78  140.90
   6  -3   0 1989.77  148.20
  -3  -3   0 2078.80  139.39
   3  -6   0 1816.93  150.06
  -3   6   0 1726.11  145.42
   6  -3   0 2212.49  144.73
   3  -6   1 1465.42  123.89
  -3  -3   1 1246.63  113.56
  -6   3   1 1367.70  111.23
  -3  -3   1 1227.65  103.48
   3   3   1 1354.20  105.05
   3  -6   1 1435.83  127.61
   6  -3   1 1519.79  109.90
  -3  -3   1 1175.13  111.53
   3  -6   1 1146.59  122.62
  -3   6   1 1154.42  122.52
   6  -3   1 1364.86  116.34
   3   3   1 1301.28  114.62
   3  -6   2  902.82   95.62
  -3  -3   2  843.22   83.10
  -3  -3   2  785.87   97.62
  -6   3   2  861.98   87.32
   3   3   2  835.63   85.21
   3  -6   2  876.70  101.27
   6  -3   2  840.06   86.63
   3  -6   2  782.84  100.21
   6  -3   2 1046.88  103.90
  -3   6   2  915.11  108.21
   3   3   2  665.89   89.34
   3  -6   3  879.31   96.16
  -3  -3   3  845.85  104.90
  -6   3   3 1130.00   95.42
  -3  -3   3  837.19   80.51
   3  -6   3  920.20  112.17
   6  -3   3 1128.14   90.42
   6  -3   3 1104.78  109.86
  -3   6   3 1056.93  115.18
   3   3   3  958.06  105.22
   3  -6   4 1013.18  103.55
  -3   6   4  894.16  113.78
   3  -6   4 1051.54  108.10
  -3  -3   4 1187.62  102.02
  -6   3   4  836.12   91.46
  -3  -3   4  850.62  112.84
   3  -6   4  880.56  113.36
   6  -3   4  985.18   93.04
   6  -3   4 1080.75  115.91
  -6   3   4  926.64  106.02
   3   3   4  785.83   96.07
  -3   6   5  505.75   99.40
  -3  -3   5  606.55   91.93
   3  -6   5  715.54   92.55
   3   3   5  566.89   88.83
   6  -3   5  529.82   94.00
   3  -6   5  543.43   87.43
  -6   3   5  607.91   80.47
   3  -6   5  593.05   79.53
  -3  -3   5  592.48   99.79
   3  -6   5  395.13   86.72
  -6   3   5  647.04   96.55
  -3   6   6  551.57  103.07
  -3  -3   6  669.34   91.64
   3  -6   6  470.84   87.84
   3   3   6  546.34   92.45
   6  -3   6  562.40   97.44
   3  -6   6  484.90   85.74
  -3  -3   6  668.64  108.92
  -6   3   6  483.28   93.95
  -3   6   7  717.70  110.65
  -3  -3   7  478.43   92.68
   3  -6   7  702.11  104.45
   3   3   7  447.61   92.61
   6  -3   7  562.65  104.10
   3  -6   7  681.12  110.06
  -3  -3   7  756.39  115.79
  -6   3   7  751.16  108.89
  -3  -3   8  261.88   79.65
  -2   6  -8   58.98   57.33
   4  -6  -8 -127.07   88.45
   6  -2  -7  170.23   72.13
   4  -6  -7   64.76   76.28
  -2   6  -7   39.25   67.89
  -4   6  -7  -23.28   72.81
  -6   2  -7   31.55   79.76
  -6   4  -7   38.13   62.10
  -4   6  -7   94.50   48.79
   6  -2  -7  -74.50   72.55
   2  -6  -7  108.26   68.70
   4   2  -7 -155.63   70.40
   2   4  -7  122.74   67.00
  -2   6  -7    7.59   60.96
  -2  -4  -7   -0.25   77.63
   2  -6  -7   -5.81   54.90
  -4  -2  -7  155.99   70.01
  -6   2  -7   -8.16   76.25
   4  -6  -7   66.54   63.47
  -6   4  -7   -9.44   74.10
   4  -6  -7  110.25   74.42
  -2  -4  -7   -3.95   69.00
   6  -2  -6  146.14   63.43
   6  -4  -6   86.16   67.64
  -2   6  -6  165.46   66.48
  -4   6  -6  155.32   68.58
   2  -6  -6  262.41   88.04
  -6   2  -6  143.06   74.93
  -6   4  -6  196.40   70.08
  -4   6  -6  198.74   62.23
   6  -4  -6  209.96   57.83
   6  -2  -6  199.78   79.78
   4   2  -6  128.86   73.25
   2  -6  -6   76.98   62.87
   2   4  -6   72.76   64.57
  -2   6  -6  243.76   71.99
  -2  -4  -6  222.48   85.86
   6  -4  -6  349.43   74.48
  -4  -2  -6  272.36   82.35
   4  -6  -6  159.96   77.17
  -6   2  -6  164.41   75.92
  -6   4  -6  310.79   89.41
   2  -6  -6  209.68   85.46
   4  -6  -6  129.77   73.83
  -2  -4  -6  167.29   75.74
   4  -6  -6  103.40   83.59
   6  -4  -5  436.71   84.88
  -6   4  -5  425.55   74.26
  -2   6  -5  387.24   76.00
  -4   6  -5  364.60   82.82
   2  -6  -5  338.23   93.44
  -6   2  -5  423.95   82.46
  -6   4  -5  386.39   81.95
  -2   6  -5  385.50   66.19
  -4   6  -5  332.33   73.06
   6  -4  -5  457.20   79.91
   6  -2  -5  324.30   80.19
   4   2  -5  325.80   84.12
   2  -6  -5  436.20   91.99
   2   4  -5  317.21   80.24
   6  -4  -5  317.09   74.64
  -2   6  -5  260.28   56.69
  -2  -4  -5  444.85   95.72
  -4  -2  -5  442.78   88.67
   2  -6  -5  513.40   80.04
   4  -6  -5  480.10   90.39
  -6   2  -5  410.87   89.93
   4  -6  -5  494.76   88.68
  -2  -4  -5  315.40   78.06
   2  -6  -5  357.40   87.42
   4  -6  -5  276.00   97.32
   6  -2  -5  325.94   78.17
   6  -4  -4  388.84   84.28
   2  -6  -4  393.00   99.70
   2   4  -4  465.92   64.15
  -6   4  -4  407.82   64.66
  -2   6  -4  275.00   72.10
  -4   6  -4  589.02   86.53
  -6   2  -4  378.26   75.13
  -6   4  -4  504.08   81.06
  -2   6  -4  428.24   65.47
  -4   6  -4  404.25   75.17
   6  -4  -4  400.52   72.84
   6  -4  -4  415.02   76.68
   6  -2  -4  484.89   83.93
   4   2  -4  379.12   78.48
   2  -6  -4  465.50   89.20
   2   4  -4  386.87   76.96
  -2  -4  -4  317.83   82.69
  -4  -2  -4  407.12   86.13
   4   2  -4  355.36   67.69
   2  -6  -4  368.13   75.52
   4  -6  -4  382.98   79.46
   4  -6  -4  448.54   98.41
  -6   2  -4  412.59   87.77
   6  -2  -4  416.53   84.32
   4  -6  -4  304.59   71.21
  -2  -4  -4  356.11   75.61
   2  -6  -4  416.92   84.78
   2  -6  -3  463.27   95.16
   2   4  -3  472.65   64.72
  -6   4  -3  571.53   70.50
  -2   6  -3  571.27   84.74
  -4   6  -3  527.38   83.29
  -6   2  -3  478.01   77.52
  -6   4  -3  559.02   83.86
   6  -2  -3  482.44   73.60
  -4   6  -3  575.47   86.93
  -2   6  -3  447.13   67.85
   6  -4  -3  540.77   79.34
   4   2  -3  551.77   76.97
   6  -4  -3  616.00   79.83
   6  -2  -3  599.42   90.23
   4   2  -3  473.03   80.55
   2  -6  -3  575.29   89.89
   2   4  -3  373.69   70.76
   4  -6  -3  432.28   87.40
  -2  -4  -3  515.21   92.20
  -4  -2  -3  447.16   61.10
   4  -6  -3  508.96   85.87
  -4  -2  -3  447.12   94.25
   6  -2  -3  489.30   86.53
   2  -6  -3  580.99   84.52
   4  -6  -3  604.81   87.28
  -6   2  -3  481.62   86.55
  -4  -2  -3  614.60   67.24
   4  -6  -3  600.86   79.99
  -2  -4  -3  394.89   74.08
   2  -6  -3  502.10   86.33
   6  -4  -3  578.53   93.26
  -2   6  -2  433.64   69.90
   2   4  -2  470.94   72.30
   2   4  -2  483.52   58.58
  -6   4  -2  413.08   57.37
  -2   6  -2  440.99   75.35
  -4   6  -2  410.24   70.93
   2  -6  -2  438.31   71.51
   6  -2  -2  447.41   70.21
  -6   2  -2  395.58   63.60
  -6   4  -2  457.89   78.18
  -6   2  -2  481.04   62.65
  -4   6  -2  394.61   72.18
  -2   6  -2  476.87   67.91
   6  -4  -2  484.75   77.57
   6  -4  -2  471.31   69.76
   6  -2  -2  507.33   82.58
   4   2  -2  351.20   74.89
   2   4  -2  397.55   68.37
   2  -6  -2  415.24   76.12
   4  -6  -2  496.41   88.65
  -4  -2  -2  462.46   64.90
   6  -2  -2  502.60   79.20
   4  -6  -2  432.53   77.68
  -2  -4  -2  296.93   71.70
  -4  -2  -2  366.47   79.64
   2  -6  -2  359.41   73.73
   4  -6  -2  449.15   82.29
  -6   2  -2  372.30   80.83
   6  -4  -2  397.97   80.37
  -4  -2  -2  374.26   52.83
   4  -6  -2  406.29   71.38
  -2  -4  -2  401.44   72.62
   2  -6  -2  309.77   76.44
  -4   6  -1  123.88   39.31
  -2   6  -1  121.18   52.24
   4   2  -1  100.02   35.90
   2   4  -1   81.09   47.87
   2   4  -1  108.64   37.20
  -6   4  -1  104.28   39.77
   6  -2  -1  169.56   52.42
  -6   2  -1  217.15   50.54
  -6   2  -1  106.07   46.08
   6  -4  -1  103.27   48.05
  -6   4  -1  133.57   56.50
  -4   6  -1  139.31   55.55
  -2   6  -1  128.89   49.60
   4  -6  -1   16.29   46.33
   2  -6  -1  116.67   48.43
   6  -4  -1   67.65   49.51
   6  -2  -1  232.02   70.26
   6  -2  -1  159.03   61.81
   4   2  -1  288.70   64.30
   2   4  -1   87.88   45.71
   2  -6  -1  126.91   55.83
  -4  -2  -1  128.21   48.35
   4  -6  -1  222.63   59.44
  -2  -4  -1  129.40   52.06
  -2  -4  -1  112.68   57.51
  -4  -2  -1  129.84   56.83
   2  -6  -1  115.70   56.76
   4  -6  -1  199.97   62.23
   6  -4  -1  122.79   56.79
   6  -4  -1  127.27   63.61
  -6   2  -1  215.37   66.48
  -4  -2  -1   89.85   39.46
   4  -6  -1  131.73   52.84
  -2  -4  -1  112.11   55.90
   2  -6  -1  142.18   65.39
  -4   6   0   22.10   39.37
  -2   6   0   -6.45   52.22
   4   2   0   12.37   31.60
   2   4   0  -83.16   51.04
   2   4   0  -35.55   32.74
  -6   4   0  -10.35   32.65
   6  -2   0   40.44   46.21
   4  -6   0  -29.62   41.77
   6  -4   0  -38.56   46.49
  -6   2   0   26.38   43.98
  -6   2   0   62.94   40.08
  -6   4   0    7.71   49.18
  -4   6   0   32.35   44.64
   6  -2   0   -0.18   54.05
   4   2   0   45.33   48.37
   2   4   0   38.99   42.23
   2  -6   0  -36.47   43.34
  -4  -2   0    3.85   42.37
   4  -6   0  -27.35   43.11
  -2  -4   0   10.87   42.12
  -2  -4   0    5.10   43.22
   6  -4   0   40.13   59.52
  -4  -2   0  -26.87   41.81
   2  -6   0   21.98   49.65
   4  -6   0  -49.03   56.67
   6  -4   0  -23.42   45.84
  -6   2   0  -26.11   57.06
  -4  -2   0  -32.85   35.40
  -2  -4   0   -6.18   45.34
   4  -6   0  -30.59   49.75
   2  -6   0   12.46   57.93
  -4  -2   0  -51.36   33.90
  -4   6   1  130.33   50.67
  -2   6   1   70.80   51.95
   4   2   1  118.88   44.53
   2   4   1   47.26   47.07
   6  -2   1  159.76   48.87
   4  -6   1  141.59   58.71
   6  -4   1  170.77   56.35
  -6   2   1   57.53   62.29
  -6   2   1   90.38   40.81
  -6   4   1  159.35   53.32
  -4   6   1  125.58   57.71
   6  -2   1  126.68   54.63
   4   2   1  109.73   50.18
   2   4   1  132.04   43.85
   4  -6   1   60.60   53.25
  -4  -2   1  110.25   52.75
   6  -4   1  109.52   57.97
  -2  -4   1  137.35   48.90
  -2  -4   1   99.56   51.78
  -4  -2   1  160.65   50.81
   2  -6   1   21.50   53.50
   4  -6   1  166.30   63.76
   6  -4   1   91.50   53.64
   6  -2   1  129.63   45.28
  -6   2   1  141.28   67.84
  -2  -4   1  129.26   56.81
   4  -6   1  127.44   55.45
   2  -6   1  140.65   65.64
  -4  -2   1   66.57   36.10
  -4   6   2  381.15   78.77
  -2   6   2  466.58   80.75
   2   4   2  403.11   75.71
   4   2   2  423.80   70.96
   6  -2   2  350.16   64.31
   6  -4   2  482.65   75.28
  -6   2   2  412.18   83.88
  -6   2   2  427.58   56.84
  -6   4   2  475.25   72.84
   6  -4   2  493.37   83.43
   4  -6   2  503.69   76.65
   4   2   2  380.93   69.39
  -4  -2   2  370.42   70.73
  -2  -4   2  406.95   62.12
  -2  -4   2  338.85   75.18
  -4  -2   2  412.97   61.90
   2  -6   2  296.10   74.37
   4  -6   2  414.91   74.61
   6  -4   2  501.73   77.34
   6  -2   2  378.29   56.15
  -6   2   2  417.25   76.44
  -2  -4   2  279.09   68.31
   4  -6   2  382.00   69.08
   2  -6   2  421.57   79.81
  -4   6   2  460.23   64.84
  -4  -2   2  435.99   55.29
  -4   6   3  606.03   94.26
  -2   6   3  457.27   85.22
   2   4   3  413.27   74.96
   4   2   3  414.54   76.75
   6  -2   3  397.81   74.32
   6  -4   3  570.69   89.72
  -6   2   3  386.04   85.44
  -6   4   3  414.93   73.53
   4  -6   3  471.59   76.77
  -4  -2   3  452.54   84.97
  -2  -4   3  411.02   61.17
  -2  -4   3  362.74   78.52
  -4  -2   3  513.10   63.64
   2  -6   3  432.67   69.46
   2  -6   3  426.67   90.84
   4  -6   3  488.94   91.80
   6  -4   3  434.36   76.63
  -6   2   3  560.08   79.91
   2  -6   3  613.97   90.03
  -6   2   3  469.67   81.79
  -4  -2   3  456.83   65.90
  -4  -2   4  354.67   66.60
  -4   6   4  346.91   77.94
  -2   6   4  343.35   86.57
   2  -6   4  578.48   81.50
   4  -6   4  447.42   75.66
  -2  -4   4  355.53   71.15
   2   4   4  389.13   79.64
   4   2   4  335.86   69.03
   6  -2   4  386.38   72.38
   6  -4   4  476.48   77.22
  -6   2   4  490.35   91.61
  -6   4   4  341.65   71.46
   4  -6   4  339.68   67.63
  -4  -2   4  404.47   84.20
  -2  -4   4  284.70   76.05
   2  -6   4  412.79   68.40
   2  -6   4  362.11   85.80
   4  -6   4  286.92   78.81
   6  -4   4  436.50   72.47
  -6   2   4  457.87   70.14
  -6   4   4  476.22   83.29
  -6   2   4  461.44   84.76
  -4  -2   5  480.12   76.26
  -4   6   5  312.55   77.55
  -2   6   5  266.54   88.08
   4  -6   5  562.53   79.73
  -2  -4   5  479.74   80.66
   2  -6   5  192.69   67.86
   2   4   5  287.52   76.80
   4   2   5  434.18   75.97
   6  -2   5  368.44   80.39
   4  -6   5  497.43   83.02
   6  -4   5  319.74   71.57
  -6   2   5  470.00   92.56
  -6   4   5  289.93   69.67
   4  -6   5  382.13   74.82
  -4  -2   5  309.96  101.96
  -2  -4   5  241.09   71.87
   4  -6   5  278.09   84.87
   6  -4   5  359.42   77.74
  -6   4   5  371.34   79.96
  -6   2   5  327.30   75.81
  -4  -2   6  184.73   71.10
  -4   6   6  162.27   86.34
  -2   6   6  148.01   71.57
   2   4   6  208.91   67.23
   4  -6   6   69.88   55.03
  -2  -4   6   99.89   66.68
   2  -6   6   -5.42   38.22
   4   2   6  214.30   69.25
   6  -2   6  288.38   75.07
   6  -4   6  125.55   58.45
   2  -6   6  177.16   72.52
   4  -6   6  221.56   77.82
  -6   2   6  233.07   78.60
   4  -6   6  170.55   58.02
  -4  -2   6  -21.90   66.28
  -2  -4   6   90.35   72.05
   4  -6   6  145.42   84.19
  -6   4   6  133.59   58.88
  -6   2   6  147.32   74.18
  -4  -2   7 -100.13   72.66
  -4   6   7  -42.82   64.17
   2   4   7   83.37   73.63
  -2  -4   7   55.08   63.32
   4  -6   7   69.19   56.53
   2  -6   7   11.66   60.19
   4   2   7   19.56   54.95
   6  -4   7   32.21   58.21
   4  -6   7    2.52   70.76
  -2  -4   7  -68.62   71.46
  -6   4   7  -39.26   63.18
   4   2   8    1.06   65.25
   6  -1  -7   30.65   76.43
   1   5  -7  -60.96   51.29
  -6   5  -7   71.89   59.55
  -5  -1  -7   36.94   79.09
  -6   1  -7   44.35   75.21
   1  -6  -7  204.38   89.64
   1   5  -7 -149.36   74.46
  -1   6  -7 -275.26   84.42
   5  -6  -7  115.54   65.27
   1   5  -6  179.70   64.52
  -6   5  -6   35.29   67.41
  -1   6  -6  168.22   72.00
  -5   6  -6  112.33   64.47
   6  -5  -6   64.41   79.75
   1  -6  -6  236.28   95.87
  -5  -1  -6   25.90   78.37
  -6   1  -6   47.59   71.80
  -6   5  -6  122.63   69.89
  -5   6  -6   55.55   61.93
   6  -1  -6  139.36   75.58
   5   1  -6    4.76   74.24
   1  -6  -6  157.32   75.41
   1   5  -6  174.20   79.61
  -1  -5  -6  149.30   74.27
   5  -6  -6   34.56   70.55
   6  -5  -6  123.97   64.29
  -5  -1  -6  142.82   78.08
  -6   1  -6   94.41   76.71
   5  -6  -6  183.33   79.09
   5  -6  -6  275.91   70.79
  -1  -5  -6  169.75   79.13
   1  -6  -6  -48.92   74.35
   6  -1  -6  187.12   69.99
   1  -6  -5  170.21   80.82
   6  -5  -5  241.66   87.02
   1   5  -5  178.68   58.27
   1   5  -5  199.61   61.18
  -6   5  -5  272.82   64.58
  -1   6  -5  163.86   60.43
  -5   6  -5  348.62   72.18
  -5  -1  -5  163.55   80.73
  -6   1  -5  118.59   71.66
  -6   5  -5  190.95   72.76
  -5   6  -5  163.27   68.93
   5  -6  -5  177.51   81.83
   6  -1  -5  200.28   79.60
   5   1  -5  190.59   77.25
   1   5  -5  185.12   61.42
   1  -6  -5  245.49   79.41
  -1  -5  -5  203.40   80.28
   6  -5  -5  194.09   67.89
  -5  -1  -5  262.68   87.06
  -6   1  -5   74.63   69.26
   5  -6  -5  178.06   84.61
   5   1  -5  182.81   59.30
   5  -6  -5  264.98   72.65
  -1  -5  -5  297.60   85.83
   1  -6  -5  254.27   82.88
   6  -1  -5  229.96   75.65
   6  -5  -4  167.53   76.69
   1   5  -4  152.36   58.41
   1   5  -4  173.45   56.75
  -6   5  -4   30.14   45.57
  -1   6  -4  142.31   51.24
  -5   6  -4  156.59   64.29
  -5  -1  -4   22.21   63.58
  -6   1  -4   32.43   58.65
  -6   5  -4  117.35   66.50
  -5   6  -4  164.00   64.41
   5  -6  -4   89.25   71.43
   6  -1  -4  122.95   64.93
   5   1  -4  181.47   71.22
   1   5  -4  168.84   58.83
   1  -6  -4  173.64   72.06
   6  -5  -4  295.90   67.47
  -1  -5  -4   77.68   71.58
   5  -6  -4  117.21   70.08
   5   1  -4   98.77   63.51
  -5  -1  -4   58.78   59.74
  -6   1  -4   41.14   61.08
   5  -6  -4  201.14   73.90
   6  -1  -4   93.63   62.14
   5  -6  -4  141.79   60.63
  -1  -5  -4   87.31   73.33
   1  -6  -4  163.27   74.76
   1  -6  -4  336.33   78.31
   6  -5  -3  339.90   81.81
   1   5  -3  177.10   57.36
   1   5  -3  345.27   62.62
  -6   5  -3  370.13   63.45
  -1   6  -3  219.22   61.06
  -5   6  -3  235.11   62.09
   5  -6  -3  314.64   85.73
  -6   1  -3  222.60   65.30
  -6   5  -3  365.18   73.01
  -5   6  -3  218.84   67.97
   6  -5  -3  213.54   61.04
   6  -1  -3  260.18   75.79
   5   1  -3  311.86   81.37
   5   1  -3  287.76   69.45
   1   5  -3  172.74   56.60
   1  -6  -3  233.31   73.15
  -1  -5  -3  177.61   65.97
   5  -6  -3  310.71   69.71
   6  -1  -3  343.09   74.71
  -5  -1  -3  185.22   72.63
   1  -6  -3  307.96   67.22
  -6   1  -3  274.79   81.14
   5  -6  -3  289.93   78.76
   6  -5  -3  289.12   80.29
   5  -6  -3  272.48   59.42
  -1  -5  -3  295.93   74.89
   1  -6  -3  329.04   82.43
  -1   6  -2  519.43   76.07
   1   5  -2  382.45   69.49
   5  -6  -2  453.82   82.81
   1   5  -2  464.12   69.72
  -6   5  -2  545.19   77.64
  -1   6  -2  587.31   78.58
  -5   6  -2  580.96   82.49
   6  -1  -2  456.57   65.10
  -6   1  -2  483.21   72.37
  -6   5  -2  502.12   82.87
  -5   6  -2  498.91   79.32
  -1   6  -2  441.11   61.34
  -6   1  -2  530.54   63.09
   6  -5  -2  581.97   87.04
   6  -1  -2  517.33   88.86
   5   1  -2  404.18   80.97
   6  -1  -2  475.39   84.61
  -5  -1  -2  432.51   61.85
   1  -6  -2  438.85   80.10
   5  -6  -2  397.34   80.11
  -1  -5  -2  380.19   80.10
  -5  -1  -2  429.59   90.94
   1  -6  -2  530.18   84.51
   5  -6  -2  488.86   88.00
  -6   1  -2  522.23   97.12
   6  -5  -2  421.02   85.09
   5  -6  -2  658.29   81.09
  -1  -5  -2  401.06   82.32
   1  -6  -2  395.33   79.87
   6  -5  -2  424.84   84.52
  -1   6  -1  225.33   61.42
   1   5  -1  171.83   56.07
   5  -6  -1  240.80   66.91
   1   5  -1  237.59   56.66
  -6   5  -1  202.61   53.32
   6  -1  -1  212.68   54.92
  -6   1  -1  205.26   51.10
  -6   5  -1  265.89   69.70
  -5   6  -1  323.09   74.74
  -1   6  -1  197.34   46.17
  -6   1  -1  146.09   46.21
   6  -5  -1  284.08   68.36
   6  -1  -1  249.58   74.56
   5   1  -1  352.02   76.44
  -5  -1  -1  206.58   54.69
   5  -6  -1  173.92   66.17
   1  -6  -1  213.20   62.05
  -1  -5  -1  165.85   59.84
  -5  -1  -1  291.77   67.26
   1  -6  -1  201.70   67.23
   5  -6  -1  291.98   72.26
   6  -5  -1  370.12   80.35
  -6   1  -1  273.20   83.87
   5  -6  -1  274.15   64.67
  -1  -5  -1  166.72   70.52
   1  -6  -1  137.05   74.63
   6  -5  -1  133.30   60.95
  -1   6   0   53.81   52.16
   5  -6   0  155.02   59.83
   1   5   0  109.12   52.14
   5   1   0   40.89   38.59
   6  -1   0  102.52   51.76
  -6   5   0   59.66   53.22
  -5   6   0   40.29   45.02
   6  -5   0   79.30   56.08
  -6   1   0  102.80   50.81
   5  -6   0   37.51   49.65
  -5  -1   0   81.36   51.93
   6  -1   0   -5.81   51.68
   5   1   0  141.94   60.29
   1  -6   0   74.06   49.98
  -1  -5   0  126.12   58.60
  -5  -1   0  107.74   56.73
   1  -6   0  139.26   61.91
   5  -6   0  130.00   59.00
   6  -5   0  108.01   62.30
  -6   1   0   79.97   70.07
   6  -5   0   51.45   54.79
   5  -6   0   46.92   41.41
  -1  -5   0   68.58   66.14
   1  -6   0   29.05   67.09
  -5   6   0  144.36   41.64
  -5   6   1  277.77   51.24
   5  -6   1  248.60   57.59
  -1   6   1  184.74   61.75
   1   5   1  191.21   63.15
   5   1   1  205.59   52.44
   6  -1   1  190.50   60.94
   6  -5   1  256.05   72.99
  -6   5   1  346.03   69.37
  -5   6   1  248.06   65.71
  -6   1   1  289.07   66.92
   5  -6   1  332.38   65.31
  -5  -1   1  165.01   59.40
   6  -1   1  233.41   62.02
   5   1   1  180.14   64.63
   1  -6   1  202.21   60.59
  -1  -5   1  138.66   52.03
   1  -6   1  287.25   73.22
  -5  -1   1  278.80   64.75
   5  -6   1  191.10   67.30
   6  -5   1  179.41   68.54
  -6   1   1  204.87   64.85
   6  -5   1  320.43   75.94
   5  -6   1  155.56   54.43
  -1  -5   1  240.02   71.48
   1  -6   1  193.28   81.13
  -5  -1   1  298.77   63.89
  -5   6   2  402.42   72.22
   5  -6   2  507.85   72.16
  -1   6   2  383.48   77.26
   1   5   2  426.07   75.05
   5   1   2  471.87   71.44
   6  -1   2  552.83   78.14
   6  -5   2  425.09   73.08
  -6   1   2  476.56   86.30
  -6   5   2  422.98   79.62
  -5   6   2  480.65   85.07
   5  -6   2  589.25   86.97
  -5  -1   2  486.23   86.68
   6  -1   2  450.30   87.18
   5   1   2  434.22   79.26
   1  -6   2  551.07   81.30
  -1  -5   2  453.10   72.75
  -1  -5   2  362.30   80.85
  -5  -1   2  459.16   72.94
   6  -5   2  696.50   94.87
   5  -6   2  584.53   97.47
   6  -5   2  449.45   84.30
  -6   1   2  524.25   79.20
  -1  -5   2  454.16   83.68
   1  -6   2  412.93   84.70
  -5  -1   2  466.14   77.86
  -5   6   3  334.20   75.37
  -1   6   3  187.84   60.99
   5   1   3  192.95   55.31
   1   5   3  421.79   84.56
   5   1   3  223.78   65.32
   6  -1   3  370.49   67.44
   6  -5   3  255.68   70.42
  -6   1   3  163.76   76.32
  -6   5   3  338.64   70.06
   5  -6   3  287.69   64.34
  -5  -1   3  247.51   77.14
  -1  -5   3  338.10   62.60
   6  -5   3  263.14   79.95
  -1  -5   3  320.02   77.12
  -5  -1   3  235.67   51.41
   5  -6   3  273.01   77.95
   6  -5   3  232.77   68.40
  -6   1   3  360.48   63.54
   1  -6   3  267.62   78.06
  -6   5   3  380.64   74.62
  -6   1   3  238.88   66.70
  -5   6   3  263.64   58.38
  -5  -1   3  230.85   63.01
  -5   6   4  232.40   92.41
  -1   6   4  248.71   74.20
   5   1   4  131.84   55.36
   1   5   4  142.12   74.95
   5   1   4  122.60   55.80
   6  -1   4  175.51   50.99
   6  -1   4  190.32   65.37
   6  -5   4  195.44   52.38
   6  -5   4  198.52   63.64
  -6   1   4   98.55   65.82
   5  -6   4  181.02   56.66
  -6   5   4  115.30   56.80
  -5  -1   4  195.23   80.11
   6  -5   4   61.92   63.96
  -1  -5   4  153.01   64.28
   5  -6   4   85.29   65.93
   6  -5   4  284.30   67.68
  -6   5   4  160.96   65.50
  -6   1   4  191.97   69.08
  -5   6   4  133.91   58.20
  -5  -1   4  125.60   65.00
  -5   6   5  159.30   78.72
  -1   6   5  240.75   77.85
   1   5   5  261.70   77.50
   5   1   5  175.56   65.16
   1  -6   5  239.13   76.32
  -1  -5   5  161.91   69.98
   5  -6   5  259.93   68.34
   5   1   5  159.76   59.32
   6  -1   5  155.69   51.94
   5  -6   5  350.52   72.31
   6  -5   5  202.53   59.67
   6  -5   5  310.55   73.14
   5  -6   5  286.68   73.35
  -6   1   5  172.76   77.11
  -5  -1   5  104.03   77.41
   6  -5   5  180.55   70.19
  -1  -5   5  178.91   75.54
   5  -6   5  254.96   85.77
   6  -5   5  220.20   65.94
  -6   5   5  322.90   80.68
  -6   1   5  215.76   72.83
  -5   6   5  166.55   55.43
  -5  -1   5  277.51   72.51
  -5  -1   6  158.29   75.66
  -5   6   6  171.12   85.79
  -1   6   6  123.64   79.81
   1   5   6   93.84   67.71
   5   1   6   64.67   66.18
   5  -6   6   93.78   52.09
  -1  -5   6  225.45   80.49
   1  -6   6  154.44   72.29
   5   1   6  -26.38   50.75
   6  -1   6   57.08   56.41
   5  -6   6  119.96   67.78
   6  -5   6   66.39   54.00
   6  -5   6   46.43   62.84
   5  -6   6   88.51   62.76
  -6   1   6  128.37   79.11
  -5  -1   6   17.80   69.79
  -1  -5   6   98.46   62.19
   5  -6   6   83.16   71.53
   6  -5   6   83.90   64.51
  -6   5   6   -1.27   56.00
  -6   1   6   35.10   65.43
  -5  -1   7   -4.30   72.13
   5  -6   7   67.40   49.94
   5   1   7   40.76   60.13
   5  -6   7   33.61   56.83
   5  -6   7  118.48   65.62
   0   6  -6  448.13   82.44
  -6   6  -6  474.68   96.74
   0   6  -5  222.08   67.71
  -6   6  -5  140.19   63.48
   6  -6  -5  251.56   95.91
   6  -6  -5  208.14   85.65
   6   0  -5  128.40   77.53
   0   6  -4  403.94   81.33
  -6   6  -4  339.31   76.25
   6  -6  -4  436.15  102.28
  -6   6  -4  190.89   69.65
   6   0  -4  440.31   92.77
   0  -6  -4  186.92   74.51
   6  -6  -4  306.13   79.43
  -6   0  -4  297.24   90.49
   6   0  -4  503.56   94.71
   6  -6  -4  453.63   96.40
   0  -6  -4  405.04   90.66
   0   6  -3  540.91   78.54
   6  -6  -3  454.13   89.34
   0   6  -3  513.41   81.30
  -6   6  -3  382.85   74.34
  -6   6  -3  498.38   88.52
   6   0  -3  446.99   97.68
   0  -6  -3  653.83  106.62
   6  -6  -3  594.01   98.22
   6   0  -3  539.79   91.30
  -6   0  -3  310.39   90.58
   6  -6  -3  443.68   91.43
   0  -6  -3  414.76   90.58
   6  -6  -2  489.41   99.04
   0   6  -2  563.70   78.81
   0   6  -2  708.75   87.77
  -6   6  -2  577.28   84.08
  -6   6  -2  707.50   97.89
   6   0  -2  664.22   96.62
   6   0  -2  640.37  103.10
   6  -6  -2  686.39   97.22
   0  -6  -2  470.30   90.77
  -6   0  -2  592.73  110.16
   6  -6  -2  732.24  108.17
   0  -6  -2  433.28   97.19
   6  -6  -1 1278.86  131.85
   0   6  -1 1341.73  121.18
  -6   6  -1 1129.06  111.58
  -6   0  -1 1135.39  105.36
  -6   6  -1 1200.85  121.40
   0  -6  -1 1106.58  118.37
   6   0  -1 1093.45  121.54
   6  -6  -1 1252.94  131.18
  -6   0  -1 1039.97  130.98
   0  -6  -1 1163.26  133.82
   0   6  -1 1067.20  111.54
   6  -6  -1 1066.76  123.10
   6  -6   0 2461.04  175.60
  -6   0   0 1810.58  145.59
  -6   6   0 2249.72  167.71
   0  -6   0 1800.36  151.34
   6   0   0 1900.01  162.04
  -6   0   0 2106.93  169.04
   6  -6   0 2137.91  169.26
   0  -6   0 2197.91  180.84
   6   0   0 1928.75  139.36
   0   6   0 2006.79  153.51
   6  -6   0 2257.51  163.33
  -6   0   1 1065.06  114.45
  -6   6   1 1320.83  128.30
   0  -6   1 1131.28  116.02
   6   0   1 1301.06  129.95
  -6   0   1 1026.95  115.88
   6  -6   1 1178.33  121.99
   0  -6   1 1246.41  138.34
   6   0   1 1198.95  112.61
   0   6   1  996.48  112.34
   6  -6   1 1423.52  126.59
   6  -6   1 1255.15  124.18
   0   6   2  628.35   93.43
   6   0   2  678.44   92.18
  -6   6   2  626.96  104.36
   6  -6   2  635.30   94.99
  -6   0   2  417.36   87.66
   6   0   2  632.54   99.30
   0  -6   2  645.21   87.32
  -6   0   2  584.78   86.65
   6  -6   2  673.37  103.80
   0  -6   2  452.63   94.07
   6  -6   2  577.36   88.62
  -6   0   2  702.16   96.54
   0   6   3  495.23   89.06
   6   0   3  532.57   83.01
   6  -6   3  469.06   84.39
  -6   6   3  533.25   91.87
  -6   0   3  302.35   84.78
   0  -6   3  342.49   68.71
   6  -6   3  492.14   97.19
  -6   6   3  491.67   88.12
  -6   0   3  426.65   93.15
   0   6   4  395.10   97.62
   6   0   4  344.45   79.74
   6   0   4  311.42   72.36
   6  -6   4  386.82   87.23
  -6   6   4  348.58   81.73
  -6   0   4  399.56   97.05
   6  -6   4  274.48   90.00
  -6   6   4  374.80   83.11
  -6   0   4  412.57   87.32
  -6   6   4  172.61   72.94
   6   0   5  327.29   76.71
   6   0   5  121.03   52.21
   6  -6   5  417.92   84.50
   6  -6   5  171.43   84.80
  -6   6   5  280.72   82.13
  -6   6   5  264.31   90.63
  -6   0   5  195.16   62.49
   6  -6   6  334.23   77.95
  -6   6   6  424.85   90.95
   4  -7  -6   79.71   75.21
   3  -7  -5   91.04   79.25
   4  -7  -5  352.87   98.51
  -7   3  -5   41.16   78.00
  -4   7  -5  106.16   54.69
   7  -4  -5   88.14   62.68
   7  -3  -5   44.45   70.31
   4   3  -5  244.17   72.98
   3   4  -5  215.78   78.07
   3  -7  -5  100.06   72.56
   4  -7  -5  182.92   74.85
  -3  -4  -5  299.00   82.15
   4  -7  -5  139.58   74.23
   4  -7  -4   32.11   48.83
  -3   7  -4   86.16   67.61
  -4   7  -4   76.02   58.62
  -7   3  -4  172.03   70.13
  -7   4  -4   89.64   64.48
  -3   7  -4   88.51   52.27
  -4   7  -4  124.63   57.24
   7  -4  -4  108.67   58.24
   7  -4  -4   48.52   69.62
   7  -3  -4   34.37   67.51
   4   3  -4  179.91   72.92
   3   4  -4  111.88   62.62
  -3  -4  -4   56.86   76.00
  -4  -3  -4  -16.35   68.98
   3  -7  -4  239.52   79.06
   4  -7  -4   88.01   69.81
  -7   3  -4  103.90   75.67
  -7   4  -4  167.99   83.93
  -3  -4  -4  262.81   72.41
   4  -7  -4  157.14   81.52
   3  -7  -4  216.54   83.83
   7  -3  -4   93.92   65.10
   3  -7  -4 -119.68   84.20
   7  -4  -4  124.73   82.78
   4  -7  -3  212.02   81.27
  -3   7  -3  251.49   78.02
  -4   7  -3  227.13   74.46
  -7   3  -3  238.33   69.45
  -7   4  -3  181.44   69.26
  -4   7  -3  350.10   71.59
  -3   7  -3  303.49   65.25
   7  -3  -3  164.39   63.53
   7  -4  -3  148.79   63.02
   7  -4  -3  179.59   65.77
   7  -3  -3  218.42   78.22
   4   3  -3  258.28   78.67
   3   4  -3  213.64   69.61
  -3  -4  -3   64.50   63.21
  -4  -3  -3  210.35   79.82
   3  -7  -3  143.00   76.26
   4  -7  -3  113.05   65.11
  -7   3  -3   80.43   62.23
   7  -3  -3   38.14   68.57
  -7   4  -3  105.85   69.62
  -3  -4  -3  197.08   69.20
   4  -7  -3  258.00   73.91
   3  -7  -3  250.12   80.04
   7  -4  -3  124.35   79.36
   3   4  -2  398.98   81.77
  -3   7  -2  405.16   83.53
  -4   7  -2  526.04   87.77
  -7   3  -2  456.57   80.87
  -7   4  -2  415.90   82.17
   7  -3  -2  266.81   69.66
  -4   7  -2  306.04   71.92
  -3   7  -2  336.77   70.09
   7  -4  -2  327.80   82.35
   7  -4  -2  228.70   75.28
   7  -3  -2  322.22   82.87
   4   3  -2  350.05   75.54
   3   4  -2  403.73   75.42
  -3  -4  -2  365.89   81.15
  -4  -3  -2  333.08   71.92
  -4  -3  -2  331.10   78.46
   3  -7  -2  448.48   88.35
   7  -3  -2  342.50   86.39
   4  -7  -2  451.50   89.15
   7  -4  -2  364.00   79.28
  -7   3  -2  331.15   89.82
   7  -4  -2  463.98   95.83
  -3  -4  -2  333.77   75.59
   4  -7  -2  315.85   84.19
   3  -7  -2  468.34   98.97
   3   4  -1  216.51   67.03
   7  -3  -1  164.69   65.43
  -7   3  -1  174.01   63.73
  -7   3  -1  147.06   63.86
  -7   4  -1  221.46   72.86
   7  -4  -1  141.72   58.52
  -4   7  -1  241.98   75.19
  -3   7  -1  181.57   64.64
   7  -4  -1  230.20   70.19
   7  -3  -1  217.88   71.11
   4   3  -1  105.29   58.65
   3   4  -1  225.69   59.96
  -4  -3  -1  226.58   65.55
  -3  -4  -1  197.50   66.95
   7  -3  -1  176.00   77.99
  -4  -3  -1  221.09   69.44
   4  -7  -1    1.79   54.56
  -3  -4  -1  125.83   61.47
   3  -7  -1  181.96   78.25
   4  -7  -1  224.19   77.35
   7  -4  -1  142.27   80.33
   7  -4  -1  246.72   74.88
  -7   3  -1  156.63   72.07
  -3  -4  -1  125.91   61.06
   4  -7  -1   46.99   64.71
   3  -7  -1  141.64   76.92
   3   4   0   65.07   59.20
   7  -3   0  202.36   60.31
  -7   3   0   22.90   53.64
   7  -4   0   20.40   51.45
  -7   3   0   63.45   52.51
  -7   4   0   69.85   57.04
  -4   7   0  126.14   67.90
  -3   7   0  103.71   63.66
   7  -3   0   86.19   68.44
   4   3   0   23.21   47.77
   3   4   0  102.00   54.76
   7  -3   0   54.00   71.67
  -4  -3   0   -7.09   53.10
  -3  -4   0   65.68   48.54
   4  -7   0   74.52   56.36
  -3  -4   0   57.89   57.11
  -4  -3   0   86.20   60.89
   7  -4   0  115.56   75.64
   3  -7   0   86.61   74.10
   4  -7   0  164.91   77.30
   7  -4   0  116.72   68.52
   7  -3   0  138.82   65.90
  -7   3   0 -162.59   74.93
  -3  -4   0   19.28   50.49
   4  -7   0  -11.66   64.97
   3  -7   0   26.17   70.35
  -4   7   1  279.03   71.16
  -3   7   1  226.85   79.86
   3   4   1   67.67   59.68
   4   3   1  178.98   64.27
   7  -3   1  138.65   59.15
   7  -4   1   77.45   55.39
  -7   3   1  151.14   76.32
  -7   3   1  210.80   63.58
  -7   4   1  281.22   64.22
  -4   7   1  297.17   74.45
  -3   7   1  232.39   66.78
   7  -3   1  166.08   78.53
   4   3   1  202.05   65.59
  -4  -3   1   55.50   55.91
   7  -4   1  209.75   81.76
   4  -7   1  162.68   69.29
  -3  -4   1  244.36   70.15
  -3  -4   1  113.62   66.14
  -4  -3   1  224.43   61.14
   3  -7   1  150.71   76.72
   4  -7   1  190.88   79.70
   7  -4   1  192.48   68.15
   7  -3   1  125.71   63.53
  -7   3   1  125.35   84.32
  -3  -4   1   48.83   58.07
   4  -7   1  228.19   78.82
   3  -7   1  186.28   82.46
  -4   7   2  426.79   88.85
  -3   7   2  265.65   88.81
   3   4   2  372.45   81.97
   4   3   2  368.88   78.47
   7  -3   2  269.03   73.18
   7  -4   2  331.18   78.31
  -7   3   2  354.23   94.03
  -7   4   2  593.00   83.86
   4   3   2  400.04   73.84
   7  -4   2  445.74   91.67
  -4  -3   2  259.93   82.90
   4  -7   2  374.35   79.62
  -3  -4   2  259.10   62.52
  -3  -4   2  438.69   88.43
  -4  -3   2  360.31   67.49
   3  -7   2  310.33   77.73
   3  -7   2  365.45   90.61
   4  -7   2  337.56   89.91
   7  -4   2  492.86   84.67
  -7   3   2  508.79   93.55
   4  -7   2  382.87   87.98
   3  -7   2  326.71   93.63
  -4   7   3  308.98   81.22
  -3   7   3  261.86   89.01
   3   4   3  152.68   63.09
   4   3   3  227.57   70.13
   7  -3   3  254.52   73.03
   7  -4   3  203.41   67.16
  -7   3   3  172.05   76.23
  -7   4   3   99.64   65.23
   7  -4   3  152.00   82.15
   4  -7   3  103.84   60.75
  -4  -3   3  114.95   73.56
  -3  -4   3  146.07   67.21
   3  -7   3  211.80   78.82
   3  -7   3  141.90   80.15
   4  -7   3  156.57   81.62
   7  -4   3  258.21   79.63
  -7   3   3   97.09   62.11
  -7   4   3   68.20   67.70
  -7   3   3  160.95   66.53
  -4   7   4   30.97   69.12
  -3   7   4  -69.22   67.38
   3   4   4  170.14   66.99
   4   3   4   56.04   54.12
   7  -3   4  176.13   71.64
   7  -4   4  108.09   66.09
  -7   3   4  191.11   76.85
  -7   4   4  175.49   62.68
   4  -7   4   76.72   59.70
  -4  -3   4  -43.78   69.65
  -3  -4   4   15.40   65.25
   3  -7   4  119.93   78.70
   4  -7   4  141.23   82.63
  -7   4   4   29.13   62.27
  -7   3   4  153.82   67.58
  -4   7   5  204.82   82.10
   4  -7   5   96.07   49.54
   2   5  -5  428.10   88.00
  -7   2  -5  278.21   83.68
   7  -5  -5  470.65  100.03
   5  -7  -5  432.39   97.46
  -2  -5  -5  300.15   98.35
   5  -7  -5  332.86  111.16
   2   5  -4  564.22   88.69
  -7   2  -4  572.01  108.24
  -5   7  -4  712.59  104.89
   7  -5  -4  830.63  108.66
   5  -7  -4  664.91  113.36
   5  -7  -4  433.44  108.81
   7  -2  -4  611.40  107.60
   5  -7  -4  676.15   98.30
  -2  -5  -4  706.23  101.39
   7  -5  -3  518.89  102.47
   2   5  -3  438.63   83.39
  -2   7  -3  670.03  101.67
  -5   7  -3  532.15   94.47
  -7   2  -3  569.74   97.78
  -7   5  -3  523.39   91.61
  -5   7  -3  593.64   92.81
   7  -5  -3  589.54   92.10
   7  -2  -3  669.42  112.59
   5   2  -3  480.85   88.39
   2  -7  -3  638.06  110.72
  -2  -5  -3  408.71   97.38
   5  -7  -3  607.74  109.98
  -5  -2  -3  604.05  111.88
   5  -7  -3  587.05   89.82
   2  -7  -3  485.56   98.90
   5  -7  -3  668.58  105.90
  -7   2  -3  614.06  110.48
   7  -5  -3  706.00  108.19
   7  -2  -3  710.23  107.20
   5  -7  -3  556.19   92.62
  -2  -5  -3  449.47   90.05
   2  -7  -3  598.28  104.93
   2   5  -2  550.64   96.17
  -2   7  -2  482.68   87.59
  -5   7  -2  509.09  100.49
  -7   5  -2  587.63   98.02
  -5   7  -2  568.63   91.67
   7  -5  -2  531.92   86.64
   7  -2  -2  515.67   96.91
   5   2  -2  523.32   92.26
   2  -7  -2  558.59   94.95
   5  -7  -2  534.31  102.12
  -2  -5  -2  552.37   92.13
   5  -7  -2  542.84   98.34
   7  -2  -2  661.13  100.21
  -5  -2  -2  684.98  110.96
   2  -7  -2  715.63   99.48
   5  -7  -2  847.69  115.07
   7  -5  -2  529.70   95.02
  -7   2  -2  504.41  109.59
   5  -7  -2  457.71   86.35
  -2  -5  -2  445.85   92.91
   2  -7  -2  496.20  101.04
   7  -5  -2  602.28  101.67
   2   5  -1  762.19  101.00
  -7   5  -1  990.05  116.68
   7  -2  -1  736.81   99.74
  -5   7  -1  875.43  119.08
  -2   7  -1  910.20  103.22
   7  -5  -1  955.29  113.35
   7  -2  -1  808.03  120.82
   5   2  -1  705.86  103.60
   2  -7  -1  871.97  111.16
   7  -2  -1  798.81  115.60
  -5  -2  -1  802.81   98.05
  -2  -5  -1  687.77  102.12
   5  -7  -1  754.34  103.41
  -5  -2  -1  827.18  109.91
   7  -5  -1 1090.87  121.48
   2  -7  -1  738.74  108.00
   5  -7  -1  737.45  109.74
  -7   2  -1  779.24  124.63
   5  -7  -1  800.37  104.70
  -2  -5  -1  912.16  115.38
   2  -7  -1  792.19  122.96
   7  -5  -1  722.58  111.71
   5  -7   0 1121.50  126.58
  -2   7   0  953.27  111.43
  -7   2   0 1072.51  116.80
  -5  -2   0 1063.17  116.93
  -5   7   0 1213.46  132.94
  -2   7   0 1175.53  111.94
  -2  -5   0  936.16  114.81
  -7   5   0 1057.12  118.17
   5   2   0 1210.99  125.12
  -5  -2   0 1165.47  122.59
   7  -2   0  961.80  119.70
   5  -7   0 1235.69  136.34
   7  -5   0 1329.64  128.87
   7  -2   0 1168.32  130.70
   2  -7   0  941.09  123.51
  -7   2   0 1182.20  151.61
   5  -7   0 1317.28  128.91
  -2  -5   0 1303.06  133.40
   2  -7   0 1159.73  140.48
   7  -5   0 1301.78  136.56
   7  -2   0 1193.88  119.02
   2   5   0 1027.39  116.88
   7  -5   0 1098.40  121.98
  -2   7   1  776.86  106.11
   2   5   1  795.48  105.55
   7  -2   1  905.35  106.28
   7  -5   1  946.95  114.92
  -7   5   1  827.40  104.48
  -7   2   1  588.99   98.75
  -5   7   1  707.14  108.50
   7  -2   1  662.22  109.83
   5   2   1  871.62  106.81
  -5  -2   1  743.58  100.37
   5  -7   1  881.86  109.04
  -2  -5   1  768.18   95.88
  -5  -2   1  768.57   96.07
  -2  -5   1  777.13  107.05
   2  -7   1  913.00  124.56
   5  -7   1  817.61  117.87
   7  -5   1 1039.88  118.35
   7  -5   1  930.77  120.98
  -7   2   1  650.04  116.99
   5  -7   1  735.57  103.72
  -2  -5   1  637.26  111.95
   2  -7   1  799.24  124.82
  -5   7   2  512.59   88.39
  -2   7   2  548.88   98.88
   5   2   2  333.85   70.75
   2   5   2  600.67   91.46
   5   2   2  417.75   80.66
   7  -2   2  535.46   85.88
   7  -5   2  446.57   88.85
  -7   2   2  557.99  100.46
  -7   5   2  590.26   99.02
  -5   7   2  653.29  100.08
   5   2   2  453.52   82.54
   5  -7   2  587.73   91.40
  -5  -2   2  577.38   93.56
  -2  -5   2  511.30   81.30
  -2  -5   2  504.32   97.38
   7  -5   2  497.99   94.66
   2  -7   2  565.78  111.72
   5  -7   2  529.04  102.86
   7  -5   2  707.27   95.41
  -7   2   2  490.60   94.44
   2  -7   2  559.06  103.79
  -5   7   3  584.36  100.54
  -2   7   3  431.84   96.08
   5   2   3  389.77   80.57
   2   5   3  608.73   97.59
   5   2   3  445.82   85.65
   7  -2   3  534.71   90.21
   7  -5   3  571.40  104.49
  -7   2   3  538.52  113.90
  -7   5   3  697.78   97.90
  -5   7   3  541.48   98.14
   5  -7   3  605.05  101.69
  -5  -2   3  499.62  102.10
   7  -5   3  546.31  105.08
  -2  -5   3  563.19  102.60
   5  -7   3  439.17  104.02
   7  -5   3  561.50   91.21
  -7   5   3  442.60   92.47
  -7   2   3  599.60  100.58
  -5   7   4  627.26  114.66
  -2   7   4  336.18   95.97
   5   2   4  444.66   87.56
   5   2   4  564.89   93.15
   7  -2   4  479.91   94.28
  -7   2   4  461.11   98.34
  -7   5   4  558.21   95.62
   5  -7   4  467.09   75.37
   7  -5   4  598.83  107.84
   7  -5   4  479.19   98.90
  -7   5   4  808.88  113.00
  -7   5   5  324.84   89.58
   5  -7   5  569.97   90.26
   7  -5   5  309.17  105.25
   1   6  -3   53.15   64.59
  -6   7  -3  189.82   84.71
   6  -7  -3   74.35   74.93
   6   1  -3  207.66   78.67
   7  -6  -2  365.14   93.78
   1   6  -2  204.04   66.62
  -1   7  -2  338.92   79.36
  -6   7  -2  261.68   76.46
   6  -7  -2  343.88   95.93
   6   1  -2  296.50   72.60
   7  -1  -2  266.09   86.89
  -6  -1  -2  319.73   74.35
  -7   1  -2  182.35   80.78
  -1  -6  -2  269.62   75.47
   7  -6  -1  114.17   71.84
   1   6  -1  188.15   64.26
  -1   7  -1  152.46   52.82
  -6   7  -1   97.16   66.11
   6  -7  -1 -124.79   67.57
  -7   6  -1  107.41   71.91
   7  -1  -1  193.35   89.02
   6   1  -1  275.00   82.74
   1  -7  -1  132.21   74.02
  -1  -6  -1  133.89   65.54
  -6  -1  -1  202.27   82.87
  -7   1  -1   88.79   84.37
  -1  -6  -1  288.17   79.27
  -1   7   0  194.06   84.11
   1   6   0    1.67   48.81
  -7   6   0 -116.14   71.38
  -7   1   0  -46.59   60.18
   6   1   0   43.57   62.56
  -6  -1   0   30.53   63.07
   1  -7   0  -63.10   52.11
  -1  -6   0   26.95   48.98
  -6  -1   0  -42.22   60.73
  -7   1   0  -85.75   56.01
   7  -6   0  222.99   79.14
  -1  -6   0  133.83   69.33
   7  -6   0  195.50   82.68
  -1   7   1  179.94   82.72
   1   6   1   51.00   63.72
   7  -1   1   60.31   58.40
  -7   6   1  317.69   80.74
  -7   1   1  157.22   69.53
   6   1   1  106.31   73.06
  -6  -1   1   89.52   67.98
   1  -7   1   99.95   62.94
  -1  -6   1  224.38   67.21
  -6  -1   1  122.98   67.97
  -7   1   1  164.67   77.97
   7  -6   1  165.06   74.54
  -1  -6   1   42.63   65.88
   7  -6   1  229.32   91.95
  -1   7   2  191.13   90.21
   6   1   2  233.18   68.56
   7  -1   2  436.03   86.14
  -7   6   2  312.94   83.41
  -7   1   2  124.15   69.33
   6   1   2  234.80   71.58
  -6  -1   2  210.75   78.10
  -1  -6   2  102.70   54.88
   7  -6   2  294.39   94.79
  -1  -6   2  169.06   73.55
   7  -6   2  147.78   83.29
  -7   1   2  353.53   86.19
   6   1   3  229.90   66.41
   7  -1   3   78.76   67.00
  -7   6   3  145.62   66.65
  -4  -4   0 1022.74  126.52
   0   0   0    0.00    0.00


TITL pg52 in P6mm
REM P6mm (#183 in standard setting)
CELL 0.71073   5.277429   5.277429   8.316918  90.0000  90.0000 120.0000
ZERR    1.00   0.000214   0.000214   0.000628   0.0000   0.0000   0.0000
LATT -1
SYMM -y, x-y, z
SYMM -x+y,-x, z
SYMM -x,-y, z
SYMM  y,-x+y, z
SYMM  x-y, x, z
SYMM -y,-x, z
SYMM -x+y, y, z
SYMM  x, x-y, z
SYMM  y, x, z
SYMM  x-y,-y, z
SYMM -x,-x+y, z
SFAC H O Cl K As
UNIT 4.00 5.00 1.00 1.00 2.00
TREF
HKLF 4
END
_computing_structure_solution     'SHELXT 2018/2 (Sheldrick, 2018)'
;
_shelx_hkl_checksum              69087
_olex2_date_sample_data_collection 2018-12-05
_olex2_submission_special_instructions 'No special instructions were received'
_oxdiff_exptl_absorpt_empirical_details
;
Empirical correction (ABSPACK) includes:
- Absorption correction using spherical harmonics
- Frame scaling
;
_oxdiff_exptl_absorpt_empirical_full_max 1.137
_oxdiff_exptl_absorpt_empirical_full_min 0.888
loop_
_space_group_symop_operation_xyz
'x, y, z'
'-y, x-y, z'
'-x+y, -x, z'
'-x, -y, z'
'y, -x+y, z'
'x-y, x, z'
'-y, -x, z'
'-x+y, y, z'
'x, x-y, z'
'y, x, z'
'x-y, -y, z'
'-x, -x+y, z'
loop_
_atom_site_label
_atom_site_type_symbol
_atom_site_fract_x
_atom_site_fract_y
_atom_site_fract_z
_atom_site_U_iso_or_equiv
_atom_site_adp_type
_atom_site_occupancy
_atom_site_site_symmetry_order
_atom_site_calc_flag
_atom_site_refinement_flags_posn
_atom_site_refinement_flags_adp
_atom_site_refinement_flags_occupancy
_atom_site_disorder_assembly
_atom_site_disorder_group
As1 As 0.666667 0.333333 0.27610(18) 0.0138(3) Uani 1 6 d S T P . .
K1 K 0.000000 0.000000 -0.0018(5) 0.0318(10) Uani 1 12 d S T P . .
Cl1 Cl 1.000000 0.000000 0.4197(6) 0.0278(9) Uani 1 12 d S T P . .
O1 O 0.500000 0.500000 0.1580(9) 0.0148(14) Uani 1 4 d S T P . .
O4 O 0.369(6) 0.369(6) -0.256(5) 0.19(3) Uani 0.5 2 d S T P . .
loop_
_atom_site_aniso_label
_atom_site_aniso_U_11
_atom_site_aniso_U_22
_atom_site_aniso_U_33
_atom_site_aniso_U_23
_atom_site_aniso_U_13
_atom_site_aniso_U_12
As1 0.0076(3) 0.0076(3) 0.0263(5) 0.000 0.000 0.00378(17)
K1 0.0303(14) 0.0303(14) 0.035(2) 0.000 0.000 0.0152(7)
Cl1 0.0229(12) 0.0229(12) 0.037(3) 0.000 0.000 0.0115(6)
O1 0.010(2) 0.010(2) 0.028(3) 0.000 0.000 0.007(2)
O4 0.21(4) 0.21(4) 0.11(3) -0.03(2) -0.03(2) 0.06(3)
loop_
_atom_type_symbol
_atom_type_description
_atom_type_scat_dispersion_real
_atom_type_scat_dispersion_imag
_atom_type_scat_source
As As 0.0499 2.0058 'International Tables Vol C Tables 4.2.6.8 and 6.1.1.4'
Cl Cl 0.1484 0.1585 'International Tables Vol C Tables 4.2.6.8 and 6.1.1.4'
K K 0.2009 0.2494 'International Tables Vol C Tables 4.2.6.8 and 6.1.1.4'
O O 0.0106 0.0060 'International Tables Vol C Tables 4.2.6.8 and 6.1.1.4'
loop_
_exptl_crystal_face_index_h
_exptl_crystal_face_index_k
_exptl_crystal_face_index_l
_exptl_crystal_face_perp_dist
0 0 -1 0.0025
0 -1 0 0.0448
0 0 1 0.0025
-1 1 0 0.0341
1 -1 0 0.0210
1 0 0 0.0512
-1 0 0 0.0380
0 1 0 0.0316
loop_
_geom_angle_atom_site_label_1
_geom_angle_atom_site_label_2
_geom_angle_atom_site_label_3
_geom_angle
_geom_angle_site_symmetry_1
_geom_angle_site_symmetry_3
_geom_angle_publ_flag
O1 As1 O1 93.4(3) 2_655 3_665 ?
O1 As1 O1 93.4(3) 3_665 . ?
O1 As1 O1 93.4(3) 2_655 . ?
As1 O1 As1 114.4(4) . 4_665 ?
loop_
_geom_bond_atom_site_label_1
_geom_bond_atom_site_label_2
_geom_bond_distance
_geom_bond_site_symmetry_2
_geom_bond_publ_flag
As1 O1 1.813(4) 2_655 ?
As1 O1 1.813(4) . ?
As1 O1 1.813(4) 3_665 ?
O4 O4 1.38(6) 4_665 ?
loop_
_geom_torsion_atom_site_label_1
_geom_torsion_atom_site_label_2
_geom_torsion_atom_site_label_3
_geom_torsion_atom_site_label_4
_geom_torsion
_geom_torsion_site_symmetry_1
_geom_torsion_site_symmetry_2
_geom_torsion_site_symmetry_3
_geom_torsion_site_symmetry_4
_geom_torsion_publ_flag
O1 As1 O1 As1 133.18(17) 2_655 . . 4_665 ?
O1 As1 O1 As1 -133.18(17) 3_665 . . 4_665 ?
loop_
_twin_individual_id
_twin_individual_mass_fraction_refined
1 0.53(6)
2 0.47(6)
loop_
_exptl_oxdiff_crystal_face_indexfrac_h
_exptl_oxdiff_crystal_face_indexfrac_k
_exptl_oxdiff_crystal_face_indexfrac_l
_exptl_oxdiff_crystal_face_x
_exptl_oxdiff_crystal_face_y
_exptl_oxdiff_crystal_face_z
-0.0000 -0.0001 -1.0010 0.0804 0.0070 -0.0280
-0.0001 -1.0006 -0.0004 0.0524 -0.0216 0.1446
0.0000 0.0001 1.0010 -0.0804 -0.0070 0.0280
-1.0006 1.0006 0.0003 -0.0221 -0.1219 -0.0936
1.0006 -1.0006 -0.0003 0.0221 0.1219 0.0936
1.0007 0.0000 0.0001 -0.0304 0.1435 -0.0510
-1.0007 -0.0000 -0.0001 0.0304 -0.1435 0.0510
0.0001 1.0006 0.0004 -0.0524 0.0216 -0.1446
