#------------------------------------------------------------------------------
#$Date: 2020-12-04 00:26:05 +0200 (Fri, 04 Dec 2020) $
#$Revision: 259491 $
#$URL: file:///home/coder/svn-repositories/cod/cif/4/51/82/4518276.cif $
#------------------------------------------------------------------------------
#
# This file is available in the Crystallography Open Database (COD),
# http://www.crystallography.net/
#
# All data on this site have been placed in the public domain by the
# contributors.
#
data_4518276
loop_
_publ_author_name
'Leong, Bi-Xiang'
'Teo, Yeow-Chuan'
'Condamines, Clo\'e'
'Yang, Ming-Chung'
'Su, Ming-Der'
'So, Cheuk-Wai'
_publ_section_title
;
 A NHC-Silyliumylidene Cation for Catalytic N-Formylation of Amines Using
 Carbon Dioxide
;
_journal_name_full               'ACS Catalysis'
_journal_page_first              14824
_journal_page_last               14833
_journal_paper_doi               10.1021/acscatal.0c03795
_journal_year                    2020
_chemical_formula_sum            'C8 H8 Cl N O'
_chemical_formula_weight         169.60
_space_group_crystal_system      monoclinic
_space_group_IT_number           14
_space_group_name_Hall           '-P 2ybc'
_space_group_name_H-M_alt        'P 1 21/c 1'
_atom_sites_solution_hydrogens   geom
_atom_sites_solution_primary     dual
_cell_angle_alpha                90
_cell_angle_beta                 96.260(2)
_cell_angle_gamma                90
_cell_formula_units_Z            4
_cell_length_a                   6.1585(4)
_cell_length_b                   4.6786(2)
_cell_length_c                   26.8306(16)
_cell_measurement_reflns_used    3685
_cell_measurement_temperature    100.(2)
_cell_measurement_theta_max      30.9458
_cell_measurement_theta_min      3.0551
_cell_volume                     768.46(8)
_computing_cell_refinement       'SAINT V8.38A (Bruker AXS Inc., 2017)'
_computing_data_collection       'APEX3 (Bruker AXS Inc., 2018)'
_computing_data_reduction        'SAINT V8.38A (Bruker AXS Inc., 2017)'
_computing_molecular_graphics    'XP (Bruker AXS Inc., 2018)'
_computing_publication_material  'APEX3 (Bruker AXS Inc., 2018)'
_computing_structure_refinement  'SHELXL-2018/3 (Sheldrick, 2018)'
_computing_structure_solution    'XT, VERSION 2014/5'
_diffrn_ambient_temperature      100.(2)
_diffrn_detector_area_resol_mean 7.4074
_diffrn_measured_fraction_theta_full 0.995
_diffrn_measured_fraction_theta_max 0.995
_diffrn_measurement_device_type  'Photon II CPADs detector'
_diffrn_measurement_method       'phi and omega scans'
_diffrn_radiation_monochromator  'Multilayer Mirror'
_diffrn_radiation_type           MoK\a
_diffrn_radiation_wavelength     0.71073
_diffrn_reflns_av_R_equivalents  0.0488
_diffrn_reflns_av_unetI/netI     0.0420
_diffrn_reflns_limit_h_max       8
_diffrn_reflns_limit_h_min       -8
_diffrn_reflns_limit_k_max       6
_diffrn_reflns_limit_k_min       -4
_diffrn_reflns_limit_l_max       38
_diffrn_reflns_limit_l_min       -38
_diffrn_reflns_number            11102
_diffrn_reflns_theta_full        31.02
_diffrn_reflns_theta_max         31.02
_diffrn_reflns_theta_min         3.06
_diffrn_source                   'Incoatec microfocus source'
_diffrn_source_type              'Bruker D8 Quest'
_exptl_absorpt_coefficient_mu    0.431
_exptl_absorpt_correction_T_max  0.99
_exptl_absorpt_correction_T_min  0.88
_exptl_absorpt_correction_type   multi-scan
_exptl_absorpt_process_details
;
SADABS-2016/2 - Bruker AXS area detector scaling and absorption correction
;
_exptl_crystal_colour            colourless
_exptl_crystal_density_diffrn    1.466
_exptl_crystal_density_method    'not measured'
_exptl_crystal_description       needle
_exptl_crystal_F_000             352
_exptl_crystal_size_max          0.220
_exptl_crystal_size_mid          0.120
_exptl_crystal_size_min          0.020
_refine_diff_density_max         0.343
_refine_diff_density_min         -0.299
_refine_ls_extinction_method     none
_refine_ls_goodness_of_fit_ref   1.040
_refine_ls_hydrogen_treatment    constr
_refine_ls_matrix_type           full
_refine_ls_number_parameters     100
_refine_ls_number_reflns         2438
_refine_ls_number_restraints     0
_refine_ls_restrained_S_all      1.040
_refine_ls_R_factor_all          0.0558
_refine_ls_R_factor_gt           0.0393
_refine_ls_shift/su_max          0.000
_refine_ls_shift/su_mean         0.000
_refine_ls_structure_factor_coef Fsqd
_refine_ls_weighting_details
'w=1/[\s^2^(Fo^2^)+(0.0271P)^2^+0.5060P] where P=(Fo^2^+2Fc^2^)/3'
_refine_ls_weighting_scheme      calc
_refine_ls_wR_factor_gt          0.0820
_refine_ls_wR_factor_ref         0.0904
_reflns_number_gt                1931
_reflns_number_total             2438
_reflns_threshold_expression     'I > 2\s(I)'
_cod_data_source_file            cs0c03795_si_002.cif
_cod_data_source_block           scw2221m
_cod_depositor_comments
;
The following automatic conversions were performed:

data item '_exptl_absorpt_correction_type' value 'Multi-Scan' was
changed to 'multi-scan' in accordance with the
/home/data/users/saulius/crontab/automatic-downloads/rss-feeds/ACS/lib/dictionaries/cif_core.dic
dictionary named 'cif_core.dic' version 2.4.2 last updated on
2011-04-26.

Automatic conversion script
Id: cif_fix_values 7556 2019-12-06 15:28:31Z antanas 
;
_cod_database_code               4518276
_shelx_res_file
;

TITL scw2221m in P2(1)/c
    scw2221m.res
    created by SHELXL-2018/3 at 15:09:54 on 18-Mar-2020
CELL 0.71073   6.15850   4.67860  26.83060  90.0000  96.2596  90.0000
ZERR    4.00   0.00040   0.00020   0.00160   0.0000   0.0023   0.0000
LATT 1
SYMM -X, 1/2+Y, 1/2-Z
SFAC C  H  Cl O  N
UNIT 32  32  4  4  4
L.S. 10
ACTA
BOND $H
FMAP 2
PLAN 5
SIZE 0.02 0.12 0.22
TEMP -173.0
WGHT    0.027100    0.506000
FVAR       0.28605
C1    1    0.730600    0.546093    0.396077    11.00000    0.02374    0.01449 =
         0.01609   -0.00050   -0.00006   -0.00137
AFIX  43
H1    2    0.792006    0.628167    0.426812    11.00000   -1.20000
AFIX   0
C2    1    0.851578    0.351603    0.371563    11.00000    0.01631    0.01632 =
         0.01731    0.00184   -0.00010    0.00034
AFIX  43
H2    2    0.994760    0.299326    0.385310    11.00000   -1.20000
AFIX   0
C3    1    0.759731    0.234533    0.326545    11.00000    0.01740    0.01212 =
         0.01608    0.00083    0.00420    0.00116
C4    1    0.550369    0.303655    0.306240    11.00000    0.01931    0.01496 =
         0.01465    0.00005    0.00028    0.00048
AFIX  43
H4    2    0.489177    0.219737    0.275646    11.00000   -1.20000
AFIX   0
C5    1    0.431030    0.498060    0.331375    11.00000    0.01666    0.01659 =
         0.01682    0.00244    0.00130    0.00188
AFIX  43
H5    2    0.286802    0.546627    0.317813    11.00000   -1.20000
AFIX   0
C6    1    0.519801    0.622875    0.376194    11.00000    0.02251    0.01131 =
         0.01580    0.00256    0.00534    0.00133
C7    1    0.391256    0.838251    0.402351    11.00000    0.03034    0.01548 =
         0.01805    0.00281    0.00762    0.00543
AFIX  23
H7A   2    0.485411    1.004753    0.412257    11.00000   -1.20000
H7B   2    0.266700    0.906290    0.378910    11.00000   -1.20000
AFIX   0
C8    1    0.237713    0.885125    0.481303    11.00000    0.01585    0.01679 =
         0.01707    0.00140    0.00460   -0.00003
AFIX  43
H8    2    0.188283    0.795620    0.509779    11.00000   -1.20000
AFIX   0
CL1   3    0.911823   -0.003472    0.294256    11.00000    0.02070    0.01886 =
         0.01886   -0.00099    0.00532    0.00498
N1    5    0.309092    0.717417    0.446836    11.00000    0.01794    0.01145 =
         0.01740    0.00075    0.00319    0.00043
AFIX  43
H1A   2    0.306991    0.530753    0.450787    11.00000   -1.20000
AFIX   0
O1    4    0.230313    1.148398    0.479367    11.00000    0.02545    0.01374 =
         0.02350   -0.00182    0.00806    0.00084
HKLF 4




REM  scw2221m in P2(1)/c
REM wR2 = 0.090428, GooF = S = 1.03954, Restrained GooF = 1.03954 for all data
REM R1 = 0.039344 for 1931 Fo > 4sig(Fo) and 0.055793 for all 2438 data
REM 100 parameters refined using 0 restraints

END

WGHT      0.0267      0.5097

REM Highest difference peak  0.343,  deepest hole -0.299,  1-sigma level  0.065
Q1    1   0.6049  0.5728  0.3881  11.00000  0.05    0.34
Q2    1   0.6579  0.2766  0.3182  11.00000  0.05    0.34
Q3    1   0.7607  0.4102  0.3867  11.00000  0.05    0.31
Q4    1   0.5031  0.4035  0.3180  11.00000  0.05    0.31
Q5    1   0.3119  0.7967  0.4658  11.00000  0.05    0.30
;
_shelx_res_checksum              90325
_shelx_hkl_file
;
   1   0   0   30.34    1.18
   1   0   0   28.79    1.17
  -1   0   0   29.41    1.18
   2   0   0   68.60    2.56
  -2   0   0   62.85    2.54
  -2   0   0   64.41    2.54
   2   0   0   63.80    2.51
   3   0   0   55.81    2.54
  -3   0   0   53.29    2.51
  -3   0   0   55.05    2.57
   3   0   0   53.12    2.47
   4   0   0   18.81    1.48
  -4   0   0   18.54    1.51
  -4   0   0   17.66    1.49
   4   0   0   20.64    1.50
   5   0   0   39.03    2.47
  -5   0   0   39.19    2.56
   5   0   0   42.41    2.60
  -5   0   0   42.53    2.73
   6   0   0   86.13    4.36
   6   0   0   88.06    4.43
  -6   0   0   91.73    4.78
  -7   0   0    4.90    0.69
  -7   0   0    3.28    0.99
   7   0   0    4.98    1.10
   8   0   0    0.01    0.52
  -8   0   0    0.00    0.49
   0   1   0   -0.05    0.05
  -1  -1   0  212.32    6.72
  -1  -1   0  208.55    6.08
  -1  -1   0  193.25    6.05
   1   1   0  211.76    6.18
   1   1   0  204.60    6.16
  -1   1   0  203.03    5.88
  -1   1   0  204.54    5.89
   1   1   0  199.92    6.63
  -2  -1   0   28.68    1.47
  -2  -1   0   28.52    1.48
  -2  -1   0   29.04    1.69
   2  -1   0   30.26    1.29
   2  -1   0   30.43    1.28
  -2   1   0   28.09    1.36
   2   1   0   29.73    1.53
   2   1   0   28.01    1.50
  -2   1   0   29.26    1.40
   3  -1   0    1.90    0.40
  -3  -1   0    3.90    0.74
   3  -1   0    2.31    0.44
  -3  -1   0    2.38    0.54
  -3  -1   0    2.34    0.57
   3   1   0    1.87    0.49
  -3   1   0    2.66    0.52
   3   1   0    2.88    0.63
  -3   1   0    2.06    0.46
  -4  -1   0   -0.25    0.16
   4  -1   0   -0.03    0.17
  -4  -1   0    0.10    0.15
   4  -1   0   -0.13    0.13
  -4  -1   0   -0.01    0.13
   4   1   0   -0.20    0.13
  -4   1   0   -0.23    0.17
  -4   1   0   -0.14    0.15
   4   1   0   -0.01    0.12
   5  -1   0    0.45    0.24
   5  -1   0    0.19    0.22
  -5  -1   0    0.47    0.37
  -5  -1   0   -0.14    0.26
  -5  -1   0    0.18    0.31
  -5   1   0   -0.48    0.26
   5   1   0    0.26    0.35
  -5   1   0    0.15    0.30
   5   1   0    0.28    0.32
  -6  -1   0    1.18    0.49
   6  -1   0    1.13    0.48
   6  -1   0    1.42    0.52
  -6  -1   0    2.07    0.75
   6   1   0    2.04    0.67
  -6   1   0    1.00    0.57
   7  -1   0   -0.54    0.22
   7   1   0    0.98    0.52
  -7   1   0   -0.21    0.48
  -8  -1   0    1.31    0.70
   8  -1   0    0.78    0.62
   8   1   0   -0.16    0.50
  -8   1   0    0.39    0.71
   0   2   0   16.88    1.44
   1   2   0   92.49    3.12
   1   2   0   94.50    3.12
   1   2   0   90.97    4.12
  -2  -2   0   62.11    3.52
  -2  -2   0   72.80    2.67
  -2  -2   0   78.23    2.71
  -2   2   0   75.04    2.55
  -2   2   0   69.43    2.54
   2   2   0   71.14    2.89
   2   2   0   69.98    3.51
   2   2   0   72.85    2.93
  -3  -2   0    1.19    0.36
  -3  -2   0    0.88    0.33
  -3  -2   0    1.89    0.58
   3   2   0    1.77    0.47
  -3   2   0    1.14    0.33
   3   2   0    0.90    0.36
  -3   2   0    1.11    0.31
   4  -2   0   27.13    1.37
  -4  -2   0   22.87    1.70
  -4  -2   0   32.35    2.38
  -4  -2   0   25.89    1.82
   4  -2   0   24.01    1.30
   4   2   0   24.04    1.90
  -4   2   0   26.24    1.75
   4   2   0   25.46    1.89
  -4   2   0   27.29    1.81
  -5  -2   0   31.04    2.27
  -5  -2   0   30.70    2.20
  -5  -2   0   31.16    2.56
   5   2   0   33.16    2.41
  -5   2   0   34.51    2.33
  -5   2   0   27.94    2.08
   5   2   0   28.59    2.27
   6  -2   0   42.87    2.32
  -6  -2   0   36.30    2.93
   6  -2   0   45.98    2.40
  -6  -2   0   40.82    2.91
  -6   2   0   41.97    2.93
   6   2   0   39.91    3.30
   7  -2   0    4.20    0.86
   7  -2   0    3.87    0.88
  -7  -2   0    4.13    1.07
  -7   2   0    5.09    1.22
   7   2   0    5.04    1.37
  -8  -2   0    0.70    0.74
   8  -2   0    1.65    0.64
  -8   2   0    0.64    0.72
   8   2   0    1.97    0.97
   0   3   0    0.14    0.26
   1   3   0   42.82    1.74
   1   3   0   41.48    2.88
  -1   3   0   37.63    2.70
   1   3   0   40.16    1.71
   2   3   0    6.58    0.72
   2   3   0    4.98    1.05
  -2   3   0    4.89    1.11
   2   3   0    6.06    0.67
  -2   3   0    6.48    0.46
  -3  -3   0    2.52    0.47
  -3  -3   0    2.70    0.47
  -3   3   0    2.64    0.50
  -3   3   0    2.83    0.84
   3   3   0    3.33    0.72
   3   3   0    3.13    0.64
  -3   3   0    2.83    0.53
  -4  -3   0    1.03    0.40
  -4  -3   0    0.35    0.28
   4   3   0    0.27    0.32
  -4   3   0    0.48    0.36
  -4   3   0    0.60    0.29
  -5  -3   0    3.72    0.84
  -5  -3   0    5.62    0.94
  -5   3   0    4.75    0.98
   5   3   0    5.42    1.16
  -5   3   0    4.05    0.92
  -6  -3   0    6.54    1.19
  -6  -3   0    4.79    1.04
  -6   3   0    3.94    1.07
   6   3   0    5.02    1.16
  -6   3   0    4.19    0.94
  -7  -3   0    0.04    0.53
   7   3   0    0.50    0.43
  -7   3   0    0.04    0.36
  -7   3   0    0.15    0.62
   0   4   0   28.09    2.63
   1   4   0   22.14    1.21
   1   4   0   20.15    2.24
   1   4   0   20.97    1.22
  -1   4   0   20.95    2.24
  -2   4   0   10.23    1.56
   2   4   0    8.51    0.93
   2   4   0    8.98    0.91
   2   4   0   11.02    1.63
  -3   4   0    9.12    0.78
  -3   4   0    9.41    1.47
  -3   4   0    8.10    0.81
   3   4   0   11.19    1.15
   3   4   0    9.72    1.06
  -4   4   0   10.74    1.16
  -4   4   0   13.01    1.69
   4   4   0   14.35    1.47
  -4   4   0   12.67    1.18
   4   4   0   12.46    1.35
  -5  -4   0   25.44    1.68
  -5   4   0   25.88    2.41
   5   4   0   25.10    2.93
  -5   4   0   27.80    2.04
  -5   4   0   29.24    2.12
  -6  -4   0   21.96    1.80
  -6  -4   0   19.56    1.88
  -6   4   0   23.45    2.16
  -6   4   0   21.39    2.12
   6   4   0   26.83    2.50
  -7  -4   0    0.70    0.78
  -7   4   0   -0.06    0.66
  -7   4   0    0.42    0.71
   0   5   0    0.01    0.42
   1   5   0    1.07    0.66
   1   5   0    0.53    0.26
  -1   5   0   -0.25    0.37
   2   5   0    0.06    0.31
   2   5   0    0.84    0.38
  -2   5   0    0.42    0.44
  -3   5   0    9.38    0.83
  -3   5   0    9.24    1.91
   3   5   0    9.39    1.23
  -3   5   0    5.88    1.00
   3   5   0    9.62    1.11
  -4   5   0   -0.52    0.37
   4   5   0   -0.20    0.52
  -4   5   0    0.36    0.60
  -4   5   0   -1.21    0.47
  -5   5   0    4.81    1.02
  -5   5   0    3.86    1.33
   5   5   0    5.83    1.28
  -6   5   0    1.87    1.18
   0   6   0   48.58    4.32
   1   6   0    3.35    0.61
   1   6   0    5.59    0.79
  -1   6   0    3.58    1.49
  -2   6   0    9.53    2.17
   2   6   0   10.07    1.22
  -3   6   0    0.26    0.92
   3   6   0    1.94    0.74
  -4   6   0   13.56    2.70
  -4   6   0   13.55    1.42
   4   6   0   17.00    1.90
  -8   0   1   -0.57    0.45
   8   0  -1   -0.21    0.37
  -7   0   1    0.55    0.51
   7   0  -1    0.16    0.34
  -7   0   1    0.03    0.36
   6   0  -1   -0.01    0.32
   6   0  -1   -0.67    0.23
  -6   0   1    0.42    0.35
  -6   0   1    0.55    0.30
   5   0  -1    0.19    0.25
  -5   0   1    0.51    0.24
  -5   0   1   -0.26    0.17
   5   0  -1   -0.26    0.22
   4   0  -1    0.03    0.19
   4   0  -1    0.11    0.15
  -4   0   1   -0.26    0.18
  -4   0   1    0.05    0.18
   3   0  -1    0.09    0.13
  -3   0   1    0.08    0.14
   3   0  -1   -0.17    0.10
  -3   0   1    0.17    0.19
  -2   0   1   -0.01    0.10
   2   0  -1    0.08    0.08
   2   0  -1   -0.17    0.07
  -2   0   1    0.04    0.08
  -1   0   1    0.00    0.04
   1   0  -1    0.17    0.09
  -1   0   1   -0.05    0.05
   1   0  -1    0.00    0.04
   1   0   1    0.04    0.06
   1   0   1   -0.02    0.04
  -1   0  -1    0.07    0.07
  -1   0  -1   -0.01    0.05
  -2   0  -1    0.04    0.08
   2   0   1    0.08    0.10
   2   0   1   -0.08    0.08
  -2   0  -1    0.01    0.10
  -3   0  -1    0.18    0.15
   3   0   1   -0.07    0.07
  -3   0  -1    0.05    0.15
   3   0   1    0.08    0.15
  -4   0  -1   -0.07    0.18
   4   0   1   -0.04    0.18
   4   0   1    0.03    0.15
   5   0   1   -0.09    0.21
  -5   0  -1   -0.08    0.27
  -5   0  -1    0.00    0.15
  -5   0  -1    0.09    0.27
   5   0   1   -0.22    0.21
   6   0   1   -0.50    0.35
  -6   0  -1    0.07    0.32
  -6   0  -1    0.12    0.24
  -7   0  -1   -0.02    0.39
   7   0   1   -0.23    0.37
   8   0   1   -0.22    0.40
  -8   0  -1   -1.09    0.62
  -8  -1   1    8.57    1.61
   8  -1  -1    6.69    1.32
  -8   1   1    8.62    1.68
   8   1  -1    7.33    1.39
   7  -1  -1   36.53    2.61
  -7  -1   1   34.97    2.95
  -7  -1   1   41.89    2.78
  -7   1   1   42.62    3.24
  -7   1   1   33.93    1.85
   7   1  -1   44.05    3.17
   6  -1  -1   12.56    1.34
  -6  -1   1   13.57    1.46
   6  -1  -1   15.13    1.47
  -6  -1   1   15.07    1.67
  -6   1   1   14.48    1.66
   6   1  -1   18.40    1.84
   5  -1  -1   17.06    1.42
  -5  -1   1   14.17    1.51
   5  -1  -1   17.41    1.38
  -5  -1   1   13.84    1.48
  -5  -1   1   15.30    1.58
   5   1  -1   14.20    1.49
  -5   1   1   14.23    1.44
   5   1  -1   16.50    1.63
  -5   1   1   17.52    1.62
  -4  -1   1   39.86    2.33
   4  -1  -1   39.73    2.12
  -4  -1   1   40.41    2.40
   4  -1  -1   40.02    2.11
  -4  -1   1   42.23    2.40
  -4   1   1   39.41    2.31
   4   1  -1   41.78    2.45
  -4   1   1   37.24    2.21
   4   1  -1   40.59    2.36
  -3  -1   1  133.82    4.97
   3  -1  -1  135.25    4.65
  -3  -1   1  133.58    4.98
   3  -1  -1  131.60    4.64
  -3  -1   1  136.40    5.15
   3   1  -1  141.15    5.07
   3   1  -1  135.39    5.10
  -3   1   1  137.50    4.86
  -3   1   1  136.64    4.91
   2  -1  -1   36.02    1.47
  -2  -1   1   34.81    1.70
   2  -1  -1   36.96    1.51
  -2  -1   1   36.10    1.72
  -2  -1   1   40.17    2.02
  -2   1   1   35.22    1.58
  -2   1   1   36.86    1.64
   2   1  -1   37.37    1.77
   2   1  -1   38.62    1.78
  -1  -1   1  100.43    3.38
  -1  -1   1   97.13    3.88
  -1  -1   1  112.53    3.40
   1   1  -1  110.74    3.48
  -1   1   1  105.60    3.23
   1   1  -1  114.75    3.49
  -1   1   1  113.68    3.23
   0  -1   1    2.82    0.55
   0   1  -1    1.49    0.31
  -1  -1  -1   16.49    0.80
  -1  -1  -1   14.83    0.77
   1   1   1   16.27    0.84
   1   1   1   15.71    0.83
   1   1   1   15.65    1.08
  -1   1  -1   15.12    0.65
  -1   1  -1   16.19    0.67
   2  -1   1  156.33    4.83
   2  -1   1  151.06    4.81
  -2  -1  -1  167.00    5.51
  -2  -1  -1  150.78    5.13
  -2  -1  -1  149.05    5.12
   2   1   1  151.50    5.20
   2   1   1  149.09    5.17
  -2   1  -1  158.64    4.99
  -2   1  -1  155.58    5.00
   3  -1   1  140.34    4.66
  -3  -1  -1  134.78    4.98
  -3  -1  -1  135.12    4.97
  -3  -1  -1  133.39    5.05
   3  -1   1  137.30    4.66
   3   1   1  136.83    4.99
  -3   1  -1  133.69    4.83
   3   1   1  116.32    4.88
  -3   1  -1  137.56    4.87
  -4  -1  -1   47.79    2.67
   4  -1   1   43.72    2.41
   4  -1   1   48.91    2.36
  -4  -1  -1   45.18    2.52
  -4  -1  -1   47.89    2.63
  -4   1  -1   47.44    2.55
  -4   1  -1   45.72    2.55
   4   1   1   48.60    2.65
   4   1   1   46.29    2.65
   5  -1   1    1.41    0.47
   5  -1   1    1.17    0.46
  -5  -1  -1    1.86    0.60
  -5  -1  -1    1.72    0.53
  -5  -1  -1    1.14    0.49
  -5   1  -1    1.36    0.54
   5   1   1    0.82    0.41
  -5   1  -1    1.03    0.51
   6  -1   1    5.33    1.01
  -6  -1  -1    6.63    1.28
   6  -1   1    9.17    1.13
  -6  -1  -1    7.11    1.01
  -6   1  -1    8.75    1.57
   6   1   1    5.09    1.10
  -7  -1  -1   -0.50    0.41
   7  -1   1   -0.08    0.42
   7   1   1    1.01    0.55
  -7   1  -1    0.30    0.55
   8  -1   1   17.45    1.90
  -8  -1  -1   14.99    2.32
  -8   1  -1   18.48    2.22
   8   1   1   18.17    2.17
   8  -2  -1    0.14    0.54
  -8  -2   1   -1.22    0.46
  -8   2   1   -0.41    0.64
   8   2  -1    0.65    0.68
   7  -2  -1    0.54    0.51
   7  -2  -1   -0.10    0.34
  -7  -2   1    0.74    0.47
   7   2  -1    0.54    0.53
  -7   2   1   -0.39    0.45
   6  -2  -1    0.35    0.31
   6  -2  -1    0.07    0.29
  -6  -2   1    1.02    0.51
  -6  -2   1    0.07    0.50
  -6   2   1   -0.03    0.32
   6   2  -1   -0.41    0.39
  -5  -2   1   11.51    1.31
  -5  -2   1   12.97    1.34
  -5  -2   1    9.29    1.35
   5   2  -1   12.43    1.41
  -5   2   1   10.95    1.30
   5   2  -1   11.04    1.35
  -5   2   1   11.83    1.28
  -4  -2   1   20.05    1.53
  -4  -2   1   16.69    1.72
  -4  -2   1   18.90    1.47
   4  -2  -1   17.63    1.07
   4  -2  -1   18.89    1.07
  -4   2   1   16.53    1.36
  -4   2   1   17.12    1.42
   4   2  -1   19.33    1.61
   4   2  -1   14.44    1.42
  -3  -2   1   -0.04    0.13
  -3  -2   1   -0.06    0.19
  -3   2   1    0.07    0.12
   3   2  -1   -0.03    0.16
  -3   2   1    0.14    0.15
   3   2  -1    0.14    0.16
  -2  -2   1    8.16    0.64
  -2  -2   1    6.44    0.58
  -2  -2   1    7.35    1.01
  -2   2   1    7.57    0.57
  -2   2   1    8.30    0.56
   2   2  -1    8.73    0.78
   2   2  -1    9.11    0.77
  -1  -2   1   -0.19    0.13
   1   2  -1   -0.10    0.06
   1   2  -1    0.08    0.08
   1   2  -1    0.19    0.19
   0   2   1    1.60    0.56
   0   2  -1    1.44    0.45
   1   2   1    8.66    0.60
   1   2   1    8.12    1.01
  -1   2  -1    9.02    1.00
   1   2   1    8.17    0.59
  -2  -2  -1   24.42    1.24
  -2  -2  -1   25.13    1.28
  -2   2  -1   24.56    1.17
  -2   2  -1   25.22    1.19
   2   2   1   23.72    1.42
   2   2   1   27.71    1.49
   2   2   1   21.81    1.80
  -3  -2  -1    4.77    0.74
  -3  -2  -1    2.47    0.73
  -3  -2  -1    4.68    0.74
   3   2   1    3.59    0.80
  -3   2  -1    4.38    0.57
  -3   2  -1    4.28    0.56
   3   2   1    5.53    0.89
  -4  -2  -1   11.27    1.45
   4  -2   1   16.70    1.00
   4  -2   1   16.14    1.00
  -4  -2  -1   15.76    1.38
  -4  -2  -1   13.93    1.27
  -4   2  -1   14.49    1.29
   4   2   1   13.17    1.32
   4   2   1   18.00    1.56
  -4   2  -1   13.95    1.28
  -5  -2  -1    0.06    0.39
  -5  -2  -1    0.80    0.40
  -5  -2  -1    0.26    0.27
   5   2   1    0.86    0.45
  -5   2  -1    0.34    0.35
  -5   2  -1    0.15    0.37
   6  -2   1    1.39    0.45
   6  -2   1    0.86    0.48
  -6  -2  -1    2.27    0.75
  -6   2  -1    1.69    0.45
  -6   2  -1    2.32    0.81
   6   2   1   -0.08    0.51
   7  -2   1    9.02    1.18
  -7  -2  -1    7.01    1.51
   7  -2   1    8.20    1.19
   7   2   1    8.65    1.65
  -7   2  -1    6.27    1.40
   8  -2   1    0.37    0.49
  -8  -2  -1    0.50    0.54
   8   2   1   -0.35    0.63
  -8   2  -1    0.16    0.59
  -7  -3   1    1.21    0.69
  -7   3   1    0.40    0.72
  -7   3   1    1.10    0.58
   7   3  -1    0.95    0.70
  -6  -3   1    0.70    0.67
  -6  -3   1    0.98    0.54
  -6   3   1    0.26    0.51
  -6   3   1    0.51    0.43
   6   3  -1    0.79    0.49
  -5  -3   1    6.13    1.00
  -5  -3   1    4.66    0.95
   5   3  -1    4.88    1.04
  -5   3   1    4.55    0.93
  -4  -3   1    8.46    0.92
  -4  -3   1    5.54    1.22
  -4  -3   1    7.52    0.84
  -4   3   1    7.93    0.87
   4   3  -1    6.63    1.06
  -4   3   1    7.85    0.93
   4   3  -1    7.25    1.17
  -3  -3   1  121.09    4.19
  -3  -3   1  102.30    5.78
  -3  -3   1  118.61    4.14
   3   3  -1  133.93    4.94
   3   3  -1  114.63    4.77
  -3   3   1  119.54    4.34
  -3   3   1  133.49    4.39
  -2   3   1  123.72    3.89
  -2   3   1  122.59    3.93
   2   3  -1  130.52    4.55
   2   3  -1  118.61    4.49
   1   3  -1   97.83    3.25
  -1   3   1   92.92    4.73
   1   3  -1   89.30    3.23
   1   3  -1   94.72    4.75
   0   3   1    3.57    0.95
   0   3  -1    4.88    1.15
   1   3   1   19.03    1.04
   1   3   1   17.59    1.83
  -1   3  -1   19.07    1.80
   1   3   1   20.42    1.06
   2   3   1    0.99    0.33
  -2   3  -1    0.83    0.51
   2   3   1    0.53    0.39
   2   3   1    0.88    0.28
  -2   3  -1    1.05    0.21
  -2   3  -1    0.48    0.14
  -3  -3  -1  180.42    5.60
  -3  -3  -1  167.14    5.59
   3   3   1  163.52    6.25
  -3   3  -1  176.56    5.74
  -3   3  -1  166.60    5.73
   3   3   1  162.35    6.22
  -4  -3  -1   16.00    1.29
  -4  -3  -1   14.24    1.21
  -4   3  -1   13.53    1.24
   4   3   1   16.14    1.56
   4   3   1   10.84    1.38
  -4   3  -1   15.96    1.98
  -4   3  -1   14.65    1.29
  -5  -3  -1   48.42    2.92
  -5  -3  -1   60.19    3.16
  -5   3  -1   54.55    3.13
  -5   3  -1   57.16    3.20
   5   3   1   63.22    3.60
  -6  -3  -1   26.46    2.26
  -6  -3  -1   24.13    2.15
   6   3   1   27.34    2.49
  -6   3  -1   27.04    1.91
  -6   3  -1   25.23    2.27
  -7  -3  -1    2.28    0.98
  -7   3  -1    6.68    1.48
   7   3   1    3.45    1.09
  -7  -4   1    0.55    0.74
  -7   4   1    0.38    0.79
  -7   4   1   -0.54    0.55
  -6  -4   1    1.17    0.61
  -6  -4   1    1.61    0.86
  -6   4   1    2.95    1.02
   6   4  -1    1.79    0.75
  -6   4   1    2.18    0.81
  -5  -4   1    0.70    0.41
   5   4  -1    0.83    0.61
  -5   4   1    1.71    0.56
  -5   4   1    1.14    0.47
  -5   4   1    0.26    0.50
  -4   4   1    0.91    0.67
  -4   4   1    0.15    0.31
   4   4  -1    0.07    0.28
  -4   4   1    0.49    0.40
   4   4  -1    0.94    0.40
  -3   4   1    5.24    0.61
   3   4  -1    7.84    0.97
  -3   4   1    6.47    1.52
  -3   4   1    5.46    0.64
   3   4  -1    6.90    1.03
   2   4  -1    2.34    0.51
  -2   4   1    2.68    1.00
   2   4  -1    1.07    0.41
   1   4  -1   29.84    1.50
  -1   4   1   33.42    2.87
   1   4  -1   27.98    2.69
   1   4  -1   30.16    1.50
   0   4  -1    4.02    1.10
   0   4   1    4.35    1.10
  -1   4  -1    2.96    1.01
   1   4   1    2.82    0.47
   1   4   1    4.42    1.29
   1   4   1    2.80    0.47
   2   4   1    2.62    0.60
  -2   4  -1    2.42    0.87
   2   4   1    2.64    1.03
   2   4   1    2.83    0.53
   3   4   1   10.91    1.19
   3   4   1   11.46    1.13
  -3   4  -1   11.25    0.87
  -3   4  -1    8.86    0.83
  -3   4  -1   11.27    1.55
  -4   4  -1    1.05    0.44
   4   4   1    1.97    0.54
  -4   4  -1    0.97    0.41
   4   4   1    0.23    0.52
  -4   4  -1    0.14    0.38
  -5  -4  -1    3.27    1.07
  -5  -4  -1    3.53    0.68
  -5   4  -1    4.39    0.96
  -5   4  -1    5.09    0.95
  -5   4  -1    4.39    1.25
  -6  -4  -1    1.99    0.82
  -6  -4  -1    1.57    0.64
   6   4   1    0.53    0.58
  -6   4  -1    1.76    0.70
  -6   4  -1    0.86    0.64
  -7  -4  -1    2.08    0.83
  -7   4  -1    3.59    1.07
   7   4   1    1.46    1.63
  -6   5   1    0.48    0.78
   6   5  -1   -0.63    0.56
   5   5  -1    1.56    0.86
  -5   5   1    0.95    0.88
  -5   5   1    1.34    0.63
   4   5  -1    3.11    0.86
  -4   5   1    4.43    1.38
  -4   5   1    3.85    0.75
  -4   5   1    3.06    0.72
  -3   5   1    8.39    1.82
  -3   5   1    6.51    0.86
   3   5  -1    8.23    1.25
   3   5  -1    9.50    1.12
   2   5  -1   38.87    2.22
   2   5  -1   43.45    2.35
  -2   5   1   41.04    3.64
   1   5  -1   28.21    1.53
   1   5  -1   24.34    1.85
   1   5  -1   24.11    3.74
  -1   5   1   30.85    3.04
   0   5  -1   -0.42    0.39
   0   5   1    0.41    0.47
   1   5   1    5.22    0.65
   1   5   1    5.42    1.77
  -1   5  -1    5.19    1.42
   2   5   1    3.46    0.72
   2   5   1    3.83    0.68
  -2   5  -1    3.99    1.21
  -3   5  -1   24.45    1.43
  -3   5  -1   24.77    2.67
   3   5   1   25.70    1.97
   3   5   1   26.07    1.88
  -4   5  -1   22.08    1.63
  -4   5  -1   23.64    2.57
   4   5   1   21.11    2.00
  -4   5  -1   18.91    1.54
   5   5   1    7.71    1.52
  -5   5  -1    8.86    1.24
  -5   5  -1    7.94    1.79
  -4   6   1    1.48    0.94
  -4   6   1    0.89    0.63
   4   6  -1   -0.18    0.59
  -3   6   1    6.63    1.91
   3   6  -1    7.03    1.19
  -2   6   1   15.05    2.42
   2   6  -1   19.89    1.64
  -1   6   1    2.14    1.06
   1   6  -1    1.41    0.48
   1   6  -1    2.63    0.60
   0   6   1   -0.39    0.58
   1   6   1    1.24    0.46
   1   6   1   -0.08    0.50
  -1   6  -1    0.93    1.04
   2   6   1    1.63    0.71
   2   6   1    0.91    0.57
  -2   6  -1    3.24    1.20
   3   6   1    0.77    0.61
  -3   6  -1   -0.26    0.78
  -4   6  -1    0.48    0.85
   4   6   1    0.74    0.79
  -4   6  -1    0.95    0.71
   8   0  -2   -0.84    0.35
  -8   0   2   -0.08    0.47
  -8   0   2   -0.34    0.39
  -7   0   2    0.85    0.55
   7   0  -2    0.02    0.25
  -6   0   2    1.29    0.67
   6   0  -2    0.99    0.50
   6   0  -2    2.16    0.70
   5   0  -2   70.86    3.56
  -5   0   2   71.82    3.81
  -5   0   2   75.16    3.74
   5   0  -2   73.37    3.64
   4   0  -2   90.89    4.00
  -4   0   2   99.56    4.23
   4   0  -2   93.49    4.02
  -4   0   2   99.67    4.15
  -3   0   2   46.36    2.29
  -3   0   2   42.14    2.18
   3   0  -2   49.15    2.26
   3   0  -2   44.28    2.20
  -2   0   2   32.07    1.57
   2   0  -2   30.62    1.51
   2   0  -2   32.04    1.54
  -2   0   2   32.74    1.53
  -1   0   2    0.06    0.06
   1   0  -2   -0.03    0.05
  -1   0   2   -0.01    0.05
   1   0  -2    0.00    0.05
  -1   0  -2  219.67    6.36
   1   0   2  202.74    6.34
  -1   0  -2  206.42    6.35
   1   0   2  221.76    6.34
  -3   0  -2    3.56    0.66
  -3   0  -2    2.94    0.59
   3   0   2    2.76    0.57
   3   0   2    3.00    0.54
  -3   0  -2    3.11    0.36
   4   0   2   42.77    2.39
  -4   0  -2   41.72    2.45
  -4   0  -2   40.60    2.37
  -4   0  -2   40.02    1.82
   4   0   2   39.15    2.25
  -5   0  -2    8.83    1.13
  -5   0  -2    7.65    1.31
  -5   0  -2    9.60    0.80
   5   0   2    9.38    1.09
   5   0   2    9.34    1.15
  -6   0  -2   50.17    3.30
   6   0   2   49.24    2.99
  -6   0  -2   40.58    2.10
   6   0   2   52.72    3.16
   7   0   2    4.68    1.15
  -7   0  -2    3.83    1.11
  -8   0  -2   19.95    2.35
   8   0   2   18.11    2.05
   8  -1  -2   -0.14    0.51
  -8  -1   2    0.78    0.59
   8   1  -2    0.25    0.50
  -8   1   2    0.03    0.65
  -7  -1   2   -0.76    0.37
  -7  -1   2    0.11    0.44
   7  -1  -2    0.35    0.39
   7   1  -2   -0.42    0.41
  -7   1   2   -0.20    0.45
   6  -1  -2   -0.14    0.30
  -6  -1   2   -0.32    0.35
   6  -1  -2   -0.13    0.18
  -6  -1   2    0.23    0.25
  -6   1   2    0.07    0.37
   6   1  -2   -0.19    0.32
  -5  -1   2   31.66    2.24
  -5  -1   2   30.22    2.14
   5  -1  -2   27.50    1.91
   5  -1  -2   34.24    2.04
  -5  -1   2   28.31    2.19
   5   1  -2   29.30    2.21
  -5   1   2   28.55    2.09
   5   1  -2   28.10    2.17
  -5   1   2   32.39    2.28
  -4  -1   2   11.41    1.14
   4  -1  -2   12.44    1.07
  -4  -1   2   12.53    1.24
   4  -1  -2   11.54    1.04
  -4  -1   2   11.51    1.15
  -4   1   2   12.86    1.17
   4   1  -2   13.12    1.29
   4   1  -2   12.12    1.18
  -4   1   2   10.79    1.13
   3  -1  -2   44.48    1.94
  -3  -1   2   38.92    2.11
  -3  -1   2   38.00    2.07
   3  -1  -2   40.16    1.90
  -3   1   2   42.13    2.09
   3   1  -2   42.95    2.22
   3   1  -2   40.56    2.21
  -3   1   2   42.81    2.06
  -2  -1   2    2.23    0.41
  -2  -1   2    2.61    0.44
   2  -1  -2    2.22    0.28
  -2  -1   2    1.90    0.43
   2  -1  -2    2.47    0.31
   2   1  -2    1.90    0.39
  -2   1   2    1.88    0.34
  -2   1   2    1.59    0.33
   2   1  -2    2.11    0.40
  -1  -1   2   91.36    2.98
  -1  -1   2   89.91    3.52
  -1  -1   2  102.91    3.05
   1   1  -2   92.17    3.05
   1   1  -2   95.29    3.06
  -1   1   2   91.33    2.87
  -1   1   2   88.98    2.83
   0  -1   2    0.87    0.29
   0   1  -2    0.61    0.24
  -1  -1  -2   48.06    1.80
  -1  -1  -2   48.82    1.80
  -1   1  -2   47.59    1.98
   1   1   2   51.77    1.90
   1   1   2   49.06    1.85
   1   1   2   44.41    2.16
  -1   1  -2   50.64    1.67
  -1   1  -2   54.17    1.71
  -2  -1  -2   15.78    1.04
   2  -1   2   16.54    0.88
   2  -1   2   15.90    0.88
  -2  -1  -2   12.60    1.09
  -2  -1  -2   16.17    1.05
   2   1   2   15.14    1.04
   2   1   2   18.26    1.20
   2   1   2   17.85    1.13
  -2   1  -2   15.16    0.96
  -2   1  -2   16.52    0.98
  -3  -1  -2   14.67    1.19
   3  -1   2   13.97    1.00
  -3  -1  -2   12.49    1.36
   3  -1   2   15.58    1.06
  -3  -1  -2   14.92    1.20
   3   1   2   15.69    1.25
  -3   1  -2   13.21    1.08
   3   1   2   14.41    1.17
  -3   1  -2   15.76    1.14
  -4  -1  -2   23.81    1.78
  -4  -1  -2   25.32    1.73
   4  -1   2   23.63    1.54
  -4  -1  -2   22.23    1.70
   4   1   2   22.11    1.69
  -4   1  -2   25.55    1.78
   4   1   2   24.39    1.81
  -4   1  -2   22.55    1.67
   5  -1   2    1.49    0.51
  -5  -1  -2    1.64    0.61
   5  -1   2    0.98    0.40
  -5  -1  -2    1.39    0.49
  -5  -1  -2    1.00    0.49
  -5   1  -2    1.23    0.49
   5   1   2    0.89    0.46
  -5   1  -2    1.41    0.58
   6  -1   2    2.73    0.83
   6  -1   2    2.91    0.73
  -6  -1  -2    1.58    0.63
   6   1   2    2.39    0.85
  -6   1  -2    1.39    0.71
   7  -1   2    1.60    0.63
  -7  -1  -2    0.70    0.66
  -7   1  -2    1.04    0.64
   7   1   2    0.19    0.49
  -8  -1  -2   -0.04    0.67
   8  -1   2    1.52    0.60
  -8   1  -2    1.31    0.79
   8   1   2    0.64    0.73
   8  -2  -2    1.10    0.64
  -8  -2   2    1.76    0.86
   8   2  -2    1.03    0.70
  -8   2   2    0.28    0.72
  -7  -2   2    1.51    0.71
   7  -2  -2    0.08    0.33
   7  -2  -2   -0.10    0.48
  -7  -2   2    0.68    0.55
   7   2  -2    0.44    0.64
  -7   2   2    0.06    0.52
  -6  -2   2   10.91    1.56
   6  -2  -2   10.99    1.12
   6  -2  -2   10.12    1.07
  -6  -2   2   11.51    1.45
   6   2  -2   12.81    1.99
  -6   2   2    9.39    1.50
  -5  -2   2   21.52    2.06
  -5  -2   2   19.88    1.71
  -5  -2   2   18.46    1.68
   5  -2  -2   17.42    1.56
   5   2  -2   16.54    1.66
  -5   2   2   18.75    1.60
  -5   2   2   19.77    1.72
   5   2  -2   18.75    1.80
  -4  -2   2  164.69    7.21
  -4  -2   2  190.77    6.65
   4  -2  -2  180.27    5.80
  -4  -2   2  181.61    6.57
   4  -2  -2  177.77    5.75
  -4   2   2  182.00    6.51
   4   2  -2  185.69    6.88
  -4   2   2  169.23    6.37
   4   2  -2  182.66    6.82
  -3  -2   2    0.14    0.17
  -3  -2   2   -0.22    0.14
  -3  -2   2   -0.21    0.09
  -3   2   2    0.05    0.12
   3   2  -2   -0.06    0.17
  -3   2   2    0.39    0.16
   3   2  -2    0.03    0.11
  -2  -2   2    2.65    0.42
  -2  -2   2    2.28    0.40
  -2   2   2    2.79    0.32
   2   2  -2    2.85    0.50
  -2   2   2    3.03    0.35
   2   2  -2    2.51    0.46
  -1  -2   2   27.64    1.95
   1   2  -2   24.55    1.14
   1   2  -2   22.94    1.76
   1   2  -2   25.43    1.16
   0   2  -2  142.16    5.50
  -1   2  -2  135.82    5.20
   1   2   2  143.42    5.54
   1   2   2  138.98    4.38
   1   2   2  126.80    4.35
  -2  -2  -2   34.03    1.55
  -2  -2  -2   33.62    1.58
  -2   2  -2   32.34    1.99
   2   2   2   32.21    2.21
   2   2   2   33.90    1.77
  -2   2  -2   34.10    1.46
   2   2   2   34.55    1.78
  -2   2  -2   32.40    1.45
  -3  -2  -2   12.58    1.08
  -3  -2  -2   13.80    1.06
  -3   2  -2   13.04    1.02
  -3   2  -2   11.80    0.98
   3   2   2   11.20    1.06
  -4  -2  -2    4.22    0.80
   4  -2   2    6.06    0.58
  -4  -2  -2    6.41    1.01
   4  -2   2    5.80    0.57
   4   2   2    6.48    1.13
   4   2   2    3.98    0.79
  -4   2  -2    5.57    0.92
  -4   2  -2    7.04    0.87
  -5  -2  -2   36.45    2.53
  -5  -2  -2   38.18    2.49
  -5   2  -2   37.23    1.98
  -5   2  -2   36.69    2.52
   5   2   2   38.32    2.62
   5   2   2   34.99    2.59
  -5   2  -2   41.94    2.63
   6  -2   2   14.59    1.29
   6  -2   2   12.11    1.17
  -6  -2  -2   14.78    1.67
  -6   2  -2   16.03    1.72
   7  -2   2   11.86    1.33
  -7  -2  -2   15.20    1.92
   7  -2   2   10.81    1.28
   7   2   2   11.73    1.92
  -7   2  -2   15.10    2.25
  -8  -2  -2    8.02    1.69
   8  -2   2    7.12    1.48
  -8   2  -2   10.24    1.78
   8   2   2    7.70    2.36
  -7  -3   2    4.72    1.08
  -7   3   2    4.58    1.07
  -7   3   2    5.00    1.32
   7   3  -2    6.13    1.40
  -6  -3   2    1.56    0.67
  -6  -3   2    3.01    0.85
   6   3  -2    2.37    0.88
  -6   3   2    1.22    0.61
  -5  -3   2    1.90    0.53
  -5  -3   2    2.25    0.68
  -5  -3   2    1.07    0.64
   5   3  -2    2.00    0.63
  -5   3   2    1.83    0.61
  -4  -3   2    2.83    0.62
  -4  -3   2    1.07    0.55
  -4  -3   2    2.88    0.63
  -4   3   2    3.97    0.70
   4   3  -2    1.87    0.64
   4   3  -2    2.62    0.70
  -4   3   2    3.87    0.74
  -3  -3   2    1.02    0.67
  -3  -3   2    1.65    0.38
  -3  -3   2    3.39    0.52
  -3   3   2    2.07    0.45
   3   3  -2    2.81    0.61
   3   3  -2    2.29    0.58
  -3   3   2    2.04    0.41
  -2  -3   2    0.39    0.45
   2   3  -2    1.37    0.39
   2   3  -2    1.51    0.35
  -2   3   2    1.23    0.22
  -2   3   2    0.74    0.19
   1   3  -2    5.77    0.53
  -1   3   2    5.97    1.31
   1   3  -2    6.40    0.53
   1   3  -2    5.21    1.07
   0   3   2   28.21    2.35
   0   3  -2   32.42    2.41
   1   3   2    5.61    0.51
  -1   3  -2    3.81    0.91
   1   3   2    4.03    0.95
   1   3   2    4.98    0.49
   2   3   2    1.14    0.43
   2   3   2    1.43    0.40
  -2   3  -2    1.98    0.31
   2   3   2    1.87    0.73
  -2   3  -2    1.87    0.25
  -3  -3  -2    5.67    0.64
  -3  -3  -2    6.13    0.62
   3   3   2    7.14    0.87
   3   3   2    6.53    1.04
  -3   3  -2    6.13    0.97
  -3   3  -2    6.63    0.68
  -3   3  -2    6.74    0.69
  -4  -3  -2   30.80    1.93
  -4  -3  -2   32.66    1.90
   4   3   2   32.69    2.34
  -4   3  -2   29.93    2.20
  -4   3  -2   34.49    2.06
  -4   3  -2   33.55    2.04
  -5  -3  -2    3.75    0.77
  -5  -3  -2    4.18    0.88
  -5   3  -2    3.26    0.84
   5   3   2    4.26    0.97
  -5   3  -2    4.03    0.86
  -5   3  -2    4.00    0.89
  -6  -3  -2    3.06    0.87
  -6  -3  -2    3.90    1.19
  -6   3  -2    5.43    1.23
  -6   3  -2    4.52    0.88
   6   3   2    5.92    1.40
  -7  -3  -2    1.52    0.87
   7   3   2    0.42    0.70
  -7   3  -2    1.88    0.84
  -7  -4   2   -0.38    0.63
   7   4  -2   -0.24    0.78
  -7   4   2   -0.42    0.73
  -7   4   2    0.45    0.73
  -6  -4   2   60.60    3.33
  -6  -4   2   61.52    3.28
  -6   4   2   69.21    3.91
  -6   4   2   68.15    4.19
   6   4  -2   64.91    4.14
  -5  -4   2   12.55    1.15
   5   4  -2   11.55    1.86
  -5   4   2   14.54    1.49
  -5   4   2   11.53    1.68
  -5   4   2   14.31    1.44
  -4   4   2    8.17    0.96
   4   4  -2    9.67    1.17
  -4   4   2    9.74    1.00
   4   4  -2    9.49    1.22
  -4   4   2    9.40    1.89
  -3   4   2    5.85    0.64
  -3   4   2    7.32    1.67
   3   4  -2    6.84    1.08
   3   4  -2    4.69    0.82
  -3   4   2    5.28    0.63
   2   4  -2    6.89    0.81
  -2   4   2    7.66    1.57
   2   4  -2    8.83    0.89
   1   4  -2    3.69    0.54
   1   4  -2    3.41    1.09
   1   4  -2    5.10    0.53
  -1   4   2    3.83    1.25
   0   4  -2  115.34    5.91
   0   4   2  112.98    6.03
   1   4   2   49.58    2.16
   1   4   2   49.57    3.71
   1   4   2   49.79    2.18
  -1   4  -2   56.59    3.74
  -2   4  -2    9.46    1.45
   2   4   2   12.72    1.80
   2   4   2   11.76    1.05
   2   4   2    9.47    0.94
  -3   4  -2    7.16    1.58
   3   4   2    6.89    1.11
   3   4   2    7.81    1.01
  -3   4  -2    6.93    0.68
  -3   4  -2    8.11    0.75
   4   4   2    9.63    1.23
  -4   4  -2    8.95    1.31
  -4   4  -2    8.58    0.98
  -4   4  -2    9.45    1.04
   4   4   2   11.01    1.72
  -5  -4  -2    0.75    0.41
  -5  -4  -2    1.69    0.62
  -5   4  -2    1.72    0.78
  -5   4  -2    0.58    0.53
  -5   4  -2    1.77    0.72
  -6  -4  -2   15.72    1.56
  -6  -4  -2   12.46    1.65
  -6   4  -2   13.39    1.94
  -6   4  -2   16.13    1.66
   6   4   2   15.86    2.02
  -7  -4  -2   40.57    2.86
   7   4   2   32.94    3.78
  -7   4  -2   39.74    3.19
  -6   5   2   -1.01    0.62
   6   5  -2    0.11    0.72
  -6   5   2    0.01    0.83
   5   5  -2    3.81    1.12
  -5   5   2    5.27    0.99
  -5   5   2    8.49    2.24
   4   5  -2    0.62    0.56
  -4   5   2    0.99    0.55
  -4   5   2    0.90    0.70
  -4   5   2    0.42    0.42
  -3   5   2   -0.45    0.32
   3   5  -2    1.10    0.45
  -3   5   2   -0.66    0.33
   3   5  -2    0.42    0.49
  -2   5   2    2.49    1.08
   2   5  -2    2.11    0.60
   2   5  -2    2.61    0.56
   1   5  -2   13.50    1.00
  -1   5   2    8.56    2.02
   0   5   2    0.96    0.71
   0   5  -2    0.81    0.72
   1   5   2    4.13    1.49
  -1   5  -2    0.79    0.62
   1   5   2    2.20    0.50
   1   5   2    1.24    0.34
   2   5   2   12.36    2.56
   2   5   2    9.64    1.02
   2   5   2   10.84    1.13
  -2   5  -2    9.92    1.98
  -3   5  -2    0.39    0.30
  -3   5  -2    0.59    0.32
  -3   5  -2    0.01    0.51
   3   5   2   -0.15    0.44
   3   5   2    0.37    0.46
  -4   5  -2    1.15    0.56
  -4   5  -2   -1.07    0.49
   4   5   2    0.43    0.56
  -4   5  -2    2.02    0.96
  -5   5  -2    0.12    0.53
  -5   5  -2    0.33    0.76
   5   5   2    1.85    0.86
   4   6  -2   17.91    2.09
  -4   6   2   18.86    2.57
  -4   6   2   19.05    1.57
   3   6  -2    3.52    0.84
  -3   6   2    3.41    1.39
   2   6  -2   -0.27    0.47
  -2   6   2    0.33    0.58
   1   6  -2    6.45    0.82
  -1   6   2    4.58    1.65
   0   6   2    8.25    2.21
   1   6   2    3.82    0.65
  -1   6  -2    2.70    1.16
   1   6   2    4.92    0.80
   1   6   2    5.06    1.75
   2   6   2   38.56    2.32
   2   6   2   35.57    2.37
  -2   6  -2   44.04    3.95
  -3   6  -2    3.14    1.25
   3   6   2    3.00    0.80
   4   6   2    0.24    0.70
  -4   6  -2   -0.85    0.60
   8   0  -3    0.75    0.53
  -8   0   3   -0.57    0.57
  -8   0   3    1.18    0.59
  -7   0   3   -0.32    0.35
   7   0  -3   -0.31    0.39
  -7   0   3    0.30    0.47
   6   0  -3    0.03    0.27
   6   0  -3   -0.07    0.32
  -6   0   3    0.20    0.33
  -5   0   3    0.02    0.18
   5   0  -3    0.01    0.22
   5   0  -3   -0.16    0.13
  -5   0   3    0.30    0.33
  -4   0   3   -0.07    0.16
   4   0  -3    0.21    0.12
  -4   0   3   -0.18    0.17
   3   0  -3    0.15    0.14
  -3   0   3    0.16    0.12
  -3   0   3    0.13    0.16
  -2   0   3   -0.12    0.07
  -2   0   3    0.07    0.09
   2   0  -3   -0.06    0.06
   2   0  -3    0.02    0.09
  -1   0   3    0.00    0.05
  -1   0   3    0.03    0.09
   1   0  -3   -0.04    0.03
   1   0  -3   -0.02    0.03
   0   0   3    0.01    0.03
   0   0  -3    0.03    0.03
  -1   0  -3    0.06    0.06
  -1   0  -3    0.03    0.06
   1   0   3    0.04    0.07
   1   0   3    0.13    0.10
  -2   0  -3    0.07    0.12
  -2   0  -3    0.10    0.10
   2   0   3   -0.04    0.11
   2   0   3    0.22    0.11
   3   0   3    0.09    0.12
  -3   0  -3   -0.12    0.21
   3   0   3    0.04    0.12
  -3   0  -3    0.08    0.07
  -3   0  -3   -0.02    0.14
   4   0   3   -0.01    0.15
  -4   0  -3   -0.20    0.15
  -4   0  -3    0.10    0.09
  -4   0  -3    0.16    0.20
   4   0   3    0.22    0.22
   5   0   3    0.14    0.27
   5   0   3   -0.37    0.22
  -5   0  -3    0.08    0.28
  -5   0  -3    0.11    0.30
  -6   0  -3   -0.21    0.33
   6   0   3   -0.44    0.30
   6   0   3   -0.59    0.26
  -7   0  -3    0.07    0.41
   7   0   3   -0.39    0.36
  -8   0  -3   -0.23    0.50
   8   0   3   -0.75    0.38
  -8  -1   3    7.44    1.55
   8  -1  -3    7.79    1.37
  -8  -1   3    9.79    1.35
   8   1  -3    6.64    1.43
  -8   1   3    8.88    1.77
  -8   1   3    7.54    0.83
  -7  -1   3   44.40    3.09
   7  -1  -3   45.56    2.92
  -7  -1   3   44.67    3.37
  -7   1   3   45.49    3.41
   7   1  -3   45.57    3.27
  -6  -1   3    7.26    1.34
   6  -1  -3    8.66    1.29
   6  -1  -3    8.65    1.10
  -6  -1   3    7.98    1.36
   6   1  -3    8.76    1.51
  -6   1   3    9.05    1.57
  -5  -1   3    7.31    1.02
  -5  -1   3    6.46    1.16
   5  -1  -3    6.91    1.08
  -5  -1   3    7.31    1.28
   5  -1  -3    8.49    0.96
  -5   1   3    6.97    1.18
   5   1  -3    7.03    1.23
   5   1  -3    6.07    1.10
  -5   1   3    5.24    0.99
   4  -1  -3   22.60    1.51
  -4  -1   3   22.20    1.66
  -4  -1   3   22.99    1.72
   4  -1  -3   24.57    1.54
  -4   1   3   24.48    1.67
  -4   1   3   22.75    1.68
   4   1  -3   25.59    1.78
   4   1  -3   22.06    1.70
   3  -1  -3   91.95    3.40
  -3  -1   3   95.44    3.76
  -3  -1   3   86.89    3.65
   3  -1  -3   93.59    3.46
   3   1  -3   94.32    3.79
  -3   1   3   92.13    3.64
   3   1  -3   89.72    3.74
  -3   1   3   95.44    3.62
   2  -1  -3  192.34    5.73
  -2  -1   3  186.47    6.04
   2  -1  -3  183.93    5.77
  -2  -1   3  181.21    6.02
  -2   1   3  191.46    5.87
   2   1  -3  187.62    6.09
   2   1  -3  186.00    6.13
  -2   1   3  188.42    5.94
   1  -1  -3 1000.00   26.56
  -1  -1   3  952.10   26.82
   1   1  -3  967.16   26.88
   1   1  -3  898.57   26.86
  -1   1   3  964.59   26.73
   0  -1   3   62.78    2.51
   0   1   3   64.76    1.99
   0   1  -3   61.40    1.93
   0   1  -3   61.37    1.94
   0   1   3   62.21    1.97
   1  -1   3    0.43    0.10
  -1  -1  -3    0.30    0.13
   1  -1   3    0.47    0.11
  -1  -1  -3    0.21    0.12
   1   1   3    0.34    0.21
   1   1   3    0.41    0.17
  -1   1  -3    0.29    0.13
  -1   1  -3    0.46    0.13
   1   1   3    0.32    0.14
  -1   1  -3    0.44    0.17
   2  -1   3    2.86    0.34
  -2  -1  -3    3.00    0.51
  -2  -1  -3    2.52    0.46
   2  -1   3    2.85    0.36
   2   1   3    2.20    0.41
  -2   1  -3    3.08    0.41
  -2   1  -3    2.55    0.46
  -2   1  -3    2.51    0.30
   2   1   3    2.36    0.52
   2   1   3    3.69    0.61
   3  -1   3    0.16    0.11
  -3  -1  -3    0.03    0.10
   3  -1   3    0.01    0.10
   3   1   3   -0.11    0.12
  -3   1  -3   -0.21    0.11
  -3   1  -3    0.05    0.15
   3   1   3   -0.01    0.13
  -4  -1  -3  111.73    4.54
   4  -1   3  100.65    4.80
   4  -1   3  104.04    4.11
  -4  -1  -3  104.51    4.52
  -4   1  -3  101.36    4.38
   4   1   3  102.06    4.44
   4   1   3  105.68    4.56
  -4   1  -3  104.25    4.42
   5  -1   3   79.77    3.69
  -5  -1  -3   76.57    3.95
  -5  -1  -3   80.52    4.09
   5  -1   3   73.51    3.53
   5   1   3   76.16    4.06
  -5   1  -3   75.72    3.94
  -5   1  -3   84.67    4.07
   5   1   3   78.93    4.05
   6  -1   3    0.79    0.49
  -6  -1  -3    1.41    0.66
   6   1   3    1.23    0.65
  -6   1  -3   -0.26    0.37
   7  -1   3    0.61    0.40
  -7  -1  -3    0.39    0.48
   7   1   3   -0.10    0.45
  -7   1  -3   -0.39    0.33
  -8  -1  -3   -0.01    0.75
   8  -1   3    0.96    0.67
  -8   1  -3    0.83    0.71
   8   1   3    0.41    0.61
   8  -2  -3    1.27    0.62
  -8  -2   3    1.35    0.86
   8   2  -3    1.41    0.77
  -8   2   3    0.85    0.80
   7  -2  -3    0.43    0.37
  -7  -2   3   -0.70    0.52
  -7  -2   3    0.05    0.42
   7  -2  -3   -0.28    0.51
  -7   2   3   -0.07    0.53
   7   2  -3   -0.53    0.43
  -6  -2   3    1.50    0.71
   6  -2  -3    2.19    0.56
  -6  -2   3    2.63    0.86
   6  -2  -3    2.77    0.59
  -6   2   3    1.82    0.64
   6   2  -3    2.09    0.89
  -5  -2   3    1.33    0.57
  -5  -2   3    2.53    0.65
  -5  -2   3    3.02    0.84
  -5   2   3    1.62    0.52
  -5   2   3    2.07    0.68
   5   2  -3    2.05    0.66
   5   2  -3    0.94    0.53
   4  -2  -3   23.71    1.31
  -4  -2   3   22.96    2.07
   4  -2  -3   23.51    1.29
  -4  -2   3   27.89    1.83
  -4  -2   3   27.77    1.85
  -4   2   3   27.19    1.81
   4   2  -3   29.99    2.03
  -4   2   3   25.09    1.68
   4   2  -3   25.77    1.88
   3  -2  -3   12.37    0.63
  -3  -2   3   13.83    1.08
  -3  -2   3   13.42    1.07
  -3  -2   3   11.16    1.34
   3   2  -3   14.17    1.19
  -3   2   3   13.50    1.03
  -3   2   3   13.73    0.99
   3   2  -3   12.95    1.17
  -2  -2   3   14.21    0.87
  -2  -2   3   11.96    1.39
  -2  -2   3   13.51    0.86
  -2   2   3   13.05    0.76
   2   2  -3   12.90    0.96
   2   2  -3   12.06    0.95
  -2   2   3   13.23    0.82
  -1  -2   3    1.10    0.40
   1   2  -3    1.36    0.27
   1   2  -3    1.19    0.26
   0  -2   3    6.55    0.89
   0   2  -3    8.84    0.98
   1   2   3   24.53    1.84
   1   2   3   22.00    1.14
   1   2   3   24.48    1.18
  -1   2  -3   22.75    1.62
  -2  -2  -3    4.43    0.52
  -2  -2  -3    5.43    0.54
  -2   2  -3    4.80    0.46
   2   2   3    4.89    0.62
   2   2   3    2.87    0.69
  -2   2  -3    5.10    0.68
   2   2   3    5.41    0.61
  -2   2  -3    5.17    0.50
  -3  -2  -3    2.48    0.57
   3  -2   3    3.29    0.30
   3  -2   3    3.05    0.30
  -3  -2  -3    3.65    0.66
  -3   2  -3    3.16    0.59
   3   2   3    2.84    0.60
  -3   2  -3    2.69    0.54
   3   2   3    3.67    0.76
  -3   2  -3    2.85    0.62
   4  -2   3    9.72    0.78
  -4  -2  -3   10.11    1.13
   4  -2   3    9.11    0.72
  -4  -2  -3    8.48    0.97
  -4   2  -3    9.86    1.05
  -4   2  -3    9.04    1.01
  -4   2  -3   10.25    0.91
   4   2   3   10.08    1.20
   4   2   3    9.29    1.11
  -5  -2  -3   17.88    1.73
   5  -2   3   18.30    1.38
   5  -2   3   17.22    1.43
  -5  -2  -3   17.07    1.60
   5   2   3   19.74    1.81
  -5   2  -3   17.14    1.09
   5   2   3   17.88    1.78
  -5   2  -3   17.99    1.66
   6  -2   3    1.25    0.48
   6  -2   3    1.12    0.46
  -6  -2  -3    0.82    0.50
   6   2   3    1.45    0.93
  -7  -2  -3    0.28    0.59
   7  -2   3   -0.19    0.33
   7  -2   3   -0.68    0.52
  -7   2  -3   -0.03    0.56
   7   2   3    0.87    0.68
  -8  -2  -3    0.30    0.66
  -8   2  -3    0.08    0.50
  -7  -3   3   17.20    1.91
  -7   3   3   17.49    2.12
   7   3  -3   18.52    2.23
  -6  -3   3   24.91    2.07
  -6  -3   3   22.90    2.00
  -6   3   3   25.04    2.25
   6   3  -3   24.30    2.35
  -5  -3   3    2.30    0.66
  -5  -3   3    2.58    0.92
  -5  -3   3    2.89    0.64
   5   3  -3    1.57    0.64
  -5   3   3    1.91    0.64
  -4  -3   3   31.54    1.87
  -4  -3   3   29.84    2.72
  -4  -3   3   28.64    1.80
  -4   3   3   26.89    1.78
   4   3  -3   28.05    2.06
  -4   3   3   29.05    1.85
   4   3  -3   31.14    2.19
  -3  -3   3    0.95    0.30
  -3  -3   3    1.26    0.35
  -3  -3   3    1.41    0.58
   3   3  -3    1.76    0.47
  -3   3   3    1.36    0.33
  -3   3   3    1.46    0.37
   3   3  -3    1.90    0.52
  -2  -3   3   21.93    2.15
  -2   3   3   22.46    1.07
   2   3  -3   20.50    1.34
  -2   3   3   20.64    1.00
   2   3  -3   21.81    1.38
   1   3  -3   68.52    3.87
   1   3  -3   72.36    2.62
   1   3  -3   70.69    2.60
   0   3   3  109.57    5.43
   0   3  -3  116.78    5.30
   1   3   3   32.30    1.54
   1   3   3   28.71    1.48
  -1   3  -3   37.15    2.54
   1   3   3   36.30    2.69
  -2   3  -3    7.65    1.10
   2   3   3    6.22    1.11
   2   3   3    7.42    1.55
  -2   3  -3    6.36    0.51
  -2   3  -3    6.32    0.53
   2   3   3    6.12    0.73
  -3  -3  -3   64.37    2.58
  -3  -3  -3   60.84    2.51
  -3   3  -3   63.70    2.69
  -3   3  -3   61.35    3.36
  -3   3  -3   60.43    2.65
   3   3   3   63.55    3.12
   3   3   3   55.49    2.94
   3   3   3   59.77    3.73
  -4  -3  -3   36.55    2.16
  -4  -3  -3   39.11    2.19
   4   3   3   39.26    3.76
  -4   3  -3   38.91    2.27
  -4   3  -3   41.42    2.33
  -4   3  -3   42.00    2.58
   4   3   3   41.56    2.67
  -5  -3  -3   41.00    2.47
  -5  -3  -3   33.93    2.28
  -5   3  -3   32.85    2.32
  -5   3  -3   35.96    2.24
  -5   3  -3   35.64    2.47
   5   3   3   33.98    2.61
  -6  -3  -3    0.31    0.48
  -6   3  -3    0.32    0.48
   6   3   3   -0.92    0.34
  -7  -3  -3    8.24    1.51
   7   3   3    4.58    1.23
  -7   3  -3    6.44    1.45
  -7  -4   3    3.12    1.10
   7   4  -3    2.81    1.62
  -7   4   3    5.75    1.29
  -7   4   3    3.79    1.25
  -6  -4   3    1.25    0.63
  -6  -4   3    3.29    0.96
   6   4  -3    2.15    0.87
  -6   4   3    2.44    0.89
  -6   4   3    2.07    0.93
  -5  -4   3   -0.03    0.33
   5   4  -3    0.24    0.48
  -5   4   3    0.45    0.41
  -5   4   3    1.46    0.50
  -5   4   3    0.77    0.55
   4   4  -3    6.74    1.08
  -4   4   3    6.48    0.97
  -4   4   3    6.61    0.96
  -4   4   3    7.56    1.67
   4   4  -3    6.92    1.23
   3   4  -3    4.81    0.91
  -3   4   3    4.68    0.57
   3   4  -3    5.25    0.87
  -3   4   3    3.94    1.15
   2   4  -3    0.52    0.32
   2   4  -3    1.40    0.40
  -2   4   3    0.90    0.56
  -1   4   3    2.56    0.99
   1   4  -3    2.09    0.41
   1   4  -3    2.55    0.44
   0   4   3    1.65    0.88
   0   4  -3    1.59    0.81
   1   4   3    4.86    0.59
  -1   4  -3    4.35    1.17
   1   4   3    5.68    0.58
   1   4   3    4.24    1.35
   2   4   3    0.13    0.32
   2   4   3    0.28    0.24
  -2   4  -3    0.31    0.31
   2   4   3   -0.14    0.43
  -3   4  -3    6.83    1.43
  -3   4  -3    5.52    0.67
   3   4   3    8.57    1.05
   3   4   3    7.37    0.96
  -4   4  -3    0.36    0.33
  -4   4  -3    0.29    0.27
   4   4   3   -0.02    0.31
  -4   4  -3    0.37    0.31
  -5  -4  -3   -0.64    0.35
  -5  -4  -3    0.02    0.37
  -5   4  -3   -0.13    0.39
  -5   4  -3   -0.58    0.53
  -5   4  -3   -0.37    0.44
   5   4   3    0.52    0.39
  -6  -4  -3   -0.11    0.53
  -6  -4  -3   -1.42    0.76
   6   4   3    0.65    0.55
  -7  -4  -3    2.53    1.06
   7   4   3   -0.27    0.79
  -7   4  -3    2.42    0.97
   6   5  -3    0.56    0.74
  -6   5   3    0.66    0.91
  -6   5   3    0.07    0.72
  -5   5   3   12.90    2.49
   5   5  -3   11.72    1.81
  -5   5   3   12.99    1.46
  -4   5   3    3.81    0.80
  -4   5   3    3.74    1.62
   4   5  -3    6.17    1.17
  -4   5   3    5.36    0.88
   3   5  -3   15.16    1.49
  -3   5   3   15.79    1.12
   3   5  -3   15.03    1.43
  -3   5   3   12.72    2.53
   2   5  -3    5.13    0.84
  -2   5   3    4.74    1.50
   2   5  -3    6.25    0.92
   1   5  -3   26.62    1.51
  -1   5   3   25.10    2.83
   0   5  -3   22.85    2.58
   0   5   3   25.41    3.44
   1   5   3   16.11    2.24
   1   5   3   16.35    1.19
   1   5   3   16.98    1.15
  -1   5  -3   14.19    2.06
  -2   5  -3   26.53    2.75
   2   5   3   24.00    1.72
   2   5   3   26.46    2.95
   2   5   3   25.15    1.68
   3   5   3    9.77    1.42
  -3   5  -3    9.16    0.88
   3   5   3   10.52    1.29
  -3   5  -3    9.15    0.87
  -3   5  -3   10.32    2.00
  -4   5  -3    3.25    0.85
   4   5   3    5.43    1.18
  -4   5  -3    7.37    1.75
  -4   5  -3    5.37    0.94
   5   5   3   14.59    1.84
  -5   5  -3   12.90    1.49
   4   6  -3    0.73    0.74
  -4   6   3   -0.39    0.72
  -4   6   3   -0.43    0.65
   3   6  -3    2.54    0.80
  -3   6   3    2.17    1.10
  -2   6   3    3.54    1.35
   2   6  -3    3.51    0.80
  -1   6   3    2.58    1.09
   1   6  -3    2.29    0.56
   1   6  -3    2.58    0.53
   0   6   3   10.85    2.44
   1   6   3    2.82    0.63
   1   6   3   -0.67    0.49
   1   6   3    0.70    0.75
   2   6   3    5.20    0.91
   2   6   3    4.92    0.89
   3   6   3   10.05    1.56
  -8   0   4   12.17    2.15
   8   0  -4   17.72    1.97
  -8   0   4   11.48    1.38
  -7   0   4    1.47    0.69
   7   0  -4    0.48    0.52
  -6   0   4   14.37    1.67
   6   0  -4   12.08    1.46
   6   0  -4   17.47    1.69
  -5   0   4   28.61    2.18
   5   0  -4   30.26    2.13
   5   0  -4   30.54    2.10
  -5   0   4   29.42    2.12
   4   0  -4   33.74    1.97
   4   0  -4   30.41    1.91
  -4   0   4   28.59    1.95
  -4   0   4   25.76    1.81
   3   0  -4   11.84    1.01
  -3   0   4   15.27    1.12
  -3   0   4   13.41    1.12
  -2   0   4  214.61    6.72
   2   0  -4  209.94    6.67
  -2   0   4  206.89    6.63
   1   0  -4  107.03    3.50
   1   0  -4  110.89    3.55
  -1   0   4  112.17    3.52
   0   0  -4   21.21    0.90
   0   0  -4   21.01    0.88
   2   0   4    0.41    0.21
  -2   0  -4    0.17    0.12
  -2   0  -4    0.18    0.17
   2   0   4    0.25    0.16
  -3   0  -4   40.70    2.18
   3   0   4   41.72    2.12
   3   0   4   41.83    2.17
  -3   0  -4   38.97    2.14
  -4   0  -4   47.53    2.69
   4   0   4   50.76    2.72
  -4   0  -4   50.12    2.77
   4   0   4   49.00    2.58
  -5   0  -4    6.34    1.18
   5   0   4    6.28    1.17
   5   0   4    6.45    1.07
  -5   0  -4    7.34    1.76
  -6   0  -4   22.03    2.10
   6   0   4   22.01    1.99
   6   0   4   18.64    1.89
  -7   0  -4   42.67    3.31
   7   0   4   37.89    2.93
  -8   0  -4   32.74    3.08
   8   0   4   33.15    2.83
  -8  -1   4    1.36    0.77
  -8  -1   4    1.55    0.87
   8  -1  -4    2.14    0.86
  -8   1   4    2.19    1.02
   8   1  -4    3.23    1.03
  -8   1   4    2.57    0.91
   7  -1  -4    4.63    1.04
  -7  -1   4    5.02    1.31
  -7  -1   4    5.20    1.26
   7   1  -4    4.58    1.10
  -7   1   4    7.90    1.60
  -6  -1   4    6.52    1.30
   6  -1  -4    5.53    1.04
  -6  -1   4    6.83    1.30
   6  -1  -4    5.40    1.04
  -6   1   4    4.78    1.06
   6   1  -4    6.12    1.23
   5  -1  -4    0.41    0.27
  -5  -1   4    0.50    0.42
   5  -1  -4    1.56    0.45
  -5  -1   4    0.58    0.35
  -5   1   4   -0.36    0.30
   5   1  -4    0.23    0.25
  -5   1   4    1.52    0.58
   5   1  -4    0.38    0.33
  -4  -1   4   14.46    1.28
   4  -1  -4   16.62    1.27
  -4  -1   4   15.56    1.38
   4  -1  -4   16.16    1.24
  -4   1   4   14.61    1.26
   4   1  -4   15.01    1.38
   4   1  -4   17.00    1.41
  -4   1   4   15.20    1.38
   3  -1  -4    3.69    0.58
   3  -1  -4    4.25    0.50
  -3  -1   4    3.16    0.62
  -3  -1   4    3.42    0.61
  -3   1   4    4.07    0.52
   3   1  -4    3.52    0.66
   3   1  -4    4.49    0.77
  -3   1   4    3.50    0.65
   2  -1  -4   39.39    1.58
  -2  -1   4   38.31    1.79
   2  -1  -4   37.16    1.60
  -2  -1   4   33.37    1.72
  -2   1   4   40.47    1.70
  -2   1   4   39.92    1.78
   2   1  -4   39.96    1.86
   2   1  -4   38.34    1.82
   1  -1  -4  214.60    6.40
  -1  -1   4  224.22    6.64
   1  -1  -4  215.82    6.43
  -1  -1   4  216.93    6.63
  -1   1   4  227.23    6.59
   1   1  -4  225.63    6.70
   1   1  -4  229.78    6.73
   0  -1  -4  338.48    9.50
   0  -1   4  328.26    9.42
   0  -1  -4  338.75    9.49
   0  -1   4  347.01   10.15
   0  -1   4  345.71    9.45
   0   1  -4  324.55    9.54
   0   1   4  335.59    9.58
   0   1  -4  338.19    9.54
   0   1   4  314.71    9.58
  -1  -1  -4   10.66    0.69
   1  -1   4   11.01    0.54
  -1  -1  -4   10.76    0.68
   1  -1   4   10.61    0.57
   1  -1   4    9.06    0.70
  -1   1  -4   10.29    0.60
  -1   1  -4   10.24    0.63
   1   1   4   10.12    0.69
   1   1   4   10.81    0.73
  -2  -1  -4   -0.07    0.09
   2  -1   4    0.02    0.08
   2  -1   4   -0.06    0.08
  -2   1  -4    0.15    0.09
   2   1   4    0.05    0.13
  -2   1  -4   -0.04    0.07
   2   1   4    0.11    0.12
  -2   1  -4    0.03    0.08
   2   1   4    0.22    0.16
   3  -1   4    3.55    0.46
   3  -1   4    4.16    0.66
  -3  -1  -4    2.84    0.56
  -3  -1  -4    3.93    0.74
   3   1   4    2.79    0.55
   3   1   4    2.96    0.60
  -3   1  -4    2.73    0.54
   4  -1   4   -0.19    0.14
   4  -1   4   -0.02    0.18
  -4  -1  -4    0.37    0.20
  -4  -1  -4    0.22    0.23
  -4   1  -4    0.14    0.25
  -4   1  -4   -0.21    0.13
   4   1   4   -0.04    0.14
   4   1   4   -0.09    0.16
  -5  -1  -4    6.94    1.23
   5  -1   4    6.09    1.03
   5  -1   4    6.61    1.09
   5   1   4    6.29    1.10
   5   1   4    6.96    1.25
  -5   1  -4    5.65    1.13
   6  -1   4    0.03    0.40
   6  -1   4   -0.65    0.45
  -6  -1  -4    0.06    0.29
  -6   1  -4    0.59    0.41
   6   1   4    0.32    0.37
  -7  -1  -4    0.16    0.44
   7  -1   4    0.38    0.39
   7   1   4    2.13    0.85
  -7   1  -4    0.41    0.53
  -8  -1  -4    1.12    0.65
   8  -1   4    0.80    0.63
   8   1   4    0.77    0.76
  -8   1  -4    1.21    0.63
  -8  -2   4   11.90    1.95
   8  -2  -4   12.63    1.49
  -8   2   4   10.59    1.91
   8   2  -4    9.09    1.81
   7  -2  -4    0.32    0.34
  -7  -2   4    1.42    0.63
   7  -2  -4    0.73    0.59
  -7  -2   4    0.84    0.63
   7   2  -4    1.13    0.71
  -7   2   4    0.03    0.48
   6  -2  -4    7.40    0.88
   6  -2  -4    8.01    0.97
  -6  -2   4    5.39    1.34
  -6  -2   4    8.64    1.50
   6   2  -4    5.94    1.26
  -6   2   4    5.57    1.11
  -5  -2   4    0.52    0.34
  -5  -2   4    0.03    0.30
  -5   2   4   -0.26    0.25
   5   2  -4   -0.60    0.29
   5   2  -4   -0.05    0.22
  -5   2   4   -0.67    0.23
  -4  -2   4  128.05    5.64
  -4  -2   4  113.83    4.72
  -4  -2   4  115.96    4.72
   4  -2  -4  113.50    4.04
   4  -2  -4  112.70    3.98
   4   2  -4  115.26    4.93
   4   2  -4  122.75    5.00
  -4   2   4  112.61    4.58
  -4   2   4  114.42    4.70
   3  -2  -4   88.29    2.75
   3  -2  -4   83.11    2.69
  -3  -2   4   84.38    3.42
  -3  -2   4   84.31    3.40
  -3  -2   4   83.10    4.20
   3   2  -4   78.57    3.80
  -3   2   4   81.72    3.22
  -3   2   4   82.25    3.33
   3   2  -4   82.22    3.57
  -2  -2   4  121.00    4.21
  -2  -2   4  127.38    4.23
  -2  -2   4  132.84    5.46
  -2   2   4  122.80    4.16
   2   2  -4  124.57    4.47
   2   2  -4  125.61    4.49
  -2   2   4  127.05    4.08
  -1  -2   4  199.82    7.10
   1   2  -4  187.50    5.76
  -1   2   4  181.54    5.47
   1   2  -4  178.12    5.75
  -1   2   4  183.14    5.41
   0  -2   4    0.78    0.39
   0   2  -4    1.52    0.51
   0   2   4    1.09    0.19
   0   2   4    1.20    0.19
  -1  -2  -4    1.57    0.18
  -1   2  -4    1.69    0.21
   1   2   4    1.08    0.46
   1   2   4    1.27    0.29
  -1   2  -4    1.42    0.44
  -1   2  -4    1.38    0.21
   1   2   4    1.88    0.37
  -2  -2  -4  288.05    8.89
  -2  -2  -4  295.74    8.99
   2   2   4  294.11    9.22
   2   2   4  307.86   10.19
   2   2   4  289.16    9.26
  -2   2  -4  291.97    8.81
  -2   2  -4  282.40    9.42
  -2   2  -4  288.74    8.84
  -3  -2  -4   62.91    2.93
  -3  -2  -4   65.12    3.07
   3  -2   4   64.46    2.23
   3  -2   4   62.25    2.24
  -3   2  -4   65.72    2.83
   3   2   4   64.62    3.11
   3   2   4   67.94    3.46
   3   2   4   61.62    3.00
  -3   2  -4   61.60    2.80
  -3   2  -4   66.33    2.96
  -4  -2  -4    5.93    0.96
   4  -2   4    4.74    0.56
  -4  -2  -4    5.75    1.01
   4  -2   4    5.88    0.62
   4   2   4    7.35    1.24
  -4   2  -4    7.78    0.92
  -4   2  -4    8.09    1.16
  -4   2  -4    6.41    0.65
   4   2   4    4.90    0.96
  -5  -2  -4    8.77    1.33
   5  -2   4    8.65    0.90
   5  -2   4    8.56    0.88
  -5  -2  -4    9.66    1.24
  -5   2  -4    9.56    1.24
   5   2   4   10.80    1.32
   5   2   4   10.93    1.35
  -5   2  -4    9.42    1.68
   6  -2   4    0.42    0.35
   6  -2   4   -0.43    0.24
  -6  -2  -4   -0.08    0.44
   6   2   4   -0.13    0.36
  -7  -2  -4   23.53    2.34
   7  -2   4   25.20    1.88
   7  -2   4   17.96    2.46
  -7   2  -4   23.46    2.39
   7   2   4   20.82    2.37
  -8  -2  -4    6.10    1.45
  -8   2  -4    3.66    1.21
   8   2   4    6.72    2.25
   8   3  -4    0.69    0.64
  -8   3   4   -0.18    0.77
  -7  -3   4    0.40    0.55
   7   3  -4   -0.23    0.50
  -7   3   4   -1.25    0.52
  -6  -3   4   -0.27    0.32
  -6  -3   4    0.31    0.54
   6   3  -4    0.53    0.50
  -6   3   4   -0.43    0.41
  -5  -3   4   17.20    1.55
  -5  -3   4   16.48    1.48
  -5  -3   4   15.68    2.09
   5   3  -4   15.15    1.66
  -5   3   4   14.63    1.53
  -4  -3   4    0.78    0.37
  -4  -3   4    0.54    0.30
  -4   3   4    0.99    0.34
   4   3  -4    0.48    0.32
   4   3  -4   -0.28    0.25
  -4   3   4    0.54    0.30
  -3  -3   4    4.11    0.53
  -3  -3   4    4.43    0.53
  -3  -3   4    4.09    1.05
   3   3  -4    5.90    0.95
  -3   3   4    5.11    0.58
   3   3  -4    4.89    0.83
  -3   3   4    4.99    0.57
  -2  -3   4    0.21    0.28
  -2   3   4    0.84    0.20
   2   3  -4    0.31    0.19
   2   3  -4   -0.04    0.14
  -2   3   4    0.05    0.12
  -1  -3   4    6.07    1.40
   1   3  -4    8.12    0.62
   1   3  -4    7.60    0.62
   0   3  -4   21.05    1.91
   1   3   4    0.03    0.11
   1   3   4   -0.21    0.10
   1   3   4    0.07    0.24
  -1   3  -4   -0.09    0.18
   2   3   4    5.78    0.73
  -2   3  -4    7.65    0.59
   2   3   4    8.25    1.26
  -2   3  -4    7.36    1.04
   2   3   4    7.59    0.78
  -2   3  -4    6.87    0.57
  -3  -3  -4    4.38    0.50
  -3  -3  -4    2.49    0.49
   3   3   4    3.45    0.74
  -3   3  -4    3.73    0.87
   3   3   4    3.97    1.16
  -3   3  -4    4.07    1.03
  -3   3  -4    3.37    0.60
   3   3   4    3.73    0.69
  -4  -3  -4   -0.02    0.28
  -4  -3  -4    0.20    0.21
   4   3   4   -0.05    0.34
  -4   3  -4    0.47    0.34
  -4   3  -4    0.47    0.33
  -4   3  -4    0.65    0.34
   4   3   4    0.10    0.29
  -5  -3  -4    1.34    0.52
  -5  -3  -4    2.24    0.61
  -5   3  -4    1.87    0.68
  -5   3  -4    2.03    0.62
   5   3   4    2.95    0.82
  -5   3  -4    1.63    0.53
  -6  -3  -4   -0.11    0.39
   6   3   4    0.50    0.49
  -6   3  -4    0.84    0.52
  -7  -3  -4    1.21    0.76
   7   3   4   -0.57    0.43
  -7   3  -4   -1.13    0.58
  -7  -4   4    0.89    0.92
  -7   4   4    0.49    0.71
  -7   4   4   -0.37    0.74
  -6  -4   4    8.42    1.23
  -6  -4   4    8.06    1.36
  -6   4   4    8.15    1.50
  -6   4   4    7.01    1.64
   6   4  -4    7.21    1.45
  -5  -4   4   21.60    1.55
   5   4  -4   20.91    2.24
  -5   4   4   21.89    1.80
  -5   4   4   23.49    1.93
  -4   4   4  112.53    4.57
  -4   4   4  108.26    4.46
   4   4  -4  121.18    5.20
   4   4  -4  109.37    5.08
  -3   4   4   26.47    1.50
  -3   4   4   24.54    1.40
   3   4  -4   23.64    1.78
   3   4  -4   24.15    1.79
  -2   4   4    0.16    0.37
   2   4  -4   -0.10    0.21
   2   4  -4   -0.10    0.23
  -1   4   4    4.04    1.13
   1   4  -4    5.49    0.56
   1   4  -4    4.00    0.58
   0   4  -4    8.48    1.76
   0   4   4    7.98    1.95
   0   4   4    5.10    0.47
   1   4   4   18.39    1.15
   1   4   4   16.31    2.07
   1   4   4   18.99    1.19
  -1   4  -4   15.90    1.88
  -2   4  -4  113.70    3.90
  -2   4  -4  128.55    5.99
   2   4   4  119.32    6.33
   2   4   4  114.49    4.78
   2   4   4  121.43    4.63
  -3   4  -4    5.68    0.69
  -3   4  -4    5.16    1.18
   3   4   4    5.15    0.97
  -3   4  -4    5.62    0.66
   3   4   4    6.71    1.59
   3   4   4    4.49    0.80
   4   4   4    2.82    0.78
  -4   4  -4    3.57    0.75
  -4   4  -4    4.73    1.15
  -4   4  -4    3.53    0.64
  -5  -4  -4    7.68    1.03
  -5  -4  -4    8.04    0.98
  -5   4  -4    9.16    1.26
  -5   4  -4    8.93    1.36
  -5   4  -4   10.77    1.34
   5   4   4   10.61    1.69
  -6  -4  -4    1.32    0.82
  -6  -4  -4   -0.28    0.52
   6   4   4    0.50    0.44
   7   4   4    1.13    1.02
  -6   5   4    1.27    0.94
   6   5  -4    0.04    0.59
  -6   5   4   -1.44    0.63
  -5   5   4    1.07    0.76
  -5   5   4    0.25    0.56
   5   5  -4   -0.03    0.62
  -4   5   4    7.06    2.02
  -4   5   4    5.44    0.92
  -4   5   4    5.41    0.91
   4   5  -4    9.74    1.52
   3   5  -4    0.70    0.43
   3   5  -4    0.91    0.49
  -2   5   4    8.88    2.12
   2   5  -4    7.74    0.98
   2   5  -4    8.11    0.98
   1   5  -4   11.01    1.00
   1   5  -4    9.50    0.88
  -1   5   4    6.92    1.82
   1   5   4    9.73    1.97
  -1   5  -4    8.17    1.81
   1   5   4    9.70    0.89
   1   5   4   10.77    0.98
   2   5   4    8.86    2.20
   2   5   4    7.98    1.06
  -2   5  -4    9.65    1.94
   2   5   4    9.94    1.03
  -3   5  -4    1.23    0.84
  -3   5  -4    2.47    0.54
  -3   5  -4    2.54    0.47
   3   5   4    1.60    0.61
   3   5   4    2.11    0.72
  -4   5  -4   10.29    1.21
   4   5   4    9.01    1.44
  -4   5  -4   10.44    1.63
  -4   5  -4    8.76    1.20
   5   5   4    0.11    0.57
  -5   5  -4    0.14    0.56
  -4   6   4    1.30    1.00
   4   6  -4    2.02    0.79
  -3   6   4   12.04    2.49
   3   6  -4   17.22    1.68
   2   6  -4   10.90    1.24
   2   6  -4    6.70    1.28
  -2   6   4   13.62    2.87
  -1   6   4    0.47    0.72
   1   6  -4    1.31    0.46
   0   6   4    0.47    0.67
   1   6   4   11.38    2.47
   1   6   4    7.83    0.97
   2   6   4    6.91    1.16
   2   6   4    6.99    1.07
   2   6   4    5.60    1.79
   3   6   4   11.53    1.53
   8   0  -5   -0.31    0.37
  -8   0   5    0.40    0.59
  -8   0   5    0.60    0.55
   7   0  -5    0.06    0.32
  -7   0   5   -0.06    0.39
   6   0  -5   -0.45    0.27
   6   0  -5    0.43    0.28
  -6   0   5    0.37    0.35
   5   0  -5    0.01    0.22
   5   0  -5    0.23    0.27
  -5   0   5   -0.10    0.24
  -5   0   5    0.29    0.27
   4   0  -5   -0.03    0.14
  -4   0   5    0.21    0.18
   4   0  -5    0.32    0.23
  -4   0   5    0.23    0.18
  -3   0   5   -0.12    0.07
   3   0  -5    0.07    0.13
  -3   0   5    0.04    0.15
   3   0  -5    0.20    0.16
  -2   0   5    0.11    0.10
  -2   0   5    0.04    0.09
  -1   0   5    0.04    0.07
  -1   0   5   -0.04    0.05
   1   0  -5   -0.05    0.05
   1   0  -5    0.01    0.07
   0   0   5   -0.01    0.05
   0   0  -5   -0.02    0.05
   0   0   5    0.00    0.07
   0   0  -5   -0.03    0.04
   1   0   5    0.00    0.06
  -1   0  -5   -0.03    0.06
   1   0   5    0.03    0.09
  -1   0  -5   -0.10    0.05
  -2   0  -5   -0.01    0.10
  -2   0  -5   -0.08    0.08
   2   0   5    0.00    0.12
   2   0   5   -0.08    0.07
  -3   0  -5    0.09    0.17
   3   0   5   -0.02    0.13
  -3   0  -5    0.24    0.20
   4   0   5   -0.19    0.12
   4   0   5   -0.28    0.21
  -4   0  -5    0.16    0.18
  -4   0  -5    0.18    0.23
   5   0   5    1.05    0.44
   5   0   5   -0.01    0.24
  -5   0  -5    0.28    0.37
  -5   0  -5    0.40    0.34
   6   0   5    0.30    0.30
  -6   0  -5   -0.12    0.32
  -7   0  -5    0.08    0.40
   7   0   5    0.38    0.38
  -8   0  -5   -0.20    0.47
   8   0   5    0.14    0.55
   8  -1  -5    0.09    0.59
  -8  -1   5    1.40    0.70
  -8  -1   5    1.06    0.95
  -8   1   5   -0.10    0.61
   8   1  -5    0.68    0.64
   7  -1  -5   12.38    1.47
  -7  -1   5   12.81    1.57
  -7  -1   5   11.95    1.90
   7   1  -5   14.00    1.75
  -7   1   5   12.63    2.03
   6  -1  -5   52.88    3.05
  -6  -1   5   55.28    3.37
   6  -1  -5   57.97    3.12
  -6  -1   5   57.40    3.52
  -6   1   5   57.25    3.55
   6   1  -5   54.35    3.38
   5  -1  -5  109.99    4.43
  -5  -1   5  108.80    4.88
   5  -1  -5  104.75    4.43
  -5  -1   5  108.89    4.81
   5   1  -5  103.86    5.48
   5   1  -5   99.48    4.70
  -5   1   5  106.08    4.81
  -5   1   5   99.12    4.58
  -4  -1   5   17.38    1.45
  -4  -1   5   17.39    1.41
   4  -1  -5   16.05    1.25
   4  -1  -5   14.47    1.59
   4   1  -5   15.50    1.39
  -4   1   5   15.24    1.33
   4   1  -5   18.55    1.50
  -4   1   5   18.61    1.50
   3  -1  -5    0.28    0.20
   3  -1  -5    0.81    0.29
  -3  -1   5    0.30    0.19
  -3  -1   5    0.89    0.34
   3   1  -5    0.39    0.24
  -3   1   5    0.13    0.18
  -3   1   5    0.51    0.27
   3   1  -5    0.38    0.23
   2  -1  -5    0.11    0.11
  -2  -1   5    0.21    0.14
  -2  -1   5    0.31    0.19
   2  -1  -5    0.09    0.11
  -2   1   5    0.04    0.10
  -2   1   5    0.18    0.10
   2   1  -5    0.30    0.17
   2   1  -5    0.58    0.23
   1  -1  -5  274.90    8.03
  -1  -1   5  265.96    8.16
   1  -1  -5  274.34    7.97
  -1  -1   5  267.98    8.16
  -1   1   5  278.74    8.08
   1   1  -5  275.13    8.25
   1   1  -5  292.91    8.26
  -1   1   5  274.11    8.14
   0  -1   5  541.52   15.32
   0  -1   5  515.28   15.27
   0  -1  -5  563.76   15.36
   0  -1  -5  530.78   15.35
   0   1  -5  542.61   15.42
   0   1   5  539.41   15.44
   0   1   5  567.14   15.42
   0   1  -5  545.31   15.38
   1  -1   5  305.51    9.56
   1  -1   5  323.13    9.31
  -1  -1  -5  327.09    9.53
   1  -1   5  326.02    9.24
  -1  -1  -5  314.09    9.47
   1   1   5  312.54    9.52
   1   1   5  322.54    9.59
  -1   1  -5  326.49    9.44
  -1   1  -5  322.13    9.35
  -2  -1  -5   57.69    2.53
   2  -1   5   59.53    2.27
   2  -1   5   56.96    2.33
  -2  -1  -5   58.32    2.53
  -2   1  -5   58.77    2.46
   2   1   5   62.04    2.58
  -2   1  -5   60.46    2.44
   2   1   5   58.66    2.61
   2   1   5   62.68    2.69
   3  -1   5   28.60    1.63
  -3  -1  -5   28.84    1.83
  -3  -1  -5   31.36    1.84
   3  -1   5   30.34    1.63
   3   1   5   27.28    2.23
  -3   1  -5   28.59    1.72
   3   1   5   33.25    1.88
  -3   1  -5   30.01    1.78
  -4  -1  -5   10.40    1.17
  -4  -1  -5    9.09    1.03
   4  -1   5    8.91    0.93
   4  -1   5   10.08    1.02
   4   1   5   10.87    1.14
  -4   1  -5    9.99    1.06
   4   1   5   10.02    1.16
  -4   1  -5   10.07    1.11
  -5  -1  -5   22.13    2.31
   5  -1   5   22.62    1.71
  -5  -1  -5   25.95    2.10
   5  -1   5   26.11    1.87
   5   1   5   24.19    2.02
   5   1   5   27.38    2.16
  -5   1  -5   23.13    2.12
  -5   1  -5   25.70    2.06
   6  -1   5   18.52    1.65
   6  -1   5   14.85    1.48
  -6  -1  -5   15.32    1.77
   6   1   5   14.92    1.77
  -6   1  -5   15.26    1.74
  -7  -1  -5   21.19    2.29
   7  -1   5   20.24    2.40
  -7   1  -5   23.17    2.42
   7   1   5   22.60    2.35
   8  -1   5    1.56    0.67
  -8  -1  -5    1.42    0.90
   8   1   5    2.16    0.91
  -8   1  -5    1.15    0.84
   8  -2  -5    2.52    0.76
  -8  -2   5    3.80    1.19
   8   2  -5    4.18    1.13
  -8   2   5    2.60    1.00
  -7  -2   5    0.60    0.86
   7  -2  -5    0.96    0.48
   7  -2  -5    0.78    0.65
  -7  -2   5    1.48    0.69
   7   2  -5    0.89    0.53
  -7   2   5    1.71    0.72
   6  -2  -5   -0.16    0.28
   6  -2  -5   -0.11    0.22
  -6  -2   5    0.24    0.43
   6   2  -5   -0.68    0.34
  -5  -2   5   11.60    1.46
  -5  -2   5    8.77    1.15
  -5  -2   5    7.97    1.03
  -5   2   5    9.55    1.09
  -5   2   5    6.70    1.24
   5   2  -5    8.20    1.34
   5   2  -5    5.68    1.15
  -4  -2   5    9.51    1.06
   4  -2  -5   11.36    0.83
  -4  -2   5   10.45    1.36
  -4  -2   5   11.20    1.10
   4   2  -5   11.26    1.23
   4   2  -5   10.67    1.20
  -4   2   5    9.93    1.01
  -4   2   5    9.84    1.09
   3  -2  -5    3.15    0.31
   3  -2  -5    2.86    0.31
  -3  -2   5    2.80    0.59
  -3  -2   5    3.29    0.91
  -3  -2   5    3.48    0.60
  -3   2   5    2.84    0.59
  -3   2   5    3.50    0.59
   3   2  -5    3.91    0.78
  -2  -2   5   83.67    3.03
  -2  -2   5   86.10    3.02
  -2  -2   5   82.18    4.03
  -2   2   5   78.45    2.88
  -2   2   5   78.93    2.97
   2   2  -5   83.43    3.25
   2   2  -5   79.95    3.21
  -1  -2   5   66.15    3.35
   1   2  -5   67.20    2.45
  -1   2   5   62.67    2.17
   1   2  -5   68.78    2.47
  -1   2   5   62.90    2.23
   0  -2   5   17.34    1.43
   0   2  -5   13.77    0.71
   0   2   5   15.71    0.78
   0   2  -5   15.20    0.74
   0   2   5   14.92    0.76
  -1  -2  -5    1.82    0.23
  -1  -2  -5    2.35    0.25
   1   2   5    2.23    0.38
  -1   2  -5    1.46    0.47
  -1   2  -5    2.00    0.24
   1   2   5    2.10    0.41
  -1   2  -5    2.03    0.26
  -2  -2  -5    1.33    0.35
  -2  -2  -5    1.02    0.31
   2   2   5    1.14    0.49
  -2   2  -5    1.12    0.29
  -2   2  -5    1.10    0.31
   2   2   5    1.32    0.38
  -2   2  -5    0.95    0.35
   2   2   5    0.84    0.33
   3  -2   5    2.23    0.34
   3  -2   5    2.26    0.36
  -3  -2  -5    2.05    0.60
  -3  -2  -5    1.85    0.49
  -3   2  -5    2.56    0.53
   3   2   5    2.40    0.77
  -3   2  -5    2.13    0.54
  -3   2  -5    1.97    0.49
   3   2   5    2.28    0.54
   3   2   5    3.05    0.70
   4  -2   5   -0.23    0.14
  -4  -2  -5    0.27    0.30
   4  -2   5    0.14    0.16
   4   2   5   -0.27    0.21
  -4   2  -5   -0.13    0.19
  -4   2  -5   -0.24    0.13
   4   2   5   -0.23    0.20
  -4   2  -5   -0.43    0.24
  -5  -2  -5    3.13    0.85
   5  -2   5    3.32    0.65
   5  -2   5    4.07    0.73
  -5   2  -5    1.75    0.59
   5   2   5    4.87    1.18
  -5   2  -5    1.97    0.74
   5   2   5    3.25    0.86
   6  -2   5    2.05    0.53
  -6  -2  -5    1.46    0.63
   6  -2   5    2.45    0.61
   6   2   5    2.52    0.90
  -6   2  -5    3.05    0.87
  -7  -2  -5    1.32    0.66
   7  -2   5    2.58    0.68
  -7   2  -5    2.17    0.88
   7   2   5    2.21    0.93
   8  -2   5    1.66    0.76
  -8  -2  -5   -0.44    0.55
   8   2   5    0.06    0.58
  -8   2  -5    1.17    0.81
  -7  -3   5   23.83    2.26
  -7   3   5   22.33    2.39
   7   3  -5   21.29    2.34
  -6  -3   5    4.63    1.03
  -6  -3   5    5.38    1.11
  -6   3   5    5.09    1.13
   6   3  -5    5.09    1.19
  -5  -3   5   11.83    1.66
  -5  -3   5   13.67    1.39
  -5  -3   5   13.56    1.41
  -5   3   5   13.99    1.48
  -5   3   5   11.33    2.27
   5   3  -5   11.90    1.49
  -4  -3   5   21.47    1.52
  -4  -3   5   24.29    2.44
  -4  -3   5   24.00    1.63
   4   3  -5   19.03    1.75
   4   3  -5   23.12    1.87
  -4   3   5   22.42    1.65
  -4   3   5   24.74    1.65
  -3  -3   5   -0.07    0.20
  -3  -3   5    0.06    0.14
  -3  -3   5   -0.38    0.14
   3   3  -5   -0.03    0.18
   3   3  -5    0.21    0.20
  -3   3   5    0.07    0.16
  -3   3   5    0.04    0.17
  -2  -3   5   91.83    4.88
   2   3  -5   83.17    3.44
  -2   3   5   89.41    3.00
  -2   3   5   82.62    3.05
  -1  -3   5   32.61    2.60
   1   3  -5   30.89    1.48
   1   3  -5   30.40    1.48
   0   3   5   24.58    1.16
   0   3   5   24.99    1.15
   0   3  -5   28.36    1.13
  -1   3  -5   16.86    0.82
  -1   3  -5   16.73    1.65
   1   3   5   13.94    1.01
   1   3   5   19.18    1.11
   1   3   5   18.47    1.91
  -2   3  -5   10.60    0.76
   2   3   5    8.71    0.93
   2   3   5   10.44    0.96
   2   3   5   10.51    1.43
  -2   3  -5   10.85    1.25
  -2   3  -5   11.92    0.77
  -3  -3  -5   31.81    1.66
  -3  -3  -5   29.93    1.59
   3   3   5   34.33    2.70
   3   3   5   31.73    2.01
  -3   3  -5   31.29    1.75
  -3   3  -5   29.65    2.11
   3   3   5   30.12    2.05
  -3   3  -5   28.55    1.70
  -4  -3  -5   54.83    2.77
  -4  -3  -5   55.56    2.73
  -4   3  -5   54.37    2.82
  -4   3  -5   48.48    2.69
  -4   3  -5   54.65    2.90
   4   3   5   56.46    3.22
   4   3   5   52.84    3.05
  -5  -3  -5   35.23    2.39
  -5  -3  -5   42.96    2.63
  -5   3  -5   42.49    2.72
  -5   3  -5   37.21    2.55
   5   3   5   39.70    2.89
  -6  -3  -5   51.79    3.28
  -6   3  -5   54.05    3.52
   6   3   5   49.95    3.57
  -7  -3  -5    0.15    0.64
   7   3   5    0.26    0.52
  -7   3  -5    2.24    1.00
  -7  -4   5    3.18    1.15
  -7   4   5    0.59    0.86
  -7   4   5    1.70    1.04
  -6  -4   5    4.95    0.97
  -6  -4   5    3.46    0.96
   6   4  -5    6.71    1.39
  -6   4   5    4.62    1.06
  -5  -4   5   -0.20    0.32
   5   4  -5    0.84    0.73
  -5   4   5   -0.06    0.41
  -5   4   5    0.39    0.52
  -4   4   5    4.25    0.80
  -4   4   5    4.18    0.75
   4   4  -5    4.80    0.88
   4   4  -5    4.58    0.99
   3   4  -5    2.89    0.71
  -3   4   5    1.69    0.46
   3   4  -5    2.64    0.64
   2   4  -5   17.11    1.29
  -2   4   5   15.57    0.94
   2   4  -5   16.98    1.27
  -2   4   5   16.53    0.91
   1   4  -5    1.09    0.32
   1   4  -5    0.39    0.22
  -1   4   5    0.13    0.35
   0   4   5   10.55    1.65
   0   4   5    9.93    0.74
   0   4   5   12.00    0.75
  -1   4  -5    0.16    0.34
   1   4   5    0.53    0.26
   1   4   5    0.44    0.40
   1   4   5    0.87    0.31
  -2   4  -5    1.34    0.30
  -2   4  -5    1.18    0.27
  -2   4  -5    0.99    0.60
   2   4   5    2.42    0.97
   2   4   5    1.96    0.70
   2   4   5    0.82    0.37
  -3   4  -5    5.90    0.69
   3   4   5    5.05    1.32
   3   4   5    4.89    0.95
  -3   4  -5    4.99    1.24
   3   4   5    3.14    0.73
  -3   4  -5    3.77    0.65
  -4   4  -5    6.81    0.98
  -4   4  -5    6.09    0.99
  -4   4  -5    5.76    1.23
   4   4   5    4.82    1.06
  -5  -4  -5    4.34    0.78
  -5  -4  -5    4.04    0.78
   5   4   5    4.22    1.10
  -5   4  -5    2.48    1.03
  -5   4  -5    6.10    1.08
  -6  -4  -5   -0.86    1.09
  -6  -4  -5   -0.48    0.52
   6   4   5    0.42    0.51
  -6   4  -5   -0.08    0.67
  -6   5   5    6.33    1.83
   6   5  -5    8.74    1.68
  -6   5   5    6.83    1.38
  -5   5   5   15.93    2.40
  -5   5   5   17.90    1.77
   5   5  -5   20.51    2.12
   4   5  -5    0.73    0.54
  -4   5   5   -0.53    0.40
  -4   5   5   -0.98    0.46
  -4   5   5    0.11    0.57
  -3   5   5    1.30    0.30
   3   5  -5    0.96    0.61
  -3   5   5    0.90    0.60
   3   5  -5    0.62    0.42
  -3   5   5   -0.16    0.29
   2   5  -5    2.72    0.61
   2   5  -5    2.50    0.56
   1   5  -5   75.01    3.10
   1   5  -5   72.83    3.00
   0   5   5    2.70    0.45
   0   5   5    1.55    0.95
   0   5   5    1.77    0.46
   1   5   5   32.56    1.81
   1   5   5   32.89    3.39
   1   5   5   36.32    1.97
   2   5   5    0.39    0.37
   2   5   5    0.60    0.40
   2   5   5    0.12    0.48
   3   5   5    2.27    0.81
  -3   5  -5    4.36    0.70
  -3   5  -5    2.87    0.62
   3   5   5    3.31    0.86
   3   5   5    3.49    1.16
  -4   5  -5   27.28    1.90
   4   5   5   26.80    2.46
  -4   5  -5   23.74    1.79
  -5   5  -5    7.37    1.28
   5   5   5    8.00    1.50
  -4   6   5    1.47    0.74
   4   6  -5    0.83    0.68
  -4   6   5   -0.24    0.93
  -3   6   5    1.22    0.70
   3   6  -5    0.54    0.59
   2   6  -5    0.95    0.66
   2   6  -5    0.10    0.64
  -2   6   5    3.23    1.24
   1   6  -5    0.01    0.53
   1   6  -5    0.19    0.44
  -1   6   5    0.39    0.59
   0   6   5    1.84    1.06
   1   6   5   10.05    1.12
   1   6   5    9.83    2.15
   1   6   5    8.69    1.02
   2   6   5    0.80    0.69
   2   6   5   -0.14    0.52
   2   6   5    0.23    0.58
   3   6   5    1.48    0.68
  -8   0   6   13.32    2.10
   8   0  -6   15.96    1.88
  -8   0   6   13.37    1.61
   7   0  -6   24.16    2.15
  -7   0   6   23.50    2.37
  -6   0   6   13.23    1.60
   6   0  -6   12.09    1.44
   6   0  -6   12.02    1.40
  -5   0   6   22.02    1.83
   5   0  -6   22.45    1.77
   5   0  -6   25.56    1.92
  -5   0   6   22.77    1.94
   4   0  -6  103.07    4.25
  -4   0   6   93.01    4.14
  -4   0   6   98.77    4.30
   4   0  -6  103.48    4.22
   3   0  -6  144.32    5.23
  -3   0   6  149.08    5.34
   3   0  -6  143.44    5.18
  -2   0   6   17.92    1.08
   2   0  -6   16.86    1.09
   2   0  -6   17.79    1.07
  -2   0   6   15.90    1.09
   1   0  -6   62.88    2.33
  -1   0   6   61.17    2.34
  -1   0   6   64.90    2.32
   0   0   6  169.23    5.21
   0   0   6  166.57    5.14
   0   0  -6  167.53    5.20
   0   0  -6  168.52    5.15
  -1   0  -6  120.10    3.95
   1   0   6  110.68    3.84
  -1   0  -6  120.68    3.96
   2   0   6  132.14    4.83
  -2   0  -6  141.52    4.85
   2   0   6  140.11    4.81
  -2   0  -6  141.42    4.87
   3   0   6  589.85   17.61
  -3   0  -6  595.73   17.77
   3   0   6  580.06   17.70
  -3   0  -6  586.75   17.75
  -4   0  -6   -0.13    0.16
   4   0   6    0.43    0.30
  -4   0  -6    0.23    0.26
   4   0   6    0.37    0.21
  -5   0  -6    0.08    0.34
   5   0   6   -0.19    0.22
   5   0   6   -0.62    0.22
  -5   0  -6    0.03    0.28
   6   0   6   24.17    2.14
  -6   0  -6   22.66    2.18
  -7   0  -6    6.56    1.46
   7   0   6    4.09    1.07
   8   0   6   12.08    1.88
  -8   0  -6   13.61    2.24
  -8  -1   6    2.08    1.05
   8  -1  -6    2.63    0.90
  -8  -1   6    1.88    0.78
  -8   1   6    2.94    1.05
   8   1  -6    2.17    0.85
   7  -1  -6    1.73    0.66
  -7  -1   6    3.16    1.08
  -7   1   6    4.54    1.15
   7   1  -6    2.22    0.77
   6  -1  -6    1.31    0.50
  -6  -1   6    2.05    0.75
   6  -1  -6    2.07    0.58
  -6   1   6    2.20    0.76
   6   1  -6    1.83    0.76
   5  -1  -6    1.12    0.41
  -5  -1   6    0.41    0.35
  -5  -1   6    0.65    0.36
  -5   1   6    0.58    0.32
   5   1  -6    0.62    0.37
  -5   1   6    0.37    0.28
  -4  -1   6   35.06    2.21
   4  -1  -6   36.00    2.01
  -4  -1   6   36.70    2.21
  -4   1   6   36.70    2.14
   4   1  -6   32.71    2.16
   4   1  -6   35.33    2.19
  -4   1   6   35.69    2.21
   3  -1  -6    3.60    0.58
  -3  -1   6    4.33    0.73
  -3  -1   6    2.84    0.92
   3  -1  -6    3.95    0.52
   3   1  -6    3.66    0.68
  -3   1   6    3.16    0.59
  -3   1   6    4.02    0.68
   3   1  -6    3.33    0.66
   2  -1  -6    6.55    0.58
  -2  -1   6    7.54    0.70
  -2  -1   6    5.22    0.58
   2   1  -6    6.30    0.65
   2   1  -6    5.73    0.62
  -2   1   6    5.97    0.61
  -2   1   6    5.82    0.56
   1  -1  -6  117.73    3.74
  -1  -1   6  113.55    3.84
   1  -1  -6  115.43    3.68
  -1  -1   6  112.44    3.82
  -1   1   6  104.65    3.79
   1   1  -6  118.02    3.88
  -1   1   6  133.33    3.83
   1   1  -6  122.89    3.95
   0  -1  -6   17.59    0.87
   0  -1   6   18.46    0.88
   0  -1   6   17.06    0.83
   0  -1  -6   18.12    0.89
   0   1   6   18.97    0.96
   0   1  -6   19.37    0.94
   0   1   6   18.28    0.91
   0   1  -6   18.65    0.90
  -1  -1  -6   63.29    2.26
   1  -1   6   54.33    2.22
   1  -1   6   57.25    2.03
   1  -1   6   55.46    2.08
  -1  -1  -6   53.55    2.20
   1   1   6   58.58    2.31
   1   1   6   54.36    2.23
  -1   1  -6   55.36    2.17
  -1   1  -6   57.60    2.12
  -2  -1  -6   69.31    2.88
   2  -1   6   69.90    2.63
   2  -1   6   71.25    2.75
  -2  -1  -6   70.52    2.93
  -2   1  -6   70.30    2.81
   2   1   6   69.99    3.04
  -2   1  -6   77.05    2.91
   2   1   6   70.82    2.92
   2   1   6   68.96    2.98
   3  -1   6   36.89    1.89
  -3  -1  -6   39.32    2.17
   3  -1   6   39.64    2.01
   3   1   6   38.87    2.15
  -3   1  -6   36.78    2.07
   3   1   6   38.57    2.30
  -3   1  -6   37.98    2.09
   3   1   6   42.61    2.07
  -4  -1  -6    5.33    1.02
   4  -1   6    3.75    0.66
   4  -1   6    3.72    0.71
  -4  -1  -6    4.34    0.86
   4   1   6    5.18    1.02
   4   1   6    4.71    0.86
  -4   1  -6    3.82    0.77
  -4   1  -6    4.37    0.88
  -5  -1  -6   19.74    1.83
   5  -1   6   17.74    1.46
   5  -1   6   18.53    1.60
  -5  -1  -6   19.96    1.80
  -5   1  -6   17.46    1.69
   5   1   6   18.99    1.78
   5   1   6   16.75    1.62
  -5   1  -6   17.96    1.74
  -6  -1  -6    7.83    1.49
   6  -1   6    7.76    1.30
   6  -1   6    8.11    1.25
   6   1   6    8.25    1.45
  -6   1  -6    7.48    1.48
   7  -1   6    2.70    1.34
  -7  -1  -6    5.59    1.33
   7   1   6    4.81    1.22
  -7   1  -6    3.87    1.15
   8  -1   6   -0.14    0.54
  -8  -1  -6   -0.02    0.55
   8   1   6   -0.75    0.53
  -8   1  -6    0.54    0.76
  -8  -2   6   29.48    2.80
   8  -2  -6   29.37    2.16
   8   2  -6   23.32    2.55
  -8   2   6   25.56    2.60
  -7  -2   6    2.26    0.78
   7  -2  -6    1.35    0.63
   7  -2  -6    0.57    0.38
   7   2  -6    1.23    0.79
  -7   2   6    1.52    0.72
   6  -2  -6   -0.18    0.34
  -6  -2   6    1.22    0.80
   6  -2  -6    0.66    0.30
   6   2  -6   -0.01    0.49
  -6   2   6   -0.34    0.38
   5  -2  -6    0.19    0.32
  -5  -2   6    0.56    0.30
  -5  -2   6    0.45    0.36
   5  -2  -6    0.12    0.15
  -5   2   6    0.19    0.32
  -5   2   6    1.47    0.39
   5   2  -6   -0.05    0.29
   5   2  -6   -0.02    0.26
  -4  -2   6   15.84    1.39
  -4  -2   6   16.95    1.43
   4  -2  -6   18.23    1.11
  -4  -2   6   18.91    1.90
  -4   2   6   14.84    1.29
  -4   2   6   18.57    1.48
   4   2  -6   19.19    1.59
   4   2  -6   16.80    1.52
   3  -2  -6   88.14    2.96
  -3  -2   6   78.45    4.25
   3  -2  -6   90.60    2.94
  -3  -2   6   94.15    3.64
  -3  -2   6   89.16    3.59
  -3   2   6   90.84    3.59
  -3   2   6   87.24    3.43
   3   2  -6   82.40    4.01
   3   2  -6   91.25    3.83
  -2  -2   6  247.12    7.59
  -2  -2   6  246.52    7.56
  -2  -2   6  237.10    8.81
   2   2  -6  247.04    7.86
  -2   2   6  243.07    7.44
   2   2  -6  243.17    7.82
  -2   2   6  240.04    7.57
  -1  -2   6   16.60    0.75
  -1  -2   6   17.91    0.75
  -1  -2   6   14.72    1.42
  -1   2   6   16.79    0.84
  -1   2   6   17.29    0.89
   1   2  -6   17.22    0.99
   1   2  -6   16.31    0.98
   0  -2   6    0.30    0.21
   0   2   6    0.03    0.08
   0   2  -6    0.27    0.11
   0   2   6    0.16    0.10
   0   2  -6    0.00    0.07
   1  -2   6   66.97    3.22
  -1  -2  -6   67.43    2.33
  -1  -2  -6   60.38    2.27
  -1   2  -6   64.47    2.30
   1   2   6   63.27    2.56
  -1   2  -6   70.90    2.43
   1   2   6   68.17    2.62
  -2  -2  -6   20.15    1.24
  -2  -2  -6   19.09    1.17
  -2   2  -6   20.65    1.21
   2   2   6   18.40    1.34
   2   2   6   19.83    1.71
  -2   2  -6   19.51    1.14
   2   2   6   18.91    1.54
  -3  -2  -6   27.30    1.68
   3  -2   6   27.84    1.29
  -3  -2  -6   27.31    2.10
   3  -2   6   27.88    1.26
   3   2   6   28.60    1.90
   3   2   6   28.67    2.12
  -3   2  -6   29.64    1.73
   3   2   6   26.62    1.81
  -3   2  -6   28.32    1.69
  -4  -2  -6  142.68    5.53
  -4  -2  -6  130.49    5.50
   4  -2   6  138.25    4.80
   4  -2   6  138.22    4.73
  -4   2  -6  131.15    5.38
   4   2   6  139.90    5.80
  -4   2  -6  140.55    5.48
   4   2   6  142.74    5.71
   5  -2   6    0.31    0.24
   5  -2   6    0.02    0.20
  -5  -2  -6    0.42    0.39
  -5  -2  -6   -0.04    0.25
   5   2   6   -0.03    0.30
  -5   2  -6   -0.06    0.23
  -5   2  -6    0.03    0.33
  -6  -2  -6    1.43    0.58
   6  -2   6    2.01    0.56
   6   2   6    1.03    0.55
  -6   2  -6    1.95    0.64
  -7  -2  -6    9.29    1.70
   7  -2   6    5.63    1.01
   7  -2   6    5.92    1.64
   7   2   6    4.98    1.31
  -7   2  -6    6.74    1.47
   8  -2   6    0.81    0.63
  -8  -2  -6    0.26    0.86
   8   2   6    0.35    0.79
  -8   2  -6    0.68    0.76
  -7  -3   6    1.43    0.62
   7   3  -6    0.54    0.60
  -7   3   6    0.43    0.80
  -6  -3   6    3.50    0.95
  -6  -3   6    5.02    1.04
  -6   3   6    4.03    1.00
   6   3  -6    3.41    0.97
  -5  -3   6    0.49    0.66
  -5  -3   6    0.96    0.47
  -5  -3   6   -0.31    0.38
  -5   3   6    0.84    0.47
   5   3  -6    0.56    0.46
  -5   3   6    0.85    0.55
  -4  -3   6   -0.15    0.39
  -4  -3   6   -0.29    0.24
  -4  -3   6   -0.53    0.22
   4   3  -6   -0.72    0.32
  -4   3   6   -0.07    0.25
  -4   3   6    0.03    0.22
   4   3  -6    0.09    0.27
  -3  -3   6   10.23    0.80
  -3  -3   6    9.16    1.43
  -3  -3   6    9.00    0.75
   3   3  -6   10.17    1.05
   3   3  -6    9.16    1.02
  -3   3   6    8.67    0.84
  -3   3   6    9.48    1.11
  -2  -3   6    0.27    0.27
  -2   3   6    0.36    0.17
  -2   3   6    0.24    0.10
   2   3  -6    0.16    0.19
   2   3  -6    0.02    0.17
  -1  -3   6    7.43    1.52
   1   3  -6    6.62    0.61
   1   3  -6    5.39    0.55
  -1   3   6    5.88    0.45
  -1   3   6    5.53    0.46
   0  -3   6    4.82    1.20
   0   3  -6    4.30    0.41
   0   3   6    3.62    0.41
   0   3  -6    4.67    0.40
   0   3   6    3.70    0.40
   1   3   6    4.66    0.57
   1   3   6    2.59    0.88
  -1   3  -6    3.83    0.37
  -1   3  -6    3.49    0.35
   1   3   6    3.81    0.48
   2   3   6    0.44    0.42
   2   3   6    1.02    0.41
  -2   3  -6    2.03    0.63
   2   3   6    1.35    0.39
  -2   3  -6    1.38    0.34
  -2   3  -6    1.37    0.29
  -3  -3  -6    2.03    0.45
  -3  -3  -6    1.91    0.45
   3   3   6    2.62    0.95
  -3   3  -6    2.52    0.54
   3   3   6    2.56    0.66
  -3   3  -6    2.68    0.71
  -3   3  -6    2.07    0.48
   3   3   6    3.04    0.66
  -4  -3  -6   12.42    1.19
  -4  -3  -6   11.69    1.16
   4   3   6   16.64    1.49
  -4   3  -6   13.92    1.29
   4   3   6   12.09    1.42
  -4   3  -6   13.34    1.28
  -5  -3  -6    3.86    0.76
  -5  -3  -6    4.18    0.89
   5   3   6    5.37    1.11
  -5   3  -6    5.72    1.15
  -5   3  -6    4.22    0.83
  -6  -3  -6    1.14    0.63
   6   3   6    1.17    0.62
  -6   3  -6    1.08    0.56
  -7  -3  -6    0.78    0.67
  -7   3  -6    0.13    0.57
   7   3   6    0.30    0.53
  -7  -4   6    2.43    0.93
  -7   4   6    1.72    1.11
  -7   4   6    2.76    1.11
  -6  -4   6    3.02    0.81
  -6  -4   6    3.08    0.95
   6   4  -6    4.94    1.15
  -6   4   6    3.89    1.06
  -5  -4   6   21.65    1.49
  -5   4   6   16.20    1.60
  -5   4   6   18.32    1.70
  -4   4   6    0.43    0.28
   4   4  -6    0.31    0.49
  -4   4   6    0.35    0.36
  -3   4   6   25.00    1.44
   3   4  -6   23.26    1.79
   3   4  -6   23.98    1.80
  -3   4   6   24.09    1.49
  -2  -4   6  128.62    6.99
   2   4  -6  127.25    4.90
  -2   4   6  132.25    4.42
   2   4  -6  130.87    4.96
  -2   4   6  132.23    4.30
  -1   4   6   17.89    2.19
   1   4  -6   14.00    1.01
   1   4  -6   14.70    1.03
   0   4   6    1.56    0.31
   0   4  -6    1.60    0.28
   0   4   6    0.87    0.61
   0   4   6    1.43    0.35
   0   4  -6    1.01    0.23
  -1   4  -6   47.16    1.85
   1   4   6   50.97    3.79
  -1   4  -6   47.02    1.81
   1   4   6   47.19    2.28
  -2   4  -6   21.21    1.19
   2   4   6   22.48    1.64
  -2   4  -6   21.32    1.22
   2   4   6   28.16    2.73
  -2   4  -6   25.84    2.28
   2   4   6   20.15    1.50
  -3   4  -6   28.37    1.69
   3   4   6   29.38    2.05
   3   4   6   31.20    2.19
   3   4   6   25.42    2.72
  -3   4  -6   29.50    1.71
  -4   4  -6    6.80    1.02
   4   4   6    9.14    1.41
  -4   4  -6    8.21    1.00
  -5  -4  -6    4.90    0.82
  -5  -4  -6    3.29    0.75
  -5   4  -6    3.38    0.86
   5   4   6    4.24    1.11
  -6  -4  -6   -0.43    0.48
  -6   4  -6    0.20    0.70
   6   4   6    0.12    0.65
  -5   5   6    3.10    1.24
  -5   5   6    0.94    0.75
   5   5  -6    2.84    0.92
  -4   5   6    1.37    0.54
  -4   5   6   -0.72    0.55
   4   5  -6    0.61    0.48
  -4   5   6   -0.37    0.78
  -3   5   6    2.91    1.07
  -3   5   6    3.26    0.53
  -3   5   6    2.57    0.56
   3   5  -6    2.00    0.62
   3   5  -6    0.53    0.65
  -2   5   6    0.17    0.48
   2   5  -6   -0.09    0.36
   2   5  -6    0.07    0.31
   1   5  -6    0.99    0.35
   1   5  -6    1.71    0.42
  -1   5   6    1.26    0.79
   0   5   6    1.55    0.43
   0   5   6    0.71    0.74
   0   5  -6    1.31    0.35
   0   5   6    1.78    0.38
   1   5   6   24.00    1.58
   1   5   6   24.36    1.50
   1   5   6   21.73    2.78
  -2   5  -6    3.74    0.54
   2   5   6    4.19    1.33
   2   5   6    3.42    0.86
  -3   5  -6    3.82    0.69
   3   5   6    2.73    0.82
   3   5   6    4.08    1.59
  -3   5  -6    2.46    0.55
  -4   5  -6    0.97    0.54
   5   5   6    3.88    1.20
  -5   5  -6    6.08    1.03
  -4   6   6    8.43    1.24
   4   6  -6   10.07    1.60
  -4   6   6    9.44    2.24
  -3   6   6   12.84    2.61
   3   6  -6   12.78    1.47
   2   6  -6    4.05    0.91
  -2   6   6    5.23    1.65
   2   6  -6    5.02    1.07
  -1   6   6    3.24    1.66
   1   6  -6    2.11    0.62
   0   6   6    0.39    0.60
   0   6   6   -0.61    0.40
   1   6   6    2.61    0.70
   1   6   6    2.60    1.38
   1   6   6    1.63    0.60
   2   6   6    0.38    0.55
   2   6   6    0.21    0.77
   2   6   6    0.60    0.87
   3   6   6   20.22    1.96
  -8   0   7   -0.35    0.54
  -8   0   7   -1.07    0.37
   8   0  -7   -0.14    0.41
  -7   0   7   -0.66    0.26
   7   0  -7    0.40    0.36
  -6   0   7    0.14    0.35
   6   0  -7    0.77    0.37
   6   0  -7   -0.16    0.22
   5   0  -7   -0.29    0.21
  -5   0   7   -0.25    0.18
   5   0  -7    0.21    0.27
  -5   0   7    0.28    0.32
  -4   0   7    0.29    0.15
   4   0  -7   -0.21    0.15
   4   0  -7   -0.18    0.12
  -3   0   7   -0.10    0.12
   3   0  -7    0.41    0.19
  -3   0   7    0.06    0.10
   3   0  -7   -0.05    0.13
  -2   0   7   -0.06    0.07
   2   0  -7   -0.05    0.07
   2   0  -7   -0.04    0.09
  -2   0   7    0.19    0.13
  -1   0   7   -0.02    0.05
   1   0  -7    0.03    0.08
  -1   0   7    0.08    0.11
   1   0  -7    0.05    0.08
   0   0   7    0.06    0.08
   0   0  -7    0.06    0.07
   0   0  -7   -0.07    0.05
   0   0   7   -0.05    0.07
   1   0   7    0.02    0.08
  -1   0  -7   -0.01    0.09
   1   0   7    0.13    0.09
  -1   0  -7   -0.09    0.05
  -2   0  -7   -0.07    0.11
  -2   0  -7    0.25    0.15
   2   0   7   -0.01    0.10
   2   0   7    0.03    0.11
   3   0   7   -0.24    0.11
  -3   0  -7    0.43    0.22
   3   0   7    0.06    0.12
  -3   0  -7   -0.04    0.26
  -4   0  -7   -0.09    0.20
   4   0   7    0.10    0.21
  -4   0  -7   -0.16    0.20
  -5   0  -7   -0.15    0.29
  -5   0  -7   -0.03    0.26
   5   0   7    0.55    0.36
   5   0   7   -0.25    0.21
   6   0   7   -0.64    0.31
  -6   0  -7   -0.04    0.37
   7   0   7    0.23    0.51
  -7   0  -7    0.29    0.62
   8   0   7    0.05    0.46
  -8   0  -7   -0.84    0.49
  -8  -1   7    1.78    0.93
  -8  -1   7    2.30    0.98
   8  -1  -7    2.05    0.81
   8   1  -7    2.77    0.98
  -8   1   7    3.24    0.94
  -7  -1   7   -0.15    1.01
  -7  -1   7    0.62    0.64
   7  -1  -7    2.69    0.83
  -7   1   7    1.71    0.73
   7   1  -7    0.85    0.56
   6  -1  -7    1.46    0.52
   6  -1  -7    0.27    0.42
  -6  -1   7    0.10    0.34
   6   1  -7    0.37    0.37
  -6   1   7   -0.09    0.32
   5  -1  -7   54.43    2.92
  -5  -1   7   54.37    3.12
   5  -1  -7   56.33    2.88
  -5  -1   7   55.85    3.22
  -5   1   7   57.69    3.23
   5   1  -7   58.99    3.25
   5   1  -7   40.47    4.10
  -5   1   7   56.11    3.10
   4  -1  -7  101.53    4.05
   4  -1  -7  102.08    4.02
  -4  -1   7   98.48    4.27
  -4  -1   7   95.89    4.30
   4   1  -7   93.96    4.25
  -4   1   7   99.46    4.19
  -4   1   7  101.05    4.32
   4   1  -7  104.62    4.41
  -3  -1   7  110.04    4.29
   3  -1  -7  112.92    4.04
   3  -1  -7  114.26    4.14
  -3  -1   7  109.31    4.33
  -3   1   7  117.51    4.37
   3   1  -7  116.99    4.46
  -3   1   7  101.77    4.62
   3   1  -7  104.07    4.28
  -2  -1   7  216.04    6.92
   2  -1  -7  196.00    6.57
   2  -1  -7  214.60    6.72
  -2  -1   7  204.32    6.85
  -2   1   7  209.50    6.75
   2   1  -7  228.60    7.02
  -2   1   7  219.13    6.91
   2   1  -7  223.38    6.98
  -1  -1   7    0.18    0.10
   1  -1  -7    0.08    0.09
  -1  -1   7    0.25    0.14
   1  -1  -7    0.12    0.10
  -1   1   7    0.08    0.13
  -1   1   7    0.18    0.10
   1   1  -7    0.18    0.14
   1   1  -7    0.09    0.10
   0  -1   7  162.30    4.88
   0  -1   7  156.55    4.91
   0  -1  -7  153.10    4.91
   0  -1  -7  165.72    4.96
   0   1   7  153.63    5.00
   0   1  -7  162.03    5.00
   0   1  -7  154.88    4.93
   0   1   7  152.17    4.93
  -1  -1  -7  230.03    7.21
   1  -1   7  228.60    7.06
   1  -1   7  227.79    6.96
  -1  -1  -7  227.97    7.19
  -1   1  -7  241.49    7.11
   1   1   7  222.78    7.22
  -1   1  -7  236.41    7.18
   1   1   7  239.13    7.32
   2  -1   7  109.91    3.87
   2  -1   7  108.56    3.76
  -2  -1  -7  104.48    4.04
  -2  -1  -7  113.53    4.05
  -2   1  -7  108.57    3.99
   2   1   7  103.30    4.01
  -2   1  -7  106.10    3.90
   3  -1   7   12.96    1.02
   3  -1   7   12.76    1.06
  -3  -1  -7   14.21    1.24
  -3  -1  -7   14.57    1.21
   3   1   7   14.63    1.29
   3   1   7   13.76    1.17
  -3   1  -7   16.21    1.25
  -3   1  -7   12.99    1.13
   3   1   7   14.32    1.13
   4  -1   7   22.94    1.56
   4  -1   7   23.98    1.67
  -4  -1  -7   24.76    1.85
  -4  -1  -7   25.41    1.91
   4   1   7   24.17    1.91
  -4   1  -7   22.79    1.75
  -4   1  -7   22.32    1.74
   4   1   7   20.08    1.61
   5  -1   7   19.82    1.62
  -5  -1  -7   23.21    2.01
  -5  -1  -7   22.54    1.94
   5  -1   7   26.65    1.91
  -5   1  -7   23.41    1.96
   5   1   7   22.14    1.87
   5   1   7   19.86    1.91
  -5   1  -7   22.41    1.94
   6  -1   7   36.12    2.51
  -6  -1  -7   32.19    2.66
   6  -1   7   33.54    2.38
  -6   1  -7   36.14    2.78
   6   1   7   36.01    2.92
  -7  -1  -7    7.43    1.52
   7  -1   7    6.69    1.23
  -7   1  -7    6.08    1.33
   7   1   7    6.68    1.45
   8  -1   7    0.31    0.56
  -8  -1  -7    0.15    0.54
  -8   1  -7    0.85    0.78
   8   1   7    0.25    0.62
   8  -2  -7    1.77    0.70
  -8  -2   7    1.88    0.95
   8   2  -7    2.46    0.93
  -8   2   7    2.91    1.00
   7  -2  -7    0.63    0.54
   7  -2  -7    0.02    0.28
  -7  -2   7    0.62    0.52
  -7   2   7   -0.03    0.50
   7   2  -7   -0.28    0.40
  -6  -2   7    2.74    1.02
   6  -2  -7    1.38    0.58
  -6  -2   7    2.77    0.86
   6  -2  -7    3.34    0.66
  -6   2   7    3.33    0.86
   6   2  -7    3.25    1.36
  -5  -2   7   -0.04    0.40
  -5  -2   7   -0.48    0.25
  -5  -2   7    0.54    0.28
   5  -2  -7    0.36    0.21
   5   2  -7    0.89    0.44
  -5   2   7    0.53    0.40
  -5   2   7    0.90    0.50
   5   2  -7   -0.19    0.25
  -4  -2   7   13.75    1.63
   4  -2  -7   15.96    1.06
  -4  -2   7   13.49    1.33
  -4  -2   7   16.82    1.37
   4  -2  -7   16.13    1.04
  -4   2   7   15.66    1.41
   4   2  -7   18.24    1.54
   4   2  -7   18.80    1.52
  -4   2   7   14.84    1.26
  -3  -2   7    2.00    0.49
  -3  -2   7    2.86    0.60
   3  -2  -7    2.62    0.31
   3  -2  -7    1.82    0.31
  -3  -2   7    4.11    0.98
  -3   2   7    2.03    0.49
   3   2  -7    1.98    0.55
   3   2  -7    2.17    0.51
  -2  -2   7    2.69    0.47
  -2  -2   7    3.08    0.50
  -2  -2   7    4.24    0.97
   2   2  -7    2.83    0.53
  -2   2   7    3.34    0.40
   2   2  -7    4.51    0.55
  -2   2   7    3.22    0.53
  -1  -2   7   19.95    0.92
  -1  -2   7   19.69    0.90
  -1   2   7   19.83    0.99
  -1   2   7   19.15    1.04
   1   2  -7   20.46    1.15
   1   2  -7   19.78    1.13
   0  -2   7    5.26    0.79
   0   2   7    8.05    0.59
   0   2   7    6.85    0.56
   0   2  -7    7.08    0.55
   0   2  -7    6.69    0.51
  -1  -2  -7    3.37    0.37
  -1  -2  -7    2.78    0.34
   1  -2   7    3.22    0.73
   1   2   7    2.43    0.46
   1   2   7    3.99    0.46
  -1   2  -7    3.25    0.39
  -1   2  -7    3.01    0.35
  -2  -2  -7   52.02    2.20
  -2  -2  -7   48.83    2.23
   2   2   7   48.46    2.35
  -2   2  -7   46.96    2.16
  -2   2  -7   47.23    2.11
   2   2   7   46.63    2.38
   2   2   7   49.08    2.92
   3  -2   7    3.85    0.44
  -3  -2  -7    4.23    0.74
   3  -2   7    3.85    0.42
  -3  -2  -7    4.19    0.74
  -3   2  -7    4.63    0.76
   3   2   7    6.64    1.29
  -3   2  -7    3.29    0.65
   3   2   7    4.69    0.84
   3   2   7    4.02    0.81
   4  -2   7    4.45    0.54
   4  -2   7    3.89    0.63
  -4  -2  -7    4.62    0.88
  -4  -2  -7    4.68    0.97
  -4   2  -7    5.99    0.98
  -4   2  -7    4.17    0.84
   4   2   7    4.56    0.82
   4   2   7    4.70    0.98
   5  -2   7   18.47    1.38
  -5  -2  -7   16.75    1.69
   5  -2   7   18.66    1.33
  -5  -2  -7   22.23    1.87
  -5   2  -7   18.36    1.75
  -5   2  -7   16.83    1.65
   5   2   7   16.16    1.75
   6  -2   7    0.53    0.43
   6  -2   7    0.94    0.44
  -6  -2  -7    0.88    0.60
  -6   2  -7    0.85    0.52
   6   2   7    1.05    0.61
  -7  -2  -7    0.19    0.59
   7  -2   7    0.76    0.73
   7  -2   7    0.84    0.43
  -7   2  -7    0.41    0.61
   7   2   7   -0.45    0.41
   8  -2   7    2.05    0.78
  -8  -2  -7    0.29    0.92
   8   2   7    0.11    0.83
  -7  -3   7    3.18    1.00
  -7   3   7    3.18    1.10
   7   3  -7    0.85    0.63
  -6  -3   7   32.16    2.39
  -6  -3   7   30.07    2.34
  -6   3   7   30.57    2.46
   6   3  -7   32.73    2.64
  -5  -3   7   88.26    4.10
  -5  -3   7   89.20    4.13
  -5   3   7   84.60    4.11
  -5   3   7   91.99    4.33
   5   3  -7   91.49    4.57
  -4  -3   7    0.91    0.37
  -4  -3   7   -0.13    0.23
  -4  -3   7    0.44    0.70
   4   3  -7    0.55    0.42
  -4   3   7   -0.41    0.28
  -3  -3   7   -0.13    0.14
  -3  -3   7    0.70    0.41
  -3  -3   7   -0.10    0.13
  -3   3   7   -0.23    0.16
   3   3  -7   -0.12    0.21
  -3   3   7    0.02    0.17
   3   3  -7    0.48    0.28
  -2  -3   7    1.66    0.60
   2   3  -7    2.09    0.51
  -2   3   7    1.77    0.34
  -2   3   7    1.73    0.34
   2   3  -7    2.47    0.54
  -1  -3   7    2.94    0.85
  -1   3   7    2.48    0.36
  -1   3   7    2.80    0.35
   1   3  -7    1.89    0.40
   1   3  -7    3.10    0.51
   0  -3   7   98.85    5.15
   0   3  -7  110.62    3.63
   0   3   7  108.99    3.72
   0   3   7  113.37    3.78
   0   3  -7  110.98    3.68
  -1   3  -7   76.04    2.72
  -1   3  -7   80.86    2.83
   1   3   7   76.58    3.13
   1   3   7   79.36    3.09
  -2  -3  -7    7.75    0.54
  -2  -3  -7    6.92    0.52
  -2   3  -7    8.12    0.73
   2   3   7    8.32    1.28
  -2   3  -7    7.28    0.65
   2   3   7    8.26    0.90
   2   3   7    6.35    0.78
  -3  -3  -7    0.55    0.23
  -3  -3  -7    0.82    0.30
  -3   3  -7   -0.06    0.20
   3   3   7    0.12    0.23
   3   3   7    1.12    0.37
  -3   3  -7    0.50    0.26
   3   3   7    0.35    0.34
  -4  -3  -7    0.62    0.37
  -4  -3  -7    1.23    0.45
   4   3   7    0.47    0.44
  -4   3  -7    0.70    0.36
   4   3   7    0.05    0.38
  -4   3  -7   -0.43    0.29
  -5  -3  -7    1.38    0.55
  -5  -3  -7    0.39    0.40
   5   3   7    1.85    0.70
  -5   3  -7    1.94    0.61
  -5   3  -7    0.92    0.55
  -6  -3  -7   43.02    2.98
   6   3   7   43.39    3.32
  -7  -3  -7   14.11    2.11
  -7   3  -7   13.54    2.13
   7   3   7   14.47    2.28
  -7  -4   7    1.96    1.01
  -7   4   7    2.53    0.97
  -6  -4   7   -1.00    0.67
  -6  -4   7   -0.21    0.48
   6   4  -7   -0.03    0.37
  -5  -4   7    2.85    0.59
  -5   4   7    2.14    0.72
  -5   4   7    1.82    0.59
  -4   4   7   -0.10    0.31
  -4   4   7    0.16    0.36
   4   4  -7   -0.47    0.28
   4   4  -7    1.30    0.74
  -3   4   7    0.93    0.37
   3   4  -7    2.70    0.68
  -3   4   7    2.06    0.42
   3   4  -7    1.01    0.56
  -2  -4   7    3.11    1.04
   2   4  -7    5.42    1.10
  -2   4   7    5.12    0.53
  -2   4   7    5.12    0.56
   2   4  -7    4.53    0.78
   1   4  -7    2.01    0.44
   1   4  -7    3.54    0.60
  -1   4   7    1.30    0.33
  -1   4   7    1.66    0.31
   0   4   7   29.23    1.51
   0   4  -7   27.45    1.32
   0   4   7   25.27    1.37
   0   4  -7   27.26    1.38
   0   4   7   25.36    2.69
   1   4   7    0.26    0.25
  -1   4  -7   -0.01    0.14
   1   4   7    0.35    0.27
  -1   4  -7    0.37    0.12
   1   4   7    0.29    0.34
   2   4   7   43.31    3.56
   2   4   7   37.79    2.22
  -2   4  -7   39.29    1.85
   2   4   7   40.82    2.36
  -2   4  -7   43.82    1.95
  -3   4  -7    2.32    0.49
   3   4   7    2.68    0.75
   3   4   7    1.06    0.75
  -3   4  -7    1.13    0.38
  -4   4  -7    0.84    0.47
   4   4   7    2.21    0.63
  -4   4  -7    1.52    0.58
  -5  -4  -7    1.76    0.57
  -5  -4  -7    1.50    0.60
   5   4   7    1.08    0.68
  -5   4  -7    1.82    0.64
  -6  -4  -7    2.57    0.76
  -6   4  -7    3.63    1.06
   6   4   7    3.51    1.09
  -5   5   7    5.52    1.06
   5   5  -7    4.45    1.09
  -5   5   7    6.91    2.03
  -4   5   7   22.93    2.91
  -4   5   7   16.94    1.51
   4   5  -7   19.72    1.89
  -4   5   7   22.02    1.72
  -3   5   7    0.05    0.34
  -3   5   7    0.61    0.50
  -3   5   7    0.73    0.33
   3   5  -7   -0.10    0.40
   3   5  -7    0.08    0.58
   2   5  -7    0.64    0.38
  -2   5   7    0.05    0.24
  -2   5   7    1.08    0.34
  -2   5   7    0.34    0.58
   2   5  -7    0.79    0.43
   1   5  -7    2.79    0.53
  -1   5   7    2.70    0.46
  -1   5   7    2.33    0.92
   1   5  -7    1.58    0.46
   0   5  -7   14.77    1.00
   0   5   7   12.87    1.11
   0   5  -7   15.45    0.99
   0   5   7   15.65    2.26
   1   5   7   81.45    3.33
   1   5   7   70.53    3.40
   1   5   7   77.30    5.45
   2   5   7    3.03    0.70
  -2   5  -7    2.51    0.51
   2   5   7    4.44    1.54
   2   5   7    1.49    0.55
  -2   5  -7    2.79    0.49
   3   5   7   -0.52    0.61
  -3   5  -7    0.12    0.33
   3   5   7    0.07    0.39
  -3   5  -7   -0.58    0.33
  -4   5  -7   -0.13    0.49
   4   5   7    1.29    0.70
  -5   5  -7    1.51    0.56
   5   5   7    0.44    0.61
  -4   6   7    1.62    1.01
   3   6  -7    0.39    0.63
  -3   6   7    0.36    0.75
   2   6  -7    0.12    0.51
   2   6  -7    0.51    0.71
  -2   6   7   -0.68    0.70
  -1   6   7    3.52    1.35
   1   6  -7    2.76    0.71
   1   6  -7    4.13    0.77
   0   6   7    0.02    0.35
   0   6   7   -0.52    0.40
   0   6   7   -1.02    0.54
   1   6   7    1.05    0.54
   1   6   7    1.73    0.94
   1   6   7   -0.08    0.46
   2   6   7   -1.31    0.47
   2   6   7   -0.53    0.56
  -3   6  -7    0.53    0.62
   3   6   7    2.17    1.10
   8   0  -8   59.35    3.91
  -8   0   8   58.17    4.18
  -7   0   8    7.22    1.42
   7   0  -8    7.40    1.35
   6   0  -8   56.85    3.37
  -6   0   8   61.41    3.64
   6   0  -8   54.64    3.29
   5   0  -8    6.08    1.03
  -5   0   8    7.01    1.21
   5   0  -8    4.91    0.91
  -5   0   8    6.98    1.17
  -4   0   8    0.22    0.24
  -4   0   8    0.22    0.21
   4   0  -8    0.41    0.21
   4   0  -8    0.23    0.22
   3   0  -8   51.18    2.48
  -3   0   8   52.33    2.54
   3   0  -8   54.34    2.71
  -3   0   8   54.40    2.65
   2   0  -8  161.73    5.45
   2   0  -8  160.42    5.52
  -2   0   8  164.74    5.60
  -2   0   8  168.23    5.52
  -1   0   8  335.86   10.18
  -1   0   8  350.23   10.28
   1   0  -8  338.95   10.25
   0   0  -8   37.62    1.64
   0   0   8   39.37    1.72
   0   0   8   38.34    1.63
   0   0  -8   36.93    1.67
  -1   0  -8  280.17    8.49
   1   0   8  280.48    8.42
   1   0   8  269.90    8.54
  -1   0  -8  272.50    8.51
   2   0   8    5.40    0.67
   2   0   8    6.26    0.66
  -2   0  -8    5.46    0.65
  -2   0  -8    5.84    0.67
  -3   0  -8   13.62    1.21
  -3   0  -8   12.56    1.16
   3   0   8   12.84    1.40
   3   0   8   12.68    1.10
   4   0   8   65.60    3.38
   4   0   8   65.63    3.25
  -4   0  -8   66.67    3.39
  -4   0  -8   71.97    3.53
   5   0   8  107.14    4.91
  -5   0  -8  113.65    5.16
  -5   0  -8   99.71    4.87
  -6   0  -8    4.75    1.16
   6   0   8    3.89    0.90
   7   0   8    1.63    0.68
  -7   0  -8    1.47    0.86
   8   0   8    0.81    0.82
  -8   0  -8    1.38    0.81
   8  -1  -8    0.47    0.46
  -8  -1   8    0.21    0.48
   8   1  -8    0.13    0.40
  -8   1   8   -0.53    0.43
   7  -1  -8    1.49    0.49
  -7  -1   8    0.58    0.59
  -7  -1   8    0.83    0.55
  -7   1   8    0.25    0.44
   7   1  -8    0.93    0.50
   6  -1  -8   14.68    2.73
   6  -1  -8   15.64    1.51
  -6  -1   8   14.73    1.69
  -6   1   8   14.86    1.67
   6   1  -8   16.82    1.80
  -5  -1   8   47.26    2.88
   5  -1  -8   42.12    2.54
  -5  -1   8   52.68    3.08
   5  -1  -8   45.84    2.59
   5   1  -8   45.86    2.94
  -5   1   8   46.95    3.03
   5   1  -8   49.01    2.93
  -5   1   8   49.32    2.94
   4  -1  -8    0.43    0.29
  -4  -1   8    0.83    0.33
   4  -1  -8    1.18    0.36
  -4  -1   8    0.66    0.35
   4   1  -8    0.88    0.36
  -4   1   8    0.64    0.37
  -4   1   8    0.58    0.29
   4   1  -8    0.60    0.34
  -3  -1   8   16.40    1.30
   3  -1  -8   18.95    1.24
  -3  -1   8   16.59    1.25
   3  -1  -8   16.51    1.13
   3   1  -8   15.60    1.56
   3   1  -8   16.60    1.32
  -3   1   8   15.78    1.26
  -3   1   8   15.74    1.18
   2  -1  -8  147.80    5.02
   2  -1  -8  147.28    4.90
  -2  -1   8  148.04    5.18
  -2  -1   8  146.31    5.12
   2   1  -8  154.59    5.20
  -2   1   8  152.71    5.06
  -2   1   8  151.21    5.15
   2   1  -8  153.09    5.26
   1  -1  -8   46.73    1.83
  -1  -1   8   47.61    1.97
   1  -1  -8   46.53    1.89
  -1  -1   8   46.66    1.92
  -1   1   8   44.28    1.95
   1   1  -8   46.57    2.02
   1   1  -8   46.84    1.98
  -1   1   8   46.44    1.90
   0  -1  -8   43.59    1.81
   0  -1  -8   42.51    1.78
   0  -1   8   47.24    1.77
   0  -1   8   41.67    1.77
   0   1  -8   41.29    1.77
   0   1  -8   45.70    1.86
   0   1   8   43.50    1.88
   0   1   8   44.58    1.82
  -1  -1  -8   29.46    1.51
   1  -1   8   29.17    1.43
   1  -1   8   32.50    1.40
  -1  -1  -8   27.61    1.48
   1   1   8   31.33    1.60
   1   1   8   31.66    1.55
  -1   1  -8   29.61    1.48
  -1   1  -8   30.73    1.46
  -2  -1  -8    5.52    0.67
   2  -1   8    6.43    0.61
   2  -1   8    5.81    0.62
  -2  -1  -8    3.96    0.66
   2  -1   8    5.91    0.49
   2   1   8    6.35    0.72
  -2   1  -8    6.20    0.68
   2   1   8    6.72    0.77
  -2   1  -8    5.62    0.65
   3  -1   8    1.01    0.35
  -3  -1  -8    0.88    0.37
  -3  -1  -8    0.44    0.25
   3  -1   8    0.70    0.25
   3   1   8    1.11    0.39
   3   1   8    0.88    0.32
   3   1   8    0.41    0.29
  -3   1  -8    0.85    0.45
  -3   1  -8    0.70    0.32
   4  -1   8    0.22    0.24
  -4  -1  -8   -0.10    0.18
   4  -1   8    0.08    0.21
  -4  -1  -8    0.04    0.19
   4   1   8    0.46    0.26
  -4   1  -8    0.56    0.32
   4   1   8    0.45    0.34
  -4   1  -8    0.39    0.27
  -5  -1  -8    3.82    0.88
  -5  -1  -8    4.02    0.94
   5  -1   8    2.26    0.58
   5  -1   8    3.81    0.83
   5   1   8    4.18    0.99
  -5   1  -8    3.00    0.81
   5   1   8    2.26    0.73
  -5   1  -8    4.03    0.97
  -6  -1  -8   -0.52    0.51
   6  -1   8   -0.16    0.35
   6  -1   8   -0.10    0.48
  -6   1  -8    0.11    0.41
  -7  -1  -8    4.48    1.24
   7  -1   8    4.66    1.10
   7   1   8    4.18    1.12
  -7   1  -8    5.61    1.38
  -8  -1  -8   12.77    2.28
   8  -1   8   13.12    1.64
  -8   1  -8   11.17    2.41
   8   1   8   12.07    1.99
  -8  -2   8    2.24    0.99
   8  -2  -8    4.84    1.28
  -8   2   8    8.53    1.59
   8   2  -8    5.64    1.31
   7  -2  -8   34.35    2.25
   7  -2  -8   31.90    2.48
  -7  -2   8   41.31    3.09
  -7   2   8   33.32    2.85
   7   2  -8   32.78    2.84
   6  -2  -8   11.72    1.14
   6  -2  -8   10.97    1.17
  -6  -2   8   12.52    1.50
  -6  -2   8   10.89    1.57
  -6   2   8   12.67    1.54
  -5  -2   8    4.96    0.95
   5  -2  -8    5.51    0.70
  -5  -2   8    6.23    1.14
  -5  -2   8    5.34    1.09
  -5   2   8    6.25    1.13
   5   2  -8    4.68    0.99
   5   2  -8    5.33    1.08
  -4  -2   8    6.72    1.01
  -4  -2   8    5.69    0.98
   4  -2  -8    6.23    0.64
  -4  -2   8    4.85    1.05
   4  -2  -8    5.58    0.61
  -4   2   8    7.39    0.86
   4   2  -8    6.73    1.06
   4   2  -8    6.08    1.06
  -4   2   8    6.68    1.03
   3  -2  -8   19.57    1.02
   3  -2  -8   18.54    1.03
  -3  -2   8   21.21    1.44
   3   2  -8   22.62    1.57
  -3   2   8   19.07    1.38
  -3   2   8   18.85    1.27
   3   2  -8   21.73    1.57
  -2  -2   8  136.18    4.65
  -2  -2   8  140.58    4.68
   2   2  -8  128.22    4.88
  -2   2   8  135.20    4.58
   2   2  -8  140.81    4.92
  -2   2   8  134.38    4.71
  -1  -2   8  247.63    7.61
  -1  -2   8  258.68    9.05
  -1  -2   8  256.66    7.61
  -1   2   8  267.75    7.76
   1   2  -8  263.94    8.02
  -1   2   8  247.09    7.83
   1   2  -8  252.00    7.93
   0  -2  -8    3.71    0.30
   0  -2  -8    4.16    0.32
   0  -2   8    4.15    0.85
   0   2  -8    4.51    0.44
   0   2   8    3.44    0.40
   0   2   8    4.39    0.49
   0   2  -8    4.09    0.44
  -1  -2  -8    0.40    0.18
  -1  -2  -8    0.09    0.14
   1  -2   8    0.73    0.32
  -1   2  -8    0.57    0.19
  -1   2  -8    0.67    0.21
   1   2   8    0.34    0.16
   1   2   8    0.51    0.26
  -2  -2  -8    1.82    0.43
   2  -2   8    2.02    0.23
   2  -2   8    1.51    0.25
  -2  -2  -8    1.52    0.41
   2   2   8    2.31    0.50
  -2   2  -8    2.19    0.45
   2   2   8    1.92    0.52
   2   2   8    0.83    0.45
  -2   2  -8    1.65    0.38
   3  -2   8   69.90    2.73
   3  -2   8   72.44    2.68
  -3  -2  -8   75.53    3.35
  -3  -2  -8   75.62    3.26
  -3   2  -8   68.70    3.18
   3   2   8   70.30    3.71
   3   2   8   72.66    3.40
   3   2   8   75.09    3.53
  -3   2  -8   71.42    3.17
   4  -2   8   56.86    2.48
   4  -2   8   59.62    2.61
  -4  -2  -8   58.06    3.12
  -4  -2  -8   59.08    3.05
  -4   2  -8   56.38    3.01
   4   2   8   51.73    3.62
   4   2   8   57.30    3.30
  -4   2  -8   58.80    3.08
   5  -2   8   23.53    1.61
   5  -2   8   23.57    1.51
  -5  -2  -8   23.93    1.97
  -5  -2  -8   21.72    1.97
   5   2   8   20.54    2.00
  -5   2  -8   25.27    2.08
  -5   2  -8   22.62    1.93
  -6  -2  -8    2.27    1.21
   6  -2   8    3.35    0.74
   6  -2   8    3.85    0.76
  -6   2  -8    4.28    1.07
   6   2   8    1.23    0.74
   7  -2   8    3.58    0.97
  -7  -2  -8    3.10    1.13
   7  -2   8    4.65    0.94
   7   2   8    4.76    1.17
  -7   2  -8    3.85    1.12
   8  -2   8    1.74    0.81
  -8   2  -8    0.03    0.84
   8   2   8    1.86    1.01
  -7  -3   8    6.06    1.32
  -7   3   8    3.64    1.15
   7   3  -8    4.27    1.22
  -6  -3   8    2.16    0.70
  -6  -3   8    1.23    0.75
   6   3  -8    1.07    0.57
  -6   3   8    2.01    0.71
  -5  -3   8    3.32    0.74
  -5  -3   8    1.51    0.67
  -5   3   8    3.59    0.84
   5   3  -8    3.38    0.90
  -5   3   8    2.33    0.73
  -4  -3   8    2.01    0.52
  -4  -3   8    1.78    0.52
  -4  -3   8    1.81    0.89
   4   3  -8    0.91    0.56
  -4   3   8    2.00    0.52
   4   3  -8    0.84    0.44
  -4   3   8    1.42    0.49
  -3  -3   8    2.11    0.83
  -3  -3   8    2.85    0.53
  -3  -3   8    2.81    0.53
  -3   3   8    2.37    0.52
   3   3  -8    2.91    0.70
   3   3  -8    2.72    0.65
  -3   3   8    2.83    0.54
  -2  -3   8   -0.18    0.33
  -2   3   8    0.26    0.19
  -2   3   8    0.20    0.12
   2   3  -8    0.04    0.23
   2   3  -8    0.23    0.18
  -1  -3   8   21.52    2.08
  -1   3   8   26.19    1.23
   1   3  -8   21.40    1.32
   1   3  -8   23.29    1.35
  -1   3   8   22.76    1.23
   0  -3   8    3.59    1.00
   0   3  -8    3.53    0.41
   0   3  -8    3.15    0.49
   0   3   8    4.22    0.48
   0   3   8    3.37    0.53
   1   3   8    8.60    0.85
  -1   3  -8    8.20    0.65
  -1   3  -8    9.17    0.71
   1   3   8    8.70    0.81
  -2   3  -8   -0.09    0.14
   2   3   8    0.42    0.24
   2   3   8    0.41    0.47
   2   3   8   -0.11    0.22
  -3  -3  -8    0.14    0.24
  -3  -3  -8   -0.03    0.21
   3   3   8    0.23    0.31
  -3   3  -8   -0.20    0.16
   3   3   8   -0.07    0.20
   3   3   8    0.51    0.32
  -3   3  -8    0.02    0.23
  -4  -3  -8   -0.20    0.27
  -4  -3  -8    0.64    0.41
   4   3   8    0.95    0.49
  -4   3  -8    1.69    0.41
   4   3   8    0.58    0.41
   4   3   8    1.13    0.50
  -4   3  -8    0.09    0.24
  -5  -3  -8    2.11    0.67
  -5  -3  -8    0.92    0.65
  -5   3  -8    1.70    0.65
   5   3   8    3.08    0.97
  -5   3  -8    2.40    0.97
   6   3   8    0.44    0.56
  -6   3  -8    0.12    0.51
  -7  -3  -8    1.42    0.96
  -7   3  -8    1.66    0.96
   7   3   8    0.81    0.67
  -7  -4   8    5.25    1.23
  -7   4   8    3.32    1.10
  -6  -4   8   26.94    2.03
  -6  -4   8   23.60    2.05
  -6   4   8   22.12    3.65
   6   4  -8   25.34    2.44
  -5  -4   8    9.86    1.06
   5   4  -8   13.73    2.21
  -5   4   8    7.87    1.23
  -5   4   8    9.96    1.27
   4   4  -8   17.92    1.66
  -4   4   8   17.00    1.43
  -4   4   8   16.59    1.34
  -3   4   8   39.49    2.03
   3   4  -8   39.25    2.44
  -3   4   8   40.10    2.15
   3   4  -8   46.43    2.56
  -2  -4   8    3.72    1.30
  -2   4   8    4.25    0.64
   2   4  -8    3.57    0.72
   2   4  -8    3.73    0.71
  -1  -4   8    3.17    0.90
   1   4  -8    4.59    0.69
  -1   4   8    5.55    0.53
  -1   4   8    4.76    0.55
   0   4  -8  154.95    5.46
   0   4   8  198.12    8.62
   0   4  -8  152.81    5.34
   0   4   8  172.09    5.55
   0   4   8  166.61    5.64
   1   4   8    0.52    0.27
  -1   4  -8    0.37    0.21
   1   4   8   -0.27    0.16
   1   4   8   -0.06    0.24
  -2   4  -8    1.04    0.35
   2   4   8    0.75    0.31
   2   4   8    1.59    0.52
   2   4   8    1.84    0.81
  -2   4  -8    1.53    0.40
  -3   4  -8  122.66    4.86
  -3   4  -8  118.04    4.60
   3   4   8  124.05    5.26
   3   4   8  114.28    6.38
   3   4   8  115.82    5.04
  -4   4  -8    9.69    1.11
   4   4   8   10.13    1.34
  -4   4  -8    9.33    1.18
  -5  -4  -8    6.40    0.98
  -5  -4  -8    6.74    0.97
   5   4   8    3.89    1.08
  -5   4  -8    8.13    1.35
  -6  -4  -8    0.31    0.55
   6   4   8    0.71    0.69
  -6   4  -8    1.57    0.70
  -5   5   8    5.09    1.08
   5   5  -8    2.96    0.94
  -5   5   8    4.80    1.66
  -4   5   8    2.88    0.71
   4   5  -8    2.95    0.82
  -4   5   8    4.01    1.49
  -4   5   8    2.97    0.77
   3   5  -8    1.52    0.62
  -3   5   8    3.47    1.29
  -3   5   8    2.92    0.57
  -3   5   8    4.28    0.72
   3   5  -8    2.65    0.77
  -2   5   8    1.09    0.90
   2   5  -8    1.09    0.45
   2   5  -8    1.37    0.50
  -2   5   8    1.28    0.37
   1   5  -8   10.90    1.00
  -1   5   8    9.58    0.88
   1   5  -8   10.39    1.00
  -1   5   8   10.51    0.85
  -1   5   8   12.74    2.67
   0   5  -8   -0.56    0.31
   0   5   8   -0.26    0.31
   0   5   8    0.30    0.32
   0   5   8    0.58    0.61
   0   5  -8    0.84    0.27
  -1   5  -8    1.70    0.43
   1   5   8    3.17    1.13
   1   5   8    1.93    0.45
   1   5   8    2.12    0.60
  -1   5  -8    1.47    0.36
   2   5   8    2.69    0.79
   2   5   8    0.37    0.55
  -2   5  -8    0.90    0.38
   2   5   8    1.00    0.61
  -2   5  -8    0.85    0.39
  -3   5  -8    1.78    0.58
  -3   5  -8    1.56    0.51
   3   5   8    2.62    1.10
   3   5   8    0.08    0.51
   4   5   8   -0.16    0.57
  -4   5  -8    0.32    0.44
  -4   5  -8   -0.29    0.61
   5   5   8   -0.01    0.52
  -3   6   8    6.17    1.59
   3   6  -8    2.30    0.86
  -3   6   8    2.98    0.77
   2   6  -8   37.05    2.35
  -2   6   8   39.28    4.16
   2   6  -8   35.17    2.46
   1   6  -8    5.17    0.99
   1   6  -8    6.86    0.98
  -1   6   8    9.37    2.44
   0   6   8    1.57    0.95
   0   6   8    0.45    0.55
   0   6   8    1.77    0.52
   1   6   8    2.76    0.72
   1   6   8    1.53    0.82
   1   6   8    2.05    0.66
   2   6   8    0.20    0.49
   2   6   8    0.29    0.83
  -3   6  -8    2.43    0.81
   3   6   8    3.41    1.20
   8   0  -9   -0.16    0.45
  -8   0   9   -0.10    0.51
   7   0  -9    0.43    0.40
  -7   0   9    0.04    0.45
   6   0  -9   -0.44    0.21
   6   0  -9    0.34    0.39
  -6   0   9    0.21    0.39
  -5   0   9   -0.03    0.22
   5   0  -9    0.27    0.30
   5   0  -9    0.18    0.31
  -4   0   9    0.13    0.16
  -4   0   9    0.02    0.23
   4   0  -9    0.05    0.16
   3   0  -9    0.09    0.15
  -3   0   9   -0.29    0.12
   3   0  -9    0.08    0.13
   2   0  -9   -0.08    0.10
  -2   0   9    0.13    0.15
  -2   0   9    0.35    0.16
  -1   0   9    0.02    0.10
  -1   0   9    0.04    0.06
   1   0  -9    0.07    0.10
   1   0  -9   -0.09    0.08
   0   0  -9    0.08    0.12
   0   0  -9    0.26    0.14
   0   0   9    0.01    0.09
   0   0   9    0.16    0.11
   1   0   9   -0.02    0.10
   1   0   9    0.14    0.10
  -1   0  -9   -0.12    0.08
  -1   0  -9    0.00    0.09
   2   0   9   -0.03    0.15
   2   0   9   -0.08    0.09
  -2   0  -9   -0.02    0.15
  -2   0  -9    0.03    0.11
   3   0   9    0.04    0.18
   3   0   9    0.02    0.17
  -3   0  -9    0.07    0.18
   4   0   9   -0.21    0.19
  -4   0  -9   -0.14    0.15
   4   0   9   -0.10    0.20
  -4   0  -9    0.09    0.24
   5   0   9    0.09    0.23
  -5   0  -9   -0.28    0.24
   5   0   9    0.38    0.30
  -5   0  -9    0.07    0.32
   7   0   9   -0.22    0.46
  -7   0  -9    0.39    0.49
   8   0   9    0.19    0.58
  -8   0  -9   -0.56    0.99
   8  -1  -9    3.60    0.98
  -8  -1   9    4.13    1.19
   8   1  -9    2.22    0.79
  -8   1   9    4.25    1.20
  -7  -1   9    1.76    0.70
   7  -1  -9    1.13    0.53
   7   1  -9    1.44    0.62
  -7   1   9    0.94    0.69
  -6  -1   9   24.89    2.20
   6  -1  -9   25.27    2.04
   6  -1  -9   23.25    1.89
   6   1  -9   24.47    2.17
  -6   1   9   23.01    2.12
   5  -1  -9   22.51    1.64
  -5  -1   9   17.97    1.69
   5  -1  -9   15.44    1.43
   5   1  -9   22.06    1.84
  -5   1   9   15.00    1.56
   5   1  -9   16.93    1.65
   4  -1  -9   60.20    2.81
  -4  -1   9   58.58    3.09
   4  -1  -9   59.53    2.88
  -4  -1   9   57.46    3.00
   4   1  -9   62.94    3.17
  -4   1   9   57.93    2.97
  -4   1   9   62.07    3.11
   4   1  -9   57.50    3.09
   3  -1  -9   11.26    0.94
  -3  -1   9   10.71    1.33
  -3  -1   9   13.68    1.15
   3  -1  -9   12.92    1.03
   3   1  -9   12.38    1.15
  -3   1   9   12.82    1.07
   3   1  -9   15.04    1.26
  -3   1   9   12.71    1.15
   2  -1  -9   83.63    3.17
   2  -1  -9   83.96    3.08
  -2  -1   9   83.38    3.28
  -2  -1   9   77.35    3.26
   2   1  -9   85.80    3.31
  -2   1   9   85.19    3.30
  -2   1   9   83.39    3.20
   2   1  -9   80.35    3.33
   1  -1  -9   55.33    2.15
  -1  -1   9   54.72    2.23
   1  -1  -9   56.44    2.21
  -1  -1   9   55.94    2.28
  -1   1   9   54.05    2.29
   1   1  -9   53.62    2.33
  -1   1   9   55.94    2.22
   1   1  -9   53.99    2.27
   0  -1  -9  130.62    4.33
   0  -1   9  133.80    4.36
   0  -1   9  126.06    4.25
   0  -1  -9  129.43    4.36
   0   1  -9  128.03    4.33
   0   1   9  131.71    4.46
   0   1  -9  126.18    4.38
   0   1   9  134.33    4.37
   1  -1   9  159.02    5.12
  -1  -1  -9  152.24    5.17
   1  -1   9  158.69    5.01
  -1  -1  -9  146.54    5.15
   1   1   9  160.51    5.23
  -1   1  -9  151.53    5.16
  -1   1  -9  152.30    5.09
   1   1   9  153.44    5.30
   2  -1   9  188.16    6.46
  -2  -1  -9  205.26    6.74
   2  -1   9  208.50    6.13
  -2  -1  -9  202.67    6.67
   2  -1   9  189.63    6.30
   2   1   9  190.45    6.66
  -2   1  -9  196.99    6.58
  -2   1  -9  200.18    6.65
   2   1   9  185.28    6.72
   3  -1   9   19.46    1.38
  -3  -1  -9   20.91    1.57
  -3  -1  -9   18.19    1.44
   3   1   9   16.58    1.29
  -3   1  -9   19.23    1.43
   3   1   9   18.95    1.54
   3   1   9   16.57    1.36
  -3   1  -9   17.76    1.40
  -4  -1  -9   -0.07    0.37
   4  -1   9    0.34    0.27
  -4  -1  -9    0.64    0.37
   4  -1   9    0.37    0.27
   4   1   9    0.19    0.23
   4   1   9    0.33    0.31
  -4   1  -9    0.42    0.30
  -4   1  -9   -0.41    0.25
   5  -1   9    1.72    0.55
   5  -1   9    1.48    0.54
  -5  -1  -9    2.00    0.66
  -5  -1  -9    2.25    0.73
  -5   1  -9    1.31    0.51
   5   1   9    1.61    0.58
   5   1   9    2.71    0.69
  -5   1  -9    1.37    0.57
  -6  -1  -9   20.38    2.58
   6  -1   9   20.69    1.84
   6  -1   9   25.60    2.05
   6   1   9   21.89    2.14
   7  -1   9   15.34    1.77
  -7  -1  -9   15.29    1.98
  -7   1  -9   15.58    2.01
   7   1   9   17.33    2.10
   8  -1   9   22.65    2.21
  -8  -2   9   -1.03    0.51
  -8   2   9    0.82    0.73
   8   2  -9    0.68    0.81
  -7  -2   9    1.44    0.70
   7  -2  -9    2.24    0.62
   7   2  -9    0.40    0.68
  -7   2   9    0.90    0.70
  -6  -2   9    0.29    0.34
  -6  -2   9    0.60    0.54
   6  -2  -9   -0.38    0.33
   6   2  -9   -0.42    0.35
  -6   2   9   -0.01    0.34
  -5  -2   9    1.60    0.54
   5  -2  -9    1.08    0.41
  -5  -2   9    0.99    0.52
  -5   2   9    1.61    0.55
   5   2  -9    1.00    0.66
  -5   2   9    2.43    0.69
   5   2  -9    1.70    0.66
   4  -2  -9   -0.02    0.14
   4  -2  -9   -0.34    0.18
  -4  -2   9   -0.02    0.22
   4   2  -9    0.20    0.26
   4   2  -9    0.20    0.35
  -4   2   9    0.29    0.25
  -4   2   9    0.37    0.23
  -3  -2   9    0.77    0.35
  -3  -2   9    1.59    0.41
   3  -2  -9    0.70    0.22
   3  -2  -9    1.36    0.29
  -3   2   9    1.32    0.40
   3   2  -9    1.05    0.39
  -3   2   9    1.52    0.42
   3   2  -9    1.28    0.44
  -2  -2   9   74.62    2.95
  -2  -2   9   77.17    2.97
   2  -2  -9   76.16    2.56
   2  -2  -9   79.65    2.52
   2   2  -9   72.57    3.25
  -2   2   9   71.99    2.89
  -2   2   9   73.57    3.01
   2   2  -9   72.43    3.14
  -1  -2   9   68.71    2.47
  -1  -2   9   68.00    2.46
   1   2  -9   69.12    2.76
   1   2  -9   68.90    2.72
  -1   2   9   64.40    2.54
  -1   2   9   66.11    2.65
   0  -2   9   15.12    0.73
   0  -2  -9   17.69    0.85
   0  -2  -9   16.33    0.84
   0  -2   9   16.94    1.45
   0   2   9   16.25    1.06
   0   2  -9   16.33    1.02
   0   2   9   17.57    1.04
   0   2  -9   16.70    0.99
  -1  -2  -9   11.74    0.84
  -1  -2  -9   11.19    0.80
   1  -2   9   12.70    1.18
   1   2   9   12.19    0.99
   1   2   9   10.24    0.89
  -1   2  -9   12.34    0.89
  -1   2  -9   11.76    0.83
   2  -2   9    1.40    0.28
  -2  -2  -9    1.95    0.42
  -2  -2  -9    1.81    0.46
   2  -2   9    1.06    0.21
  -2   2  -9    1.05    0.33
  -2   2  -9    1.35    0.37
   2   2   9    1.68    0.42
   2   2   9    1.42    0.47
  -3  -2  -9    0.36    0.31
   3  -2   9    0.66    0.19
  -3  -2  -9    0.83    0.41
   3  -2   9    0.68    0.25
   3   2   9    0.96    0.36
   3   2   9    0.23    0.28
  -3   2  -9    0.50    0.43
  -3   2  -9    0.75    0.29
   3   2   9   -0.01    0.26
   4  -2   9    4.21    0.69
  -4  -2  -9    4.62    0.90
   4  -2   9    4.73    0.71
  -4  -2  -9    3.92    0.86
  -4   2  -9    3.64    0.84
  -4   2  -9    3.50    0.78
   4   2   9    4.45    0.93
   4   2   9    4.44    1.29
   4   2   9    5.34    1.08
   5  -2   9    2.01    0.56
  -5  -2  -9    2.07    0.69
   5  -2   9    3.12    0.67
  -5  -2  -9    3.98    0.89
  -5   2  -9    3.97    0.85
   5   2   9    2.94    0.83
  -5   2  -9    2.47    0.76
   6  -2   9    2.15    0.65
  -6  -2  -9   -0.05    0.53
   6  -2   9    1.07    0.46
  -6   2  -9    0.87    1.07
   6   2   9    0.64    0.52
   7  -2   9    2.15    0.81
   7  -2   9    0.52    0.51
  -7  -2  -9   -0.97    0.41
   7   2   9    0.47    0.57
  -7   2  -9    0.23    0.64
  -7  -3   9    0.05    0.63
  -7   3   9    0.03    0.68
   7   3  -9   -0.10    0.50
  -6  -3   9    2.30    0.79
  -6  -3   9   -0.71    0.83
  -6   3   9    0.14    0.48
   6   3  -9    1.50    0.65
  -5  -3   9   14.79    1.48
  -5  -3   9   13.52    1.36
  -5   3   9   15.26    1.50
   5   3  -9   16.36    1.72
  -5   3   9   17.70    1.64
  -4  -3   9   57.77    2.78
  -4  -3   9   54.33    2.74
  -4  -3   9   47.70    3.67
  -4   3   9   54.59    2.74
   4   3  -9   55.27    3.15
   4   3  -9   52.20    3.04
  -4   3   9   56.36    2.90
  -3  -3   9  201.91   10.08
  -3  -3   9  187.08    6.38
  -3  -3   9  197.07    6.48
  -3   3   9  206.52    6.65
  -3   3   9  198.89    6.78
   3   3  -9  186.29    7.02
   3   3  -9  193.28    7.12
  -2  -3   9   30.94    2.65
  -2   3   9   31.58    1.56
   2   3  -9   29.80    1.80
   2   3  -9   31.62    1.85
  -2   3   9   29.49    1.64
  -1  -3   9   16.97    1.84
  -1   3   9   17.85    1.10
   1   3  -9   18.70    1.21
  -1   3   9   17.51    1.04
   1   3  -9   18.65    1.19
   0  -3   9   15.11    1.64
   0   3   9   13.61    0.99
   0   3   9   16.04    1.00
   0   3  -9   13.52    0.94
   0   3  -9   14.02    0.92
   1  -3   9    9.10    1.25
   1   3   9    8.18    0.89
  -1   3  -9    8.52    0.69
   1   3   9    8.73    0.88
  -1   3  -9    9.21    0.74
  -2  -3  -9   58.66    2.28
  -2  -3  -9   57.88    2.32
  -2   3  -9   58.83    2.63
  -2   3  -9   56.49    2.49
   2   3   9   68.23    4.07
   2   3   9   56.30    2.89
   2   3   9   59.54    2.85
  -3  -3  -9   33.88    1.87
  -3  -3  -9   37.14    2.00
  -3   3  -9   34.05    2.02
   3   3   9   35.89    2.37
   3   3   9   34.12    2.82
   3   3   9   32.25    2.13
  -3   3  -9   37.67    3.11
  -4  -3  -9    0.61    0.36
  -4  -3  -9    1.38    0.49
   4   3   9    0.75    0.50
   4   3   9    0.68    0.53
   4   3   9    1.13    0.52
  -4   3  -9    1.12    0.50
  -4   3  -9    0.66    0.43
  -5  -3  -9    1.77    0.68
  -5  -3  -9    2.34    0.75
  -5   3  -9    0.63    0.55
  -6  -3  -9    7.96    1.50
  -6   3  -9    8.01    1.57
   6   3   9    7.35    1.52
  -7  -3  -9    1.73    0.75
   7   3   9    4.00    1.17
  -7   3  -9    2.57    0.99
  -7  -4   9    1.77    0.85
   7   4  -9    1.56    0.96
  -7   4   9    0.72    0.73
  -6  -4   9    1.32    0.70
  -6  -4   9    1.46    0.91
   6   4  -9    1.47    0.70
  -5  -4   9    9.96    1.05
   5   4  -9   13.42    1.56
  -5   4   9    8.18    1.38
  -5   4   9    7.02    1.68
   4   4  -9    1.90    0.63
  -4   4   9    2.24    0.62
  -4   4   9    1.06    0.53
  -3   4   9    1.83    0.49
   3   4  -9    2.99    0.69
   3   4  -9    3.10    0.76
  -3   4   9    2.99    0.52
   2   4  -9    0.41    0.33
  -2   4   9    1.52    0.41
   2   4  -9    0.44    0.36
  -1  -4   9    5.38    1.47
   1   4  -9    3.23    0.61
   1   4  -9    3.51    0.62
  -1   4   9    2.82    0.53
  -1   4   9    3.15    0.50
   0   4  -9    8.80    0.83
   0   4   9    9.61    0.82
   0   4  -9   10.30    0.81
   0   4   9   10.24    0.95
   1   4   9   14.90    1.14
  -1   4  -9   12.82    0.92
  -1   4  -9   13.45    0.96
   1   4   9   11.67    1.12
   1   4   9   13.66    1.99
   2   4   9    4.10    0.86
  -2   4  -9    3.70    0.56
   2   4   9    2.93    0.98
   2   4   9    3.24    0.67
  -2   4  -9    3.66    0.60
  -3   4  -9    9.40    1.01
   3   4   9    8.95    1.99
   3   4   9   10.02    1.28
   3   4   9    9.47    1.14
  -3   4  -9    9.08    1.02
  -4  -4  -9    6.22    0.71
  -4  -4  -9    4.39    0.64
  -4   4  -9    7.39    1.17
   4   4   9    6.45    1.29
   4   4   9    7.90    1.89
  -5  -4  -9    1.10    0.51
   5   4   9    1.22    0.58
  -5   4  -9    1.05    0.65
  -6  -4  -9    1.21    0.75
  -6   4  -9    2.43    0.90
   6   4   9    0.86    0.70
  -5   5   9    5.03    1.13
   5   5  -9    6.61    1.36
  -4   5   9   38.05    2.36
   4   5  -9   35.99    2.64
  -3   5   9    9.47    0.89
  -3   5   9    7.70    1.54
   3   5  -9    8.06    1.54
   3   5  -9    9.61    1.40
  -2   5   9    1.57    0.35
  -2   5   9    2.78    0.58
   2   5  -9    1.26    0.54
   2   5  -9    2.76    0.62
  -2   5   9    2.76    1.05
   1   5  -9    0.69    0.42
  -1   5   9    0.20    0.54
  -1   5   9    0.76    0.32
  -1   5   9    0.19    0.27
   1   5  -9    0.49    0.30
   0   5   9   25.25    3.00
   0   5  -9   28.07    1.54
   0   5   9   32.39    1.85
   0   5   9   26.12    1.54
   0   5  -9   27.93    1.62
   1   5   9   -0.78    0.32
   1   5   9    0.10    0.57
  -1   5  -9    0.57    0.28
   2   5   9   50.26    4.33
  -2   5  -9   49.33    2.32
   2   5   9   47.06    2.85
  -2   5  -9   51.05    2.34
   2   5   9   48.56    2.74
  -3   5  -9    9.87    1.10
   3   5   9    9.71    1.60
   3   5   9   11.34    2.48
  -3   5  -9    9.81    1.04
  -4   5  -9    2.82    0.77
  -4   5  -9    2.48    0.77
   4   5   9    2.98    0.84
   5   5   9    7.49    1.58
  -5   5  -9    7.37    1.23
  -3   6   9    0.11    0.56
  -3   6   9   -0.50    0.77
   3   6  -9    0.42    0.53
   2   6  -9    0.72    0.53
  -2   6   9    1.01    0.49
  -2   6   9    0.97    0.73
   2   6  -9    0.80    1.01
  -1   6   9    1.31    0.52
   1   6  -9    0.84    0.59
  -1   6   9    1.03    0.42
  -1   6   9    0.33    0.81
   0   6   9    0.59    0.49
   0   6  -9   -0.04    0.37
   0   6   9    0.28    0.50
   0   6  -9   -0.56    0.43
   0   6   9    0.13    0.93
   1   6   9    1.71    0.64
   1   6   9    2.68    1.58
   2   6   9   -1.10    0.53
   2   6   9    0.01    0.55
   3   6   9    4.77    1.52
  -3   6  -9    2.46    0.72
   3   6   9    1.98    0.83
  -8   0  10    4.21    1.28
   8   0 -10    3.63    1.00
  -7   0  10    1.38    0.73
   7   0 -10    3.00    0.81
  -6   0  10  181.04    7.56
   6   0 -10  174.63    7.18
  -5   0  10   53.89    3.22
   5   0 -10   53.72    3.05
  -5   0  10   57.35    3.43
   5   0 -10   52.25    3.07
   4   0 -10   -0.14    0.11
   4   0 -10   -0.05    0.21
  -4   0  10   -0.05    0.19
  -4   0  10    0.24    0.16
  -3   0  10  132.11    4.92
   3   0 -10  127.35    5.07
   3   0 -10  130.83    4.96
  -2   0  10   46.84    2.25
   2   0 -10   45.12    2.19
  -2   0  10   46.81    2.17
   2   0 -10   44.90    2.14
   1   0 -10    4.46    0.53
  -1   0  10    3.92    0.48
  -1   0  10    2.45    0.45
   1   0 -10    3.55    0.46
   0   0 -10  460.29   13.58
   0   0  10  421.15   13.42
   0   0  10  453.20   13.63
   0   0 -10  497.76   13.57
   1   0  10   99.14    3.81
   1   0  10  103.01    3.72
  -1   0 -10  103.72    3.80
   2   0  10   16.23    1.24
   2   0  10   17.37    1.30
  -2   0 -10   18.28    1.50
  -2   0 -10   16.55    1.25
  -3   0 -10  253.70    8.58
   3   0  10  244.34    8.49
   3   0  10  246.01    8.36
  -3   0 -10  248.67    8.52
  -4   0 -10   13.59    1.40
   4   0  10   13.85    1.27
   4   0  10   11.56    1.30
  -4   0 -10   14.28    1.41
   5   0  10    0.16    0.31
   5   0  10   -0.23    0.39
  -5   0 -10    0.89    0.45
  -5   0 -10    0.25    0.30
   6   0  10   12.23    1.54
  -6   0 -10    7.35    1.44
  -7   0 -10   22.17    2.44
   7   0  10   23.59    2.37
   8   0  10    1.55    0.73
  -8   0 -10    0.32    0.86
   8  -1 -10    0.62    0.52
  -8  -1  10    1.48    0.64
  -8   1  10    1.13    0.71
   8   1 -10    0.06    0.44
   7  -1 -10    2.59    0.78
  -7  -1  10    3.26    1.03
   7   1 -10    3.53    0.99
  -7   1  10    3.07    1.06
   6  -1 -10   -0.25    0.26
   6  -1 -10   -0.48    0.34
  -6  -1  10    0.00    0.39
  -6   1  10   -0.23    0.31
   6   1 -10   -0.59    0.31
   5  -1 -10    0.10    0.23
  -5  -1  10    0.23    0.25
  -5  -1  10   -0.01    0.33
   5  -1 -10    0.14    0.29
   5   1 -10    1.10    0.47
  -5   1  10    0.33    0.26
   5   1 -10    0.50    0.32
  -5   1  10    0.18    0.31
  -4  -1  10    1.94    0.58
   4  -1 -10    1.44    0.43
  -4  -1  10    1.03    0.35
   4  -1 -10    1.34    0.42
  -4   1  10    0.65    0.38
  -4   1  10    1.16    0.47
   4   1 -10    0.98    0.41
   4   1 -10    0.35    0.39
   3  -1 -10   24.44    1.53
  -3  -1  10   26.40    1.68
   3  -1 -10   25.47    1.50
  -3  -1  10   25.43    1.71
   3   1 -10   25.09    1.73
   3   1 -10   25.79    1.69
  -3   1  10   23.94    1.64
  -3   1  10   24.38    1.58
   2  -1 -10    0.25    0.12
  -2  -1  10    0.13    0.13
  -2  -1  10    0.24    0.19
   2  -1 -10    0.20    0.14
  -2   1  10   -0.13    0.13
   2   1 -10    0.14    0.15
   2   1 -10    0.35    0.22
  -2   1  10    0.11    0.13
   1  -1 -10   70.49    2.71
  -1  -1  10   67.09    2.75
  -1  -1  10   70.60    2.72
   1  -1 -10   68.56    2.64
   1   1 -10   67.21    2.75
  -1   1  10   74.01    2.85
   1   1 -10   72.10    2.87
  -1   1  10   69.18    2.71
   0  -1 -10   -0.14    0.07
   0  -1 -10   -0.17    0.10
   0  -1  10    0.10    0.08
   0  -1  10    0.03    0.10
   0   1  10    0.11    0.14
   0   1 -10   -0.15    0.08
   0   1  10    0.03    0.12
  -1  -1 -10    4.18    0.52
   1  -1  10    3.59    0.45
   1  -1  10    3.47    0.56
  -1  -1 -10    4.87    0.58
  -1   1 -10    4.72    0.54
   1   1  10    3.42    0.59
   1   1  10    4.84    0.55
  -1   1 -10    4.95    0.56
  -2  -1 -10   14.25    1.16
   2  -1  10   13.56    0.99
   2  -1  10   13.37    1.07
   2  -1  10   14.58    0.89
   2   1  10   13.87    1.15
  -2   1 -10   13.69    1.66
  -2   1 -10   15.65    1.16
   2   1  10   14.78    1.23
   3  -1  10   22.78    1.98
   3  -1  10   23.72    1.52
  -3  -1 -10   25.53    1.81
  -3  -1 -10   25.77    1.76
  -3   1 -10   21.11    1.59
   3   1  10   26.66    1.90
   3   1  10   25.87    1.64
  -3   1 -10   25.72    1.75
   3   1  10   25.84    1.75
  -4  -1 -10   55.43    3.03
  -4  -1 -10   50.63    2.99
   4  -1  10   51.58    2.65
   4  -1  10   49.44    2.71
   4   1  10   48.20    2.98
  -4   1 -10   51.92    2.93
  -4   1 -10   53.05    2.97
   4   1  10   51.36    2.90
   5  -1  10    4.62    0.85
   5  -1  10    3.92    0.84
  -5  -1 -10    2.82    0.76
  -5  -1 -10    5.03    1.12
   5   1  10    3.58    1.20
  -5   1 -10    2.39    0.79
  -5   1 -10    4.86    1.07
   5   1  10    3.96    0.97
   6  -1  10    7.73    1.15
   6  -1  10    6.06    1.18
  -6  -1 -10    6.56    1.40
   6   1  10    7.71    1.49
  -6   1 -10    8.84    1.61
   7  -1  10    0.84    0.50
  -7  -1 -10   -0.07    0.59
  -7   1 -10   -0.38    0.56
   7   1  10    1.29    0.64
  -8  -1 -10    2.62    1.15
   8  -1  10    1.00    0.66
   8   1  10    0.34    0.95
  -8   1 -10    1.67    0.91
  -8  -2  10    6.55    1.41
  -8   2  10    5.15    1.26
   8   2 -10    6.48    2.41
  -7  -2  10   21.65    2.29
  -7   2  10   22.80    2.36
   7   2 -10   21.85    2.32
   6  -2 -10   18.60    1.52
  -6  -2  10   19.23    1.91
  -6   2  10   20.33    1.97
   6   2 -10   18.69    1.98
  -5  -2  10   12.64    1.44
  -5  -2  10   16.47    1.88
   5  -2 -10   13.71    1.18
   5  -2 -10   13.26    1.11
   5   2 -10   13.44    2.26
  -5   2  10   15.04    1.53
  -5   2  10   14.19    1.38
   5   2 -10   12.49    1.45
  -4  -2  10   10.36    1.07
   4  -2 -10    8.09    0.81
  -4  -2  10    8.70    1.04
   4  -2 -10    8.82    0.79
   4   2 -10    8.82    1.12
  -4   2  10    8.41    1.04
  -4   2  10    7.24    0.90
   4   2 -10    9.15    1.11
   3  -2 -10   23.02    1.19
   3  -2 -10   22.84    1.23
  -3  -2  10   23.42    1.53
   3   2 -10   20.49    1.58
  -3   2  10   21.89    1.55
   3   2 -10   20.96    1.59
  -3   2  10   20.60    1.39
  -2  -2  10    1.89    0.40
   2  -2 -10    2.45    0.31
   2  -2 -10    2.03    0.33
  -2  -2  10    2.45    0.48
  -2   2  10    2.00    0.46
  -2   2  10    2.33    0.44
   2   2 -10    1.25    0.40
   2   2 -10    1.60    0.44
   1  -2 -10  247.05    7.45
  -1  -2  10  257.97    7.72
   1  -2 -10  248.80    7.48
  -1  -2  10  254.85    7.71
   1   2 -10  254.48    8.00
  -1   2  10  249.30    7.84
  -1   2  10  254.84    7.96
   1   2 -10  253.38    8.05
   0  -2  10  118.48    3.61
   0  -2  10  113.65    3.62
   0  -2 -10  103.81    3.68
   0  -2 -10  115.98    3.73
   0  -2  10  112.31    4.76
   0   2  10  112.59    3.97
   0   2  10  112.57    4.06
   0   2 -10  109.50    3.97
  -1  -2 -10   13.23    0.92
   1  -2  10   13.75    0.72
   1  -2  10   13.72    1.23
  -1  -2 -10   14.82    1.00
   1  -2  10   13.99    0.76
  -1   2 -10   15.09    0.99
  -1   2 -10   14.83    1.02
   1   2  10   13.35    1.09
   1   2  10   14.09    1.06
   2  -2  10    7.93    0.59
  -2  -2 -10    7.70    0.83
  -2  -2 -10    9.66    0.86
   2  -2  10    9.44    0.68
   2  -2  10    9.05    0.95
   2   2  10    9.75    1.51
  -2   2 -10    8.00    1.03
  -2   2 -10    9.79    0.87
   2   2  10    9.43    0.93
   3  -2  10   -0.09    0.11
  -3  -2 -10    0.04    0.22
  -3  -2 -10   -0.01    0.24
   3  -2  10    0.04    0.17
  -3   2 -10    0.34    0.23
  -3   2 -10   -0.07    0.18
   3   2  10    0.21    0.26
   3   2  10   -0.02    0.16
   3   2  10   -0.31    0.19
  -4  -2 -10    2.58    0.67
   4  -2  10    1.61    0.55
  -4  -2 -10    2.30    0.64
   4  -2  10    1.66    0.58
  -4   2 -10    2.40    0.62
   4   2  10    2.30    0.73
   4   2  10    1.49    0.51
  -4   2 -10    2.33    0.65
  -5  -2 -10  122.43    5.59
   5  -2  10  130.91    4.90
  -5  -2 -10  125.53    5.75
   5  -2  10  129.59    5.08
  -5   2 -10  130.35    5.79
   5   2  10  137.63    6.15
   6  -2  10    9.21    1.13
   6  -2  10   10.09    1.15
  -6  -2 -10    9.04    1.62
  -6   2 -10    8.98    1.58
   6   2  10    8.86    1.68
  -7  -2 -10    0.44    0.41
   7  -2  10    0.42    0.45
   7  -2  10    1.03    0.76
   7   2  10   -0.50    0.42
  -7   2 -10    1.13    0.68
  -7  -3  10   -0.19    0.51
   7   3 -10    0.50    0.58
  -7   3  10    0.75    0.79
  -6  -3  10    4.27    0.97
   6   3 -10    3.50    0.92
  -6   3  10    3.29    1.06
  -5  -3  10    6.97    1.15
  -5  -3  10    6.26    1.02
  -5   3  10    4.48    0.96
  -5   3  10    6.74    1.19
   5   3 -10    5.52    1.13
  -4  -3  10    3.12    0.66
  -4  -3  10    5.50    0.87
  -4  -3  10    4.69    1.35
   4   3 -10    3.56    0.85
  -4   3  10    3.39    0.73
  -4   3  10    3.81    0.76
   4   3 -10    3.53    0.80
  -3  -3  10    1.17    0.33
  -3  -3  10    1.27    0.34
  -3  -3  10    1.84    0.77
   3   3 -10    1.11    0.40
  -3   3  10    1.65    0.48
  -3   3  10    1.27    0.41
   3   3 -10    1.44    0.49
  -2  -3  10    1.63    0.65
  -2   3  10    0.83    0.32
   2   3 -10    0.48    0.27
   2   3 -10    1.12    0.45
  -1  -3  10    4.33    1.05
   1   3 -10    2.56    0.50
  -1   3  10    2.67    0.47
   1   3 -10    3.02    0.57
  -1   3  10    4.01    0.52
   0  -3  10   -0.13    0.25
   0   3  10    0.02    0.11
   0   3 -10    0.07    0.17
   0   3 -10    0.28    0.15
   0   3  10   -0.14    0.11
   1  -3  10    4.24    0.98
  -1   3 -10    3.67    0.49
   1   3  10    3.50    0.66
   1   3  10    3.45    0.61
  -1   3 -10    3.80    0.49
  -2  -3 -10    9.57    0.76
  -2  -3 -10    8.44    0.70
   2   3  10    9.11    1.40
  -2   3 -10    8.36    0.81
   2   3  10    8.09    0.92
   2   3  10    9.84    1.06
  -2   3 -10    8.06    0.83
  -3  -3 -10    1.23    0.47
  -3  -3 -10    1.52    0.48
  -3   3 -10    1.49    0.44
   3   3  10    0.99    0.47
  -3   3 -10    1.30    0.37
   3   3  10    1.36    0.62
   3   3  10    1.01    0.39
  -4  -3 -10    0.80    0.39
  -4  -3 -10    0.48    0.30
   4   3  10    0.77    0.49
   4   3  10   -0.14    0.37
  -4   3 -10    0.46    0.38
  -4   3 -10    0.99    0.45
  -5  -3 -10    0.85    0.46
  -5  -3 -10    0.46    0.50
  -5   3 -10    0.24    0.39
   5   3  10    0.24    0.51
  -6  -3 -10    0.92    0.53
  -6   3 -10    0.08    0.52
   6   3  10    0.29    0.57
  -7  -3 -10    1.44    0.72
  -7   3 -10    1.16    0.78
  -7  -4  10   12.67    1.73
  -7   4  10   11.81    1.92
   7   4 -10   13.82    2.23
  -6  -4  10    3.97    0.93
  -6  -4  10    2.48    0.78
   6   4 -10    3.74    1.11
  -6   4  10    3.79    1.02
  -5  -4  10    4.10    0.76
  -5  -4  10    4.67    0.95
   5   4 -10    2.87    0.84
  -5   4  10    5.91    1.11
  -4   4  10    2.05    0.62
   4   4 -10    2.89    0.77
  -4   4  10    2.83    0.69
   3   4 -10    1.78    0.56
  -3   4  10    1.02    0.53
  -3   4  10    1.33    0.43
   3   4 -10    0.58    0.56
   2   4 -10   22.73    1.61
  -2   4  10   21.92    1.43
   2   4 -10   21.30    1.59
  -1  -4  10   81.92    5.14
   1   4 -10   80.73    3.41
   1   4 -10   82.77    3.37
  -1   4  10   84.61    3.28
  -1   4  10   79.37    3.22
   0   4 -10   10.44    0.83
   0   4 -10   10.38    0.98
   0   4  10    9.21    0.83
   0   4  10   11.45    1.00
   1   4  10   13.75    1.19
  -1   4 -10   15.46    1.06
  -1   4 -10   15.24    1.13
   1   4  10   15.61    2.12
   2   4  10    9.01    1.03
   2   4  10    8.14    1.06
   2   4  10    6.04    1.44
  -2   4 -10    8.40    0.83
  -2   4 -10    8.06    0.87
   3   4  10    2.52    0.71
   3   4  10    4.81    1.03
  -3   4 -10    4.03    0.77
  -3   4 -10    2.71    0.68
   3   4  10    3.01    1.19
  -4  -4 -10   14.66    1.07
  -4  -4 -10   14.53    1.07
  -4   4 -10   11.69    1.33
  -4   4 -10   14.63    1.50
   4   4  10   12.80    1.56
   4   4  10   14.40    2.03
  -5  -4 -10   35.69    2.29
  -5  -4 -10   38.74    2.28
  -5   4 -10   39.43    2.77
   5   4  10   34.93    2.98
  -6  -4 -10   11.77    1.55
   6   4  10    8.69    1.74
  -6   4 -10   11.04    1.88
   5   5 -10    0.46    0.62
  -5   5  10   -0.16    0.61
  -4   5  10    1.76    0.63
   4   5 -10    0.68    0.88
  -4   5  10    1.18    0.55
  -3   5  10    1.25    0.58
  -3   5  10    2.18    0.54
   3   5 -10    1.22    0.48
   2   5 -10    2.18    0.62
  -2   5  10    1.32    0.92
  -2   5  10    2.99    0.62
  -2   5  10    3.63    0.59
   2   5 -10    3.03    0.74
   1   5 -10    1.51    0.52
  -1   5  10    0.92    0.59
   1   5 -10    1.43    0.46
  -1   5  10    1.68    0.43
  -1   5  10    0.53    0.35
   0   5 -10    7.29    0.85
   0   5  10    8.42    0.87
   0   5  10    7.38    1.77
   0   5  10    8.48    0.97
  -1   5 -10   18.14    1.28
   1   5  10   20.41    1.52
  -1   5 -10   21.44    1.39
   1   5  10   23.12    1.77
   1   5  10   22.52    2.82
  -2   5 -10   22.12    1.44
  -2   5 -10   22.28    1.48
   2   5  10   25.88    2.06
   2   5  10   19.26    2.77
   2   5  10   19.02    1.68
  -3   5 -10    0.95    0.47
  -3   5 -10    1.44    0.53
   3   5  10    2.37    1.10
   3   5  10    0.74    0.51
   4   5  10    1.08    0.72
  -4   5 -10    0.02    0.51
   5   5  10    2.68    0.97
  -5   5 -10    0.11    1.05
  -3   6  10    6.20    1.05
   3   6 -10    4.39    1.09
  -3   6  10    9.19    2.33
  -2   6  10    5.56    0.87
   2   6 -10    7.32    1.11
  -2   6  10    6.80    2.07
   1   6 -10   12.50    1.29
  -1   6  10   13.25    1.28
  -1   6  10   13.50    3.00
  -1   6  10   14.06    1.22
   1   6 -10   11.88    1.43
   0   6  10   18.18    1.45
   0   6  10   19.60    1.65
   0   6 -10   18.90    1.65
   0   6  10   20.00    2.99
   1   6  10    0.17    0.53
   1   6  10    1.68    0.76
   1   6  10    0.67    0.93
  -2   6 -10   -0.32    0.58
   2   6  10    1.01    0.98
   2   6  10    1.18    0.59
  -3   6 -10    3.08    0.78
   3   6  10    3.09    1.56
   3   6  10    1.96    0.79
  -8   0  11   -0.63    0.53
   8   0 -11    0.24    0.47
  -7   0  11   -0.43    0.47
   7   0 -11    0.16    0.33
  -6   0  11    0.25    0.43
   6   0 -11    0.25    0.28
   5   0 -11    0.13    0.20
   5   0 -11    0.12    0.27
  -5   0  11   -0.21    0.31
  -5   0  11    0.23    0.31
   4   0 -11   -0.20    0.22
  -4   0  11   -0.23    0.15
   4   0 -11    0.07    0.21
  -4   0  11    0.12    0.18
  -3   0  11    0.13    0.21
   3   0 -11    0.12    0.18
   3   0 -11    0.18    0.17
  -2   0  11   -0.03    0.11
   2   0 -11    0.03    0.10
  -2   0  11   -0.14    0.12
   2   0 -11   -0.26    0.12
  -1   0  11   -0.04    0.09
   1   0 -11    0.08    0.11
   1   0 -11    0.10    0.12
  -1   0  11    0.14    0.13
   0   0 -11    0.14    0.11
   0   0 -11    0.06    0.11
   0   0  11   -0.02    0.10
   0   0  11    0.27    0.18
  -1   0 -11    0.16    0.15
   1   0  11   -0.06    0.08
  -1   0 -11   -0.03    0.08
   1   0  11    0.00    0.11
   2   0  11   -0.07    0.10
   2   0  11    0.12    0.14
  -2   0 -11   -0.10    0.14
  -2   0 -11    0.03    0.16
  -3   0 -11    0.22    0.23
   3   0  11    0.03    0.14
  -3   0 -11   -0.03    0.19
   3   0  11   -0.07    0.13
   4   0  11   -0.14    0.21
  -4   0 -11   -0.15    0.20
   4   0  11   -0.10    0.22
  -4   0 -11   -0.06    0.28
  -5   0 -11   -0.52    0.22
  -5   0 -11    0.91    0.58
   5   0  11    0.63    0.30
   5   0  11    0.11    0.30
  -6   0 -11   -0.51    0.23
   6   0  11    0.06    0.40
  -7   0 -11   -0.01    0.44
   7   0  11    1.12    0.64
  -8   0 -11   -0.55    0.69
   8   0  11   -0.57    0.50
   8  -1 -11    4.62    1.09
  -8  -1  11    3.59    1.16
   8   1 -11    3.48    0.95
  -8   1  11    3.10    1.25
   7  -1 -11    7.96    1.60
  -7  -1  11    8.43    1.60
   7   1 -11    8.66    1.60
  -7   1  11    8.41    1.58
   6  -1 -11    4.23    0.87
   6  -1 -11    3.67    0.86
  -6  -1  11    3.12    0.82
  -6   1  11    5.74    1.23
   6   1 -11    3.20    0.84
   5  -1 -11    3.22    0.72
  -5  -1  11    3.29    0.86
   5  -1 -11    2.28    0.62
  -5  -1  11    2.17    0.63
  -5   1  11    1.34    0.54
   5   1 -11    2.39    0.68
   5   1 -11    2.54    0.66
  -5   1  11    1.49    0.54
  -4  -1  11   86.04    3.93
  -4  -1  11   76.33    3.70
   4  -1 -11   81.05    3.61
   4  -1 -11   84.98    3.54
  -4   1  11   80.41    3.85
   4   1 -11   78.27    3.86
  -4   1  11   77.72    3.65
   4   1 -11   80.30    3.79
  -3  -1  11   98.41    4.16
  -3  -1  11  108.64    4.21
   3   1 -11   97.38    4.18
   3   1 -11   97.65    4.14
  -3   1  11   98.82    4.02
  -3   1  11  105.43    4.86
   2  -1 -11  135.89    4.62
   2  -1 -11  133.13    4.72
  -2  -1  11  132.77    4.79
  -2  -1  11  134.29    4.88
   2   1 -11  136.57    4.89
  -2   1  11  130.16    4.84
  -2   1  11  134.61    4.75
   2   1 -11  130.43    4.92
  -1  -1  11   34.07    1.73
   1  -1 -11   33.67    1.64
  -1  -1  11   36.31    1.73
   1  -1 -11   31.55    1.66
  -1   1  11   34.93    1.71
  -1   1  11   37.80    1.84
   1   1 -11   34.42    1.80
   1   1 -11   33.98    1.73
   0  -1 -11    1.99    0.42
   0  -1  11    2.42    0.45
   0  -1 -11    2.40    0.47
   0  -1  11    2.17    0.41
   0   1  11    2.03    0.41
   0   1 -11    2.14    0.43
   0   1  11    1.74    0.41
   0   1 -11    1.98    0.40
  -1  -1 -11   24.36    1.46
  -1  -1 -11   24.68    1.48
   1  -1  11   26.82    1.40
   1  -1  11   26.21    1.47
  -1   1 -11   25.62    1.45
   1   1  11   22.78    1.51
   1   1  11   23.77    1.45
  -1   1 -11   26.30    1.50
  -2  -1 -11  126.80    4.74
  -2  -1 -11  123.08    4.75
   2  -1  11  124.76    4.59
   2  -1  11  125.67    4.45
   2   1  11  126.65    4.77
  -2   1 -11  119.94    4.62
  -2   1 -11  123.42    4.70
  -3  -1 -11  125.03    5.08
  -3  -1 -11  116.28    4.94
   3  -1  11  122.91    4.68
   3  -1  11  119.94    4.79
   3   1  11  141.17    4.96
  -3   1 -11  125.36    5.01
   3   1  11  131.03    5.09
   3   1  11  118.51    5.13
  -3   1 -11  122.28    4.91
  -4  -1 -11   72.30    3.76
   4  -1  11   74.43    3.40
  -4  -1 -11   66.18    3.63
   4  -1  11   79.86    3.62
   4   1  11   71.47    3.67
  -4   1 -11   74.33    3.74
  -4   1 -11   73.21    3.72
   4   1  11   78.92    3.98
   5  -1  11    4.18    0.81
  -5  -1 -11    3.52    0.96
  -5  -1 -11    4.62    1.10
   5  -1  11    4.37    0.96
   5   1  11    3.56    0.92
  -5   1 -11    4.68    1.10
   6  -1  11    3.33    0.90
  -6  -1 -11    3.74    0.96
   6   1  11    1.50    0.76
  -6   1 -11    3.12    0.91
   7  -1  11    2.36    0.71
  -7  -1 -11    0.10    0.59
   7   1  11    1.73    0.69
  -8  -1 -11   18.81    2.46
   8  -1  11   15.10    1.90
  -8   1 -11   13.75    2.30
   8   1  11   12.83    2.30
  -8  -2  11    4.40    1.26
  -8   2  11    4.52    1.29
   7  -2 -11    0.75    0.77
  -7  -2  11   -0.06    0.48
  -7   2  11   -0.22    0.47
   7   2 -11    0.11    0.44
   6  -2 -11    0.46    0.33
  -6  -2  11   -0.39    0.33
  -6   2  11    0.12    0.37
   6   2 -11    0.38    0.37
   5  -2 -11    2.50    0.56
   5  -2 -11    1.89    0.54
  -5  -2  11    3.11    0.79
  -5   2  11    3.27    0.85
   5   2 -11    2.63    0.81
  -5   2  11    3.37    0.73
  -4  -2  11    8.92    1.02
   4  -2 -11    6.52    0.70
   4  -2 -11    7.26    0.76
  -4  -2  11    7.50    0.99
   4   2 -11    7.50    1.24
  -4   2  11    8.45    1.03
  -4   2  11    6.88    1.05
   4   2 -11    7.36    1.21
  -3  -2  11    0.22    0.20
   3  -2 -11    0.11    0.14
  -3  -2  11    0.11    0.18
   3  -2 -11   -0.07    0.14
  -3   2  11    0.24    0.21
   3   2 -11   -0.38    0.19
   3   2 -11    0.15    0.18
   2  -2 -11   -0.23    0.10
   2  -2 -11    0.23    0.10
  -2  -2  11    0.13    0.16
   2   2 -11    0.04    0.14
   2   2 -11   -0.11    0.12
  -2   2  11   -0.09    0.18
  -2   2  11    0.41    0.21
  -1  -2  11   34.38    1.61
  -1  -2  11   33.98    1.63
   1  -2 -11   37.37    1.54
   1  -2 -11   35.01    1.49
   1   2 -11   36.19    1.86
   1   2 -11   35.08    1.80
  -1   2  11   36.41    1.74
  -1   2  11   32.89    1.77
   0  -2  11    0.67    0.21
   0  -2  11    0.73    0.21
   0  -2 -11    1.04    0.25
   0   2 -11    0.71    0.27
   0   2  11    0.32    0.20
   0   2  11    0.95    0.24
   0   2 -11    0.97    0.29
  -1  -2 -11   14.27    1.02
   1  -2  11   14.01    0.79
   1  -2  11   14.50    0.86
  -1  -2 -11   16.41    1.05
   1  -2  11   14.93    1.29
   1   2  11   13.81    1.08
   1   2  11   14.14    1.15
  -1   2 -11   13.68    1.01
  -1   2 -11   13.44    1.03
  -2  -2 -11    0.26    0.17
   2  -2  11   -0.01    0.07
  -2  -2 -11    0.04    0.18
   2  -2  11    0.01    0.13
   2  -2  11    0.37    0.15
   2   2  11    0.16    0.16
  -2   2 -11    0.19    0.16
   2   2  11    0.40    0.17
   3  -2  11    1.20    0.31
  -3  -2 -11    0.87    0.41
   3  -2  11    1.29    0.35
  -3  -2 -11    0.51    0.29
   3   2  11    1.60    0.79
   3   2  11    1.64    0.60
   3   2  11    1.21    0.53
  -3   2 -11    1.68    0.49
  -3   2 -11    1.77    0.50
   4  -2  11   10.78    1.03
  -4  -2 -11    8.37    1.29
  -4  -2 -11   10.79    1.30
   4  -2  11   10.25    0.97
  -4   2 -11   10.23    1.16
   4   2  11   10.34    1.35
   4   2  11    9.81    1.19
   4   2  11   10.54    1.69
  -4   2 -11    9.62    1.19
   5  -2  11    4.61    0.80
  -5  -2 -11    4.75    1.04
  -5  -2 -11    5.37    1.11
   5  -2  11    4.11    0.83
   5   2  11    4.08    1.08
  -5   2 -11    4.17    1.02
   6  -2  11   -0.60    0.49
   6  -2  11    0.86    0.40
  -6  -2 -11    0.92    0.59
  -6   2 -11    0.03    0.42
   6   2  11    0.14    0.46
   7  -2  11    4.83    0.99
  -7  -2 -11    8.07    1.65
   7  -2  11    4.05    1.13
   7   2  11    5.08    1.40
  -7   2 -11    6.96    1.44
  -7  -3  11   13.27    1.70
   7   3 -11   11.47    1.99
  -7   3  11    9.77    1.77
  -6  -3  11   -0.41    0.44
   6   3 -11    0.56    0.43
  -6   3  11    0.31    0.50
  -5  -3  11    9.43    1.36
  -5  -3  11   11.38    1.27
  -5   3  11   12.45    1.32
  -5   3  11   10.70    1.38
   5   3 -11   11.06    1.42
  -4  -3  11   19.57    1.50
  -4  -3  11   20.16    1.53
  -4  -3  11   17.98    2.50
  -4   3  11   20.71    1.55
   4   3 -11   17.41    1.65
  -4   3  11   18.07    1.55
   4   3 -11   19.07    1.75
  -3  -3  11   25.42    1.50
  -3  -3  11   21.75    2.35
  -3  -3  11   22.40    1.45
   3   3 -11   27.78    1.89
   3   3 -11   24.89    1.82
  -3   3  11   25.93    1.59
  -2  -3  11   81.25    4.72
  -2  -3  11   94.57    3.00
  -2  -3  11   83.79    2.93
   2   3 -11   82.98    3.64
   2   3 -11   81.73    3.61
  -2   3  11   86.15    3.49
  -1  -3  11   87.57    4.80
  -1   3  11   91.99    3.43
   1   3 -11   92.20    3.61
  -1   3  11   89.81    3.54
   1   3 -11   93.77    3.68
   0  -3  11   57.98    3.57
   0   3  11   58.41    2.63
   0   3 -11   58.00    2.54
   1  -3  11   61.49    3.55
  -1   3 -11   56.98    2.46
   1   3  11   56.99    2.69
   1   3  11   60.76    2.85
  -1   3 -11   56.91    2.52
  -2  -3 -11   23.85    1.37
  -2  -3 -11   25.06    1.35
  -2   3 -11   24.83    1.50
   2   3  11   24.05    1.67
   2   3  11   22.65    1.75
   2   3  11   21.13    2.28
  -2   3 -11   23.78    1.51
  -3  -3 -11   19.88    1.42
  -3  -3 -11   20.28    1.48
  -3   3 -11   18.26    1.50
  -3   3 -11   20.77    1.53
   3   3  11   19.36    2.12
   3   3  11   22.70    1.91
   3   3  11   21.74    2.54
  -4  -3 -11    3.57    0.74
  -4  -3 -11    4.99    0.99
  -4   3 -11    5.04    0.97
   4   3  11    5.47    1.13
  -4   3 -11    5.30    1.33
   4   3  11    3.79    1.06
  -5  -3 -11    5.65    1.07
  -5  -3 -11    5.20    1.01
   5   3  11    5.61    1.27
  -5   3 -11    6.89    1.25
  -6  -3 -11    2.48    0.89
  -6   3 -11    0.84    0.56
   6   3  11    1.33    0.73
  -7  -3 -11    1.25    0.88
   7   3  11    1.26    0.87
  -7   3 -11    2.40    0.96
  -6  -4  11    0.88    0.60
  -6  -4  11   -0.64    0.88
   6   4 -11    0.63    0.60
  -6   4  11   -0.10    0.61
  -5  -4  11    3.93    0.74
  -5  -4  11    4.95    0.84
  -5   4  11    5.83    1.23
   5   4 -11    5.05    1.09
  -4   4  11    1.08    0.43
   4   4 -11    1.55    0.60
  -4   4  11    1.52    0.53
   3   4 -11    1.77    0.60
  -3   4  11    2.30    0.56
  -3   4  11    2.45    0.62
   3   4 -11    2.62    0.70
  -2   4  11    0.47    0.28
   2   4 -11   -0.39    0.24
   2   4 -11    0.41    0.31
  -1  -4  11    0.81    0.56
  -1   4  11    0.30    0.24
   1   4 -11    0.78    0.32
   1   4 -11    0.69    0.36
   0  -4  11    4.85    1.36
   0   4 -11    3.82    0.65
   0   4  11    4.27    0.77
   0   4  11    5.29    0.69
   1   4  11   10.91    1.20
  -1   4 -11   11.10    0.99
   1   4  11   11.84    1.10
   1   4  11    9.68    2.10
  -1   4 -11   11.47    0.95
   2   4  11    0.76    0.46
  -2   4 -11    0.41    0.32
   2   4  11   -0.56    0.36
   2   4  11    0.64    0.41
  -2   4 -11    0.39    0.28
   3   4  11    0.45    0.44
   3   4  11   -0.06    0.40
  -3   4 -11    0.89    0.47
   3   4  11   -0.46    0.46
  -3   4 -11    0.42    0.32
  -4  -4 -11    0.14    0.35
  -4  -4 -11    0.25    0.39
   4   4  11    0.73    0.37
   4   4  11    0.26    0.60
  -4   4 -11    0.20    0.37
  -4   4 -11    0.50    0.49
  -5  -4 -11    1.54    0.59
  -5  -4 -11    1.67    0.75
   5   4  11    3.86    1.02
  -5   4 -11    3.09    0.89
  -6  -4 -11    0.23    0.74
  -6   4 -11    0.74    0.66
   6   4  11    0.51    0.82
  -5   5  11    0.59    0.73
   5   5 -11    1.28    0.78
  -4   5  11    6.82    1.23
   4   5 -11   10.88    2.44
  -4   5  11   10.09    1.24
  -3   5  11   28.80    1.93
  -3   5  11   23.72    1.66
   3   5 -11   27.55    2.10
   2   5 -11   10.71    1.23
  -2   5  11   11.02    1.11
  -2   5  11   11.59    1.00
   1   5 -11    6.23    0.92
   1   5 -11    8.34    0.95
  -1   5  11    9.58    0.96
  -1   5  11   13.18    2.74
  -1   5  11    7.11    0.80
   0   5  11    1.06    0.95
   0   5  11    1.35    0.56
   0   5 -11    0.82    0.44
   0   5  11    0.50    0.37
  -1   5 -11    1.04    0.37
  -1   5 -11    3.12    0.66
   1   5  11    0.90    0.80
   1   5  11    0.13    0.41
   1   5  11    0.66    0.41
  -2   5 -11   64.29    3.03
   2   5  11   71.13    5.38
   2   5  11   69.60    3.49
   2   5  11   68.75    3.69
   3   5  11    0.43    0.63
  -3   5 -11    0.21    0.42
  -3   5 -11   -1.09    0.41
   4   5  11   12.10    1.91
   4   5  11   17.69    2.45
  -4   5 -11   17.44    1.63
   5   5  11    0.39    0.80
  -5   5 -11    0.47    0.65
  -3   6  11    6.18    1.11
  -3   6  11    8.63    2.26
   2   6 -11    1.14    0.52
  -2   6  11   -0.21    0.46
  -2   6  11   -1.16    0.56
   1   6 -11   -0.25    0.42
  -1   6  11    0.11    0.51
  -1   6  11    0.86    0.87
   0   6 -11    1.68    0.70
   0   6  11    3.23    0.84
   0   6  11    3.94    1.47
   0   6 -11    3.27    0.65
  -1   6 -11    7.34    1.57
   1   6  11    4.63    1.78
   1   6  11    8.95    1.27
   2   6  11    4.39    1.15
   2   6  11    6.21    2.34
  -2   6 -11    3.55    0.88
   3   6  11    1.65    1.26
  -8   0  12    2.71    1.00
   8   0 -12    1.34    0.80
  -7   0  12   30.66    2.75
   7   0 -12   27.20    2.39
   6   0 -12   20.90    1.92
  -6   0  12   18.81    1.98
   5   0 -12  146.62    7.81
  -5   0  12  130.76    5.81
  -5   0  12  127.85    5.68
   5   0 -12  134.82    5.62
   4   0 -12  102.57    4.57
  -4   0  12  103.82    4.55
   4   0 -12  107.47    4.53
  -4   0  12  114.40    4.80
   3   0 -12   30.01    1.87
  -3   0  12   31.81    2.03
  -3   0  12   31.83    1.93
   3   0 -12   34.14    2.02
   2   0 -12   74.47    3.18
  -2   0  12   83.43    3.41
  -2   0  12   78.86    3.37
   1   0 -12  123.43    4.63
  -1   0  12  140.27    4.87
   1   0 -12  140.50    4.87
  -1   0  12  133.44    4.74
   0   0 -12  211.11    6.89
   0   0  12  205.19    6.84
   0   0 -12  222.22    7.01
   0   0  12  209.96    7.02
   1   0  12   70.15    3.12
  -1   0 -12   76.10    3.10
  -1   0 -12   77.98    3.17
   1   0  12   70.28    2.99
   2   0  12   18.74    1.74
  -2   0 -12   19.28    1.43
   2   0  12   20.12    1.39
  -3   0 -12    1.08    0.38
  -3   0 -12    2.10    0.58
   3   0  12    2.06    0.62
   3   0  12    1.67    0.48
   4   0  12    0.17    0.24
  -4   0 -12    0.09    0.30
  -4   0 -12    0.17    0.25
   4   0  12    0.22    0.30
  -5   0 -12   67.86    3.86
   5   0  12   63.79    3.51
   5   0  12   65.94    3.73
  -6   0 -12   16.27    1.92
   6   0  12   18.00    1.99
  -7   0 -12    0.41    0.55
   7   0  12   -0.74    0.42
   8   0  12    1.84    0.81
  -8   0 -12    2.08    1.07
  -8  -1  12    0.17    0.58
   8  -1 -12    1.12    0.62
   8   1 -12    0.82    0.60
  -8   1  12    0.27    0.66
  -7  -1  12    5.88    1.32
   7   1 -12    5.72    1.30
  -7   1  12    4.39    1.22
  -6  -1  12    2.88    0.88
   6  -1 -12    2.52    0.77
   6  -1 -12    3.72    0.81
  -6   1  12    3.81    1.03
   6   1 -12    3.91    1.00
   5  -1 -12    9.53    1.12
  -5  -1  12   11.77    1.38
  -5  -1  12    9.56    1.21
   5  -1 -12   11.02    1.15
   5   1 -12   12.01    1.36
   5   1 -12   12.21    1.38
  -5   1  12    8.66    1.16
  -5   1  12    9.98    1.30
  -4  -1  12   22.01    1.71
  -4  -1  12   22.04    1.80
   4  -1 -12   24.65    1.63
   4  -1 -12   20.38    1.57
   4   1 -12   26.91    1.91
  -4   1  12   23.03    1.83
  -4   1  12   20.35    1.63
   4   1 -12   20.34    1.71
  -3  -1  12    1.46    0.43
   3  -1 -12    0.48    0.28
   3  -1 -12    0.14    0.20
  -3  -1  12    0.51    0.28
   3   1 -12    0.31    0.23
  -3   1  12    0.05    0.18
   3   1 -12    0.34    0.25
  -3   1  12    0.42    0.25
   2  -1 -12    6.80    0.71
   2  -1 -12    5.82    0.65
  -2  -1  12    6.16    0.73
  -2  -1  12    5.46    1.19
   2   1 -12    5.26    0.69
   2   1 -12    7.19    0.82
  -2   1  12    6.28    0.69
  -2   1  12    7.43    0.83
   1  -1 -12    0.24    0.16
  -1  -1  12   -0.18    0.07
   1  -1 -12    0.26    0.16
  -1  -1  12    0.02    0.12
   1   1 -12    0.32    0.19
  -1   1  12   -0.05    0.10
  -1   1  12    0.00    0.12
   0  -1  12   27.07    1.49
   0  -1 -12   29.19    1.59
   0  -1  12   28.80    1.59
   0  -1 -12   30.05    1.58
   0   1 -12   28.63    1.57
   0   1  12   31.76    1.72
   0   1 -12   27.29    1.58
   0   1  12   30.69    1.61
   1  -1  12    2.28    0.43
  -1  -1 -12    2.04    0.48
  -1  -1 -12    1.73    0.43
   1  -1  12    1.74    0.42
   1   1  12    2.08    0.50
  -1   1 -12    2.07    0.47
  -1   1 -12    2.20    0.47
   2  -1  12   10.47    0.90
   2  -1  12   10.71    0.99
  -2  -1 -12    9.82    0.98
  -2  -1 -12   11.11    1.07
   2   1  12    9.81    0.96
  -2   1 -12    9.27    0.93
  -2   1 -12    9.76    0.96
   2   1  12    9.38    1.04
  -3  -1 -12    1.44    0.53
   3  -1  12    0.90    0.31
  -3  -1 -12    1.54    0.45
   3  -1  12    1.67    0.50
  -3   1 -12    1.36    0.41
   3   1  12    0.83    0.36
   3   1  12    1.56    0.47
  -3   1 -12    1.63    0.51
  -4  -1 -12    2.63    0.77
   4  -1  12    1.70    0.56
  -4  -1 -12    2.67    0.76
   4  -1  12    2.34    0.53
  -4   1 -12    2.34    0.62
   4   1  12    1.84    0.65
  -4   1 -12    3.23    0.78
   4   1  12    1.21    0.55
   5  -1  12    1.69    0.50
   5  -1  12    1.17    0.54
  -5  -1 -12    1.85    0.69
   5   1  12    2.34    0.78
  -5   1 -12    1.24    0.54
   6  -1  12    4.04    0.96
  -6  -1 -12    3.36    0.95
  -6   1 -12    2.70    0.90
   6   1  12    2.25    0.82
   7  -1  12    3.01    0.99
  -7  -1 -12    2.60    0.72
  -7   1 -12    3.68    1.18
   7   1  12    3.73    1.02
  -8  -1 -12    6.47    1.65
   8  -1  12    5.76    1.28
  -8   1 -12    6.48    1.62
   8   1  12    4.42    1.35
   8  -2 -12    0.80    0.68
  -8  -2  12    1.77    0.85
   8   2 -12    0.45    0.60
  -8   2  12    0.37    0.74
  -7  -2  12    9.43    1.69
   7  -2 -12    8.91    1.36
   7  -2 -12    9.70    1.22
   7   2 -12    9.84    1.79
  -7   2  12    8.78    1.67
   6  -2 -12   45.13    2.57
  -6  -2  12   49.58    3.25
   6  -2 -12   46.31    2.55
   6   2 -12   45.78    3.19
  -6   2  12   44.41    3.19
   5  -2 -12   20.74    1.51
   5  -2 -12   22.65    1.51
  -5  -2  12   19.71    1.77
  -5  -2  12   19.56    1.81
   5   2 -12   20.48    1.87
  -5   2  12   20.27    1.70
  -5   2  12   21.74    1.95
   4  -2 -12   15.94    1.15
  -4  -2  12   18.42    1.50
   4  -2 -12   18.02    1.28
  -4  -2  12   17.10    1.50
   4   2 -12   17.35    1.58
   4   2 -12   14.01    1.83
  -4   2  12   16.78    1.54
  -4   2  12   15.75    1.37
   3  -2 -12    1.46    0.35
  -3  -2  12    1.79    0.47
   3  -2 -12    1.72    0.37
  -3  -2  12    1.77    0.44
   3   2 -12    1.60    0.46
   3   2 -12    2.31    0.58
  -3   2  12    1.08    0.39
  -3   2  12    1.16    0.43
  -2  -2  12    5.42    0.65
   2  -2 -12    5.14    0.52
   2  -2 -12    4.69    0.50
  -2  -2  12    3.98    0.64
  -2   2  12    4.81    0.78
   2   2 -12    5.29    0.68
  -2   2  12    4.58    0.57
  -1  -2  12  112.28    3.98
   1  -2 -12  113.10    3.89
  -1  -2  12  110.18    4.01
   1  -2 -12  117.33    3.88
   1   2 -12  115.69    5.00
  -1   2  12  112.88    4.26
   1   2 -12  118.46    4.26
  -1   2  12  115.04    4.15
   0  -2  12   32.77    1.55
   0  -2  12   33.11    1.50
   0  -2 -12   33.34    1.59
   0  -2 -12   33.37    1.61
   0   2  12   35.52    1.88
   0   2 -12   36.32    1.78
   0   2  12   31.11    1.74
   0   2 -12   34.24    1.79
   1  -2  12  113.89    3.89
   1  -2  12  114.48    4.73
  -1  -2 -12  119.03    4.18
  -1  -2 -12  118.32    4.21
   1  -2  12  115.50    3.82
   1   2  12  106.38    4.27
  -1   2 -12  108.46    4.14
   1   2  12  115.51    4.47
  -2  -2 -12   10.20    0.97
   2  -2  12   12.24    1.12
   2  -2  12   11.60    0.87
  -2  -2 -12   10.26    1.69
   2   2  12   11.88    1.19
  -2   2 -12   11.04    1.00
   2   2  12   12.46    1.13
  -2   2 -12   10.65    1.02
   3  -2  12    0.15    0.17
  -3  -2 -12   -0.34    0.14
   3  -2  12    0.30    0.18
  -3  -2 -12   -0.01    0.19
   3   2  12    0.12    0.29
  -3   2 -12    0.87    0.28
  -3   2 -12    0.35    0.22
   3   2  12    0.11    0.25
  -4  -2 -12    0.42    0.37
  -4  -2 -12    1.11    0.47
   4  -2  12    1.57    0.39
   4  -2  12    1.11    0.45
   4   2  12    1.47    0.54
  -4   2 -12    1.92    0.66
   4   2  12    1.60    0.60
   4   2  12    1.84    0.61
   5  -2  12   16.65    1.35
   5  -2  12   17.44    1.46
  -5  -2 -12   18.06    1.82
   5   2  12   16.33    1.82
  -5   2 -12   16.07    1.74
  -6  -2 -12   14.57    1.78
   6  -2  12   15.00    1.46
   6  -2  12   11.59    1.29
   6   2  12   15.11    1.89
  -6   2 -12   14.68    1.77
  -7  -2 -12   40.31    3.35
   7  -2  12   43.48    2.76
  -7   2 -12   39.75    3.37
   7   2  12   39.95    3.41
  -7  -3  12    3.66    1.10
   7   3 -12    3.06    1.00
  -7   3  12    3.32    0.97
  -6  -3  12   11.96    1.51
   6   3 -12   10.17    1.73
  -5  -3  12    1.39    0.65
  -5  -3  12    1.44    0.59
   5   3 -12    1.73    0.63
  -5   3  12    1.51    0.56
  -5   3  12    2.16    0.86
  -4  -3  12    6.98    1.02
  -4  -3  12    8.99    0.99
  -4   3  12    7.04    1.04
   4   3 -12    6.99    1.16
  -4   3  12    6.68    1.10
   4   3 -12    7.02    1.18
  -3  -3  12   11.46    0.96
  -3  -3  12   10.04    0.94
  -3  -3  12   10.06    1.47
  -3   3  12   10.27    1.02
  -3   3  12   10.64    1.09
   3   3 -12    8.85    1.07
   3   3 -12    8.40    1.03
  -2  -3  12   24.85    2.32
  -2  -3  12   21.19    1.13
  -2  -3  12   21.14    1.14
   2   3 -12   21.66    1.58
  -2   3  12   21.86    1.49
   2   3 -12   20.88    1.55
  -1  -3  12    3.60    1.10
  -1   3  12    2.88    0.57
   1   3 -12    2.28    0.50
  -1   3  12    2.55    0.48
   1   3 -12    2.19    0.53
   0  -3  12   34.40    2.63
   0   3 -12   34.37    1.93
   0   3  12   32.94    1.79
   0   3  12   31.76    1.87
   1  -3  12    0.51    0.35
  -1   3 -12    0.12    0.20
   1   3  12    0.16    0.22
  -1   3 -12    0.15    0.20
   1   3  12    0.81    0.48
  -2  -3 -12    1.59    0.37
  -2  -3 -12    1.95    0.45
   2   3  12    2.91    1.05
   2   3  12    1.33    0.41
  -2   3 -12    2.83    0.59
   2   3  12    1.55    0.48
  -2   3 -12    2.63    0.53
  -3  -3 -12    1.12    0.42
  -3  -3 -12    1.31    0.43
  -3   3 -12    1.26    0.41
   3   3  12    0.59    0.47
   3   3  12    0.63    0.35
   3   3  12    0.99    0.76
  -3   3 -12    0.51    0.35
  -4  -3 -12    2.60    0.61
  -4  -3 -12    2.62    0.68
   4   3  12    1.68    0.70
   4   3  12    1.69    0.79
  -4   3 -12    1.78    0.62
  -4   3 -12    1.84    0.64
  -5  -3 -12    0.79    0.48
  -5  -3 -12    1.54    0.67
  -5   3 -12    0.39    0.43
   5   3  12    1.01    0.58
  -6  -3 -12   -0.14    0.53
   6   3  12    0.99    0.62
  -6   3 -12    0.06    0.47
  -7  -3 -12   -0.29    0.69
   7   3  12    0.31    0.70
  -7   3 -12    2.06    0.79
  -6  -4  12   14.25    1.56
  -6   4  12   14.82    1.88
   6   4 -12   16.95    1.96
  -5  -4  12   41.73    2.34
  -5  -4  12   44.02    2.34
   5   4 -12   47.65    3.17
  -5   4  12   44.40    2.88
  -4   4  12   16.38    1.58
   4   4 -12   16.75    1.68
   3   4 -12   22.83    1.87
  -3   4  12   27.18    1.81
   3   4 -12   28.05    2.02
  -3   4  12   26.21    1.68
   2   4 -12    0.62    0.38
   2   4 -12    1.48    0.49
  -2   4  12    1.01    0.38
  -1  -4  12    0.17    0.41
  -1   4  12    0.21    0.24
  -1   4  12    0.50    0.23
   1   4 -12   -0.14    0.22
   0  -4  12    6.14    1.59
   0   4  12    7.21    0.76
   0   4  12    5.13    0.87
   0   4 -12    6.85    0.78
   1   4  12  164.81    6.17
  -1   4 -12  159.13    5.56
  -1   4 -12  157.59    5.67
   1   4  12  146.50    5.80
   1   4  12  176.27    8.45
   2   4  12    2.98    0.62
  -2   4 -12    2.97    0.63
   2   4  12    1.04    0.60
   2   4  12    1.91    0.63
  -2   4 -12    2.61    0.66
   3   4  12    0.23    0.39
  -3   4 -12    0.77    0.33
   3   4  12    0.02    0.52
  -3   4 -12   -0.09    0.28
  -4  -4 -12    9.16    1.10
   4   4  12   11.71    2.39
  -4   4 -12   11.08    1.30
  -4   4 -12   10.45    1.42
  -5  -4 -12    1.34    0.69
  -5  -4 -12    3.03    0.77
  -5   4 -12    0.72    0.61
   5   4  12    1.02    0.60
  -6  -4 -12    4.57    1.10
   6   4  12    6.18    1.41
  -6   4 -12    7.19    1.47
  -5   5  12    1.99    0.81
   5   5 -12    1.81    0.68
  -4   5  12    1.19    0.57
  -4   5  12    0.29    0.71
   4   5 -12    1.11    0.65
   3   5 -12    1.47    0.50
  -3   5  12    1.17    0.58
  -3   5  12    1.25    0.58
  -2   5  12    2.02    0.60
   2   5 -12    2.92    0.75
  -2   5  12    2.28    0.54
   2   5 -12    1.82    0.62
   1   5 -12    3.71    0.72
   1   5 -12    3.77    0.76
  -1   5  12    4.28    1.54
  -1   5  12    4.52    0.67
   0   5  12    0.40    0.43
   0   5 -12   -0.36    0.33
   0   5  12    0.43    0.70
   0   5  12   -0.40    0.36
   1   5  12   -0.14    0.52
   1   5  12   -0.11    0.40
   1   5  12    0.42    0.47
  -1   5 -12    0.01    0.33
  -1   5 -12   -0.49    0.33
  -2   5 -12   14.96    1.26
  -2   5 -12   13.12    1.25
   2   5  12   15.52    2.41
   2   5  12   14.36    1.64
  -3   5 -12    0.47    0.48
   3   5  12    0.13    0.61
  -3   5 -12    0.84    0.58
   3   5  12    0.92    0.54
   4   5  12    3.36    1.09
   4   5  12    4.32    1.40
  -4   5 -12    4.43    0.97
  -5   5 -12   -0.75    0.65
   5   5  12   -0.07    0.66
  -3   6  12    6.84    2.94
  -3   6  12    5.42    1.01
   3   6 -12    5.23    1.13
  -2   6  12   -0.56    0.52
  -2   6  12    0.14    0.74
   2   6 -12   -0.02    0.47
  -1   6  12   35.25    4.08
  -1   6  12   43.01    2.43
   1   6 -12   41.22    2.37
   0   6  12    8.10    2.33
   0   6  12   10.81    1.45
   0   6 -12   14.26    1.24
   1   6  12    6.81    1.23
  -1   6 -12    6.82    0.99
   1   6  12    6.75    2.14
   2   6  12    2.97    2.80
   2   6  12    0.47    0.71
  -2   6 -12    1.34    0.67
  -8   0  13    0.47    0.54
   8   0 -13   -0.93    0.42
  -7   0  13    0.16    0.49
   7   0 -13   -0.52    0.30
  -6   0  13    0.45    0.35
   6   0 -13   -0.02    0.24
   5   0 -13    0.30    0.19
  -5   0  13   -0.06    0.36
   5   0 -13    0.43    0.38
  -5   0  13    0.09    0.35
   4   0 -13    0.14    0.25
  -4   0  13    0.00    0.27
  -4   0  13    0.04    0.22
   4   0 -13    0.02    0.19
   3   0 -13    0.27    0.19
   3   0 -13    0.16    0.18
  -3   0  13    0.15    0.23
  -2   0  13    0.01    0.16
  -2   0  13    0.08    0.13
   2   0 -13    0.41    0.24
   1   0 -13    0.05    0.09
   1   0 -13   -0.02    0.12
  -1   0  13   -0.06    0.08
  -1   0  13    0.25    0.13
   0   0 -13   -0.01    0.10
   0   0  13   -0.14    0.10
   0   0  13    0.08    0.15
   0   0 -13    0.07    0.13
  -1   0 -13   -0.07    0.15
  -1   0 -13    0.00    0.11
   1   0  13    0.12    0.16
  -2   0 -13    0.03    0.15
  -2   0 -13    0.05    0.17
   2   0  13   -0.20    0.09
   2   0  13    0.36    0.24
   3   0  13   -0.13    0.21
  -3   0 -13   -0.01    0.20
  -3   0 -13   -0.03    0.18
   3   0  13   -0.35    0.19
  -4   0 -13   -0.21    0.28
  -4   0 -13   -0.20    0.24
   4   0  13    0.29    0.27
   4   0  13   -0.27    0.25
   5   0  13    0.16    0.35
   5   0  13   -0.32    0.32
  -5   0 -13   -0.43    0.22
   6   0  13   -0.31    0.29
  -6   0 -13    0.28    0.48
  -7   0 -13    0.01    0.50
   7   0  13    0.00    0.49
  -8   0 -13    0.60    0.64
   8  -1 -13   23.51    2.20
  -8  -1  13   20.24    2.51
  -8   1  13   22.61    2.58
   8   1 -13   22.09    2.36
  -7  -1  13   46.98    3.52
   7  -1 -13   46.26    3.07
  -7   1  13   55.61    3.76
   7   1 -13   46.38    3.41
  -6  -1  13    2.36    0.79
   6  -1 -13    4.39    0.97
   6  -1 -13    7.13    1.23
   6   1 -13    3.90    1.19
  -6   1  13    4.31    1.08
  -5  -1  13    7.19    1.23
   5  -1 -13   10.80    1.17
  -5  -1  13   10.27    1.30
   5  -1 -13    7.57    1.14
   5   1 -13    8.63    1.39
  -5   1  13    8.46    1.37
   5   1 -13    9.75    1.24
  -5   1  13    7.28    1.18
   4  -1 -13   14.75    1.25
  -4  -1  13   14.65    1.40
  -4  -1  13   13.73    1.40
   4  -1 -13   13.28    1.23
   4   1 -13   12.96    1.35
  -4   1  13   16.01    1.41
   4   1 -13   15.50    1.48
  -4   1  13   14.80    1.45
  -3  -1  13    3.75    0.68
   3  -1 -13    3.72    0.67
  -3  -1  13    3.43    0.74
   3  -1 -13    5.27    0.87
  -3   1  13    3.94    0.69
   3   1 -13    3.23    0.68
  -3   1  13    2.15    0.58
   3   1 -13    3.13    0.73
   2  -1 -13   81.62    3.30
  -2  -1  13   79.51    3.42
  -2  -1  13   81.71    3.38
   2  -1 -13   82.50    3.25
  -2   1  13   77.57    3.44
   2   1 -13   80.83    3.51
  -2   1  13   78.03    3.31
  -1  -1  13  254.13    8.55
   1  -1 -13  277.58    8.55
   1  -1 -13  274.80    8.64
  -1  -1  13  269.83    8.70
   1   1 -13  288.42    8.75
  -1   1  13  249.38    9.45
   1   1 -13  267.91    9.54
  -1   1  13  283.62    8.82
   0  -1  13   -0.09    0.11
   0  -1 -13   -0.12    0.08
   0  -1 -13    0.12    0.15
   0  -1  13   -0.04    0.11
   0   1  13    0.07    0.17
   0   1 -13   -0.15    0.09
   0   1 -13    0.03    0.11
   0   1  13    0.17    0.15
  -1  -1 -13   18.46    1.32
   1  -1  13   18.57    1.30
   1  -1  13   17.33    1.18
  -1   1 -13   18.28    1.31
  -1   1 -13   19.65    1.31
   1   1  13   17.89    1.28
   1   1  13   17.58    1.36
   2  -1  13   23.09    1.43
  -2  -1 -13   21.02    1.56
   2  -1  13   22.16    1.52
  -2  -1 -13   21.32    1.53
   2   1  13   21.54    1.53
  -2   1 -13   22.33    1.56
   2   1  13   22.49    1.68
  -2   1 -13   20.32    1.49
  -3  -1 -13    0.17    0.26
   3  -1  13    0.13    0.29
  -3  -1 -13   -0.12    0.20
   3  -1  13   -0.06    0.21
   3   1  13    0.22    0.27
   3   1  13    0.36    0.19
  -3   1 -13   -0.08    0.24
  -3   1 -13    0.41    0.24
   4  -1  13   91.47    4.23
   4  -1  13   92.00    4.07
  -4  -1 -13  103.65    4.67
  -4   1 -13   93.48    4.52
   4   1  13   97.42    4.69
  -4   1 -13   98.01    4.52
   4   1  13   80.88    3.64
   4   1  13   96.36    4.44
   5  -1  13   15.05    1.51
   5  -1  13   14.79    1.55
  -5  -1 -13   16.26    1.71
  -5   1 -13   15.94    1.71
   5   1  13   16.50    1.81
  -6  -1 -13   10.91    1.80
   6  -1  13   12.14    1.46
   6   1  13    7.80    1.55
  -6   1 -13   10.13    1.66
  -7  -1 -13    7.40    1.65
   7  -1  13    5.51    1.23
   7   1  13    6.98    1.63
  -7   1 -13    5.69    1.41
   8  -2 -13    0.22    0.66
  -8  -2  13    0.75    0.65
   8   2 -13   -0.22    0.55
  -8   2  13    0.53    0.90
   7  -2 -13    0.89    0.73
   7  -2 -13    1.06    0.54
  -7  -2  13    0.63    0.69
   7   2 -13    1.68    0.79
  -7   2  13    0.01    0.51
   6  -2 -13   -0.23    0.25
  -6  -2  13   -0.26    0.38
   6  -2 -13   -1.02    0.36
   6   2 -13   -0.24    0.33
  -6   2  13   -0.23    0.36
   5  -2 -13    0.25    0.30
   5  -2 -13    0.26    0.28
  -5  -2  13    0.63    0.42
  -5  -2  13    0.56    0.52
   5   2 -13    0.68    0.35
  -5   2  13    0.64    0.51
  -5   2  13    1.14    0.51
  -4  -2  13    0.32    0.34
   4  -2 -13    0.50    0.36
  -4  -2  13    0.40    0.31
  -4   2  13    0.25    0.28
   4   2 -13    0.19    0.24
  -4   2  13    0.83    0.44
   4   2 -13    0.24    0.31
  -3  -2  13    9.62    1.03
   3  -2 -13   10.10    0.83
  -3  -2  13    9.23    0.98
   3  -2 -13    9.31    0.84
   3   2 -13   10.99    1.17
  -3   2  13   11.73    1.15
  -3   2  13   10.72    1.02
   3   2 -13    8.57    1.04
  -2  -2  13   26.05    1.57
  -2  -2  13   25.89    1.56
   2  -2 -13   26.30    1.42
   2  -2 -13   24.70    1.34
  -2   2  13   24.07    1.51
   2   2 -13   26.39    1.72
   2   2 -13   24.04    1.69
  -2   2  13   28.25    1.73
   1  -2 -13   11.60    0.86
  -1  -2  13   14.69    0.97
   1  -2 -13   13.30    0.91
  -1  -2  13   11.11    0.92
   1   2 -13   13.14    1.08
  -1   2  13   12.50    1.06
   1   2 -13   11.22    0.98
  -1   2  13   13.53    1.02
   0  -2  13   -0.19    0.09
   0  -2  13    0.19    0.16
   0  -2 -13    0.18    0.16
   0  -2 -13    0.00    0.14
   0   2  13   -0.24    0.12
   0   2 -13    0.28    0.19
   0   2 -13    0.30    0.18
   0   2  13   -0.32    0.11
  -1  -2 -13   37.65    1.95
  -1  -2 -13   36.32    1.90
   1  -2  13   37.40    1.68
   1  -2  13   40.33    1.80
   1  -2  13   34.73    2.24
  -1   2 -13   36.55    1.97
  -1   2 -13   38.09    1.95
   1   2  13   36.30    2.01
   2  -2  13    5.55    0.56
  -2  -2 -13    4.44    0.78
   2  -2  13    5.63    0.62
  -2  -2 -13    4.93    0.77
   2  -2  13    5.35    0.72
  -2   2 -13    5.20    0.86
  -2   2 -13    5.73    0.76
   2   2  13    5.05    0.91
   2   2  13    4.53    0.80
  -3  -2 -13    1.73    0.51
  -3  -2 -13    2.26    0.63
   3  -2  13    1.99    0.44
   3  -2  13    1.50    0.37
   3   2  13    2.02    0.69
  -3   2 -13    2.84    0.64
  -3   2 -13    2.73    0.65
   3   2  13    1.05    0.45
   3   2  13    1.07    0.48
  -4  -2 -13    0.76    0.42
   4  -2  13    0.75    0.41
   4  -2  13    1.12    0.34
  -4  -2 -13    0.57    0.36
  -4   2 -13    1.52    0.50
   4   2  13    0.19    0.47
   4   2  13    0.36    0.40
  -4   2 -13    1.37    0.58
   4   2  13    1.66    0.67
   5  -2  13    0.05    0.38
   5  -2  13   -0.21    0.35
  -5  -2 -13    0.49    0.48
  -5   2 -13    0.78    0.45
   6  -2  13    0.44    0.72
  -6  -2 -13   -0.11    0.58
   6  -2  13    0.00    0.38
   6   2  13    1.27    0.77
  -6   2 -13    0.42    0.34
  -7  -2 -13    1.87    0.74
   7  -2  13    1.67    0.73
   7   2  13    0.09    0.71
  -7   2 -13    2.01    0.82
  -7  -3  13    1.47    0.85
  -7   3  13    0.90    0.82
   7   3 -13    1.43    0.80
  -6  -3  13   14.86    1.68
   6   3 -13   17.20    1.96
  -6   3  13   15.28    1.86
  -5  -3  13    6.75    1.21
  -5  -3  13    8.79    1.26
  -5   3  13    9.47    1.44
   5   3 -13    6.51    1.25
  -4  -3  13   12.94    1.25
  -4  -3  13   11.78    1.20
  -4   3  13   12.45    1.25
   4   3 -13   15.18    1.56
   4   3 -13   12.30    1.38
  -4   3  13   14.80    1.44
  -3  -3  13   15.32    1.17
  -3  -3  13   15.38    1.18
  -3  -3  13   12.88    1.85
  -3   3  13   16.99    1.41
  -3   3  13   14.37    1.25
   3   3 -13   17.62    1.50
   3   3 -13   15.50    1.46
  -2  -3  13  191.72    6.14
  -2  -3  13  201.04   10.39
  -2  -3  13  192.53    6.16
   2   3 -13  198.15    6.92
   2   3 -13  190.68    6.91
  -2   3  13  187.93    6.72
  -1  -3  13   -0.09    0.34
  -1   3  13    0.64    0.23
  -1   3  13    0.30    0.19
   1   3 -13    0.47    0.23
   1   3 -13    0.55    0.25
   0  -3  13   38.78    2.87
   0   3  13   41.78    2.13
   0   3 -13   43.88    2.10
   0   3  13   38.81    2.18
   0   3 -13   41.38    2.14
  -1  -3 -13   -0.24    0.13
  -1  -3 -13    0.20    0.13
   1  -3  13    0.51    0.38
  -1   3 -13    0.35    0.19
   1   3  13    0.29    0.32
   1   3  13   -0.38    0.21
  -1   3 -13    0.00    0.19
  -2  -3 -13   18.83    1.28
  -2  -3 -13   19.11    1.25
  -2   3 -13   19.47    1.46
   2   3  13   22.92    1.67
  -2   3 -13   19.29    1.39
   2   3  13   19.07    1.65
  -3  -3 -13   54.63    2.66
  -3  -3 -13   53.21    2.71
   3   3  13   53.40    3.75
   3   3  13   50.84    3.03
   3   3  13   55.11    3.25
  -3   3 -13   55.36    2.86
  -3   3 -13   51.66    2.83
  -4  -3 -13   35.53    2.33
  -4  -3 -13   34.82    2.19
   4   3  13   30.33    2.72
  -4   3 -13   30.84    2.29
  -4   3 -13   37.97    2.50
   4   3  13   35.08    2.72
  -5  -3 -13    3.33    0.87
  -5  -3 -13    5.50    1.13
   5   3  13    5.46    1.20
  -5   3 -13    5.35    1.14
  -6  -3 -13    1.78    0.75
   6   3  13    1.25    0.96
  -6   3 -13    1.02    0.77
  -7  -3 -13   -0.98    0.58
  -7   3 -13    1.89    1.08
   7   3  13    0.20    0.63
  -6  -4  13    0.19    0.64
  -6   4  13   -0.58    0.61
   6   4 -13    1.45    0.65
  -5  -4  13    0.02    0.38
  -5  -4  13    1.33    0.57
   5   4 -13    0.60    0.43
   4   4 -13    8.77    1.16
  -4   4  13    7.47    1.24
  -4   4  13    6.17    0.93
  -3   4  13    5.55    0.98
   3   4 -13    5.81    1.05
   3   4 -13    7.24    1.18
  -3   4  13    8.23    0.90
  -2   4  13    0.62    0.35
   2   4 -13    0.70    0.41
   2   4 -13    0.89    0.42
   1   4 -13    2.56    0.57
   1   4 -13    2.24    0.53
   0  -4  13    0.05    0.40
   0   4 -13    0.59    0.35
   0   4  13    0.54    0.44
   0   4  13    0.90    0.34
   0   4 -13    0.69    0.35
   1   4  13   11.19    1.25
   1   4  13   10.42    1.06
  -1   4 -13    9.34    0.97
  -1   4 -13   10.23    1.02
   2   4  13    0.92    0.45
  -2   4 -13    1.40    0.47
   2   4  13    0.85    0.73
  -2   4 -13    0.78    0.42
   2   4  13    0.60    0.37
   3   4  13    8.24    2.01
  -3   4 -13    6.52    1.03
  -3   4 -13    7.66    0.95
   3   4  13    6.49    1.23
  -4  -4 -13    0.05    0.35
   4   4  13    0.36    0.43
   4   4  13    0.37    0.73
  -4   4 -13    0.31    0.48
  -5  -4 -13    6.13    1.05
  -5  -4 -13    4.67    1.04
   5   4  13    8.16    1.57
  -6   4 -13    1.95    0.97
  -5   5  13    3.69    1.04
   5   5 -13    7.99    1.43
  -4   5  13   17.11    1.74
   4   5 -13   18.61    1.86
  -3   5  13   13.40    1.42
  -3   5  13   15.81    1.40
   3   5 -13   14.16    1.54
  -2   5  13   15.86    1.31
   2   5 -13   16.83    1.58
  -2   5  13   18.81    1.54
   2   5 -13   15.45    1.53
   1   5 -13   13.80    1.27
   1   5 -13   13.08    1.22
  -1   5  13   11.83    1.10
  -1   5  13   14.16    1.30
   0   5  13    3.80    1.41
   0   5  13    4.15    0.72
   0   5 -13    3.72    0.71
   0   5  13    3.15    0.71
   0   5 -13    1.97    0.67
   1   5  13   -0.24    0.41
   1   5  13    0.37    0.71
  -1   5 -13   -0.42    0.39
   1   5  13    0.07    0.52
  -1   5 -13   -0.11    0.31
  -2   5 -13    3.31    0.73
   2   5  13    3.57    1.01
  -2   5 -13    4.17    0.75
   2   5  13    2.17    1.06
   3   5  13   18.47    2.66
  -3   5 -13   18.15    1.61
   3   5  13   16.67    3.46
  -3   5 -13   18.34    1.65
   4   5  13   30.56    2.80
  -4   5 -13   31.36    2.26
   4   5  13   33.52    3.54
  -3   6  13   11.23    1.44
  -3   6  13   10.15    2.88
   3   6 -13    8.99    1.46
  -2   6  13   -0.05    0.58
   2   6 -13    1.03    0.63
  -2   6  13   -0.42    0.71
  -1   6  13   -0.14    1.03
  -1   6  13    0.61    0.61
   0   6  13    0.87    0.76
   0   6 -13    1.34    0.59
   0   6  13    2.27    1.14
   1   6  13    0.40    0.65
   1   6  13    0.48    0.75
  -1   6 -13    0.44    0.58
   2   6  13   -0.10    0.82
  -2   6 -13   -0.12    0.59
   8   0 -14    4.14    1.03
  -8   0  14    3.43    1.20
   7   0 -14    0.83    0.39
  -7   0  14   -0.09    0.39
   6   0 -14   -0.02    0.25
  -6   0  14   -0.42    0.36
   5   0 -14  125.36    5.66
  -5   0  14  135.14    5.99
  -5   0  14  131.92    5.81
   5   0 -14  141.50    5.72
   4   0 -14    1.17    0.47
  -4   0  14    1.45    0.60
  -4   0  14    2.38    0.63
   4   0 -14    1.55    0.57
  -3   0  14  162.01    6.23
   3   0 -14  167.11    6.03
   3   0 -14  161.10    6.11
  -3   0  14  166.76    6.13
   2   0 -14    0.00    0.13
  -2   0  14    0.13    0.26
  -2   0  14    0.21    0.18
   1   0 -14    1.17    0.38
   1   0 -14    0.96    0.34
  -1   0  14    1.39    0.45
  -1   0  14    0.59    0.25
   0   0 -14   13.05    1.35
   0   0 -14   14.90    1.13
  -1   0 -14  409.84   12.69
   1   0  14  398.64   12.53
   1   0  14  417.31   12.81
  -1   0 -14  404.75   12.64
   2   0  14  134.43    5.13
   2   0  14  139.34    5.39
  -2   0 -14  140.01    5.33
  -2   0 -14  133.10    5.27
  -3   0 -14   56.06    3.02
  -3   0 -14   56.45    3.07
   3   0  14   54.63    3.06
   3   0  14   55.88    2.88
  -4   0 -14  109.78    5.03
   4   0  14  108.95    5.03
  -4   0 -14  109.98    5.06
   4   0  14  110.82    4.98
   5   0  14   -0.47    0.26
  -5   0 -14   -0.02    0.28
   6   0  14   -0.37    0.36
  -6   0 -14    1.05    0.61
  -7   0 -14   20.57    2.35
   7   0  14   15.72    1.97
  -8  -1  14    0.42    0.62
   8  -1 -14    0.96    0.60
   8   1 -14    0.70    0.66
  -8   1  14    0.58    0.76
   7  -1 -14    7.17    1.28
  -7  -1  14    9.14    1.80
   7   1 -14    8.38    1.59
  -7   1  14    8.77    1.73
  -6  -1  14    3.84    1.26
   6  -1 -14    2.87    0.78
   6  -1 -14    2.47    0.69
   6   1 -14    2.27    0.91
  -6   1  14    2.76    0.89
  -5  -1  14    3.15    0.87
  -5  -1  14    2.67    0.79
   5  -1 -14    2.54    0.67
   5  -1 -14    3.07    0.70
  -5   1  14    3.11    0.81
  -5   1  14    3.67    0.89
   5   1 -14    4.60    1.01
   5   1 -14    1.20    0.54
  -4  -1  14   12.20    1.34
   4  -1 -14   11.03    1.13
  -4  -1  14   11.57    1.20
   4   1 -14   10.52    1.22
   4   1 -14   12.15    1.33
  -4   1  14    8.96    1.08
  -4   1  14   12.84    1.38
   3  -1 -14    3.06    0.61
   3  -1 -14    4.07    0.75
  -3  -1  14    3.58    0.67
  -3  -1  14    4.47    0.85
   3   1 -14    3.89    0.79
  -3   1  14    2.96    0.66
   3   1 -14    4.62    0.91
  -3   1  14    2.07    0.60
  -2  -1  14   47.76    2.38
  -2  -1  14   43.19    2.86
   2  -1 -14   47.63    2.26
   2   1 -14   42.96    2.41
   2   1 -14   49.58    2.44
  -2   1  14   44.62    2.30
   1  -1 -14    1.81    0.43
  -1  -1  14    2.20    0.50
   1  -1 -14    2.84    0.56
  -1  -1  14    1.98    0.50
  -1   1  14    2.20    0.54
   1   1 -14    1.83    0.43
   1   1 -14    2.03    0.49
  -1   1  14    2.59    0.53
   0  -1  14    6.87    0.70
   0  -1  14    6.75    0.76
   0  -1 -14    7.17    0.77
   0  -1 -14    6.32    0.71
   0   1  14    5.95    0.69
   0   1  14    4.77    0.81
   0   1 -14    6.78    0.73
   0   1 -14    6.51    0.74
   1  -1  14    6.00    0.75
   1  -1  14    6.86    0.69
  -1  -1 -14    6.93    0.76
  -1  -1 -14    6.07    0.92
   1   1  14    5.31    0.70
  -1   1 -14    6.26    0.76
  -1   1 -14    5.91    0.72
   1   1  14    5.72    1.20
  -2  -1 -14    6.09    0.79
  -2  -1 -14    5.59    0.95
   2  -1  14    5.31    0.67
   2  -1  14    4.73    0.84
  -2   1 -14    4.42    0.75
   2   1  14    4.77    0.80
   2   1  14    4.98    0.93
  -2   1 -14    3.51    0.68
   3  -1  14    1.75    0.51
  -3  -1 -14    2.80    0.75
  -3  -1 -14    2.73    0.64
   3  -1  14    2.38    0.62
  -3   1 -14    2.59    0.70
   3   1  14    3.40    0.82
   3   1  14    2.37    0.54
  -3   1 -14    2.59    0.68
   4  -1  14   14.54    1.27
  -4  -1 -14   15.45    1.61
  -4  -1 -14   15.76    1.54
   4  -1  14   13.75    1.41
  -4   1 -14   15.37    1.51
   4   1  14   14.83    1.64
  -4   1 -14   15.16    1.56
   4   1  14   10.90    1.31
   4   1  14   13.12    1.17
   5  -1  14   10.04    1.27
  -5  -1 -14    8.54    1.56
   5  -1  14   10.33    1.44
  -5   1 -14    9.77    1.59
   5   1  14    7.98    1.41
  -6  -1 -14    0.61    0.55
   6  -1  14   -0.45    0.33
   6   1  14    0.31    0.51
  -6   1 -14    0.45    0.52
   7  -1  14    1.02    0.58
  -7  -1 -14   -0.06    0.49
   7   1  14    0.37    0.55
  -7   1 -14    1.15    0.74
  -8  -2  14    5.20    1.25
   8  -2 -14    4.63    1.07
  -8   2  14    5.58    2.27
   8   2 -14    5.40    1.35
   7  -2 -14    3.75    1.01
  -7  -2  14    3.81    1.10
   7  -2 -14    6.08    1.00
   7   2 -14    5.36    1.40
  -7   2  14    5.43    1.34
   6  -2 -14    8.29    1.01
   6  -2 -14    9.42    1.14
   6   2 -14    8.50    1.57
  -5  -2  14   25.66    2.13
   5  -2 -14   21.45    1.63
  -5  -2  14   21.52    1.88
   5  -2 -14   25.95    1.68
  -5   2  14   21.51    2.40
  -5   2  14   23.52    2.06
   5   2 -14   29.32    2.27
  -4  -2  14   58.66    3.07
  -4  -2  14   60.99    3.21
   4  -2 -14   58.05    2.67
   4  -2 -14   57.32    2.75
  -4   2  14   59.25    3.08
   4   2 -14   57.99    3.27
   4   2 -14   61.70    3.39
  -4   2  14   56.34    3.23
  -3  -2  14   23.31    1.66
   3  -2 -14   19.85    1.34
   3  -2 -14   23.01    1.34
  -3  -2  14   22.14    1.53
  -3   2  14   19.78    1.49
   3   2 -14   20.49    1.66
  -3   2  14   21.97    1.68
   3   2 -14   20.72    1.69
   2  -2 -14    1.84    0.36
   2  -2 -14    1.85    0.40
  -2  -2  14    2.28    0.51
   2   2 -14    1.77    0.50
  -2   2  14    1.46    0.39
   2   2 -14    1.59    0.49
  -1  -2  14    2.12    0.44
   1  -2 -14    1.58    0.39
  -1  -2  14    1.92    0.44
   1  -2 -14    2.38    0.44
  -1   2  14    2.32    0.55
   1   2 -14    1.88    0.48
  -1   2  14    2.02    0.44
   1   2 -14    2.59    0.57
   0  -2 -14   38.47    1.84
   0  -2  14   38.20    1.73
   0  -2  14   33.32    1.74
   0  -2 -14   34.83    1.79
   0   2 -14   38.92    1.97
   0   2  14   35.79    1.92
   0   2 -14   32.98    1.92
   0   2  14   35.39    2.04
  -1  -2 -14   98.35    3.93
  -1  -2 -14  104.66    4.02
   1  -2  14  100.43    3.66
   1  -2  14  100.71    3.76
   1   2  14  108.41    4.35
  -1   2 -14  106.35    4.15
  -1   2 -14  101.25    3.99
   1   2  14  103.19    4.15
   2  -2  14   30.12    1.55
  -2  -2 -14   27.95    1.78
   2  -2  14   28.59    1.62
   2  -2  14   29.71    1.90
  -2  -2 -14   29.45    1.88
   2   2  14   29.60    1.92
  -2   2 -14   27.84    1.83
   2   2  14   28.62    2.04
  -2   2 -14   30.40    1.86
  -3  -2 -14    8.18    0.96
   3  -2  14    8.33    1.06
  -3  -2 -14    8.15    1.01
   3   2  14    9.57    1.22
  -3   2 -14    8.19    1.28
  -3   2 -14    7.83    1.01
   4  -2  14    4.83    0.84
  -4  -2 -14    4.77    1.00
   4  -2  14    4.35    0.74
  -4  -2 -14    5.82    1.13
  -4   2 -14    5.49    1.01
  -4   2 -14    5.05    1.06
   4   2  14    4.91    1.10
   4   2  14    4.67    1.05
   5  -2  14    2.19    0.63
   5  -2  14    2.84    0.58
  -5  -2 -14    2.35    0.67
   5   2  14    2.20    0.75
  -5   2 -14    1.90    0.67
   6  -2  14   12.09    1.53
   6  -2  14   11.81    1.30
  -6  -2 -14   11.19    1.83
  -6   2 -14   11.10    1.85
   6   2  14   11.39    1.94
  -7  -2 -14   23.48    2.54
   7   2  14   14.62    2.42
  -7   2 -14   21.54    2.39
  -7  -3  14   -0.01    0.57
   7   3 -14   -0.59    0.50
  -7   3  14   -0.08    0.56
  -6  -3  14    0.38    0.47
   6   3 -14    0.21    0.46
  -6   3  14    1.05    0.55
  -5  -3  14    6.20    1.15
  -5  -3  14    5.57    1.26
  -5   3  14    6.19    1.20
  -4  -3  14    0.60    0.39
  -4  -3  14    0.90    0.36
   4   3 -14    0.22    0.29
  -4   3  14   -0.73    0.30
  -3  -3  14   -0.21    0.37
   3   3 -14    0.35    0.33
  -3   3  14    0.59    0.30
  -3   3  14   -0.25    0.23
  -2  -3  14   26.23    2.51
  -2  -3  14   27.93    1.46
  -2  -3  14   29.27    1.50
   2   3 -14   28.45    1.91
  -2   3  14   27.61    1.80
   2   3 -14   29.25    1.91
  -1  -3  14   17.28    1.89
  -1   3  14   14.27    1.13
   1   3 -14   15.82    1.28
  -1   3  14   16.34    1.33
   1   3 -14   16.41    1.27
   0  -3  14    2.24    0.84
   0   3 -14    2.75    0.57
   0   3 -14    2.10    0.56
   0   3  14    4.27    0.89
   0   3  14    2.65    0.51
  -1  -3 -14    1.00    0.30
   1  -3  14    1.55    0.58
  -1  -3 -14    1.00    0.29
  -1   3 -14    1.29    0.42
   1   3  14    1.60    0.53
   1   3  14    1.95    0.48
  -2  -3 -14   15.12    1.16
  -2  -3 -14   15.48    1.12
   2   3  14   14.11    1.31
   2   3  14   15.55    1.52
  -2   3 -14   14.50    1.24
  -2   3 -14   14.02    1.23
  -3  -3 -14   17.84    1.42
  -3  -3 -14   17.77    1.37
  -3   3 -14   18.25    1.55
   3   3  14   14.72    1.93
   3   3  14   18.63    1.59
   3   3  14   17.79    1.76
  -3   3 -14   14.72    1.40
  -4  -3 -14    0.80    0.36
  -4  -3 -14    0.31    0.40
   4   3  14    0.16    0.40
  -4   3 -14    0.37    0.40
   4   3  14    0.06    0.49
  -5  -3 -14    1.70    0.71
   5   3  14    1.81    0.73
  -5   3 -14    3.45    0.95
  -6  -3 -14    0.94    0.71
  -6   3 -14    0.24    0.63
   6   3  14   -0.04    0.63
  -6  -4  14    1.08    0.71
   6   4 -14    1.09    0.62
  -6   4  14    1.77    0.84
  -5  -4  14    6.69    1.05
  -5  -4  14    8.14    1.11
  -5   4  14    9.27    1.49
   5   4 -14    8.71    1.50
   4   4 -14   36.60    2.62
  -4   4  14   36.38    2.31
  -4   4  14   39.10    2.56
  -3   4  14   46.45    2.69
  -3   4  14   44.70    2.50
   3   4 -14   50.63    2.96
   3   4 -14   46.97    2.90
   2   4 -14    0.66    0.40
   2   4 -14    0.28    0.36
  -2   4  14    0.46    0.25
  -1   4  14   50.72    2.56
   1   4 -14   56.42    2.87
   1   4 -14   57.96    2.77
  -1   4  14   51.14    2.70
   0  -4  14    5.61    1.35
   0   4  14    5.32    0.94
   0   4 -14    4.90    0.81
   0   4 -14    5.55    0.74
   0   4  14    5.91    0.88
  -1   4 -14    0.50    0.26
   1   4  14   -0.02    0.34
  -1   4 -14    0.30    0.28
   1   4  14   -0.48    0.33
  -2   4 -14   24.18    1.73
  -2   4 -14   26.50    1.78
   2   4  14   29.52    2.25
   2   4  14   27.07    2.98
   2   4  14   24.50    1.90
  -3   4 -14   41.63    2.49
   3   4  14   43.09    2.98
   3   4  14   38.19    3.55
  -3   4 -14   35.86    2.55
  -4  -4 -14    0.33    0.40
  -4  -4 -14    1.31    0.53
  -4   4 -14   -0.02    0.38
   4   4  14    0.34    0.47
  -5  -4 -14    5.07    1.00
  -5  -4 -14    1.42    0.88
  -5   4 -14    3.74    1.04
   5   4  14    4.28    1.18
  -6  -4 -14    1.72    0.94
  -6   4 -14    2.33    1.07
   6   4  14    3.10    1.11
   5   5 -14    0.87    0.58
  -4   5  14   13.16    1.55
   4   5 -14   13.29    1.67
  -3   5  14   -0.75    0.41
   3   5 -14    0.68    0.43
  -3   5  14   -0.43    0.58
  -2   5  14    1.50    0.58
   2   5 -14    2.92    0.68
   2   5 -14    0.99    0.53
  -2   5  14    2.10    0.62
  -1   5  14    1.27    0.49
   1   5 -14   -0.27    0.29
   1   5 -14    0.43    0.56
  -1   5  14    1.04    0.47
   0   5  14    2.10    1.12
   0   5 -14    2.24    0.65
   0   5  14    2.23    0.73
   0   5 -14    3.69    0.70
   0   5  14    2.15    0.68
   1   5  14   -0.56    0.48
   1   5  14    0.21    0.67
  -1   5 -14    0.83    0.46
   1   5  14   -0.06    0.39
  -1   5 -14    0.46    0.37
   2   5  14    5.91    1.07
   2   5  14    4.25    1.39
  -2   5 -14    6.27    0.98
  -2   5 -14    5.17    0.83
  -3   5 -14   -0.05    0.65
  -3   5 -14   -0.46    0.43
   3   5  14    0.40    0.71
   3   5  14    0.00    0.56
   4   5  14    4.72    1.56
  -4   5 -14    3.96    0.99
   4   5  14    4.44    1.21
  -2   6  14   -0.57    1.71
   2   6 -14    2.00    0.69
  -2   6  14    2.67    0.78
  -1   6  14   -0.31    0.56
  -1   6  14   -0.65    1.05
   0   6  14    5.87    2.40
   0   6  14    6.62    1.12
   0   6 -14    3.85    0.77
   1   6  14   51.27    3.10
  -1   6 -14   44.93    2.56
   1   6  14   40.35    6.08
  -2   6 -14    1.06    0.68
   2   6  14   -0.02    0.64
   2   6  14    1.46    1.24
  -8   0  15    0.71    0.74
   8   0 -15   -0.09    0.46
   7   0 -15    0.80    0.40
  -7   0  15   -0.52    0.46
   6   0 -15   -0.03    0.24
   5   0 -15    0.05    0.21
  -5   0  15   -0.09    0.40
   5   0 -15    0.83    0.40
  -5   0  15    0.20    0.36
   4   0 -15    0.75    0.31
  -4   0  15    0.11    0.28
  -4   0  15    0.17    0.27
   4   0 -15   -0.04    0.23
  -3   0  15    0.21    0.21
  -3   0  15   -0.08    0.12
   3   0 -15    0.13    0.17
   3   0 -15    0.15    0.23
  -2   0  15    0.01    0.16
   2   0 -15   -0.25    0.12
   2   0 -15    0.15    0.19
  -2   0  15    0.13    0.17
   1   0 -15    0.01    0.13
  -1   0  15   -0.24    0.10
  -1   0  15   -0.02    0.11
   0   0  15    0.13    0.11
   0   0  15   -0.04    0.14
   0   0 -15    0.10    0.19
   0   0 -15    0.03    0.12
   1   0  15    0.10    0.12
   1   0  15   -0.09    0.17
  -1   0 -15   -0.11    0.14
  -2   0 -15   -0.12    0.16
   2   0  15    0.06    0.19
  -2   0 -15   -0.20    0.15
   2   0  15   -0.08    0.21
  -3   0 -15   -0.24    0.23
  -3   0 -15    0.19    0.25
   3   0  15   -0.29    0.22
  -4   0 -15    0.08    0.26
   4   0  15    0.02    0.26
   4   0  15    0.67    0.29
  -4   0 -15   -0.09    0.21
   5   0  15    0.12    0.33
  -5   0 -15    0.01    0.29
  -6   0 -15    0.21    0.44
   6   0  15   -0.49    0.35
   7   0  15    0.16    0.49
  -7   0 -15    0.03    0.44
   8  -1 -15    6.56    1.32
  -8  -1  15   10.33    1.96
   8   1 -15    7.54    1.54
  -8   1  15   11.98    2.06
   7  -1 -15    1.33    0.52
  -7  -1  15    1.41    0.78
  -7   1  15    1.27    0.66
   7   1 -15    3.74    1.02
   6  -1 -15   66.69    3.78
  -6  -1  15   63.73    4.40
   6  -1 -15   73.64    3.80
   6   1 -15   80.05    4.28
  -5  -1  15   31.13    2.26
   5  -1 -15   30.54    2.17
  -5  -1  15   32.38    2.44
   5  -1 -15   34.09    2.21
  -5   1  15   27.02    2.32
  -5   1  15   30.60    2.63
   5   1 -15   33.07    2.42
  -4  -1  15    0.47    0.36
  -4  -1  15    0.44    0.32
   4  -1 -15    0.30    0.29
  -4   1  15   -0.11    0.19
   4   1 -15    0.27    0.28
   4   1 -15   -0.07    0.19
  -4   1  15    0.18    0.20
   3  -1 -15   77.53    3.43
  -3  -1  15   78.48    3.63
   3  -1 -15   79.37    3.57
  -3  -1  15   83.55    3.79
  -3   1  15   81.67    3.63
   3   1 -15   82.15    3.84
   3   1 -15   80.22    3.71
  -3   1  15   80.03    3.79
  -2  -1  15   50.25    2.62
   2  -1 -15   52.36    2.54
  -2  -1  15   48.55    2.51
   2   1 -15   53.85    2.64
  -2   1  15   49.19    2.50
  -2   1  15   49.85    2.62
   2   1 -15   50.59    2.66
  -1  -1  15   33.08    1.78
  -1  -1  15   27.42    1.73
   1  -1 -15   29.61    1.70
  -1   1  15   27.37    1.96
  -1   1  15   28.20    1.70
   1   1 -15   30.54    1.86
   0  -1 -15   45.47    2.30
   0  -1 -15   45.33    2.25
   0  -1  15   44.50    2.29
   0   1 -15   42.21    2.22
   0   1  15   44.83    2.25
   0   1 -15   47.78    2.36
   0   1  15   40.10    2.80
  -1  -1 -15   51.61    2.56
   1  -1  15   49.61    2.50
  -1  -1 -15   49.31    2.50
   1  -1  15   48.06    2.34
  -1   1 -15   49.78    2.48
  -1   1 -15   50.91    2.56
   1   1  15   48.36    2.63
   1   1  15   49.83    2.50
   2  -1  15    1.73    0.45
   2  -1  15    1.70    0.49
  -2  -1 -15    2.19    0.55
  -2  -1 -15    1.96    0.52
  -2   1 -15    2.24    0.61
   2   1  15    0.99    0.36
  -2   1 -15    0.88    0.43
   2   1  15    2.65    0.68
  -3  -1 -15   20.99    1.78
   3  -1  15   23.37    1.14
   3  -1  15   25.35    1.82
   3  -1  15   23.94    1.64
  -3  -1 -15   22.95    1.87
  -3   1 -15   23.34    1.84
   3   1  15   20.69    1.70
   3   1  15   22.67    1.92
  -3   1 -15   24.85    1.87
   4  -1  15   24.99    1.94
   4  -1  15   22.00    1.72
  -4  -1 -15   26.68    2.08
  -4  -1 -15   23.52    2.02
   4   1  15   25.65    1.65
   4   1  15   26.92    2.03
   4   1  15   22.52    2.08
  -4   1 -15   22.08    1.95
  -4   1 -15   22.90    1.98
  -5  -1 -15   12.78    1.67
   5  -1  15   16.43    1.57
   5  -1  15   16.11    1.62
  -5   1 -15   16.09    1.83
   5   1  15   19.22    2.13
  -6  -1 -15   13.08    2.05
   6  -1  15    9.99    1.90
  -6   1 -15   13.49    1.72
   6   1  15   10.40    1.79
  -7  -1 -15    0.07    0.70
   7  -1  15    0.30    0.63
  -7   1 -15    0.31    0.63
   7   1  15    2.47    0.92
  -8  -2  15    2.04    1.04
   8  -2 -15    1.17    0.72
   8   2 -15    0.86    0.75
  -8   2  15   -0.33    0.82
  -7  -2  15    0.46    0.59
   7  -2 -15    0.92    0.55
   7  -2 -15    1.33    0.94
   7   2 -15    0.97    0.56
  -7   2  15    1.64    0.75
  -6  -2  15    2.41    0.85
   6  -2 -15    2.49    0.66
   6  -2 -15    0.51    0.42
  -6   2  15    0.88    0.50
   6   2 -15    0.73    0.54
   5  -2 -15    0.93    0.42
  -5  -2  15    0.22    0.42
   5  -2 -15    0.02    0.36
  -5  -2  15    1.14    0.46
  -5   2  15    1.17    0.49
   5   2 -15    0.16    0.32
   4  -2 -15    1.63    0.46
  -4  -2  15    2.35    0.63
  -4  -2  15    1.47    0.58
   4  -2 -15    1.78    0.48
  -4   2  15    2.10    0.67
  -4   2  15    2.24    0.64
   4   2 -15    1.51    0.54
   4   2 -15    2.41    0.65
  -3  -2  15   -0.04    0.30
   3  -2 -15    0.65    0.27
   3  -2 -15    0.71    0.30
  -3  -2  15    0.66    0.33
  -3   2  15    0.68    0.36
   3   2 -15    0.96    0.38
  -3   2  15    0.70    0.37
   3   2 -15    0.54    0.32
  -2  -2  15    2.13    0.73
   2  -2 -15    1.36    0.36
   2  -2 -15    2.00    0.44
  -2  -2  15    2.27    0.51
   2   2 -15    1.36    0.42
  -2   2  15    1.77    0.50
   2   2 -15    1.62    0.49
  -2   2  15    1.83    0.47
  -1  -2  15   40.61    1.95
   1  -2 -15   37.90    1.89
  -1  -2  15   39.50    2.02
   1  -2 -15   37.35    1.89
  -1   2  15   39.41    2.07
   1   2 -15   38.30    2.18
   0  -2  15    1.20    0.29
   0  -2  15    1.18    0.33
   0  -2 -15    1.00    0.33
   0  -2 -15    1.24    0.34
   0   2  15    1.49    0.40
   0   2 -15    0.65    0.28
   0   2  15    1.23    0.46
   1  -2  15    1.81    0.37
  -1  -2 -15    1.84    0.46
  -1  -2 -15    1.92    0.53
   1  -2  15    1.35    0.39
   1   2  15    1.07    0.38
  -1   2 -15    1.92    0.52
   1   2  15    1.82    0.58
  -1   2 -15    1.65    0.46
  -2  -2 -15    0.38    0.27
   2  -2  15    0.31    0.28
   2  -2  15    0.26    0.18
   2  -2  15   -0.19    0.14
  -2  -2 -15    0.40    0.26
   2   2  15    0.17    0.27
  -2   2 -15    0.09    0.23
  -2   2 -15    0.07    0.21
   2   2  15    0.50    0.27
  -3  -2 -15    7.13    1.17
   3  -2  15    6.12    0.80
  -3  -2 -15    6.66    1.09
   3  -2  15    9.13    0.85
  -3   2 -15    9.02    1.03
  -3   2 -15    5.47    0.97
   3   2  15    5.76    1.07
   3   2  15    5.36    1.15
   3   2  15    6.97    1.09
  -4  -2 -15   -0.23    0.39
  -4  -2 -15    0.84    0.43
   4  -2  15    0.55    0.35
   4  -2  15    0.61    0.30
   4   2  15    0.22    0.38
  -4   2 -15    0.66    0.50
  -4   2 -15    0.13    0.29
   4   2  15    0.81    0.47
   5  -2  15    4.37    0.76
  -5  -2 -15    3.96    1.02
   5  -2  15    4.15    0.86
  -5   2 -15    3.51    1.00
   5   2  15    5.24    1.30
  -6  -2 -15    0.12    0.59
   6  -2  15    0.36    0.60
   6  -2  15    0.66    0.53
  -6   2 -15    0.93    0.62
   6   2  15    1.66    0.78
  -7  -2 -15    1.70    0.83
   7  -2  15    1.43    0.73
   7   2  15    2.05    1.42
  -7   2 -15    1.41    0.72
  -7  -3  15   12.78    1.88
   7   3 -15    8.83    1.75
  -7   3  15   12.07    1.90
  -6  -3  15   12.86    2.93
  -6   3  15   17.56    1.94
   6   3 -15   13.20    1.74
  -5  -3  15    1.15    0.72
  -5  -3  15    2.04    0.60
   5   3 -15    1.14    0.58
  -5   3  15    0.78    0.51
  -4  -3  15    0.97    0.43
  -4  -3  15   -0.08    0.36
  -4   3  15    0.70    0.43
  -4   3  15    0.00    0.33
   4   3 -15    0.87    0.50
  -3  -3  15   10.52    2.61
  -3  -3  15   10.99    1.06
  -3  -3  15   11.78    1.06
  -3   3  15    9.20    1.12
   3   3 -15   10.53    1.24
   3   3 -15   12.46    1.41
  -3   3  15   11.61    1.13
  -2  -3  15   27.90    2.59
  -2  -3  15   30.47    1.60
  -2  -3  15   31.10    1.61
   2   3 -15   27.56    1.96
   2   3 -15   30.02    1.98
  -2   3  15   31.24    1.97
  -1  -3  15   48.29    3.44
  -1   3  15   48.70    2.57
   1   3 -15   47.80    2.49
   1   3 -15   50.44    2.65
  -1   3  15   49.87    2.45
   0  -3  15  244.99    9.43
   0   3 -15  241.03    8.09
   0   3  15  230.31    7.96
   0   3 -15  231.86    7.90
   0   3  15  237.79    8.22
  -1  -3 -15   16.96    1.12
  -1  -3 -15   18.20    1.12
   1  -3  15   19.26    1.90
  -1   3 -15   18.22    1.36
   1   3  15   18.33    1.43
   1   3  15   17.94    1.55
  -1   3 -15   20.28    1.44
   2  -3  15    0.39    0.30
   2   3  15   -0.10    0.23
  -2   3 -15   -0.05    0.24
   2   3  15   -0.46    0.28
  -2   3 -15    0.67    0.31
  -3  -3 -15    0.32    0.32
  -3  -3 -15    1.40    0.50
   3   3  15    1.63    0.73
   3   3  15    0.44    0.43
  -3   3 -15    2.20    0.75
   3   3  15    0.96    0.78
  -3   3 -15    0.62    0.48
  -4  -3 -15   31.78    2.24
  -4  -3 -15   29.19    2.07
  -4   3 -15   28.82    2.22
   4   3  15   33.11    2.82
   4   3  15   30.64    2.62
  -5  -3 -15   16.34    1.76
   5   3  15   16.94    1.98
  -5   3 -15   17.89    2.28
  -6  -3 -15   21.56    2.29
   6   3  15   26.35    2.78
  -6   3 -15   27.19    2.60
  -6  -4  15    0.92    0.69
  -6   4  15    0.40    0.73
   6   4 -15    0.86    0.54
  -5  -4  15    0.73    0.53
  -5  -4  15   -0.71    0.53
  -5   4  15   -0.27    0.46
   5   4 -15   -0.77    0.32
  -4   4  15    0.40    0.44
   4   4 -15    0.45    0.43
  -4   4  15    0.89    0.46
  -3   4  15    0.43    0.34
  -3   4  15    0.88    0.40
   3   4 -15   -0.01    0.30
  -2   4  15    2.96    0.74
   2   4 -15    2.45    0.67
  -1   4  15    0.44    0.30
   1   4 -15    0.25    0.28
  -1   4  15    0.70    0.32
   1   4 -15    0.28    0.36
   0  -4  15    2.03    0.93
   0   4  15    2.08    0.67
   0   4 -15    1.50    0.47
   0   4 -15    3.00    0.65
   0   4  15    2.71    0.60
   1  -4  15    0.78    0.49
  -1   4 -15    0.14    0.28
   1   4  15    0.40    0.38
  -1   4 -15    0.83    0.36
   1   4  15   -0.11    0.29
  -2   4 -15    3.29    0.73
   2   4  15    1.06    0.53
   2   4  15    0.76    0.78
  -2   4 -15    1.13    0.46
   2   4  15    2.16    0.78
  -3   4 -15   14.01    1.48
   3   4  15   15.41    1.77
   3   4  15   14.51    2.17
  -3   4 -15   12.06    1.34
  -4  -4 -15    3.87    0.76
  -4  -4 -15    2.92    0.68
   4   4  15    4.71    1.33
  -4   4 -15    3.59    0.94
   4   4  15    3.44    1.02
  -5  -4 -15    0.83    0.66
   5   4  15    0.50    0.68
  -5   4 -15   -0.15    0.60
   5   5 -15   -0.02    0.66
  -5   5  15    1.24    0.74
  -4   5  15    1.36    0.75
   4   5 -15    1.79    0.78
  -3   5  15    0.34    0.55
   3   5 -15    2.05    0.70
  -3   5  15    1.33    0.74
  -2   5  15   27.86    2.51
  -2   5  15   32.16    2.16
   2   5 -15   33.69    2.27
   1   5 -15   15.65    1.55
  -1   5  15   16.27    1.56
  -1   5  15   18.02    1.45
   0   5  15   15.52    1.43
   0   5 -15   13.99    1.40
   0   5 -15   16.15    1.34
   0   5  15   14.48    1.52
   0   5  15   10.77    2.61
   1   5  15    4.83    1.74
  -1   5 -15    2.39    0.81
  -1   5 -15    4.62    0.82
   1   5  15    4.04    0.95
   1   5  15    5.05    1.04
   2   5  15    1.90    0.73
   2   5  15   -0.27    0.53
  -2   5 -15    0.37    0.37
  -3   5 -15    7.00    1.18
   3   5  15    7.63    1.47
   3   5  15    7.24    1.99
  -4   5 -15    2.96    0.98
   4   5  15    1.60    1.19
   4   5  15    4.74    1.30
  -2   6  15    2.28    1.14
  -2   6  15    2.82    0.91
   2   6 -15    3.55    0.81
  -1   6  15    0.03    0.66
  -1   6  15    0.97    1.09
   1   6 -15    0.99    0.63
   0   6  15   -0.20    0.59
   0   6  15    0.82    1.21
   0   6 -15   -0.22    0.55
   1   6  15    5.53    1.72
  -1   6 -15    6.85    1.08
   1   6  15    9.77    1.43
   8   0 -16    3.71    1.12
  -8   0  16    5.65    1.53
  -7   0  16    9.93    1.75
   7   0 -16    9.37    1.60
  -6   0  16   -0.60    0.40
   6   0 -16    2.19    0.69
   5   0 -16   20.50    1.76
  -5   0  16   18.75    1.87
   5   0 -16   18.32    1.80
  -4   0  16   49.45    3.00
  -4   0  16   45.97    2.77
   4   0 -16   45.50    2.81
   4   0 -16   48.07    2.74
   3   0 -16  227.02    8.21
  -3   0  16  239.22    8.40
  -3   0  16  236.02    8.26
  -2   0  16   23.42    1.64
   2   0 -16   25.88    1.69
   2   0 -16   26.97    1.79
  -2   0  16   26.20    1.81
  -1   0  16    3.71    0.68
  -1   0  16    5.10    0.86
   1   0 -16    5.52    0.86
   1   0 -16    3.96    0.70
   0   0  16    0.40    0.25
   0   0 -16    0.93    0.37
   0   0 -16    0.67    0.33
   0   0  16    0.59    0.32
  -1   0 -16   10.27    1.02
   1   0  16    9.20    1.04
  -1   0 -16   11.58    1.09
   1   0  16   11.28    1.03
  -2   0 -16    0.30    0.30
  -2   0 -16    0.35    0.31
   2   0  16    0.99    0.46
   2   0  16    0.39    0.27
  -3   0 -16  347.04   11.37
   3   0  16  327.90   11.03
   3   0  16  341.96   11.43
  -3   0 -16  308.76   11.16
  -4   0 -16   11.69    1.36
   4   0  16   13.23    1.47
   4   0  16   10.18    1.18
  -4   0 -16    8.49    1.46
  -5   0 -16   -0.43    0.26
   5   0  16   -0.54    0.25
   6   0  16   62.86    3.98
  -6   0 -16   60.31    4.06
  -7   0 -16    0.85    0.60
   7   0  16    0.61    0.59
  -8  -1  16    5.00    1.42
   8  -1 -16    2.98    0.85
   8   1 -16    2.65    1.10
  -8   1  16    5.82    1.99
  -7  -1  16    0.91    0.64
   7  -1 -16   -0.09    0.25
  -7   1  16   -0.02    0.44
   7   1 -16   -0.48    0.45
   6  -1 -16   14.36    1.48
  -6  -1  16   15.61    1.80
   6   1 -16   11.28    1.82
  -6   1  16   14.20    1.75
  -5  -1  16    1.73    0.69
   5  -1 -16    0.82    0.46
  -5  -1  16    1.60    0.58
  -5   1  16    1.11    0.64
   5   1 -16    1.10    0.52
   4  -1 -16    1.19    0.44
   4  -1 -16    1.42    0.51
  -4  -1  16    0.45    0.34
  -4  -1  16    0.65    0.33
   4   1 -16    0.88    0.43
   4   1 -16    1.63    0.55
  -4   1  16    0.67    0.41
   3  -1 -16   10.38    1.02
  -3  -1  16   10.00    1.15
  -3  -1  16    9.65    1.07
   3  -1 -16    8.96    1.00
   3   1 -16    8.93    1.07
  -3   1  16    9.36    1.04
   3   1 -16    7.97    0.99
  -3   1  16    8.38    1.05
  -2  -1  16    3.59    0.74
   2  -1 -16    3.70    0.68
   2  -1 -16    3.95    0.69
  -2  -1  16    3.27    0.67
  -2   1  16    3.89    0.70
   2   1 -16    4.08    0.78
   2   1 -16    2.60    0.60
  -2   1  16    4.32    0.83
   1  -1 -16   52.38    2.53
  -1  -1  16   48.49    2.42
  -1  -1  16   47.21    2.62
  -1   1  16   52.12    2.52
  -1   1  16   49.65    2.61
   1   1 -16   51.05    2.61
   1   1 -16   47.82    2.48
   0  -1 -16   17.63    1.34
   0  -1 -16   17.74    1.65
   0  -1  16   18.38    1.51
   0  -1  16   18.81    1.31
   0   1  16   17.93    1.44
   0   1 -16   18.76    1.38
   0   1  16   17.32    1.32
   0   1 -16   19.57    1.42
   1  -1  16    1.33    0.38
   1  -1  16    2.56    0.60
  -1  -1 -16    1.99    0.52
  -1  -1 -16    2.46    0.58
  -1   1 -16    1.67    0.47
  -1   1 -16    2.32    0.54
   1   1  16    1.64    0.43
   1   1  16    1.56    0.54
   2  -1  16    2.61    0.65
  -2  -1 -16    2.29    0.59
  -2  -1 -16    1.99    0.55
   2  -1  16    2.55    0.54
  -2   1 -16    2.91    0.65
  -2   1 -16    2.08    0.56
   2   1  16    2.40    0.70
   2   1  16    2.25    0.57
  -3  -1 -16    0.62    0.32
   3  -1  16    0.07    0.20
   3  -1  16    0.29    0.18
  -3  -1 -16   -0.17    0.22
   3   1  16    0.17    0.24
   3   1  16    0.65    0.43
  -3   1 -16    1.31    0.46
  -3   1 -16    1.15    0.48
  -4  -1 -16    0.74    0.45
   4  -1  16    0.84    0.43
   4  -1  16    1.34    0.58
  -4  -1 -16    0.78    0.36
   4   1  16    1.56    0.50
  -4   1 -16    0.92    0.44
   4   1  16    1.94    0.65
  -4   1 -16    1.50    0.62
   4   1  16    0.36    0.52
   5  -1  16    0.39    0.46
   5  -1  16    1.69    0.60
   5   1  16    1.78    0.77
  -5   1 -16    1.24    0.72
  -6  -1 -16   -0.22    0.56
   6  -1  16    0.21    0.46
  -6   1 -16    0.51    0.52
   6   1  16   -0.66    0.34
  -7  -1 -16    5.76    1.56
   7  -1  16    4.14    1.14
   7   1  16    4.40    1.32
  -7   1 -16    4.88    1.30
   8  -2 -16    7.50    1.32
   8   2 -16    6.09    1.40
  -8   2  16    3.76    1.32
  -7  -2  16   23.73    2.39
   7  -2 -16   17.65    2.30
   7  -2 -16   24.33    1.98
   7   2 -16   22.71    2.40
  -7   2  16   23.22    2.47
   6  -2 -16    4.91    0.88
   6  -2 -16    4.49    0.93
  -6  -2  16    5.27    1.22
   6   2 -16    2.84    0.90
  -6   2  16    3.96    1.05
   5  -2 -16   39.86    2.26
  -5  -2  16   42.87    2.83
  -5  -2  16   35.03    2.61
   5  -2 -16   38.24    2.29
   5   2 -16   41.08    2.88
  -5   2  16   40.25    2.86
   4  -2 -16    7.37    0.84
  -4  -2  16    7.51    1.16
   4  -2 -16    7.06    0.89
  -4  -2  16    6.06    1.06
   4   2 -16    6.99    1.27
  -4   2  16    7.94    1.33
   4   2 -16    6.72    1.23
  -4   2  16    5.87    1.01
  -3  -2  16   58.21    2.93
  -3  -2  16   58.63    3.01
   3  -2 -16   57.58    3.13
   3   2 -16   61.80    3.17
   3   2 -16   56.67    3.16
  -3   2  16   55.37    2.90
  -3   2  16   60.60    3.19
   2  -2 -16   49.97    2.38
  -2  -2  16   53.14    2.60
  -2  -2  16   50.00    2.50
   2  -2 -16   50.41    2.31
   2   2 -16   50.89    2.69
   2   2 -16   49.58    2.72
  -2   2  16   50.62    2.71
  -2   2  16   47.77    2.51
  -1  -2  16   10.06    0.91
   1  -2 -16    8.85    0.81
  -1  -2  16    8.52    0.83
   1  -2 -16    8.34    0.81
  -1   2  16    8.62    0.99
  -1   2  16    9.01    0.89
   1   2 -16    8.31    0.97
   1   2 -16    7.67    0.89
   0  -2  16   33.51    1.74
   0  -2 -16   33.26    1.86
   0  -2 -16   33.41    1.85
   0  -2  16   32.23    1.81
   0   2 -16   32.29    1.96
   0   2  16   36.26    2.02
   0   2  16   35.84    2.16
   0   2 -16   34.32    1.97
  -1  -2 -16   13.82    1.16
   1  -2  16   13.52    0.99
  -1  -2 -16   12.96    1.10
   1  -2  16   12.62    1.06
   1   2  16   12.59    1.16
  -1   2 -16   13.50    1.18
  -1   2 -16   11.49    1.14
   1   2  16   14.45    1.35
   2  -2  16   50.85    2.47
  -2  -2 -16   52.00    2.74
  -2  -2 -16   51.17    2.65
   2  -2  16   48.12    2.66
   2  -2  16   52.98    2.51
  -2   2 -16   52.12    2.79
  -2   2 -16   51.58    2.72
   2   2  16   50.30    2.79
   2   2  16   50.16    2.96
  -3  -2 -16   31.21    2.19
   3  -2  16   36.46    2.08
   3  -2  16   36.38    1.98
  -3  -2 -16   35.81    2.38
   3   2  16   35.37    2.35
  -3   2 -16   38.13    2.40
   3   2  16   39.03    2.67
  -3   2 -16   34.99    2.99
   4  -2  16    2.69    0.56
   4  -2  16    4.58    0.84
  -4  -2 -16    2.08    0.69
  -4  -2 -16    4.64    0.86
   4   2  16    2.68    0.82
   4   2  16    3.71    0.95
  -4   2 -16    3.97    0.88
   5  -2  16    1.60    0.63
   5  -2  16    0.80    0.47
  -5  -2 -16    1.35    0.88
  -5   2 -16    0.58    0.81
   5   2  16    0.16    0.41
   6  -2  16   -0.24    0.66
  -6  -2 -16    0.26    0.47
   6  -2  16    0.98    0.53
   6   2  16    1.12    0.67
  -6   2 -16    0.68    0.55
   7  -2  16    4.46    1.08
  -7  -2 -16    2.37    1.10
  -7   2 -16    3.78    1.30
   7   2  16    4.33    1.41
  -7  -3  16   -0.02    0.64
   7   3 -16   -0.74    0.59
  -7   3  16    0.30    0.88
  -6  -3  16    2.21    0.75
  -6   3  16    2.16    0.93
   6   3 -16    2.75    0.98
  -5  -3  16    5.69    1.08
  -5  -3  16    4.64    0.98
   5   3 -16    5.76    1.23
  -5   3  16    6.30    1.27
  -4  -3  16    1.40    0.49
  -4  -3  16    2.22    0.62
   4   3 -16    1.31    0.52
  -4   3  16    1.76    0.58
  -4   3  16    1.82    0.51
  -3  -3  16    0.14    0.32
  -3  -3  16    0.86    0.40
  -3   3  16    0.24    0.25
   3   3 -16    1.33    0.44
  -3   3  16    1.06    0.43
  -2  -3  16    9.65    1.50
  -2  -3  16    9.48    0.87
  -2  -3  16   10.80    0.91
   2   3 -16   10.00    1.11
  -2   3  16    9.91    1.07
   2   3 -16   12.25    1.27
  -1  -3  16    0.97    0.53
  -1  -3  16    1.52    0.30
  -1  -3  16    1.16    0.29
  -1   3  16    0.93    0.37
  -1   3  16    0.86    0.40
   1   3 -16    1.58    0.38
   0  -3 -16    0.27    0.16
   0  -3  16   -0.27    0.32
   0  -3 -16    0.23    0.15
   0   3  16    0.25    0.24
   0   3  16    0.02    0.24
   0   3 -16   -0.40    0.22
   0   3 -16   -0.36    0.17
  -1  -3 -16   -0.38    0.16
   1  -3  16    0.22    0.34
  -1  -3 -16    0.12    0.22
   1   3  16   -0.04    0.25
  -1   3 -16    0.64    0.31
  -1   3 -16    0.27    0.22
  -2  -3 -16    0.38    0.33
  -2  -3 -16    0.14    0.28
   2  -3  16    0.89    0.48
  -2   3 -16    0.11    0.29
   2   3  16   -0.56    0.23
  -2   3 -16   -0.24    0.20
   2   3  16    0.21    0.37
  -3  -3 -16    0.39    0.40
  -3  -3 -16    1.39    0.52
  -3   3 -16    0.00    0.35
   3   3  16    0.24    0.41
   3   3  16    0.60    0.49
  -3   3 -16    0.59    0.45
  -4  -3 -16    4.96    0.96
   4   3  16    3.84    1.19
  -4   3 -16    3.71    0.90
   4   3  16    3.24    1.04
  -5  -3 -16   -0.57    0.39
  -5   3 -16    0.69    0.50
   5   3  16    0.56    0.62
  -6  -3 -16    0.73    0.70
  -6   3 -16   -0.31    0.56
   6   3  16   -0.29    0.51
  -6  -4  16    2.26    0.87
  -6   4  16    0.18    0.70
   6   4 -16    2.51    0.90
  -5  -4  16   31.18    2.04
   5   4 -16   34.27    2.69
  -5   4  16   29.66    2.46
   4   4 -16   12.54    2.25
  -4   4  16   13.62    1.53
  -3   4  16   59.07    3.40
   3   4 -16   56.88    3.30
  -3   4  16   59.38    3.23
  -2   4  16    0.08    0.31
   2   4 -16   -0.50    0.35
   2   4 -16    0.73    0.40
  -1   4  16   14.33    1.21
  -1   4  16   13.78    1.31
   1   4 -16   14.49    1.37
   0   4  16    3.12    0.74
   0   4 -16    3.28    0.72
   0   4  16    4.26    0.86
   0   4 -16    4.06    0.73
   1  -4  16   30.49    2.80
  -1   4 -16   26.76    1.90
  -1   4 -16   28.51    1.87
   1   4  16   31.05    2.04
   1   4  16   28.18    2.21
  -2   4 -16   32.36    2.37
   2   4  16   31.23    2.49
   2   4  16   32.12    3.39
  -2   4 -16   34.44    2.18
   3   4  16    4.93    1.18
  -3   4 -16    4.64    1.00
   3   4  16    3.56    2.31
  -3   4 -16    4.42    0.83
  -4  -4 -16    0.43    0.60
  -4  -4 -16    1.95    0.65
   4   4  16    1.08    0.78
  -4   4 -16    1.21    0.71
   4   4  16    3.17    1.26
  -5  -4 -16   -0.14    0.61
   5   4  16    0.30    0.75
  -5   4 -16   -0.01    0.61
  -5   5  16    3.57    1.11
   5   5 -16    3.30    1.05
  -4   5  16    1.10    0.71
   4   5 -16    1.19    0.62
   3   5 -16    1.97    0.69
  -3   5  16    2.47    0.80
  -2   5  16    7.92    1.21
  -2   5  16    6.72    1.10
   2   5 -16    8.72    1.10
  -1   5  16    1.14    0.60
  -1   5  16    0.59    0.56
   1   5 -16    1.19    0.62
   0   5 -16    2.42    0.69
   0   5  16    2.23    0.73
   0   5 -16    2.10    0.74
   0   5  16    3.44    0.84
   0   5  16    2.82    1.27
   1   5  16    0.63    0.67
  -1   5 -16   -0.97    0.52
  -1   5 -16   -0.18    0.36
   1   5  16    0.45    0.45
   2   5  16    6.09    1.32
  -2   5 -16    3.62    0.91
  -2   5 -16    4.07    0.79
   2   5  16    7.93    2.16
  -3   5 -16    1.34    0.75
   3   5  16    4.71    1.56
   3   5  16    2.63    0.96
   4   5  16    2.40    1.60
   4   5  16    1.59    0.97
  -4   5 -16   -0.01    0.68
  -2   6  16    1.14    0.78
  -2   6  16    2.50    1.44
  -1   6  16   10.93    2.84
  -1   6  16    9.92    1.43
   1   6 -16    7.30    1.16
   0   6  16    4.92    1.11
   0   6 -16    2.67    0.83
   0   6  16    5.33    2.36
   1   6  16    5.07    1.31
  -1   6 -16    5.58    0.98
   8   0 -17    0.53    0.49
   7   0 -17    0.00    0.33
  -7   0  17   -1.04    0.44
  -6   0  17    0.63    0.43
   5   0 -17   -0.09    0.43
  -5   0  17    0.04    0.30
   5   0 -17   -0.29    0.13
  -4   0  17   -0.37    0.23
   4   0 -17   -0.15    0.23
  -4   0  17    0.54    0.30
   4   0 -17   -0.07    0.20
   3   0 -17   -0.44    0.17
   3   0 -17    0.40    0.30
  -3   0  17   -0.10    0.18
  -3   0  17    0.29    0.26
   2   0 -17   -0.11    0.15
  -2   0  17   -0.13    0.21
  -2   0  17   -0.05    0.18
   2   0 -17    0.05    0.15
   1   0 -17   -0.11    0.13
  -1   0  17    0.03    0.09
  -1   0  17    0.06    0.19
   1   0 -17   -0.23    0.12
   0   0 -17    0.17    0.15
   0   0 -17    0.28    0.26
   0   0  17   -0.03    0.17
   0   0  17   -0.29    0.11
   1   0  17    0.10    0.15
   1   0  17    0.18    0.17
  -1   0 -17   -0.09    0.11
  -1   0 -17    0.20    0.23
   2   0  17    0.53    0.26
   2   0  17    0.26    0.22
  -2   0 -17    0.00    0.18
   3   0  17    0.11    0.31
   3   0  17    0.10    0.26
  -3   0 -17    0.02    0.28
  -3   0 -17   -0.10    0.33
  -4   0 -17    0.10    0.32
   4   0  17   -0.02    0.24
   5   0  17   -0.45    0.33
  -5   0 -17   -0.37    0.36
   6   0  17    0.46    0.56
  -6   0 -17   -0.19    0.45
  -7   0 -17    0.28    0.51
   7   0  17    0.15    0.64
  -8   1  17    2.28    1.33
  -7  -1  17    6.03    1.34
   7   1 -17    5.07    1.14
  -7   1  17    4.86    1.23
  -6  -1  17   36.78    2.96
  -6   1  17   37.90    3.03
   6   1 -17   43.45    3.04
   5  -1 -17   14.37    1.50
   5  -1 -17   12.14    1.30
  -5  -1  17   17.90    1.79
   5   1 -17   13.31    1.52
  -5   1  17   12.88    1.55
  -4  -1  17   44.45    2.80
   4  -1 -17   41.89    2.55
   4  -1 -17   44.33    2.50
  -4   1  17   40.52    2.59
  -4   1  17   40.22    2.73
   4   1 -17   38.69    2.66
   4   1 -17   42.75    2.70
  -3  -1  17    3.86    0.88
   3  -1 -17    3.70    0.72
   3  -1 -17    4.51    0.81
  -3  -1  17    3.09    0.69
   3   1 -17    3.81    0.84
   3   1 -17    2.43    0.67
  -3   1  17    2.96    0.79
  -3   1  17    2.15    0.60
   2  -1 -17   20.91    1.54
   2  -1 -17   21.66    1.50
  -2  -1  17   19.76    1.51
  -2  -1  17   22.06    1.65
  -2   1  17   19.78    1.60
  -2   1  17   22.63    1.60
   2   1 -17   22.58    1.70
  -1  -1  17   58.71    2.86
   1  -1 -17   53.36    2.71
  -1  -1  17   53.70    2.68
   1  -1 -17   55.42    2.69
   1   1 -17   63.68    2.89
  -1   1  17   56.31    2.77
  -1   1  17   59.08    2.95
   0  -1 -17  241.57    8.16
   0  -1 -17  230.84    8.01
   0  -1  17  240.43    7.99
   0  -1  17  244.41    8.17
   0   1  17  240.72    8.11
   0   1 -17  249.16    8.15
   0   1 -17  234.33    8.16
   0   1  17  233.62    8.31
   1  -1  17    3.12    0.60
  -1  -1 -17    3.22    0.69
  -1  -1 -17    3.27    0.65
   1  -1  17    3.05    0.69
   1   1  17    2.07    0.53
   1   1  17    3.34    0.78
  -1   1 -17    2.59    0.66
   2  -1  17    5.78    0.97
  -2  -1 -17    8.05    1.01
  -2  -1 -17    5.67    0.99
   2  -1  17    6.52    0.80
   2   1  17    6.38    1.14
   2   1  17    7.08    0.90
  -2   1 -17    5.72    0.99
  -2   1 -17    7.79    0.97
  -3  -1 -17    8.89    1.40
  -3  -1 -17    5.62    1.03
   3  -1  17    7.12    0.91
   3  -1  17    8.01    0.65
   3  -1  17    6.95    1.15
  -3   1 -17    8.20    1.07
  -3   1 -17    6.16    1.66
   3   1  17    6.66    1.15
   3   1  17    5.30    1.10
   4  -1  17    0.76    0.36
  -4  -1 -17    0.65    0.50
   4  -1  17    0.57    0.35
  -4  -1 -17    0.14    0.41
   4   1  17    0.26    0.31
  -4   1 -17   -0.16    0.32
   4   1  17   -0.11    0.33
  -5  -1 -17   28.57    2.47
   5  -1  17   27.85    2.24
  -5   1 -17   24.88    2.32
   5   1  17   26.47    2.51
   6  -1  17   13.31    1.59
  -6  -1 -17   10.29    1.78
  -6   1 -17   15.36    1.96
   6   1  17   12.46    2.06
   7  -1  17    6.80    1.40
  -7  -1 -17    9.56    1.84
  -7   1 -17    9.31    1.76
   7   1  17    5.36    1.31
  -7  -2  17    5.51    1.33
   7  -2 -17    3.72    0.84
   7   2 -17    4.90    1.12
  -7   2  17    5.87    1.34
  -6  -2  17    0.26    0.56
   6  -2 -17    0.68    0.37
   6   2 -17    0.19    0.37
  -6   2  17    0.69    0.60
   5  -2 -17    0.08    0.29
  -5  -2  17    0.71    0.32
  -5  -2  17    0.93    0.62
   5  -2 -17   -0.21    0.36
  -5   2  17   -0.02    0.32
   5   2 -17   -0.15    0.27
   4  -2 -17    1.04    0.40
  -4  -2  17    2.15    0.48
   4  -2 -17    1.32    0.52
  -4  -2  17    2.18    0.68
  -4   2  17    2.31    0.70
   4   2 -17    0.99    0.40
  -4   2  17    2.44    0.58
   4   2 -17    0.91    0.49
   3  -2 -17    0.82    0.41
   3  -2 -17    0.55    0.26
  -3  -2  17    0.78    0.43
  -3  -2  17    0.65    0.31
  -3   2  17    0.39    0.30
   3   2 -17    0.20    0.30
   3   2 -17    0.96    0.60
  -3   2  17    0.14    0.28
  -2  -2  17    0.87    0.32
   2  -2 -17    0.38    0.27
  -2  -2  17    0.94    0.39
  -2   2  17    0.47    0.24
   2   2 -17    0.21    0.22
   2   2 -17    0.43    0.28
  -2   2  17    0.85    0.44
  -1  -2  17    2.86    0.56
   1  -2 -17    2.27    0.49
   1  -2 -17    3.15    0.60
   1   2 -17    3.74    0.73
  -1   2  17    3.01    0.68
  -1   2  17    1.64    0.47
   1   2 -17    3.20    0.66
   0  -2  17    1.56    0.39
   0  -2  17    1.50    0.46
   0  -2 -17    2.96    0.60
   0   2  17    2.28    0.59
   0   2 -17    1.65    0.47
   0   2  17    1.65    0.43
   0   2 -17    1.40    0.44
   1  -2  17    2.19    0.45
   1  -2  17    1.83    0.47
  -1  -2 -17    2.22    0.51
  -1  -2 -17    2.14    0.57
  -1   2 -17    1.52    0.51
   1   2  17    2.50    0.67
  -1   2 -17    2.40    0.59
   1   2  17    1.64    0.50
   2  -2  17    4.92    0.77
  -2  -2 -17    4.69    0.85
   2  -2  17    3.86    0.71
  -2  -2 -17    5.78    0.98
   2  -2  17    4.95    0.65
   2   2  17    3.80    0.86
   2   2  17    5.07    0.90
  -2   2 -17    4.28    0.87
  -2   2 -17    3.60    0.75
  -3  -2 -17   -0.01    0.25
   3  -2  17    0.22    0.27
  -3  -2 -17   -0.63    0.25
   3  -2  17    0.01    0.19
   3   2  17    0.01    0.30
  -3   2 -17   -0.04    0.34
  -3   2 -17    0.20    0.28
   3   2  17    0.47    0.35
   4  -2  17    1.22    0.50
   4  -2  17    1.28    0.48
  -4  -2 -17    1.45    0.59
  -4  -2 -17    0.44    0.46
   4   2  17    0.82    0.56
   4   2  17    1.50    0.71
  -4   2 -17    0.86    0.51
   5  -2  17    5.33    1.03
  -5  -2 -17    7.66    1.44
   5  -2  17    4.83    0.89
  -5   2 -17    5.38    1.17
   5   2  17    4.13    1.12
  -6  -2 -17    0.40    0.47
   6  -2  17    0.55    0.48
   6  -2  17    0.24    0.78
  -6   2 -17    0.28    0.58
   6   2  17    0.14    0.56
  -7  -2 -17    6.02    2.08
   7  -2  17    2.25    0.95
  -7   2 -17    1.96    1.24
   7   2  17    5.04    1.38
  -7  -3  17    4.62    1.27
  -7   3  17    3.09    1.16
  -6  -3  17   11.47    1.77
  -6   3  17   12.08    1.93
   6   3 -17   13.67    2.10
  -5  -3  17   35.04    2.47
  -5  -3  17   31.16    2.32
  -5   3  17   35.57    2.69
   5   3 -17   36.09    2.75
  -4  -3  17   13.51    1.33
  -4  -3  17   12.31    1.26
   4   3 -17   10.88    1.39
  -4   3  17   11.07    1.37
  -4   3  17   11.66    1.13
  -3  -3  17    9.55    0.95
  -3  -3  17   10.63    1.05
   3   3 -17    9.16    1.15
   3   3 -17    8.55    1.12
  -3   3  17    9.16    1.12
  -3   3  17    8.68    1.12
  -2  -3  17    6.80    0.70
  -2  -3  17    5.75    0.69
  -2  -3  17    5.10    1.34
  -2   3  17    5.82    0.98
   2   3 -17    4.08    0.78
   2   3 -17    5.71    1.01
  -1  -3  17    1.43    0.34
  -1  -3  17    1.43    0.35
  -1  -3  17    1.45    0.55
   1   3 -17    0.69    0.32
  -1   3  17    0.88    0.36
  -1   3  17    1.71    0.46
   0  -3  17   16.90    1.88
   0  -3 -17   15.06    0.98
   0  -3 -17   15.45    0.98
   0   3 -17   14.01    1.26
   0   3  17   14.05    1.27
   0   3 -17   15.66    1.37
   0   3  17   15.17    1.41
  -1  -3 -17   87.91    3.48
  -1  -3 -17   90.95    3.54
   1  -3  17   85.38    4.65
   1   3  17   86.67    3.95
  -1   3 -17   91.66    3.87
  -1   3 -17   90.55    3.96
   1   3  17   87.64    4.22
   2  -3  17   34.38    2.62
  -2  -3 -17   38.55    2.19
  -2  -3 -17   38.18    2.11
  -2   3 -17   36.75    2.31
  -2   3 -17   43.18    2.43
   2   3  17   34.85    2.34
   2   3  17   38.07    2.63
  -3  -3 -17   10.63    1.15
  -3  -3 -17   10.95    1.24
   3   3  17   11.44    1.49
  -3   3 -17   11.38    1.29
   3   3  17    9.17    1.81
  -3   3 -17   12.10    1.28
  -4  -3 -17   10.38    1.37
  -4  -3 -17   13.30    1.45
   4   3  17    9.45    1.85
   4   3  17   12.43    1.64
  -4   3 -17   11.56    1.44
  -5  -3 -17    1.69    0.77
  -5   3 -17    1.77    0.79
   5   3  17    2.47    0.94
  -6  -3 -17   32.29    2.79
   6   3  17   33.56    3.27
  -6   3 -17   32.14    3.00
  -6  -4  17    7.95    1.33
  -6   4  17    6.51    1.40
   6   4 -17    4.49    1.24
  -5  -4  17    1.23    0.59
  -5  -4  17   -0.17    0.60
   5   4 -17    0.67    0.49
  -4  -4  17    3.76    0.64
   4   4 -17    5.71    1.18
  -4   4  17    5.34    1.06
  -3   4  17    7.57    0.98
   3   4 -17    6.31    1.14
  -3   4  17    7.39    1.24
  -2   4  17    7.73    1.18
   2   4 -17    5.89    1.03
   2   4 -17    7.82    1.24
   1   4 -17    1.72    0.66
  -1   4  17    0.94    0.41
  -1   4  17    0.41    0.43
   0   4 -17    0.29    0.32
   0   4  17    0.90    0.50
   0   4  17    0.56    0.41
   0   4 -17    0.69    0.46
   1   4  17    0.28    0.47
  -1   4 -17   -0.39    0.25
   1   4  17   -0.51    0.36
  -1   4 -17   -0.10    0.41
   2   4  17    2.71    0.84
  -2   4 -17    2.61    0.71
   2   4  17    2.74    1.48
  -2   4 -17    3.70    0.81
  -3  -4 -17    0.38    0.39
   3   4  17    0.03    0.53
  -3   4 -17    0.41    0.36
  -4  -4 -17    0.68    0.58
  -4  -4 -17    0.60    0.51
   4   4  17   -0.63    0.49
  -4   4 -17    1.05    0.57
   4   4  17    0.19    0.73
  -5  -4 -17    7.36    1.23
   5   4  17    4.54    1.39
  -5   4 -17    3.88    1.13
  -4   5  17   16.56    1.84
   4   5 -17   17.62    1.96
  -3   5  17   10.85    1.44
   2   5 -17    0.36    0.44
  -2   5  17   -0.25    0.47
  -2   5  17   -0.57    0.59
  -1   5  17   11.68    1.32
  -1   5  17   12.37    1.41
   1   5 -17   15.75    1.43
   1   5 -17    9.65    2.16
   0   5 -17   14.59    1.62
   0   5  17   20.41    1.85
   0   5 -17   19.83    1.61
   0   5  17   14.37    2.36
  -1   5 -17   14.54    1.49
   1   5  17   13.56    1.68
   1   5  17    8.89    2.22
  -1   5 -17   11.83    1.30
   2   5  17    4.80    1.57
  -2   5 -17    9.34    1.20
   3   5  17    0.79    0.79
   3   5  17   -0.60    0.63
  -3   5 -17    0.00    0.56
   4   5  17    6.36    1.50
   4   5  17    5.25    1.52
  -4   5 -17    5.91    1.22
   1   6 -17    4.02    0.84
  -1   6  17    2.42    0.83
  -1   6  17    1.63    1.44
   0   6  17    4.69    1.15
   0   6  17    4.53    1.66
   0   6 -17    4.54    0.91
   1   6  17    1.89    1.49
   8   0 -18    9.82    1.82
  -8   0  18    9.59    2.24
   7   0 -18   44.91    3.23
  -7   0  18   45.93    3.55
  -6   0  18    1.35    0.58
   6   0 -18    0.55    0.43
  -5   0  18   35.42    2.72
   5   0 -18   34.14    2.45
   4   0 -18   32.02    2.18
  -4   0  18   26.82    2.22
  -4   0  18   29.14    2.14
   3   0 -18    9.94    1.09
  -3   0  18    6.58    1.12
  -3   0  18    9.95    1.08
   3   0 -18    7.79    1.25
  -2   0  18  120.05    4.79
  -2   0  18  116.26    4.90
   2   0 -18  116.89    4.88
   2   0 -18  111.19    4.64
   1   0 -18   82.98    3.61
  -1   0  18   82.14    3.74
   1   0 -18   77.34    3.65
   0   0 -18    0.18    0.21
   0   0  18    0.31    0.24
   0   0  18    0.10    0.25
   0   0 -18    0.12    0.22
  -1   0 -18   -0.05    0.12
   1   0  18   -0.05    0.18
  -1   0 -18    0.29    0.21
   1   0  18   -0.02    0.14
  -2   0 -18   22.89    1.78
  -2   0 -18   23.25    1.81
   2   0  18   21.68    1.64
   2   0  18   19.08    1.71
  -3   0 -18   29.59    2.23
  -3   0 -18   30.01    2.26
   3   0  18   31.40    2.33
   3   0  18   26.06    2.14
  -4   0 -18   47.37    3.12
   4   0  18   47.48    3.11
   4   0  18   43.96    2.86
  -5   0 -18   17.29    1.95
   5   0  18   13.76    2.21
   6   0  18    1.10    0.57
  -6   0 -18   -0.60    0.35
   7   0  18    3.30    1.11
  -8  -1  18    0.22    0.86
   8   1 -18    1.82    0.76
  -8   1  18   -0.57    0.69
  -7  -1  18    0.82    0.60
   7   1 -18    1.87    0.76
  -7   1  18    1.88    0.92
  -6  -1  18    6.81    1.44
   6   1 -18    4.22    1.09
  -6   1  18    5.99    1.36
   5  -1 -18    3.30    0.79
  -5  -1  18    2.05    0.71
   5  -1 -18    1.80    0.67
   5   1 -18    2.22    0.74
  -5   1  18    2.59    0.82
   4  -1 -18   18.38    1.54
  -4  -1  18   19.55    1.63
   4  -1 -18   15.57    1.52
  -4  -1  18   15.67    1.63
   4   1 -18   16.94    1.64
  -4   1  18   19.53    1.63
   4   1 -18   15.55    1.61
  -4   1  18   17.03    1.68
   3  -1 -18   24.81    1.71
   3  -1 -18   20.50    1.65
  -3  -1  18   22.49    1.83
  -3  -1  18   23.04    1.72
  -3   1  18   22.17    1.83
   3   1 -18   21.68    1.76
   3   1 -18   21.99    1.86
  -3   1  18   20.16    1.63
  -2  -1  18   13.06    1.30
  -2  -1  18   15.04    1.26
   2  -1 -18   14.10    1.24
   2  -1 -18   15.01    1.24
   2   1 -18   12.15    1.25
   2   1 -18   13.40    1.27
  -2   1  18   15.57    1.31
  -2   1  18   12.96    1.32
  -1  -1  18    6.74    0.83
  -1  -1  18    8.46    0.99
   1  -1 -18    8.97    0.95
   1  -1 -18    9.35    0.95
   1   1 -18    8.69    0.97
   1   1 -18    7.99    0.97
  -1   1  18    8.99    0.96
  -1   1  18    9.43    1.06
   0  -1  18   32.06    2.01
   0  -1 -18   30.61    1.97
   0  -1 -18   31.07    1.93
   0  -1  18   32.95    1.91
   0   1 -18   31.14    1.97
   0   1  18   29.89    1.91
   0   1 -18   30.38    1.99
   0   1  18   29.27    2.04
   1  -1  18   15.37    1.27
  -1  -1 -18   15.71    1.39
  -1  -1 -18   16.29    1.37
   1  -1  18   17.88    1.47
  -1   1 -18   15.47    1.37
   1   1  18   14.03    1.31
  -1   1 -18   15.96    1.38
   1   1  18   16.96    1.54
  -2  -1 -18   12.07    1.25
   2  -1  18   13.03    1.17
   2  -1  18   11.31    1.25
  -2  -1 -18   12.35    1.32
  -2   1 -18   14.50    1.37
   2   1  18   13.56    1.28
   2   1  18   11.98    1.40
  -2   1 -18   12.93    1.30
   3  -1  18   11.01    1.12
  -3  -1 -18    7.18    1.23
  -3  -1 -18   10.13    1.17
   3  -1  18   10.07    1.20
  -3   1 -18   10.07    1.21
   3   1  18    9.98    1.31
  -3   1 -18    9.12    1.20
   3   1  18    8.45    1.08
   4  -1  18    0.79    0.54
  -4  -1 -18    1.14    0.59
   4  -1  18    0.76    0.42
  -4   1 -18    1.41    0.56
   4   1  18    1.96    0.58
   4   1  18    0.84    0.52
  -5  -1 -18    0.37    0.41
   5  -1  18    0.35    0.34
   5   1  18    0.80    0.55
  -5   1 -18   -0.07    0.31
   6  -1  18    0.68    0.50
  -6  -1 -18   -0.20    0.44
   6   1  18   -0.06    0.49
  -6   1 -18   -0.05    0.47
   7  -1  18   -0.11    0.58
  -7   1 -18    1.47    0.77
  -7  -2  18   35.34    3.08
   7  -2 -18   35.64    2.51
   7   2 -18   32.62    3.02
  -7   2  18   34.97    3.06
   6  -2 -18    1.26    0.57
   6  -2 -18    0.15    0.63
  -6  -2  18    0.83    0.59
  -6   2  18    0.84    0.52
   6   2 -18    0.93    0.56
  -5  -2  18   -0.26    0.33
   5  -2 -18   -0.27    0.34
   5  -2 -18    0.74    0.34
  -5   2  18    0.02    0.32
  -4  -2  18   16.23    1.59
   4  -2 -18   18.91    1.41
   4  -2 -18   17.42    1.45
   4   2 -18   17.49    1.70
  -4   2  18   17.79    1.59
  -4   2  18   12.94    1.52
   3  -2 -18   57.93    2.69
  -3  -2  18   54.32    2.91
  -3  -2  18   58.77    3.07
   3  -2 -18   54.04    2.76
  -3   2  18   55.44    3.14
   3   2 -18   54.95    3.22
  -3   2  18   54.17    2.96
   3   2 -18   61.48    3.24
  -2  -2  18   11.09    1.13
  -2  -2  18    9.74    0.98
   2  -2 -18   11.37    0.98
   2  -2 -18    8.85    0.90
   2   2 -18    8.48    1.05
  -2   2  18   11.11    1.18
  -2   2  18   11.09    1.08
   2   2 -18    8.97    1.07
  -1  -2  18  138.82    5.15
   1  -2 -18  130.49    4.97
   1  -2 -18  131.44    5.19
  -1  -2  18  132.70    4.99
   1   2 -18  129.32    5.32
   1   2 -18  139.68    5.30
  -1   2  18  130.64    5.17
  -1   2  18  144.70    5.47
   0  -2  18    0.95    0.32
   0  -2 -18    0.61    0.33
   0  -2 -18    0.83    0.34
   0   2 -18    1.27    0.41
   0   2  18    0.80    0.35
   0   2  18    1.03    0.42
   0   2 -18    1.92    0.48
  -1  -2 -18   13.33    1.22
  -1  -2 -18   13.97    1.20
   1  -2  18   12.62    1.04
   1  -2  18   13.82    1.40
  -1   2 -18   13.69    1.25
   1   2  18   10.65    1.26
   1   2  18   12.79    1.22
  -1   2 -18   11.88    1.22
  -2  -2 -18   36.54    2.37
   2  -2  18   37.61    2.16
   2  -2  18   41.40    2.63
   2  -2  18   39.16    2.07
  -2  -2 -18   37.77    2.28
  -2   2 -18   42.23    2.47
  -2   2 -18   35.09    2.32
   2   2  18   41.42    2.52
   2   2  18   40.63    2.69
  -3  -2 -18    8.81    1.42
   3  -2  18    9.35    0.93
  -3  -2 -18    8.17    1.29
   3  -2  18    8.70    1.00
   3  -2  18    8.78    0.92
  -3   2 -18    7.34    1.20
  -3   2 -18    6.63    1.12
   3   2  18    6.16    1.14
   4  -2  18   16.63    1.38
   4  -2  18   19.38    1.63
  -4  -2 -18   17.01    1.76
  -4   2 -18   17.70    1.84
   4   2  18   17.90    3.46
   4   2  18   18.11    1.87
  -5  -2 -18   23.78    2.28
   5  -2  18   14.88    2.33
   5  -2  18   19.87    1.71
  -5   2 -18   21.56    2.12
   5   2  18   26.12    2.49
  -6  -2 -18    3.62    1.02
   6  -2  18    1.55    0.78
   6   2  18    6.07    1.53
  -6   2 -18    2.88    1.05
  -7  -3  18    0.30    0.82
  -7   3  18    2.83    1.17
   7   3 -18   -0.97    0.57
  -6  -3  18   -0.37    0.57
   6   3 -18    0.22    0.51
  -6   3  18   -0.67    0.54
  -5  -3  18    0.36    0.59
  -5  -3  18   -0.13    0.43
  -5   3  18    0.42    0.43
   5   3 -18    0.72    0.42
  -4  -3  18    0.62    0.44
  -4  -3  18    1.47    0.54
  -4   3  18    1.56    0.62
   4   3 -18    0.82    0.46
  -3  -3  18    6.51    0.86
  -3  -3  18    6.75    0.86
  -3   3  18    7.32    1.22
   3   3 -18    5.89    1.12
   3   3 -18    7.11    1.17
  -3   3  18    4.73    0.84
  -2  -3  18    0.83    0.36
  -2  -3  18   -0.31    0.44
  -2  -3  18    0.72    0.33
   2   3 -18    0.35    0.32
   2   3 -18   -0.22    0.45
  -2   3  18    0.09    0.26
  -1  -3  18   23.85    2.35
  -1  -3  18   19.46    1.26
  -1  -3  18   22.45    1.27
   1  -3 -18   22.26    1.17
   1  -3 -18   21.57    1.15
  -1   3  18   21.01    1.73
   1   3 -18   19.58    1.62
   1   3 -18   19.50    1.58
  -1   3  18   19.12    1.54
   0  -3  18    2.60    0.41
   0  -3 -18    1.84    0.41
   0  -3 -18    1.85    0.41
   0  -3  18    2.29    0.93
   0  -3  18    2.09    0.37
   0   3  18    2.53    0.69
   0   3 -18    1.84    0.57
   0   3 -18    3.44    0.76
   0   3  18    1.86    0.46
  -1  -3 -18    2.81    0.58
   1  -3  18    3.70    1.00
  -1  -3 -18    2.60    0.65
  -1   3 -18    3.01    0.71
   1   3  18    2.19    0.77
  -1   3 -18    2.82    0.66
   1   3  18    0.64    0.57
   2  -3  18    0.88    0.43
  -2  -3 -18    0.15    0.39
  -2  -3 -18    0.56    0.33
  -2   3 -18    0.23    0.29
   2   3  18    0.62    0.41
   2   3  18    0.75    0.40
  -2   3 -18    0.53    0.49
  -3  -3 -18    6.17    1.01
  -3  -3 -18    9.38    1.12
  -3   3 -18    9.45    1.19
   3   3  18    6.89    1.57
   3   3  18    7.81    1.45
  -3   3 -18    9.54    1.84
  -4  -3 -18   11.43    1.37
  -4  -3 -18   11.64    1.38
  -4   3 -18   14.59    1.62
   4   3  18   15.23    1.95
   4   3  18   13.41    1.77
  -5  -3 -18   -0.56    0.55
   5   3  18    0.89    0.69
   5   3  18    0.73    0.63
  -5   3 -18    0.22    0.49
  -6  -3 -18   -0.12    0.68
  -6   3 -18   -0.67    0.58
  -6  -4  18    3.40    0.95
   6   4 -18    1.66    0.76
  -6   4  18    1.78    0.99
  -5  -4  18    3.84    0.84
  -5   4  18    4.28    1.08
   5   4 -18    4.34    0.98
  -4  -4  18    0.10    0.39
  -4  -4  18    0.79    0.54
  -4   4  18    0.53    0.37
   4   4 -18    0.44    0.46
   3   4 -18   80.21    4.16
  -3   4  18   76.49    3.99
  -3   4  18   80.27    3.83
   2   4 -18   56.43    3.13
   2   4 -18   50.96    3.36
  -2   4  18   55.31    3.09
  -1   4  18   10.65    1.27
  -1   4  18   11.96    1.57
   1   4 -18   11.53    1.25
   1   4 -18   10.76    1.27
   0   4 -18   12.89    1.28
   0   4  18   10.95    1.27
   0   4  18   14.85    1.52
   1  -4  18    0.68    0.55
  -1   4 -18    0.07    0.37
   1   4  18   -0.76    0.45
   1   4  18   -0.52    0.38
  -1   4 -18    0.13    0.27
  -2   4 -18   -0.40    0.43
   2   4  18   -0.08    0.50
   2   4  18   -0.58    0.33
  -2   4 -18    0.32    0.38
  -3  -4 -18   58.73    2.62
  -3  -4 -18   55.06    3.37
   3   4  18   56.89    4.63
  -3   4 -18   61.72    3.46
   3   4  18   65.97    4.11
  -4  -4 -18   16.49    1.55
   4   4  18   16.46    2.47
   4   4  18   17.75    1.99
  -4   4 -18   17.04    1.99
  -5  -4 -18    1.84    0.87
  -5   4 -18    0.33    0.61
   5   4  18    0.57    0.78
   4   5 -18    2.47    0.88
  -4   5  18    4.82    1.32
  -3   5  18    0.87    0.67
   3   5 -18    0.88    0.60
   2   5 -18    0.19    0.38
  -2   5  18    1.01    0.60
   1   5 -18    1.14    0.53
  -1   5  18    0.49    0.52
   0   5  18    0.29    0.50
   0   5 -18    0.41    0.41
   1   5  18    0.96    0.78
   1   5  18   -0.47    0.44
  -1   5 -18    0.21    0.46
  -2   5 -18   -0.31    0.40
   2   5  18   -0.79    0.68
   2   5  18    0.31    0.69
   3   5  18   -0.17    1.07
   3   5  18   -1.20    0.58
  -3   5 -18    0.26    0.64
  -1   6  18    4.61    1.85
   0   6  18    3.05    1.52
  -8   0  19   -0.16    0.74
  -7   0  19   -0.08    0.50
   7   0 -19    0.50    0.50
   6   0 -19   -0.44    0.23
  -6   0  19   -0.10    0.45
  -5   0  19   -0.86    0.34
   5   0 -19    0.05    0.22
  -4   0  19    0.22    0.35
  -4   0  19    0.52    0.36
   4   0 -19   -0.40    0.30
   3   0 -19   -0.35    0.20
  -3   0  19    0.02    0.23
   3   0 -19    0.50    0.27
  -3   0  19    0.44    0.28
   2   0 -19   -0.02    0.18
  -2   0  19   -0.07    0.19
  -2   0  19    0.12    0.23
   2   0 -19   -0.04    0.22
  -1   0  19    0.25    0.22
  -1   0  19    0.07    0.17
   1   0 -19   -0.03    0.19
   1   0 -19   -0.23    0.14
   0   0  19    0.27    0.22
   0   0 -19    0.09    0.17
   0   0  19    0.10    0.26
   0   0 -19   -0.09    0.16
   1   0  19   -0.01    0.19
   1   0  19   -0.14    0.19
  -1   0 -19   -0.32    0.15
  -1   0 -19   -0.08    0.15
  -2   0 -19   -0.17    0.16
  -2   0 -19    0.02    0.19
   2   0  19    0.30    0.22
   2   0  19    0.34    0.26
   3   0  19   -0.17    0.25
  -3   0 -19    0.11    0.29
  -3   0 -19    0.30    0.28
   3   0  19   -0.31    0.23
   4   0  19   -0.34    0.29
  -4   0 -19   -0.02    0.25
   5   0  19   -0.72    0.35
  -5   0 -19    0.40    0.47
  -6   0 -19    0.71    0.55
   6   0  19   -0.55    0.42
  -7   0 -19   -0.15    0.63
   8   1 -19    4.88    1.26
  -8   1  19    4.37    1.13
  -7  -1  19    1.29    0.71
   7  -1 -19    1.65    0.67
  -7   1  19    0.67    0.64
   7   1 -19    0.66    0.65
  -6  -1  19    2.48    0.94
   6  -1 -19    5.81    1.21
   6   1 -19    6.22    1.34
  -6   1  19    5.76    1.21
  -5  -1  19   35.68    2.71
   5  -1 -19   30.60    2.31
   5  -1 -19   34.59    2.37
  -5   1  19   33.68    2.69
   5   1 -19   36.58    2.64
   4  -1 -19  102.95    4.49
  -4  -1  19   94.29    4.66
  -4  -1  19  104.59    4.92
   4  -1 -19   97.29    4.56
   4   1 -19  108.06    4.83
  -4   1  19  104.25    4.99
  -4   1  19   95.73    4.65
   4   1 -19  107.13    4.98
   3  -1 -19    7.36    0.92
  -3  -1  19    3.99    0.91
  -3  -1  19    6.42    1.02
   3  -1 -19    6.48    1.06
  -3   1  19    3.80    0.74
   3   1 -19    4.64    1.34
   3   1 -19    4.51    0.93
  -3   1  19    4.42    0.90
  -2  -1  19    0.39    0.32
  -2  -1  19    0.06    0.33
   2  -1 -19    0.26    0.25
   2  -1 -19    0.70    0.36
   2   1 -19    0.89    0.35
  -2   1  19    0.31    0.29
  -2   1  19    0.17    0.25
   2   1 -19    0.57    0.34
   1  -1 -19    5.94    0.77
  -1  -1  19    4.37    0.84
   1  -1 -19    5.79    0.95
  -1  -1  19    4.19    0.75
   1   1 -19    3.88    0.82
  -1   1  19    4.21    0.77
   1   1 -19    5.15    0.94
  -1   1  19    3.12    0.72
   0  -1 -19   18.54    1.46
   0  -1 -19   15.34    1.38
   0  -1  19   15.72    1.29
   0  -1  19   19.53    1.54
   0   1 -19   18.21    1.48
   0   1 -19   17.96    1.50
   0   1  19   18.25    1.58
   0   1  19   17.20    1.40
  -1  -1 -19   69.69    3.41
   1  -1  19   71.69    3.45
  -1  -1 -19   67.00    3.33
   1  -1  19   66.70    3.18
   1   1  19   67.07    3.55
   1   1  19   68.23    3.32
  -1   1 -19   69.45    3.45
  -1   1 -19   68.03    3.34
  -2  -1 -19  184.59    6.69
  -2  -1 -19  157.49    6.40
   2  -1  19  161.62    6.44
   2  -1  19  163.75    6.16
  -2   1 -19  162.36    6.45
  -2   1 -19  170.22    6.61
   2   1  19  162.70    6.73
   2   1  19  168.63    6.79
  -3  -1 -19    3.98    0.95
   3  -1  19    4.34    0.75
  -3  -1 -19    4.30    0.90
   3  -1  19    3.41    0.83
   3   1  19    2.84    0.78
  -3   1 -19    4.51    0.95
   3   1  19    3.36    0.85
  -3   1 -19    3.65    0.82
   4  -1  19    4.81    1.03
  -4  -1 -19    5.53    1.14
   4  -1  19    6.64    1.02
  -4   1 -19    3.64    0.89
   4   1  19    3.90    0.85
   4   1  19    4.77    1.16
  -5  -1 -19    7.92    1.43
   5  -1  19    9.18    1.48
   5   1  19    8.08    1.58
  -5   1 -19   10.32    1.72
   6  -1  19    0.53    0.52
  -6  -1 -19    1.38    0.74
   6   1  19   -0.04    0.58
  -6   1 -19    1.07    0.60
  -7  -1 -19    8.10    1.80
   7  -1  19    8.11    1.46
  -7   1 -19    5.14    1.40
   7   1  19    7.58    1.68
  -7  -2  19    0.77    0.63
   7   2 -19    0.23    0.60
  -7   2  19    0.87    0.71
  -6  -2  19    0.42    0.51
   6  -2 -19    1.16    0.68
   6  -2 -19    0.45    0.45
  -6   2  19    0.79    0.65
   6   2 -19    1.29    0.67
   5  -2 -19   -0.40    0.31
  -5  -2  19   -0.13    0.37
  -5   2  19    0.41    0.42
   5   2 -19    0.38    0.36
  -4  -2  19    3.86    0.82
   4  -2 -19    2.44    0.60
  -4  -2  19    4.52    0.99
   4  -2 -19    2.72    0.66
  -4   2  19    5.63    1.13
   4   2 -19    3.56    0.85
  -3  -2  19    0.91    0.38
  -3  -2  19    2.01    0.60
   3  -2 -19    1.15    0.41
   3  -2 -19    0.92    0.39
   3   2 -19    1.42    0.48
  -3   2  19    1.97    0.56
   3   2 -19    1.98    0.59
  -3   2  19    2.18    0.61
   2  -2 -19    2.52    0.55
  -2  -2  19    2.04    0.57
   2  -2 -19    2.43    0.54
  -2  -2  19    2.67    0.60
   2   2 -19    2.26    0.58
  -2   2  19    2.01    0.56
  -2   2  19    1.83    0.48
   1  -2 -19   32.03    1.94
  -1  -2  19   32.69    1.96
  -1  -2  19   33.95    2.05
   1  -2 -19   36.97    2.02
   1   2 -19   32.58    2.18
  -1   2  19   32.99    2.09
  -1   2  19   34.88    2.28
   1   2 -19   35.63    2.19
   0  -2 -19   12.95    1.18
   0  -2  19   13.55    1.18
   0  -2  19   14.91    1.15
   0  -2 -19   13.41    1.22
   0   2  19   13.44    1.24
   0   2  19   14.76    1.42
   0   2 -19   12.05    1.19
   0   2 -19   11.60    1.22
  -1  -2 -19    2.23    0.53
   1  -2  19    2.03    0.45
   1  -2  19    1.81    0.51
  -1  -2 -19    1.60    0.52
   1   2  19    1.22    0.44
   1   2  19    1.72    0.61
  -1   2 -19    1.92    0.59
  -1   2 -19    2.11    0.57
   2  -2  19    7.78    0.85
  -2  -2 -19   10.12    1.08
   2  -2  19    7.51    1.02
  -2  -2 -19    7.93    1.04
   2  -2  19    8.92    0.99
  -2   2 -19    8.20    1.03
   2   2  19   11.65    1.40
   2   2  19    4.82    0.96
  -3  -2 -19    0.60    0.44
  -3  -2 -19    0.63    0.37
   3  -2  19    0.88    0.36
   3  -2  19    1.29    0.41
   3  -2  19    0.41    0.30
   3   2  19    0.58    0.43
  -3   2 -19   -0.06    0.39
  -3   2 -19    0.68    0.40
   4  -2  19    0.25    0.41
  -4  -2 -19    0.53    0.45
   4  -2  19    0.04    0.34
   4   2  19    0.75    0.49
  -4   2 -19    0.24    0.41
   4   2  19    0.53    0.52
  -5  -2 -19    1.42    0.63
   5  -2  19   -0.12    0.54
   5  -2  19    0.46    0.46
   5   2  19    0.47    0.72
  -5   2 -19    0.89    0.44
   6  -2  19    0.66    0.67
  -6  -2 -19    0.12    0.66
  -6   2 -19    0.16    0.51
   6   2  19   -0.57    0.58
  -7  -3  19    6.24    1.40
   7   3 -19    4.46    1.25
  -7   3  19    5.66    1.50
  -6  -3  19   15.08    1.77
   6   3 -19   12.81    2.00
  -6   3  19   15.01    1.96
  -5  -3  19   10.82    1.47
  -5  -3  19   12.56    1.50
   5   3 -19   12.02    1.52
  -4  -3  19   17.11    1.51
  -4  -3  19   15.30    1.51
   4   3 -19   17.63    1.79
  -4   3  19   16.00    1.64
  -3  -3  19   13.01    1.21
  -3  -3  19   10.04    1.10
  -3   3  19   11.05    1.35
   3   3 -19    7.52    1.23
  -3   3  19   11.51    1.24
   2  -3 -19    5.24    0.54
   2  -3 -19    5.26    0.54
  -2  -3  19    5.10    0.82
  -2  -3  19    5.42    0.82
   2   3 -19    3.69    0.79
  -2   3  19    5.62    1.08
   2   3 -19    4.12    0.87
   1  -3 -19   30.37    1.54
  -1  -3  19   35.32    2.89
  -1  -3  19   29.35    1.65
   1  -3 -19   30.67    1.56
  -1  -3  19   30.36    1.63
   1   3 -19   29.48    2.18
   1   3 -19   29.82    2.03
  -1   3  19   31.31    2.02
  -1   3  19   32.42    2.22
   0  -3 -19   13.29    0.99
   0  -3 -19   13.30    1.03
   0  -3  19   13.38    0.95
   0  -3  19   15.04    0.96
   0  -3  19   15.58    3.09
   0   3  19   12.25    1.43
   0   3 -19   13.77    1.34
   0   3  19   14.21    1.41
   0   3 -19   12.38    1.27
  -1  -3 -19   33.62    1.94
  -1  -3 -19   36.33    2.00
   1  -3  19   31.04    2.58
   1   3  19   33.49    2.23
  -1   3 -19   36.08    2.65
  -1   3 -19   36.53    2.26
   1   3  19   34.78    2.47
  -2  -3 -19    0.60    0.33
   2  -3  19    0.34    0.52
  -2  -3 -19    0.96    0.37
   2   3  19    1.27    0.60
  -2   3 -19    0.28    0.45
  -2   3 -19    1.43    0.51
  -3  -3 -19   25.76    1.82
  -3  -3 -19   23.50    1.83
   3   3  19   18.76    2.36
   3   3  19   21.89    2.15
  -3   3 -19   20.08    1.85
  -4  -3 -19    6.04    1.12
  -4  -3 -19    4.02    0.82
   4   3  19    4.31    1.19
  -4   3 -19    4.12    1.47
   4   3  19    3.76    1.14
  -5  -3 -19    7.42    1.39
   5   3  19    8.57    1.63
   5   3  19    7.68    1.68
  -5   3 -19    7.34    1.48
  -6  -3 -19    5.25    1.35
  -6   3 -19    8.34    1.74
   6   3  19   11.02    2.01
  -6  -4  19    1.88    0.90
  -6   4  19    4.11    1.22
   6   4 -19    5.66    2.03
  -5  -4  19    2.02    0.74
  -5   4  19    2.24    0.92
   5   4 -19    3.90    0.94
  -4  -4  19    7.57    0.95
   4   4 -19    9.85    1.55
   3   4 -19    3.68    0.94
  -3   4  19    4.41    1.00
  -2   4  19    3.74    0.87
   2   4 -19    4.19    0.90
   1   4 -19    3.35    0.78
   1   4 -19    3.87    0.86
  -1   4  19    4.62    0.96
  -1   4  19    3.73    0.74
   0   4 -19    9.88    1.17
   0   4  19    6.40    1.05
   0   4 -19    9.21    1.34
   0   4  19   10.56    1.32
  -1   4 -19    4.27    0.88
   1   4  19    5.84    1.20
  -1   4 -19    5.61    0.95
   2   4  19    0.18    0.78
   2   4  19    1.22    0.60
  -2   4 -19   -0.70    0.33
  -3  -4 -19    3.31    0.97
  -3   4 -19    5.26    1.07
   3   4  19    2.70    1.02
   3   4  19    3.80    1.47
  -4  -4 -19   -0.38    0.55
  -4  -4 -19   -1.07    0.70
   4   4  19    1.02    0.97
  -4   4 -19    0.29    0.53
   4   4  19    0.29    0.53
  -5  -4 -19    0.48    0.74
   5   4  19   -0.23    0.81
  -5   4 -19   -0.94    0.56
   5   4  19   -0.26    0.84
  -4   5  19   29.80    2.63
   4   5 -19   29.74    2.61
   3   5 -19    3.91    1.01
  -3   5  19    2.07    0.77
  -2   5  19    3.20    0.86
   1   5 -19   25.51    2.04
  -1   5  19   26.02    2.18
   0   5  19    5.91    1.17
   0   5 -19    6.01    1.03
   1   5  19    0.43    0.98
   1   5  19    5.25    1.17
  -1   5 -19    2.99    0.81
  -2   5 -19   27.49    2.13
   2   5  19   23.29    2.49
   2   5  19   23.01    3.23
  -3   5 -19    0.29    0.76
   3   5  19   -0.61    0.76
   3   5  19    0.53    0.90
  -8   0  20   24.50    2.89
  -7   0  20    5.05    1.28
   7   0 -20    5.59    1.15
   6   0 -20    4.83    1.11
  -6   0  20    7.18    1.38
  -5   0  20   38.45    2.93
  -4   0  20    0.78    0.50
  -4   0  20    1.13    0.52
   4   0 -20    1.25    0.49
   4   0 -20    1.13    0.40
  -3   0  20  122.18    5.41
   3   0 -20  129.35    5.26
  -3   0  20  116.53    6.20
   3   0 -20  127.01    5.40
  -2   0  20   83.72    3.99
   2   0 -20   85.57    3.87
   2   0 -20   81.09    3.94
  -2   0  20   82.08    3.87
   1   0 -20    5.08    0.90
  -1   0  20    6.99    0.86
   1   0 -20    4.75    0.86
  -1   0  20    6.37    1.10
   0   0  20    3.44    0.73
   0   0  20    3.16    0.76
   0   0 -20    3.71    0.79
   0   0 -20    5.33    0.99
  -1   0 -20   10.53    1.19
   1   0  20   13.43    1.38
   1   0  20   11.60    1.13
  -1   0 -20   13.03    1.32
  -2   0 -20    0.93    0.42
   2   0  20    1.03    0.32
   2   0  20    1.23    0.49
  -3   0 -20    4.49    0.95
   3   0  20    3.22    0.84
  -3   0 -20    3.82    0.92
   3   0  20    4.82    0.88
  -4   0 -20   95.26    4.96
   4   0  20   96.31    4.98
  -5   0 -20   22.78    2.32
   5   0  20   19.13    2.04
   6   0  20    6.28    1.45
  -6   0 -20    4.97    1.32
  -7   0 -20    3.21    1.21
   8   1 -20    1.17    0.69
  -7  -1  20    9.54    1.78
   7  -1 -20    9.97    1.57
   7   1 -20   10.97    1.80
  -7   1  20   11.64    2.09
  -6  -1  20   -0.17    0.37
   6  -1 -20    0.57    0.53
  -6   1  20   -0.10    0.41
   6   1 -20    0.44    0.32
  -5  -1  20   -0.11    0.34
   5  -1 -20    0.79    0.50
   5  -1 -20    1.31    0.54
  -5   1  20    0.60    0.61
   5   1 -20    0.46    0.66
   4  -1 -20   -0.11    0.22
  -4  -1  20   -0.47    0.36
   4  -1 -20   -0.03    0.31
  -4  -1  20   -0.35    0.24
   4   1 -20    0.10    0.25
  -4   1  20   -0.49    0.38
   3  -1 -20    3.23    0.69
  -3  -1  20    2.69    0.66
   3  -1 -20    3.85    0.77
  -3  -1  20    3.59    0.88
  -3   1  20    2.37    0.59
  -3   1  20    2.60    0.75
   3   1 -20    2.44    0.71
   2  -1 -20   18.86    1.56
  -2  -1  20   17.18    1.46
   2  -1 -20   17.96    1.47
  -2  -1  20   19.50    1.65
  -2   1  20   19.66    1.58
   2   1 -20   16.64    1.53
   2   1 -20   19.57    1.67
  -2   1  20   18.72    1.65
   1  -1 -20    0.27    0.22
  -1  -1  20    0.21    0.25
   1  -1 -20   -0.01    0.19
  -1  -1  20    0.34    0.28
   1   1 -20    0.61    0.34
   1   1 -20   -0.11    0.18
  -1   1  20    0.01    0.22
   0  -1  20    4.54    0.88
   0  -1  20    4.40    0.79
   0  -1 -20    4.52    0.83
   0  -1 -20    4.92    0.87
   0   1  20    4.49    0.95
   0   1  20    5.03    0.89
   0   1 -20    4.19    0.85
   0   1 -20    4.41    0.83
   1  -1  20    5.23    0.85
  -1  -1 -20    5.85    1.07
  -1  -1 -20    4.91    0.92
   1  -1  20    5.14    0.96
   1   1  20    5.28    0.93
  -1   1 -20    5.93    1.01
  -1   1 -20    4.68    0.87
   1   1  20    3.86    0.89
  -2  -1 -20   24.07    1.93
   2  -1  20   21.97    1.66
  -2  -1 -20   22.85    1.89
   2  -1  20   23.67    1.89
   2   1  20   22.04    1.79
  -2   1 -20   23.42    1.91
   2   1  20   23.24    2.04
  -2   1 -20   20.72    1.81
  -3  -1 -20    5.51    1.09
  -3  -1 -20    6.72    1.23
   3  -1  20    8.60    1.06
   3  -1  20    9.26    1.15
   3   1  20    7.09    1.34
  -3   1 -20   12.36    2.35
  -3   1 -20    8.77    1.42
   4  -1  20    0.00    0.32
   4  -1  20   -0.53    0.37
  -4  -1 -20   -0.51    0.30
  -4   1 -20   -0.04    0.35
   4   1  20   -0.31    0.24
   4   1  20    0.51    0.72
  -5  -1 -20    1.34    0.70
  -5   1 -20    1.77    0.72
   5   1  20    2.14    0.88
  -6  -1 -20    0.69    0.57
   6  -1  20    1.49    0.72
   6   1  20    3.92    1.17
  -6   1 -20    0.46    0.64
  -7  -2  20   16.62    1.98
   7  -2 -20   17.06    1.71
   7   2 -20   16.35    2.07
  -7   2  20   20.29    2.36
   6  -2 -20   34.69    2.42
   6  -2 -20   33.85    2.31
  -6  -2  20   33.79    2.83
  -6   2  20   36.75    3.02
   6   2 -20   36.17    2.92
   5  -2 -20    4.95    0.98
  -5  -2  20    5.41    1.09
   5  -2 -20    4.86    0.90
   5   2 -20    5.59    1.24
  -5   2  20    5.99    2.17
   4  -2 -20   15.54    1.36
  -4  -2  20   15.91    1.61
  -4  -2  20   13.96    1.46
   4  -2 -20   14.23    1.35
  -4   2  20   14.83    1.64
   4   2 -20   15.15    1.59
  -3  -2  20    2.88    0.76
  -3  -2  20    3.49    0.71
   3  -2 -20    2.94    0.66
   3  -2 -20    4.11    0.74
   3   2 -20    4.73    1.01
  -3   2  20    2.24    0.66
   3   2 -20    2.87    0.70
  -3   2  20    2.48    0.60
   2  -2 -20    9.13    0.95
  -2  -2  20    7.83    1.19
   2  -2 -20    8.20    0.92
  -2  -2  20   10.01    1.01
   2   2 -20    5.42    1.00
  -2   2  20    6.48    1.10
  -2   2  20    8.86    0.98
   2   2 -20    7.03    1.31
  -1  -2  20  126.81    5.04
  -1  -2  20  120.48    4.85
   1  -2 -20  122.09    4.87
   1  -2 -20  128.70    4.88
   1   2 -20  134.56    5.22
  -1   2  20  125.02    5.33
  -1   2  20  125.61    5.11
   1   2 -20  121.39    5.22
   0  -2 -20   18.84    1.49
   0  -2  20   20.52    1.54
   0  -2 -20   21.15    1.59
   0  -2  20   18.96    1.42
   0   2  20   21.22    1.78
   0   2 -20   20.65    1.68
   0   2  20   18.74    1.54
   0   2 -20   19.83    1.60
  -1  -2 -20   17.08    1.44
   1  -2  20   15.34    1.33
  -1  -2 -20   16.78    1.46
   1  -2  20   16.20    1.28
   1   2  20   15.42    1.46
  -1   2 -20   15.73    1.45
   1   2  20   17.55    1.69
  -1   2 -20   15.66    1.45
   2  -2  20   23.02    1.80
  -2  -2 -20   20.19    1.68
  -2  -2 -20   23.36    1.86
   2  -2  20   21.73    1.64
   2  -2  20   20.70    1.51
  -2   2 -20   20.32    1.72
  -2   2 -20   24.40    1.87
   2   2  20   17.63    1.70
   2   2  20   21.62    1.98
  -3  -2 -20   14.46    1.57
   3  -2  20   15.06    1.31
  -3  -2 -20   14.27    1.58
   3  -2  20   16.04    1.47
   3  -2  20   17.70    1.38
  -3   2 -20   16.24    1.62
   3   2  20   15.56    1.79
   4  -2  20   11.81    1.22
  -4  -2 -20   11.96    1.45
   4  -2  20   10.61    1.22
   4   2  20   10.07    1.84
  -4   2 -20   10.39    2.51
   4   2  20    8.78    1.35
  -5  -2 -20   12.78    1.97
   5  -2  20   14.08    1.50
   5  -2  20   12.93    1.44
   5   2  20   10.82    1.99
  -5   2 -20   11.10    1.79
   5   2  20   16.16    1.60
   6  -2  20    2.84    0.92
  -6  -2 -20    5.08    1.25
   6   2  20    3.09    1.19
  -6   2 -20    4.49    1.16
  -7  -3  20    0.82    0.85
   7   3 -20    0.17    0.69
  -7   3  20    0.41    0.83
  -6  -3  20    0.68    0.62
  -6   3  20    3.61    1.01
   6   3 -20    1.10    0.76
   5  -3 -20    1.05    0.43
  -5  -3  20    1.24    0.57
  -5   3  20    0.18    0.49
   5   3 -20    2.35    0.81
  -4  -3  20    0.08    0.56
   4  -3 -20    1.67    0.42
   4  -3 -20    0.36    0.35
  -4  -3  20    0.50    0.41
  -4   3  20    1.28    0.55
   3  -3 -20    0.39    0.26
  -3  -3  20    0.21    0.32
   3  -3 -20    0.52    0.29
  -3  -3  20    0.98    0.46
  -3   3  20    1.02    0.47
  -3   3  20    0.73    0.33
   3   3 -20    0.30    0.31
  -2  -3  20    0.95    0.37
   2  -3 -20    0.56    0.30
  -2  -3  20    1.30    0.42
   2  -3 -20    0.82    0.31
  -2   3  20    0.46    0.39
  -2   3  20    1.52    0.55
   2   3 -20    0.58    0.41
   1  -3 -20    0.28    0.25
  -1  -3  20    0.15    0.48
  -1  -3  20    0.12    0.27
   1  -3 -20    0.90    0.32
  -1  -3  20    0.35    0.31
   1   3 -20    0.14    0.28
  -1   3  20    1.16    0.45
  -1   3  20   -0.05    0.32
   1   3 -20    0.37    0.33
   0  -3 -20   -0.13    0.24
   0  -3  20    0.42    0.47
   0  -3  20    0.42    0.26
   0  -3  20    0.21    0.23
   0  -3 -20    0.57    0.29
   0   3 -20   -0.38    0.39
   0   3 -20    0.79    0.37
   0   3  20    0.31    0.37
   0   3  20    0.61    0.23
   1  -3  20    5.82    0.64
   1  -3  20    6.95    0.64
   1  -3  20    6.15    1.37
  -1  -3 -20    6.16    0.91
  -1  -3 -20    6.49    0.81
  -1   3 -20    5.60    1.01
   1   3  20    6.64    1.14
   1   3  20    4.50    1.03
  -1   3 -20    6.73    1.08
  -2  -3 -20    2.05    0.55
   2  -3  20    2.22    0.74
  -2  -3 -20    2.12    0.66
   2  -3  20    2.83    0.47
  -2   3 -20    2.51    0.66
  -2   3 -20    1.13    0.56
   2   3  20    2.49    0.83
  -3  -3 -20    0.13    0.39
  -3  -3 -20    0.59    0.55
   3   3  20    0.25    0.55
  -3   3 -20    0.41    0.38
   3   3  20    0.02    0.44
  -4  -3 -20    4.55    1.00
   4   3  20    4.51    1.46
   4   3  20    4.33    1.26
  -4   3 -20    3.08    0.91
  -5  -3 -20    0.22    0.55
   5   3  20    1.33    0.79
  -5   3 -20    1.20    0.70
   5   3  20    0.11    0.70
  -6  -3 -20    6.38    1.37
   6   3  20    5.74    1.57
  -6   3 -20    2.48    1.13
  -6  -4  20    0.60    0.77
  -6   4  20   -0.74    0.73
   6   4 -20   -1.15    0.61
  -5  -4  20   10.87    1.35
  -5   4  20   15.11    1.78
   5   4 -20   11.61    1.86
  -4  -4  20    6.63    1.15
  -4   4  20    8.85    1.50
   4   4 -20    3.55    1.05
   3   4 -20    2.47    0.78
  -3   4  20    2.16    0.77
  -2   4  20   31.29    2.32
  -1   4  20   34.42    2.48
   1   4 -20   41.20    2.57
  -1   4  20   39.67    2.68
   0   4 -20   38.91    2.69
   0   4  20   41.49    2.81
   0   4 -20   45.26    2.63
  -1   4 -20    1.38    0.79
  -1   4 -20   -0.29    0.38
   1   4  20    0.47    0.52
   2   4  20   17.20    2.98
  -2   4 -20   15.14    1.60
   2   4  20   18.27    2.71
  -3  -4 -20    1.59    0.61
  -3   4 -20    3.76    0.94
   3   4  20    1.59    0.91
   3   4  20    4.01    1.13
  -4  -4 -20    4.11    0.93
   4   4  20    2.72    1.49
   4   4  20    4.38    1.05
  -4   4 -20    5.02    1.17
  -5  -4 -20   19.98    2.66
   5   4  20   17.24    2.71
   5   4  20   27.10    3.01
  -5   4 -20   19.95    2.22
   4   5 -20    0.70    0.67
  -4   5  20    1.30    0.86
  -3   5  20    2.39    0.88
   3   5 -20    1.66    0.74
  -2   5  20   -0.07    0.54
   1   5 -20    4.97    1.01
  -1   5  20    6.60    1.24
   0   5 -20    1.92    0.60
   0   5  20    0.48    0.58
   1   5  20    2.19    1.04
   1   5  20    3.15    1.27
  -1   5 -20    2.91    0.82
  -2   5 -20    1.25    0.69
   2   5  20    2.35    1.20
   2   5  20    1.59    0.90
   3   5  20   -0.78    0.77
  -3   5 -20    0.18    0.67
   3   5  20    0.88    1.12
  -7   0  21    0.06    0.66
   7   0 -21    0.09    0.40
   6   0 -21   -0.10    0.26
  -6   0  21    0.54    0.65
  -4   0  21   -0.34    0.24
   4   0 -21   -0.24    0.25
   4   0 -21   -0.17    0.21
   3   0 -21   -0.08    0.28
  -3   0  21   -0.30    0.29
  -3   0  21    0.25    0.27
   3   0 -21   -0.27    0.29
   2   0 -21   -0.02    0.18
  -2   0  21    0.29    0.24
   2   0 -21    0.16    0.23
  -2   0  21    0.41    0.22
  -1   0  21   -0.02    0.27
   1   0 -21    0.13    0.23
  -1   0  21   -0.45    0.16
   1   0 -21    0.60    0.39
   0   0 -21    0.11    0.19
   0   0  21    0.22    0.30
   0   0 -21    0.12    0.24
   0   0  21    0.21    0.24
   1   0  21    0.42    0.27
  -1   0 -21   -0.15    0.21
   1   0  21   -0.08    0.19
  -1   0 -21   -0.04    0.18
  -2   0 -21    0.17    0.32
  -2   0 -21   -0.03    0.22
   2   0  21   -0.45    0.27
   2   0  21   -0.18    0.27
  -3   0 -21   -0.24    0.28
   3   0  21    0.72    0.38
   3   0  21    0.65    0.36
  -4   0 -21    0.64    0.51
   4   0  21   -0.13    0.38
   5   0  21    0.63    0.51
  -5   0 -21   -0.11    0.42
  -6   0 -21    0.90    0.57
   6   0  21   -0.19    0.57
  -7  -1  21    1.64    1.06
   7  -1 -21    1.75    0.70
   7   1 -21    1.14    0.78
  -7   1  21    1.36    0.84
  -6  -1  21    2.08    0.73
   6  -1 -21    1.75    0.69
  -6   1  21    1.72    0.72
   6   1 -21    2.37    0.82
   5  -1 -21    3.27    0.84
   5   1 -21    2.83    0.88
  -5   1  21    2.59    1.30
   4  -1 -21   12.40    1.31
  -4  -1  21   11.41    1.45
   4  -1 -21    9.98    1.19
  -4  -1  21   12.08    1.44
  -4   1  21   10.47    1.66
   4   1 -21   11.78    1.38
   3  -1 -21   60.76    3.10
  -3  -1  21   59.81    3.35
   3  -1 -21   58.08    3.19
  -3  -1  21   54.89    3.73
   3   1 -21   60.85    3.42
  -3   1  21   61.55    3.46
   3   1 -21   58.92    3.30
  -3   1  21   53.71    3.11
  -2  -1  21  119.61    5.19
   2  -1 -21  123.74    5.10
   2  -1 -21  132.61    5.05
  -2  -1  21  117.13    5.03
   2   1 -21  115.68    5.07
   2   1 -21  117.67    6.00
  -2   1  21  121.23    5.16
  -2   1  21  119.27    5.24
   1  -1 -21   19.53    1.55
  -1  -1  21   16.66    1.45
  -1  -1  21   17.46    1.58
   1  -1 -21   20.39    1.59
   1   1 -21   17.71    1.57
   1   1 -21   20.62    1.64
  -1   1  21   16.89    1.62
   0  -1 -21   11.35    1.18
   0  -1 -21   10.44    1.12
   0  -1  21   11.61    1.12
   0  -1  21   11.17    1.22
   0   1  21   12.45    1.34
   0   1 -21    9.41    1.14
   0   1 -21   10.43    1.16
   0   1  21    9.40    1.09
  -1  -1 -21   29.17    2.15
  -1  -1 -21   30.23    2.14
   1  -1  21   34.00    2.29
   1   1  21   34.08    2.42
  -1   1 -21   34.68    2.35
  -1   1 -21   30.87    2.17
   2  -1  21   10.65    1.31
  -2  -1 -21   11.43    1.25
   2  -1  21   10.14    1.12
  -2  -1 -21   12.36    1.38
   2   1  21    9.30    1.51
   2   1  21   11.39    1.21
  -2   1 -21    9.72    1.27
  -2   1 -21    9.92    1.27
   3  -1  21   63.43    3.52
   3  -1  21   60.39    3.22
  -3  -1 -21   61.12    3.60
  -3   1 -21   63.26    3.61
   3   1  21   60.02    3.76
  -4  -1 -21   18.93    3.06
   4  -1  21   19.86    1.92
   4   1  21   20.95    2.19
  -4   1 -21   16.91    2.09
   4   1  21   20.58    1.69
  -5  -1 -21    9.38    1.69
   5  -1  21    7.89    1.45
  -5   1 -21   12.49    2.03
   5   1  21   10.34    1.84
  -6  -1 -21    4.37    1.29
   6  -1  21    7.35    1.43
  -6   1 -21    6.54    1.49
   6   1  21    7.62    1.59
  -7  -2  21   10.02    1.74
   7  -2 -21    9.46    1.42
  -7   2  21    8.28    1.75
   7   2 -21    6.73    1.91
   6  -2 -21    0.28    0.45
   6  -2 -21    0.45    0.71
  -6  -2  21    0.48    0.76
   6   2 -21    0.07    0.53
  -6   2  21   -0.14    0.49
   5  -2 -21    1.89    0.69
   5  -2 -21    1.14    0.51
  -5   2  21    1.47    0.73
   5   2 -21    2.68    0.80
   4  -2 -21    0.48    0.39
  -4  -2  21   -0.15    0.45
   4  -2 -21    0.13    0.32
  -4  -2  21    0.44    0.40
  -4   2  21    0.29    0.40
  -3  -2  21    0.71    0.38
   3  -2 -21    0.80    0.38
  -3  -2  21    0.53    0.44
   3  -2 -21    0.52    0.31
   3   2 -21    0.03    0.22
  -3   2  21    0.46    0.35
  -3   2  21   -0.15    0.28
   2  -2 -21    8.67    1.01
  -2  -2  21    9.71    1.16
  -2  -2  21    8.20    1.02
   2  -2 -21    9.98    1.01
  -2   2  21    9.18    1.03
  -2   2  21   10.31    1.21
   2   2 -21   11.92    1.27
   2   2 -21    8.99    1.42
  -1  -2  21    0.88    0.37
  -1  -2  21    0.92    0.43
   1  -2 -21    0.32    0.38
   1  -2 -21    0.42    0.32
   1   2 -21    1.23    0.65
   1   2 -21    1.90    0.63
  -1   2  21    0.77    0.45
   0  -2 -21    0.35    0.34
   0  -2 -21    0.38    0.30
   0  -2  21   -0.23    0.20
   0  -2  21    0.17    0.30
   0   2  21   -0.21    0.26
   0   2 -21    0.11    0.21
   0   2  21    0.62    0.38
  -1  -2 -21    4.82    0.86
   1  -2  21    6.56    0.82
  -1  -2 -21    5.41    0.99
   1  -2  21    7.25    0.90
   1   2  21    6.81    1.08
   1   2  21    5.69    1.14
  -1   2 -21    5.91    0.99
  -1   2 -21    6.68    1.08
  -2  -2 -21    1.73    0.53
   2  -2  21    2.23    0.52
  -2  -2 -21    2.37    0.68
   2  -2  21    1.95    0.64
   2  -2  21    1.50    0.54
  -2   2 -21    1.86    0.60
  -2   2 -21    0.37    0.41
   2   2  21    1.46    0.61
   3  -2  21   -0.17    0.26
   3  -2  21    0.24    0.38
  -3  -2 -21    0.67    0.40
  -3  -2 -21    0.15    0.37
   3   2  21   -0.16    0.42
  -3   2 -21    0.07    0.35
  -4  -2 -21    1.26    0.65
   4  -2  21    0.61    0.39
   4  -2  21    0.62    0.45
   4   2  21    0.73    0.58
  -4   2 -21    0.14    0.32
   4   2  21    0.68    0.57
   5  -2  21    1.44    0.68
   5  -2  21    2.16    0.80
  -5  -2 -21    3.74    1.02
   5   2  21    1.32    0.80
   5   2  21    3.60    1.16
  -5   2 -21    2.85    0.96
  -6  -2 -21    3.51    1.23
   6  -2  21    4.19    0.99
  -6   2 -21    4.76    1.13
  -6  -3  21    1.67    0.84
   6  -3 -21    0.70    0.56
  -6   3  21    0.83    0.73
   6   3 -21    1.21    0.78
  -5  -3  21   30.56    2.46
   5   3 -21   29.69    2.61
  -5   3  21   31.35    2.65
  -4  -3  21   45.13    2.77
   4  -3 -21   47.42    2.16
   4  -3 -21   42.51    2.07
   4   3 -21   44.89    3.13
  -4   3  21   41.77    2.95
   3  -3 -21   16.83    1.13
   3  -3 -21   18.54    1.16
  -3  -3  21   15.87    1.43
  -3  -3  21   15.49    1.39
  -3   3  21   14.62    1.61
   3   3 -21   15.82    1.62
   2  -3 -21    1.99    0.46
  -2  -3  21    2.40    0.56
  -2  -3  21    2.62    0.62
   2  -3 -21    2.00    0.47
   2   3 -21    1.07    0.44
  -2   3  21    1.89    0.66
  -2   3  21    2.18    0.59
   1  -3 -21    0.40    0.26
   1  -3 -21    1.08    0.32
  -1   3  21    1.31    0.44
  -1   3  21    0.88    0.46
   1   3 -21    0.56    0.37
   1   3 -21    0.62    0.48
   0  -3  21    0.32    0.27
   0  -3  21   -0.24    0.51
   0  -3 -21    0.18    0.26
   0  -3  21   -0.04    0.25
   0  -3 -21    0.27    0.43
   0   3 -21    0.51    0.35
   0   3  21   -0.05    0.38
   0   3  21    0.65    0.40
   0   3 -21    0.57    0.37
   1  -3  21   17.81    1.99
  -1  -3 -21   18.27    1.44
  -1  -3 -21   21.41    1.55
   1  -3  21   18.73    1.24
   1  -3  21   18.87    1.18
  -1   3 -21   21.82    1.80
  -1   3 -21   17.17    1.63
   1   3  21   21.54    1.91
   2  -3  21   34.46    1.72
   2  -3  21   35.14    2.62
  -2  -3 -21   33.54    2.19
  -2  -3 -21   31.24    2.06
   2  -3  21   33.40    1.66
   2   3  21   34.91    2.71
  -2   3 -21   32.13    2.33
   3  -3  21   18.19    1.17
  -3  -3 -21   16.38    1.64
  -3  -3 -21   16.83    1.58
  -3   3 -21   14.80    1.68
   3   3  21   17.12    2.00
   3   3  21   14.71    2.21
  -4  -3 -21    1.02    0.61
   4   3  21   -0.22    0.57
   4   3  21   -0.71    0.48
  -4   3 -21   -0.09    0.51
  -5  -3 -21    0.82    0.66
   5   3  21    0.50    0.69
   5   3  21    0.26    0.83
  -5   3 -21   -0.75    0.45
  -5  -4  21    0.15    0.60
   5   4 -21    1.24    0.60
  -5   4  21   -0.37    0.66
  -4  -4  21    0.25    0.49
   4   4 -21    0.80    0.48
  -4   4  21    0.56    0.68
  -3   4  21   -0.19    0.46
   3   4 -21    0.75    0.43
  -2   4  21    1.73    0.65
  -1   4  21    2.69    0.79
   1   4 -21    2.48    0.69
   0   4 -21   -0.49    0.26
   0   4  21    0.10    0.46
   1   4  21    2.66    0.87
  -1   4 -21    1.07    0.57
  -2   4 -21   -0.44    0.40
   2   4  21    0.96    0.71
  -3  -4 -21   -0.36    0.56
  -3  -4 -21    0.59    0.48
   3   4  21   -0.12    0.73
  -3   4 -21    0.68    0.60
   3   4  21    0.54    0.58
  -4  -4 -21    3.70    0.89
  -4   4 -21    2.17    0.95
   4   4  21    0.78    0.69
   4   4  21    1.48    1.21
  -4   5  21   12.64    1.96
   4   5 -21   11.87    1.79
  -3   5  21    6.57    1.43
   3   5 -21    3.02    0.86
  -2   5  21    4.65    1.06
   2   5 -21    4.80    1.12
  -1   5  21    2.64    0.85
   1   5 -21    2.34    0.82
   0   5  21    5.81    1.54
   0   5 -21    6.63    1.14
   1   5  21    8.13    2.03
   1   5  21    8.44    1.63
  -1   5 -21    7.52    1.25
  -2   5 -21   17.92    2.29
   2   5  21   11.50    2.50
   2   5  21   17.68    2.23
   3   5  21    1.20    0.98
   3   5  21    1.62    1.25
  -3   5 -21    1.72    0.87
  -7   0  22   28.41    2.94
  -6   0  22   26.37    2.58
  -5   0  22   28.94    2.54
   4   0 -22    3.44    0.83
  -4   0  22    3.35    0.89
  -3   0  22   14.98    1.54
   3   0 -22   15.87    1.52
   3   0 -22   18.29    1.71
  -3   0  22   14.49    1.58
   2   0 -22   15.68    1.46
   2   0 -22   13.80    1.44
  -2   0  22   15.11    1.54
   1   0 -22  148.90    5.73
  -1   0  22  133.20    5.62
  -1   0  22  139.41    5.86
   1   0 -22  143.05    5.86
   0   0  22   68.06    3.45
   0   0 -22   67.93    3.49
   0   0  22   73.14    3.72
   0   0 -22   68.95    3.56
   1   0  22    5.12    0.90
   1   0  22    3.60    0.91
  -1   0 -22    3.67    0.84
   2   0  22    1.25    0.47
  -2   0 -22    2.05    0.68
   2   0  22    2.26    0.80
  -2   0 -22    1.24    0.56
   3   0  22    0.18    0.43
  -3   0 -22    0.17    0.31
   4   0  22    2.81    1.14
  -4   0 -22    2.73    0.89
   5   0  22   -0.01    0.45
  -5   0 -22    2.04    0.92
  -6   0 -22   30.24    2.94
   6   0  22   35.20    3.11
  -7  -1  22    0.31    0.75
   7  -1 -22   -0.54    0.54
   7   1 -22    0.14    0.57
  -7   1  22    0.20    0.54
   6  -1 -22   -0.28    0.37
  -6  -1  22   -0.29    0.40
  -6   1  22    1.25    0.59
   6   1 -22    0.30    0.45
   5  -1 -22    0.21    0.32
  -5  -1  22   -0.09    0.38
  -5   1  22   -0.37    0.37
   5   1 -22   -0.34    0.26
   4  -1 -22    2.21    0.68
  -4  -1  22    1.76    0.61
   4  -1 -22    1.06    0.51
  -4   1  22    2.08    0.67
  -3  -1  22    2.39    0.68
   3  -1 -22    4.09    0.90
  -3  -1  22    3.36    0.88
   3  -1 -22    3.53    0.83
  -3   1  22    3.14    0.75
  -3   1  22    2.13    0.70
   3   1 -22    4.09    0.90
   3   1 -22    2.66    0.72
  -2  -1  22   33.65    2.24
   2  -1 -22   35.92    2.33
   2  -1 -22   31.95    2.13
  -2  -1  22   33.40    2.32
   2   1 -22   30.46    2.32
   2   1 -22   34.57    2.29
  -2   1  22   31.96    2.24
  -2   1  22   30.10    2.32
   1  -1 -22   33.46    2.22
   1  -1 -22   30.65    2.10
  -1  -1  22   35.50    2.35
  -1  -1  22   33.56    2.18
   1   1 -22   33.90    2.26
   1   1 -22   34.97    3.27
  -1   1  22   32.17    2.35
   0  -1 -22   10.38    1.16
   0  -1  22    8.62    1.12
   0  -1 -22   11.13    1.20
   0  -1  22   10.35    1.12
   0   1  22    7.97    1.30
   0   1 -22   10.06    1.94
   0   1 -22   10.91    1.24
  -1  -1 -22    2.56    0.75
   1  -1  22    4.02    0.90
  -1  -1 -22    2.21    0.62
  -1   1 -22    2.67    0.73
   1   1  22    2.30    0.65
  -1   1 -22    4.11    0.85
   1   1  22    2.62    0.58
  -2  -1 -22   24.07    2.02
   2  -1  22   25.99    2.06
  -2  -1 -22   22.05    1.88
   2  -1  22   22.72    1.77
  -2   1 -22   25.51    2.06
   2   1  22   21.23    2.02
   2   1  22   22.12    1.87
  -2   1 -22   22.68    1.95
   3  -1  22    7.66    1.01
  -3  -1 -22    9.77    1.29
   3  -1  22    6.69    1.19
  -3   1 -22    7.24    1.36
   3   1  22    4.98    1.23
   4  -1  22    0.89    0.56
  -4  -1 -22    1.33    0.69
   4   1  22    1.27    0.47
   4   1  22    0.34    0.51
  -4   1 -22    0.68    0.41
   5  -1  22    0.46    0.54
  -5  -1 -22    0.83    0.54
   5   1  22    0.50    0.56
  -5   1 -22    0.77    0.46
   6  -1  22   -1.05    0.49
  -6  -1 -22    1.16    0.73
  -6   1 -22    0.01    0.54
   6   1  22   -0.86    0.61
   7  -2 -22    3.20    0.90
  -7  -2  22    1.57    0.86
  -7   2  22    1.88    0.96
   7   2 -22    1.11    0.75
   6  -2 -22   21.03    1.83
  -6  -2  22   17.83    2.07
   6   2 -22   21.43    2.23
  -6   2  22   18.21    2.16
   5  -2 -22   27.96    2.11
  -5  -2  22   30.23    2.49
   5  -2 -22   28.47    2.04
  -5   2  22   31.39    2.69
   5   2 -22   28.06    2.49
   4  -2 -22   12.71    1.37
  -4  -2  22   11.17    1.40
   4  -2 -22   12.01    1.23
  -4  -2  22    9.46    1.50
  -4   2  22   11.41    1.49
   4   2 -22   13.13    2.33
   3  -2 -22    8.52    0.97
   3  -2 -22    8.46    1.10
  -3  -2  22    8.17    1.31
  -3   2  22    7.87    1.37
  -2  -2  22   20.92    1.64
  -2  -2  22   21.49    1.76
   2  -2 -22   20.39    1.59
   2  -2 -22   22.38    1.59
  -2   2  22   18.79    1.76
  -2   2  22   21.23    1.69
   2   2 -22   18.48    1.78
   2   2 -22   19.38    1.71
  -1  -2  22    0.35    0.34
  -1  -2  22    0.36    0.24
   1  -2 -22    0.36    0.38
   1  -2 -22    0.48    0.32
   1   2 -22    0.35    0.33
  -1   2  22    0.37    0.32
   1   2 -22    0.31    0.30
  -1   2  22    0.58    0.38
   0  -2  22   70.93    3.41
   0  -2  22   64.83    3.18
   0  -2 -22   68.22    3.36
   0  -2 -22   64.68    3.30
   0   2  22   67.22    3.47
   0   2 -22   69.71    3.59
   0   2 -22   68.39    3.52
   0   2  22   68.19    3.70
   1  -2  22   72.69    3.31
   1  -2  22   76.10    3.55
  -1  -2 -22   72.16    3.58
  -1  -2 -22   65.49    3.44
  -1   2 -22   79.72    3.77
   1   2  22   70.41    3.89
   1   2  22   64.61    3.54
  -1   2 -22   67.41    3.63
   2  -2  22   -0.07    0.32
   2  -2  22    0.68    0.41
  -2  -2 -22    0.71    0.37
  -2  -2 -22    0.76    0.48
   2  -2  22    1.24    0.49
  -2   2 -22    0.43    0.34
   2   2  22    0.52    0.51
   3  -2  22    5.87    1.06
  -3  -2 -22    6.00    1.15
   3  -2  22    7.19    1.12
  -3   2 -22    6.58    1.31
   3   2  22    5.76    1.90
   4  -2  22    6.92    1.06
  -4  -2 -22    6.17    1.27
   4  -2  22    5.56    1.08
  -4   2 -22    6.19    1.27
   4   2  22    5.16    1.18
   4   2  22    6.87    1.53
  -5  -2 -22    6.45    1.41
   5  -2  22    6.28    1.11
  -5   2 -22    7.23    1.52
   5   2  22    6.50    1.31
   5   2  22    8.16    1.88
  -6  -2 -22   10.32    2.02
   6  -2  22   12.26    1.61
   6   2  22   12.66    2.23
   6  -3 -22    3.34    0.77
  -6  -3  22    2.58    0.92
  -6   3  22    4.31    1.26
   6   3 -22    2.04    0.75
  -5  -3  22   -0.34    0.66
   5  -3 -22   -0.18    0.40
  -5   3  22   -0.26    0.48
   5   3 -22   -0.26    0.39
   4  -3 -22    1.43    0.48
  -4  -3  22    2.54    0.76
  -4  -3  22    2.04    0.77
  -4   3  22    2.54    0.84
   4   3 -22    2.15    0.65
  -3  -3  22    2.75    0.72
   3  -3 -22    1.16    0.43
   3  -3 -22    2.18    0.52
  -3  -3  22    1.01    0.50
   3   3 -22    1.08    0.52
  -3   3  22    1.49    0.63
   2  -3 -22    0.51    0.35
  -2  -3  22    0.33    0.39
   2  -3 -22    1.27    0.39
  -2  -3  22    0.67    0.45
   2   3 -22    0.79    0.46
  -2   3  22    0.19    0.42
  -1  -3  22    0.39    0.29
  -1  -3  22    0.30    0.33
   1   3 -22    0.31    0.28
   1   3 -22   -0.68    0.54
  -1   3  22   -0.13    0.25
  -1   3  22   -0.13    0.36
   0  -3  22    0.13    0.47
   0  -3  22    0.05    0.32
   0  -3  22    0.36    0.30
   0  -3 -22    0.31    0.31
   0  -3 -22    0.11    0.28
   0   3  22    0.10    0.33
   0   3 -22    1.13    0.44
   0   3 -22    0.85    0.42
   1  -3  22    1.79    0.43
  -1  -3 -22    1.49    0.51
   1  -3  22    2.02    0.47
  -1  -3 -22    0.95    0.51
   1  -3  22    1.94    1.19
  -1   3 -22    1.91    0.58
   1   3  22    2.01    0.77
  -2  -3 -22   -0.44    0.39
   2  -3  22    0.89    0.36
  -2  -3 -22    0.03    0.33
   2  -3  22   -0.13    0.31
   2  -3  22   -0.32    0.44
   2   3  22   -1.06    0.44
  -2   3 -22    0.03    0.28
   3  -3  22    2.40    0.80
   3  -3  22    2.55    0.52
  -3  -3 -22    2.63    0.72
  -3  -3 -22    2.66    0.72
   3   3  22    2.14    0.92
  -3   3 -22    2.21    0.81
  -4  -3 -22   -0.17    0.44
  -4   3 -22   -1.05    0.44
   4   3  22    1.04    0.70
   4   3  22    0.21    0.56
  -5  -3 -22    1.70    0.84
  -5   3 -22    2.02    0.92
   5   3  22    2.75    0.99
   5   3  22    2.40    1.03
  -5  -4  22   20.49    1.79
  -5   4  22   17.63    2.13
   5   4 -22   20.89    2.21
  -4  -4  22    0.78    0.77
  -4  -4  22    2.76    0.69
  -4   4  22    3.36    1.07
   4   4 -22    4.38    1.02
   3   4 -22    1.48    0.66
  -3   4  22    2.33    0.87
   2   4 -22   35.24    2.55
  -2   4  22   37.18    2.68
  -1   4  22   11.42    1.41
   1   4 -22    6.99    1.18
   0   4 -22    6.13    1.10
   0   4  22    6.72    1.27
  -1   4 -22   19.38    1.82
   1   4  22   20.06    2.16
  -2   4 -22    8.52    1.36
   2   4  22    7.73    1.53
  -3  -4 -22   -0.97    0.63
  -3  -4 -22    1.28    0.63
   3   4  22    0.85    0.74
   3   4  22    2.46    1.22
  -3   4 -22    2.67    0.83
  -4  -4 -22   48.95    2.89
  -4   4 -22   48.55    3.41
   4   4  22   53.82    4.03
   4   4  22   42.68    4.32
  -3   5  22    0.07    0.66
  -2   5  22    1.14    0.72
   2   5 -22    1.77    0.67
   1   5 -22    1.81    0.74
   0   5  22    1.37    0.83
   1   5  22    1.10    0.95
   1   5  22    0.56    0.79
   2   5  22    0.75    1.00
  -2   5 -22    0.42    0.68
   2   5  22   -0.09    0.75
  -7   0  23   -1.24    0.54
   6   0 -23   -0.19    0.35
   5   0 -23    0.64    0.41
  -5   0  23   -0.55    0.33
  -4   0  23   -0.38    0.24
   4   0 -23    0.44    0.34
  -3   0  23    0.45    0.33
   3   0 -23   -0.27    0.30
  -3   0  23   -0.30    0.24
   3   0 -23   -0.14    0.25
   2   0 -23    0.33    0.37
  -2   0  23    0.11    0.25
   2   0 -23   -0.18    0.21
  -1   0  23    0.28    0.31
   1   0 -23    0.58    0.32
   0   0  23    0.04    0.24
   0   0 -23    0.21    0.25
   0   0 -23    0.15    0.44
   1   0  23   -0.44    0.27
   1   0  23    0.71    0.42
  -1   0 -23   -0.09    0.28
  -1   0 -23    0.17    0.27
  -2   0 -23    0.52    0.32
   2   0  23   -0.56    0.31
   2   0  23   -0.03    0.36
  -2   0 -23    0.08    0.40
   3   0  23    0.18    0.38
  -3   0 -23    0.55    0.35
  -4   0 -23   -0.47    0.38
   4   0  23    0.27    0.41
   5   0  23   -0.44    0.43
  -5   0 -23    0.58    0.55
   6   0  23    1.21    0.68
  -6   0 -23    0.26    0.62
   7  -1 -23   23.39    2.31
  -7  -1  23   23.21    2.54
  -7   1  23   25.44    2.77
   7   1 -23   24.94    2.50
  -6  -1  23    0.52    0.56
   6  -1 -23    2.30    0.67
   6   1 -23    1.27    0.56
  -6   1  23   -0.23    0.68
   5  -1 -23   15.53    1.60
  -5  -1  23   18.14    1.96
   5   1 -23   15.59    1.72
  -5   1  23   13.79    1.82
  -4  -1  23   15.47    1.69
   4  -1 -23   13.88    1.48
   4  -1 -23   14.78    1.58
  -4   1  23   13.42    1.67
   4   1 -23   16.12    1.67
  -3  -1  23   18.11    1.73
  -3  -1  23   18.63    1.82
   3  -1 -23   18.17    1.65
   3  -1 -23   19.02    1.63
  -3   1  23   17.68    1.79
   3   1 -23   19.79    1.79
  -2  -1  23   20.09    1.77
   2  -1 -23   19.02    1.60
   2  -1 -23   18.86    1.66
   2   1 -23   19.06    1.78
  -2   1  23   17.03    1.60
  -2   1  23   18.88    1.78
   2   1 -23   18.65    1.67
  -1  -1  23   29.84    2.12
   1  -1 -23   33.00    2.24
  -1  -1  23   29.68    2.20
   1  -1 -23   35.22    2.27
   1   1 -23   31.88    2.24
   1   1 -23   35.41    2.47
  -1   1  23   33.08    2.41
   0  -1  23   13.49    1.44
   0  -1  23   13.45    1.32
   0  -1 -23   14.62    1.44
   0  -1 -23   16.70    1.51
   0   1 -23   14.86    1.49
   0   1 -23   15.70    1.52
   0   1  23   15.66    1.40
   0   1  23   17.13    1.69
   1  -1  23   22.31    1.87
  -1  -1 -23   18.62    1.72
  -1  -1 -23   20.39    1.77
  -1   1 -23   19.23    1.75
   1   1  23   18.23    1.63
  -1   1 -23   19.17    1.73
   1   1  23   21.01    1.91
   2  -1  23   14.11    1.56
  -2  -1 -23   14.23    1.51
   2  -1  23   12.86    1.36
  -2  -1 -23   14.33    1.52
  -2   1 -23   14.99    1.57
   2   1  23   11.43    1.50
   3  -1  23   48.87    3.22
  -3  -1 -23   53.87    3.42
   3  -1  23   54.16    3.04
   3   1  23   50.55    3.55
  -3   1 -23   53.33    3.38
   4  -1  23   13.26    1.53
  -4  -1 -23   11.45    1.88
   4   1  23    9.23    1.72
   4   1  23    6.37    1.22
  -4   1 -23    9.36    1.63
  -5  -1 -23    6.55    1.38
   5  -1  23    2.63    0.93
  -5   1 -23    4.23    1.05
   5   1  23    3.83    1.15
   6  -1  23    0.03    0.68
  -6  -1 -23    0.04    0.66
   6   1  23    0.26    0.87
  -7  -2  23    0.56    0.75
   7  -2 -23    0.25    0.69
   7   2 -23    0.82    0.65
   6  -2 -23    0.42    0.45
  -6  -2  23   -0.21    0.55
   6   2 -23    0.05    0.52
  -6   2  23    0.20    0.54
   5  -2 -23   11.48    1.49
  -5  -2  23   12.75    1.66
   5  -2 -23    9.86    1.23
   5   2 -23   11.25    1.81
  -5   2  23    9.05    1.53
  -4  -2  23    0.08    0.46
   4  -2 -23    0.72    0.47
   4  -2 -23   -0.66    0.45
  -4   2  23   -0.04    0.39
   4   2 -23    0.23    0.43
   3  -2 -23   -0.24    0.22
  -3  -2  23   -0.18    0.47
  -3  -2  23    0.46    0.42
  -3   2  23   -0.44    0.20
   3   2 -23    0.01    0.21
  -2  -2  23    1.58    0.61
   2  -2 -23    1.43    0.44
  -2  -2  23    1.14    0.48
   2  -2 -23    0.71    0.48
   2   2 -23    0.90    0.48
  -2   2  23    0.81    0.42
  -2   2  23    1.34    0.52
   1  -2 -23    8.66    1.03
  -1  -2  23    9.85    1.06
   1  -2 -23   10.14    1.13
  -1  -2  23    9.65    1.12
  -1   2  23    8.08    1.34
  -1   2  23    7.82    1.04
   1   2 -23    8.66    1.13
   1   2 -23    8.67    1.13
   0  -2 -23    1.19    0.48
   0  -2  23    0.73    0.45
   0  -2 -23    1.59    0.48
   0  -2  23    0.20    0.27
   0   2  23    1.51    0.49
   0   2 -23    0.78    0.39
   0   2  23    1.06    0.57
   0   2 -23    0.30    0.35
   1  -2  23    3.39    0.74
   1  -2  23    4.40    0.78
  -1  -2 -23    3.82    0.85
  -1  -2 -23    3.00    0.70
   1   2  23    3.33    0.93
  -1   2 -23    3.58    0.96
  -1   2 -23    3.21    0.84
  -2  -2 -23   14.51    1.53
   2  -2  23   14.15    1.41
  -2  -2 -23   14.33    1.51
   2  -2  23   12.49    1.20
  -2   2 -23   12.39    1.45
   2   2  23   15.05    1.75
  -3  -2 -23    3.73    0.99
   3  -2  23    2.08    0.79
   3  -2  23    2.61    0.65
   3   2  23    2.26    0.89
  -3   2 -23    3.13    1.00
   4  -2  23    2.97    0.78
  -4  -2 -23    2.16    0.81
   4  -2  23    2.09    0.73
   4   2  23    2.34    0.95
  -4   2 -23    1.21    0.68
   4   2  23    2.73    0.98
   5  -2  23   -1.04    0.85
  -5  -2 -23    0.50    0.56
   5   2  23    0.46    0.63
  -5   2 -23    1.40    0.79
   5   2  23    1.19    0.66
  -6  -2 -23    0.70    0.99
   6  -2  23   -0.31    0.62
  -6   2 -23    0.81    0.67
   6   2  23   -0.22    0.75
   6  -3 -23   15.06    1.38
  -6  -3  23   11.97    1.80
  -6   3  23   13.07    2.05
   6   3 -23   17.01    2.11
  -5  -3  23    5.23    1.07
   5  -3 -23    0.47    0.85
   5  -3 -23    3.20    0.65
  -5   3  23    5.62    1.24
   5   3 -23    3.44    1.08
  -4  -3  23    8.72    1.31
   4  -3 -23    8.56    0.93
  -4  -3  23    9.71    1.28
  -4   3  23    7.33    1.35
   4   3 -23    8.09    1.46
   3  -3 -23   34.58    2.06
  -3  -3  23   32.48    2.18
  -3  -3  23   31.37    2.17
  -3   3  23   26.98    2.35
  -2  -3  23   78.72    3.58
   2  -3 -23   67.30    3.18
  -2  -3  23   71.95    3.42
   2   3 -23   72.43    3.87
  -2   3  23   84.12    4.23
  -1  -3  23    3.78    0.66
   1  -3 -23    3.56    0.68
  -1  -3  23    3.69    0.74
   1  -3 -23    2.74    0.56
  -1   3  23    3.89    0.98
   1   3 -23    3.97    0.93
   0  -3 -23    2.46    0.59
   0  -3  23    0.93    0.73
   0  -3 -23    2.86    0.61
   0  -3  23    1.26    0.46
   0   3 -23    1.88    0.63
   0   3  23    1.75    0.70
  -1  -3 -23   28.32    1.90
  -1  -3 -23   28.24    1.92
   1  -3  23   26.82    1.65
   1  -3  23   23.78    2.32
  -1   3 -23   25.90    2.11
   1   3  23   30.17    2.40
  -2  -3 -23    1.07    0.57
  -2  -3 -23    0.32    0.34
   2  -3  23    0.95    0.65
   2  -3  23    1.01    0.44
  -2   3 -23    0.22    0.30
   2   3  23    1.17    0.65
   3  -3  23    6.48    1.10
  -3  -3 -23    8.27    1.22
   3  -3  23    8.81    1.36
  -3  -3 -23   11.11    1.42
  -3   3 -23    8.36    1.48
   3   3  23   10.12    1.86
   4  -3  23   16.74    1.38
  -4  -3 -23   15.74    1.86
   4   3  23   20.32    2.44
   4   3  23   17.90    2.17
  -4   3 -23   20.27    2.08
  -5  -3 -23    2.19    0.84
   5   3  23    0.84    0.96
  -5   3 -23    3.10    0.94
  -5  -4  23   12.02    1.55
   5   4 -23    9.05    1.61
  -5   4  23    8.49    1.75
  -4  -4  23    0.17    0.74
  -4  -4  23    2.43    0.72
   4   4 -23    3.30    0.86
  -4   4  23    3.52    1.03
  -3   4  23    2.77    1.21
  -2   4  23   -0.47    0.46
   2   4 -23    0.96    0.58
   1   4 -23    1.88    0.70
  -1   4  23    0.82    0.65
   0   4 -23    0.57    0.48
   0   4  23    0.49    0.53
   1   4  23    6.96    1.46
  -1   4 -23    4.14    1.01
   2   4  23    2.95    1.03
  -2   4 -23    2.87    0.97
  -3  -4 -23    0.83    0.64
   3   4  23   -0.64    0.57
   3   4  23    1.54    1.04
  -3   4 -23   -0.48    0.47
  -4  -4 -23   -0.40    0.70
  -4   4 -23    0.57    0.57
   4   4  23   -0.60    0.87
   4   4  23   -1.10    0.87
  -3   5  23   44.13    3.27
  -2   5  23    9.64    1.70
   2   5 -23    9.01    1.49
   1   5 -23    3.54    0.91
  -1   5  23    2.92    1.04
   0   5  23    3.07    1.06
   0   5 -23    1.74    0.84
   1   5  23    0.56    0.71
   1   5  23   -0.29    0.78
  -1   5 -23    0.44    0.65
  -2   5 -23    1.25    0.85
   2   5  23    3.95    1.39
   2   5  23    4.21    1.26
  -7   0  24    4.30    1.17
   7   0 -24    3.27    1.11
   6   0 -24    0.35    0.45
  -6   0  24    0.78    0.57
  -5   0  24   54.52    3.73
   5   0 -24   51.47    3.32
  -4   0  24   61.85    3.83
   4   0 -24   59.58    3.50
   3   0 -24   57.95    3.79
  -3   0  24   63.95    3.74
   3   0 -24   69.55    3.63
  -2   0  24  105.13    4.91
   2   0 -24  114.63    5.13
  -2   0  24  103.01    5.03
   2   0 -24  109.27    4.89
   1   0 -24    2.62    0.73
   1   0 -24    2.89    0.79
  -1   0  24    1.91    0.64
  -1   0  24    2.88    0.65
   0   0 -24   20.23    1.75
   0   0  24   19.31    1.80
   0   0 -24   15.25    1.59
   1   0  24   56.81    3.45
   1   0  24   57.75    3.22
  -1   0 -24   56.36    3.33
  -1   0 -24   58.42    3.33
  -2   0 -24   28.58    2.26
   2   0  24   21.63    2.15
   3   0  24    2.67    0.89
  -4   0 -24   10.12    1.72
   4   0  24   11.21    1.84
  -5   0 -24    3.38    1.16
   5   0  24    6.25    1.37
   6   0  24    2.61    1.02
  -6   0 -24    4.16    1.49
  -7  -1  24   -0.12    0.70
   7  -1 -24    0.01    0.56
   7   1 -24   -0.74    0.58
   6  -1 -24    1.41    0.63
  -6  -1  24    1.80    0.94
   6   1 -24    0.55    0.40
  -6   1  24    0.74    0.95
  -5  -1  24    0.43    0.47
  -5   1  24    1.10    0.65
  -4  -1  24    0.13    0.37
   4  -1 -24    0.63    0.46
  -4   1  24    0.65    0.44
  -3  -1  24    0.39    0.41
   3  -1 -24    1.18    0.44
  -3  -1  24    0.31    0.42
   3  -1 -24    0.26    0.27
   3   1 -24    0.43    0.31
  -3   1  24    1.21    0.55
  -2  -1  24   13.16    1.43
   2  -1 -24   15.10    1.81
  -2  -1  24   14.38    1.52
   2  -1 -24   15.05    1.45
  -2   1  24   16.39    1.66
   2   1 -24   15.67    1.64
   2   1 -24   14.40    1.50
  -2   1  24   13.22    1.47
  -1  -1  24    0.61    0.41
   1  -1 -24    1.44    0.54
   1  -1 -24    1.70    0.58
   1   1 -24    0.73    0.57
   1   1 -24    1.30    0.50
  -1   1  24    0.67    0.44
  -1   1  24    1.88    0.71
   0  -1 -24    2.30    0.68
   0  -1  24    3.30    0.71
   0  -1  24    4.62    0.94
   0  -1 -24    4.20    0.92
   0   1  24    2.51    0.77
   0   1 -24    3.07    0.80
   0   1 -24    2.90    0.72
   0   1  24    3.10    0.75
  -1  -1 -24   13.26    1.48
  -1  -1 -24   14.83    1.54
   1  -1  24   14.59    1.55
  -1   1 -24   16.74    1.62
   1   1  24   15.97    1.73
  -1   1 -24   14.74    1.86
  -2  -1 -24    2.92    0.81
   2  -1  24    2.35    0.65
   2  -1  24    1.97    0.75
  -2   1 -24    2.43    0.75
   2   1  24    2.38    0.81
  -3  -1 -24   18.07    3.12
   3  -1  24   15.21    1.76
   3   1  24   19.95    2.12
  -3   1 -24   14.76    2.93
   4  -1  24    0.66    0.56
  -4  -1 -24   -0.17    0.45
  -4   1 -24    0.13    0.47
   4   1  24    1.07    0.54
   4   1  24   -0.02    0.58
  -5  -1 -24    0.78    0.57
   5  -1  24   -0.74    0.48
  -5   1 -24    0.08    0.50
   5   1  24    0.31    0.55
  -6  -1 -24    1.44    0.86
   6  -1  24    0.40    0.73
  -6   1 -24    0.17    0.61
   6   1  24   -0.26    0.72
  -7  -2  24    0.87    1.03
   7  -2 -24   -1.43    0.59
   7   2 -24    1.17    0.76
  -7   2  24   -0.39    0.76
   6  -2 -24   25.91    2.21
  -6  -2  24   22.52    2.36
  -6   2  24   25.89    2.62
   6   2 -24   21.91    2.39
   5  -2 -24   18.62    1.91
  -5  -2  24   20.36    2.14
   5  -2 -24   21.31    1.80
   5   2 -24   22.41    2.19
  -5   2  24   22.72    2.35
   4  -2 -24   24.17    1.82
   4  -2 -24   25.26    2.80
  -4  -2  24   19.59    1.99
  -4   2  24   24.76    2.40
   3  -2 -24    3.45    0.74
  -3  -2  24    3.05    0.79
  -3  -2  24    3.46    0.85
   3  -2 -24    1.57    0.62
  -3   2  24    2.10    0.79
   3   2 -24    2.93    0.77
   2  -2 -24    2.35    0.59
  -2  -2  24    1.90    0.57
   2  -2 -24    2.86    0.74
  -2  -2  24    2.09    0.59
  -2   2  24    2.58    0.81
   2   2 -24    2.78    0.69
   1  -2 -24    1.55    0.55
  -1  -2  24    1.36    0.48
  -1  -2  24    1.23    0.50
   1  -2 -24    1.54    0.54
   1   2 -24    1.87    0.64
  -1   2  24    1.61    0.70
   0  -2  24   35.49    2.35
   0  -2  24   37.58    2.29
   0  -2 -24   37.04    2.34
   0  -2 -24   37.70    2.41
   0   2  24   34.16    2.61
   0   2 -24   37.76    2.51
   1  -2  24    8.37    1.01
   1  -2  24    8.83    1.11
  -1  -2 -24    7.47    1.37
  -1  -2 -24    9.95    1.25
  -1   2 -24    9.50    1.22
   1   2  24    8.77    1.55
   2  -2  24   64.97    3.31
  -2  -2 -24   69.65    3.68
   2  -2  24   70.39    3.65
  -2  -2 -24   69.44    3.81
   2   2  24   67.62    4.28
  -2   2 -24   71.58    3.89
  -3  -2 -24    0.30    0.46
   3  -2  24    0.06    0.42
   3  -2  24    0.49    0.42
  -3   2 -24    0.08    0.33
   3   2  24   -0.25    0.48
   4  -2  24   11.13    1.34
   4  -2  24   11.36    1.39
  -4  -2 -24   10.04    1.67
   4   2  24    6.10    1.37
   4   2  24   11.71    1.61
  -4   2 -24    7.11    1.48
  -5  -2 -24    0.84    0.60
   5  -2  24    1.31    0.67
  -5   2 -24    0.06    0.64
   5   2  24    1.16    0.73
   5   2  24    2.50    1.09
   6  -3 -24    2.73    0.82
  -6  -3  24    2.67    1.03
  -6   3  24    4.28    1.25
   6   3 -24    3.43    1.47
  -5  -3  24    2.02    0.78
   5  -3 -24    0.11    0.48
   5  -3 -24   -0.90    0.57
  -5   3  24    1.96    0.98
   5   3 -24    0.81    0.70
  -4  -3  24    3.66    1.01
  -4  -3  24    4.23    1.02
   4  -3 -24    2.45    0.62
   4  -3 -24    2.89    0.74
  -4   3  24    4.02    1.02
   4   3 -24    3.28    0.82
   3  -3 -24    0.41    0.33
   3  -3 -24    1.07    0.46
  -3  -3  24   -0.52    0.35
  -3  -3  24    0.40    0.50
  -3   3  24    0.11    0.44
   3   3 -24    0.51    0.38
  -2  -3  24    2.59    0.72
   2  -3 -24    1.56    0.50
  -2  -3  24    2.08    0.56
   2  -3 -24    1.16    0.44
   2   3 -24    2.25    0.66
  -2   3  24    2.52    0.77
  -1  -3  24    1.06    0.47
   1  -3 -24    0.83    0.45
   1  -3 -24    0.10    0.35
  -1  -3  24    1.13    0.45
  -1   3  24   -0.43    0.32
   1   3 -24   -0.14    0.32
   0  -3 -24    0.63    0.42
   0  -3  24    0.38    0.40
   0  -3 -24    0.79    0.50
   0  -3  24    0.27    0.39
   0   3  24    0.25    0.47
   0   3 -24    0.34    0.43
   1  -3  24    0.61    0.57
  -1  -3 -24    1.03    0.41
   1  -3  24    0.98    0.63
  -1  -3 -24    0.63    0.43
   1  -3  24    0.15    0.33
  -1   3 -24   -0.05    0.36
   1   3  24    0.02    0.40
   2  -3  24   -0.32    0.53
   2  -3  24    0.19    0.39
  -2  -3 -24    1.14    0.44
  -2   3 -24    0.38    0.40
   2   3  24    0.44    0.57
   3  -3  24    0.46    0.39
  -3  -3 -24   -0.50    0.46
   3   3  24    0.25    0.59
  -3   3 -24    0.48    0.51
   4  -3  24   -0.52    0.47
  -4  -3 -24   -0.10    0.58
   4  -3  24   -0.79    0.86
   4   3  24   -0.05    0.73
  -4   3 -24   -0.18    0.49
   4   3  24    1.29    0.67
  -5  -3 -24    2.22    0.90
   5   3  24    0.55    1.04
   5   3  24    2.57    1.00
  -5   3 -24   -0.03    0.83
  -5  -4  24    0.57    0.77
  -5   4  24    1.06    0.87
   5   4 -24    0.51    0.65
  -4  -4  24    6.56    1.03
   4   4 -24   10.32    1.70
  -4   4  24    8.11    1.61
  -3   4  24    6.33    1.32
   3   4 -24    4.85    1.14
  -2   4  24    4.22    1.58
   2   4 -24    3.49    0.91
  -1   4  24   10.08    2.32
   0   4 -24   27.22    2.34
   0   4  24   27.78    2.58
   1   4  24   12.84    1.96
  -2   4 -24    0.26    0.51
   2   4  24    1.08    0.86
  -3  -4 -24    5.89    1.03
   3   4  24    3.64    1.18
  -3   4 -24    5.78    1.23
   3   4  24    7.32    2.05
   4   4  24   -0.43    1.05
   4   4  24    1.16    1.14
  -4   4 -24   -0.11    0.69
   3   5 -24    0.11    0.71
  -3   5  24    1.15    0.83
   2   5 -24    1.32    0.86
  -2   5  24    3.40    1.05
   1   5 -24    1.44    0.65
  -1   5  24   -0.03    0.70
   0   5 -24    0.65    0.55
   0   5  24    0.28    0.72
   1   5  24   -0.09    0.77
  -1   5 -24    0.36    0.57
   7   0 -25   -0.55    0.49
  -7   0  25    0.27    1.20
   6   0 -25    0.20    0.44
  -6   0  25    0.88    0.54
   5   0 -25    0.27    0.45
  -5   0  25    0.04    0.40
  -4   0  25   -0.20    0.33
   4   0 -25    0.19    0.40
  -3   0  25   -0.06    0.26
  -2   0  25    0.57    0.39
   2   0 -25   -0.37    0.34
   2   0 -25    0.02    0.21
  -2   0  25    0.00    0.25
  -1   0  25   -0.47    0.26
  -1   0  25   -0.23    0.29
   1   0 -25   -0.02    0.25
   1   0 -25    0.43    0.37
   0   0  25    0.48    0.41
   0   0 -25    0.41    0.35
   0   0 -25    0.38    0.31
  -1   0 -25    0.31    0.31
   1   0  25    0.13    0.36
   1   0  25    0.88    0.43
  -2   0 -25    0.02    0.26
   2   0  25   -0.32    0.38
  -3   0 -25   -0.05    0.34
   3   0  25    0.59    0.47
   4   0  25   -0.34    0.37
  -4   0 -25    0.08    0.48
  -5   0 -25   -0.53    0.56
   5   0  25    0.46    0.54
   6   0  25   -1.12    1.04
  -6   0 -25    0.95    0.85
   7  -1 -25    8.35    1.44
  -7   1  25    7.08    1.73
  -6  -1  25    8.58    1.62
   6  -1 -25   11.08    1.45
  -6   1  25    9.83    1.82
  -5  -1  25    1.80    0.75
   5  -1 -25    0.13    0.53
  -5   1  25    0.01    0.50
   5   1 -25    1.55    0.72
   4  -1 -25    0.05    0.28
   4   1 -25    0.02    0.33
  -4   1  25    0.52    0.49
  -3  -1  25   40.71    2.83
   3  -1 -25   36.12    2.57
   3  -1 -25   41.32    2.66
   3   1 -25   42.01    2.81
  -3   1  25   41.50    2.96
  -2  -1  25   16.26    1.59
  -2  -1  25   11.03    1.35
   2  -1 -25    9.71    1.28
   2  -1 -25   12.49    1.34
   2   1 -25   12.58    1.47
  -2   1  25   14.97    1.64
  -1  -1  25   69.56    3.75
   1  -1 -25   65.75    3.53
   1  -1 -25   65.31    3.57
  -1  -1  25   72.44    3.69
  -1   1  25   69.71    3.92
   1   1 -25   70.74    3.74
   0  -1 -25    1.14    0.45
   0  -1 -25    0.44    0.39
   0  -1  25    0.95    0.45
   0  -1  25   -0.14    0.30
   0   1 -25    0.27    0.31
   0   1  25    0.62    0.39
   1  -1  25    1.70    0.47
  -1  -1 -25    0.61    0.38
   1  -1  25    1.11    0.58
  -1  -1 -25    0.98    0.44
   1   1  25    0.42    0.47
  -1   1 -25    0.66    0.41
   2  -1  25    0.02    0.40
   2  -1  25    1.56    0.54
  -2  -1 -25    0.52    0.38
  -2   1 -25    2.29    0.75
   2   1  25    1.00    0.56
  -3  -1 -25    6.17    1.34
   3  -1  25    4.69    1.11
   3   1  25    5.23    1.31
  -3   1 -25    6.52    1.32
  -4  -1 -25   21.19    2.19
   4  -1  25   18.90    1.95
  -4   1 -25   18.14    2.04
   4   1  25   20.69    2.35
   5  -1  25   36.39    2.93
  -5  -1 -25   33.75    3.02
   5   1  25   31.11    3.09
  -5   1 -25   36.15    3.11
   6  -1  25   -0.31    0.67
  -6  -1 -25    0.53    0.75
  -6   1 -25    0.11    0.71
   6   1  25   -0.41    0.76
   6  -2 -25    0.51    0.54
  -6  -2  25    1.08    0.73
   6   2 -25    0.23    0.54
  -6   2  25    0.86    0.66
  -5  -2  25    1.18    0.72
   5  -2 -25    1.43    0.61
   5   2 -25    1.23    0.60
  -5   2  25    0.30    0.65
  -4  -2  25    2.96    0.96
   4  -2 -25    2.02    0.66
   4  -2 -25    2.16    0.68
  -4   2  25    2.82    0.99
   4   2 -25    2.89    0.87
  -3  -2  25    1.43    0.67
   3  -2 -25    1.73    0.62
   3  -2 -25    2.75    0.72
  -3  -2  25    2.31    0.72
   3   2 -25    2.92    1.11
  -3   2  25    2.14    0.81
  -2  -2  25    1.80    0.64
  -2  -2  25    1.21    0.52
   2  -2 -25    0.92    0.41
   2  -2 -25    0.86    0.49
   2   2 -25    0.75    0.40
  -2   2  25    0.72    0.48
   1  -2 -25    0.74    0.47
  -1  -2  25    0.47    0.40
  -1  -2  25    0.89    0.49
   1  -2 -25    0.26    0.31
   1   2 -25    0.60    0.36
  -1   2  25    1.37    0.60
   0  -2  25   -0.29    0.32
   0  -2 -25    0.41    0.40
   0  -2  25   -0.79    0.29
   0  -2 -25    0.72    0.44
   0   2 -25    0.15    0.32
   0   2  25   -0.71    0.27
  -1  -2 -25   13.04    1.33
   1  -2  25   12.30    1.35
   1  -2  25    9.78    1.13
  -1  -2 -25   10.27    1.28
  -1   2 -25   12.74    1.48
   1   2  25    9.94    1.69
   2  -2  25    3.52    0.81
   2  -2  25    3.98    0.77
  -2  -2 -25    3.24    0.87
  -2   2 -25    3.93    1.05
   2   2  25    4.90    1.22
   3  -2  25    0.00    0.45
   3  -2  25    0.08    0.43
  -3  -2 -25   -0.51    0.39
   3  -2  25    0.41    0.42
   3   2  25    0.33    0.51
  -3   2 -25   -0.12    0.37
   4  -2  25    2.50    0.84
  -4  -2 -25    3.93    1.06
   4   2  25    6.29    1.46
  -4   2 -25    3.88    1.12
   4   2  25    3.63    1.21
  -5  -2 -25   -0.48    0.56
   5  -2  25    0.31    0.55
   5   2  25    1.34    0.88
   5   2  25    1.52    0.85
  -5   2 -25    0.65    0.71
   6  -3 -25   19.58    1.66
  -6  -3  25   19.77    2.32
  -6   3  25   20.45    2.46
   6   3 -25   23.66    2.44
  -5  -3  25    0.36    0.56
   5  -3 -25    1.28    0.55
   5  -3 -25   -0.29    0.83
  -5   3  25   -0.86    0.57
   4  -3 -25    3.03    0.70
  -4  -3  25    2.23    0.79
   4  -3 -25    1.64    0.69
  -4   3  25    1.93    0.86
  -3  -3  25   14.05    1.48
   3  -3 -25   14.41    1.28
   3  -3 -25   15.24    1.32
   3   3 -25   14.53    1.71
  -3   3  25   16.48    1.83
   2  -3 -25   17.65    1.40
  -2  -3  25   16.56    1.52
  -2  -3  25   18.36    1.58
   2  -3 -25   17.19    1.43
  -2   3  25   16.91    1.86
  -1  -3  25   18.14    1.46
   1  -3 -25   16.14    1.37
   1  -3 -25   16.38    1.37
  -1  -3  25   16.72    1.48
   1   3 -25   16.43    1.67
  -1   3  25   16.52    1.79
   0  -3  25   71.18    3.26
   0  -3 -25   69.32    3.32
   0  -3  25   65.14    3.06
   0  -3 -25   62.03    3.18
   0   3  25   62.57    3.88
   0   3 -25   69.54    3.75
   1  -3  25    3.16    1.02
   1  -3  25    2.91    0.64
   1  -3  25    2.67    0.66
  -1  -3 -25    3.17    0.80
  -1  -3 -25    2.41    0.71
   1   3  25    1.35    0.68
  -1   3 -25    1.12    0.52
  -2  -3 -25   12.47    1.41
   2  -3  25   12.04    1.19
  -2  -3 -25   11.82    1.36
   2  -3  25   10.69    1.08
   2   3  25    9.18    1.70
  -2   3 -25    8.72    1.46
  -3  -3 -25   30.21    2.55
   3  -3  25   35.35    2.04
   3   3  25   36.45    3.14
  -3   3 -25   35.82    2.80
   4  -3  25   -0.36    0.56
   4   3  25   -0.52    0.63
  -4   3 -25   -0.34    0.53
   4   3  25    0.44    0.82
  -4  -4  25    1.15    0.64
  -4   4  25    0.15    0.71
   3   4 -25   10.59    1.72
  -3   4  25    7.83    1.48
  -2   4  25    3.09    0.97
   2   4 -25    4.14    1.09
   1   4 -25    6.07    1.20
  -1   4  25    5.48    1.23
   0   4  25    2.06    0.85
   0   4 -25    2.94    0.88
  -1   4 -25   -0.69    0.38
   1   4  25    0.28    0.62
  -2  -4 -25   -0.23    0.49
   2   4  25   -0.01    0.69
  -2   4 -25   -0.84    0.50
  -3  -4 -25    1.53    0.74
   3   4  25    0.46    0.90
   3   4  25    1.96    1.02
  -3   4 -25    0.85    0.68
   2   5 -25    2.29    0.80
  -2   5  25    1.26    0.81
  -1   5  25   26.66    2.62
   1   5 -25   28.69    2.45
   0   5 -25    6.83    1.31
   0   5  25    9.01    1.64
   1   5  25    1.64    0.92
  -1   5 -25    1.24    0.82
   7   0 -26   -0.11    0.64
  -7   0  26    0.95    0.76
  -6   0  26   29.04    2.88
   6   0 -26   28.66    2.54
  -5   0  26    0.32    0.65
   5   0 -26    0.47    0.57
   4   0 -26    0.56    0.56
  -4   0  26    2.00    0.66
  -3   0  26   42.41    3.07
   3   0 -26   44.63    2.91
  -2   0  26  129.33    5.95
   2   0 -26  133.56    5.78
   1   0 -26    2.99    0.84
  -1   0  26    1.61    0.61
   0   0 -26  127.24    5.63
   0   0  26  123.81    5.73
  -1   0 -26   14.38    1.64
   1   0  26   16.98    1.82
   2   0  26    1.84    0.73
  -2   0 -26    2.86    0.81
   3   0  26   36.36    2.98
  -3   0 -26   38.80    2.98
   4   0  26   -0.49    0.52
  -4   0 -26    1.40    0.68
  -5   0 -26    0.79    0.73
   5   0  26    0.75    0.71
  -7  -1  26   -0.19    0.66
   7  -1 -26    0.47    0.59
  -7   1  26   -0.03    0.71
   6  -1 -26    0.07    0.44
  -6   1  26   -1.13    0.51
   6   1 -26    0.30    0.57
  -5  -1  26    0.54    0.45
   5  -1 -26    0.60    0.46
  -5   1  26    0.87    0.67
   5   1 -26    0.62    0.45
  -4  -1  26    0.49    0.47
   4  -1 -26    0.42    0.34
   4   1 -26   -0.02    0.41
  -4   1  26   -0.04    0.35
  -3  -1  26    1.75    0.64
   3  -1 -26    2.42    0.64
  -3   1  26    1.36    0.65
   3   1 -26    3.28    1.01
  -2  -1  26    0.84    0.45
  -2  -1  26    1.35    0.91
   2  -1 -26    0.18    0.37
   2  -1 -26    2.29    0.68
  -2   1  26    0.13    0.31
   2   1 -26    0.42    0.47
   1  -1 -26   16.55    1.56
  -1  -1  26   15.50    1.68
   1  -1 -26   13.54    1.47
  -1  -1  26   14.56    1.45
   1   1 -26   17.47    1.72
  -1   1  26   14.01    1.65
   0  -1  26    0.47    0.38
   0  -1 -26   -0.14    0.28
   0  -1 -26    0.20    0.42
   0  -1  26    0.99    0.47
   0   1  26    0.00    0.38
   0   1 -26    0.22    0.33
  -1  -1 -26    2.90    0.75
   1  -1  26    0.72    0.43
   1  -1  26    1.29    0.59
  -1   1 -26    1.80    0.65
   1   1  26    2.84    0.88
  -2  -1 -26   -0.08    0.33
   2  -1  26   -0.14    0.39
   2   1  26    0.38    0.35
   3  -1  26    1.00    0.89
  -3  -1 -26    0.73    0.49
   3   1  26    0.77    0.53
  -3   1 -26    0.59    0.39
  -4  -1 -26    5.40    1.29
   4  -1  26    2.96    0.88
  -4   1 -26    3.94    1.08
   4   1  26    4.55    1.30
   5  -1  26    3.32    0.98
  -5  -1 -26    1.02    0.85
   5   1  26    5.18    1.31
  -5   1 -26    0.91    0.91
   6  -2 -26    5.56    1.11
  -6  -2  26    4.11    1.13
  -6   2  26    5.83    1.47
   6   2 -26    3.15    0.92
   5  -2 -26    4.77    0.99
  -5  -2  26    4.92    1.28
  -5   2  26    5.96    1.37
   4  -2 -26   47.28    2.84
   4  -2 -26   47.66    2.97
  -4  -2  26   48.11    3.27
  -4   2  26   50.78    3.50
   4   2 -26   47.32    3.31
  -3  -2  26   25.42    2.19
   3  -2 -26   28.84    2.06
   3  -2 -26   25.67    2.01
  -3   2  26   24.94    2.59
   3   2 -26   30.02    2.42
  -2  -2  26    0.99    0.50
   2  -2 -26    0.26    0.29
  -2  -2  26    0.97    0.53
  -2   2  26    0.48    0.44
   2   2 -26    0.11    0.40
  -1  -2  26    0.37    0.43
   1  -2 -26   -0.38    0.23
  -1  -2  26    0.13    0.36
  -1   2  26   -0.32    0.31
   1   2 -26   -0.16    0.23
   0  -2 -26    5.56    1.07
   0  -2 -26    5.89    1.09
   0  -2  26    4.62    0.98
   0  -2  26    5.77    1.12
   0   2 -26    4.96    1.06
   0   2  26    6.18    1.22
   1  -2  26    6.47    1.16
  -1  -2 -26    4.43    0.94
  -1  -2 -26    5.62    1.12
  -1   2 -26    5.45    1.13
  -2  -2 -26   60.13    3.62
   2  -2  26   65.36    3.60
   2  -2  26   61.82    3.27
   2   2  26   68.01    4.18
  -2   2 -26   61.74    3.77
   3  -2  26    2.41    0.75
   3  -2  26    1.21    0.66
   3  -2  26    2.33    0.81
  -3  -2 -26    1.52    0.74
   3   2  26    1.86    0.95
  -3   2 -26    1.48    0.72
  -4  -2 -26    1.00    0.78
  -4   2 -26    4.41    1.12
   4   2  26    3.14    1.15
   4   2  26    3.90    1.24
   5  -2  26    1.34    0.83
  -5  -2 -26    3.05    0.95
  -5   2 -26    0.96    0.92
   5   2  26    2.52    1.14
   5   2  26    1.85    1.12
  -5  -3  26   -0.80    0.53
   5  -3 -26    0.41    0.60
   5   3 -26    0.18    0.49
  -5   3  26   -0.19    0.53
   4  -3 -26   -0.08    0.58
  -4  -3  26    1.50    0.55
   4  -3 -26    1.22    0.67
  -4   3  26    1.03    0.71
   4   3 -26    0.47    0.64
   3  -3 -26   14.26    1.26
  -3  -3  26   15.02    1.56
  -3  -3  26   11.45    1.46
   3  -3 -26   10.03    1.28
  -3   3  26   12.50    1.59
   3   3 -26   10.87    1.75
  -2  -3  26    5.32    1.01
  -2  -3  26    4.28    0.91
   2  -3 -26    4.38    0.77
   2  -3 -26    4.87    0.91
  -2   3  26    5.75    1.10
   2   3 -26    4.03    0.97
   1  -3 -26    1.29    0.58
  -1  -3  26    1.58    0.53
  -1  -3  26    0.93    0.53
   1  -3 -26    0.62    0.44
   0  -3 -26   -0.60    0.38
   0  -3  26    0.09    0.42
   0  -3 -26    0.05    0.39
   0  -3  26    0.34    0.44
   0   3  26   -0.56    0.43
  -1  -3 -26    3.53    0.81
   1  -3  26    3.50    0.78
   1  -3  26    4.33    0.84
  -1  -3 -26    2.82    0.77
  -1   3 -26    4.00    0.97
   1   3  26    2.38    0.82
  -2  -3 -26    3.00    0.85
  -2  -3 -26    5.21    1.02
   2  -3  26    6.31    0.89
   2  -3  26    5.58    0.95
   2  -3  26    3.43    1.30
  -2   3 -26    5.03    1.19
   2   3  26    2.90    0.88
  -3  -3 -26    0.72    0.50
   3  -3  26    1.18    0.51
   3  -3  26    0.49    0.62
  -3   3 -26    0.06    0.50
   3   3  26   -0.50    0.60
  -4  -3 -26   -0.30    0.68
   4  -3  26    1.47    0.71
   4   3  26    1.05    0.85
  -4   3 -26    0.64    0.67
   4   3  26    1.01    0.96
  -4  -4  26   20.49    1.78
  -4   4  26   16.23    2.06
  -3   4  26    2.32    0.82
   3   4 -26    3.62    1.06
  -2   4  26    1.49    0.84
   2   4 -26    3.12    0.96
   1   4 -26    1.18    0.67
  -1   4  26    1.29    0.87
   0   4 -26    4.27    1.08
   0   4  26    4.14    1.12
  -1   4 -26   -0.13    0.43
   1   4  26    0.64    0.75
  -2  -4 -26   19.03    1.55
  -2   4 -26   21.05    2.18
   2   4  26   20.10    2.30
  -3  -4 -26    6.97    1.20
   3   4  26    5.44    1.44
   3   4  26    6.51    1.91
  -3   4 -26    6.52    1.40
   1   5 -26    0.04    0.59
  -1   5  26   -1.89    0.68
   0   5  26    1.58    0.77
   0   5 -26    1.31    0.71
   7   0 -27    0.37    0.68
  -7   0  27    0.57    0.90
  -6   0  27    0.02    0.36
   6   0 -27   -0.07    0.55
  -5   0  27    0.04    0.37
   5   0 -27    0.42    0.46
   4   0 -27    0.50    0.45
  -4   0  27   -0.08    0.45
   3   0 -27    0.16    0.36
   2   0 -27    0.38    0.28
  -2   0  27   -0.32    0.31
  -1   0  27    0.12    0.28
   1   0 -27   -0.03    0.26
   0   0 -27    0.26    0.37
   0   0  27    0.32    0.44
   1   0  27    0.10    0.42
  -1   0 -27   -0.17    0.31
   2   0  27    0.03    0.46
  -2   0 -27    0.59    0.36
  -3   0 -27    0.34    0.40
   3   0  27    0.74    0.58
   4   0  27    0.18    0.54
  -4   0 -27    0.70    0.52
  -5   0 -27   -0.12    0.56
   5   0  27   -0.76    0.57
  -6  -1  27   38.67    3.28
   6  -1 -27   38.70    2.95
   6   1 -27   43.89    3.41
  -6   1  27   45.11    3.71
   5  -1 -27    6.02    1.12
  -5  -1  27    5.69    1.32
  -5   1  27    5.16    1.24
   5   1 -27    4.59    1.12
   4  -1 -27    1.72    0.62
  -4  -1  27    2.01    0.78
   4   1 -27    1.40    0.59
  -4   1  27    0.71    0.55
  -3  -1  27   18.85    2.12
   3  -1 -27   15.23    1.58
  -3   1  27   20.73    2.09
   3   1 -27   18.58    1.88
  -2  -1  27    2.67    0.71
   2  -1 -27    1.22    0.56
  -2   1  27    2.49    0.73
   2   1 -27    2.21    0.70
   1  -1 -27   24.84    3.28
   1  -1 -27   30.50    2.23
  -1  -1  27   32.07    2.44
  -1   1  27   27.47    2.42
   1   1 -27   29.07    2.29
   0  -1  27   24.85    2.20
   0  -1 -27   31.02    2.37
   0  -1  27   31.65    2.43
   0   1  27   30.84    2.56
   0   1 -27   33.80    2.47
   1  -1  27   27.71    2.36
  -1  -1 -27   31.20    2.43
  -1   1 -27   32.50    2.54
   1   1  27   30.42    2.92
  -2  -1 -27    4.29    1.05
   2  -1  27    6.66    1.27
   2   1  27    4.00    1.08
  -2   1 -27    4.47    1.11
  -3  -1 -27    6.31    1.29
   3  -1  27    5.05    1.18
   3   1  27    6.65    1.42
  -3   1 -27    5.94    1.35
   4  -1  27    0.37    0.53
  -4  -1 -27    0.87    0.53
  -4   1 -27   -0.22    0.45
   5  -1  27    5.36    1.31
  -5  -1 -27    6.38    1.56
  -5   1 -27    5.94    1.79
   5   1  27    9.18    1.93
  -6  -2  27    5.31    1.33
   6  -2 -27    5.26    1.11
  -6   2  27    3.87    1.24
  -5  -2  27    1.82    0.84
   5  -2 -27    1.70    0.61
   5   2 -27    0.36    0.54
  -5   2  27    0.79    0.63
   4  -2 -27    1.16    0.55
  -4  -2  27    2.26    0.79
  -4   2  27    1.48    0.83
   4   2 -27    2.82    0.83
   3  -2 -27    0.55    0.49
  -3  -2  27    0.46    0.43
   3  -2 -27    1.49    0.59
   3   2 -27    0.92    0.52
  -3   2  27    1.39    0.61
  -2  -2  27    0.26    0.38
   2  -2 -27    0.48    0.36
  -2  -2  27    1.22    0.48
   2  -2 -27    0.41    0.42
   2   2 -27    0.20    0.36
   1  -2 -27    7.53    1.16
  -1  -2  27    7.03    1.20
  -1  -2  27    7.85    1.01
   1  -2 -27    4.86    0.95
  -1   2  27    7.61    1.45
   1   2 -27    7.20    1.53
   0  -2  27   -0.43    0.27
   0  -2 -27   -0.35    0.44
   0  -2 -27   -0.46    0.26
   0   2 -27    0.36    0.37
  -1  -2 -27    0.12    0.31
   1  -2  27   -0.86    0.30
  -1   2 -27    0.43    0.40
   1   2  27   -0.24    0.35
   2  -2  27   10.16    1.28
   2  -2  27    9.10    1.45
  -2   2 -27   13.22    1.63
   2   2  27    9.72    1.80
   3  -2  27    0.13    0.53
   3  -2  27   -0.43    0.45
  -3  -2 -27   -0.15    0.46
  -3   2 -27   -0.19    0.43
   3   2  27    0.11    0.59
  -4  -2 -27    0.12    0.52
   4  -2  27   -0.27    0.46
   4   2  27   -0.85    0.50
   4   2  27   -0.30    0.66
  -4   2 -27   -0.30    0.49
   5  -2  27    2.59    1.00
  -5  -2 -27    4.50    1.35
  -5   2 -27    1.27    0.91
   5   2  27    2.62    1.08
   5   2  27    2.17    1.18
   5  -3 -27   45.38    2.61
  -5  -3  27   51.41    3.45
  -5   3  27   53.30    3.87
   4  -3 -27    3.32    0.84
  -4  -3  27    3.06    1.10
  -4   3  27    4.30    1.05
   4   3 -27    3.43    0.93
  -3  -3  27    0.81    0.90
  -3  -3  27    1.72    0.67
   3  -3 -27    1.58    0.77
   3  -3 -27    1.27    0.49
   3   3 -27    2.29    0.81
  -3   3  27    0.42    0.59
  -2  -3  27    9.48    1.21
   2  -3 -27   11.42    1.32
   2  -3 -27   10.10    1.15
  -2  -3  27   10.12    1.35
   2   3 -27   10.87    1.43
  -2   3  27   12.78    1.61
   1  -3 -27   33.86    2.16
  -1  -3  27   37.41    2.32
   1  -3 -27   29.53    2.07
  -1  -3  27   33.62    2.21
  -1   3  27   31.46    2.63
   1   3 -27   35.50    2.62
   0  -3 -27    8.82    1.13
   0  -3 -27    9.10    1.18
   0  -3  27    7.30    1.03
   0  -3  27    8.01    1.17
   0   3  27    8.61    1.51
   0   3 -27    9.51    1.53
  -1  -3 -27   17.19    1.64
  -1  -3 -27   16.94    1.72
   1  -3  27   19.17    1.54
   1  -3  27   14.38    1.48
  -1   3 -27   20.41    1.93
   1   3  27   17.91    2.07
  -2  -3 -27    1.06    0.69
   2  -3  27    0.37    0.57
   2  -3  27    0.91    0.58
   2  -3  27   -0.39    0.77
  -2   3 -27    0.39    0.47
   2   3  27    1.01    0.65
  -3  -3 -27    2.92    0.98
   3  -3  27    3.94    0.82
   3   3  27    5.27    1.24
  -3   3 -27    3.42    1.06
  -4  -3 -27   16.52    1.94
   4  -3  27   14.44    1.61
   4   3  27   11.66    2.37
  -4   3 -27   13.96    2.15
   4   3  27   11.64    2.29
  -4  -4  27    0.42    0.74
   4   4 -27    0.27    0.69
  -4   4  27    0.40    0.75
   3   4 -27    6.66    1.40
  -3   4  27    9.07    1.62
   2   4 -27    2.10    0.70
  -2   4  27    1.24    0.74
  -1   4  27    0.50    0.75
   1   4 -27    0.32    0.52
   0   4 -27    0.48    0.60
   0   4  27    0.03    0.59
  -1   4 -27    1.92    0.85
   1   4  27    0.87    0.77
  -2  -4 -27    1.21    0.66
   2   4  27   -0.62    0.57
  -2   4 -27    0.01    0.68
  -6   0  28    0.49    0.67
   6   0 -28   -0.04    0.45
   5   0 -28   -0.20    0.37
  -5   0  28    0.76    0.72
  -4   0  28   62.86    4.03
   4   0 -28   56.28    3.62
  -3   0  28    0.24    0.43
   3   0 -28    1.22    0.54
  -2   0  28   77.36    4.53
   2   0 -28   66.94    3.83
  -1   0  28   -0.37    0.31
   1   0 -28   -0.52    0.22
   0   0  28   30.24    2.57
   0   0 -28   38.84    2.72
   1   0  28   31.93    3.51
  -2   0 -28   42.44    3.13
   2   0  28   43.99    3.27
   3   0  28    9.88    1.75
  -3   0 -28    9.92    1.73
   4   0  28   17.55    2.11
  -4   0 -28   15.95    2.03
   5   0  28    0.74    0.67
  -5   0 -28   -0.62    0.71
   6  -1 -28    3.68    0.96
  -6  -1  28    4.46    1.20
   6   1 -28    2.16    1.04
  -6   1  28    3.75    1.20
   5  -1 -28    0.72    0.54
  -5  -1  28   -0.57    0.63
   5   1 -28    1.20    0.53
  -5   1  28    0.59    0.72
   4  -1 -28    0.45    0.50
  -4  -1  28    0.67    0.58
  -4   1  28    1.28    0.67
   4   1 -28    0.69    0.45
  -3  -1  28    2.98    0.81
   3  -1 -28    2.67    0.82
   3   1 -28    3.24    0.86
  -3   1  28    3.11    0.98
   2  -1 -28    1.33    0.57
  -2  -1  28    0.77    0.48
  -2   1  28    1.69    0.74
   2   1 -28    0.39    0.37
  -1  -1  28    0.26    0.37
   1  -1 -28    0.42    0.37
   1   1 -28    0.57    0.34
  -1   1  28    0.23    0.36
   0  -1  28    0.39    0.44
   0  -1 -28    0.08    0.34
   0   1 -28    0.25    0.43
  -1  -1 -28    8.00    1.74
   1  -1  28    5.05    1.14
   1   1  28    5.58    1.25
  -1   1 -28    6.83    1.26
  -2  -1 -28    7.14    1.41
   2   1  28    4.48    1.16
  -2   1 -28    5.33    1.20
   3  -1  28    0.03    0.49
  -3  -1 -28    0.92    0.52
   3   1  28   -0.03    0.54
  -3   1 -28    0.09    0.42
  -4  -1 -28    1.41    0.76
   4  -1  28    2.35    0.84
   4   1  28    1.60    0.76
  -4   1 -28    2.10    0.94
  -5  -1 -28    0.66    1.27
   5  -1  28    2.91    0.94
   5   1  28   -0.37    0.73
  -5   1 -28    0.64    0.66
  -6  -2  28   -0.32    0.68
   6  -2 -28    1.41    0.72
  -6   2  28    0.70    0.79
   6   2 -28    1.25    0.69
   5  -2 -28    5.05    1.04
  -5  -2  28    6.19    1.29
  -5   2  28    5.45    1.26
   5   2 -28    5.36    1.27
   4  -2 -28   22.87    1.92
  -4  -2  28   21.24    2.12
  -4   2  28   17.80    2.18
   4   2 -28   23.32    2.27
   3  -2 -28   15.09    1.54
   3  -2 -28   14.60    2.08
   3   2 -28   14.37    1.71
  -3   2  28   18.33    1.99
   2  -2 -28   25.12    1.94
  -2  -2  28   22.45    2.02
   2  -2 -28   18.69    1.85
   2   2 -28   21.28    2.05
  -2   2  28   23.23    2.22
  -1  -2  28    7.18    1.25
   1  -2 -28   10.10    1.31
   1  -2 -28    7.44    1.22
  -1  -2  28   10.63    1.25
   1   2 -28    7.76    1.32
  -1   2  28    9.50    1.59
   0  -2  28    9.60    1.26
   0  -2 -28    5.88    1.06
   0  -2  28    5.18    1.01
   0   2 -28    8.40    1.41
   0   2  28    6.98    1.34
  -1  -2 -28    1.88    0.65
   1  -2  28    1.23    0.61
   1  -2  28    1.85    0.60
  -1   2 -28    1.17    0.63
   1   2  28    1.33    0.70
  -2  -2 -28    9.68    1.57
   2  -2  28   12.11    1.44
   2   2  28   10.60    1.91
  -2   2 -28    8.38    1.54
  -3  -2 -28   17.32    1.96
   3  -2  28   16.84    1.74
   3  -2  28   13.78    2.17
  -3   2 -28   17.78    2.04
   3   2  28   17.87    2.28
   4  -2  28   13.95    1.74
  -4  -2 -28    9.39    1.70
  -4   2 -28   12.12    1.96
   4   2  28   13.97    1.94
   4   2  28   12.34    2.18
  -5  -3  28    0.36    0.78
   5  -3 -28   -0.14    0.67
  -5   3  28   -0.17    0.77
  -4  -3  28    0.32    0.53
   4  -3 -28    0.15    0.93
   4  -3 -28   -0.34    0.53
   4   3 -28   -0.03    0.47
  -4   3  28    1.56    0.75
   3  -3 -28    3.91    0.83
   3  -3 -28    3.12    0.92
  -3  -3  28    2.49    1.19
  -3  -3  28    4.07    0.98
  -3   3  28    2.64    0.92
   3   3 -28    2.21    0.90
  -2  -3  28   -0.17    0.79
   2  -3 -28    0.99    0.47
  -2  -3  28    1.12    0.50
   2   3 -28    0.24    0.43
  -2   3  28   -0.77    0.29
  -1  -3  28    2.13    0.60
   1  -3 -28    0.95    0.49
  -1  -3  28    0.81    0.74
   1  -3 -28    2.36    0.78
  -1   3  28    3.94    0.96
   1   3 -28    2.63    0.73
   0  -3 -28    0.32    0.60
   0  -3 -28    0.49    0.45
   0  -3  28    0.60    0.64
   0  -3  28    1.04    0.58
   0   3 -28    1.05    0.62
   0   3  28    0.76    0.67
  -1  -3 -28    0.73    0.46
  -1  -3 -28   -0.34    0.76
   1  -3  28   -0.28    0.57
   1  -3  28    0.09    0.51
  -1   3 -28    0.66    0.49
   1   3  28    0.42    0.54
   2  -3  28    6.59    1.05
   2  -3  28    4.37    1.39
   2  -3  28    3.58    0.99
   2   3  28    7.17    1.51
  -2   3 -28    6.30    1.34
  -3  -3 -28    1.32    0.81
   3  -3  28    3.14    0.88
  -3   3 -28    1.24    0.87
   3   3  28    3.08    1.10
   4  -3  28    0.86    0.83
  -4  -3 -28   -0.49    0.75
   4   3  28    0.22    1.05
   4   3  28    1.52    0.96
   3   4 -28   16.29    1.98
  -3   4  28   17.46    2.13
   2   4 -28   20.29    2.18
  -2   4  28   17.91    2.20
  -1   4  28    8.34    1.69
   1   4 -28    7.80    1.34
   0   4 -28   12.55    1.62
   0   4  28   14.03    2.15
   1   4  28   10.20    1.72
  -1   4 -28    8.41    1.51
  -2  -4 -28    2.36    0.84
   2   4  28    0.95    0.85
  -2   4 -28    0.99    0.91
   6   0 -29    0.23    0.57
  -6   0  29   -0.74    0.53
   5   0 -29   -0.14    0.38
  -5   0  29   -0.03    0.58
   4   0 -29    0.21    0.40
  -4   0  29   -0.14    0.59
  -3   0  29    0.14    0.41
  -2   0  29    0.05    0.41
   2   0 -29    0.09    0.29
   0   0 -29    0.86    0.56
   0   0  29   -0.06    0.36
  -1   0 -29    0.35    0.47
   1   0  29   -0.26    0.38
   2   0  29    0.16    0.47
  -2   0 -29    0.09    0.47
   3   0  29    1.64    0.63
  -3   0 -29    0.46    0.50
   4   0  29   -0.45    0.48
  -4   0 -29    1.09    0.67
  -5   0 -29    0.89    0.81
   6  -1 -29   -0.27    0.54
  -6  -1  29    1.26    0.71
  -6   1  29    0.06    1.26
  -5  -1  29   30.29    2.82
   5  -1 -29   29.12    2.37
   5   1 -29   28.92    2.68
  -5   1  29   30.29    2.95
  -4  -1  29   33.28    2.81
   4  -1 -29   33.34    2.59
  -4   1  29   36.36    3.13
   4   1 -29   37.52    2.87
   3  -1 -29    2.76    0.84
  -3  -1  29    2.27    0.78
   3   1 -29    4.66    1.13
  -3   1  29    2.03    0.83
   2  -1 -29   21.73    2.05
  -2  -1  29   21.30    2.55
  -2   1  29   20.18    2.14
   2   1 -29   20.47    1.99
   1  -1 -29   22.19    2.00
  -1  -1  29   25.70    2.23
  -1   1  29   20.50    2.15
   1   1 -29   25.79    2.29
   0  -1 -29   11.50    2.06
   0  -1  29    9.61    1.56
   0   1 -29    8.81    1.52
   0   1  29    8.52    1.56
  -1  -1 -29    8.07    1.45
   1   1  29    6.90    1.45
  -1   1 -29    7.77    1.37
   2  -1  29   21.80    2.20
  -2  -1 -29   20.09    2.09
   2   1  29   19.32    2.27
  -2   1 -29   22.57    2.25
  -3  -1 -29   -0.31    0.43
   3  -1  29    0.52    0.62
   3   1  29    0.37    0.59
  -3   1 -29    0.30    0.52
   4  -1  29    5.47    1.25
  -4  -1 -29    5.51    1.26
   4   1  29    4.81    1.33
  -4   1 -29    3.25    1.12
  -5  -1 -29    6.65    1.70
   5  -1  29    5.69    1.40
  -5   1 -29    9.54    1.84
   5   1  29    3.75    1.28
   6  -2 -29   -0.06    0.59
  -6  -2  29    0.85    0.93
  -6   2  29   -0.17    0.69
   6   2 -29   -0.28    0.63
   5  -2 -29    0.98    0.66
  -5  -2  29    0.11    0.69
  -5   2  29    0.47    0.70
   5   2 -29    1.19    0.72
  -4  -2  29    6.47    1.33
   4  -2 -29    7.01    1.30
   4   2 -29    4.43    1.11
  -4   2  29    6.49    1.38
   3  -2 -29    0.49    0.41
  -3  -2  29   -0.40    0.51
   3   2 -29   -0.15    0.38
  -3   2  29    0.58    0.62
  -2  -2  29    1.19    0.62
   2  -2 -29    1.24    0.58
   2   2 -29    1.88    0.73
  -2   2  29    0.64    0.46
   1  -2 -29    2.46    0.73
  -1  -2  29    2.57    0.70
   1   2 -29    2.06    0.79
  -1   2  29    2.65    0.95
   0  -2 -29    2.30    0.67
   0  -2  29    1.27    0.66
   0   2  29    2.11    0.83
   0   2 -29    2.30    0.83
   1  -2  29    2.73    0.79
  -1  -2 -29    1.63    0.71
   1   2  29    3.29    0.93
  -1   2 -29    1.76    0.71
  -2  -2 -29    0.74    0.50
   2  -2  29    2.28    0.72
  -2   2 -29    0.60    0.62
   2   2  29    0.37    0.72
  -3  -2 -29    0.38    0.58
   3  -2  29    1.14    0.69
  -3   2 -29    0.07    0.56
   3   2  29    0.43    0.78
   4  -2  29    1.18    0.86
  -4  -2 -29    1.64    0.94
  -4   2 -29    2.16    0.90
   4   2  29    2.28    1.04
  -5  -3  29    9.94    1.60
   5  -3 -29   11.06    1.46
   5   3 -29   10.65    1.83
  -5   3  29   10.91    2.56
  -4  -3  29    0.43    0.69
   4  -3 -29    0.39    0.58
  -4   3  29   -1.03    0.61
   3  -3 -29   10.51    1.28
   3  -3 -29    8.84    1.31
  -3  -3  29    7.16    1.28
   3   3 -29    8.19    1.53
  -3   3  29   11.14    1.85
  -2  -3  29   -0.14    0.43
   2  -3 -29   -0.65    0.68
   2  -3 -29    0.63    0.52
  -2  -3  29    1.09    0.86
   2   3 -29   -0.20    0.49
  -2   3  29    1.03    0.53
  -1  -3  29   12.27    1.69
  -1  -3  29   11.24    1.34
   1  -3 -29    9.99    1.23
   1  -3 -29   13.15    1.53
   1   3 -29   15.35    1.74
  -1   3  29   11.57    1.79
   0  -3  29    0.03    0.47
   0  -3 -29    1.97    0.81
   0  -3  29    0.08    0.69
   0  -3 -29    0.83    0.54
   0   3 -29    1.24    0.65
   0   3  29   -0.65    0.54
   1  -3  29   68.71    3.53
  -1  -3 -29   81.19    4.04
   1  -3  29   74.81    3.66
  -1   3 -29   74.82    4.35
   1   3  29   78.35    4.81
  -2  -3 -29   -0.40    0.51
   2  -3  29    0.61    0.61
   2  -3  29   -1.61    0.84
  -2   3 -29    1.62    0.63
   2   3  29   -0.25    0.52
   3  -3  29    3.67    0.97
  -3  -3 -29    2.67    0.96
   3   3  29    2.52    1.06
  -3   3 -29    1.48    0.90
   3   4 -29   -1.18    0.67
  -3   4  29    0.27    0.79
   2   4 -29    2.93    0.91
  -2   4  29    2.22    0.88
  -1   4  29    7.31    1.55
   1   4 -29    7.44    1.36
   0   4  29    1.13    0.67
   0   4 -29   -1.49    0.59
  -1   4 -29    1.20    0.69
   1   4  29    1.44    0.74
  -6   0  30    0.19    0.82
   6   0 -30    2.28    0.82
  -5   0  30    5.41    1.33
   5   0 -30    4.56    1.09
   4   0 -30    0.95    0.63
  -4   0  30    1.29    0.86
   3   0 -30    1.26    0.55
  -3   0  30    1.83    0.79
   2   0 -30   56.92    3.59
  -2   0  30   60.62    3.91
  -1   0  30   42.61    3.16
   1   0 -30   38.52    2.87
   0   0  30   13.87    1.76
   0   0 -30   12.61    1.61
   1   0  30   19.15    2.14
  -1   0 -30   21.11    2.11
   2   0  30    0.99    0.64
  -2   0 -30    0.25    0.46
   3   0  30    1.38    0.79
  -3   0 -30   -0.92    0.38
   4   0  30   52.40    3.99
  -4   0 -30   51.91    3.85
  -6  -1  30   -0.62    0.81
   6  -1 -30    0.43    0.68
   6   1 -30   -0.26    0.64
  -6   1  30    1.05    0.79
  -5  -1  30   -0.06    0.51
   5  -1 -30    1.02    0.62
  -5   1  30    0.96    0.84
   5   1 -30    0.00    0.59
   4  -1 -30   15.87    1.66
  -4  -1  30   12.96    1.72
   4   1 -30   10.51    1.77
  -4   1  30   11.14    1.91
  -3  -1  30    0.63    0.45
   3   1 -30   -0.20    0.41
  -3   1  30    0.08    0.46
  -2  -1  30    0.70    0.56
   2  -1 -30   -0.24    0.39
  -2   1  30    1.23    0.71
   2   1 -30    0.40    0.36
  -1  -1  30    1.02    0.50
   1  -1 -30    1.39    0.55
  -1   1  30    1.22    0.70
   1   1 -30    0.72    0.51
   0  -1  30    0.48    0.55
   0  -1 -30   -0.12    0.31
   0   1 -30    0.51    0.49
   0   1  30   -0.70    0.41
  -1  -1 -30   -0.16    0.39
   1  -1  30    0.12    0.37
  -1   1 -30   -0.10    0.45
   1   1  30   -0.33    0.53
  -2  -1 -30    0.10    0.45
   2  -1  30   -0.47    0.48
  -2   1 -30    0.33    0.48
   2   1  30    0.11    0.60
  -3  -1 -30    6.61    1.43
   3  -1  30    7.35    1.48
  -3   1 -30    6.59    1.45
   3   1  30    6.48    1.46
  -4  -1 -30    0.00    0.55
   4  -1  30    1.30    0.77
   4   1  30   -1.60    0.58
  -4   1 -30    0.60    0.74
  -5  -2  30    3.96    1.08
   5  -2 -30    2.46    0.80
  -5   2  30    3.72    1.13
   5   2 -30    1.76    0.80
   4  -2 -30    1.67    0.76
  -4  -2  30    1.68    0.72
  -4   2  30    4.26    1.17
   4   2 -30    3.94    1.10
  -3  -2  30   36.69    2.80
  -3   2  30   34.79    2.98
   3   2 -30   35.58    2.82
  -2  -2  30   20.41    1.97
   2  -2 -30   19.98    1.84
  -2   2  30   20.66    2.26
   2   2 -30   19.63    2.04
   1  -2 -30    6.17    1.12
  -1  -2  30    4.94    1.06
  -1   2  30    5.08    1.26
   1   2 -30    5.10    1.12
   0  -2  30   13.16    1.57
   0   2  30    9.37    1.59
   0   2 -30   11.42    1.77
  -1  -2 -30   -0.48    0.38
   1  -2  30    0.04    0.45
   1   2  30   -0.07    0.43
  -1   2 -30   -0.06    0.41
   2  -2  30   10.40    1.68
  -2  -2 -30    8.94    1.55
  -2   2 -30   11.81    1.92
   2   2  30    9.44    1.79
   3  -2  30   10.07    1.60
  -3  -2 -30   10.19    1.79
  -3   2 -30   11.16    1.83
   3   2  30   10.66    2.01
   4  -2  30    4.38    1.21
  -4  -2 -30    2.83    1.13
   4   2  30    3.67    1.34
  -4   2 -30    2.33    1.06
   4   2  30    2.93    1.27
   4  -3 -30    0.18    0.59
  -4  -3  30   -0.74    0.58
  -4   3  30    1.15    0.74
   4   3 -30   -0.56    0.55
   3  -3 -30    3.81    0.89
  -3  -3  30    4.57    1.10
   3  -3 -30   -1.03    1.10
  -3   3  30    2.50    0.87
   3   3 -30    1.49    0.89
   2  -3 -30   12.25    1.74
  -2  -3  30   11.50    1.43
   2  -3 -30   11.86    1.38
  -2  -3  30    8.53    1.57
  -2   3  30   16.03    2.02
   2   3 -30   10.89    1.81
   1  -3 -30    0.29    0.50
  -1  -3  30    1.39    0.84
  -1  -3  30   -0.51    0.44
   1  -3 -30    1.44    0.84
  -1   3  30    0.64    0.63
   1   3 -30    1.08    0.62
   0  -3  30    0.88    0.58
   0  -3 -30    2.13    0.87
   0  -3  30    0.74    0.77
   0  -3 -30    0.58    0.54
   0   3  30    1.18    0.77
   0   3 -30    1.64    0.62
  -1  -3 -30    4.46    1.17
   1  -3  30    4.15    1.01
   1  -3  30    3.46    0.92
  -1   3 -30    2.83    0.92
   1   3  30    4.82    1.29
  -2  -3 -30    6.05    1.26
   2  -3  30    6.79    1.12
  -2   3 -30    7.53    1.42
   2   3  30    3.70    1.24
   3  -3  30    0.92    0.79
  -3  -3 -30    0.84    0.76
  -3   3 -30   -0.69    0.58
   3   3  30   -0.78    0.74
  -2   4  30    7.94    1.49
   2   4 -30    7.76    1.50
   1   4 -30    9.69    1.69
  -1   4  30    8.40    1.44
   0   4  30    5.86    1.46
   0   4 -30    8.39    1.61
   1   4  30    0.73    0.99
  -1   4 -30    3.18    0.88
   6   0 -31   -0.47    0.72
  -6   0  31   -0.04    0.82
   5   0 -31   -0.82    0.40
  -5   0  31   -1.26    0.46
  -4   0  31   -0.43    0.53
   4   0 -31    0.15    0.48
   3   0 -31   -0.27    0.42
  -2   0  31   -0.19    0.47
   2   0 -31    1.06    0.54
  -1   0  31    0.45    0.64
   1   0 -31    0.21    0.45
   0   0  31   -0.76    0.39
   0   0 -31    0.27    0.39
   1   0  31   -0.86    0.36
  -1   0 -31    0.29    0.49
   2   0  31   -0.11    0.61
  -2   0 -31    0.34    0.47
   3   0  31    0.68    0.71
  -3   0 -31    0.34    0.47
   4   0  31   -0.25    0.84
  -5  -1  31   25.12    2.59
   5  -1 -31   22.08    2.30
  -5   1  31   33.49    3.11
   5   1 -31   25.51    2.52
  -4  -1  31   -0.86    0.49
   4  -1 -31    0.14    0.54
  -4   1  31    1.26    0.59
   4   1 -31    0.29    0.53
   3  -1 -31   43.60    3.03
  -3  -1  31   42.16    3.27
  -3   1  31   46.94    3.54
   3   1 -31   43.44    3.20
  -2  -1  31    3.56    1.05
   2  -1 -31    5.88    1.25
  -2   1  31    4.95    1.33
   2   1 -31    4.18    1.05
  -1  -1  31    0.31    0.47
   1  -1 -31    0.49    0.40
  -1   1  31   -0.48    0.46
   1   1 -31   -0.27    0.37
   0  -1 -31   32.16    2.61
   0  -1  31   34.01    2.79
   0   1  31   34.36    2.93
   0   1 -31   32.41    2.70
   1  -1  31   25.59    2.31
  -1  -1 -31   18.42    2.07
  -1   1 -31   19.83    2.13
   1   1  31   22.31    2.39
   2  -1  31    8.04    1.53
  -2  -1 -31    7.58    1.45
  -2   1 -31    7.39    1.53
   2   1  31    8.30    1.69
  -3  -1 -31    3.08    1.04
   3  -1  31    5.15    1.14
   3   1  31    1.30    0.85
  -3   1 -31    3.01    1.01
   4  -1  31    0.92    0.76
  -4  -1 -31    1.49    1.33
  -4   1 -31   -0.97    0.46
   4   1  31   -0.18    0.76
  -5  -2  31    0.78    0.79
   5   2 -31    0.70    0.77
  -4  -2  31    1.21    0.73
   4  -2 -31    0.29    0.50
   4   2 -31    1.41    0.65
  -4   2  31    0.66    0.41
   3  -2 -31    0.44    0.49
  -3  -2  31   -1.23    0.46
  -3   2  31    0.48    0.58
   3   2 -31    0.71    0.45
   2  -2 -31    0.76    0.51
  -2  -2  31    0.46    0.51
   2   2 -31    0.10    0.49
  -2   2  31    0.40    0.61
   1  -2 -31    1.39    0.59
  -1  -2  31    1.53    0.69
   1   2 -31    1.68    0.73
  -1   2  31    0.83    0.66
   0  -2 -31    1.45    0.64
   0  -2  31    0.60    0.61
   0   2  31   -0.07    0.53
   0   2 -31    1.03    0.56
  -1  -2 -31    0.49    0.48
   1  -2  31    0.81    0.58
   1   2  31    0.16    0.45
  -1   2 -31    0.64    0.64
   2  -2  31    7.27    1.36
  -2  -2 -31    5.10    1.25
  -2   2 -31    8.08    1.47
   2   2  31    7.00    1.60
  -3  -2 -31    1.27    0.83
   3  -2  31    0.98    0.67
  -3   2 -31   -0.43    0.67
   3   2  31    0.69    0.79
   4  -3 -31   25.64    2.03
  -4  -3  31   22.64    2.35
   4   3 -31   28.81    2.93
  -4   3  31   29.41    2.85
   3  -3 -31    4.51    1.01
  -3  -3  31    4.73    1.14
   3   3 -31    5.86    1.29
  -3   3  31    6.10    1.35
   2  -3 -31    0.38    0.61
  -2  -3  31    0.36    0.63
   2  -3 -31   -1.05    0.92
  -2   3  31    0.19    0.61
   2   3 -31    0.63    0.55
   1  -3 -31    3.30    1.08
   1  -3 -31    2.93    0.77
  -1  -3  31    2.01    0.79
  -1  -3  31    2.56    1.04
  -1   3  31    2.99    1.07
   1   3 -31    3.75    0.98
   0  -3  31    1.71    0.72
   0  -3 -31    0.44    0.60
   0  -3  31    1.29    1.02
   0   3 -31    0.13    0.53
   0   3  31    1.22    0.63
  -1  -3 -31    3.90    1.02
   1  -3  31    2.86    0.90
  -1   3 -31    5.26    1.14
   1   3  31    3.69    1.23
   2  -3  31    4.26    0.97
  -2  -3 -31    3.51    1.04
  -2   3 -31    4.45    1.09
   2   3  31    3.89    1.24
  -1   4  31    0.37    0.74
   1   4 -31    1.25    0.73
   0   4  31    2.77    1.12
   0   4 -31    0.51    0.70
   5   0 -32    4.59    1.19
  -5   0  32    9.47    1.79
  -4   0  32    2.75    1.01
   4   0 -32    1.90    0.76
  -3   0  32   44.22    3.35
   3   0 -32   39.36    2.97
  -2   0  32    0.94    0.60
   2   0 -32    0.69    0.46
  -1   0  32    5.72    1.21
   1   0 -32    4.05    1.02
   0   0  32   30.94    2.71
   0   0 -32   27.65    2.47
   1   0  32   36.28    3.03
  -1   0 -32   38.45    3.05
   2   0  32   11.11    1.90
  -2   0 -32    7.21    1.53
  -3   0 -32    6.52    1.49
   3   0  32    7.01    1.53
  -4   0 -32   -0.98    0.56
  -5  -1  32    0.59    0.69
   5  -1 -32    0.27    0.59
  -4  -1  32    0.48    0.58
   4  -1 -32   -0.36    0.38
   4   1 -32   -0.08    0.37
  -4   1  32    0.65    0.55
   3  -1 -32    5.75    1.11
  -3  -1  32    4.58    1.18
  -3   1  32    3.61    1.18
   3   1 -32    5.35    1.26
   2  -1 -32    0.81    0.65
  -2  -1  32    0.28    0.53
  -2   1  32   -0.42    0.48
   2   1 -32   -0.02    0.40
  -1  -1  32    0.34    0.49
   1  -1 -32    0.45    0.50
  -1   1  32    0.79    0.71
   1   1 -32    0.48    0.56
   0  -1  32    1.65    0.85
   0  -1 -32    2.15    0.72
   0   1 -32    0.95    0.63
   0   1  32    0.77    0.59
  -1  -1 -32    1.36    0.67
   1  -1  32    2.21    0.92
  -1   1 -32    0.73    0.60
   1   1  32    2.28    0.82
  -2  -1 -32    1.07    0.68
   2  -1  32    1.14    0.71
   2   1  32    1.96    0.84
  -2   1 -32    1.35    0.58
   3  -1  32    1.12    0.79
  -3  -1 -32    1.18    0.71
  -3   1 -32    0.76    0.57
   3   1  32    0.87    0.75
   4  -1  32    2.81    1.17
  -4  -1 -32   -0.26    0.79
   4   1  32    0.18    0.82
  -4   1 -32    0.40    0.67
  -5  -2  32    2.03    1.01
   5  -2 -32    3.03    0.97
  -5   2  32   -0.09    0.83
   5   2 -32    3.79    1.12
   4  -2 -32    3.60    1.03
  -4  -2  32    6.48    1.38
   4   2 -32    6.23    1.46
  -4   2  32    4.94    1.15
  -3  -2  32    5.41    1.17
   3  -2 -32    4.89    1.13
  -3   2  32    8.75    1.66
   3   2 -32    6.62    1.36
   2  -2 -32   16.29    1.76
  -2  -2  32   20.49    2.07
   2   2 -32   20.56    2.10
  -2   2  32   19.35    2.23
   1  -2 -32   12.30    1.54
  -1  -2  32   14.32    1.73
   1   2 -32   14.84    1.82
  -1   2  32   11.34    1.98
   0  -2  32   17.61    1.86
   0  -2 -32   20.21    2.01
   0   2 -32   15.38    1.92
   0   2  32   17.92    2.16
   1  -2  32    0.35    0.60
  -1  -2 -32    0.09    0.48
  -1   2 -32    0.34    0.42
   1   2  32    0.00    0.60
   2  -2  32    2.90    0.88
  -2  -2 -32    2.97    0.96
   2   2  32    3.71    1.23
  -2   2 -32    3.74    1.03
   3  -2  32    8.43    1.50
  -3  -2 -32   10.42    1.72
   3   2  32   11.05    2.03
  -3  -3  32    0.25    0.69
   3  -3 -32    0.71    0.72
  -3   3  32    1.79    0.84
   3   3 -32    0.78    0.55
   2  -3 -32   -0.11    0.64
  -2  -3  32   -0.04    0.64
  -2   3  32    0.28    0.50
   2   3 -32    0.88    0.56
  -1  -3  32    0.31    0.69
   1  -3 -32   -0.12    0.57
  -1   3  32   -0.72    0.60
   1   3 -32    0.49    0.58
   0  -3 -32    1.43    0.87
   0  -3  32    0.93    0.72
   0   3  32    0.32    0.61
   0   3 -32    0.74    0.64
  -1  -3 -32    2.79    0.88
   1  -3  32    4.31    1.05
  -1   3 -32    2.52    0.96
   1   3  32    4.00    1.15
   2  -3  32    0.44    0.73
  -2  -3 -32    0.98    0.81
   2   3  32    1.05    0.84
  -2   3 -32    0.58    0.89
  -5   0  33    0.08    0.64
   5   0 -33    0.49    0.61
  -4   0  33   -0.25    0.51
   4   0 -33   -0.12    0.47
   3   0 -33    0.16    0.46
  -3   0  33   -0.82    0.35
   2   0 -33    1.19    0.65
  -2   0  33   -0.18    0.52
   1   0 -33   -0.15    0.44
  -1   0  33    0.58    0.64
   0   0  33   -0.27    0.46
   0   0 -33    1.60    0.73
  -1   0 -33    0.10    0.48
   1   0  33   -0.44    0.43
   2   0  33   -1.09    0.45
  -2   0 -33   -0.27    0.51
  -3   0 -33    0.31    0.65
   3   0  33   -1.32    0.50
   5  -1 -33    1.16    0.74
   5   1 -33    2.89    1.12
  -5   1  33    0.46    0.83
  -4  -1  33   17.89    2.08
   4  -1 -33   18.70    1.99
   4   1 -33   19.66    2.13
  -4   1  33   20.37    2.47
   3  -1 -33   24.45    2.26
  -3  -1  33   23.91    2.49
   3   1 -33   30.16    2.67
  -3   1  33   27.28    2.66
  -2  -1  33    3.15    1.08
   2  -1 -33    5.93    1.23
   2   1 -33    3.29    0.98
  -2   1  33    4.33    1.21
   1  -1 -33    8.20    1.50
  -1  -1  33    7.75    1.59
  -1   1  33    8.15    1.63
   1   1 -33    9.90    1.66
   0  -1 -33    2.37    0.85
   0  -1  33    2.15    0.94
   0   1 -33    3.12    1.02
   0   1  33    2.25    0.94
  -1  -1 -33    8.12    1.59
   1  -1  33    6.21    1.39
  -1   1 -33    9.55    1.78
   1   1  33    6.95    1.46
  -2  -1 -33    8.30    1.61
   2  -1  33    7.59    1.55
  -2   1 -33    8.22    1.67
   2   1  33    8.10    1.56
   3  -1  33   21.60    2.41
  -3  -1 -33   27.74    2.70
   4  -2 -33    3.40    0.98
  -4  -2  33    5.16    1.31
   4   2 -33    4.35    1.51
   3  -2 -33    1.93    0.83
  -3  -2  33    5.62    1.42
  -3   2  33    3.31    1.02
   3   2 -33    0.83    0.86
   2  -2 -33    1.62    0.88
  -2  -2  33    1.25    0.65
  -2   2  33    1.58    0.79
   2   2 -33    1.73    0.88
   1  -2 -33   -0.26    0.44
  -1  -2  33    0.32    0.62
   1   2 -33    1.23    0.67
  -1   2  33    0.17    0.64
   0  -2 -33    2.61    0.84
   0  -2  33    5.28    1.10
   0   2 -33    3.08    0.90
   0   2  33    3.14    1.05
  -1  -2 -33   -0.12    0.61
   1  -2  33    0.83    0.63
   1   2  33    0.37    0.61
  -1   2 -33    0.55    0.59
   2  -2  33    1.48    0.83
  -2  -2 -33    0.28    0.59
   2   2  33   -1.02    0.75
  -2   2 -33    0.48    0.64
   3  -2  33    3.02    1.07
  -3  -2 -33    1.16    0.88
   3   2  33    3.40    1.26
  -3   2 -33    1.91    1.11
   3  -3 -33    3.93    1.08
  -3  -3  33    4.01    1.19
   3   3 -33    1.41    0.80
  -2  -3  33   19.07    1.93
   2  -3 -33   15.97    1.84
  -2   3  33   16.56    2.18
   2   3 -33   16.90    2.01
   1  -3 -33   -0.22    0.85
   1   3 -33    1.36    0.73
  -1   3  33    1.72    0.80
   0  -3  33    4.66    1.15
   0  -3 -33    9.36    1.36
   0   3 -33    6.42    1.38
   0   3  33    6.33    1.43
   1  -3  33    0.83    0.80
  -1  -3 -33    1.20    0.80
  -1   3 -33    1.28    0.77
  -5   0  34    6.99    1.72
   5   0 -34   13.23    1.73
   4   0 -34    9.23    1.75
  -4   0  34    7.21    1.64
   3   0 -34    0.78    0.70
  -3   0  34    1.34    0.78
   2   0 -34    5.53    1.15
  -2   0  34    8.10    1.55
   1   0 -34   47.85    3.38
  -1   0  34   40.75    3.32
   0   0 -34    2.40    0.76
   0   0  34    3.08    0.98
  -1   0 -34    4.26    1.18
   1   0  34    2.91    1.03
   2   0  34    1.46    0.86
  -2   0 -34    1.83    0.88
  -3   0 -34    0.52    0.70
   3   0  34    2.62    1.58
  -4  -1  34    6.03    1.45
   4  -1 -34    4.66    1.17
   4   1 -34    5.25    1.32
  -4   1  34    6.99    2.06
   3  -1 -34   11.39    1.51
  -3  -1  34   11.44    1.88
   3   1 -34   13.84    1.82
  -3   1  34   11.35    1.99
  -2  -1  34    1.88    0.87
   2  -1 -34    3.69    0.99
   2   1 -34    2.39    0.84
  -2   1  34    1.95    0.94
  -1  -1  34    2.51    0.80
   1  -1 -34    2.63    0.86
   1   1 -34    3.06    0.93
  -1   1  34    1.06    0.77
   0  -1 -34    1.00    0.63
   0  -1  34    0.94    0.63
   0   1 -34   -0.10    0.40
   0   1  34    1.82    0.88
   1  -1  34    3.75    1.08
  -1  -1 -34    2.75    0.99
  -1   1 -34    3.60    1.02
   1   1  34    0.69    0.88
  -2  -1 -34    3.15    0.97
   2  -1  34    1.76    0.93
   2   1  34    0.60    0.76
  -2   1 -34    0.55    0.81
   3  -1  34    0.28    0.78
  -3  -1 -34    1.19    0.84
   3   1  34    2.11    1.00
  -3   1 -34   -0.14    0.73
   4  -2 -34   32.38    2.62
  -4  -2  34   36.51    3.17
   4   2 -34   34.13    3.07
  -4   2  34   33.46    3.12
  -3  -2  34   -1.13    0.46
   3  -2 -34   -0.80    0.58
  -3   2  34    1.28    0.74
   3   2 -34    0.50    0.71
  -2  -2  34    5.78    1.38
   2  -2 -34    9.33    1.51
  -2   2  34    8.92    1.83
   2   2 -34    6.58    1.40
   1  -2 -34    8.92    1.49
  -1  -2  34    7.79    1.52
   1   2 -34    7.65    1.50
  -1   2  34    6.68    1.48
   0  -2 -34    6.48    1.44
   0  -2  34    3.53    1.18
   0   2 -34    6.45    1.35
   0   2  34    6.92    1.57
   1  -2  34    7.40    1.44
  -1  -2 -34    6.43    1.31
   1   2  34    3.22    1.23
  -1   2 -34    6.12    1.49
   2  -2  34   22.17    2.30
  -2  -2 -34   19.97    2.26
   2   2  34   13.75    2.36
  -2   2 -34   15.76    2.72
  -2  -3  34   -0.60    0.69
   2  -3 -34    0.89    0.74
  -2   3  34   -0.53    0.88
   2   3 -34    0.06    0.67
  -1  -3  34    3.05    1.07
   1  -3 -34    2.41    1.02
   0  -3 -34   -0.05    0.66
   0   3  34    1.90    0.88
   4   0 -35   -0.13    0.51
  -3   0  35   -0.05    0.57
   3   0 -35   -1.05    0.50
  -2   0  35   -0.17    0.46
   1   0 -35    0.38    0.63
  -1   0  35   -0.99    0.42
   0   0  35    0.71    0.62
   0   0 -35    0.87    0.60
  -1   0 -35    0.03    0.59
   1   0  35    1.04    0.82
   2   0  35   -0.60    0.59
  -2   0 -35    0.15    0.61
   4  -1 -35    8.86    1.68
  -4  -1  35    4.58    1.84
  -4   1  35    8.03    1.70
   4   1 -35    8.16    1.45
  -3  -1  35    0.02    0.66
   3  -1 -35    0.75    0.63
  -3   1  35   -0.68    0.56
   3   1 -35    0.41    0.55
  -2  -1  35   17.26    2.19
   2  -1 -35   18.55    1.98
  -2   1  35   18.76    2.24
   2   1 -35   16.77    2.10
  -1  -1  35   29.48    2.77
   1  -1 -35   27.33    2.56
  -1   1  35   27.94    2.84
   1   1 -35   25.86    2.56
   0  -1  35    0.69    0.61
   0  -1 -35    0.08    0.48
   0   1 -35    0.02    0.49
   0   1  35    1.14    0.47
   1  -1  35    2.45    1.03
  -1  -1 -35    0.88    0.79
  -1   1 -35    1.02    0.74
   1   1  35    0.30    0.80
   2  -1  35   11.33    1.97
  -2  -1 -35   13.79    2.14
   2   1  35    7.84    1.87
  -2   1 -35   10.34    1.94
  -3  -2  35    2.15    0.93
   3  -2 -35    1.46    0.78
   3   2 -35    2.35    0.95
  -3   2  35    2.24    1.15
  -2  -2  35    0.19    0.64
   2  -2 -35   -0.18    0.55
  -2   2  35    0.11    0.64
   2   2 -35    0.28    0.64
  -1  -2  35    0.96    0.70
   1  -2 -35    0.55    0.59
  -1   2  35   -0.73    0.56
   1   2 -35   -0.43    0.53
   0  -2  35    0.00    0.68
   0  -2 -35   -0.87    0.47
   0   2 -35   -0.88    0.54
   0   2  35    0.59    0.70
  -1  -2 -35    1.17    0.76
   1  -2  35    3.00    0.92
   1   2  35    2.15    1.25
   4   0 -36   11.58    1.89
  -4   0  36    7.94    1.60
  -3   0  36   -1.11    0.54
   3   0 -36    0.43    0.68
  -2   0  36   -0.49    0.67
   2   0 -36    1.71    0.57
  -1   0  36    0.51    0.58
   1   0 -36    0.96    0.60
   0   0 -36   11.94    1.91
   0   0  36   10.67    1.92
   1   0  36   32.58    3.01
  -1   0 -36   29.39    2.94
  -2   0 -36    3.41    1.25
   2   0  36    5.48    1.61
   3  -1 -36    0.92    0.72
  -3  -1  36    1.99    0.93
  -3   1  36    0.82    0.72
   3   1 -36    0.84    0.92
  -2  -1  36    0.58    0.59
   2  -1 -36   -1.19    0.45
   2   1 -36    0.74    0.73
  -2   1  36    0.23    0.68
  -1  -1  36    1.06    0.58
   1  -1 -36    1.80    0.62
  -1   1  36   -0.08    0.69
   1   1 -36   -0.27    0.53
   0  -1 -36    0.58    0.66
   0  -1  36    2.00    0.96
   0   1 -36    0.44    0.63
   0   1  36   -0.09    0.74
  -1  -1 -36    0.75    0.62
   1  -1  36    0.52    0.66
   2  -1  36    3.70    1.31
  -2  -1 -36    5.64    1.35
   2   1  36    4.41    1.32
  -2   1 -36    3.59    1.19
  -2  -2  36    0.93    1.01
   2  -2 -36    3.15    1.03
   2   2 -36    3.62    1.12
  -2   2  36    3.14    1.17
   1  -2 -36   13.71    1.71
  -1  -2  36   12.62    1.83
  -1   2  36   10.96    2.38
   1   2 -36    7.72    1.82
   0  -2  36   10.06    1.68
   0  -2 -36    9.63    1.60
   0   2 -36    6.83    1.57
   0   2  36    5.60    1.35
  -1  -2 -36    0.74    0.84
   1  -2  36    0.43    0.90
   1   2  36    0.44    1.02
  -1   2 -36    0.72    0.92
  -3   0  37   -0.87    0.58
   3   0 -37    0.10    0.67
   2   0 -37   -0.11    0.53
  -2   0  37   -0.11    0.65
  -1   0  37   -0.33    0.66
   1   0 -37   -0.50    0.45
   0   0 -37    0.99    0.75
   0   0  37    1.04    0.92
  -1   0 -37    1.07    0.88
   3  -1 -37   11.15    1.89
  -3  -1  37   11.92    3.14
  -3   1  37   10.07    1.90
   3   1 -37   10.56    1.76
   2  -1 -37    6.02    1.36
  -2  -1  37    3.19    1.06
  -2   1  37    4.03    1.42
   2   1 -37    3.86    1.23
  -1  -1  37    1.63    0.88
   1  -1 -37    1.08    0.78
  -1   1  37    1.87    1.09
   1   1 -37    0.39    1.03
   0  -1 -37   12.66    2.08
   0  -1  37   12.50    1.98
   0   1 -37   10.94    1.95
   0   1  37   10.36    1.95
   1  -1  37   10.21    1.95
   1   1  37    8.50    1.76
  -1   1 -37   10.07    1.91
   1  -2 -37    3.23    1.09
  -1  -2  37    2.39    1.21
  -1   2  37    6.58    1.50
   1   2 -37    3.22    1.04
  -2   0  38   23.47    2.70
   2   0 -38   23.19    2.45
   1   0 -38    3.43    0.97
  -1   0  38    2.08    1.03
   0   0 -38    2.77    0.94
   0   0  38    1.83    0.85
  -2  -1  38    3.38    1.41
   2   1 -38    4.46    1.15
  -2   1  38    3.84    1.26
   1  -1 -38    0.89    1.11
  -1  -1  38    3.15    1.02
  -1   1  38    1.71    0.98
   1   1 -38    2.97    1.11
   0  -1 -38    1.19    1.07
   0  -1  38    1.27    1.61
   0   1 -38    0.33    0.71
   0   1  38    0.51    0.88
   0   0   0    0.00    0.00
;
_shelx_hkl_checksum              77759
loop_
_space_group_symop_operation_xyz
'x, y, z'
'-x, y+1/2, -z+1/2'
'-x, -y, -z'
'x, -y-1/2, z-1/2'
loop_
_atom_site_type_symbol
_atom_site_label
_atom_site_fract_x
_atom_site_fract_y
_atom_site_fract_z
_atom_site_U_iso_or_equiv
_atom_site_adp_type
_atom_site_calc_flag
_atom_site_refinement_flags_adp
_atom_site_refinement_flags_occupancy
_atom_site_refinement_flags_posn
_atom_site_occupancy
_atom_site_disorder_assembly
_atom_site_disorder_group
C C1 0.7306(3) 0.5461(3) 0.39608(5) 0.0183(3) Uani d . . . 1 . .
H H1 0.792006 0.628167 0.426812 0.022 Uiso calc U . R 1 . .
C C2 0.8516(2) 0.3516(3) 0.37156(5) 0.0168(3) Uani d . . . 1 . .
H H2 0.99476 0.299326 0.38531 0.02 Uiso calc U . R 1 . .
C C3 0.7597(2) 0.2345(3) 0.32655(5) 0.0150(3) Uani d . . . 1 . .
C C4 0.5504(2) 0.3037(3) 0.30624(5) 0.0164(3) Uani d . . . 1 . .
H H4 0.489177 0.219737 0.275646 0.02 Uiso calc U . R 1 . .
C C5 0.4310(2) 0.4981(3) 0.33137(5) 0.0167(3) Uani d . . . 1 . .
H H5 0.286802 0.546627 0.317813 0.02 Uiso calc U . R 1 . .
C C6 0.5198(2) 0.6229(3) 0.37619(5) 0.0163(3) Uani d . . . 1 . .
C C7 0.3913(3) 0.8383(3) 0.40235(6) 0.0209(3) Uani d . . . 1 . .
H H7A 0.485411 1.004753 0.412257 0.025 Uiso calc U . R 1 . .
H H7B 0.2667 0.90629 0.37891 0.025 Uiso calc U . R 1 . .
C C8 0.2377(2) 0.8851(3) 0.48130(5) 0.0164(3) Uani d . . . 1 . .
H H8 0.188283 0.79562 0.509779 0.02 Uiso calc U . R 1 . .
Cl Cl1 0.91182(6) -0.00347(8) 0.29426(2) 0.01924(10) Uani d . . . 1 . .
N N1 0.30909(19) 0.7174(3) 0.44684(4) 0.0155(2) Uani d . . . 1 . .
H H1A 0.306991 0.530753 0.450787 0.019 Uiso calc U . R 1 . .
O O1 0.23031(18) 1.1484(2) 0.47937(4) 0.0205(2) Uani d . . . 1 . .
loop_
_atom_site_aniso_label
_atom_site_aniso_U_11
_atom_site_aniso_U_22
_atom_site_aniso_U_33
_atom_site_aniso_U_12
_atom_site_aniso_U_13
_atom_site_aniso_U_23
C1 0.0237(7) 0.0145(7) 0.0161(6) -0.0014(5) -0.0001(5) -0.0005(5)
C2 0.0163(7) 0.0163(7) 0.0173(6) 0.0003(5) -0.0001(5) 0.0018(5)
C3 0.0174(7) 0.0121(6) 0.0161(6) 0.0012(5) 0.0042(5) 0.0008(5)
C4 0.0193(7) 0.0150(7) 0.0147(6) 0.0005(5) 0.0003(5) 0.0000(5)
C5 0.0167(6) 0.0166(7) 0.0168(6) 0.0019(5) 0.0013(5) 0.0024(5)
C6 0.0225(7) 0.0113(6) 0.0158(6) 0.0013(5) 0.0053(5) 0.0026(5)
C7 0.0303(8) 0.0155(7) 0.0180(7) 0.0054(6) 0.0076(6) 0.0028(6)
C8 0.0158(7) 0.0168(7) 0.0171(7) 0.0000(5) 0.0046(5) 0.0014(5)
Cl1 0.02070(18) 0.01886(18) 0.01886(17) 0.00498(13) 0.00532(12) -0.00099(13)
N1 0.0179(6) 0.0115(6) 0.0174(6) 0.0004(4) 0.0032(5) 0.0007(4)
O1 0.0254(6) 0.0137(5) 0.0235(5) 0.0008(4) 0.0081(4) -0.0018(4)
loop_
_atom_type_symbol
_atom_type_description
_atom_type_scat_dispersion_real
_atom_type_scat_dispersion_imag
_atom_type_scat_source
C C 0.0033 0.0016 'International Tables Vol C Tables 4.2.6.8 and 6.1.1.4'
H H 0.0000 0.0000 'International Tables Vol C Tables 4.2.6.8 and 6.1.1.4'
Cl Cl 0.1484 0.1585 'International Tables Vol C Tables 4.2.6.8 and 6.1.1.4'
O O 0.0106 0.0060 'International Tables Vol C Tables 4.2.6.8 and 6.1.1.4'
N N 0.0061 0.0033 'International Tables Vol C Tables 4.2.6.8 and 6.1.1.4'
loop_
_geom_angle_atom_site_label_1
_geom_angle_atom_site_label_2
_geom_angle_atom_site_label_3
_geom_angle_site_symmetry_1
_geom_angle_site_symmetry_3
_geom_angle
_geom_angle_publ_flag
C2 C1 C6 . . 120.87(13) ?
C2 C1 H1 . . 119.6 ?
C6 C1 H1 . . 119.6 ?
C1 C2 C3 . . 118.83(13) ?
C1 C2 H2 . . 120.6 ?
C3 C2 H2 . . 120.6 ?
C4 C3 C2 . . 121.62(13) ?
C4 C3 Cl1 . . 118.80(11) ?
C2 C3 Cl1 . . 119.58(11) ?
C3 C4 C5 . . 118.81(13) ?
C3 C4 H4 . . 120.6 ?
C5 C4 H4 . . 120.6 ?
C4 C5 C6 . . 120.97(13) ?
C4 C5 H5 . . 119.5 ?
C6 C5 H5 . . 119.5 ?
C5 C6 C1 . . 118.88(13) ?
C5 C6 C7 . . 120.47(13) ?
C1 C6 C7 . . 120.65(13) ?
N1 C7 C6 . . 111.68(12) ?
N1 C7 H7A . . 109.3 ?
C6 C7 H7A . . 109.3 ?
N1 C7 H7B . . 109.3 ?
C6 C7 H7B . . 109.3 ?
H7A C7 H7B . . 107.9 ?
O1 C8 N1 . . 125.17(13) ?
O1 C8 H8 . . 117.4 ?
N1 C8 H8 . . 117.4 ?
C8 N1 C7 . . 120.84(12) ?
C8 N1 H1A . . 119.6 ?
C7 N1 H1A . . 119.6 ?
loop_
_geom_bond_atom_site_label_1
_geom_bond_atom_site_label_2
_geom_bond_site_symmetry_2
_geom_bond_distance
_geom_bond_publ_flag
C1 C2 . 1.387(2) ?
C1 C6 . 1.396(2) ?
C1 H1 . 0.95 ?
C2 C3 . 1.389(2) ?
C2 H2 . 0.95 ?
C3 C4 . 1.382(2) ?
C3 Cl1 . 1.7449(14) ?
C4 C5 . 1.389(2) ?
C4 H4 . 0.95 ?
C5 C6 . 1.394(2) ?
C5 H5 . 0.95 ?
C6 C7 . 1.502(2) ?
C7 N1 . 1.4601(19) ?
C7 H7A . 0.99 ?
C7 H7B . 0.99 ?
C8 O1 . 1.2335(18) ?
C8 N1 . 1.3239(18) ?
C8 H8 . 0.95 ?
N1 H1A . 0.88 ?
