#------------------------------------------------------------------------------
#$Date: 2020-10-04 05:41:27 +0300 (Sun, 04 Oct 2020) $
#$Revision: 256982 $
#$URL: file:///home/coder/svn-repositories/cod/cif/4/51/80/4518042.cif $
#------------------------------------------------------------------------------
#
# This file is available in the Crystallography Open Database (COD),
# http://www.crystallography.net/
#
# All data on this site have been placed in the public domain by the
# contributors.
#
data_4518042
loop_
_publ_author_name
'Gao, Lili'
'Li, Xiaotong'
'Liu, Yan'
'Fang, Junjie'
'Huang, Sheng'
'Spanopoulos, Ioannis'
'Li, Xiaolei'
'Wang, Yao'
'Chen, Lin'
'Yang, Guanjun'
'Kanatzidis, Mercouri G.'
_publ_section_title
;
 Incorporated Guanidinium Expands the
 CH<sub>3</sub>NH<sub>3</sub>PbI<sub>3</sub> Lattice and Enhances
 Photovoltaic Performance.
;
_journal_issue                   39
_journal_name_full               'ACS applied materials &amp; interfaces'
_journal_page_first              43885
_journal_page_last               43891
_journal_paper_doi               10.1021/acsami.0c14925
_journal_volume                  12
_journal_year                    2020
_chemical_formula_sum            'C H6 I3 N Pb'
_chemical_formula_weight         620
_space_group_IT_number           108
_space_group_name_Hall           'I 4 -2c'
_space_group_name_H-M_alt        'I 4 c m'
_symmetry_cell_setting           tetragonal
_symmetry_Int_Tables_number      108
_symmetry_space_group_name_Hall  'I 4 -2c'
_symmetry_space_group_name_H-M   'I 4 c m'
_cell_angle_alpha                90
_cell_angle_beta                 90
_cell_angle_gamma                90
_cell_formula_units_Z            4
_cell_length_a                   8.8921(13)
_cell_length_b                   8.8921(13)
_cell_length_c                   12.604(3)
_cell_measurement_temperature    293
_cell_volume                     996.6(3)
_diffrn_ambient_temperature      293
_diffrn_measured_fraction_theta_full 0.98
_diffrn_measured_fraction_theta_max 0.98
_diffrn_measurement_device       'four-circle diffractometer'
_diffrn_measurement_device_type  'IPDS Stoe'
_diffrn_measurement_method       '??integration method??'
_diffrn_radiation_monochromator  graphite
_diffrn_radiation_probe          x-ray
_diffrn_radiation_type           X-ray
_diffrn_radiation_wavelength     0.71359
_diffrn_reflns_av_R_equivalents  0.1018
_diffrn_reflns_av_unetI/netI     0.0231
_diffrn_reflns_limit_h_max       12
_diffrn_reflns_limit_h_min       -12
_diffrn_reflns_limit_k_max       12
_diffrn_reflns_limit_k_min       -11
_diffrn_reflns_limit_l_max       17
_diffrn_reflns_limit_l_min       -16
_diffrn_reflns_number            4780
_diffrn_reflns_theta_full        29.38
_diffrn_reflns_theta_max         29.38
_diffrn_reflns_theta_min         3.25
_exptl_absorpt_coefficient_mu    26.462
_exptl_crystal_density_diffrn    4.1319
_exptl_crystal_F_000             1040
_refine_diff_density_max         1.50
_refine_diff_density_min         -3.58
_refine_ls_abs_structure_details
'  513 of Friedel pairs used in the refinement'
_refine_ls_abs_structure_Flack   0.27(5)
_refine_ls_extinction_method     none
_refine_ls_goodness_of_fit_gt    7.55
_refine_ls_goodness_of_fit_ref   7.05
_refine_ls_hydrogen_treatment    constr
_refine_ls_number_constraints    26
_refine_ls_number_parameters     19
_refine_ls_number_reflns         1860
_refine_ls_number_restraints     1
_refine_ls_R_factor_all          0.1199
_refine_ls_R_factor_gt           0.1091
_refine_ls_shift/su_max          0.0221
_refine_ls_shift/su_mean         0.0050
_refine_ls_structure_factor_coef F
_refine_ls_weighting_details     w=1/(\s^2^(F)+0.0001F^2^)
_refine_ls_weighting_scheme      sigma
_refine_ls_wR_factor_gt          0.1260
_refine_ls_wR_factor_ref         0.1263
_reflns_number_gt                1616
_reflns_number_total             1860
_reflns_threshold_expression     I>2\s(I)
_cod_data_source_file            am0c14925_si_002.cif
_cod_data_source_block           I
_cod_depositor_comments
;
The following automatic conversions were performed:

data item '_diffrn_radiation_probe' value 'X-ray' was changed to
'x-ray' in accordance with the
/home/data/users/saulius/crontab/automatic-downloads/rss-feeds/ACS/lib/dictionaries/cif_core.dic
dictionary named 'cif_core.dic' version 2.4.2 last updated on
2011-04-26.

Automatic conversion script
Id: cif_fix_values 7556 2019-12-06 15:28:31Z antanas 

 Adding full bibliography for 4518042--4518043.cif.
;
_cod_original_sg_symbol_Hall     'I 4;-2c'
_cod_original_formula_sum        'C1 H6 I3 N1 Pb1'
_cod_database_code               4518042
loop_
_space_group_symop_id
_space_group_symop_operation_xyz
1 x,y,z
2 -x,-y,z
3 -y,x,z
4 y,-x,z
5 x,-y,z+1/2
6 -x,y,z+1/2
7 -y,-x,z+1/2
8 y,x,z+1/2
9 x+1/2,y+1/2,z+1/2
10 -x+1/2,-y+1/2,z+1/2
11 -y+1/2,x+1/2,z+1/2
12 y+1/2,-x+1/2,z+1/2
13 x+1/2,-y+1/2,z
14 -x+1/2,y+1/2,z
15 -y+1/2,-x+1/2,z
16 y+1/2,x+1/2,z
loop_
_atom_site_label
_atom_site_type_symbol
_atom_site_fract_x
_atom_site_fract_y
_atom_site_fract_z
_atom_site_adp_type
_atom_site_U_iso_or_equiv
_atom_site_site_symmetry_multiplicity
_atom_site_occupancy
_atom_site_calc_flag
_atom_site_refinement_flags
_atom_site_disorder_assembly
_atom_site_disorder_group
Pb1 Pb 0 0 0.4472(3) Uani 0.0257(5) 4 1 d . . .
I1 I 0 0 0.1954(9) Uani 0.0734(14) 4 1 d . . .
I2 I -0.2881(3) 0.2119(3) 0.4598(8) Uani 0.0659(11) 8 1 d . . .
C1 C 0.5 0 0.610(6) Uiso 0.12(3) 4 1 d . . .
N1 N 0.5 0 0.729(6) Uiso 0.12(3) 4 1 d . . .
H1c1 H 0.419508 0.062302 0.584565 Uiso 0.1403 16 0.25 d . . .
H2c1 H 0.594201 0.038557 0.584565 Uiso 0.1403 16 0.25 d . . .
H3c1 H 0.486291 -0.100859 0.584565 Uiso 0.1403 16 0.25 d . . .
H1n1 H 0.464239 -0.08503 0.751965 Uiso 0.1403 16 0.25 d . . .
H2n1 H 0.591519 0.011545 0.751965 Uiso 0.1403 16 0.25 d . . .
H3n1 H 0.444242 0.073485 0.751965 Uiso 0.1403 16 0.25 d . . .
loop_
_atom_site_aniso_label
_atom_site_aniso_type_symbol
_atom_site_aniso_U_11
_atom_site_aniso_U_22
_atom_site_aniso_U_33
_atom_site_aniso_U_12
_atom_site_aniso_U_13
_atom_site_aniso_U_23
Pb1 Pb 0.0243(6) 0.0243(6) 0.0285(11) 0 0 0
I1 I 0.094(2) 0.094(2) 0.031(2) 0 0 0
I2 I 0.0514(11) 0.0514(11) 0.095(3) 0.0349(14) 0.000(3) 0.000(3)
loop_
_atom_type_symbol
_atom_type_scat_dispersion_real
_atom_type_scat_dispersion_imag
_atom_type_scat_source
C 0.0034 0.0017 'International Tables Vol C tables 4.2.6.8 and 6.1.1.1'
H 0.0000 0.0000 'International Tables Vol C tables 4.2.6.8 and 6.1.1.1'
I -0.4307 1.8540 'International Tables Vol C tables 4.2.6.8 and 6.1.1.1'
N 0.0067 0.0035 'International Tables Vol C tables 4.2.6.8 and 6.1.1.1'
Pb -3.4976 10.2646 'International Tables Vol C tables 4.2.6.8 and 6.1.1.1'
loop_
_diffrn_standard_refln_index_h
_diffrn_standard_refln_index_k
_diffrn_standard_refln_index_l
? ? ?
loop_
_exptl_crystal_face_index_h
_exptl_crystal_face_index_k
_exptl_crystal_face_index_l
_exptl_crystal_face_perp_dist
? ? ? ?
loop_
_geom_angle_atom_site_label_1
_geom_angle_atom_site_label_2
_geom_angle_atom_site_label_3
_geom_angle_site_symmetry_1
_geom_angle_site_symmetry_2
_geom_angle_site_symmetry_3
_geom_angle
_geom_angle_publ_flag
I1 Pb1 I1 . . 5_555 180.0(5) ?
I1 Pb1 I2 . . . 92.86(18) ?
I1 Pb1 I2 . . 2_555 92.86(18) ?
I1 Pb1 I2 . . 3_555 92.86(18) ?
I1 Pb1 I2 . . 4_555 92.86(18) ?
I1 Pb1 I2 5_555 . . 87.14(18) ?
I1 Pb1 I2 5_555 . 2_555 87.14(18) ?
I1 Pb1 I2 5_555 . 3_555 87.14(18) ?
I1 Pb1 I2 5_555 . 4_555 87.14(18) ?
I2 Pb1 I2 . . 2_555 174.3(3) ?
I2 Pb1 I2 . . 3_555 89.86(8) ?
I2 Pb1 I2 . . 4_555 89.86(8) ?
I2 Pb1 I2 2_555 . 3_555 89.86(8) ?
I2 Pb1 I2 2_555 . 4_555 89.86(8) ?
I2 Pb1 I2 3_555 . 4_555 174.3(3) ?
Pb1 I1 Pb1 . . 5_554 180.0(5) ?
Pb1 I2 Pb1 . . 13_455 161.77(15) ?
Pb1 I2 N1 . . 11_444 93.7(2) ?
Pb1 I2 N1 13_455 . 11_444 93.7(2) ?
N1 C1 H1c1 . . . 109.48 ?
N1 C1 H1c1 . . 2_655 109.48 ?
N1 C1 H1c1 . . 15_555 109.48 ?
N1 C1 H1c1 . . 16_545 109.48 ?
N1 C1 H2c1 . . . 109.48 ?
N1 C1 H2c1 . . 2_655 109.48 ?
N1 C1 H2c1 . . 15_555 109.48 ?
N1 C1 H2c1 . . 16_545 109.48 ?
N1 C1 H3c1 . . . 109.48 ?
N1 C1 H3c1 . . 2_655 109.48 ?
N1 C1 H3c1 . . 15_555 109.48 ?
N1 C1 H3c1 . . 16_545 109.48 ?
H1c1 C1 H1c1 . . 2_655 141.05 ?
H1c1 C1 H1c1 . . 15_555 13.68 ?
H1c1 C1 H1c1 . . 16_545 138.53 ?
H1c1 C1 H2c1 . . . 109.47 ?
H1c1 C1 H2c1 . . 2_655 56.25 ?
H1c1 C1 H2c1 . . 15_555 97.24 ?
H1c1 C1 H2c1 . . 16_545 69.61 ?
H1c1 C1 H3c1 . . . 109.47 ?
H1c1 C1 H3c1 . . 2_655 56.25 ?
H1c1 C1 H3c1 . . 15_555 120.8 ?
H1c1 C1 H3c1 . . 16_545 42.75 ?
H1c1 C1 H1c1 2_655 . 15_555 138.53 ?
H1c1 C1 H1c1 2_655 . 16_545 13.68 ?
H1c1 C1 H2c1 2_655 . . 56.25 ?
H1c1 C1 H2c1 2_655 . 2_655 109.47 ?
H1c1 C1 H2c1 2_655 . 15_555 69.61 ?
H1c1 C1 H2c1 2_655 . 16_545 97.24 ?
H1c1 C1 H3c1 2_655 . . 56.25 ?
H1c1 C1 H3c1 2_655 . 2_655 109.47 ?
H1c1 C1 H3c1 2_655 . 15_555 42.75 ?
H1c1 C1 H3c1 2_655 . 16_545 120.8 ?
H1c1 C1 H1c1 15_555 . 16_545 141.05 ?
H1c1 C1 H2c1 15_555 . . 97.24 ?
H1c1 C1 H2c1 15_555 . 2_655 69.61 ?
H1c1 C1 H2c1 15_555 . 15_555 109.47 ?
H1c1 C1 H2c1 15_555 . 16_545 56.25 ?
H1c1 C1 H3c1 15_555 . . 120.8 ?
H1c1 C1 H3c1 15_555 . 2_655 42.75 ?
H1c1 C1 H3c1 15_555 . 15_555 109.47 ?
H1c1 C1 H3c1 15_555 . 16_545 56.25 ?
H1c1 C1 H2c1 16_545 . . 69.61 ?
H1c1 C1 H2c1 16_545 . 2_655 97.24 ?
H1c1 C1 H2c1 16_545 . 15_555 56.25 ?
H1c1 C1 H2c1 16_545 . 16_545 109.47 ?
H1c1 C1 H3c1 16_545 . . 42.75 ?
H1c1 C1 H3c1 16_545 . 2_655 120.8 ?
H1c1 C1 H3c1 16_545 . 15_555 56.25 ?
H1c1 C1 H3c1 16_545 . 16_545 109.47 ?
H2c1 C1 H2c1 . . 2_655 141.05 ?
H2c1 C1 H2c1 . . 15_555 120.8 ?
H2c1 C1 H2c1 . . 16_545 42.75 ?
H2c1 C1 H3c1 . . . 109.47 ?
H2c1 C1 H3c1 . . 2_655 56.25 ?
H2c1 C1 H3c1 . . 15_555 13.68 ?
H2c1 C1 H3c1 . . 16_545 138.53 ?
H2c1 C1 H2c1 2_655 . 15_555 42.75 ?
H2c1 C1 H2c1 2_655 . 16_545 120.8 ?
H2c1 C1 H3c1 2_655 . . 56.25 ?
H2c1 C1 H3c1 2_655 . 2_655 109.47 ?
H2c1 C1 H3c1 2_655 . 15_555 138.53 ?
H2c1 C1 H3c1 2_655 . 16_545 13.68 ?
H2c1 C1 H2c1 15_555 . 16_545 141.05 ?
H2c1 C1 H3c1 15_555 . . 13.68 ?
H2c1 C1 H3c1 15_555 . 2_655 138.53 ?
H2c1 C1 H3c1 15_555 . 15_555 109.47 ?
H2c1 C1 H3c1 15_555 . 16_545 56.25 ?
H2c1 C1 H3c1 16_545 . . 138.53 ?
H2c1 C1 H3c1 16_545 . 2_655 13.68 ?
H2c1 C1 H3c1 16_545 . 15_555 56.25 ?
H2c1 C1 H3c1 16_545 . 16_545 109.47 ?
H3c1 C1 H3c1 . . 2_655 141.05 ?
H3c1 C1 H3c1 . . 15_555 97.24 ?
H3c1 C1 H3c1 . . 16_545 69.61 ?
H3c1 C1 H3c1 2_655 . 15_555 69.61 ?
H3c1 C1 H3c1 2_655 . 16_545 97.24 ?
H3c1 C1 H3c1 15_555 . 16_545 141.05 ?
I2 N1 I2 11_555 . 12_545 85.0(16) ?
I2 N1 C1 11_555 . . 137.5(8) ?
I2 N1 H1n1 11_555 . . 89.7 ?
I2 N1 H1n1 11_555 . 2_655 60.91 ?
I2 N1 H1n1 11_555 . 15_555 89.7 ?
I2 N1 H1n1 11_555 . 16_545 60.91 ?
I2 N1 H2n1 11_555 . . 98.32 ?
I2 N1 H2n1 11_555 . 2_655 50.49 ?
I2 N1 H2n1 11_555 . 15_555 98.32 ?
I2 N1 H2n1 11_555 . 16_545 50.49 ?
I2 N1 H3n1 11_555 . . 28.76 ?
I2 N1 H3n1 11_555 . 2_655 112.66 ?
I2 N1 H3n1 11_555 . 15_555 28.76 ?
I2 N1 H3n1 11_555 . 16_545 112.66 ?
I2 N1 C1 12_545 . . 137.5(8) ?
I2 N1 H1n1 12_545 . . 60.91 ?
I2 N1 H1n1 12_545 . 2_655 89.7 ?
I2 N1 H1n1 12_545 . 15_555 60.91 ?
I2 N1 H1n1 12_545 . 16_545 89.7 ?
I2 N1 H2n1 12_545 . . 50.49 ?
I2 N1 H2n1 12_545 . 2_655 98.32 ?
I2 N1 H2n1 12_545 . 15_555 50.49 ?
I2 N1 H2n1 12_545 . 16_545 98.32 ?
I2 N1 H3n1 12_545 . . 112.66 ?
I2 N1 H3n1 12_545 . 2_655 28.76 ?
I2 N1 H3n1 12_545 . 15_555 112.66 ?
I2 N1 H3n1 12_545 . 16_545 28.76 ?
C1 N1 H1n1 . . . 109.47 ?
C1 N1 H1n1 . . 2_655 109.47 ?
C1 N1 H1n1 . . 15_555 109.47 ?
C1 N1 H1n1 . . 16_545 109.47 ?
C1 N1 H2n1 . . . 109.47 ?
C1 N1 H2n1 . . 2_655 109.47 ?
C1 N1 H2n1 . . 15_555 109.47 ?
C1 N1 H2n1 . . 16_545 109.47 ?
C1 N1 H3n1 . . . 109.47 ?
C1 N1 H3n1 . . 2_655 109.47 ?
C1 N1 H3n1 . . 15_555 109.47 ?
C1 N1 H3n1 . . 16_545 109.47 ?
H1n1 N1 H1n1 . . 2_655 141.07 ?
H1n1 N1 H1n1 . . 15_555 121.62 ?
H1n1 N1 H1n1 . . 16_545 41.72 ?
H1n1 N1 H2n1 . . . 109.48 ?
H1n1 N1 H2n1 . . 2_655 56.25 ?
H1n1 N1 H2n1 . . 15_555 14.72 ?
H1n1 N1 H2n1 . . 16_545 138.16 ?
H1n1 N1 H3n1 . . . 109.48 ?
H1n1 N1 H3n1 . . 2_655 56.25 ?
H1n1 N1 H3n1 . . 15_555 96.3 ?
H1n1 N1 H3n1 . . 16_545 70.62 ?
H1n1 N1 H1n1 2_655 . 15_555 41.72 ?
H1n1 N1 H1n1 2_655 . 16_545 121.62 ?
H1n1 N1 H2n1 2_655 . . 56.25 ?
H1n1 N1 H2n1 2_655 . 2_655 109.48 ?
H1n1 N1 H2n1 2_655 . 15_555 138.16 ?
H1n1 N1 H2n1 2_655 . 16_545 14.72 ?
H1n1 N1 H3n1 2_655 . . 56.25 ?
H1n1 N1 H3n1 2_655 . 2_655 109.48 ?
H1n1 N1 H3n1 2_655 . 15_555 70.62 ?
H1n1 N1 H3n1 2_655 . 16_545 96.3 ?
H1n1 N1 H1n1 15_555 . 16_545 141.07 ?
H1n1 N1 H2n1 15_555 . . 14.72 ?
H1n1 N1 H2n1 15_555 . 2_655 138.16 ?
H1n1 N1 H2n1 15_555 . 15_555 109.48 ?
H1n1 N1 H2n1 15_555 . 16_545 56.25 ?
H1n1 N1 H3n1 15_555 . . 96.3 ?
H1n1 N1 H3n1 15_555 . 2_655 70.62 ?
H1n1 N1 H3n1 15_555 . 15_555 109.48 ?
H1n1 N1 H3n1 15_555 . 16_545 56.25 ?
H1n1 N1 H2n1 16_545 . . 138.16 ?
H1n1 N1 H2n1 16_545 . 2_655 14.72 ?
H1n1 N1 H2n1 16_545 . 15_555 56.25 ?
H1n1 N1 H2n1 16_545 . 16_545 109.48 ?
H1n1 N1 H3n1 16_545 . . 70.62 ?
H1n1 N1 H3n1 16_545 . 2_655 96.3 ?
H1n1 N1 H3n1 16_545 . 15_555 56.25 ?
H1n1 N1 H3n1 16_545 . 16_545 109.48 ?
H2n1 N1 H2n1 . . 2_655 141.07 ?
H2n1 N1 H2n1 . . 15_555 96.3 ?
H2n1 N1 H2n1 . . 16_545 70.62 ?
H2n1 N1 H3n1 . . . 109.48 ?
H2n1 N1 H3n1 . . 2_655 56.25 ?
H2n1 N1 H3n1 . . 15_555 121.62 ?
H2n1 N1 H3n1 . . 16_545 41.72 ?
H2n1 N1 H2n1 2_655 . 15_555 70.62 ?
H2n1 N1 H2n1 2_655 . 16_545 96.3 ?
H2n1 N1 H3n1 2_655 . . 56.25 ?
H2n1 N1 H3n1 2_655 . 2_655 109.48 ?
H2n1 N1 H3n1 2_655 . 15_555 41.72 ?
H2n1 N1 H3n1 2_655 . 16_545 121.62 ?
H2n1 N1 H2n1 15_555 . 16_545 141.07 ?
H2n1 N1 H3n1 15_555 . . 121.62 ?
H2n1 N1 H3n1 15_555 . 2_655 41.72 ?
H2n1 N1 H3n1 15_555 . 15_555 109.48 ?
H2n1 N1 H3n1 15_555 . 16_545 56.25 ?
H2n1 N1 H3n1 16_545 . . 41.72 ?
H2n1 N1 H3n1 16_545 . 2_655 121.62 ?
H2n1 N1 H3n1 16_545 . 15_555 56.25 ?
H2n1 N1 H3n1 16_545 . 16_545 109.48 ?
H3n1 N1 H3n1 . . 2_655 141.07 ?
H3n1 N1 H3n1 . . 15_555 14.72 ?
H3n1 N1 H3n1 . . 16_545 138.16 ?
H3n1 N1 H3n1 2_655 . 15_555 138.16 ?
H3n1 N1 H3n1 2_655 . 16_545 14.72 ?
H3n1 N1 H3n1 15_555 . 16_545 141.07 ?
C1 H1c1 H1c1 . . 15_555 83.16 ?
C1 H1c1 H2c1 . . 2_655 61.88 ?
C1 H1c1 H3c1 . . 2_655 61.88 ?
C1 H1c1 H3c1 . . 16_545 68.63 ?
H1c1 H1c1 H2c1 15_555 . 2_655 142.74 ?
H1c1 H1c1 H3c1 15_555 . 2_655 22.74 ?
H1c1 H1c1 H3c1 15_555 . 16_545 150 ?
H2c1 H1c1 H3c1 2_655 . 2_655 120 ?
H2c1 H1c1 H3c1 2_655 . 16_545 7.26 ?
H3c1 H1c1 H3c1 2_655 . 16_545 127.26 ?
C1 H2c1 H1c1 . . 2_655 61.88 ?
C1 H2c1 H2c1 . . 16_545 68.63 ?
C1 H2c1 H3c1 . . 2_655 61.88 ?
C1 H2c1 H3c1 . . 15_555 83.16 ?
H1c1 H2c1 H2c1 2_655 . 16_545 127.26 ?
H1c1 H2c1 H3c1 2_655 . 2_655 120 ?
H1c1 H2c1 H3c1 2_655 . 15_555 22.74 ?
H2c1 H2c1 H3c1 16_545 . 2_655 7.26 ?
H2c1 H2c1 H3c1 16_545 . 15_555 150 ?
H3c1 H2c1 H3c1 2_655 . 15_555 142.74 ?
C1 H3c1 H1c1 . . 2_655 61.88 ?
C1 H3c1 H1c1 . . 16_545 68.63 ?
C1 H3c1 H2c1 . . 2_655 61.88 ?
C1 H3c1 H2c1 . . 15_555 83.16 ?
H1c1 H3c1 H1c1 2_655 . 16_545 7.26 ?
H1c1 H3c1 H2c1 2_655 . 2_655 120 ?
H1c1 H3c1 H2c1 2_655 . 15_555 142.74 ?
H1c1 H3c1 H2c1 16_545 . 2_655 127.26 ?
H1c1 H3c1 H2c1 16_545 . 15_555 150 ?
H2c1 H3c1 H2c1 2_655 . 15_555 22.74 ?
N1 H1n1 H1n1 . . 16_545 69.14 ?
N1 H1n1 H2n1 . . 2_655 61.87 ?
N1 H1n1 H2n1 . . 15_555 82.64 ?
N1 H1n1 H3n1 . . 2_655 61.87 ?
N1 H1n1 H3n1 . . 16_545 54.69 ?
H1n1 H1n1 H2n1 16_545 . 2_655 7.81 ?
H1n1 H1n1 H2n1 16_545 . 15_555 150 ?
H1n1 H1n1 H3n1 16_545 . 2_655 127.81 ?
H1n1 H1n1 H3n1 16_545 . 16_545 120 ?
H2n1 H1n1 H2n1 2_655 . 15_555 142.19 ?
H2n1 H1n1 H3n1 2_655 . 2_655 120 ?
H2n1 H1n1 H3n1 2_655 . 16_545 112.19 ?
H2n1 H1n1 H3n1 15_555 . 2_655 22.19 ?
H2n1 H1n1 H3n1 15_555 . 16_545 30 ?
H3n1 H1n1 H3n1 2_655 . 16_545 7.81 ?
N1 H2n1 H1n1 . . 2_655 61.87 ?
N1 H2n1 H1n1 . . 15_555 82.64 ?
N1 H2n1 H2n1 . . 16_545 54.69 ?
N1 H2n1 H3n1 . . 2_655 61.87 ?
N1 H2n1 H3n1 . . 16_545 69.14 ?
H1n1 H2n1 H1n1 2_655 . 15_555 22.19 ?
H1n1 H2n1 H2n1 2_655 . 16_545 7.81 ?
H1n1 H2n1 H3n1 2_655 . 2_655 120 ?
H1n1 H2n1 H3n1 2_655 . 16_545 127.81 ?
H1n1 H2n1 H2n1 15_555 . 16_545 30 ?
H1n1 H2n1 H3n1 15_555 . 2_655 142.19 ?
H1n1 H2n1 H3n1 15_555 . 16_545 150 ?
H2n1 H2n1 H3n1 16_545 . 2_655 112.19 ?
H2n1 H2n1 H3n1 16_545 . 16_545 120 ?
H3n1 H2n1 H3n1 2_655 . 16_545 7.81 ?
N1 H3n1 H1n1 . . 2_655 61.87 ?
N1 H3n1 H1n1 . . 16_545 54.69 ?
N1 H3n1 H2n1 . . 2_655 61.87 ?
N1 H3n1 H2n1 . . 16_545 69.14 ?
N1 H3n1 H3n1 . . 15_555 82.64 ?
H1n1 H3n1 H1n1 2_655 . 16_545 112.19 ?
H1n1 H3n1 H2n1 2_655 . 2_655 120 ?
H1n1 H3n1 H2n1 2_655 . 16_545 7.81 ?
H1n1 H3n1 H3n1 2_655 . 15_555 142.19 ?
H1n1 H3n1 H2n1 16_545 . 2_655 7.81 ?
H1n1 H3n1 H2n1 16_545 . 16_545 120 ?
H1n1 H3n1 H3n1 16_545 . 15_555 30 ?
H2n1 H3n1 H2n1 2_655 . 16_545 127.81 ?
H2n1 H3n1 H3n1 2_655 . 15_555 22.19 ?
H2n1 H3n1 H3n1 16_545 . 15_555 150 ?
loop_
_geom_bond_atom_site_label_1
_geom_bond_atom_site_label_2
_geom_bond_site_symmetry_1
_geom_bond_site_symmetry_2
_geom_bond_distance
_geom_bond_publ_flag
Pb1 I1 . . 3.174(11) ?
Pb1 I1 . 5_555 3.128(11) ?
Pb1 I2 . . 3.184(3) ?
Pb1 I2 . 2_555 3.184(3) ?
Pb1 I2 . 3_555 3.184(3) ?
Pb1 I2 . 4_555 3.184(3) ?
I2 N1 . 11_444 3.95(6) ?
C1 N1 . . 1.50(12) ?
C1 H1c1 . . 0.96 ?
C1 H1c1 . 2_655 0.96 ?
C1 H1c1 . 15_555 0.96 ?
C1 H1c1 . 16_545 0.96 ?
C1 H2c1 . . 0.96 ?
C1 H2c1 . 2_655 0.96 ?
C1 H2c1 . 15_555 0.96 ?
C1 H2c1 . 16_545 0.96 ?
C1 H3c1 . . 0.96 ?
C1 H3c1 . 2_655 0.96 ?
C1 H3c1 . 15_555 0.96 ?
C1 H3c1 . 16_545 0.96 ?
N1 H1n1 . . 0.87 ?
N1 H1n1 . 2_655 0.87 ?
N1 H1n1 . 15_555 0.87 ?
N1 H1n1 . 16_545 0.87 ?
N1 H2n1 . . 0.87 ?
N1 H2n1 . 2_655 0.87 ?
N1 H2n1 . 15_555 0.87 ?
N1 H2n1 . 16_545 0.87 ?
N1 H3n1 . . 0.87 ?
N1 H3n1 . 2_655 0.87 ?
N1 H3n1 . 15_555 0.87 ?
N1 H3n1 . 16_545 0.87 ?
H1c1 H1c1 . 15_555 0.2287 ?
H1c1 H2c1 . 2_655 0.9051 ?
H1c1 H3c1 . 2_655 0.9051 ?
H1c1 H3c1 . 16_545 0.6997 ?
H2c1 H2c1 . 16_545 0.6997 ?
H2c1 H3c1 . 2_655 0.9051 ?
H2c1 H3c1 . 15_555 0.2287 ?
H1n1 H1n1 . 16_545 0.6196 ?
H1n1 H2n1 . 2_655 0.8202 ?
H1n1 H2n1 . 15_555 0.2229 ?
H1n1 H3n1 . 2_655 0.8202 ?
H1n1 H3n1 . 16_545 1.0057 ?
H2n1 H2n1 . 16_545 1.0057 ?
H2n1 H3n1 . 2_655 0.8202 ?
H2n1 H3n1 . 16_545 0.6196 ?
H3n1 H3n1 . 15_555 0.2229 ?
loop_
_geom_hbond_atom_site_label_D
_geom_hbond_atom_site_label_H
_geom_hbond_atom_site_label_A
_geom_hbond_site_symmetry_D
_geom_hbond_site_symmetry_H
_geom_hbond_site_symmetry_A
_geom_hbond_distance_DH
_geom_hbond_distance_HA
_geom_hbond_distance_DA
_geom_hbond_angle_DHA
_geom_hbond_publ_flag
C1 H2c1 I2 . . 1_655 0.96 2.44 3.27(5) 144.63 ?
loop_
_geom_torsion_atom_site_label_1
_geom_torsion_atom_site_label_2
_geom_torsion_atom_site_label_3
_geom_torsion_atom_site_label_4
_geom_torsion_site_symmetry_1
_geom_torsion_site_symmetry_2
_geom_torsion_site_symmetry_3
_geom_torsion_site_symmetry_4
_geom_torsion
_geom_torsion_publ_flag
? ? ? ? ? ? ? ? ? ?
loop_
_refln_index_h
_refln_index_k
_refln_index_l
_refln_F_squared_calc
_refln_F_squared_meas
_refln_F_squared_sigma
_refln_observed_status
? ? ? ? ? ? ?
loop_
_restr_angle_atom_site_label_1
_restr_angle_site_symmetry_1
_restr_angle_atom_site_label_2
_restr_angle_site_symmetry_2
_restr_angle_atom_site_label_3
_restr_angle_site_symmetry_3
_restr_angle_target
_restr_angle_target_weight_param
? ? ? ? ? ? ? ?
loop_
_restr_distance_atom_site_label_1
_restr_distance_site_symmetry_1
_restr_distance_atom_site_label_2
_restr_distance_site_symmetry_2
_restr_distance_target
_restr_distance_target_weight_param
C1 . N1 . 1.5 0.001
loop_
_restr_equal_angle_atom_site_label_1
_restr_equal_angle_site_symmetry_1
_restr_equal_angle_atom_site_label_2
_restr_equal_angle_site_symmetry_2
_restr_equal_angle_atom_site_label_3
_restr_equal_angle_site_symmetry_3
_restr_equal_angle_class_class_id
_restr_equal_angle_class_target_weight_param
? ? ? ? ? ? ? ?
loop_
_restr_equal_distance_atom_site_label_1
_restr_equal_distance_site_symmetry_1
_restr_equal_distance_atom_site_label_2
_restr_equal_distance_site_symmetry_2
_restr_equal_distance_class_class_id
_restr_equal_distance_class_target_weight_param
? ? ? ? ? ?
loop_
_restr_equal_torsion_atom_site_label_1
_restr_equal_torsion_site_symmetry_1
_restr_equal_torsion_atom_site_label_2
_restr_equal_torsion_site_symmetry_2
_restr_equal_torsion_atom_site_label_3
_restr_equal_torsion_site_symmetry_3
_restr_equal_torsion_atom_site_label_4
_restr_equal_torsion_site_symmetry_4
_restr_equal_torsion_class_class_id
_restr_equal_torsion_class_target_weight_param
? ? ? ? ? ? ? ? ? ?
loop_
_restr_torsion_atom_site_label_1
_restr_torsion_site_symmetry_1
_restr_torsion_atom_site_label_2
_restr_torsion_site_symmetry_2
_restr_torsion_atom_site_label_3
_restr_torsion_site_symmetry_3
_restr_torsion_atom_site_label_4
_restr_torsion_site_symmetry_4
_restr_torsion_angle_target
_restr_torsion_weight_param
? ? ? ? ? ? ? ? ? ?
loop_
_twin_individual_id
_twin_individual_mass_fraction_refined
_twin_individual_twin_matrix_11
_twin_individual_twin_matrix_12
_twin_individual_twin_matrix_13
_twin_individual_twin_matrix_21
_twin_individual_twin_matrix_22
_twin_individual_twin_matrix_23
_twin_individual_twin_matrix_31
_twin_individual_twin_matrix_32
_twin_individual_twin_matrix_33
1 0.13(6) 1 0 0 0 1 0 0 0 1
2 0.545(18) -0.5 -0.5 1 -0.5 -0.5 -1 0.5 -0.5 0
3 0.05(3) 0.5 0.5 1 0.5 -0.8 0.3333 0.5 0.2 -0.6667
4 0.27(5) -1 0 0 0 -1 0 0 0 -1
loop_
_twin_refln_datum_id
_twin_refln_individual_id
_twin_refln_index_h
_twin_refln_index_k
_twin_refln_index_l
_twin_refln_F_squared_calc
_twin_refln_F_squared_meas
_twin_refln_F_squared_sigma
_twin_refln_include_status
1 4 1 -1 0 171201.00 125330.00 1737.29 o
1 2 0 0 -2 171201.00 125330.00 1737.29 o
1 1 -1 1 0 171201.00 125330.00 1737.29 o
2 4 -1 1 0 176820.00 127672.00 1757.26 o
2 2 0 0 2 176820.00 127672.00 1757.26 o
2 1 1 -1 0 176820.00 127672.00 1757.26 o
3 4 -1 -1 0 153863.00 122437.00 1024.12 o
3 2 -1 -1 0 153863.00 122437.00 1024.12 o
3 1 1 1 0 153863.00 122437.00 1024.12 o
4 4 2 -2 0 481812.00 285269.00 1762.96 o
4 2 0 0 -4 481812.00 285269.00 1762.96 o
4 1 -2 2 0 481812.00 285269.00 1762.96 o
5 4 0 -2 0 22713.80 30098.70 496.37 o
5 2 -1 -1 -2 22713.80 30098.70 496.37 o
5 1 0 2 0 22713.80 30098.70 496.37 o
6 4 -2 0 0 22717.50 28010.60 673.23 o
6 3 1 1 2 22717.50 28010.60 673.23 o
6 2 -1 -1 2 22717.50 28010.60 673.23 o
6 1 2 0 0 22717.50 28010.60 673.23 o
7 4 0 2 0 22052.70 28033.40 761.67 o
7 2 1 1 2 22052.70 28033.40 761.67 o
7 1 0 -2 0 22052.70 28033.40 761.67 o
8 4 3 -3 0 57809.70 61609.50 676.09 o
8 2 0 0 -6 57809.70 61609.50 676.09 o
8 1 -3 3 0 57809.70 61609.50 676.09 o
9 4 -3 3 0 62333.80 63540.80 690.35 o
9 2 0 0 6 62333.80 63540.80 690.35 o
9 1 3 -3 0 62333.80 63540.80 690.35 o
10 4 1 -3 0 157710.00 119710.00 741.70 o
10 2 -1 -1 -4 157710.00 119710.00 741.70 o
10 1 -1 3 0 157710.00 119710.00 741.70 o
11 4 -3 1 0 156502.00 115945.00 738.85 o
11 2 -1 -1 4 156502.00 115945.00 738.85 o
11 1 3 -1 0 156502.00 115945.00 738.85 o
12 4 -1 -3 0 133355.00 111940.00 676.09 o
12 2 -2 -2 -2 133355.00 111940.00 676.09 o
12 1 1 3 0 133355.00 111940.00 676.09 o
13 4 -3 -1 0 136371.00 107649.00 667.53 o
13 2 -2 -2 2 136371.00 107649.00 667.53 o
13 1 3 1 0 136371.00 107649.00 667.53 o
14 4 -3 -3 0 32208.10 49691.00 387.97 o
14 2 -3 -3 0 32208.10 49691.00 387.97 o
14 1 3 3 0 32208.10 49691.00 387.97 o
15 4 4 -4 0 141819.00 139505.00 864.36 o
15 2 0 0 -8 141819.00 139505.00 864.36 o
15 1 -4 4 0 141819.00 139505.00 864.36 o
16 4 -4 4 0 146204.00 129364.00 838.69 o
16 2 0 0 8 146204.00 129364.00 838.69 o
16 1 4 -4 0 146204.00 129364.00 838.69 o
17 4 2 -4 0 18439.40 26364.60 330.91 o
17 2 -1 -1 -6 18439.40 26364.60 330.91 o
17 1 -2 4 0 18439.40 26364.60 330.91 o
18 4 -4 2 0 19363.50 16374.40 282.42 o
18 2 -1 -1 6 19363.50 16374.40 282.42 o
18 1 4 -2 0 19363.50 16374.40 282.42 o
19 4 0 -4 0 269579.00 233327.00 1309.38 o
19 2 -2 -2 -4 269579.00 233327.00 1309.38 o
19 1 0 4 0 269579.00 233327.00 1309.38 o
20 4 -4 0 0 287859.00 247211.00 1312.24 o
20 3 2 2 4 287859.00 247211.00 1312.24 o
20 2 -2 -2 4 287859.00 247211.00 1312.24 o
20 1 4 0 0 287859.00 247211.00 1312.24 o
21 4 -2 -4 0 16879.50 15341.80 251.04 o
21 2 -3 -3 -2 16879.50 15341.80 251.04 o
21 1 2 4 0 16879.50 15341.80 251.04 o
22 4 -4 -2 0 15804.30 14745.50 253.89 o
22 2 -3 -3 2 15804.30 14745.50 253.89 o
22 1 4 2 0 15804.30 14745.50 253.89 o
23 4 -4 -4 0 126092.00 128628.00 547.72 o
23 2 -4 -4 0 126092.00 128628.00 547.72 o
23 1 4 4 0 126092.00 128628.00 547.72 o
24 4 5 -5 0 9565.58 9605.00 302.39 o
24 2 0 0 -10 9565.58 9605.00 302.39 o
24 1 -5 5 0 9565.58 9605.00 302.39 o
25 4 -5 5 0 12302.60 12939.80 299.53 o
25 2 0 0 10 12302.60 12939.80 299.53 o
25 1 5 -5 0 12302.60 12939.80 299.53 o
26 4 3 -5 0 97817.60 107387.00 530.60 o
26 2 -1 -1 -8 97817.60 107387.00 530.60 o
26 1 -3 5 0 97817.60 107387.00 530.60 o
27 4 -5 3 0 96389.30 80211.90 482.10 o
27 2 -1 -1 8 96389.30 80211.90 482.10 o
27 1 5 -3 0 96389.30 80211.90 482.10 o
28 4 1 -5 0 47736.90 50578.20 422.20 o
28 2 -2 -2 -6 47736.90 50578.20 422.20 o
28 1 -1 5 0 47736.90 50578.20 422.20 o
29 4 -5 1 0 50931.80 58557.10 445.02 o
29 2 -2 -2 6 50931.80 58557.10 445.02 o
29 1 5 -1 0 50931.80 58557.10 445.02 o
30 4 -1 -5 0 42476.20 48755.30 330.91 o
30 2 -3 -3 -4 42476.20 48755.30 330.91 o
30 1 1 5 0 42476.20 48755.30 330.91 o
31 4 -5 -1 0 40484.40 55901.30 593.36 o
31 2 -3 -3 4 40484.40 55901.30 593.36 o
31 1 5 1 0 40484.40 55901.30 593.36 o
32 4 -3 -5 0 78507.10 82197.40 445.02 o
32 2 -4 -4 -2 78507.10 82197.40 445.02 o
32 1 3 5 0 78507.10 82197.40 445.02 o
33 4 -5 -3 0 79447.60 80999.20 433.61 o
33 2 -4 -4 2 79447.60 80999.20 433.61 o
33 1 5 3 0 79447.60 80999.20 433.61 o
34 4 -5 -5 0 3186.94 5488.57 188.28 o
34 2 -5 -5 0 3186.94 5488.57 188.28 o
34 1 5 5 0 3186.94 5488.57 188.28 o
35 4 6 -6 0 39858.50 44664.60 484.96 o
35 2 0 0 -12 39858.50 44664.60 484.96 o
35 1 -6 6 0 39858.50 44664.60 484.96 o
36 4 -6 6 0 40825.50 43994.20 479.25 o
36 2 0 0 12 40825.50 43994.20 479.25 o
36 1 6 -6 0 40825.50 43994.20 479.25 o
37 4 4 -6 0 9472.54 12640.30 216.80 o
37 2 -1 -1 -10 9472.54 12640.30 216.80 o
37 1 -4 6 0 9472.54 12640.30 216.80 o
38 4 -6 4 0 9852.73 5154.81 196.84 o
38 2 -1 -1 10 9852.73 5154.81 196.84 o
38 1 6 -4 0 9852.73 5154.81 196.84 o
39 4 2 -6 0 86878.80 68852.50 504.93 o
39 2 -2 -2 -8 86878.80 68852.50 504.93 o
39 1 -2 6 0 86878.80 68852.50 504.93 o
40 4 -6 2 0 89651.00 95285.50 527.75 o
40 2 -2 -2 8 89651.00 95285.50 527.75 o
40 1 6 -2 0 89651.00 95285.50 527.75 o
41 4 0 -6 0 21977.00 25172.10 208.25 o
41 2 -3 -3 -6 21977.00 25172.10 208.25 o
41 1 0 6 0 21977.00 25172.10 208.25 o
42 4 -6 0 0 20775.00 14950.90 387.97 o
42 3 3 3 6 20775.00 14950.90 387.97 o
42 2 -3 -3 6 20775.00 14950.90 387.97 o
42 1 6 0 0 20775.00 14950.90 387.97 o
43 4 -2 -6 0 79614.50 73904.60 373.70 o
43 2 -4 -4 -4 79614.50 73904.60 373.70 o
43 1 2 6 0 79614.50 73904.60 373.70 o
44 4 -6 -2 0 80695.80 92475.60 667.53 o
44 2 -4 -4 4 80695.80 92475.60 667.53 o
44 1 6 2 0 80695.80 92475.60 667.53 o
45 4 -4 -6 0 8536.77 7830.63 188.28 o
45 2 -5 -5 -2 8536.77 7830.63 188.28 o
45 1 4 6 0 8536.77 7830.63 188.28 o
46 4 -6 -4 0 7627.96 7485.46 188.28 o
46 2 -5 -5 2 7627.96 7485.46 188.28 o
46 1 6 4 0 7627.96 7485.46 188.28 o
47 4 -6 -6 0 40944.40 44738.70 308.09 o
47 2 -6 -6 0 40944.40 44738.70 308.09 o
47 1 6 6 0 40944.40 44738.70 308.09 o
48 4 7 -7 0 1675.52 607.62 205.39 o
48 2 0 0 -14 1675.52 607.62 205.39 o
48 1 -7 7 0 1675.52 607.62 205.39 o
49 4 -7 7 0 2498.14 2045.38 248.18 o
49 2 0 0 14 2498.14 2045.38 248.18 o
49 1 7 -7 0 2498.14 2045.38 248.18 o
50 4 5 -7 0 38437.60 39221.60 336.62 o
50 2 -1 -1 -12 38437.60 39221.60 336.62 o
50 1 -5 7 0 38437.60 39221.60 336.62 o
51 4 -7 5 0 38016.70 32669.00 313.80 o
51 2 -1 -1 12 38016.70 32669.00 313.80 o
51 1 7 -5 0 38016.70 32669.00 313.80 o
52 4 3 -7 0 9821.21 12078.30 219.66 o
52 2 -2 -2 -10 9821.21 12078.30 219.66 o
52 1 -3 7 0 9821.21 12078.30 219.66 o
53 4 -7 3 0 11659.00 12015.50 233.92 o
53 2 -2 -2 10 11659.00 12015.50 233.92 o
53 1 7 -3 0 11659.00 12015.50 233.92 o
54 4 1 -7 0 38089.70 44005.60 279.56 o
54 2 -3 -3 -8 38089.70 44005.60 279.56 o
54 1 -1 7 0 38089.70 44005.60 279.56 o
55 4 -7 1 0 36224.70 37447.20 350.88 o
55 2 -3 -3 8 36224.70 37447.20 350.88 o
55 1 7 -1 0 36224.70 37447.20 350.88 o
56 4 -1 -7 0 32315.90 38939.20 288.12 o
56 2 -4 -4 -6 32315.90 38939.20 288.12 o
56 1 1 7 0 32315.90 38939.20 288.12 o
57 4 -7 -1 0 33576.40 42239.80 530.60 o
57 2 -4 -4 6 33576.40 42239.80 530.60 o
57 1 7 1 0 33576.40 42239.80 530.60 o
58 4 -3 -7 0 8112.26 8355.53 168.31 o
58 2 -5 -5 -4 8112.26 8355.53 168.31 o
58 1 3 7 0 8112.26 8355.53 168.31 o
59 4 -7 -3 0 6565.62 9391.05 316.65 o
59 2 -5 -5 4 6565.62 9391.05 316.65 o
59 1 7 3 0 6565.62 9391.05 316.65 o
60 4 -5 -7 0 35318.30 36080.80 308.09 o
60 2 -6 -6 -2 35318.30 36080.80 308.09 o
60 1 5 7 0 35318.30 36080.80 308.09 o
61 4 -7 -5 0 35729.80 38591.20 293.83 o
61 2 -6 -6 2 35729.80 38591.20 293.83 o
61 1 7 5 0 35729.80 38591.20 293.83 o
62 4 -7 -7 0 771.80 1086.87 176.87 o
62 2 -7 -7 0 771.80 1086.87 176.87 o
62 1 7 7 0 771.80 1086.87 176.87 o
63 4 6 -8 0 2317.51 2008.29 151.19 o
63 2 -1 -1 -14 2317.51 2008.29 151.19 o
63 1 -6 8 0 2317.51 2008.29 151.19 o
64 4 -8 6 0 2494.85 830.13 162.60 o
64 2 -1 -1 14 2494.85 830.13 162.60 o
64 1 8 -6 0 2494.85 830.13 162.60 o
65 4 4 -8 0 25635.60 22305.20 308.09 o
65 2 -2 -2 -12 25635.60 22305.20 308.09 o
65 1 -4 8 0 25635.60 22305.20 308.09 o
66 4 -8 4 0 26255.70 35510.30 322.35 o
66 2 -2 -2 12 26255.70 35510.30 322.35 o
66 1 8 -4 0 26255.70 35510.30 322.35 o
67 4 2 -8 0 13856.00 17233.10 191.13 o
67 2 -3 -3 -10 13856.00 17233.10 191.13 o
67 1 -2 8 0 13856.00 17233.10 191.13 o
68 4 -8 2 0 13325.60 5836.60 196.84 o
68 2 -3 -3 10 13325.60 5836.60 196.84 o
68 1 8 -2 0 13325.60 5836.60 196.84 o
69 4 0 -8 0 28998.20 27034.90 256.74 o
69 2 -4 -4 -8 28998.20 27034.90 256.74 o
69 1 0 8 0 28998.20 27034.90 256.74 o
70 4 -8 0 0 32072.40 44733.00 473.55 o
70 3 4 4 8 32072.40 44733.00 473.55 o
70 2 -4 -4 8 32072.40 44733.00 473.55 o
70 1 8 0 0 32072.40 44733.00 473.55 o
71 4 -2 -8 0 13771.60 13924.00 182.57 o
71 2 -5 -5 -6 13771.60 13924.00 182.57 o
71 1 2 8 0 13771.60 13924.00 182.57 o
72 4 -8 -2 0 12389.10 9231.30 290.97 o
72 2 -5 -5 6 12389.10 9231.30 290.97 o
72 1 8 2 0 12389.10 9231.30 290.97 o
73 4 -4 -8 0 26467.80 26869.50 233.92 o
73 2 -6 -6 -4 26467.80 26869.50 233.92 o
73 1 4 8 0 26467.80 26869.50 233.92 o
74 4 -8 -4 0 27023.90 35076.70 416.49 o
74 2 -6 -6 4 27023.90 35076.70 416.49 o
74 1 8 4 0 27023.90 35076.70 416.49 o
75 4 -6 -8 0 1911.11 1580.39 168.31 o
75 2 -7 -7 -2 1911.11 1580.39 168.31 o
75 1 6 8 0 1911.11 1580.39 168.31 o
76 4 -8 -6 0 1501.07 1891.33 162.60 o
76 2 -7 -7 2 1501.07 1891.33 162.60 o
76 1 8 6 0 1501.07 1891.33 162.60 o
77 4 5 -9 0 2509.39 2627.33 174.01 o
77 2 -2 -2 -14 2509.39 2627.33 174.01 o
77 1 -5 9 0 2509.39 2627.33 174.01 o
78 4 -9 5 0 3085.65 2031.11 165.46 o
78 2 -2 -2 14 3085.65 2031.11 165.46 o
78 1 9 -5 0 3085.65 2031.11 165.46 o
79 4 3 -9 0 17481.00 16893.60 273.86 o
79 2 -3 -3 -12 17481.00 16893.60 273.86 o
79 1 -3 9 0 17481.00 16893.60 273.86 o
80 4 -9 3 0 16836.90 16035.00 259.60 o
80 2 -3 -3 12 16836.90 16035.00 259.60 o
80 1 9 -3 0 16836.90 16035.00 259.60 o
81 4 1 -9 0 9794.00 11927.10 193.98 o
81 2 -4 -4 -10 9794.00 11927.10 193.98 o
81 1 -1 9 0 9794.00 11927.10 193.98 o
82 4 -9 1 0 10503.90 8244.27 310.94 o
82 2 -4 -4 10 10503.90 8244.27 310.94 o
82 1 9 -1 0 10503.90 8244.27 310.94 o
83 4 -1 -9 0 11546.50 10152.70 202.54 o
83 2 -5 -5 -8 11546.50 10152.70 202.54 o
83 1 1 9 0 11546.50 10152.70 202.54 o
84 4 -9 -1 0 10195.10 11336.60 325.21 o
84 2 -5 -5 8 10195.10 11336.60 325.21 o
84 1 9 1 0 10195.10 11336.60 325.21 o
85 4 -3 -9 0 15821.70 15008.00 211.10 o
85 2 -6 -6 -6 15821.70 15008.00 211.10 o
85 1 3 9 0 15821.70 15008.00 211.10 o
86 4 -9 -3 0 16445.50 20008.80 387.97 o
86 2 -6 -6 6 16445.50 20008.80 387.97 o
86 1 9 3 0 16445.50 20008.80 387.97 o
87 4 -5 -9 0 2571.76 2002.59 148.34 o
87 2 -7 -7 -4 2571.76 2002.59 148.34 o
87 1 5 9 0 2571.76 2002.59 148.34 o
88 4 -9 -5 0 1893.28 2222.24 302.39 o
88 2 -7 -7 4 1893.28 2222.24 302.39 o
88 1 9 5 0 1893.28 2222.24 302.39 o
89 4 2 -10 0 9687.71 7916.21 199.69 o
89 2 -4 -4 -12 9687.71 7916.21 199.69 o
89 1 -2 10 0 9687.71 7916.21 199.69 o
90 4 -10 2 0 9910.41 15821.00 328.06 o
90 2 -4 -4 12 9910.41 15821.00 328.06 o
90 1 10 -2 0 9910.41 15821.00 328.06 o
91 4 0 -10 0 10478.00 12195.20 202.54 o
91 2 -5 -5 -10 10478.00 12195.20 202.54 o
91 1 0 10 0 10478.00 12195.20 202.54 o
92 4 -10 0 0 9905.24 4093.61 273.86 o
92 3 5 5 10 9905.24 4093.61 273.86 o
92 2 -5 -5 10 9905.24 4093.61 273.86 o
92 1 10 0 0 9905.24 4093.61 273.86 o
93 4 -2 -10 0 10166.30 7111.75 199.69 o
93 2 -6 -6 -8 10166.30 7111.75 199.69 o
93 1 2 10 0 10166.30 7111.75 199.69 o
94 4 -10 -2 0 10645.30 15133.50 390.82 o
94 2 -6 -6 8 10645.30 15133.50 390.82 o
94 1 10 2 0 10645.30 15133.50 390.82 o
95 4 1 -10 1 616.95 790.20 185.43 o
95 2 -5 -4 -11 616.95 790.20 185.43 o
95 1 -1 10 -1 616.95 790.20 185.43 o
96 4 1 -8 1 4341.15 5032.14 208.25 o
96 2 -4 -3 -9 4341.15 5032.14 208.25 o
96 1 -1 8 -1 4341.15 5032.14 208.25 o
97 4 -8 7 -1 45.58 262.45 165.46 <
97 1 8 -7 1 45.58 262.45 165.46 <
98 4 7 -8 1 45.57 65.61 145.49 <
98 1 -7 8 -1 45.57 65.61 145.49 <
99 4 -1 6 -1 11421.00 7080.37 345.17 o
99 2 3 2 7 11421.00 7080.37 345.17 o
99 1 1 -6 1 11421.00 7080.37 345.17 o
100 4 1 -6 1 11421.30 14237.80 385.11 o
100 2 -3 -2 -7 11421.30 14237.80 385.11 o
100 1 -1 6 -1 11421.30 14237.80 385.11 o
101 4 -7 6 -1 119.35 62.76 131.22 <
101 1 7 -6 1 119.35 62.76 131.22 <
102 4 6 -7 1 119.33 271.01 151.19 <
102 1 -6 7 -1 119.33 271.01 151.19 <
103 4 -6 5 -1 566.75 259.60 154.04 <
103 1 6 -5 1 566.75 259.60 154.04 <
104 4 5 -6 1 566.70 1015.56 159.75 o
104 1 -5 6 -1 566.70 1015.56 159.75 o
105 4 -8 5 -1 898.24 439.31 162.60 o
105 2 -1 -2 13 898.24 439.31 162.60 o
105 1 8 -5 1 898.24 439.31 162.60 o
106 4 5 -8 1 898.25 1295.12 165.46 o
106 2 -2 -1 -13 898.25 1295.12 165.46 o
106 1 -5 8 -1 898.25 1295.12 165.46 o
107 4 -1 4 -1 21292.00 19184.30 470.69 o
107 2 2 1 5 21292.00 19184.30 470.69 o
107 1 1 -4 1 21292.00 19184.30 470.69 o
108 4 1 -4 1 21291.80 24421.90 533.45 o
108 2 -2 -1 -5 21291.80 24421.90 533.45 o
108 1 -1 4 -1 21291.80 24421.90 533.45 o
109 4 -5 4 -1 158.74 111.25 154.04 <
109 1 5 -4 1 158.74 111.25 154.04 <
110 4 4 -5 1 158.77 279.56 162.60 <
110 1 -4 5 -1 158.77 279.56 162.60 <
111 4 -7 4 -1 915.91 710.32 154.04 o
111 2 -1 -2 11 915.91 710.32 154.04 o
111 1 7 -4 1 915.91 710.32 154.04 o
112 4 4 -7 1 915.91 1075.46 185.43 o
112 2 -2 -1 -11 915.91 1075.46 185.43 o
112 1 -4 7 -1 915.91 1075.46 185.43 o
113 4 -9 4 -1 1074.97 290.97 154.04 <
113 2 -2 -3 13 1074.97 290.97 154.04 <
113 1 9 -4 1 1074.97 290.97 154.04 <
114 4 4 -9 1 1074.99 1463.43 182.57 o
114 2 -3 -2 -13 1074.99 1463.43 182.57 o
114 1 -4 9 -1 1074.99 1463.43 182.57 o
115 4 -4 3 -1 5555.02 3463.16 176.87 o
115 1 4 -3 1 5555.02 3463.16 176.87 o
116 4 3 -4 1 5554.92 10184.10 239.63 o
116 1 -3 4 -1 5554.92 10184.10 239.63 o
117 4 -6 3 -1 5777.23 3540.19 185.43 o
117 2 -1 -2 9 5777.23 3540.19 185.43 o
117 1 6 -3 1 5777.23 3540.19 185.43 o
118 4 3 -6 1 5777.17 8481.04 225.36 o
118 2 -2 -1 -9 5777.17 8481.04 225.36 o
118 1 -3 6 -1 5777.17 8481.04 225.36 o
119 4 -8 3 -1 2468.05 1021.26 154.04 o
119 2 -2 -3 11 2468.05 1021.26 154.04 o
119 1 8 -3 1 2468.05 1021.26 154.04 o
120 4 3 -8 1 2468.14 3891.07 176.87 o
120 2 -3 -2 -11 2468.14 3891.07 176.87 o
120 1 -3 8 -1 2468.14 3891.07 176.87 o
121 4 -10 3 -1 749.95 193.98 225.36 <
121 2 -3 -4 13 749.95 193.98 225.36 <
121 1 10 -3 1 749.95 193.98 225.36 <
122 4 3 -10 1 749.93 1069.76 193.98 o
122 2 -4 -3 -13 749.93 1069.76 193.98 o
122 1 -3 10 -1 749.93 1069.76 193.98 o
123 4 -1 2 -1 9388.38 9841.78 604.77 o
123 1 1 -2 1 9388.38 9841.78 604.77 o
124 4 1 -2 1 9388.39 17024.80 701.76 o
124 1 -1 2 -1 9388.39 17024.80 701.76 o
125 4 -3 2 -1 2593.94 2453.31 199.69 o
125 1 3 -2 1 2593.94 2453.31 199.69 o
126 4 2 -3 1 2593.95 5388.73 228.21 o
126 1 -2 3 -1 2593.95 5388.73 228.21 o
127 4 -5 2 -1 2440.06 4067.93 182.57 o
127 2 -1 -2 7 2440.06 4067.93 182.57 o
127 1 5 -2 1 2440.06 4067.93 182.57 o
128 4 2 -5 1 2440.06 1888.48 174.01 o
128 2 -2 -1 -7 2440.06 1888.48 174.01 o
128 1 -2 5 -1 2440.06 1888.48 174.01 o
129 4 -7 2 -1 750.59 781.64 159.75 o
129 2 -2 -3 9 750.59 781.64 159.75 o
129 1 7 -2 1 750.59 781.64 159.75 o
130 4 2 -7 1 750.66 867.22 174.01 o
130 2 -3 -2 -9 750.66 867.22 174.01 o
130 1 -2 7 -1 750.66 867.22 174.01 o
131 4 -9 2 -1 762.89 442.17 228.21 <
131 2 -3 -4 11 762.89 442.17 228.21 <
131 1 9 -2 1 762.89 442.17 228.21 <
132 4 2 -9 1 762.86 795.90 145.49 o
132 2 -4 -3 -11 762.86 795.90 145.49 o
132 1 -2 9 -1 762.86 795.90 145.49 o
133 4 -2 1 -1 10526.20 7565.33 473.55 o
133 3 1 2 1 10526.20 7565.33 473.55 o
133 1 2 -1 1 10526.20 7565.33 473.55 o
134 4 1 -2 1 9388.39 13769.90 482.10 o
134 1 -1 2 -1 9388.39 13769.90 482.10 o
135 4 -4 1 -1 21531.00 19988.80 442.17 o
135 3 2 3 3 21531.00 19988.80 442.17 o
135 2 -1 -2 5 21531.00 19988.80 442.17 o
135 1 4 -1 1 21531.00 19988.80 442.17 o
136 4 1 -4 1 21291.80 30823.30 493.52 o
136 2 -2 -1 -5 21291.80 30823.30 493.52 o
136 1 -1 4 -1 21291.80 30823.30 493.52 o
137 4 -6 1 -1 11745.30 6826.48 282.42 o
137 3 3 4 5 11745.30 6826.48 282.42 o
137 2 -2 -3 7 11745.30 6826.48 282.42 o
137 1 6 -1 1 11745.30 6826.48 282.42 o
138 4 1 -6 1 11421.30 19943.10 362.29 o
138 2 -3 -2 -7 11421.30 19943.10 362.29 o
138 1 -1 6 -1 11421.30 19943.10 362.29 o
139 4 -8 1 -1 4346.09 1848.54 208.25 o
139 3 4 5 7 4346.09 1848.54 208.25 o
139 2 -3 -4 9 4346.09 1848.54 208.25 o
139 1 8 -1 1 4346.09 1848.54 208.25 o
140 4 1 -8 1 4341.15 6187.48 273.86 o
140 2 -4 -3 -9 4341.15 6187.48 273.86 o
140 1 -1 8 -1 4341.15 6187.48 273.86 o
141 4 -10 1 -1 624.48 356.59 236.77 <
141 3 5 6 9 624.48 356.59 236.77 <
141 2 -4 -5 11 624.48 356.59 236.77 <
141 1 10 -1 1 624.48 356.59 236.77 <
142 4 1 -10 1 616.95 1058.35 290.97 o
142 2 -5 -4 -11 616.95 1058.35 290.97 o
142 1 -1 10 -1 616.95 1058.35 290.97 o
143 4 -2 -1 -1 21971.60 23329.30 390.82 o
143 2 -1 -2 1 21971.60 23329.30 390.82 o
143 1 2 1 1 21971.60 23329.30 390.82 o
144 4 -1 -2 1 21971.60 24778.50 442.17 o
144 2 -2 -1 -1 21971.60 24778.50 442.17 o
144 1 1 2 -1 21971.60 24778.50 442.17 o
145 4 -4 -1 -1 18716.80 16574.10 370.85 o
145 2 -2 -3 3 18716.80 16574.10 370.85 o
145 1 4 1 1 18716.80 16574.10 370.85 o
146 4 -1 -4 1 18716.70 20308.30 256.74 o
146 2 -3 -2 -3 18716.70 20308.30 256.74 o
146 1 1 4 -1 18716.70 20308.30 256.74 o
147 4 -6 -1 -1 14247.90 11884.30 308.09 o
147 2 -3 -4 5 14247.90 11884.30 308.09 o
147 1 6 1 1 14247.90 11884.30 308.09 o
148 4 -1 -6 1 14248.10 15435.90 211.10 o
148 2 -4 -3 -5 14248.10 15435.90 211.10 o
148 1 1 6 -1 14248.10 15435.90 211.10 o
149 4 -8 -1 -1 3682.34 2550.30 268.15 o
149 2 -4 -5 7 3682.34 2550.30 268.15 o
149 1 8 1 1 3682.34 2550.30 268.15 o
150 4 -1 -8 1 3682.25 5280.33 156.90 o
150 2 -5 -4 -7 3682.25 5280.33 156.90 o
150 1 1 8 -1 3682.25 5280.33 156.90 o
151 4 -10 -1 -1 692.99 370.85 259.60 <
151 2 -5 -6 9 692.99 370.85 259.60 <
151 1 10 1 1 692.99 370.85 259.60 <
152 4 -1 -10 1 693.01 927.12 162.60 o
152 2 -6 -5 -9 693.01 927.12 162.60 o
152 1 1 10 -1 693.01 927.12 162.60 o
153 4 1 -2 -1 9388.38 11319.50 233.92 o
153 1 -1 2 1 9388.38 11319.50 233.92 o
154 4 -2 1 1 9388.39 10189.80 302.39 o
154 1 2 -1 -1 9388.39 10189.80 302.39 o
155 4 -1 -2 -1 21971.60 20607.80 382.26 o
155 2 -1 -2 -1 21971.60 20607.80 382.26 o
155 1 1 2 1 21971.60 20607.80 382.26 o
156 4 -2 -1 1 21971.60 23534.70 624.74 o
156 2 -2 -1 1 21971.60 23534.70 624.74 o
156 1 2 1 -1 21971.60 23534.70 624.74 o
157 4 1 2 1 21971.60 20439.50 439.31 o
157 2 1 2 1 21971.60 20439.50 439.31 o
157 1 -1 -2 -1 21971.60 20439.50 439.31 o
158 4 -3 -2 -1 6070.62 8007.50 219.66 o
158 2 -2 -3 1 6070.62 8007.50 219.66 o
158 1 3 2 1 6070.62 8007.50 219.66 o
159 4 -2 -3 1 6070.58 8389.76 222.51 o
159 2 -3 -2 -1 6070.58 8389.76 222.51 o
159 1 2 3 -1 6070.58 8389.76 222.51 o
160 4 -5 -2 -1 5822.68 9219.89 290.97 o
160 2 -3 -4 3 5822.68 9219.89 290.97 o
160 1 5 2 1 5822.68 9219.89 290.97 o
161 4 -2 -5 1 5822.77 6184.63 196.84 o
161 2 -4 -3 -3 5822.77 6184.63 196.84 o
161 1 2 5 -1 5822.77 6184.63 196.84 o
162 4 -7 -2 -1 557.59 636.15 233.92 o
162 2 -4 -5 5 557.59 636.15 233.92 o
162 1 7 2 1 557.59 636.15 233.92 o
163 4 -2 -7 1 557.68 567.68 125.52 o
163 2 -5 -4 -5 557.68 567.68 125.52 o
163 1 2 7 -1 557.68 567.68 125.52 o
164 4 -9 -2 -1 727.79 122.67 256.74 <
164 2 -5 -6 7 727.79 122.67 256.74 <
164 1 9 2 1 727.79 122.67 256.74 <
165 4 -2 -9 1 727.75 755.96 145.49 o
165 2 -6 -5 -7 727.75 755.96 145.49 o
165 1 2 9 -1 727.75 755.96 145.49 o
166 4 2 -3 -1 2593.94 4575.71 196.84 o
166 1 -2 3 1 2593.94 4575.71 196.84 o
167 4 -3 2 1 2593.95 2678.68 185.43 o
167 1 3 -2 -1 2593.95 2678.68 185.43 o
168 4 -2 -3 -1 6070.56 7399.88 202.54 o
168 2 -2 -3 -1 6070.56 7399.88 202.54 o
168 1 2 3 1 6070.56 7399.88 202.54 o
169 4 -3 -2 1 6070.64 7285.77 225.36 o
169 2 -3 -2 1 6070.64 7285.77 225.36 o
169 1 3 2 -1 6070.64 7285.77 225.36 o
170 4 -4 -3 -1 13000.10 13630.10 225.36 o
170 2 -3 -4 1 13000.10 13630.10 225.36 o
170 1 4 3 1 13000.10 13630.10 225.36 o
171 4 -3 -4 1 13000.40 14292.00 228.21 o
171 2 -4 -3 -1 13000.40 14292.00 228.21 o
171 1 3 4 -1 13000.40 14292.00 228.21 o
172 4 -6 -3 -1 5009.59 4461.61 171.16 o
172 2 -4 -5 3 5009.59 4461.61 171.16 o
172 1 6 3 1 5009.59 4461.61 171.16 o
173 4 -3 -6 1 5009.48 5964.97 185.43 o
173 2 -5 -4 -3 5009.48 5964.97 185.43 o
173 1 3 6 -1 5009.48 5964.97 185.43 o
174 4 -8 -3 -1 2759.83 2008.29 242.48 o
174 2 -5 -6 5 2759.83 2008.29 242.48 o
174 1 8 3 1 2759.83 2008.29 242.48 o
175 4 -3 -8 1 2759.89 2949.68 142.63 o
175 2 -6 -5 -5 2759.89 2949.68 142.63 o
175 1 3 8 -1 2759.89 2949.68 142.63 o
176 4 -10 -3 -1 729.71 687.50 268.15 o
176 2 -6 -7 7 729.71 687.50 268.15 o
176 1 10 3 1 729.71 687.50 268.15 o
177 4 -3 -10 1 729.69 887.19 156.90 o
177 2 -7 -6 -7 729.69 887.19 156.90 o
177 1 3 10 -1 729.69 887.19 156.90 o
178 4 3 -4 -1 5555.02 8766.31 219.66 o
178 1 -3 4 1 5555.02 8766.31 219.66 o
179 4 -4 3 1 5554.91 4139.25 205.39 o
179 1 4 -3 -1 5554.91 4139.25 205.39 o
180 4 1 -4 -1 21292.00 24544.50 248.18 o
180 2 -1 -2 -5 21292.00 24544.50 248.18 o
180 1 -1 4 1 21292.00 24544.50 248.18 o
181 4 -4 1 1 21291.80 21115.60 330.91 o
181 2 -2 -1 5 21291.80 21115.60 330.91 o
181 1 4 -1 -1 21291.80 21115.60 330.91 o
182 4 -1 -4 -1 18716.80 20122.90 236.77 o
182 2 -2 -3 -3 18716.80 20122.90 236.77 o
182 1 1 4 1 18716.80 20122.90 236.77 o
183 4 -4 -1 1 19188.50 20624.90 484.96 o
183 3 2 1 5 19188.50 20624.90 484.96 o
183 2 -3 -2 3 19188.50 20624.90 484.96 o
183 1 4 1 -1 19188.50 20624.90 484.96 o
184 4 -3 -4 -1 13000.50 13108.10 239.63 o
184 2 -3 -4 -1 13000.50 13108.10 239.63 o
184 1 3 4 1 13000.50 13108.10 239.63 o
185 4 -4 -3 1 13000.00 13664.40 233.92 o
185 2 -4 -3 1 13000.00 13664.40 233.92 o
185 1 4 3 -1 13000.00 13664.40 233.92 o
186 4 -5 -4 -1 371.59 362.29 151.19 o
186 2 -4 -5 1 371.59 362.29 151.19 o
186 1 5 4 1 371.59 362.29 151.19 o
187 4 -4 -5 1 371.50 547.72 139.78 o
187 2 -5 -4 -1 371.50 547.72 139.78 o
187 1 4 5 -1 371.50 547.72 139.78 o
188 4 -7 -4 -1 1224.85 1109.70 256.74 o
188 2 -5 -6 3 1224.85 1109.70 256.74 o
188 1 7 4 1 1224.85 1109.70 256.74 o
189 4 -4 -7 1 1224.89 1255.18 162.60 o
189 2 -6 -5 -3 1224.89 1255.18 162.60 o
189 1 4 7 -1 1224.89 1255.18 162.60 o
190 4 -9 -4 -1 1132.53 727.44 242.48 o
190 2 -6 -7 5 1132.53 727.44 242.48 o
190 1 9 4 1 1132.53 727.44 242.48 o
191 4 -4 -9 1 1132.54 1103.99 145.49 o
191 2 -7 -6 -5 1132.54 1103.99 145.49 o
191 1 4 9 -1 1132.54 1103.99 145.49 o
192 4 4 -5 -1 158.74 382.26 159.75 o
192 1 -4 5 1 158.74 382.26 159.75 o
193 4 -5 4 1 158.77 99.84 159.75 <
193 1 5 -4 -1 158.77 99.84 159.75 <
194 4 2 -5 -1 2440.06 1705.91 174.01 o
194 2 -1 -2 -7 2440.06 1705.91 174.01 o
194 1 -2 5 1 2440.06 1705.91 174.01 o
195 4 -5 2 1 2440.06 3933.86 188.28 o
195 2 -2 -1 7 2440.06 3933.86 188.28 o
195 1 5 -2 -1 2440.06 3933.86 188.28 o
196 4 -2 -5 -1 5822.76 5893.66 139.78 o
196 2 -3 -4 -3 5822.76 5893.66 139.78 o
196 1 2 5 1 5822.76 5893.66 139.78 o
197 4 -5 -2 1 5822.69 8948.89 353.73 o
197 2 -4 -3 3 5822.69 8948.89 353.73 o
197 1 5 2 -1 5822.69 8948.89 353.73 o
198 4 -4 -5 -1 371.46 425.05 162.60 o
198 2 -4 -5 -1 371.46 425.05 162.60 o
198 1 4 5 1 371.46 425.05 162.60 o
199 4 -5 -4 1 371.62 624.74 159.75 o
199 2 -5 -4 1 371.62 624.74 159.75 o
199 1 5 4 -1 371.62 624.74 159.75 o
200 4 -6 -5 -1 1326.23 1369.29 156.90 o
200 2 -5 -6 1 1326.23 1369.29 156.90 o
200 1 6 5 1 1326.23 1369.29 156.90 o
201 4 -5 -6 1 1326.39 1349.32 156.90 o
201 2 -6 -5 -1 1326.39 1349.32 156.90 o
201 1 5 6 -1 1326.39 1349.32 156.90 o
202 4 -8 -5 -1 948.20 1032.67 273.86 o
202 2 -6 -7 3 948.20 1032.67 273.86 o
202 1 8 5 1 948.20 1032.67 273.86 o
203 4 -5 -8 1 948.22 1072.61 168.31 o
203 2 -7 -6 -3 948.22 1072.61 168.31 o
203 1 5 8 -1 948.22 1072.61 168.31 o
204 4 5 -6 -1 566.76 898.60 165.46 o
204 1 -5 6 1 566.76 898.60 165.46 o
205 4 -6 5 1 566.70 302.39 156.90 <
205 1 6 -5 -1 566.70 302.39 156.90 <
206 4 3 -6 -1 5777.24 7351.38 151.19 o
206 2 -1 -2 -9 5777.24 7351.38 151.19 o
206 1 -3 6 1 5777.24 7351.38 151.19 o
207 4 -6 3 1 5777.15 3771.25 165.46 o
207 2 -2 -1 9 5777.15 3771.25 165.46 o
207 1 6 -3 -1 5777.15 3771.25 165.46 o
208 4 1 -6 -1 11421.00 15789.60 245.33 o
208 2 -2 -3 -7 11421.00 15789.60 245.33 o
208 1 -1 6 1 11421.00 15789.60 245.33 o
209 4 -6 1 1 11421.30 8249.98 213.95 o
209 2 -3 -2 7 11421.30 8249.98 213.95 o
209 1 6 -1 -1 11421.30 8249.98 213.95 o
210 4 -1 -6 -1 14247.80 15219.10 196.84 o
210 2 -3 -4 -5 14247.80 15219.10 196.84 o
210 1 1 6 1 14247.80 15219.10 196.84 o
211 4 -6 -1 1 14316.80 14389.00 356.59 o
211 3 3 2 7 14316.80 14389.00 356.59 o
211 2 -4 -3 5 14316.80 14389.00 356.59 o
211 1 6 1 -1 14316.80 14389.00 356.59 o
212 4 -3 -6 -1 5009.55 4652.74 182.57 o
212 2 -4 -5 -3 5009.55 4652.74 182.57 o
212 1 3 6 1 5009.55 4652.74 182.57 o
213 4 -6 -3 1 5009.52 5280.33 262.45 o
213 2 -5 -4 3 5009.52 5280.33 262.45 o
213 1 6 3 -1 5009.52 5280.33 262.45 o
214 4 -5 -6 -1 1326.43 1406.38 156.90 o
214 2 -5 -6 -1 1326.43 1406.38 156.90 o
214 1 5 6 1 1326.43 1406.38 156.90 o
215 4 -6 -5 1 1326.18 1375.00 154.04 o
215 2 -6 -5 1 1326.18 1375.00 154.04 o
215 1 6 5 -1 1326.18 1375.00 154.04 o
216 4 -7 -6 -1 279.27 239.63 159.75 <
216 2 -6 -7 1 279.27 239.63 159.75 <
216 1 7 6 1 279.27 239.63 159.75 <
217 4 -6 -7 1 279.32 225.36 145.49 <
217 2 -7 -6 -1 279.32 225.36 145.49 <
217 1 6 7 -1 279.32 225.36 145.49 <
218 4 6 -7 -1 119.35 188.28 125.52 <
218 1 -6 7 1 119.35 188.28 125.52 <
219 4 -7 6 1 119.33 142.63 139.78 <
219 1 7 -6 -1 119.33 142.63 139.78 <
220 4 4 -7 -1 915.90 1001.29 119.81 o
220 2 -1 -2 -11 915.90 1001.29 119.81 o
220 1 -4 7 1 915.90 1001.29 119.81 o
221 4 -7 4 1 915.91 630.44 159.75 o
221 2 -2 -1 11 915.91 630.44 159.75 o
221 1 7 -4 -1 915.91 630.44 159.75 o
222 4 2 -7 -1 750.59 984.18 165.46 o
222 2 -2 -3 -9 750.59 984.18 165.46 o
222 1 -2 7 1 750.59 984.18 165.46 o
223 4 -7 2 1 750.66 721.73 145.49 o
223 2 -3 -2 9 750.66 721.73 145.49 o
223 1 7 -2 -1 750.66 721.73 145.49 o
224 4 -2 -7 -1 557.61 524.90 116.96 o
224 2 -4 -5 -5 557.61 524.90 116.96 o
224 1 2 7 1 557.61 524.90 116.96 o
225 4 -7 -2 1 557.66 310.94 273.86 <
225 2 -5 -4 5 557.66 310.94 273.86 <
225 1 7 2 -1 557.66 310.94 273.86 <
226 4 -4 -7 -1 1224.88 1069.76 168.31 o
226 2 -5 -6 -3 1224.88 1069.76 168.31 o
226 1 4 7 1 1224.88 1069.76 168.31 o
227 4 -7 -4 1 1224.85 1215.25 248.18 o
227 2 -6 -5 3 1224.85 1215.25 248.18 o
227 1 7 4 -1 1224.85 1215.25 248.18 o
228 4 -6 -7 -1 279.33 345.17 159.75 o
228 2 -6 -7 -1 279.33 345.17 159.75 o
228 1 6 7 1 279.33 345.17 159.75 o
229 4 -7 -6 1 279.26 174.01 151.19 <
229 2 -7 -6 1 279.26 174.01 151.19 <
229 1 7 6 -1 279.26 174.01 151.19 <
230 4 -8 -7 -1 106.65 231.07 179.72 <
230 2 -7 -8 1 106.65 231.07 179.72 <
230 1 8 7 1 106.65 231.07 179.72 <
231 4 -7 -8 1 106.66 168.31 188.28 <
231 2 -8 -7 -1 106.66 168.31 188.28 <
231 1 7 8 -1 106.66 168.31 188.28 <
232 4 7 -8 -1 45.57 273.86 176.87 <
232 1 -7 8 1 45.57 273.86 176.87 <
233 4 -8 7 1 45.57 45.64 156.90 <
233 1 8 -7 -1 45.57 45.64 156.90 <
234 4 5 -8 -1 898.24 1092.58 136.93 o
234 2 -1 -2 -13 898.24 1092.58 136.93 o
234 1 -5 8 1 898.24 1092.58 136.93 o
235 4 -8 5 1 898.25 410.79 159.75 o
235 2 -2 -1 13 898.25 410.79 159.75 o
235 1 8 -5 -1 898.25 410.79 159.75 o
236 4 3 -8 -1 2468.05 3577.27 176.87 o
236 2 -2 -3 -11 2468.05 3577.27 176.87 o
236 1 -3 8 1 2468.05 3577.27 176.87 o
237 4 -8 3 1 2468.14 1260.89 176.87 o
237 2 -3 -2 11 2468.14 1260.89 176.87 o
237 1 8 -3 -1 2468.14 1260.89 176.87 o
238 4 1 -8 -1 4341.25 5331.68 151.19 o
238 2 -3 -4 -9 4341.25 5331.68 151.19 o
238 1 -1 8 1 4341.25 5331.68 151.19 o
239 4 -8 1 1 4341.14 2162.34 233.92 o
239 2 -4 -3 9 4341.14 2162.34 233.92 o
239 1 8 -1 -1 4341.14 2162.34 233.92 o
240 4 -1 -8 -1 3682.35 4783.96 136.93 o
240 2 -4 -5 -7 3682.35 4783.96 136.93 o
240 1 1 8 1 3682.35 4783.96 136.93 o
241 4 -8 -1 1 3746.67 3046.67 225.36 o
241 3 4 3 9 3746.67 3046.67 225.36 o
241 2 -5 -4 7 3746.67 3046.67 225.36 o
241 1 8 1 -1 3746.67 3046.67 225.36 o
242 4 -3 -8 -1 2759.80 2595.95 136.93 o
242 2 -5 -6 -5 2759.80 2595.95 136.93 o
242 1 3 8 1 2759.80 2595.95 136.93 o
243 4 -8 -3 1 2759.92 2533.19 279.56 o
243 2 -6 -5 5 2759.92 2533.19 279.56 o
243 1 8 3 -1 2759.92 2533.19 279.56 o
244 4 -5 -8 -1 948.21 727.44 128.37 o
244 2 -6 -7 -3 948.21 727.44 128.37 o
244 1 5 8 1 948.21 727.44 128.37 o
245 4 -8 -5 1 948.21 801.61 228.21 o
245 2 -7 -6 3 948.21 801.61 228.21 o
245 1 8 5 -1 948.21 801.61 228.21 o
246 4 -7 -8 -1 106.66 134.08 159.75 <
246 2 -7 -8 -1 106.66 134.08 159.75 <
246 1 7 8 1 106.66 134.08 159.75 <
247 4 -8 -7 1 106.64 139.78 168.31 <
247 2 -8 -7 1 106.64 139.78 168.31 <
247 1 8 7 -1 106.64 139.78 168.31 <
248 4 4 -9 -1 1074.97 1520.48 159.75 o
248 2 -2 -3 -13 1074.97 1520.48 159.75 o
248 1 -4 9 1 1074.97 1520.48 159.75 o
249 4 -9 4 1 1074.99 370.85 154.04 o
249 2 -3 -2 13 1074.99 370.85 154.04 o
249 1 9 -4 -1 1074.99 370.85 154.04 o
250 4 2 -9 -1 762.89 821.57 188.28 o
250 2 -3 -4 -11 762.89 821.57 188.28 o
250 1 -2 9 1 762.89 821.57 188.28 o
251 4 -9 2 1 762.86 330.91 168.31 <
251 2 -4 -3 11 762.86 330.91 168.31 <
251 1 9 -2 -1 762.86 330.91 168.31 <
252 4 -2 -9 -1 727.78 504.93 134.08 o
252 2 -5 -6 -7 727.78 504.93 134.08 o
252 1 2 9 1 727.78 504.93 134.08 o
253 4 -9 -2 1 727.76 533.45 251.04 o
253 2 -6 -5 7 727.76 533.45 251.04 o
253 1 9 2 -1 727.76 533.45 251.04 o
254 4 -4 -9 -1 1132.52 872.92 131.22 o
254 2 -6 -7 -5 1132.52 872.92 131.22 o
254 1 4 9 1 1132.52 872.92 131.22 o
255 4 -9 -4 1 1132.55 898.60 248.18 o
255 2 -7 -6 5 1132.55 898.60 248.18 o
255 1 9 4 -1 1132.55 898.60 248.18 o
256 4 3 -10 -1 749.95 1055.49 185.43 o
256 2 -3 -4 -13 749.95 1055.49 185.43 o
256 1 -3 10 1 749.95 1055.49 185.43 o
257 4 -10 3 1 749.93 139.78 162.60 <
257 2 -4 -3 13 749.93 139.78 162.60 <
257 1 10 -3 -1 749.93 139.78 162.60 <
258 4 1 -10 -1 616.94 781.64 148.34 o
258 2 -4 -5 -11 616.94 781.64 148.34 o
258 1 -1 10 1 616.94 781.64 148.34 o
259 4 -10 1 1 616.95 382.26 233.92 <
259 2 -5 -4 11 616.95 382.26 233.92 <
259 1 10 -1 -1 616.95 382.26 233.92 <
260 4 -1 -10 -1 692.99 704.61 151.19 o
260 2 -5 -6 -9 692.99 704.61 151.19 o
260 1 1 10 1 692.99 704.61 151.19 o
261 4 -10 -1 1 693.67 356.59 290.97 <
261 3 5 4 11 693.67 356.59 290.97 <
261 2 -6 -5 9 693.67 356.59 290.97 <
261 1 10 1 -1 693.67 356.59 290.97 <
262 4 -3 -10 -1 729.70 738.85 142.63 o
262 2 -6 -7 -7 729.70 738.85 142.63 o
262 1 3 10 1 729.70 738.85 142.63 o
263 4 -10 -3 1 729.69 233.92 262.45 <
263 2 -7 -6 7 729.69 233.92 262.45 <
263 1 10 3 -1 729.69 233.92 262.45 <
264 4 2 -10 2 8666.47 6076.23 251.04 o
264 2 -5 -3 -12 8666.47 6076.23 251.04 o
264 1 -2 10 -2 8666.47 6076.23 251.04 o
265 4 -2 8 -2 6945.23 3548.75 288.12 o
265 2 4 2 10 6945.23 3548.75 288.12 o
265 1 2 -8 2 6945.23 3548.75 288.12 o
266 4 2 -8 2 7713.01 9197.07 365.14 o
266 2 -4 -2 -10 7713.01 9197.07 365.14 o
266 1 -2 8 -2 7713.01 9197.07 365.14 o
267 4 -7 7 -2 1269.64 1081.17 225.36 o
267 2 1 -1 14 1269.64 1081.17 225.36 o
267 1 7 -7 2 1269.64 1081.17 225.36 o
268 4 7 -7 2 989.59 410.79 213.95 <
268 2 -1 1 -14 989.59 410.79 213.95 <
268 1 -7 7 -2 989.59 410.79 213.95 <
269 4 -2 6 -2 46376.10 62616.50 687.50 o
269 2 3 1 8 46376.10 62616.50 687.50 o
269 1 2 -6 2 46376.10 62616.50 687.50 o
270 4 2 -6 2 46665.10 48535.70 656.12 o
270 2 -3 -1 -8 46665.10 48535.70 656.12 o
270 1 -2 6 -2 46665.10 48535.70 656.12 o
271 4 -6 6 -2 25846.70 34811.40 427.90 o
271 2 1 -1 12 25846.70 34811.40 427.90 o
271 1 6 -6 2 25846.70 34811.40 427.90 o
272 4 6 -6 2 26370.80 30772.00 379.41 o
272 2 -1 1 -12 26370.80 30772.00 379.41 o
272 1 -6 6 -2 26370.80 30772.00 379.41 o
273 4 -8 6 -2 1366.14 479.25 154.04 o
273 2 0 -2 14 1366.14 479.25 154.04 o
273 1 8 -6 2 1366.14 479.25 154.04 o
274 4 6 -8 2 1558.91 1026.97 151.19 o
274 2 -2 0 -14 1558.91 1026.97 151.19 o
274 1 -6 8 -2 1558.91 1026.97 151.19 o
275 4 -5 5 -2 2809.99 2921.15 222.51 o
275 2 1 -1 10 2809.99 2921.15 222.51 o
275 1 5 -5 2 2809.99 2921.15 222.51 o
276 4 5 -5 2 2202.13 1568.98 245.33 o
276 2 -1 1 -10 2202.13 1568.98 245.33 o
276 1 -5 5 -2 2202.13 1568.98 245.33 o
277 4 -7 5 -2 26349.80 24912.50 285.27 o
277 2 0 -2 12 26349.80 24912.50 285.27 o
277 1 7 -5 2 26349.80 24912.50 285.27 o
278 4 5 -7 2 27810.50 32372.30 285.27 o
278 2 -2 0 -12 27810.50 32372.30 285.27 o
278 1 -5 7 -2 27810.50 32372.30 285.27 o
279 4 -9 5 -2 2032.70 1417.79 185.43 o
279 2 -1 -3 14 2032.70 1417.79 185.43 o
279 1 9 -5 2 2032.70 1417.79 185.43 o
280 4 5 -9 2 1723.73 1817.16 171.16 o
280 2 -3 -1 -14 1723.73 1817.16 171.16 o
280 1 -5 9 -2 1723.73 1817.16 171.16 o
281 4 -2 4 -2 3903.02 6894.95 362.29 o
281 2 2 0 6 3903.02 6894.95 362.29 o
281 1 2 -4 2 3903.02 6894.95 362.29 o
282 4 2 -4 2 7918.01 4347.50 325.21 o
282 2 -2 0 -6 7918.01 4347.50 325.21 o
282 1 -2 4 -2 7918.01 4347.50 325.21 o
283 4 -4 4 -2 58943.90 67959.60 641.85 o
283 2 1 -1 8 58943.90 67959.60 641.85 o
283 1 4 -4 2 58943.90 67959.60 641.85 o
284 4 4 -4 2 60608.10 61543.90 619.03 o
284 2 -1 1 -8 60608.10 61543.90 619.03 o
284 1 -4 4 -2 60608.10 61543.90 619.03 o
285 4 -6 4 -2 1905.79 1009.85 168.31 o
285 2 0 -2 10 1905.79 1009.85 168.31 o
285 1 6 -4 2 1905.79 1009.85 168.31 o
286 4 4 -6 2 3561.90 2607.36 174.01 o
286 2 -2 0 -10 3561.90 2607.36 174.01 o
286 1 -4 6 -2 3561.90 2607.36 174.01 o
287 4 -8 4 -2 18393.60 28675.20 288.12 o
287 2 -1 -3 12 18393.60 28675.20 288.12 o
287 1 8 -4 2 18393.60 28675.20 288.12 o
288 4 4 -8 2 18484.70 19677.80 268.15 o
288 2 -3 -1 -12 18484.70 19677.80 268.15 o
288 1 -4 8 -2 18484.70 19677.80 268.15 o
289 4 -3 3 -2 4192.99 7291.47 356.59 o
289 2 1 -1 6 4192.99 7291.47 356.59 o
289 1 3 -3 2 4192.99 7291.47 356.59 o
290 4 3 -3 2 2999.20 4510.10 265.30 o
290 2 -1 1 -6 2999.20 4510.10 265.30 o
290 1 -3 3 -2 2999.20 4510.10 265.30 o
291 4 -5 3 -2 43250.70 42701.90 385.11 o
291 2 0 -2 8 43250.70 42701.90 385.11 o
291 1 5 -3 2 43250.70 42701.90 385.11 o
292 4 3 -5 2 46601.40 55792.90 416.49 o
292 2 -2 0 -8 46601.40 55792.90 416.49 o
292 1 -3 5 -2 46601.40 55792.90 416.49 o
293 4 -7 3 -2 4766.54 6287.33 205.39 o
293 2 -1 -3 10 4766.54 6287.33 205.39 o
293 1 7 -3 2 4766.54 6287.33 205.39 o
294 4 3 -7 2 3840.62 4119.28 185.43 o
294 2 -3 -1 -10 3840.62 4119.28 185.43 o
294 1 -3 7 -2 3840.62 4119.28 185.43 o
295 4 -9 3 -2 13410.00 16674.00 256.74 o
295 2 -2 -4 12 13410.00 16674.00 256.74 o
295 1 9 -3 2 13410.00 16674.00 256.74 o
296 4 3 -9 2 14069.20 11653.20 259.60 o
296 2 -4 -2 -12 14069.20 11653.20 259.60 o
296 1 -3 9 -2 14069.20 11653.20 259.60 o
297 4 -2 2 -2 137413.00 110924.00 1192.42 o
297 3 1 3 0 137413.00 110924.00 1192.42 o
297 2 1 -1 4 137413.00 110924.00 1192.42 o
297 1 2 -2 2 137413.00 110924.00 1192.42 o
298 4 2 -2 2 139376.00 106268.00 1049.79 o
298 3 -1 -3 0 139376.00 106268.00 1049.79 o
298 2 -1 1 -4 139376.00 106268.00 1049.79 o
298 1 -2 2 -2 139376.00 106268.00 1049.79 o
299 4 -4 2 -2 3919.68 7790.69 319.50 o
299 3 2 4 2 3919.68 7790.69 319.50 o
299 2 0 -2 6 3919.68 7790.69 319.50 o
299 1 4 -2 2 3919.68 7790.69 319.50 o
300 4 2 -4 2 7918.01 4492.99 282.42 o
300 2 -2 0 -6 7918.01 4492.99 282.42 o
300 1 -2 4 -2 7918.01 4492.99 282.42 o
301 4 -6 2 -2 51454.90 72210.10 587.65 o
301 3 3 5 4 51454.90 72210.10 587.65 o
301 2 -1 -3 8 51454.90 72210.10 587.65 o
301 1 6 -2 2 51454.90 72210.10 587.65 o
302 4 2 -6 2 46665.10 51191.50 536.30 o
302 2 -3 -1 -8 46665.10 51191.50 536.30 o
302 1 -2 6 -2 46665.10 51191.50 536.30 o
303 4 -8 2 -2 7144.46 4122.14 231.07 o
303 3 4 6 6 7144.46 4122.14 231.07 o
303 2 -2 -4 10 7144.46 4122.14 231.07 o
303 1 8 -2 2 7144.46 4122.14 231.07 o
304 4 2 -8 2 7713.01 11048.50 288.12 o
304 2 -4 -2 -10 7713.01 11048.50 288.12 o
304 1 -2 8 -2 7713.01 11048.50 288.12 o
305 4 -10 2 -2 9916.97 17372.90 330.91 o
305 3 5 7 8 9916.97 17372.90 330.91 o
305 2 -3 -5 12 9916.97 17372.90 330.91 o
305 1 10 -2 2 9916.97 17372.90 330.91 o
306 4 2 -10 2 8666.47 7026.17 348.03 o
306 2 -5 -3 -12 8666.47 7026.17 348.03 o
306 1 -2 10 -2 8666.47 7026.17 348.03 o
307 4 -1 1 -2 13171.20 21760.30 667.53 o
307 2 1 -1 2 13171.20 21760.30 667.53 o
307 1 1 -1 2 13171.20 21760.30 667.53 o
308 4 1 -1 2 13667.20 23081.10 667.53 o
308 2 -1 1 -2 13667.20 23081.10 667.53 o
308 1 -1 1 -2 13667.20 23081.10 667.53 o
309 4 -3 1 -2 31470.30 37929.40 524.90 o
309 2 0 -2 4 31470.30 37929.40 524.90 o
309 1 3 -1 2 31470.30 37929.40 524.90 o
310 4 1 -3 2 36049.30 43837.30 561.98 o
310 2 -2 0 -4 36049.30 43837.30 561.98 o
310 1 -1 3 -2 36049.30 43837.30 561.98 o
311 4 -5 1 -2 12367.60 18314.30 302.39 o
311 2 -1 -3 6 12367.60 18314.30 302.39 o
311 1 5 -1 2 12367.60 18314.30 302.39 o
312 4 1 -5 2 10669.70 13889.70 299.53 o
312 2 -3 -1 -6 10669.70 13889.70 299.53 o
312 1 -1 5 -2 10669.70 13889.70 299.53 o
313 4 -7 1 -2 23122.70 33821.50 425.05 o
313 2 -2 -4 8 23122.70 33821.50 425.05 o
313 1 7 -1 2 23122.70 33821.50 425.05 o
314 4 1 -7 2 24567.50 25645.70 273.86 o
314 2 -4 -2 -8 24567.50 25645.70 273.86 o
314 1 -1 7 -2 24567.50 25645.70 273.86 o
315 4 -9 1 -2 8723.11 11000.00 296.68 o
315 2 -3 -5 10 8723.11 11000.00 296.68 o
315 1 9 -1 2 8723.11 11000.00 296.68 o
316 4 1 -9 2 7744.86 8058.85 199.69 o
316 2 -5 -3 -10 7744.86 8058.85 199.69 o
316 1 -1 9 -2 7744.86 8058.85 199.69 o
317 4 0 0 -2 168230.00 111358.00 1511.93 o
317 2 1 -1 0 168230.00 111358.00 1511.93 o
317 1 0 0 2 168230.00 111358.00 1511.93 o
318 4 0 0 2 169638.00 111860.00 1429.20 o
318 2 -1 1 0 169638.00 111860.00 1429.20 o
318 1 0 0 -2 169638.00 111860.00 1429.20 o
319 4 -2 0 -2 44031.60 53071.40 687.50 o
319 2 0 -2 2 44031.60 53071.40 687.50 o
319 1 2 0 2 44031.60 53071.40 687.50 o
320 4 2 0 2 45859.00 59290.30 724.58 o
320 2 0 2 -2 45859.00 59290.30 724.58 o
320 1 -2 0 -2 45859.00 59290.30 724.58 o
321 4 -4 0 -2 105929.00 110042.00 784.49 o
321 2 -1 -3 4 105929.00 110042.00 784.49 o
321 1 4 0 2 105929.00 110042.00 784.49 o
322 4 0 -4 2 106006.00 90224.90 684.65 o
322 2 -3 -1 -4 106006.00 90224.90 684.65 o
322 1 0 4 -2 106006.00 90224.90 684.65 o
323 4 -6 0 -2 4224.67 3468.87 231.07 o
323 2 -2 -4 6 4224.67 3468.87 231.07 o
323 1 6 0 2 4224.67 3468.87 231.07 o
324 4 0 -6 2 5921.03 6635.35 191.13 o
324 2 -4 -2 -6 5921.03 6635.35 191.13 o
324 1 0 6 -2 5921.03 6635.35 191.13 o
325 4 -8 0 -2 26571.90 46359.00 462.14 o
325 2 -3 -5 8 26571.90 46359.00 462.14 o
325 1 8 0 2 26571.90 46359.00 462.14 o
326 4 0 -8 2 25611.20 20388.20 262.45 o
326 2 -5 -3 -8 25611.20 20388.20 262.45 o
326 1 0 8 -2 25611.20 20388.20 262.45 o
327 4 -10 0 -2 7812.02 5043.55 282.42 o
327 2 -4 -6 10 7812.02 5043.55 282.42 o
327 1 10 0 2 7812.02 5043.55 282.42 o
328 4 0 -10 2 8135.41 8763.46 219.66 o
328 2 -6 -4 -10 8135.41 8763.46 219.66 o
328 1 0 10 -2 8135.41 8763.46 219.66 o
329 4 1 -1 -2 13832.90 20388.20 516.34 o
329 2 1 -1 -2 13832.90 20388.20 516.34 o
329 1 -1 1 2 13832.90 20388.20 516.34 o
330 4 -1 1 2 13005.50 19546.60 544.86 o
330 2 -1 1 2 13005.50 19546.60 544.86 o
330 1 1 -1 -2 13005.50 19546.60 544.86 o
331 4 -1 -1 -2 25529.70 30344.10 567.68 o
331 2 0 -2 0 25529.70 30344.10 567.68 o
331 1 1 1 2 25529.70 30344.10 567.68 o
332 4 -1 -1 2 25364.00 26090.70 373.70 o
332 2 -2 0 0 25364.00 26090.70 373.70 o
332 1 1 1 -2 25364.00 26090.70 373.70 o
333 4 -3 -1 -2 34844.90 38223.20 442.17 o
333 2 -1 -3 2 34844.90 38223.20 442.17 o
333 1 3 1 2 34844.90 38223.20 442.17 o
334 4 -1 -3 2 34567.00 42151.30 522.04 o
334 2 -3 -1 -2 34567.00 42151.30 522.04 o
334 1 1 3 -2 34567.00 42151.30 522.04 o
335 4 -5 -1 -2 21118.30 30997.30 419.35 o
335 2 -2 -4 4 21118.30 30997.30 419.35 o
335 1 5 1 2 21118.30 30997.30 419.35 o
336 4 -1 -5 2 22942.20 20973.00 268.15 o
336 2 -4 -2 -4 22942.20 20973.00 268.15 o
336 1 1 5 -2 22942.20 20973.00 268.15 o
337 4 -7 -1 -2 25148.80 31191.30 422.20 o
337 2 -3 -5 6 25148.80 31191.30 422.20 o
337 1 7 1 2 25148.80 31191.30 422.20 o
338 4 -1 -7 2 23359.90 25283.40 271.01 o
338 2 -5 -3 -6 23359.90 25283.40 271.01 o
338 1 1 7 -2 23359.90 25283.40 271.01 o
339 4 -9 -1 -2 9878.77 15381.70 328.06 o
339 2 -4 -6 8 9878.77 15381.70 328.06 o
339 1 9 1 2 9878.77 15381.70 328.06 o
340 4 -1 -9 2 10381.00 9590.74 225.36 o
340 2 -6 -4 -8 10381.00 9590.74 225.36 o
340 1 1 9 -2 10381.00 9590.74 225.36 o
341 4 2 -2 -2 129717.00 100666.00 884.33 o
341 2 1 -1 -4 129717.00 100666.00 884.33 o
341 1 -2 2 2 129717.00 100666.00 884.33 o
342 4 -2 2 2 129265.00 107295.00 912.86 o
342 2 -1 1 4 129265.00 107295.00 912.86 o
342 1 2 -2 -2 129265.00 107295.00 912.86 o
343 4 0 -2 -2 46469.50 58948.00 624.74 o
343 2 0 -2 -2 46469.50 58948.00 624.74 o
343 1 0 2 2 46469.50 58948.00 624.74 o
344 4 -2 0 2 43421.00 60494.10 593.36 o
344 2 -2 0 2 43421.00 60494.10 593.36 o
344 1 2 0 -2 43421.00 60494.10 593.36 o
345 4 -2 -2 -2 143914.00 117779.00 724.58 o
345 2 -1 -3 0 143914.00 117779.00 724.58 o
345 1 2 2 2 143914.00 117779.00 724.58 o
346 4 2 2 2 144669.00 110995.00 767.37 o
346 2 1 3 0 144669.00 110995.00 767.37 o
346 1 -2 -2 -2 144669.00 110995.00 767.37 o
347 4 -4 -2 -2 778.40 1289.42 162.60 o
347 2 -2 -4 2 778.40 1289.42 162.60 o
347 1 4 2 2 778.40 1289.42 162.60 o
348 4 -2 -4 2 1465.48 1503.37 165.46 o
348 2 -4 -2 -2 1465.48 1503.37 165.46 o
348 1 2 4 -2 1465.48 1503.37 165.46 o
349 4 -6 -2 -2 64954.20 80540.00 581.95 o
349 2 -3 -5 4 64954.20 80540.00 581.95 o
349 1 6 2 2 64954.20 80540.00 581.95 o
350 4 -2 -6 2 63653.30 57096.60 348.03 o
350 2 -5 -3 -4 63653.30 57096.60 348.03 o
350 1 2 6 -2 63653.30 57096.60 348.03 o
351 4 -8 -2 -2 7909.25 7285.77 245.33 o
351 2 -4 -6 6 7909.25 7285.77 245.33 o
351 1 8 2 2 7909.25 7285.77 245.33 o
352 4 -2 -8 2 8538.90 9285.50 185.43 o
352 2 -6 -4 -6 8538.90 9285.50 185.43 o
352 1 2 8 -2 8538.90 9285.50 185.43 o
353 4 -10 -2 -2 11257.60 18117.40 368.00 o
353 2 -5 -7 8 11257.60 18117.40 368.00 o
353 1 10 2 2 11257.60 18117.40 368.00 o
354 4 -2 -10 2 10550.70 8569.48 208.25 o
354 2 -7 -5 -8 10550.70 8569.48 208.25 o
354 1 2 10 -2 10550.70 8569.48 208.25 o
355 4 3 -3 -2 3268.51 3933.86 290.97 o
355 2 1 -1 -6 3268.51 3933.86 290.97 o
355 1 -3 3 2 3268.51 3933.86 290.97 o
356 4 -3 3 2 3923.68 6752.31 285.27 o
356 2 -1 1 6 3923.68 6752.31 285.27 o
356 1 3 -3 -2 3923.68 6752.31 285.27 o
357 4 1 -3 -2 35956.50 39341.40 425.05 o
357 2 0 -2 -4 35956.50 39341.40 425.05 o
357 1 -1 3 2 35956.50 39341.40 425.05 o
358 4 -3 1 2 31563.20 43651.80 442.17 o
358 2 -2 0 4 31563.20 43651.80 442.17 o
358 1 3 -1 -2 31563.20 43651.80 442.17 o
359 4 -1 -3 -2 34474.20 36779.70 322.35 o
359 2 -1 -3 -2 34474.20 36779.70 322.35 o
359 1 1 3 2 34474.20 36779.70 322.35 o
360 4 -3 -1 2 34937.70 42887.30 658.97 o
360 2 -3 -1 2 34937.70 42887.30 658.97 o
360 1 3 1 -2 34937.70 42887.30 658.97 o
361 4 -3 -3 -2 21689.10 22929.90 299.53 o
361 2 -2 -4 0 21689.10 22929.90 299.53 o
361 1 3 3 2 21689.10 22929.90 299.53 o
362 4 -3 -3 2 21419.80 18017.60 268.15 o
362 2 -4 -2 0 21419.80 18017.60 268.15 o
362 1 3 3 -2 21419.80 18017.60 268.15 o
363 4 -5 -3 -2 56910.90 58152.10 385.11 o
363 2 -3 -5 2 56910.90 58152.10 385.11 o
363 1 5 3 2 56910.90 58152.10 385.11 o
364 4 -3 -5 2 56208.70 58303.30 396.52 o
364 2 -5 -3 -2 56208.70 58303.30 396.52 o
364 1 3 5 -2 56208.70 58303.30 396.52 o
365 4 -7 -3 -2 9800.48 13364.80 288.12 o
365 2 -4 -6 4 9800.48 13364.80 288.12 o
365 1 7 3 2 9800.48 13364.80 288.12 o
366 4 -3 -7 2 10345.50 8064.55 162.60 o
366 2 -6 -4 -4 10345.50 8064.55 162.60 o
366 1 3 7 -2 10345.50 8064.55 162.60 o
367 4 -9 -3 -2 16253.50 19244.20 348.03 o
367 2 -5 -7 6 16253.50 19244.20 348.03 o
367 1 9 3 2 16253.50 19244.20 348.03 o
368 4 -3 -9 2 15292.30 13958.20 216.80 o
368 2 -7 -5 -6 15292.30 13958.20 216.80 o
368 1 3 9 -2 15292.30 13958.20 216.80 o
369 4 4 -4 -2 60372.50 60576.90 544.86 o
369 2 1 -1 -8 60372.50 60576.90 544.86 o
369 1 -4 4 2 60372.50 60576.90 544.86 o
370 4 -4 4 2 59179.50 68866.80 624.74 o
370 2 -1 1 8 59179.50 68866.80 624.74 o
370 1 4 -4 -2 59179.50 68866.80 624.74 o
371 4 2 -4 -2 8147.58 4438.78 179.72 o
371 2 0 -2 -6 8147.58 4438.78 179.72 o
371 1 -2 4 2 8147.58 4438.78 179.72 o
372 4 -4 2 2 3673.45 6561.18 208.25 o
372 2 -2 0 6 3673.45 6561.18 208.25 o
372 1 4 -2 -2 3673.45 6561.18 208.25 o
373 4 0 -4 -2 105592.00 100146.00 616.18 o
373 2 -1 -3 -4 105592.00 100146.00 616.18 o
373 1 0 4 2 105592.00 100146.00 616.18 o
374 4 -4 0 2 106343.00 109130.00 610.47 o
374 2 -3 -1 4 106343.00 109130.00 610.47 o
374 1 4 0 -2 106343.00 109130.00 610.47 o
375 4 -2 -4 -2 1695.05 1166.75 162.60 o
375 2 -2 -4 -2 1695.05 1166.75 162.60 o
375 1 2 4 2 1695.05 1166.75 162.60 o
376 4 -4 -2 2 848.03 1486.25 251.04 o
376 3 2 0 6 848.03 1486.25 251.04 o
376 2 -4 -2 2 848.03 1486.25 251.04 o
376 1 4 2 -2 848.03 1486.25 251.04 o
377 4 -4 -4 -2 91573.40 92452.80 473.55 o
377 2 -3 -5 0 91573.40 92452.80 473.55 o
377 1 4 4 2 91573.40 92452.80 473.55 o
378 4 -4 -4 2 91809.00 83800.60 442.17 o
378 2 -5 -3 0 91809.00 83800.60 442.17 o
378 1 4 4 -2 91809.00 83800.60 442.17 o
379 4 -6 -4 -2 3339.27 3523.07 171.16 o
379 2 -4 -6 2 3339.27 3523.07 171.16 o
379 1 6 4 2 3339.27 3523.07 171.16 o
380 4 -4 -6 2 3571.56 3454.61 162.60 o
380 2 -6 -4 -2 3571.56 3454.61 162.60 o
380 1 4 6 -2 3571.56 3454.61 162.60 o
381 4 -8 -4 -2 27672.40 34403.40 407.93 o
381 2 -5 -7 4 27672.40 34403.40 407.93 o
381 1 8 4 2 27672.40 34403.40 407.93 o
382 4 -4 -8 2 26841.10 24721.40 231.07 o
382 2 -7 -5 -4 26841.10 24721.40 231.07 o
382 1 4 8 -2 26841.10 24721.40 231.07 o
383 4 5 -5 -2 2429.74 1155.34 211.10 o
383 2 1 -1 -10 2429.74 1155.34 211.10 o
383 1 -5 5 2 2429.74 1155.34 211.10 o
384 4 -5 5 2 2582.37 2704.35 251.04 o
384 2 -1 1 10 2582.37 2704.35 251.04 o
384 1 5 -5 -2 2582.37 2704.35 251.04 o
385 4 3 -5 -2 46366.80 42442.30 376.55 o
385 2 0 -2 -8 46366.80 42442.30 376.55 o
385 1 -3 5 2 46366.80 42442.30 376.55 o
386 4 -5 3 2 43485.30 44199.60 353.73 o
386 2 -2 0 8 43485.30 44199.60 353.73 o
386 1 5 -3 -2 43485.30 44199.60 353.73 o
387 4 1 -5 -2 10773.00 13076.70 268.15 o
387 2 -1 -3 -6 10773.00 13076.70 268.15 o
387 1 -1 5 2 10773.00 13076.70 268.15 o
388 4 -5 1 2 12264.30 18274.30 268.15 o
388 2 -3 -1 6 12264.30 18274.30 268.15 o
388 1 5 -1 -2 12264.30 18274.30 268.15 o
389 4 -1 -5 -2 23045.50 20542.20 219.66 o
389 2 -2 -4 -4 23045.50 20542.20 219.66 o
389 1 1 5 2 23045.50 20542.20 219.66 o
390 4 -5 -1 2 21015.00 26216.20 425.05 o
390 2 -4 -2 4 21015.00 26216.20 425.05 o
390 1 5 1 -2 21015.00 26216.20 425.05 o
391 4 -3 -5 -2 55974.00 48721.10 376.55 o
391 2 -3 -5 -2 55974.00 48721.10 376.55 o
391 1 3 5 2 55974.00 48721.10 376.55 o
392 4 -5 -3 2 57145.50 60599.70 385.11 o
392 2 -5 -3 2 57145.50 60599.70 385.11 o
392 1 5 3 -2 57145.50 60599.70 385.11 o
393 4 -5 -5 -2 10632.60 10740.40 196.84 o
393 2 -4 -6 0 10632.60 10740.40 196.84 o
393 1 5 5 2 10632.60 10740.40 196.84 o
394 4 -5 -5 2 10405.00 8763.46 196.84 o
394 2 -6 -4 0 10405.00 8763.46 196.84 o
394 1 5 5 -2 10405.00 8763.46 196.84 o
395 4 -7 -5 -2 34090.80 33807.20 290.97 o
395 2 -5 -7 2 34090.80 33807.20 290.97 o
395 1 7 5 2 34090.80 33807.20 290.97 o
396 4 -5 -7 2 33677.00 33453.50 276.71 o
396 2 -7 -5 -2 33677.00 33453.50 276.71 o
396 1 5 7 -2 33677.00 33453.50 276.71 o
397 4 -9 -5 -2 2678.40 3152.22 302.39 o
397 2 -6 -8 4 2678.40 3152.22 302.39 o
397 1 9 5 2 2678.40 3152.22 302.39 o
398 4 -5 -9 2 3012.18 2362.03 162.60 o
398 2 -8 -6 -4 3012.18 2362.03 162.60 o
398 1 5 9 -2 3012.18 2362.03 162.60 o
399 4 6 -6 -2 26267.70 23774.30 405.08 o
399 2 1 -1 -12 26267.70 23774.30 405.08 o
399 1 -6 6 2 26267.70 23774.30 405.08 o
400 4 -6 6 2 25949.80 29180.20 379.41 o
400 2 -1 1 12 25949.80 29180.20 379.41 o
400 1 6 -6 -2 25949.80 29180.20 379.41 o
401 4 4 -6 -2 3639.52 2364.88 162.60 o
401 2 0 -2 -10 3639.52 2364.88 162.60 o
401 1 -4 6 2 3639.52 2364.88 162.60 o
402 4 -6 4 2 1828.17 1084.02 151.19 o
402 2 -2 0 10 1828.17 1084.02 151.19 o
402 1 6 -4 -2 1828.17 1084.02 151.19 o
403 4 2 -6 -2 46570.50 37829.50 365.14 o
403 2 -1 -3 -8 46570.50 37829.50 365.14 o
403 1 -2 6 2 46570.50 37829.50 365.14 o
404 4 -6 2 2 46470.70 56976.80 407.93 o
404 2 -3 -1 8 46470.70 56976.80 407.93 o
404 1 6 -2 -2 46470.70 56976.80 407.93 o
405 4 0 -6 -2 5933.13 6324.41 156.90 o
405 2 -2 -4 -6 5933.13 6324.41 156.90 o
405 1 0 6 2 5933.13 6324.41 156.90 o
406 4 -6 0 2 4212.56 4572.86 268.15 o
406 2 -4 -2 6 4212.56 4572.86 268.15 o
406 1 6 0 -2 4212.56 4572.86 268.15 o
407 4 -2 -6 -2 63558.70 58945.10 319.50 o
407 2 -3 -5 -4 63558.70 58945.10 319.50 o
407 1 2 6 2 63558.70 58945.10 319.50 o
408 4 -6 -2 2 68447.70 75870.10 647.56 o
408 3 3 1 8 68447.70 75870.10 647.56 o
408 2 -5 -3 4 68447.70 75870.10 647.56 o
408 1 6 2 -2 68447.70 75870.10 647.56 o
409 4 -4 -6 -2 3649.18 2981.06 165.46 o
409 2 -4 -6 -2 3649.18 2981.06 165.46 o
409 1 4 6 2 3649.18 2981.06 165.46 o
410 4 -6 -4 2 3261.65 3776.96 159.75 o
410 2 -6 -4 2 3261.65 3776.96 159.75 o
410 1 6 4 -2 3261.65 3776.96 159.75 o
411 4 -6 -6 -2 39599.70 41663.50 308.09 o
411 2 -5 -7 0 39599.70 41663.50 308.09 o
411 1 6 6 2 39599.70 41663.50 308.09 o
412 4 -6 -6 2 39702.80 38562.70 310.94 o
412 2 -7 -5 0 39702.80 38562.70 310.94 o
412 1 6 6 -2 39702.80 38562.70 310.94 o
413 4 -8 -6 -2 1596.78 1591.80 182.57 o
413 2 -6 -8 2 1596.78 1591.80 182.57 o
413 1 8 6 2 1596.78 1591.80 182.57 o
414 4 -6 -8 2 1761.22 1449.17 168.31 o
414 2 -8 -6 -2 1761.22 1449.17 168.31 o
414 1 6 8 -2 1761.22 1449.17 168.31 o
415 4 7 -7 -2 1092.28 196.84 233.92 <
415 2 1 -1 -14 1092.28 196.84 233.92 <
415 1 -7 7 2 1092.28 196.84 233.92 <
416 4 -7 7 2 1166.94 801.61 222.51 o
416 2 -1 1 14 1166.94 801.61 222.51 o
416 1 7 -7 -2 1166.94 801.61 222.51 o
417 4 5 -7 -2 27672.20 29100.30 259.60 o
417 2 0 -2 -12 27672.20 29100.30 259.60 o
417 1 -5 7 2 27672.20 29100.30 259.60 o
418 4 -7 5 2 26488.10 20767.60 271.01 o
418 2 -2 0 12 26488.10 20767.60 271.01 o
418 1 7 -5 -2 26488.10 20767.60 271.01 o
419 4 3 -7 -2 3965.50 2769.96 171.16 o
419 2 -1 -3 -10 3965.50 2769.96 171.16 o
419 1 -3 7 2 3965.50 2769.96 171.16 o
420 4 -7 3 2 4641.65 5220.42 182.57 o
420 2 -3 -1 10 4641.65 5220.42 182.57 o
420 1 7 -3 -2 4641.65 5220.42 182.57 o
421 4 1 -7 -2 24517.00 20550.80 302.39 o
421 2 -2 -4 -8 24517.00 20550.80 302.39 o
421 1 -1 7 2 24517.00 20550.80 302.39 o
422 4 -7 1 2 23173.20 27568.40 308.09 o
422 2 -4 -2 8 23173.20 27568.40 308.09 o
422 1 7 -1 -2 23173.20 27568.40 308.09 o
423 4 -1 -7 -2 23309.40 23166.70 233.92 o
423 2 -3 -5 -6 23309.40 23166.70 233.92 o
423 1 1 7 2 23309.40 23166.70 233.92 o
424 4 -7 -1 2 25199.30 28264.40 462.14 o
424 2 -5 -3 6 25199.30 28264.40 462.14 o
424 1 7 1 -2 25199.30 28264.40 462.14 o
425 4 -3 -7 -2 10470.40 9508.01 171.16 o
425 2 -4 -6 -4 10470.40 9508.01 171.16 o
425 1 3 7 2 10470.40 9508.01 171.16 o
426 4 -7 -3 2 9675.59 12163.90 310.94 o
426 2 -6 -4 4 9675.59 12163.90 310.94 o
426 1 7 3 -2 9675.59 12163.90 310.94 o
427 4 -5 -7 -2 33538.70 30318.40 276.71 o
427 2 -5 -7 -2 33538.70 30318.40 276.71 o
427 1 5 7 2 33538.70 30318.40 276.71 o
428 4 -7 -5 2 34229.00 35210.70 464.99 o
428 2 -7 -5 2 34229.00 35210.70 464.99 o
428 1 7 5 -2 34229.00 35210.70 464.99 o
429 4 -7 -7 -2 2191.98 2165.19 168.31 o
429 2 -6 -8 0 2191.98 2165.19 168.31 o
429 1 7 7 2 2191.98 2165.19 168.31 o
430 4 -7 -7 2 2089.28 2093.87 168.31 o
430 2 -8 -6 0 2089.28 2093.87 168.31 o
430 1 7 7 -2 2089.28 2093.87 168.31 o
431 4 6 -8 -2 1613.85 947.09 165.46 o
431 2 0 -2 -14 1613.85 947.09 165.46 o
431 1 -6 8 2 1613.85 947.09 165.46 o
432 4 -8 6 2 1311.19 402.23 165.46 o
432 2 -2 0 14 1311.19 402.23 165.46 o
432 1 8 -6 -2 1311.19 402.23 165.46 o
433 4 4 -8 -2 18451.50 17384.30 239.63 o
433 2 -1 -3 -12 18451.50 17384.30 239.63 o
433 1 -4 8 2 18451.50 17384.30 239.63 o
434 4 -8 4 2 18426.80 26341.70 279.56 o
434 2 -3 -1 12 18426.80 26341.70 279.56 o
434 1 8 -4 -2 18426.80 26341.70 279.56 o
435 4 2 -8 -2 7673.75 8318.44 196.84 o
435 2 -2 -4 -10 7673.75 8318.44 196.84 o
435 1 -2 8 2 7673.75 8318.44 196.84 o
436 4 -8 2 2 6984.49 3642.88 191.13 o
436 2 -4 -2 10 6984.49 3642.88 191.13 o
436 1 8 -2 -2 6984.49 3642.88 191.13 o
437 4 0 -8 -2 25654.40 20955.90 225.36 o
437 2 -3 -5 -8 25654.40 20955.90 225.36 o
437 1 0 8 2 25654.40 20955.90 225.36 o
438 4 -8 0 2 26528.70 40488.20 447.87 o
438 2 -5 -3 8 26528.70 40488.20 447.87 o
438 1 8 0 -2 26528.70 40488.20 447.87 o
439 4 -2 -8 -2 8499.65 7120.31 162.60 o
439 2 -4 -6 -6 8499.65 7120.31 162.60 o
439 1 2 8 2 8499.65 7120.31 162.60 o
440 4 -8 -2 2 8060.55 7559.63 290.97 o
440 3 4 2 10 8060.55 7559.63 290.97 o
440 2 -6 -4 6 8060.55 7559.63 290.97 o
440 1 8 2 -2 8060.55 7559.63 290.97 o
441 4 -4 -8 -2 26807.80 25394.60 216.80 o
441 2 -5 -7 -4 26807.80 25394.60 216.80 o
441 1 4 8 2 26807.80 25394.60 216.80 o
442 4 -8 -4 2 27705.60 32081.30 405.08 o
442 2 -7 -5 4 27705.60 32081.30 405.08 o
442 1 8 4 -2 27705.60 32081.30 405.08 o
443 4 -6 -8 -2 1816.16 1306.53 188.28 o
443 2 -6 -8 -2 1816.16 1306.53 188.28 o
443 1 6 8 2 1816.16 1306.53 188.28 o
444 4 -8 -6 2 1541.83 1491.96 288.12 o
444 2 -8 -6 2 1541.83 1491.96 288.12 o
444 1 8 6 -2 1541.83 1491.96 288.12 o
445 4 5 -9 -2 1776.76 1200.98 174.01 o
445 2 -1 -3 -14 1776.76 1200.98 174.01 o
445 1 -5 9 2 1776.76 1200.98 174.01 o
446 4 -9 5 2 1979.66 1106.84 171.16 o
446 2 -3 -1 14 1979.66 1106.84 171.16 o
446 1 9 -5 -2 1979.66 1106.84 171.16 o
447 4 3 -9 -2 14032.70 11148.30 225.36 o
447 2 -2 -4 -12 14032.70 11148.30 225.36 o
447 1 -3 9 2 14032.70 11148.30 225.36 o
448 4 -9 3 2 13446.40 14292.00 242.48 o
448 2 -4 -2 12 13446.40 14292.00 242.48 o
448 1 9 -3 -2 13446.40 14292.00 242.48 o
449 4 1 -9 -2 7757.31 7294.33 174.01 o
449 2 -3 -5 -10 7757.31 7294.33 174.01 o
449 1 -1 9 2 7757.31 7294.33 174.01 o
450 4 -9 1 2 8710.67 8549.51 316.65 o
450 2 -5 -3 10 8710.67 8549.51 316.65 o
450 1 9 -1 -2 8710.67 8549.51 316.65 o
451 4 -1 -9 -2 10393.40 7154.54 185.43 o
451 2 -4 -6 -8 10393.40 7154.54 185.43 o
451 1 1 9 2 10393.40 7154.54 185.43 o
452 4 -9 -1 2 9866.33 12178.10 353.73 o
452 2 -6 -4 8 9866.33 12178.10 353.73 o
452 1 9 1 -2 9866.33 12178.10 353.73 o
453 4 -3 -9 -2 15255.80 10962.90 199.69 o
453 2 -5 -7 -6 15255.80 10962.90 199.69 o
453 1 3 9 2 15255.80 10962.90 199.69 o
454 4 -9 -3 2 16290.00 15755.40 362.29 o
454 2 -7 -5 6 16290.00 15755.40 362.29 o
454 1 9 3 -2 16290.00 15755.40 362.29 o
455 4 -5 -9 -2 3065.20 2179.45 136.93 o
455 2 -6 -8 -4 3065.20 2179.45 136.93 o
455 1 5 9 2 3065.20 2179.45 136.93 o
456 4 -9 -5 2 2625.37 2707.20 293.83 o
456 2 -8 -6 4 2625.37 2707.20 293.83 o
456 1 9 5 -2 2625.37 2707.20 293.83 o
457 4 2 -10 -2 8701.31 5377.32 171.16 o
457 2 -3 -5 -12 8701.31 5377.32 171.16 o
457 1 -2 10 2 8701.31 5377.32 171.16 o
458 4 -10 2 2 8969.26 16896.50 333.77 o
458 2 -5 -3 12 8969.26 16896.50 333.77 o
458 1 10 -2 -2 8969.26 16896.50 333.77 o
459 4 0 -10 -2 8079.16 7151.69 168.31 o
459 2 -4 -6 -10 8079.16 7151.69 168.31 o
459 1 0 10 2 8079.16 7151.69 168.31 o
460 4 -10 0 2 7868.27 4370.32 302.39 o
460 2 -6 -4 10 7868.27 4370.32 302.39 o
460 1 10 0 -2 7868.27 4370.32 302.39 o
461 4 -2 -10 -2 10585.50 8483.90 176.87 o
461 2 -5 -7 -8 10585.50 8483.90 176.87 o
461 1 2 10 2 10585.50 8483.90 176.87 o
462 4 -10 -2 2 11931.90 14737.00 353.73 o
462 3 5 3 12 11931.90 14737.00 353.73 o
462 2 -7 -5 8 11931.90 14737.00 353.73 o
462 1 10 2 -2 11931.90 14737.00 353.73 o
463 4 3 -10 3 554.22 678.94 228.21 o
463 2 -5 -2 -13 554.22 678.94 228.21 o
463 1 -3 10 -3 554.22 678.94 228.21 o
464 4 -3 8 -3 2527.57 1414.93 276.71 o
464 2 4 1 11 2527.57 1414.93 276.71 o
464 1 3 -8 3 2527.57 1414.93 276.71 o
465 4 3 -8 3 2527.58 2824.16 282.42 o
465 2 -4 -1 -11 2527.58 2824.16 282.42 o
465 1 -3 8 -3 2527.58 2824.16 282.42 o
466 4 -3 6 -3 3840.38 1474.84 271.01 o
466 1 3 -6 3 3840.38 1474.84 271.01 o
467 4 3 -6 3 3840.37 5611.24 325.21 o
467 1 -3 6 -3 3840.37 5611.24 325.21 o
468 4 -7 6 -3 174.68 102.70 165.46 <
468 2 1 -2 13 174.68 102.70 165.46 <
468 1 7 -6 3 174.68 102.70 165.46 <
469 4 6 -7 3 174.67 148.34 154.04 <
469 2 -2 1 -13 174.67 148.34 154.04 <
469 1 -6 7 -3 174.67 148.34 154.04 <
470 4 -6 5 -3 750.74 621.89 154.04 o
470 2 1 -2 11 750.74 621.89 154.04 o
470 1 6 -5 3 750.74 621.89 154.04 o
471 4 5 -6 3 750.73 1032.67 151.19 o
471 2 -2 1 -11 750.73 1032.67 151.19 o
471 1 -5 6 -3 750.73 1032.67 151.19 o
472 4 -8 5 -3 658.80 134.08 159.75 <
472 1 8 -5 3 658.80 134.08 159.75 <
473 4 5 -8 3 658.80 1021.26 156.90 o
473 1 -5 8 -3 658.80 1021.26 156.90 o
474 4 -3 4 -3 6767.14 5987.79 316.65 o
474 2 2 -1 7 6767.14 5987.79 316.65 o
474 1 3 -4 3 6767.14 5987.79 316.65 o
475 4 3 -4 3 6767.13 9259.83 336.62 o
475 2 -2 1 -7 6767.13 9259.83 336.62 o
475 1 -3 4 -3 6767.13 9259.83 336.62 o
476 4 -5 4 -3 1060.84 1506.22 179.72 o
476 2 1 -2 9 1060.84 1506.22 179.72 o
476 1 5 -4 3 1060.84 1506.22 179.72 o
477 4 4 -5 3 1060.85 738.85 165.46 o
477 2 -2 1 -9 1060.85 738.85 165.46 o
477 1 -4 5 -3 1060.85 738.85 165.46 o
478 4 -7 4 -3 493.78 111.25 156.90 <
478 1 7 -4 3 493.78 111.25 156.90 <
479 4 4 -7 3 493.78 818.72 168.31 o
479 1 -4 7 -3 493.78 818.72 168.31 o
480 4 -9 4 -3 1013.93 516.34 176.87 o
480 2 -1 -4 13 1013.93 516.34 176.87 o
480 1 9 -4 3 1013.93 516.34 176.87 o
481 4 4 -9 3 1013.92 1252.33 171.16 o
481 2 -4 -1 -13 1013.92 1252.33 171.16 o
481 1 -4 9 -3 1013.92 1252.33 171.16 o
482 4 -4 3 -3 6768.46 6002.06 322.35 o
482 3 2 5 1 6768.46 6002.06 322.35 o
482 2 1 -2 7 6768.46 6002.06 322.35 o
482 1 4 -3 3 6768.46 6002.06 322.35 o
483 4 3 -4 3 6767.13 9496.60 302.39 o
483 2 -2 1 -7 6767.13 9496.60 302.39 o
483 1 -3 4 -3 6767.13 9496.60 302.39 o
484 4 -6 3 -3 4305.80 1158.19 213.95 o
484 3 3 6 3 4305.80 1158.19 213.95 o
484 1 6 -3 3 4305.80 1158.19 213.95 o
485 4 3 -6 3 3840.37 6655.32 236.77 o
485 1 -3 6 -3 3840.37 6655.32 236.77 o
486 4 -8 3 -3 2565.90 1317.94 228.21 o
486 3 4 7 5 2565.90 1317.94 228.21 o
486 2 -1 -4 11 2565.90 1317.94 228.21 o
486 1 8 -3 3 2565.90 1317.94 228.21 o
487 4 3 -8 3 2527.58 3234.95 208.25 o
487 2 -4 -1 -11 2527.58 3234.95 208.25 o
487 1 -3 8 -3 2527.58 3234.95 208.25 o
488 4 -10 3 -3 581.36 168.31 231.07 <
488 3 5 8 7 581.36 168.31 231.07 <
488 2 -2 -5 13 581.36 168.31 231.07 <
488 1 10 -3 3 581.36 168.31 231.07 <
489 4 3 -10 3 554.22 810.16 236.77 o
489 2 -5 -2 -13 554.22 810.16 236.77 o
489 1 -3 10 -3 554.22 810.16 236.77 o
490 4 -3 2 -3 7193.09 8358.38 285.27 o
490 2 1 -2 5 7193.09 8358.38 285.27 o
490 1 3 -2 3 7193.09 8358.38 285.27 o
491 4 3 -2 3 7193.09 6943.44 316.65 o
491 2 -1 2 -5 7193.09 6943.44 316.65 o
491 1 -3 2 -3 7193.09 6943.44 316.65 o
492 4 2 -3 3 9141.77 6889.24 356.59 o
492 3 -1 -4 1 9141.77 6889.24 356.59 o
492 2 -2 1 -5 9141.77 6889.24 356.59 o
492 1 -2 3 -3 9141.77 6889.24 356.59 o
493 4 -5 2 -3 8.46 54.20 162.60 <
493 1 5 -2 3 8.46 54.20 162.60 <
494 4 2 -5 3 8.46 102.70 151.19 <
494 1 -2 5 -3 8.46 102.70 151.19 <
495 4 -7 2 -3 2294.25 3160.78 182.57 o
495 2 -1 -4 9 2294.25 3160.78 182.57 o
495 1 7 -2 3 2294.25 3160.78 182.57 o
496 4 2 -7 3 2294.26 1831.43 188.28 o
496 2 -4 -1 -9 2294.26 1831.43 188.28 o
496 1 -2 7 -3 2294.26 1831.43 188.28 o
497 4 -9 2 -3 425.27 31.38 265.30 <
497 2 -2 -5 11 425.27 31.38 265.30 <
497 1 9 -2 3 425.27 31.38 265.30 <
498 4 2 -9 3 425.26 693.20 162.60 o
498 2 -5 -2 -11 425.26 693.20 162.60 o
498 1 -2 9 -3 425.26 693.20 162.60 o
499 4 -2 1 -3 16032.90 18214.40 379.41 o
499 2 1 -2 3 16032.90 18214.40 379.41 o
499 1 2 -1 3 16032.90 18214.40 379.41 o
500 4 1 -2 3 16032.90 19104.50 356.59 o
500 2 -2 1 -3 16032.90 19104.50 356.59 o
500 1 -1 2 -3 16032.90 19104.50 356.59 o
501 4 -4 1 -3 12370.20 6937.74 282.42 o
501 1 4 -1 3 12370.20 6937.74 282.42 o
502 4 1 -4 3 12370.10 17872.10 373.70 o
502 1 -1 4 -3 12370.10 17872.10 373.70 o
503 4 -6 1 -3 13294.70 10563.50 279.56 o
503 2 -1 -4 7 13294.70 10563.50 279.56 o
503 1 6 -1 3 13294.70 10563.50 279.56 o
504 4 1 -6 3 13294.70 15530.00 282.42 o
504 2 -4 -1 -7 13294.70 15530.00 282.42 o
504 1 -1 6 -3 13294.70 15530.00 282.42 o
505 4 -8 1 -3 2901.53 1038.38 216.80 o
505 2 -2 -5 9 2901.53 1038.38 216.80 o
505 1 8 -1 3 2901.53 1038.38 216.80 o
506 4 1 -8 3 2901.51 4447.34 211.10 o
506 2 -5 -2 -9 2901.51 4447.34 211.10 o
506 1 -1 8 -3 2901.51 4447.34 211.10 o
507 4 -10 1 -3 720.30 436.46 245.33 <
507 2 -3 -6 11 720.30 436.46 245.33 <
507 1 10 -1 3 720.30 436.46 245.33 <
508 4 1 -10 3 720.30 1007.00 248.18 o
508 2 -6 -3 -11 720.30 1007.00 248.18 o
508 1 -1 10 -3 720.30 1007.00 248.18 o
509 4 -2 -1 -3 6850.81 6161.81 296.68 o
509 1 2 1 3 6850.81 6161.81 296.68 o
510 4 -1 -2 3 6850.81 9362.53 296.68 o
510 1 1 2 -3 6850.81 9362.53 296.68 o
511 4 -4 -1 -3 28949.70 29359.90 427.90 o
511 2 -1 -4 3 28949.70 29359.90 427.90 o
511 1 4 1 3 28949.70 29359.90 427.90 o
512 4 -1 -4 3 28949.80 30172.90 436.46 o
512 2 -4 -1 -3 28949.80 30172.90 436.46 o
512 1 1 4 -3 28949.80 30172.90 436.46 o
513 4 -6 -1 -3 8419.14 5146.25 228.21 o
513 2 -2 -5 5 8419.14 5146.25 228.21 o
513 1 6 1 3 8419.14 5146.25 228.21 o
514 4 -1 -6 3 8419.19 11870.00 256.74 o
514 2 -5 -2 -5 8419.19 11870.00 256.74 o
514 1 1 6 -3 8419.19 11870.00 256.74 o
515 4 -8 -1 -3 4550.85 3303.41 208.25 o
515 2 -3 -6 7 4550.85 3303.41 208.25 o
515 1 8 1 3 4550.85 3303.41 208.25 o
516 4 -1 -8 3 4550.82 4983.65 219.66 o
516 2 -6 -3 -7 4550.82 4983.65 219.66 o
516 1 1 8 -3 4550.82 4983.65 219.66 o
517 4 -10 -1 -3 583.04 145.49 259.60 <
517 2 -4 -7 9 583.04 145.49 259.60 <
517 1 10 1 3 583.04 145.49 259.60 <
518 4 -1 -10 3 583.04 921.42 265.30 o
518 2 -7 -4 -9 583.04 921.42 265.30 o
518 1 1 10 -3 583.04 921.42 265.30 o
519 4 1 -2 -3 16032.90 18536.80 322.35 o
519 2 1 -2 -3 16032.90 18536.80 322.35 o
519 1 -1 2 3 16032.90 18536.80 322.35 o
520 4 -2 1 3 16032.90 18548.20 299.53 o
520 2 -2 1 3 16032.90 18548.20 299.53 o
520 1 2 -1 -3 16032.90 18548.20 299.53 o
521 4 -1 -2 -3 6850.81 8115.90 205.39 o
521 1 1 2 3 6850.81 8115.90 205.39 o
522 4 -2 -1 3 6850.81 11068.40 407.93 o
522 1 2 1 -3 6850.81 11068.40 407.93 o
523 4 -3 -2 -3 23523.60 26307.50 353.73 o
523 2 -1 -4 1 23523.60 26307.50 353.73 o
523 1 3 2 3 23523.60 26307.50 353.73 o
524 4 -2 -3 3 23996.20 20256.90 539.16 o
524 3 1 -2 5 23996.20 20256.90 539.16 o
524 2 -4 -1 -1 23996.20 20256.90 539.16 o
524 1 2 3 -3 23996.20 20256.90 539.16 o
525 4 3 2 3 23524.20 21363.80 339.47 o
525 2 1 4 -1 23524.20 21363.80 339.47 o
525 1 -3 -2 -3 23524.20 21363.80 339.47 o
526 4 -5 -2 -3 19.81 22.82 148.34 <
526 2 -2 -5 3 19.81 22.82 148.34 <
526 1 5 2 3 19.81 22.82 148.34 <
527 4 -2 -5 3 19.81 37.08 162.60 <
527 2 -5 -2 -3 19.81 37.08 162.60 <
527 1 2 5 -3 19.81 37.08 162.60 <
528 4 -7 -2 -3 3612.08 4798.22 245.33 o
528 2 -3 -6 5 3612.08 4798.22 245.33 o
528 1 7 2 3 3612.08 4798.22 245.33 o
529 4 -2 -7 3 3612.05 2598.80 154.04 o
529 2 -6 -3 -5 3612.05 2598.80 154.04 o
529 1 2 7 -3 3612.05 2598.80 154.04 o
530 4 -9 -2 -3 643.62 564.83 236.77 o
530 2 -4 -7 7 643.62 564.83 236.77 o
530 1 9 2 3 643.62 564.83 236.77 o
531 4 -2 -9 3 643.61 684.65 179.72 o
531 2 -7 -4 -7 643.61 684.65 179.72 o
531 1 2 9 -3 643.61 684.65 179.72 o
532 4 2 -3 -3 7193.10 6914.92 211.10 o
532 2 1 -2 -5 7193.10 6914.92 211.10 o
532 1 -2 3 3 7193.10 6914.92 211.10 o
533 4 -3 2 3 7193.09 8287.06 225.36 o
533 2 -2 1 5 7193.09 8287.06 225.36 o
533 1 3 -2 -3 7193.09 8287.06 225.36 o
534 4 -2 -3 -3 23524.20 22927.10 319.50 o
534 2 -1 -4 -1 23524.20 22927.10 319.50 o
534 1 2 3 3 23524.20 22927.10 319.50 o
535 4 -3 -2 3 23523.60 21592.00 296.68 o
535 2 -4 -1 1 23523.60 21592.00 296.68 o
535 1 3 2 -3 23523.60 21592.00 296.68 o
536 4 -4 -3 -3 4352.01 3679.97 176.87 o
536 2 -2 -5 1 4352.01 3679.97 176.87 o
536 1 4 3 3 4352.01 3679.97 176.87 o
537 4 -3 -4 3 4351.96 6116.17 199.69 o
537 2 -5 -2 -1 4351.96 6116.17 199.69 o
537 1 3 4 -3 4351.96 6116.17 199.69 o
538 4 -6 -3 -3 8987.58 9005.94 211.10 o
538 2 -3 -6 3 8987.58 9005.94 211.10 o
538 1 6 3 3 8987.58 9005.94 211.10 o
539 4 -3 -6 3 8987.63 8914.65 205.39 o
539 2 -6 -3 -3 8987.63 8914.65 205.39 o
539 1 3 6 -3 8987.63 8914.65 205.39 o
540 4 -8 -3 -3 2322.21 1959.80 251.04 o
540 2 -4 -7 5 2322.21 1959.80 251.04 o
540 1 8 3 3 2322.21 1959.80 251.04 o
541 4 -3 -8 3 2322.22 2752.84 156.90 o
541 2 -7 -4 -5 2322.22 2752.84 156.90 o
541 1 3 8 -3 2322.22 2752.84 156.90 o
542 4 -10 -3 -3 854.20 938.53 262.45 o
542 2 -5 -8 7 854.20 938.53 262.45 o
542 1 10 3 3 854.20 938.53 262.45 o
543 4 -3 -10 3 854.20 847.25 185.43 o
543 2 -8 -5 -7 854.20 847.25 185.43 o
543 1 3 10 -3 854.20 847.25 185.43 o
544 4 3 -4 -3 6767.14 8432.55 202.54 o
544 2 1 -2 -7 6767.14 8432.55 202.54 o
544 1 -3 4 3 6767.14 8432.55 202.54 o
545 4 -4 3 3 6767.12 6820.78 213.95 o
545 2 -2 1 7 6767.12 6820.78 213.95 o
545 1 4 -3 -3 6767.12 6820.78 213.95 o
546 4 1 -4 -3 12370.20 16765.30 256.74 o
546 1 -1 4 3 12370.20 16765.30 256.74 o
547 4 -4 1 3 12370.10 14046.60 262.45 o
547 1 4 -1 -3 12370.10 14046.60 262.45 o
548 4 -1 -4 -3 28949.90 26849.50 268.15 o
548 2 -1 -4 -3 28949.90 26849.50 268.15 o
548 1 1 4 3 28949.90 26849.50 268.15 o
549 4 -4 -1 3 28949.70 29314.20 502.07 o
549 2 -4 -1 3 28949.70 29314.20 502.07 o
549 1 4 1 -3 28949.70 29314.20 502.07 o
550 4 -3 -4 -3 4351.98 3634.33 185.43 o
550 2 -2 -5 -1 4351.98 3634.33 185.43 o
550 1 3 4 3 4351.98 3634.33 185.43 o
551 4 3 4 3 4351.99 6461.34 171.16 o
551 2 2 5 1 4351.99 6461.34 171.16 o
551 1 -3 -4 -3 4351.99 6461.34 171.16 o
552 4 -4 -3 3 4571.70 5882.24 302.39 o
552 3 2 -1 7 4571.70 5882.24 302.39 o
552 2 -5 -2 1 4571.70 5882.24 302.39 o
552 1 4 3 -3 4571.70 5882.24 302.39 o
553 4 -5 -4 -3 6615.75 7881.98 188.28 o
553 2 -3 -6 1 6615.75 7881.98 188.28 o
553 1 5 4 3 6615.75 7881.98 188.28 o
554 4 -4 -5 3 6616.08 5950.71 185.43 o
554 2 -6 -3 -1 6616.08 5950.71 185.43 o
554 1 4 5 -3 6616.08 5950.71 185.43 o
555 4 -7 -4 -3 1155.60 1161.04 151.19 o
555 2 -4 -7 3 1155.60 1161.04 151.19 o
555 1 7 4 3 1155.60 1161.04 151.19 o
556 4 -4 -7 3 1155.60 1189.57 162.60 o
556 2 -7 -4 -3 1155.60 1189.57 162.60 o
556 1 4 7 -3 1155.60 1189.57 162.60 o
557 4 -9 -4 -3 1416.67 975.62 245.33 o
557 2 -5 -8 5 1416.67 975.62 245.33 o
557 1 9 4 3 1416.67 975.62 245.33 o
558 4 -4 -9 3 1416.67 1223.80 154.04 o
558 2 -8 -5 -5 1416.67 1223.80 154.04 o
558 1 4 9 -3 1416.67 1223.80 154.04 o
559 4 4 -5 -3 1060.84 619.03 159.75 o
559 2 1 -2 -9 1060.84 619.03 159.75 o
559 1 -4 5 3 1060.84 619.03 159.75 o
560 4 -5 4 3 1060.85 1286.56 142.63 o
560 2 -2 1 9 1060.85 1286.56 142.63 o
560 1 5 -4 -3 1060.85 1286.56 142.63 o
561 4 2 -5 -3 8.46 25.67 142.63 <
561 1 -2 5 3 8.46 25.67 142.63 <
562 4 -5 2 3 8.46 -22.82 162.60 <
562 1 5 -2 -3 8.46 -22.82 162.60 <
563 4 -2 -5 -3 19.80 71.32 111.25 <
563 2 -2 -5 -3 19.80 71.32 111.25 <
563 1 2 5 3 19.80 71.32 111.25 <
564 4 -5 -2 3 19.81 31.38 245.33 <
564 2 -5 -2 3 19.81 31.38 245.33 <
564 1 5 2 -3 19.81 31.38 245.33 <
565 4 -4 -5 -3 6616.06 7362.79 199.69 o
565 2 -3 -6 -1 6616.06 7362.79 199.69 o
565 1 4 5 3 6616.06 7362.79 199.69 o
566 4 -5 -4 3 6615.77 6566.89 151.19 o
566 2 -6 -3 1 6615.77 6566.89 151.19 o
566 1 5 4 -3 6615.77 6566.89 151.19 o
567 4 -6 -5 -3 1281.34 1258.04 148.34 o
567 2 -4 -7 1 1281.34 1258.04 148.34 o
567 1 6 5 3 1281.34 1258.04 148.34 o
568 4 -5 -6 3 1281.33 1278.00 154.04 o
568 2 -7 -4 -1 1281.33 1278.00 154.04 o
568 1 5 6 -3 1281.33 1278.00 154.04 o
569 4 -8 -5 -3 1541.79 1489.10 276.71 o
569 2 -5 -8 3 1541.79 1489.10 276.71 o
569 1 8 5 3 1541.79 1489.10 276.71 o
570 4 -5 -8 3 1541.79 1534.75 168.31 o
570 2 -8 -5 -3 1541.79 1534.75 168.31 o
570 1 5 8 -3 1541.79 1534.75 168.31 o
571 4 5 -6 -3 750.75 890.04 145.49 o
571 2 1 -2 -11 750.75 890.04 145.49 o
571 1 -5 6 3 750.75 890.04 145.49 o
572 4 -6 5 3 750.73 476.40 151.19 o
572 2 -2 1 11 750.73 476.40 151.19 o
572 1 6 -5 -3 750.73 476.40 151.19 o
573 4 3 -6 -3 3840.38 5537.07 182.57 o
573 1 -3 6 3 3840.38 5537.07 182.57 o
574 4 -6 3 3 3840.36 2855.54 159.75 o
574 1 6 -3 -3 3840.36 2855.54 159.75 o
575 4 1 -6 -3 13294.70 11493.50 245.33 o
575 2 -1 -4 -7 13294.70 11493.50 245.33 o
575 1 -1 6 3 13294.70 11493.50 245.33 o
576 4 -6 1 3 13294.70 11967.00 228.21 o
576 2 -4 -1 7 13294.70 11967.00 228.21 o
576 1 6 -1 -3 13294.70 11967.00 228.21 o
577 4 -1 -6 -3 8419.14 10281.10 171.16 o
577 2 -2 -5 -5 8419.14 10281.10 171.16 o
577 1 1 6 3 8419.14 10281.10 171.16 o
578 4 -6 -1 3 8419.19 7762.17 276.71 o
578 2 -5 -2 5 8419.19 7762.17 276.71 o
578 1 6 1 -3 8419.19 7762.17 276.71 o
579 4 -3 -6 -3 8987.63 8001.79 162.60 o
579 2 -3 -6 -3 8987.63 8001.79 162.60 o
579 1 3 6 3 8987.63 8001.79 162.60 o
580 4 -6 -3 3 8987.58 8352.67 302.39 o
580 2 -6 -3 3 8987.58 8352.67 302.39 o
580 1 6 3 -3 8987.58 8352.67 302.39 o
581 4 -5 -6 -3 1281.34 1141.08 174.01 o
581 2 -4 -7 -1 1281.34 1141.08 174.01 o
581 1 5 6 3 1281.34 1141.08 174.01 o
582 4 -6 -5 3 1281.33 1500.51 145.49 o
582 2 -7 -4 1 1281.33 1500.51 145.49 o
582 1 6 5 -3 1281.33 1500.51 145.49 o
583 4 -7 -6 -3 1194.63 1155.34 168.31 o
583 2 -5 -8 1 1194.63 1155.34 168.31 o
583 1 7 6 3 1194.63 1155.34 168.31 o
584 4 -6 -7 3 1194.60 949.95 171.16 o
584 2 -8 -5 -1 1194.60 949.95 171.16 o
584 1 6 7 -3 1194.60 949.95 171.16 o
585 4 6 -7 -3 174.68 179.72 156.90 <
585 2 1 -2 -13 174.68 179.72 156.90 <
585 1 -6 7 3 174.68 179.72 156.90 <
586 4 -7 6 3 174.67 168.31 142.63 <
586 2 -2 1 13 174.67 168.31 142.63 <
586 1 7 -6 -3 174.67 168.31 142.63 <
587 4 4 -7 -3 493.78 713.17 156.90 o
587 1 -4 7 3 493.78 713.17 156.90 o
588 4 -7 4 3 493.78 265.30 136.93 <
588 1 7 -4 -3 493.78 265.30 136.93 <
589 4 2 -7 -3 2294.26 1577.54 179.72 o
589 2 -1 -4 -9 2294.26 1577.54 179.72 o
589 1 -2 7 3 2294.26 1577.54 179.72 o
590 4 -7 2 3 2294.26 2721.47 176.87 o
590 2 -4 -1 9 2294.26 2721.47 176.87 o
590 1 7 -2 -3 2294.26 2721.47 176.87 o
591 4 -2 -7 -3 3612.04 2918.30 134.08 o
591 2 -3 -6 -5 3612.04 2918.30 134.08 o
591 1 2 7 3 3612.04 2918.30 134.08 o
592 4 -7 -2 3 3612.10 3560.16 271.01 o
592 2 -6 -3 5 3612.10 3560.16 271.01 o
592 1 7 2 -3 3612.10 3560.16 271.01 o
593 4 -4 -7 -3 1155.60 921.42 136.93 o
593 2 -4 -7 -3 1155.60 921.42 136.93 o
593 1 4 7 3 1155.60 921.42 136.93 o
594 4 -7 -4 3 1155.60 1035.53 216.80 o
594 2 -7 -4 3 1155.60 1035.53 216.80 o
594 1 7 4 -3 1155.60 1035.53 216.80 o
595 4 -6 -7 -3 1194.60 1272.30 156.90 o
595 2 -5 -8 -1 1194.60 1272.30 156.90 o
595 1 6 7 3 1194.60 1272.30 156.90 o
596 4 -7 -6 3 1194.63 1255.18 162.60 o
596 2 -8 -5 1 1194.63 1255.18 162.60 o
596 1 7 6 -3 1194.63 1255.18 162.60 o
597 4 5 -8 -3 658.80 653.27 159.75 o
597 1 -5 8 3 658.80 653.27 159.75 o
598 4 -8 5 3 658.80 296.68 171.16 <
598 1 8 -5 -3 658.80 296.68 171.16 <
599 4 3 -8 -3 2527.58 2550.30 171.16 o
599 2 -1 -4 -11 2527.58 2550.30 171.16 o
599 1 -3 8 3 2527.58 2550.30 171.16 o
600 4 -8 3 3 2527.58 955.65 168.31 o
600 2 -4 -1 11 2527.58 955.65 168.31 o
600 1 8 -3 -3 2527.58 955.65 168.31 o
601 4 1 -8 -3 2901.53 3788.37 165.46 o
601 2 -2 -5 -9 2901.53 3788.37 165.46 o
601 1 -1 8 3 2901.53 3788.37 165.46 o
602 4 -8 1 3 2901.51 1985.47 213.95 o
602 2 -5 -2 9 2901.51 1985.47 213.95 o
602 1 8 -1 -3 2901.51 1985.47 213.95 o
603 4 -1 -8 -3 4550.83 3420.37 154.04 o
603 2 -3 -6 -7 4550.83 3420.37 154.04 o
603 1 1 8 3 4550.83 3420.37 154.04 o
604 4 -8 -1 3 4550.84 3234.95 256.74 o
604 2 -6 -3 7 4550.84 3234.95 256.74 o
604 1 8 1 -3 4550.84 3234.95 256.74 o
605 4 -3 -8 -3 2322.21 1591.80 128.37 o
605 2 -4 -7 -5 2322.21 1591.80 128.37 o
605 1 3 8 3 2322.21 1591.80 128.37 o
606 4 -8 -3 3 2379.11 1911.30 245.33 o
606 3 4 1 11 2379.11 1911.30 245.33 o
606 2 -7 -4 5 2379.11 1911.30 245.33 o
606 1 8 3 -3 2379.11 1911.30 245.33 o
607 4 -5 -8 -3 1541.78 1198.13 122.67 o
607 2 -5 -8 -3 1541.78 1198.13 122.67 o
607 1 5 8 3 1541.78 1198.13 122.67 o
608 4 -8 -5 3 1541.79 1315.09 222.51 o
608 2 -8 -5 3 1541.79 1315.09 222.51 o
608 1 8 5 -3 1541.79 1315.09 222.51 o
609 4 4 -9 -3 1013.93 1064.05 182.57 o
609 2 -1 -4 -13 1013.93 1064.05 182.57 o
609 1 -4 9 3 1013.93 1064.05 182.57 o
610 4 -9 4 3 1013.92 82.73 165.46 <
610 2 -4 -1 13 1013.92 82.73 165.46 <
610 1 9 -4 -3 1013.92 82.73 165.46 <
611 4 2 -9 -3 425.27 539.16 162.60 o
611 2 -2 -5 -11 425.27 539.16 162.60 o
611 1 -2 9 3 425.27 539.16 162.60 o
612 4 -9 2 3 425.26 139.78 156.90 <
612 2 -5 -2 11 425.26 139.78 156.90 <
612 1 9 -2 -3 425.26 139.78 156.90 <
613 4 -2 -9 -3 643.62 379.41 134.08 o
613 2 -4 -7 -7 643.62 379.41 134.08 o
613 1 2 9 3 643.62 379.41 134.08 o
614 4 -9 -2 3 643.61 376.55 231.07 <
614 2 -7 -4 7 643.61 376.55 231.07 <
614 1 9 2 -3 643.61 376.55 231.07 <
615 4 -4 -9 -3 1416.67 661.82 145.49 o
615 2 -5 -8 -5 1416.67 661.82 145.49 o
615 1 4 9 3 1416.67 661.82 145.49 o
616 4 -9 -4 3 1416.67 1058.35 265.30 o
616 2 -8 -5 5 1416.67 1058.35 265.30 o
616 1 9 4 -3 1416.67 1058.35 265.30 o
617 4 3 -10 -3 554.22 365.14 185.43 <
617 2 -2 -5 -13 554.22 365.14 185.43 <
617 1 -3 10 3 554.22 365.14 185.43 <
618 4 -10 3 3 554.22 -22.82 171.16 <
618 2 -5 -2 13 554.22 -22.82 171.16 <
618 1 10 -3 -3 554.22 -22.82 171.16 <
619 4 1 -10 -3 720.31 456.43 134.08 o
619 2 -3 -6 -11 720.31 456.43 134.08 o
619 1 -1 10 3 720.31 456.43 134.08 o
620 4 -10 1 3 720.30 108.40 262.45 <
620 2 -6 -3 11 720.30 108.40 262.45 <
620 1 10 -1 -3 720.30 108.40 262.45 <
621 4 -1 -10 -3 583.03 530.60 136.93 o
621 2 -4 -7 -9 583.03 530.60 136.93 o
621 1 1 10 3 583.03 530.60 136.93 o
622 4 -10 -1 3 583.04 453.58 268.15 <
622 2 -7 -4 9 583.04 453.58 268.15 <
622 1 10 1 -3 583.04 453.58 268.15 <
623 4 -3 -10 -3 854.21 296.68 131.22 o
623 2 -5 -8 -7 854.21 296.68 131.22 o
623 1 3 10 3 854.21 296.68 131.22 o
624 4 -10 -3 3 854.21 564.83 276.71 o
624 3 5 2 13 854.21 564.83 276.71 o
624 2 -8 -5 7 854.21 564.83 276.71 o
624 1 10 3 -3 854.21 564.83 276.71 o
625 4 -4 8 -4 19817.00 24384.80 453.58 o
625 2 4 0 12 19817.00 24384.80 453.58 o
625 1 4 -8 4 19817.00 24384.80 453.58 o
626 4 4 -8 4 19522.00 20045.80 422.20 o
626 2 -4 0 -12 19522.00 20045.80 422.20 o
626 1 -4 8 -4 19522.00 20045.80 422.20 o
627 4 -7 7 -4 2735.48 2387.70 245.33 o
627 2 2 -2 14 2735.48 2387.70 245.33 o
627 1 7 -7 4 2735.48 2387.70 245.33 o
628 4 7 -7 4 1989.20 1731.58 228.21 o
628 2 -2 2 -14 1989.20 1731.58 228.21 o
628 1 -7 7 -4 1989.20 1731.58 228.21 o
629 4 -4 6 -4 10966.20 8030.32 313.80 o
629 2 3 -1 10 10966.20 8030.32 313.80 o
629 1 4 -6 4 10966.20 8030.32 313.80 o
630 4 4 -6 4 9997.18 12691.60 339.47 o
630 2 -3 1 -10 9997.18 12691.60 339.47 o
630 1 -4 6 -4 9997.18 12691.60 339.47 o
631 4 -6 6 -4 30135.10 40776.30 496.37 o
631 2 2 -2 12 30135.10 40776.30 496.37 o
631 1 6 -6 4 30135.10 40776.30 496.37 o
632 4 6 -6 4 29654.20 35841.20 425.05 o
632 2 -2 2 -12 29654.20 35841.20 425.05 o
632 1 -6 6 -4 29654.20 35841.20 425.05 o
633 4 -8 6 -4 2968.10 1668.82 179.72 o
633 2 1 -3 14 2968.10 1668.82 179.72 o
633 1 8 -6 4 2968.10 1668.82 179.72 o
634 4 6 -8 4 2615.27 2661.56 182.57 o
634 2 -3 1 -14 2615.27 2661.56 182.57 o
634 1 -6 8 -4 2615.27 2661.56 182.57 o
635 4 -5 5 -4 11081.90 12714.40 333.77 o
635 2 2 -2 10 11081.90 12714.40 333.77 o
635 1 5 -5 4 11081.90 12714.40 333.77 o
636 4 5 -5 4 8856.48 8840.48 282.42 o
636 2 -2 2 -10 8856.48 8840.48 282.42 o
636 1 -5 5 -4 8856.48 8840.48 282.42 o
637 4 -7 5 -4 29818.80 32058.50 316.65 o
637 2 1 -3 12 29818.80 32058.50 316.65 o
637 1 7 -5 4 29818.80 32058.50 316.65 o
638 4 5 -7 4 30093.30 33242.40 305.24 o
638 2 -3 1 -12 30093.30 33242.40 305.24 o
638 1 -5 7 -4 30093.30 33242.40 305.24 o
639 4 -4 4 -4 102706.00 112744.00 875.78 o
639 3 2 6 0 102706.00 112744.00 875.78 o
639 2 2 -2 8 102706.00 112744.00 875.78 o
639 1 4 -4 4 102706.00 112744.00 875.78 o
640 4 4 -4 4 100204.00 92424.30 710.32 o
640 3 -2 -6 0 100204.00 92424.30 710.32 o
640 2 -2 2 -8 100204.00 92424.30 710.32 o
640 1 -4 4 -4 100204.00 92424.30 710.32 o
641 4 -6 4 -4 11036.70 7277.21 305.24 o
641 3 3 7 2 11036.70 7277.21 305.24 o
641 2 1 -3 10 11036.70 7277.21 305.24 o
641 1 6 -4 4 11036.70 7277.21 305.24 o
642 4 4 -6 4 9997.18 13989.60 296.68 o
642 2 -3 1 -10 9997.18 13989.60 296.68 o
642 1 -4 6 -4 9997.18 13989.60 296.68 o
643 4 -8 4 -4 20708.20 28372.80 365.14 o
643 3 4 8 4 20708.20 28372.80 365.14 o
643 2 0 -4 12 20708.20 28372.80 365.14 o
643 1 8 -4 4 20708.20 28372.80 365.14 o
644 4 4 -8 4 19522.00 22887.10 319.50 o
644 2 -4 0 -12 19522.00 22887.10 319.50 o
644 1 -4 8 -4 19522.00 22887.10 319.50 o
645 4 -3 3 -4 47277.80 48304.60 650.41 o
645 2 2 -2 6 47277.80 48304.60 650.41 o
645 1 3 -3 4 47277.80 48304.60 650.41 o
646 4 3 -3 4 43583.90 47192.00 576.24 o
646 2 -2 2 -6 43583.90 47192.00 576.24 o
646 1 -3 3 -4 43583.90 47192.00 576.24 o
647 4 -5 3 -4 78824.90 75656.20 507.78 o
647 2 1 -3 8 78824.90 75656.20 507.78 o
647 1 5 -3 4 78824.90 75656.20 507.78 o
648 4 3 -5 4 79369.30 82767.90 496.37 o
648 2 -3 1 -8 79369.30 82767.90 496.37 o
648 1 -3 5 -4 79369.30 82767.90 496.37 o
649 4 -7 3 -4 10184.80 9801.84 233.92 o
649 2 0 -4 10 10184.80 9801.84 233.92 o
649 1 7 -3 4 10184.80 9801.84 233.92 o
650 4 3 -7 4 8845.82 10321.00 236.77 o
650 2 -4 0 -10 8845.82 10321.00 236.77 o
650 1 -3 7 -4 8845.82 10321.00 236.77 o
651 4 -9 3 -4 14019.10 16457.20 313.80 o
651 2 -1 -5 12 14019.10 16457.20 313.80 o
651 1 9 -3 4 14019.10 16457.20 313.80 o
652 4 3 -9 4 14402.50 14246.30 322.35 o
652 2 -5 -1 -12 14402.50 14246.30 322.35 o
652 1 -3 9 -4 14402.50 14246.30 322.35 o
653 4 -4 2 -4 24251.90 22621.80 359.44 o
653 2 1 -3 6 24251.90 22621.80 359.44 o
653 1 4 -2 4 24251.90 22621.80 359.44 o
654 4 2 -4 4 22485.00 29665.10 576.24 o
654 3 -1 -5 2 22485.00 29665.10 576.24 o
654 2 -3 1 -6 22485.00 29665.10 576.24 o
654 1 -2 4 -4 22485.00 29665.10 576.24 o
655 4 4 -2 4 22173.70 31967.20 439.31 o
655 2 -1 3 -6 22173.70 31967.20 439.31 o
655 1 -4 2 -4 22173.70 31967.20 439.31 o
656 4 -6 2 -4 61546.60 73351.20 584.80 o
656 2 0 -4 8 61546.60 73351.20 584.80 o
656 1 6 -2 4 61546.60 73351.20 584.80 o
657 4 2 -6 4 60036.30 67657.20 516.34 o
657 2 -4 0 -8 60036.30 67657.20 516.34 o
657 1 -2 6 -4 60036.30 67657.20 516.34 o
658 4 -8 2 -4 11697.10 6555.48 242.48 o
658 2 -1 -5 10 11697.10 6555.48 242.48 o
658 1 8 -2 4 11697.10 6555.48 242.48 o
659 4 2 -8 4 11827.10 16351.60 330.91 o
659 2 -5 -1 -10 11827.10 16351.60 330.91 o
659 1 -2 8 -4 11827.10 16351.60 330.91 o
660 4 -10 2 -4 7849.87 11570.50 322.35 o
660 2 -2 -6 12 7849.87 11570.50 322.35 o
660 1 10 -2 4 7849.87 11570.50 322.35 o
661 4 2 -10 4 7755.86 8170.10 279.56 o
661 2 -6 -2 -12 7755.86 8170.10 279.56 o
661 1 -2 10 -4 7755.86 8170.10 279.56 o
662 4 -1 1 -4 125572.00 82562.50 830.13 o
662 2 2 -2 2 125572.00 82562.50 830.13 o
662 1 1 -1 4 125572.00 82562.50 830.13 o
663 4 -3 1 -4 140684.00 129204.00 861.51 o
663 2 1 -3 4 140684.00 129204.00 861.51 o
663 1 3 -1 4 140684.00 129204.00 861.51 o
664 4 1 -3 4 140432.00 147547.00 901.45 o
664 2 -3 1 -4 140432.00 147547.00 901.45 o
664 1 -1 3 -4 140432.00 147547.00 901.45 o
665 4 -5 1 -4 37880.00 39156.00 430.76 o
665 2 0 -4 6 37880.00 39156.00 430.76 o
665 1 5 -1 4 37880.00 39156.00 430.76 o
666 4 1 -5 4 35716.50 51610.80 476.40 o
666 2 -4 0 -6 35716.50 51610.80 476.40 o
666 1 -1 5 -4 35716.50 51610.80 476.40 o
667 4 -7 1 -4 31979.90 35028.20 390.82 o
667 2 -1 -5 8 31979.90 35028.20 390.82 o
667 1 7 -1 4 31979.90 35028.20 390.82 o
668 4 1 -7 4 32961.30 44028.40 422.20 o
668 2 -5 -1 -8 32961.30 44028.40 422.20 o
668 1 -1 7 -4 32961.30 44028.40 422.20 o
669 4 -9 1 -4 8427.52 8061.70 276.71 o
669 2 -2 -6 10 8427.52 8061.70 276.71 o
669 1 9 -1 4 8427.52 8061.70 276.71 o
670 4 1 -9 4 8117.93 12514.70 290.97 o
670 2 -6 -2 -10 8117.93 12514.70 290.97 o
670 1 -1 9 -4 8117.93 12514.70 290.97 o
671 4 0 0 4 484105.00 241218.00 1423.49 o
671 2 -2 2 0 484105.00 241218.00 1423.49 o
671 1 0 0 -4 484105.00 241218.00 1423.49 o
672 4 -2 0 -4 34768.50 36092.20 413.64 o
672 2 1 -3 2 34768.50 36092.20 413.64 o
672 1 2 0 4 34768.50 36092.20 413.64 o
673 4 0 -2 4 33274.30 35824.10 476.40 o
673 2 -3 1 -2 33274.30 35824.10 476.40 o
673 1 0 2 -4 33274.30 35824.10 476.40 o
674 4 -4 0 -4 167694.00 150143.00 818.72 o
674 2 0 -4 4 167694.00 150143.00 818.72 o
674 1 4 0 4 167694.00 150143.00 818.72 o
675 4 4 0 4 166339.00 184689.00 892.89 o
675 2 0 4 -4 166339.00 184689.00 892.89 o
675 1 -4 0 -4 166339.00 184689.00 892.89 o
676 4 -6 0 -4 19178.80 13490.40 279.56 o
676 2 -1 -5 6 19178.80 13490.40 279.56 o
676 1 6 0 4 19178.80 13490.40 279.56 o
677 4 0 -6 4 19404.20 34483.30 387.97 o
677 2 -5 -1 -6 19404.20 34483.30 387.97 o
677 1 0 6 -4 19404.20 34483.30 387.97 o
678 4 -8 0 -4 20934.40 29551.00 359.44 o
678 2 -2 -6 8 20934.40 29551.00 359.44 o
678 1 8 0 4 20934.40 29551.00 359.44 o
679 4 0 -8 4 20522.80 24581.60 365.14 o
679 2 -6 -2 -8 20522.80 24581.60 365.14 o
679 1 0 8 -4 20522.80 24581.60 365.14 o
680 4 -10 0 -4 8134.38 4898.07 279.56 o
680 2 -3 -7 10 8134.38 4898.07 279.56 o
680 1 10 0 4 8134.38 4898.07 279.56 o
681 4 0 -10 4 8564.83 14297.70 316.65 o
681 2 -7 -3 -10 8564.83 14297.70 316.65 o
681 1 0 10 -4 8564.83 14297.70 316.65 o
682 4 1 -1 -4 122553.00 109004.00 904.30 o
682 2 2 -2 -2 122553.00 109004.00 904.30 o
682 1 -1 1 4 122553.00 109004.00 904.30 o
683 4 -1 1 4 125269.00 96694.80 801.61 o
683 2 -2 2 2 125269.00 96694.80 801.61 o
683 1 1 -1 -4 125269.00 96694.80 801.61 o
684 4 -1 -1 -4 161132.00 115451.00 484.96 o
684 2 1 -3 0 161132.00 115451.00 484.96 o
684 1 1 1 4 161132.00 115451.00 484.96 o
685 4 -1 -1 4 160829.00 82394.20 881.48 o
685 2 -3 1 0 160829.00 82394.20 881.48 o
685 1 1 1 -4 160829.00 82394.20 881.48 o
686 4 -3 -1 -4 95044.40 81401.50 610.48 o
686 2 0 -4 2 95044.40 81401.50 610.48 o
686 1 3 1 4 95044.40 81401.50 610.48 o
687 4 -1 -3 4 93474.20 102203.00 687.50 o
687 2 -4 0 -2 93474.20 102203.00 687.50 o
687 1 1 3 -4 93474.20 102203.00 687.50 o
688 4 -5 -1 -4 43568.20 52592.20 502.07 o
688 2 -1 -5 4 43568.20 52592.20 502.07 o
688 1 5 1 4 43568.20 52592.20 502.07 o
689 4 -1 -5 4 44206.20 65788.70 519.19 o
689 2 -5 -1 -4 44206.20 65788.70 519.19 o
689 1 1 5 -4 44206.20 65788.70 519.19 o
690 4 -7 -1 -4 23864.70 24284.90 342.32 o
690 2 -2 -6 6 23864.70 24284.90 342.32 o
690 1 7 1 4 23864.70 24284.90 342.32 o
691 4 -1 -7 4 23479.90 41928.80 445.02 o
691 2 -6 -2 -6 23479.90 41928.80 445.02 o
691 1 1 7 -4 23479.90 41928.80 445.02 o
692 4 -9 -1 -4 9923.91 10948.60 310.94 o
692 2 -3 -7 8 9923.91 10948.60 310.94 o
692 1 9 1 4 9923.91 10948.60 310.94 o
693 4 -1 -9 4 10675.40 14982.30 339.47 o
693 2 -7 -3 -8 10675.40 14982.30 339.47 o
693 1 1 9 -4 10675.40 14982.30 339.47 o
694 4 2 -2 -4 283262.00 186289.00 1183.87 o
694 2 2 -2 -4 283262.00 186289.00 1183.87 o
694 1 -2 2 4 283262.00 186289.00 1183.87 o
695 4 -2 2 4 287467.00 208292.00 1066.91 o
695 2 -2 2 4 287467.00 208292.00 1066.91 o
695 1 2 -2 -4 287467.00 208292.00 1066.91 o
696 4 0 -2 -4 34398.10 43215.40 427.90 o
696 2 1 -3 -2 34398.10 43215.40 427.90 o
696 1 0 2 4 34398.10 43215.40 427.90 o
697 4 -2 0 4 33644.70 36537.20 362.29 o
697 2 -3 1 2 33644.70 36537.20 362.29 o
697 1 2 0 -4 33644.70 36537.20 362.29 o
698 4 -2 -2 -4 266316.00 181437.00 921.42 o
698 2 0 -4 0 266316.00 181437.00 921.42 o
698 1 2 2 4 266316.00 181437.00 921.42 o
699 4 -4 -2 -4 18095.90 15977.90 279.56 o
699 2 -1 -5 2 18095.90 15977.90 279.56 o
699 1 4 2 4 18095.90 15977.90 279.56 o
700 4 -2 -4 4 18893.50 26136.30 636.15 o
700 3 1 -3 6 18893.50 26136.30 636.15 o
700 2 -5 -1 -2 18893.50 26136.30 636.15 o
700 1 2 4 -4 18893.50 26136.30 636.15 o
701 4 4 2 4 18025.60 25859.60 370.85 o
701 2 1 5 -2 18025.60 25859.60 370.85 o
701 1 -4 -2 -4 18025.60 25859.60 370.85 o
702 4 -6 -2 -4 50838.60 62610.80 502.07 o
702 2 -2 -6 4 50838.60 62610.80 502.07 o
702 1 6 2 4 50838.60 62610.80 502.07 o
703 4 -2 -6 4 50608.00 73556.60 519.19 o
703 2 -6 -2 -4 50608.00 73556.60 519.19 o
703 1 2 6 -4 50608.00 73556.60 519.19 o
704 4 -8 -2 -4 10768.50 8013.20 256.74 o
704 2 -3 -7 6 10768.50 8013.20 256.74 o
704 1 8 2 4 10768.50 8013.20 256.74 o
705 4 -2 -8 4 11531.60 20068.70 310.94 o
705 2 -7 -3 -6 11531.60 20068.70 310.94 o
705 1 2 8 -4 11531.60 20068.70 310.94 o
706 4 -10 -2 -4 7517.94 10500.70 322.35 o
706 2 -4 -8 8 7517.94 10500.70 322.35 o
706 1 10 2 4 7517.94 10500.70 322.35 o
707 4 -2 -10 4 7327.24 8284.21 316.65 o
707 2 -8 -4 -8 7327.24 8284.21 316.65 o
707 1 2 10 -4 7327.24 8284.21 316.65 o
708 4 3 -3 -4 44082.90 48783.80 516.34 o
708 2 2 -2 -6 44082.90 48783.80 516.34 o
708 1 -3 3 4 44082.90 48783.80 516.34 o
709 4 -3 3 4 46778.80 52906.00 522.04 o
709 2 -2 2 6 46778.80 52906.00 522.04 o
709 1 3 -3 -4 46778.80 52906.00 522.04 o
710 4 1 -3 -4 140347.00 121776.00 661.82 o
710 2 1 -3 -4 140347.00 121776.00 661.82 o
710 1 -1 3 4 140347.00 121776.00 661.82 o
711 4 -3 1 4 140769.00 118504.00 616.18 o
711 2 -3 1 4 140769.00 118504.00 616.18 o
711 1 3 -1 -4 140769.00 118504.00 616.18 o
712 4 -1 -3 -4 93389.80 96127.10 419.35 o
712 2 0 -4 -2 93389.80 96127.10 419.35 o
712 1 1 3 4 93389.80 96127.10 419.35 o
713 4 -3 -1 4 95128.80 120272.00 961.36 o
713 2 -4 0 2 95128.80 120272.00 961.36 o
713 1 3 1 -4 95128.80 120272.00 961.36 o
714 4 -3 -3 -4 43083.60 50384.20 416.49 o
714 2 -1 -5 0 43083.60 50384.20 416.49 o
714 1 3 3 4 43083.60 50384.20 416.49 o
715 4 -3 -3 4 42584.60 52552.20 313.80 o
715 2 -5 -1 0 42584.60 52552.20 313.80 o
715 1 3 3 -4 42584.60 52552.20 313.80 o
716 4 -5 -3 -4 53255.70 48646.90 376.55 o
716 2 -2 -6 2 53255.70 48646.90 376.55 o
716 1 5 3 4 53255.70 48646.90 376.55 o
717 4 -3 -5 4 53227.40 68316.20 453.58 o
717 2 -6 -2 -2 53227.40 68316.20 453.58 o
717 1 3 5 -4 53227.40 68316.20 453.58 o
718 4 -7 -3 -4 9524.16 12919.80 276.71 o
718 2 -3 -7 4 9524.16 12919.80 276.71 o
718 1 7 3 4 9524.16 12919.80 276.71 o
719 4 -3 -7 4 10170.10 11650.40 208.25 o
719 2 -7 -3 -4 10170.10 11650.40 208.25 o
719 1 3 7 -4 10170.10 11650.40 208.25 o
720 4 -9 -3 -4 11305.00 11678.90 310.94 o
720 2 -4 -8 6 11305.00 11678.90 310.94 o
720 1 9 3 4 11305.00 11678.90 310.94 o
721 4 -3 -9 4 11177.30 13738.60 299.53 o
721 2 -8 -4 -6 11177.30 13738.60 299.53 o
721 1 3 9 -4 11177.30 13738.60 299.53 o
722 4 4 -4 -4 96451.30 88906.90 650.41 o
722 2 2 -2 -8 96451.30 88906.90 650.41 o
722 1 -4 4 4 96451.30 88906.90 650.41 o
723 4 -4 4 4 99495.80 88615.90 690.35 o
723 2 -2 2 8 99495.80 88615.90 690.35 o
723 1 4 -4 -4 99495.80 88615.90 690.35 o
724 4 2 -4 -4 22656.50 21418.00 330.91 o
724 2 1 -3 -6 22656.50 21418.00 330.91 o
724 1 -2 4 4 22656.50 21418.00 330.91 o
725 4 -4 2 4 23769.10 26980.70 305.24 o
725 2 -3 1 6 23769.10 26980.70 305.24 o
725 1 4 -2 -4 23769.10 26980.70 305.24 o
726 4 0 -4 -4 165886.00 152168.00 773.08 o
726 2 0 -4 -4 165886.00 152168.00 773.08 o
726 1 0 4 4 165886.00 152168.00 773.08 o
727 4 -4 0 4 168147.00 158652.00 693.20 o
727 2 -4 0 4 168147.00 158652.00 693.20 o
727 1 4 0 -4 168147.00 158652.00 693.20 o
728 4 -2 -4 -4 18508.40 17233.10 213.95 o
728 2 -1 -5 -2 18508.40 17233.10 213.95 o
728 1 2 4 4 18508.40 17233.10 213.95 o
729 4 -4 -2 4 17613.10 23400.60 419.35 o
729 2 -5 -1 2 17613.10 23400.60 419.35 o
729 1 4 2 -4 17613.10 23400.60 419.35 o
730 4 -4 -4 -4 76764.40 72766.40 459.28 o
730 2 -2 -6 0 76764.40 72766.40 459.28 o
730 1 4 4 4 76764.40 72766.40 459.28 o
731 4 4 4 4 77035.30 85478.00 542.01 o
731 2 2 6 0 77035.30 85478.00 542.01 o
731 1 -4 -4 -4 77035.30 85478.00 542.01 o
732 4 -4 -4 4 82547.70 83381.20 741.70 o
732 3 2 -2 8 82547.70 83381.20 741.70 o
732 2 -6 -2 0 82547.70 83381.20 741.70 o
732 1 4 4 -4 82547.70 83381.20 741.70 o
733 4 -6 -4 -4 7807.85 6603.98 191.13 o
733 2 -3 -7 2 7807.85 6603.98 191.13 o
733 1 6 4 4 7807.85 6603.98 191.13 o
734 4 -4 -6 4 8138.78 10617.70 208.25 o
734 2 -7 -3 -2 8138.78 10617.70 208.25 o
734 1 4 6 -4 8138.78 10617.70 208.25 o
735 4 -8 -4 -4 17140.90 22581.90 359.44 o
735 2 -4 -8 4 17140.90 22581.90 359.44 o
735 1 8 4 4 17140.90 22581.90 359.44 o
736 4 -4 -8 4 17036.90 19783.40 233.92 o
736 2 -8 -4 -4 17036.90 19783.40 233.92 o
736 1 4 8 -4 17036.90 19783.40 233.92 o
737 4 5 -5 -4 9243.89 8951.74 268.15 o
737 2 2 -2 -10 9243.89 8951.74 268.15 o
737 1 -5 5 4 9243.89 8951.74 268.15 o
738 4 -5 5 4 10694.40 8757.75 316.65 o
738 2 -2 2 10 10694.40 8757.75 316.65 o
738 1 5 -5 -4 10694.40 8757.75 316.65 o
739 4 3 -5 -4 79019.80 56765.70 507.78 o
739 2 1 -3 -8 79019.80 56765.70 507.78 o
739 1 -3 5 4 79019.80 56765.70 507.78 o
740 4 -5 3 4 79174.40 68339.00 462.14 o
740 2 -3 1 8 79174.40 68339.00 462.14 o
740 1 5 -3 -4 79174.40 68339.00 462.14 o
741 4 1 -5 -4 35929.60 51063.10 365.14 o
741 2 0 -4 -6 35929.60 51063.10 365.14 o
741 1 -1 5 4 35929.60 51063.10 365.14 o
742 4 -5 1 4 37666.80 46581.60 385.11 o
742 2 -4 0 6 37666.80 46581.60 385.11 o
742 1 5 -1 -4 37666.80 46581.60 385.11 o
743 4 -1 -5 -4 44419.30 48221.90 319.50 o
743 2 -1 -5 -4 44419.30 48221.90 319.50 o
743 1 1 5 4 44419.30 48221.90 319.50 o
744 4 -5 -1 4 43355.10 51345.60 559.13 o
744 2 -5 -1 4 43355.10 51345.60 559.13 o
744 1 5 1 -4 43355.10 51345.60 559.13 o
745 4 -3 -5 -4 52877.90 51548.10 310.94 o
745 2 -2 -6 -2 52877.90 51548.10 310.94 o
745 1 3 5 4 52877.90 51548.10 310.94 o
746 4 -5 -3 4 53605.20 58651.30 596.21 o
746 2 -6 -2 2 53605.20 58651.30 596.21 o
746 1 5 3 -4 53605.20 58651.30 596.21 o
747 4 -5 -5 -4 7797.84 9818.96 199.69 o
747 2 -3 -7 0 7797.84 9818.96 199.69 o
747 1 5 5 4 7797.84 9818.96 199.69 o
748 4 -5 -5 4 7410.41 9419.58 202.54 o
748 2 -7 -3 0 7410.41 9419.58 202.54 o
748 1 5 5 -4 7410.41 9419.58 202.54 o
749 4 -7 -5 -4 23302.30 22576.20 271.01 o
749 2 -4 -8 2 23302.30 22576.20 271.01 o
749 1 7 5 4 23302.30 22576.20 271.01 o
750 4 -5 -7 4 23386.20 28934.80 288.12 o
750 2 -8 -4 -2 23386.20 28934.80 288.12 o
750 1 5 7 -4 23386.20 28934.80 288.12 o
751 4 6 -6 -4 29514.90 34874.10 382.26 o
751 2 2 -2 -12 29514.90 34874.10 382.26 o
751 1 -6 6 4 29514.90 34874.10 382.26 o
752 4 -6 6 4 30274.40 30774.80 390.82 o
752 2 -2 2 12 30274.40 30774.80 390.82 o
752 1 6 -6 -4 30274.40 30774.80 390.82 o
753 4 4 -6 -4 10165.00 13108.10 196.84 o
753 2 1 -3 -10 10165.00 13108.10 196.84 o
753 1 -4 6 4 10165.00 13108.10 196.84 o
754 4 -6 4 4 10798.40 5146.25 199.69 o
754 2 -3 1 10 10798.40 5146.25 199.69 o
754 1 6 -4 -4 10798.40 5146.25 199.69 o
755 4 2 -6 -4 59959.30 46384.70 470.69 o
755 2 0 -4 -8 59959.30 46384.70 470.69 o
755 1 -2 6 4 59959.30 46384.70 470.69 o
756 4 -6 2 4 61623.70 59649.70 462.14 o
756 2 -4 0 8 61623.70 59649.70 462.14 o
756 1 6 -2 -4 61623.70 59649.70 462.14 o
757 4 0 -6 -4 19502.20 23523.30 288.12 o
757 2 -1 -5 -6 19502.20 23523.30 288.12 o
757 1 0 6 4 19502.20 23523.30 288.12 o
758 4 -6 0 4 19080.80 19172.90 387.97 o
758 2 -5 -1 6 19080.80 19172.90 387.97 o
758 1 6 0 -4 19080.80 19172.90 387.97 o
759 4 -2 -6 -4 50530.90 50561.10 322.35 o
759 2 -2 -6 -4 50530.90 50561.10 322.35 o
759 1 2 6 4 50530.90 50561.10 322.35 o
760 4 -6 -2 4 50915.70 51559.50 519.19 o
760 2 -6 -2 4 50915.70 51559.50 519.19 o
760 1 6 2 -4 50915.70 51559.50 519.19 o
761 4 -4 -6 -4 8306.58 6564.04 142.63 o
761 2 -3 -7 -2 8306.58 6564.04 142.63 o
761 1 4 6 4 8306.58 6564.04 142.63 o
762 4 -6 -4 4 7996.10 8578.04 265.30 o
762 3 3 -1 10 7996.10 8578.04 265.30 o
762 2 -7 -3 2 7996.10 8578.04 265.30 o
762 1 6 4 -4 7996.10 8578.04 265.30 o
763 4 -6 -6 -4 25342.40 28007.70 285.27 o
763 2 -4 -8 0 25342.40 28007.70 285.27 o
763 1 6 6 4 25342.40 28007.70 285.27 o
764 4 -6 -6 4 25481.70 33079.80 251.04 o
764 2 -8 -4 0 25481.70 33079.80 251.04 o
764 1 6 6 -4 25481.70 33079.80 251.04 o
765 4 -8 -6 -4 2477.48 2484.69 199.69 o
765 2 -5 -9 2 2477.48 2484.69 199.69 o
765 1 8 6 4 2477.48 2484.69 199.69 o
766 4 -6 -8 4 2592.37 2764.26 193.98 o
766 2 -9 -5 -2 2592.37 2764.26 193.98 o
766 1 6 8 -4 2592.37 2764.26 193.98 o
767 4 7 -7 -4 2159.14 1423.49 276.71 o
767 2 2 -2 -14 2159.14 1423.49 276.71 o
767 1 -7 7 4 2159.14 1423.49 276.71 o
768 4 -7 7 4 2565.54 1280.86 248.18 o
768 2 -2 2 14 2565.54 1280.86 248.18 o
768 1 7 -7 -4 2565.54 1280.86 248.18 o
769 4 5 -7 -4 29876.70 28663.80 299.53 o
769 2 1 -3 -12 29876.70 28663.80 299.53 o
769 1 -5 7 4 29876.70 28663.80 299.53 o
770 4 -7 5 4 30035.40 28110.40 259.60 o
770 2 -3 1 12 30035.40 28110.40 259.60 o
770 1 7 -5 -4 30035.40 28110.40 259.60 o
771 4 3 -7 -4 9061.62 7707.97 219.66 o
771 2 0 -4 -10 9061.62 7707.97 219.66 o
771 1 -3 7 4 9061.62 7707.97 219.66 o
772 4 -7 3 4 9969.03 7131.72 216.80 o
772 2 -4 0 10 9969.03 7131.72 216.80 o
772 1 7 -3 -4 9969.03 7131.72 216.80 o
773 4 1 -7 -4 32896.70 36979.40 322.35 o
773 2 -1 -5 -8 32896.70 36979.40 322.35 o
773 1 -1 7 4 32896.70 36979.40 322.35 o
774 4 -7 1 4 32044.50 28820.70 348.03 o
774 2 -5 -1 8 32044.50 28820.70 348.03 o
774 1 7 -1 -4 32044.50 28820.70 348.03 o
775 4 -1 -7 -4 23415.30 20664.90 262.45 o
775 2 -2 -6 -6 23415.30 20664.90 262.45 o
775 1 1 7 4 23415.30 20664.90 262.45 o
776 4 -7 -1 4 23929.30 23640.20 390.82 o
776 2 -6 -2 6 23929.30 23640.20 390.82 o
776 1 7 1 -4 23929.30 23640.20 390.82 o
777 4 -3 -7 -4 10385.90 9388.20 191.13 o
777 2 -3 -7 -4 10385.90 9388.20 191.13 o
777 1 3 7 4 10385.90 9388.20 191.13 o
778 4 -7 -3 4 9308.35 10303.90 316.65 o
778 2 -7 -3 4 9308.35 10303.90 316.65 o
778 1 7 3 -4 9308.35 10303.90 316.65 o
779 4 -5 -7 -4 23169.60 20399.60 213.95 o
779 2 -4 -8 -2 23169.60 20399.60 213.95 o
779 1 5 7 4 23169.60 20399.60 213.95 o
780 4 -7 -5 4 23518.90 23326.40 390.82 o
780 2 -8 -4 2 23518.90 23326.40 390.82 o
780 1 7 5 -4 23518.90 23326.40 390.82 o
781 4 -7 -7 -4 2466.13 2815.60 182.57 o
781 2 -5 -9 0 2466.13 2815.60 182.57 o
781 1 7 7 4 2466.13 2815.60 182.57 o
782 4 -7 -7 4 2296.19 2521.78 174.01 o
782 2 -9 -5 0 2296.19 2521.78 174.01 o
782 1 7 7 -4 2296.19 2521.78 174.01 o
783 4 6 -8 -4 2712.15 1825.72 179.72 o
783 2 1 -3 -14 2712.15 1825.72 179.72 o
783 1 -6 8 4 2712.15 1825.72 179.72 o
784 4 -8 6 4 2871.22 1095.43 176.87 o
784 2 -3 1 14 2871.22 1095.43 176.87 o
784 1 8 -6 -4 2871.22 1095.43 176.87 o
785 4 4 -8 -4 19487.20 13878.30 268.15 o
785 2 0 -4 -12 19487.20 13878.30 268.15 o
785 1 -4 8 4 19487.20 13878.30 268.15 o
786 4 -8 4 4 19851.70 20256.90 273.86 o
786 2 -4 0 12 19851.70 20256.90 273.86 o
786 1 8 -4 -4 19851.70 20256.90 273.86 o
787 4 2 -8 -4 11792.20 14374.70 225.36 o
787 2 -1 -5 -10 11792.20 14374.70 225.36 o
787 1 -2 8 4 11792.20 14374.70 225.36 o
788 4 -8 2 4 11732.00 6732.35 219.66 o
788 2 -5 -1 10 11732.00 6732.35 219.66 o
788 1 8 -2 -4 11732.00 6732.35 219.66 o
789 4 0 -8 -4 20621.90 16089.20 228.21 o
789 2 -2 -6 -8 20621.90 16089.20 228.21 o
789 1 0 8 4 20621.90 16089.20 228.21 o
790 4 -8 0 4 20835.30 19338.40 396.52 o
790 2 -6 -2 8 20835.30 19338.40 396.52 o
790 1 8 0 -4 20835.30 19338.40 396.52 o
791 4 -2 -8 -4 11496.70 10147.00 168.31 o
791 2 -3 -7 -6 11496.70 10147.00 168.31 o
791 1 2 8 4 11496.70 10147.00 168.31 o
792 4 -8 -2 4 10803.40 8512.42 268.15 o
792 2 -7 -3 6 10803.40 8512.42 268.15 o
792 1 8 2 -4 10803.40 8512.42 268.15 o
793 4 -4 -8 -4 17002.20 15233.40 213.95 o
793 2 -4 -8 -4 17002.20 15233.40 213.95 o
793 1 4 8 4 17002.20 15233.40 213.95 o
794 4 -8 -4 4 18308.80 15732.60 356.59 o
794 3 4 0 12 18308.80 15732.60 356.59 o
794 2 -8 -4 4 18308.80 15732.60 356.59 o
794 1 8 4 -4 18308.80 15732.60 356.59 o
795 4 -6 -8 -4 2689.25 1771.52 142.63 o
795 2 -5 -9 -2 2689.25 1771.52 142.63 o
795 1 6 8 4 2689.25 1771.52 142.63 o
796 4 -8 -6 4 2380.60 1985.47 265.30 o
796 2 -9 -5 2 2380.60 1985.47 265.30 o
796 1 8 6 -4 2380.60 1985.47 265.30 o
797 4 3 -9 -4 14348.00 10614.90 233.92 o
797 2 -1 -5 -12 14348.00 10614.90 233.92 o
797 1 -3 9 4 14348.00 10614.90 233.92 o
798 4 -9 3 4 14073.60 12340.70 236.77 o
798 2 -5 -1 12 14073.60 12340.70 236.77 o
798 1 9 -3 -4 14073.60 12340.70 236.77 o
799 4 1 -9 -4 8143.95 8552.36 142.63 o
799 2 -2 -6 -10 8143.95 8552.36 142.63 o
799 1 -1 9 4 8143.95 8552.36 142.63 o
800 4 -9 1 4 8401.50 3503.10 313.80 o
800 2 -6 -2 10 8401.50 3503.10 313.80 o
800 1 9 -1 -4 8401.50 3503.10 313.80 o
801 4 -1 -9 -4 10701.50 7317.15 179.72 o
801 2 -3 -7 -8 10701.50 7317.15 179.72 o
801 1 1 9 4 10701.50 7317.15 179.72 o
802 4 -9 -1 4 9897.88 5197.60 333.77 o
802 2 -7 -3 8 9897.88 5197.60 333.77 o
802 1 9 1 -4 9897.88 5197.60 333.77 o
803 4 -3 -9 -4 11122.80 6698.11 182.57 o
803 2 -4 -8 -6 11122.80 6698.11 182.57 o
803 1 3 9 4 11122.80 6698.11 182.57 o
804 4 -9 -3 4 11359.50 8729.23 305.24 o
804 2 -8 -4 6 11359.50 8729.23 305.24 o
804 1 9 3 -4 11359.50 8729.23 305.24 o
805 4 2 -10 -4 7819.54 2627.33 233.92 o
805 2 -2 -6 -12 7819.54 2627.33 233.92 o
805 1 -2 10 4 7819.54 2627.33 233.92 o
806 4 -10 2 4 7786.18 9876.01 313.80 o
806 2 -6 -2 12 7786.18 9876.01 313.80 o
806 1 10 -2 -4 7786.18 9876.01 313.80 o
807 4 0 -10 -4 8484.07 6712.38 179.72 o
807 2 -3 -7 -10 8484.07 6712.38 179.72 o
807 1 0 10 4 8484.07 6712.38 179.72 o
808 4 -10 0 4 8215.14 2045.38 345.17 o
808 2 -7 -3 10 8215.14 2045.38 345.17 o
808 1 10 0 -4 8215.14 2045.38 345.17 o
809 4 -2 -10 -4 7390.92 4153.52 168.31 o
809 2 -4 -8 -8 7390.92 4153.52 168.31 o
809 1 2 10 4 7390.92 4153.52 168.31 o
810 4 -10 -2 4 7454.26 6666.73 333.77 o
810 2 -8 -4 8 7454.26 6666.73 333.77 o
810 1 10 2 -4 7454.26 6666.73 333.77 o
811 4 -5 8 -5 596.02 393.67 259.60 <
811 2 4 -1 13 596.02 393.67 259.60 <
811 1 5 -8 5 596.02 393.67 259.60 <
812 4 5 -8 5 596.02 590.51 253.89 o
812 2 -4 1 -13 596.02 590.51 253.89 o
812 1 -5 8 -5 596.02 590.51 253.89 o
813 4 -5 6 -5 386.16 325.21 239.63 <
813 2 3 -2 11 386.16 325.21 239.63 <
813 1 5 -6 5 386.16 325.21 239.63 <
814 4 5 -6 5 386.17 502.07 216.80 o
814 2 -3 2 -11 386.17 502.07 216.80 o
814 1 -5 6 -5 386.17 502.07 216.80 o
815 4 -7 6 -5 87.97 34.23 162.60 <
815 2 2 -3 13 87.97 34.23 162.60 <
815 1 7 -6 5 87.97 34.23 162.60 <
816 4 6 -7 5 87.97 151.19 151.19 <
816 2 -3 2 -13 87.97 151.19 151.19 <
816 1 -6 7 -5 87.97 151.19 151.19 <
817 4 -6 5 -5 673.74 265.30 233.92 <
817 3 3 8 1 673.74 265.30 233.92 <
817 2 2 -3 11 673.74 265.30 233.92 <
817 1 6 -5 5 673.74 265.30 233.92 <
818 4 5 -6 5 386.17 376.55 208.25 <
818 2 -3 2 -11 386.17 376.55 208.25 <
818 1 -5 6 -5 386.17 376.55 208.25 <
819 4 -8 5 -5 698.42 273.86 248.18 <
819 3 4 9 3 698.42 273.86 248.18 <
819 2 1 -4 13 698.42 273.86 248.18 <
819 1 8 -5 5 698.42 273.86 248.18 <
820 4 5 -8 5 596.02 716.03 213.95 o
820 2 -4 1 -13 596.02 716.03 213.95 o
820 1 -5 8 -5 596.02 716.03 213.95 o
821 4 -5 4 -5 377.19 658.97 168.31 o
821 2 2 -3 9 377.19 658.97 168.31 o
821 1 5 -4 5 377.19 658.97 168.31 o
822 4 4 -5 5 432.03 299.53 225.36 <
822 3 -2 -7 1 432.03 299.53 225.36 <
822 2 -3 2 -9 432.03 299.53 225.36 <
822 1 -4 5 -5 432.03 299.53 225.36 <
823 4 5 -4 5 377.18 407.93 191.13 o
823 2 -2 3 -9 377.18 407.93 191.13 o
823 1 -5 4 -5 377.18 407.93 191.13 o
824 4 -7 4 -5 945.65 1007.00 185.43 o
824 2 1 -4 11 945.65 1007.00 185.43 o
824 1 7 -4 5 945.65 1007.00 185.43 o
825 4 4 -7 5 945.66 861.51 159.75 o
825 2 -4 1 -11 945.66 861.51 159.75 o
825 1 -4 7 -5 945.66 861.51 159.75 o
826 4 -9 4 -5 549.05 165.46 211.10 <
826 1 9 -4 5 549.05 165.46 211.10 <
827 4 4 -9 5 549.05 918.57 205.39 o
827 1 -4 9 -5 549.05 918.57 205.39 o
828 4 -4 3 -5 3436.79 1797.19 211.10 o
828 2 2 -3 7 3436.79 1797.19 211.10 o
828 1 4 -3 5 3436.79 1797.19 211.10 o
829 4 3 -4 5 3436.81 4481.57 193.98 o
829 2 -3 2 -7 3436.81 4481.57 193.98 o
829 1 -3 4 -5 3436.81 4481.57 193.98 o
830 4 -6 3 -5 4363.74 3648.59 202.54 o
830 2 1 -4 9 4363.74 3648.59 202.54 o
830 1 6 -3 5 4363.74 3648.59 202.54 o
831 4 3 -6 5 4363.77 4638.47 188.28 o
831 2 -4 1 -9 4363.77 4638.47 188.28 o
831 1 -3 6 -5 4363.77 4638.47 188.28 o
832 4 -8 3 -5 1220.48 242.48 191.13 <
832 1 8 -3 5 1220.48 242.48 191.13 <
833 4 3 -8 5 1220.47 1936.98 219.66 o
833 1 -3 8 -5 1220.47 1936.98 219.66 o
834 4 -3 2 -5 2755.43 3500.25 193.98 o
834 2 2 -3 5 2755.43 3500.25 193.98 o
834 1 3 -2 5 2755.43 3500.25 193.98 o
835 4 2 -3 5 2755.43 3814.05 179.72 o
835 2 -3 2 -5 2755.43 3814.05 179.72 o
835 1 -2 3 -5 2755.43 3814.05 179.72 o
836 4 -5 2 -5 4889.85 6869.28 265.30 o
836 2 1 -4 7 4889.85 6869.28 265.30 o
836 1 5 -2 5 4889.85 6869.28 265.30 o
837 4 2 -5 5 5909.77 2042.53 325.21 o
837 3 -1 -6 3 5909.77 2042.53 325.21 o
837 2 -4 1 -7 5909.77 2042.53 325.21 o
837 1 -2 5 -5 5909.77 2042.53 325.21 o
838 4 5 -2 5 4889.81 2909.74 196.84 o
838 2 -1 4 -7 4889.81 2909.74 196.84 o
838 1 -5 2 -5 4889.81 2909.74 196.84 o
839 4 -7 2 -5 227.92 79.88 251.04 <
839 1 7 -2 5 227.92 79.88 251.04 <
840 4 2 -7 5 227.91 573.39 188.28 o
840 1 -2 7 -5 227.91 573.39 188.28 o
841 4 -9 2 -5 760.24 758.82 213.95 o
841 2 -1 -6 11 760.24 758.82 213.95 o
841 1 9 -2 5 760.24 758.82 213.95 o
842 4 2 -9 5 760.24 570.54 196.84 o
842 2 -6 -1 -11 760.24 570.54 196.84 o
842 1 -2 9 -5 760.24 570.54 196.84 o
843 4 -2 1 -5 6543.79 5274.62 165.46 o
843 2 2 -3 3 6543.79 5274.62 165.46 o
843 1 2 -1 5 6543.79 5274.62 165.46 o
844 4 1 -2 5 6543.77 7257.24 282.42 o
844 2 -3 2 -3 6543.77 7257.24 282.42 o
844 1 -1 2 -5 6543.77 7257.24 282.42 o
845 4 -4 1 -5 17530.20 19580.90 336.62 o
845 2 1 -4 5 17530.20 19580.90 336.62 o
845 1 4 -1 5 17530.20 19580.90 336.62 o
846 4 1 -4 5 17530.20 21885.80 362.29 o
846 2 -4 1 -5 17530.20 21885.80 362.29 o
846 1 -1 4 -5 17530.20 21885.80 362.29 o
847 4 -6 1 -5 5276.49 2222.24 202.54 o
847 1 6 -1 5 5276.49 2222.24 202.54 o
848 4 1 -6 5 5276.45 9217.04 236.77 o
848 1 -1 6 -5 5276.45 9217.04 236.77 o
849 4 -8 1 -5 3311.67 2498.96 213.95 o
849 2 -1 -6 9 3311.67 2498.96 213.95 o
849 1 8 -1 5 3311.67 2498.96 213.95 o
850 4 1 -8 5 3311.68 3711.35 208.25 o
850 2 -6 -1 -9 3311.68 3711.35 208.25 o
850 1 -1 8 -5 3311.68 3711.35 208.25 o
851 4 -10 1 -5 341.84 231.07 239.63 <
851 2 -2 -7 11 341.84 231.07 239.63 <
851 1 10 -1 5 341.84 231.07 239.63 <
852 4 1 -10 5 341.84 593.36 259.60 o
852 2 -7 -2 -11 341.84 593.36 259.60 o
852 1 -1 10 -5 341.84 593.36 259.60 o
853 4 -2 -1 -5 25464.10 29225.80 382.26 o
853 2 1 -4 1 25464.10 29225.80 382.26 o
853 1 2 1 5 25464.10 29225.80 382.26 o
854 4 -1 -2 5 25464.80 18876.20 282.42 o
854 2 -4 1 -1 25464.80 18876.20 282.42 o
854 1 1 2 -5 25464.80 18876.20 282.42 o
855 4 -4 -1 -5 7490.58 4210.57 208.25 o
855 1 4 1 5 7490.58 4210.57 208.25 o
856 4 -1 -4 5 7490.62 13604.50 282.42 o
856 1 1 4 -5 7490.62 13604.50 282.42 o
857 4 -6 -1 -5 12348.40 12280.80 308.09 o
857 2 -1 -6 5 12348.40 12280.80 308.09 o
857 1 6 1 5 12348.40 12280.80 308.09 o
858 4 -1 -6 5 12348.60 14982.30 285.27 o
858 2 -6 -1 -5 12348.60 14982.30 285.27 o
858 1 1 6 -5 12348.60 14982.30 285.27 o
859 4 -8 -1 -5 2015.20 952.80 222.51 o
859 2 -2 -7 7 2015.20 952.80 222.51 o
859 1 8 1 5 2015.20 952.80 222.51 o
860 4 -1 -8 5 2015.24 3762.70 265.30 o
860 2 -7 -2 -7 2015.24 3762.70 265.30 o
860 1 1 8 -5 2015.24 3762.70 265.30 o
861 4 -10 -1 -5 678.81 416.49 248.18 <
861 2 -3 -8 9 678.81 416.49 248.18 <
861 1 10 1 5 678.81 416.49 248.18 <
862 4 -1 -10 5 678.80 761.67 245.33 o
862 2 -8 -3 -9 678.80 761.67 245.33 o
862 1 1 10 -5 678.80 761.67 245.33 o
863 4 1 -2 -5 6543.78 6287.33 219.66 o
863 2 2 -3 -3 6543.78 6287.33 219.66 o
863 1 -1 2 5 6543.78 6287.33 219.66 o
864 4 -2 1 5 6543.78 6395.73 188.28 o
864 2 -3 2 3 6543.78 6395.73 188.28 o
864 1 2 -1 -5 6543.78 6395.73 188.28 o
865 4 -1 -2 -5 25464.70 28193.10 276.71 o
865 2 1 -4 -1 25464.70 28193.10 276.71 o
865 1 1 2 5 25464.70 28193.10 276.71 o
866 4 -2 -1 5 25464.10 15564.30 379.41 o
866 2 -4 1 1 25464.10 15564.30 379.41 o
866 1 2 1 -5 25464.10 15564.30 379.41 o
867 4 -3 -2 -5 1177.39 984.18 165.46 o
867 1 3 2 5 1177.39 984.18 165.46 o
868 4 -2 -3 5 1177.38 2156.63 156.90 o
868 1 2 3 -5 1177.38 2156.63 156.90 o
869 4 -5 -2 -5 11285.00 12979.70 282.42 o
869 2 -1 -6 3 11285.00 12979.70 282.42 o
869 1 5 2 5 11285.00 12979.70 282.42 o
870 4 -2 -5 5 11726.50 5679.70 464.99 o
870 3 1 -4 7 11726.50 5679.70 464.99 o
870 2 -6 -1 -3 11726.50 5679.70 464.99 o
870 1 2 5 -5 11726.50 5679.70 464.99 o
871 4 5 2 5 11284.80 9045.88 233.92 o
871 2 1 6 -3 11284.80 9045.88 233.92 o
871 1 -5 -2 -5 11284.80 9045.88 233.92 o
872 4 -7 -2 -5 533.37 807.31 191.13 o
872 2 -2 -7 5 533.37 807.31 191.13 o
872 1 7 2 5 533.37 807.31 191.13 o
873 4 -2 -7 5 533.40 795.90 179.72 o
873 2 -7 -2 -5 533.40 795.90 179.72 o
873 1 2 7 -5 533.40 795.90 179.72 o
874 4 -9 -2 -5 1125.35 1046.94 236.77 o
874 2 -3 -8 7 1125.35 1046.94 236.77 o
874 1 9 2 5 1125.35 1046.94 236.77 o
875 4 -2 -9 5 1125.37 1024.12 233.92 o
875 2 -8 -3 -7 1125.37 1024.12 233.92 o
875 1 2 9 -5 1125.37 1024.12 233.92 o
876 4 2 -3 -5 2755.45 2943.97 182.57 o
876 2 2 -3 -5 2755.45 2943.97 182.57 o
876 1 -2 3 5 2755.45 2943.97 182.57 o
877 4 -3 2 5 2755.42 3705.64 162.60 o
877 2 -3 2 5 2755.42 3705.64 162.60 o
877 1 3 -2 -5 2755.42 3705.64 162.60 o
878 4 -2 -3 -5 1177.38 1357.88 131.22 o
878 1 2 3 5 1177.38 1357.88 131.22 o
879 4 -3 -2 5 1177.39 2165.19 251.04 o
879 1 3 2 -5 1177.39 2165.19 251.04 o
880 4 -4 -3 -5 16978.00 19121.60 282.42 o
880 2 -1 -6 1 16978.00 19121.60 282.42 o
880 1 4 3 5 16978.00 19121.60 282.42 o
881 4 -3 -4 5 16976.90 14306.20 251.04 o
881 2 -6 -1 -1 16976.90 14306.20 251.04 o
881 1 3 4 -5 16976.90 14306.20 251.04 o
882 4 -6 -3 -5 2909.43 2062.49 174.01 o
882 2 -2 -7 3 2909.43 2062.49 174.01 o
882 1 6 3 5 2909.43 2062.49 174.01 o
883 4 -3 -6 5 2909.40 3685.67 191.13 o
883 2 -7 -2 -3 2909.40 3685.67 191.13 o
883 1 3 6 -5 2909.40 3685.67 191.13 o
884 4 -8 -3 -5 2856.25 2678.68 282.42 o
884 2 -3 -8 5 2856.25 2678.68 282.42 o
884 1 8 3 5 2856.25 2678.68 282.42 o
885 4 -3 -8 5 2856.29 3140.81 233.92 o
885 2 -8 -3 -5 2856.29 3140.81 233.92 o
885 1 3 8 -5 2856.29 3140.81 233.92 o
886 4 3 -4 -5 3436.80 3249.21 179.72 o
886 2 2 -3 -7 3436.80 3249.21 179.72 o
886 1 -3 4 5 3436.80 3249.21 179.72 o
887 4 -4 3 5 3436.81 3140.81 159.75 o
887 2 -3 2 7 3436.81 3140.81 159.75 o
887 1 4 -3 -5 3436.81 3140.81 159.75 o
888 4 1 -4 -5 17530.10 17880.70 288.12 o
888 2 1 -4 -5 17530.10 17880.70 288.12 o
888 1 -1 4 5 17530.10 17880.70 288.12 o
889 4 -4 1 5 17530.30 18357.10 279.56 o
889 2 -4 1 5 17530.30 18357.10 279.56 o
889 1 4 -1 -5 17530.30 18357.10 279.56 o
890 4 -1 -4 -5 7490.59 8817.66 154.04 o
890 1 1 4 5 7490.59 8817.66 154.04 o
891 4 -4 -1 5 7490.61 10666.20 345.17 o
891 1 4 1 -5 7490.61 10666.20 345.17 o
892 4 -3 -4 -5 16976.90 19461.00 268.15 o
892 2 -1 -6 -1 16976.90 19461.00 268.15 o
892 1 3 4 5 16976.90 19461.00 268.15 o
893 4 -4 -3 5 16978.00 15073.60 368.00 o
893 2 -6 -1 1 16978.00 15073.60 368.00 o
893 1 4 3 -5 16978.00 15073.60 368.00 o
894 4 -5 -4 -5 685.30 901.45 159.75 o
894 2 -2 -7 1 685.30 901.45 159.75 o
894 1 5 4 5 685.30 901.45 159.75 o
895 4 -4 -5 5 712.04 542.01 256.74 o
895 3 2 -3 9 712.04 542.01 256.74 o
895 2 -7 -2 -1 712.04 542.01 256.74 o
895 1 4 5 -5 712.04 542.01 256.74 o
896 4 5 4 5 685.05 527.75 185.43 o
896 2 2 7 -1 685.05 527.75 185.43 o
896 1 -5 -4 -5 685.05 527.75 185.43 o
897 4 -7 -4 -5 2861.53 3183.60 193.98 o
897 2 -3 -8 3 2861.53 3183.60 193.98 o
897 1 7 4 5 2861.53 3183.60 193.98 o
898 4 -4 -7 5 2861.49 2267.89 191.13 o
898 2 -8 -3 -3 2861.49 2267.89 191.13 o
898 1 4 7 -5 2861.49 2267.89 191.13 o
899 4 -9 -4 -5 1284.93 1340.76 305.24 o
899 2 -4 -9 5 1284.93 1340.76 305.24 o
899 1 9 4 5 1284.93 1340.76 305.24 o
900 4 -4 -9 5 1284.94 1046.94 222.51 o
900 2 -9 -4 -5 1284.94 1046.94 222.51 o
900 1 4 9 -5 1284.94 1046.94 222.51 o
901 4 4 -5 -5 377.19 290.97 168.31 <
901 2 2 -3 -9 377.19 290.97 168.31 <
901 1 -4 5 5 377.19 290.97 168.31 <
902 4 -5 4 5 377.18 422.20 142.63 o
902 2 -3 2 9 377.18 422.20 142.63 o
902 1 5 -4 -5 377.18 422.20 142.63 o
903 4 2 -5 -5 4889.82 4966.53 168.31 o
903 2 1 -4 -7 4889.82 4966.53 168.31 o
903 1 -2 5 5 4889.82 4966.53 168.31 o
904 4 -5 2 5 4889.85 5736.76 193.98 o
904 2 -4 1 7 4889.85 5736.76 193.98 o
904 1 5 -2 -5 4889.85 5736.76 193.98 o
905 4 -2 -5 -5 11284.80 12731.60 168.31 o
905 2 -1 -6 -3 11284.80 12731.60 168.31 o
905 1 2 5 5 11284.80 12731.60 168.31 o
906 4 -5 -2 5 11285.00 10643.40 288.12 o
906 2 -6 -1 3 11285.00 10643.40 288.12 o
906 1 5 2 -5 11285.00 10643.40 288.12 o
907 4 -4 -5 -5 685.05 841.54 154.04 o
907 2 -2 -7 -1 685.05 841.54 154.04 o
907 1 4 5 5 685.05 841.54 154.04 o
908 4 -5 -4 5 685.30 556.27 228.21 o
908 2 -7 -2 1 685.30 556.27 228.21 o
908 1 5 4 -5 685.30 556.27 228.21 o
909 4 -6 -5 -5 3470.20 4110.73 182.57 o
909 2 -3 -8 1 3470.20 4110.73 182.57 o
909 1 6 5 5 3470.20 4110.73 182.57 o
910 4 -5 -6 5 3469.87 2775.67 162.60 o
910 2 -8 -3 -1 3469.87 2775.67 162.60 o
910 1 5 6 -5 3469.87 2775.67 162.60 o
911 4 -8 -5 -5 1559.33 1540.45 256.74 o
911 2 -4 -9 3 1559.33 1540.45 256.74 o
911 1 8 5 5 1559.33 1540.45 256.74 o
912 4 -5 -8 5 1559.33 1121.11 176.87 o
912 2 -9 -4 -3 1559.33 1121.11 176.87 o
912 1 5 8 -5 1559.33 1121.11 176.87 o
913 4 5 -6 -5 386.16 208.25 148.34 <
913 2 2 -3 -11 386.16 208.25 148.34 <
913 1 -5 6 5 386.16 208.25 148.34 <
914 4 -6 5 5 386.16 174.01 136.93 <
914 2 -3 2 11 386.16 174.01 136.93 <
914 1 6 -5 -5 386.16 174.01 136.93 <
915 4 3 -6 -5 4363.75 2655.85 185.43 o
915 2 1 -4 -9 4363.75 2655.85 185.43 o
915 1 -3 6 5 4363.75 2655.85 185.43 o
916 4 -6 3 5 4363.76 3582.98 188.28 o
916 2 -4 1 9 4363.76 3582.98 188.28 o
916 1 6 -3 -5 4363.76 3582.98 188.28 o
917 4 1 -6 -5 5276.49 6609.68 182.57 o
917 1 -1 6 5 5276.49 6609.68 182.57 o
918 4 -6 1 5 5276.44 5183.34 179.72 o
918 1 6 -1 -5 5276.44 5183.34 179.72 o
919 4 -1 -6 -5 12348.60 8951.74 188.28 o
919 2 -1 -6 -5 12348.60 8951.74 188.28 o
919 1 1 6 5 12348.60 8951.74 188.28 o
920 4 -6 -1 5 12348.40 10472.20 319.50 o
920 2 -6 -1 5 12348.40 10472.20 319.50 o
920 1 6 1 -5 12348.40 10472.20 319.50 o
921 4 -3 -6 -5 2909.39 2110.99 134.08 o
921 2 -2 -7 -3 2909.39 2110.99 134.08 o
921 1 3 6 5 2909.39 2110.99 134.08 o
922 4 -6 -3 5 2909.45 2633.03 251.04 o
922 2 -7 -2 3 2909.45 2633.03 251.04 o
922 1 6 3 -5 2909.45 2633.03 251.04 o
923 4 -5 -6 -5 3469.86 4281.89 165.46 o
923 2 -3 -8 -1 3469.86 4281.89 165.46 o
923 1 5 6 5 3469.86 4281.89 165.46 o
924 4 -6 -5 5 3478.93 2829.87 225.36 o
924 3 3 -2 11 3478.93 2829.87 225.36 o
924 2 -8 -3 1 3478.93 2829.87 225.36 o
924 1 6 5 -5 3478.93 2829.87 225.36 o
925 4 -7 -6 -5 1469.04 1648.85 176.87 o
925 2 -4 -9 1 1469.04 1648.85 176.87 o
925 1 7 6 5 1469.04 1648.85 176.87 o
926 4 -6 -7 5 1468.96 964.21 162.60 o
926 2 -9 -4 -1 1468.96 964.21 162.60 o
926 1 6 7 -5 1468.96 964.21 162.60 o
927 4 6 -7 -5 87.97 74.17 154.04 <
927 2 2 -3 -13 87.97 74.17 154.04 <
927 1 -6 7 5 87.97 74.17 154.04 <
928 4 -7 6 5 87.97 39.94 145.49 <
928 2 -3 2 13 87.97 39.94 145.49 <
928 1 7 -6 -5 87.97 39.94 145.49 <
929 4 4 -7 -5 945.65 416.49 174.01 o
929 2 1 -4 -11 945.65 416.49 174.01 o
929 1 -4 7 5 945.65 416.49 174.01 o
930 4 -7 4 5 945.66 918.57 162.60 o
930 2 -4 1 11 945.66 918.57 162.60 o
930 1 7 -4 -5 945.66 918.57 162.60 o
931 4 2 -7 -5 227.92 356.59 159.75 o
931 1 -2 7 5 227.92 356.59 159.75 o
932 4 -7 2 5 227.91 125.52 165.46 <
932 1 7 -2 -5 227.91 125.52 165.46 <
933 4 -2 -7 -5 533.42 345.17 136.93 o
933 2 -2 -7 -5 533.42 345.17 136.93 o
933 1 2 7 5 533.42 345.17 136.93 o
934 4 -7 -2 5 533.36 325.21 208.25 <
934 2 -7 -2 5 533.36 325.21 208.25 <
934 1 7 2 -5 533.36 325.21 208.25 <
935 4 -4 -7 -5 2861.49 3137.96 131.22 o
935 2 -3 -8 -3 2861.49 3137.96 131.22 o
935 1 4 7 5 2861.49 3137.96 131.22 o
936 4 -7 -4 5 2861.54 2210.83 251.04 o
936 2 -8 -3 3 2861.54 2210.83 251.04 o
936 1 7 4 -5 2861.54 2210.83 251.04 o
937 4 -6 -7 -5 1468.96 1720.17 185.43 o
937 2 -4 -9 -1 1468.96 1720.17 185.43 o
937 1 6 7 5 1468.96 1720.17 185.43 o
938 4 -7 -6 5 1469.04 975.62 233.92 o
938 2 -9 -4 1 1469.04 975.62 233.92 o
938 1 7 6 -5 1469.04 975.62 233.92 o
939 4 5 -8 -5 596.01 476.40 168.31 o
939 2 1 -4 -13 596.01 476.40 168.31 o
939 1 -5 8 5 596.01 476.40 168.31 o
940 4 -8 5 5 596.02 -11.41 168.31 <
940 2 -4 1 13 596.02 -11.41 168.31 <
940 1 8 -5 -5 596.02 -11.41 168.31 <
941 4 3 -8 -5 1220.48 1634.59 156.90 o
941 1 -3 8 5 1220.48 1634.59 156.90 o
942 4 -8 3 5 1220.47 818.72 179.72 o
942 1 8 -3 -5 1220.47 818.72 179.72 o
943 4 1 -8 -5 3311.66 3046.67 165.46 o
943 2 -1 -6 -9 3311.66 3046.67 165.46 o
943 1 -1 8 5 3311.66 3046.67 165.46 o
944 4 -8 1 5 3311.69 1751.55 262.45 o
944 2 -6 -1 9 3311.69 1751.55 262.45 o
944 1 8 -1 -5 3311.69 1751.55 262.45 o
945 4 -1 -8 -5 2015.22 1805.75 134.08 o
945 2 -2 -7 -7 2015.22 1805.75 134.08 o
945 1 1 8 5 2015.22 1805.75 134.08 o
946 4 -8 -1 5 2015.22 1703.06 236.77 o
946 2 -7 -2 7 2015.22 1703.06 236.77 o
946 1 8 1 -5 2015.22 1703.06 236.77 o
947 4 -3 -8 -5 2856.30 1554.72 125.52 o
947 2 -3 -8 -5 2856.30 1554.72 125.52 o
947 1 3 8 5 2856.30 1554.72 125.52 o
948 4 -8 -3 5 2856.24 1985.47 208.25 o
948 2 -8 -3 5 2856.24 1985.47 208.25 o
948 1 8 3 -5 2856.24 1985.47 208.25 o
949 4 -5 -8 -5 1559.33 1092.58 134.08 o
949 2 -4 -9 -3 1559.33 1092.58 134.08 o
949 1 5 8 5 1559.33 1092.58 134.08 o
950 4 -8 -5 5 1574.63 1112.55 211.10 o
950 3 4 -1 13 1574.63 1112.55 211.10 o
950 2 -9 -4 3 1574.63 1112.55 211.10 o
950 1 8 5 -5 1574.63 1112.55 211.10 o
951 4 4 -9 -5 549.05 402.23 185.43 o
951 1 -4 9 5 549.05 402.23 185.43 o
952 4 -9 4 5 549.05 359.44 185.43 <
952 1 9 -4 -5 549.05 359.44 185.43 <
953 4 2 -9 -5 760.23 5.71 171.16 <
953 2 -1 -6 -11 760.23 5.71 171.16 <
953 1 -2 9 5 760.23 5.71 171.16 <
954 4 -9 2 5 760.25 325.21 171.16 <
954 2 -6 -1 11 760.25 325.21 171.16 <
954 1 9 -2 -5 760.25 325.21 171.16 <
955 4 -2 -9 -5 1125.37 487.81 131.22 o
955 2 -3 -8 -7 1125.37 487.81 131.22 o
955 1 2 9 5 1125.37 487.81 131.22 o
956 4 -9 -2 5 1125.35 613.33 219.66 o
956 2 -8 -3 7 1125.35 613.33 219.66 o
956 1 9 2 -5 1125.35 613.33 219.66 o
957 4 -4 -9 -5 1284.94 636.15 156.90 o
957 2 -4 -9 -5 1284.94 636.15 156.90 o
957 1 4 9 5 1284.94 636.15 156.90 o
958 4 -9 -4 5 1284.93 741.70 276.71 o
958 2 -9 -4 5 1284.93 741.70 276.71 o
958 1 9 4 -5 1284.93 741.70 276.71 o
959 4 1 -10 -5 341.84 88.43 134.08 <
959 2 -2 -7 -11 341.84 88.43 134.08 <
959 1 -1 10 5 341.84 88.43 134.08 <
960 4 -10 1 5 341.84 -2.85 256.74 <
960 2 -7 -2 11 341.84 -2.85 256.74 <
960 1 10 -1 -5 341.84 -2.85 256.74 <
961 4 -1 -10 -5 678.80 162.60 136.93 <
961 2 -3 -8 -9 678.80 162.60 136.93 <
961 1 1 10 5 678.80 162.60 136.93 <
962 4 -10 -1 5 678.81 -174.01 245.33 <
962 2 -8 -3 9 678.81 -174.01 245.33 <
962 1 10 1 -5 678.81 -174.01 245.33 <
963 4 -6 6 -6 15332.00 19007.50 393.67 o
963 3 3 9 0 15332.00 19007.50 393.67 o
963 2 3 -3 12 15332.00 19007.50 393.67 o
963 1 6 -6 6 15332.00 19007.50 393.67 o
964 4 6 -6 6 16132.60 15076.50 322.35 o
964 3 -3 -9 0 16132.60 15076.50 322.35 o
964 2 -3 3 -12 16132.60 15076.50 322.35 o
964 1 -6 6 -6 16132.60 15076.50 322.35 o
965 4 -5 5 -6 2271.97 2133.81 245.33 o
965 2 3 -3 10 2271.97 2133.81 245.33 o
965 1 5 -5 6 2271.97 2133.81 245.33 o
966 4 5 -5 6 2456.13 1349.32 193.98 o
966 2 -3 3 -10 2456.13 1349.32 193.98 o
966 1 -5 5 -6 2456.13 1349.32 193.98 o
967 4 -7 5 -6 15591.80 18765.00 276.71 o
967 2 2 -4 12 15591.80 18765.00 276.71 o
967 1 7 -5 6 15591.80 18765.00 276.71 o
968 4 5 -7 6 16464.60 17042.00 236.77 o
968 2 -4 2 -12 16464.60 17042.00 236.77 o
968 1 -5 7 -6 16464.60 17042.00 236.77 o
969 4 -4 4 -6 26305.70 35518.80 524.90 o
969 2 3 -3 8 26305.70 35518.80 524.90 o
969 1 4 -4 6 26305.70 35518.80 524.90 o
970 4 4 -4 6 28488.00 29485.40 413.64 o
970 2 -3 3 -8 28488.00 29485.40 413.64 o
970 1 -4 4 -6 28488.00 29485.40 413.64 o
971 4 -6 4 -6 3178.80 2929.71 196.84 o
971 2 2 -4 10 3178.80 2929.71 196.84 o
971 1 6 -4 6 3178.80 2929.71 196.84 o
972 4 4 -6 6 4461.15 3871.10 268.15 o
972 3 -2 -8 2 4461.15 3871.10 268.15 o
972 2 -4 2 -10 4461.15 3871.10 268.15 o
972 1 -4 6 -6 4461.15 3871.10 268.15 o
973 4 6 -4 6 3759.80 3913.89 231.07 o
973 2 -2 4 -10 3759.80 3913.89 231.07 o
973 1 -6 4 -6 3759.80 3913.89 231.07 o
974 4 -8 4 -6 10748.90 14508.80 305.24 o
974 2 1 -5 12 10748.90 14508.80 305.24 o
974 1 8 -4 6 10748.90 14508.80 305.24 o
975 4 4 -8 6 11123.50 9713.41 259.60 o
975 2 -5 1 -12 11123.50 9713.41 259.60 o
975 1 -4 8 -6 11123.50 9713.41 259.60 o
976 4 -3 3 -6 1478.55 1922.71 256.74 o
976 2 3 -3 6 1478.55 1922.71 256.74 o
976 1 3 -3 6 1478.55 1922.71 256.74 o
977 4 3 -3 6 2412.85 2056.79 236.77 o
977 2 -3 3 -6 2412.85 2056.79 236.77 o
977 1 -3 3 -6 2412.85 2056.79 236.77 o
978 4 -5 3 -6 26321.00 31967.20 379.41 o
978 2 2 -4 8 26321.00 31967.20 379.41 o
978 1 5 -3 6 26321.00 31967.20 379.41 o
979 4 3 -5 6 28176.20 31784.70 328.06 o
979 2 -4 2 -8 28176.20 31784.70 328.06 o
979 1 -3 5 -6 28176.20 31784.70 328.06 o
980 4 -7 3 -6 3529.46 4062.23 268.15 o
980 2 1 -5 10 3529.46 4062.23 268.15 o
980 1 7 -3 6 3529.46 4062.23 268.15 o
981 4 3 -7 6 3442.09 3220.69 248.18 o
981 2 -5 1 -10 3442.09 3220.69 248.18 o
981 1 -3 7 -6 3442.09 3220.69 248.18 o
982 4 -9 3 -6 9218.03 14003.80 293.83 o
982 2 0 -6 12 9218.03 14003.80 293.83 o
982 1 9 -3 6 9218.03 14003.80 293.83 o
983 4 3 -9 6 9460.34 9245.57 256.74 o
983 2 -6 0 -12 9460.34 9245.57 256.74 o
983 1 -3 9 -6 9460.34 9245.57 256.74 o
984 4 -2 2 -6 42065.80 43654.70 536.31 o
984 2 3 -3 4 42065.80 43654.70 536.31 o
984 1 2 -2 6 42065.80 43654.70 536.31 o
985 4 2 -2 6 44859.20 46767.00 561.98 o
985 2 -3 3 -4 44859.20 46767.00 561.98 o
985 1 -2 2 -6 44859.20 46767.00 561.98 o
986 4 -4 2 -6 1863.25 1654.56 205.39 o
986 2 2 -4 6 1863.25 1654.56 205.39 o
986 1 4 -2 6 1863.25 1654.56 205.39 o
987 4 2 -4 6 3144.80 1563.27 171.16 o
987 2 -4 2 -6 3144.80 1563.27 171.16 o
987 1 -2 4 -6 3144.80 1563.27 171.16 o
988 4 -6 2 -6 21654.40 28412.80 387.97 o
988 2 1 -5 8 21654.40 28412.80 387.97 o
988 1 6 -2 6 21654.40 28412.80 387.97 o
989 4 6 -2 6 22684.20 23991.10 325.21 o
989 2 -1 5 -8 22684.20 23991.10 325.21 o
989 1 -6 2 -6 22684.20 23991.10 325.21 o
990 4 -8 2 -6 6345.93 6270.21 256.74 o
990 2 0 -6 10 6345.93 6270.21 256.74 o
990 1 8 -2 6 6345.93 6270.21 256.74 o
991 4 2 -8 6 6455.78 8843.34 262.45 o
991 2 -6 0 -10 6455.78 8843.34 262.45 o
991 1 -2 8 -6 6455.78 8843.34 262.45 o
992 4 -1 1 -6 2293.51 3443.20 168.31 o
992 2 3 -3 2 2293.51 3443.20 168.31 o
992 1 1 -1 6 2293.51 3443.20 168.31 o
993 4 -3 1 -6 24734.40 32024.30 322.35 o
993 2 2 -4 4 24734.40 32024.30 322.35 o
993 1 3 -1 6 24734.40 32024.30 322.35 o
994 4 1 -3 6 27062.50 25283.40 282.42 o
994 2 -4 2 -4 27062.50 25283.40 282.42 o
994 1 -1 3 -6 27062.50 25283.40 282.42 o
995 4 -5 1 -6 5124.84 7610.97 245.33 o
995 2 1 -5 6 5124.84 7610.97 245.33 o
995 1 5 -1 6 5124.84 7610.97 245.33 o
996 4 1 -5 6 5367.18 8327.00 259.60 o
996 2 -5 1 -6 5367.18 8327.00 259.60 o
996 1 -1 5 -6 5367.18 8327.00 259.60 o
997 4 -7 1 -6 17998.20 24966.70 342.32 o
997 2 0 -6 8 17998.20 24966.70 342.32 o
997 1 7 -1 6 17998.20 24966.70 342.32 o
998 4 1 -7 6 18365.60 20505.10 339.47 o
998 2 -6 0 -8 18365.60 20505.10 339.47 o
998 1 -1 7 -6 18365.60 20505.10 339.47 o
999 4 -9 1 -6 5530.72 6432.81 245.33 o
999 2 -1 -7 10 5530.72 6432.81 245.33 o
999 1 9 -1 6 5530.72 6432.81 245.33 o
1000 4 1 -9 6 5243.34 7108.90 231.07 o
1000 2 -7 -1 -10 5243.34 7108.90 231.07 o
1000 1 -1 9 -6 5243.34 7108.90 231.07 o
1001 4 0 0 -6 52493.90 50073.20 604.77 o
1001 2 3 -3 0 52493.90 50073.20 604.77 o
1001 1 0 0 6 52493.90 50073.20 604.77 o
1002 4 0 0 6 53626.60 57935.30 581.95 o
1002 2 -3 3 0 53626.60 57935.30 581.95 o
1002 1 0 0 -6 53626.60 57935.30 581.95 o
1003 4 -2 0 -6 4776.55 3069.49 145.49 o
1003 2 2 -4 2 4776.55 3069.49 145.49 o
1003 1 2 0 6 4776.55 3069.49 145.49 o
1004 4 0 -2 6 4629.42 6141.84 236.77 o
1004 2 -4 2 -2 4629.42 6141.84 236.77 o
1004 1 0 2 -6 4629.42 6141.84 236.77 o
1005 4 -4 0 -6 37948.90 45323.50 422.20 o
1005 2 1 -5 4 37948.90 45323.50 422.20 o
1005 1 4 0 6 37948.90 45323.50 422.20 o
1006 4 0 -4 6 39288.80 49089.10 450.73 o
1006 2 -5 1 -4 39288.80 49089.10 450.73 o
1006 1 0 4 -6 39288.80 49089.10 450.73 o
1007 4 -6 0 -6 7449.65 9961.59 251.04 o
1007 2 0 -6 6 7449.65 9961.59 251.04 o
1007 1 6 0 6 7449.65 9961.59 251.04 o
1008 4 6 0 6 7631.34 11841.50 256.74 o
1008 2 0 6 -6 7631.34 11841.50 256.74 o
1008 1 -6 0 -6 7631.34 11841.50 256.74 o
1009 4 -8 0 -6 13584.40 19695.00 336.62 o
1009 2 -1 -7 8 13584.40 19695.00 336.62 o
1009 1 8 0 6 13584.40 19695.00 336.62 o
1010 4 0 -8 6 13392.60 13036.80 273.86 o
1010 2 -7 -1 -8 13392.60 13036.80 273.86 o
1010 1 0 8 -6 13392.60 13036.80 273.86 o
1011 4 1 -1 -6 3369.90 4110.73 233.92 o
1011 2 3 -3 -2 3369.90 4110.73 233.92 o
1011 1 -1 1 6 3369.90 4110.73 233.92 o
1012 4 -1 1 6 2525.90 5049.26 228.21 o
1012 2 -3 3 2 2525.90 5049.26 228.21 o
1012 1 1 -1 -6 2525.90 5049.26 228.21 o
1013 4 -1 -1 -6 23381.80 26701.20 248.18 o
1013 2 2 -4 0 23381.80 26701.20 248.18 o
1013 1 1 1 6 23381.80 26701.20 248.18 o
1014 4 -1 -1 6 23614.20 15721.20 365.14 o
1014 2 -4 2 0 23614.20 15721.20 365.14 o
1014 1 1 1 -6 23614.20 15721.20 365.14 o
1015 4 -3 -1 -6 9814.45 11516.30 310.94 o
1015 2 1 -5 2 9814.45 11516.30 310.94 o
1015 1 3 1 6 9814.45 11516.30 310.94 o
1016 4 -1 -3 6 10627.10 15721.20 273.86 o
1016 2 -5 1 -2 10627.10 15721.20 273.86 o
1016 1 1 3 -6 10627.10 15721.20 273.86 o
1017 4 -5 -1 -6 23928.20 30335.50 348.03 o
1017 2 0 -6 4 23928.20 30335.50 348.03 o
1017 1 5 1 6 23928.20 30335.50 348.03 o
1018 4 -1 -5 6 24238.60 21612.00 308.09 o
1018 2 -6 0 -4 24238.60 21612.00 308.09 o
1018 1 1 5 -6 24238.60 21612.00 308.09 o
1019 4 -7 -1 -6 12009.80 14585.80 293.83 o
1019 2 -1 -7 6 12009.80 14585.80 293.83 o
1019 1 7 1 6 12009.80 14585.80 293.83 o
1020 4 -1 -7 6 11643.10 18491.10 290.97 o
1020 2 -7 -1 -6 11643.10 18491.10 290.97 o
1020 1 1 7 -6 11643.10 18491.10 290.97 o
1021 4 -9 -1 -6 9438.57 12420.60 322.35 o
1021 2 -2 -8 8 9438.57 12420.60 322.35 o
1021 1 9 1 6 9438.57 12420.60 322.35 o
1022 4 -1 -9 6 9295.39 10626.30 310.94 o
1022 2 -8 -2 -8 9295.39 10626.30 310.94 o
1022 1 1 9 -6 9295.39 10626.30 310.94 o
1023 4 2 -2 -6 44059.10 39238.70 633.30 o
1023 2 3 -3 -4 44059.10 39238.70 633.30 o
1023 1 -2 2 6 44059.10 39238.70 633.30 o
1024 4 -2 2 6 42865.90 45694.40 499.22 o
1024 2 -3 3 4 42865.90 45694.40 499.22 o
1024 1 2 -2 -6 42865.90 45694.40 499.22 o
1025 4 0 -2 -6 5693.55 4390.29 171.16 o
1025 2 2 -4 -2 5693.55 4390.29 171.16 o
1025 1 0 2 6 5693.55 4390.29 171.16 o
1026 4 -2 0 6 3712.42 4547.19 156.90 o
1026 2 -4 2 2 3712.42 4547.19 156.90 o
1026 1 2 0 -6 3712.42 4547.19 156.90 o
1027 4 -2 -2 -6 48324.90 55784.30 362.29 o
1027 2 1 -5 0 48324.90 55784.30 362.29 o
1027 1 2 2 6 48324.90 55784.30 362.29 o
1028 4 -2 -2 6 49125.00 38228.90 519.19 o
1028 2 -5 1 0 49125.00 38228.90 519.19 o
1028 1 2 2 -6 49125.00 38228.90 519.19 o
1029 4 -4 -2 -6 6141.11 8301.33 242.48 o
1029 2 0 -6 2 6141.11 8301.33 242.48 o
1029 1 4 2 6 6141.11 8301.33 242.48 o
1030 4 -2 -4 6 5761.17 4992.21 159.75 o
1030 2 -6 0 -2 5761.17 4992.21 159.75 o
1030 1 2 4 -6 5761.17 4992.21 159.75 o
1031 4 -6 -2 -6 27264.60 35992.40 379.41 o
1031 2 -1 -7 4 27264.60 35992.40 379.41 o
1031 1 6 2 6 27264.60 35992.40 379.41 o
1032 4 6 2 6 27119.20 31810.30 359.44 o
1032 2 1 7 -4 27119.20 31810.30 359.44 o
1032 1 -6 -2 -6 27119.20 31810.30 359.44 o
1033 4 -8 -2 -6 9138.16 10361.00 273.86 o
1033 2 -2 -8 6 9138.16 10361.00 273.86 o
1033 1 8 2 6 9138.16 10361.00 273.86 o
1034 4 -2 -8 6 8988.18 13162.30 282.42 o
1034 2 -8 -2 -6 8988.18 13162.30 282.42 o
1034 1 2 8 -6 8988.18 13162.30 282.42 o
1035 4 3 -3 -6 2725.02 2096.73 222.51 o
1035 2 3 -3 -6 2725.02 2096.73 222.51 o
1035 1 -3 3 6 2725.02 2096.73 222.51 o
1036 4 -3 3 6 1166.38 1529.04 216.80 o
1036 2 -3 3 6 1166.38 1529.04 216.80 o
1036 1 3 -3 -6 1166.38 1529.04 216.80 o
1037 4 1 -3 -6 26662.60 27437.20 319.50 o
1037 2 2 -4 -4 26662.60 27437.20 319.50 o
1037 1 -1 3 6 26662.60 27437.20 319.50 o
1038 4 -3 1 6 25134.30 27776.60 271.01 o
1038 2 -4 2 4 25134.30 27776.60 271.01 o
1038 1 3 -1 -6 25134.30 27776.60 271.01 o
1039 4 -1 -3 -6 10227.20 12035.50 208.25 o
1039 2 1 -5 -2 10227.20 12035.50 208.25 o
1039 1 1 3 6 10227.20 12035.50 208.25 o
1040 4 -3 -1 6 10214.40 13293.50 328.06 o
1040 2 -5 1 2 10214.40 13293.50 328.06 o
1040 1 3 1 -6 10214.40 13293.50 328.06 o
1041 4 -3 -3 -6 28145.30 33250.90 342.32 o
1041 2 0 -6 0 28145.30 33250.90 342.32 o
1041 1 3 3 6 28145.30 33250.90 342.32 o
1042 4 -3 -3 6 27833.10 16999.20 410.79 o
1042 2 -6 0 0 27833.10 16999.20 410.79 o
1042 1 3 3 -6 27833.10 16999.20 410.79 o
1043 4 -5 -3 -6 22989.50 24253.60 322.35 o
1043 2 -1 -7 2 22989.50 24253.60 322.35 o
1043 1 5 3 6 22989.50 24253.60 322.35 o
1044 4 -3 -5 6 23248.80 29402.70 322.35 o
1044 2 -7 -1 -2 23248.80 29402.70 322.35 o
1044 1 3 5 -6 23248.80 29402.70 322.35 o
1045 4 -7 -3 -6 14132.30 18941.90 330.91 o
1045 2 -2 -8 4 14132.30 18941.90 330.91 o
1045 1 7 3 6 14132.30 18941.90 330.91 o
1046 4 -3 -7 6 13810.70 12323.60 279.56 o
1046 2 -8 -2 -4 13810.70 12323.60 279.56 o
1046 1 3 7 -6 13810.70 12323.60 279.56 o
1047 4 -9 -3 -6 8068.26 8649.35 322.35 o
1047 2 -3 -9 6 8068.26 8649.35 322.35 o
1047 1 9 3 6 8068.26 8649.35 322.35 o
1048 4 -3 -9 6 7855.90 10669.10 285.27 o
1048 2 -9 -3 -6 7855.90 10669.10 285.27 o
1048 1 3 9 -6 7855.90 10669.10 285.27 o
1049 4 4 -4 -6 28172.30 6364.35 527.75 o
1049 2 3 -3 -8 28172.30 6364.35 527.75 o
1049 1 -4 4 6 28172.30 6364.35 527.75 o
1050 4 -4 4 6 26621.50 20319.70 459.28 o
1050 2 -3 3 8 26621.50 20319.70 459.28 o
1050 1 4 -4 -6 26621.50 20319.70 459.28 o
1051 4 2 -4 -6 3572.99 1297.97 156.90 o
1051 2 2 -4 -6 3572.99 1297.97 156.90 o
1051 1 -2 4 6 3572.99 1297.97 156.90 o
1052 4 -4 2 6 1435.06 1577.54 148.34 o
1052 2 -4 2 6 1435.06 1577.54 148.34 o
1052 1 4 -2 -6 1435.06 1577.54 148.34 o
1053 4 0 -4 -6 38800.30 44222.40 399.38 o
1053 2 1 -5 -4 38800.30 44222.40 399.38 o
1053 1 0 4 6 38800.30 44222.40 399.38 o
1054 4 -4 0 6 38437.40 45172.30 376.55 o
1054 2 -5 1 4 38437.40 45172.30 376.55 o
1054 1 4 0 -6 38437.40 45172.30 376.55 o
1055 4 -2 -4 -6 6189.37 7670.88 165.46 o
1055 2 0 -6 -2 6189.37 7670.88 165.46 o
1055 1 2 4 6 6189.37 7670.88 165.46 o
1056 4 -4 -2 6 5712.92 5708.23 256.74 o
1056 2 -6 0 2 5712.92 5708.23 256.74 o
1056 1 4 2 -6 5712.92 5708.23 256.74 o
1057 4 -4 -4 -6 36144.50 47699.80 390.82 o
1057 2 -1 -7 0 36144.50 47699.80 390.82 o
1057 1 4 4 6 36144.50 47699.80 390.82 o
1058 4 -4 -4 6 36460.30 39823.50 322.35 o
1058 2 -7 -1 0 36460.30 39823.50 322.35 o
1058 1 4 4 -6 36460.30 39823.50 322.35 o
1059 4 -6 -4 -6 9695.40 10740.40 228.21 o
1059 2 -2 -8 2 9695.40 10740.40 228.21 o
1059 1 6 4 6 9695.40 10740.40 228.21 o
1060 4 -4 -6 6 9502.73 7234.42 342.32 o
1060 3 2 -4 10 9502.73 7234.42 342.32 o
1060 2 -8 -2 -2 9502.73 7234.42 342.32 o
1060 1 4 6 -6 9502.73 7234.42 342.32 o
1061 4 6 4 6 9390.64 9251.27 222.51 o
1061 2 2 8 -2 9390.64 9251.27 222.51 o
1061 1 -6 -4 -6 9390.64 9251.27 222.51 o
1062 4 -8 -4 -6 12446.20 16140.50 336.62 o
1062 2 -3 -9 4 12446.20 16140.50 336.62 o
1062 1 8 4 6 12446.20 16140.50 336.62 o
1063 4 -4 -8 6 12274.10 11527.70 290.97 o
1063 2 -9 -3 -4 12274.10 11527.70 290.97 o
1063 1 4 8 -6 12274.10 11527.70 290.97 o
1064 4 5 -5 -6 2802.46 1708.76 216.80 o
1064 2 3 -3 -10 2802.46 1708.76 216.80 o
1064 1 -5 5 6 2802.46 1708.76 216.80 o
1065 4 -5 5 6 1925.64 1762.96 202.54 o
1065 2 -3 3 10 1925.64 1762.96 202.54 o
1065 1 5 -5 -6 1925.64 1762.96 202.54 o
1066 4 3 -5 -6 27715.30 34412.00 290.97 o
1066 2 2 -4 -8 27715.30 34412.00 290.97 o
1066 1 -3 5 6 27715.30 34412.00 290.97 o
1067 4 -5 3 6 26781.90 18077.50 345.17 o
1067 2 -4 2 8 26781.90 18077.50 345.17 o
1067 1 5 -3 -6 26781.90 18077.50 345.17 o
1068 4 1 -5 -6 5448.15 5756.73 196.84 o
1068 2 1 -5 -6 5448.15 5756.73 196.84 o
1068 1 -1 5 6 5448.15 5756.73 196.84 o
1069 4 -5 1 6 5043.87 5964.97 199.69 o
1069 2 -5 1 6 5043.87 5964.97 199.69 o
1069 1 5 -1 -6 5043.87 5964.97 199.69 o
1070 4 -1 -5 -6 24319.50 26287.50 211.10 o
1070 2 0 -6 -4 24319.50 26287.50 211.10 o
1070 1 1 5 6 24319.50 26287.50 211.10 o
1071 4 -5 -1 6 23847.20 23999.70 405.08 o
1071 2 -6 0 4 23847.20 23999.70 405.08 o
1071 1 5 1 -6 23847.20 23999.70 405.08 o
1072 4 -3 -5 -6 22787.80 23272.20 239.63 o
1072 2 -1 -7 -2 22787.80 23272.20 239.63 o
1072 1 3 5 6 22787.80 23272.20 239.63 o
1073 4 -5 -3 6 23450.50 26224.80 385.11 o
1073 2 -7 -1 2 23450.50 26224.80 385.11 o
1073 1 5 3 -6 23450.50 26224.80 385.11 o
1074 4 -5 -5 -6 17086.40 21529.20 265.30 o
1074 2 -2 -8 0 17086.40 21529.20 265.30 o
1074 1 5 5 6 17086.40 21529.20 265.30 o
1075 4 -5 -5 6 16740.00 12466.30 205.39 o
1075 2 -8 -2 0 16740.00 12466.30 205.39 o
1075 1 5 5 -6 16740.00 12466.30 205.39 o
1076 4 -7 -5 -6 14952.00 14642.90 256.74 o
1076 2 -3 -9 2 14952.00 14642.90 256.74 o
1076 1 7 5 6 14952.00 14642.90 256.74 o
1077 4 -5 -7 6 15056.40 18642.30 222.51 o
1077 2 -9 -3 -2 15056.40 18642.30 222.51 o
1077 1 5 7 -6 15056.40 18642.30 222.51 o
1078 4 6 -6 -6 14971.00 18220.10 328.06 o
1078 2 3 -3 -12 14971.00 18220.10 328.06 o
1078 1 -6 6 6 14971.00 18220.10 328.06 o
1079 4 -6 6 6 14482.80 13901.20 299.53 o
1079 2 -3 3 12 14482.80 13901.20 299.53 o
1079 1 6 -6 -6 14482.80 13901.20 299.53 o
1080 4 4 -6 -6 3907.73 3768.40 168.31 o
1080 2 2 -4 -10 3907.73 3768.40 168.31 o
1080 1 -4 6 6 3907.73 3768.40 168.31 o
1081 4 -6 4 6 3030.86 3454.61 151.19 o
1081 2 -4 2 10 3030.86 3454.61 151.19 o
1081 1 6 -4 -6 3030.86 3454.61 151.19 o
1082 4 2 -6 -6 22571.70 23842.80 282.42 o
1082 2 1 -5 -8 22571.70 23842.80 282.42 o
1082 1 -2 6 6 22571.70 23842.80 282.42 o
1083 4 -6 2 6 21767.00 30078.80 288.12 o
1083 2 -5 1 8 21767.00 30078.80 288.12 o
1083 1 6 -2 -6 21767.00 30078.80 288.12 o
1084 4 0 -6 -6 7692.04 5713.94 219.66 o
1084 2 0 -6 -6 7692.04 5713.94 219.66 o
1084 1 0 6 6 7692.04 5713.94 219.66 o
1085 4 -6 0 6 7388.95 8207.19 282.42 o
1085 2 -6 0 6 7388.95 8207.19 282.42 o
1085 1 6 0 -6 7388.95 8207.19 282.42 o
1086 4 -2 -6 -6 27006.70 28552.60 245.33 o
1086 2 -1 -7 -4 27006.70 28552.60 245.33 o
1086 1 2 6 6 27006.70 28552.60 245.33 o
1087 4 -6 -2 6 27377.20 25942.40 402.23 o
1087 2 -7 -1 4 27377.20 25942.40 402.23 o
1087 1 6 2 -6 27377.20 25942.40 402.23 o
1088 4 -4 -6 -6 9538.58 10748.90 168.31 o
1088 2 -2 -8 -2 9538.58 10748.90 168.31 o
1088 1 4 6 6 9538.58 10748.90 168.31 o
1089 4 -6 -4 6 9547.46 7856.31 279.56 o
1089 2 -8 -2 2 9547.46 7856.31 279.56 o
1089 1 6 4 -6 9547.46 7856.31 279.56 o
1090 4 -6 -6 -6 16895.10 20225.60 282.42 o
1090 2 -3 -9 0 16895.10 20225.60 282.42 o
1090 1 6 6 6 16895.10 20225.60 282.42 o
1091 4 -6 -6 6 17824.50 16106.30 353.73 o
1091 3 3 -3 12 17824.50 16106.30 353.73 o
1091 2 -9 -3 0 17824.50 16106.30 353.73 o
1091 1 6 6 -6 17824.50 16106.30 353.73 o
1092 4 5 -7 -6 16214.70 20559.30 233.92 o
1092 2 2 -4 -12 16214.70 20559.30 233.92 o
1092 1 -5 7 6 16214.70 20559.30 233.92 o
1093 4 -7 5 6 15841.70 9955.88 233.92 o
1093 2 -4 2 12 15841.70 9955.88 233.92 o
1093 1 7 -5 -6 15841.70 9955.88 233.92 o
1094 4 3 -7 -6 3624.49 4193.45 162.60 o
1094 2 1 -5 -10 3624.49 4193.45 162.60 o
1094 1 -3 7 6 3624.49 4193.45 162.60 o
1095 4 -7 3 6 3347.06 2849.84 176.87 o
1095 2 -5 1 10 3347.06 2849.84 176.87 o
1095 1 7 -3 -6 3347.06 2849.84 176.87 o
1096 4 1 -7 -6 18243.10 21885.80 256.74 o
1096 2 0 -6 -8 18243.10 21885.80 256.74 o
1096 1 -1 7 6 18243.10 21885.80 256.74 o
1097 4 -7 1 6 18120.70 21905.80 259.60 o
1097 2 -6 0 8 18120.70 21905.80 259.60 o
1097 1 7 -1 -6 18120.70 21905.80 259.60 o
1098 4 -1 -7 -6 11520.60 11262.40 202.54 o
1098 2 -1 -7 -6 11520.60 11262.40 202.54 o
1098 1 1 7 6 11520.60 11262.40 202.54 o
1099 4 -7 -1 6 12132.30 14543.00 299.53 o
1099 2 -7 -1 6 12132.30 14543.00 299.53 o
1099 1 7 1 -6 12132.30 14543.00 299.53 o
1100 4 -3 -7 -6 13993.10 15578.50 171.16 o
1100 2 -2 -8 -4 13993.10 15578.50 171.16 o
1100 1 3 7 6 13993.10 15578.50 171.16 o
1101 4 -7 -3 6 13949.90 11764.50 308.09 o
1101 2 -8 -2 4 13949.90 11764.50 308.09 o
1101 1 7 3 -6 13949.90 11764.50 308.09 o
1102 4 -5 -7 -6 14806.40 11539.10 205.39 o
1102 2 -3 -9 -2 14806.40 11539.10 205.39 o
1102 1 5 7 6 14806.40 11539.10 205.39 o
1103 4 -7 -5 6 15201.90 13356.30 310.94 o
1103 2 -9 -3 2 15201.90 13356.30 310.94 o
1103 1 7 5 -6 15201.90 13356.30 310.94 o
1104 4 4 -8 -6 11077.80 8783.43 231.07 o
1104 2 1 -5 -12 11077.80 8783.43 231.07 o
1104 1 -4 8 6 11077.80 8783.43 231.07 o
1105 4 -8 4 6 10794.50 12446.30 213.95 o
1105 2 -5 1 12 10794.50 12446.30 213.95 o
1105 1 8 -4 -6 10794.50 12446.30 213.95 o
1106 4 2 -8 -6 6405.67 3999.47 211.10 o
1106 2 0 -6 -10 6405.67 3999.47 211.10 o
1106 1 -2 8 6 6405.67 3999.47 211.10 o
1107 4 -8 2 6 6396.04 3377.58 216.80 o
1107 2 -6 0 10 6396.04 3377.58 216.80 o
1107 1 8 -2 -6 6396.04 3377.58 216.80 o
1108 4 0 -8 -6 13478.40 13875.50 176.87 o
1108 2 -1 -7 -8 13478.40 13875.50 176.87 o
1108 1 0 8 6 13478.40 13875.50 176.87 o
1109 4 -8 0 6 13498.70 16990.60 313.80 o
1109 2 -7 -1 8 13498.70 16990.60 313.80 o
1109 1 8 0 -6 13498.70 16990.60 313.80 o
1110 4 -2 -8 -6 8938.08 4655.59 174.01 o
1110 2 -2 -8 -6 8938.08 4655.59 174.01 o
1110 1 2 8 6 8938.08 4655.59 174.01 o
1111 4 -8 -2 6 9188.26 9433.84 253.89 o
1111 2 -8 -2 6 9188.26 9433.84 253.89 o
1111 1 8 2 -6 9188.26 9433.84 253.89 o
1112 4 -4 -8 -6 12228.50 11616.10 185.43 o
1112 2 -3 -9 -4 12228.50 11616.10 185.43 o
1112 1 4 8 6 12228.50 11616.10 185.43 o
1113 4 -8 -4 6 12491.80 8829.07 302.39 o
1113 2 -9 -3 4 12491.80 8829.07 302.39 o
1113 1 8 4 -6 12491.80 8829.07 302.39 o
1114 4 3 -9 -6 9389.39 6700.97 205.39 o
1114 2 0 -6 -12 9389.39 6700.97 205.39 o
1114 1 -3 9 6 9389.39 6700.97 205.39 o
1115 4 -9 3 6 9288.98 11265.30 231.07 o
1115 2 -6 0 12 9288.98 11265.30 231.07 o
1115 1 9 -3 -6 9288.98 11265.30 231.07 o
1116 4 1 -9 -6 5252.23 3083.76 154.04 o
1116 2 -1 -7 -10 5252.23 3083.76 154.04 o
1116 1 -1 9 6 5252.23 3083.76 154.04 o
1117 4 -9 1 6 5521.83 4336.09 265.30 o
1117 2 -7 -1 10 5521.83 4336.09 265.30 o
1117 1 9 -1 -6 5521.83 4336.09 265.30 o
1118 4 -1 -9 -6 9304.29 10589.20 162.60 o
1118 2 -2 -8 -8 9304.29 10589.20 162.60 o
1118 1 1 9 6 9304.29 10589.20 162.60 o
1119 4 -9 -1 6 9429.67 8192.92 316.65 o
1119 2 -8 -2 8 9429.67 8192.92 316.65 o
1119 1 9 1 -6 9429.67 8192.92 316.65 o
1120 4 -3 -9 -6 7784.95 3911.04 182.57 o
1120 2 -3 -9 -6 7784.95 3911.04 182.57 o
1120 1 3 9 6 7784.95 3911.04 182.57 o
1121 4 -9 -3 6 8139.21 2807.05 299.53 o
1121 2 -9 -3 6 8139.21 2807.05 299.53 o
1121 1 9 3 -6 8139.21 2807.05 299.53 o
1122 4 -7 6 -7 96.19 156.90 174.01 <
1122 2 3 -4 13 96.19 156.90 174.01 <
1122 1 7 -6 7 96.19 156.90 174.01 <
1123 4 6 -7 7 179.41 208.25 228.21 <
1123 3 -3 -10 1 179.41 208.25 228.21 <
1123 2 -4 3 -13 179.41 208.25 228.21 <
1123 1 -6 7 -7 179.41 208.25 228.21 <
1124 4 7 -6 7 96.19 39.94 208.25 <
1124 2 -3 4 -13 96.19 39.94 208.25 <
1124 1 -7 6 -7 96.19 39.94 208.25 <
1125 4 -6 5 -7 383.37 373.70 179.72 o
1125 2 3 -4 11 383.37 373.70 179.72 o
1125 1 6 -5 7 383.37 373.70 179.72 o
1126 4 5 -6 7 383.37 316.65 145.49 o
1126 2 -4 3 -11 383.37 316.65 145.49 o
1126 1 -5 6 -7 383.37 316.65 145.49 o
1127 4 -8 5 -7 224.17 196.84 199.69 <
1127 2 2 -5 13 224.17 196.84 199.69 <
1127 1 8 -5 7 224.17 196.84 199.69 <
1128 4 5 -8 7 224.17 370.85 179.72 o
1128 2 -5 2 -13 224.17 370.85 179.72 o
1128 1 -5 8 -7 224.17 370.85 179.72 o
1129 4 -5 4 -7 753.28 947.09 179.72 o
1129 2 3 -4 9 753.28 947.09 179.72 o
1129 1 5 -4 7 753.28 947.09 179.72 o
1130 4 4 -5 7 753.28 236.77 139.78 <
1130 2 -4 3 -9 753.28 236.77 139.78 <
1130 1 -4 5 -7 753.28 236.77 139.78 <
1131 4 -7 4 -7 163.85 11.41 188.28 <
1131 2 2 -5 11 163.85 11.41 188.28 <
1131 1 7 -4 7 163.85 11.41 188.28 <
1132 4 4 -7 7 215.37 433.61 288.12 <
1132 3 -2 -9 3 215.37 433.61 288.12 <
1132 2 -5 2 -11 215.37 433.61 288.12 <
1132 1 -4 7 -7 215.37 433.61 288.12 <
1133 4 7 -4 7 163.85 353.73 182.57 <
1133 2 -2 5 -11 163.85 353.73 182.57 <
1133 1 -7 4 -7 163.85 353.73 182.57 <
1134 4 -4 3 -7 3100.74 3129.40 193.98 o
1134 2 3 -4 7 3100.74 3129.40 193.98 o
1134 1 4 -3 7 3100.74 3129.40 193.98 o
1135 4 3 -4 7 3100.72 3457.46 174.01 o
1135 2 -4 3 -7 3100.72 3457.46 174.01 o
1135 1 -3 4 -7 3100.72 3457.46 174.01 o
1136 4 -6 3 -7 1234.05 305.24 205.39 <
1136 2 2 -5 9 1234.05 305.24 205.39 <
1136 1 6 -3 7 1234.05 305.24 205.39 <
1137 4 3 -6 7 1234.06 2025.41 208.25 o
1137 2 -5 2 -9 1234.06 2025.41 208.25 o
1137 1 -3 6 -7 1234.06 2025.41 208.25 o
1138 4 -8 3 -7 1120.15 744.55 208.25 o
1138 2 1 -6 11 1120.15 744.55 208.25 o
1138 1 8 -3 7 1120.15 744.55 208.25 o
1139 4 3 -8 7 1120.12 958.50 179.72 o
1139 2 -6 1 -11 1120.12 958.50 179.72 o
1139 1 -3 8 -7 1120.12 958.50 179.72 o
1140 4 -3 2 -7 4157.90 4647.03 156.90 o
1140 2 3 -4 5 4157.90 4647.03 156.90 o
1140 1 3 -2 7 4157.90 4647.03 156.90 o
1141 4 2 -3 7 4157.82 2450.46 233.92 o
1141 2 -4 3 -5 4157.82 2450.46 233.92 o
1141 1 -2 3 -7 4157.82 2450.46 233.92 o
1142 4 -5 2 -7 6.20 34.23 193.98 <
1142 2 2 -5 7 6.20 34.23 193.98 <
1142 1 5 -2 7 6.20 34.23 193.98 <
1143 4 2 -5 7 6.20 25.67 199.69 <
1143 2 -5 2 -7 6.20 25.67 199.69 <
1143 1 -2 5 -7 6.20 25.67 199.69 <
1144 4 -7 2 -7 1571.17 2005.44 202.54 o
1144 2 1 -6 9 1571.17 2005.44 202.54 o
1144 1 7 -2 7 1571.17 2005.44 202.54 o
1145 4 7 -2 7 1571.16 864.36 205.39 o
1145 2 -1 6 -9 1571.16 864.36 205.39 o
1145 1 -7 2 -7 1571.16 864.36 205.39 o
1146 4 -9 2 -7 143.71 37.08 219.66 <
1146 1 9 -2 7 143.71 37.08 219.66 <
1147 4 2 -9 7 143.71 336.62 219.66 <
1147 1 -2 9 -7 143.71 336.62 219.66 <
1148 4 -2 1 -7 7636.18 8780.58 142.63 o
1148 2 3 -4 3 7636.18 8780.58 142.63 o
1148 1 2 -1 7 7636.18 8780.58 142.63 o
1149 4 -4 1 -7 3653.79 1460.58 179.72 o
1149 2 2 -5 5 3653.79 1460.58 179.72 o
1149 1 4 -1 7 3653.79 1460.58 179.72 o
1150 4 1 -4 7 3653.80 7322.85 188.28 o
1150 2 -5 2 -5 3653.80 7322.85 188.28 o
1150 1 -1 4 -7 3653.80 7322.85 188.28 o
1151 4 -6 1 -7 6224.11 6013.47 242.48 o
1151 2 1 -6 7 6224.11 6013.47 242.48 o
1151 1 6 -1 7 6224.11 6013.47 242.48 o
1152 4 1 -6 7 6224.16 6837.90 248.18 o
1152 2 -6 1 -7 6224.16 6837.90 248.18 o
1152 1 -1 6 -7 6224.16 6837.90 248.18 o
1153 4 -8 1 -7 959.16 259.60 202.54 <
1153 1 8 -1 7 959.16 259.60 202.54 <
1154 4 1 -8 7 959.16 1537.60 219.66 o
1154 1 -1 8 -7 959.16 1537.60 219.66 o
1155 4 -2 -1 -7 1829.91 1332.21 116.96 o
1155 2 2 -5 1 1829.91 1332.21 116.96 o
1155 1 2 1 7 1829.91 1332.21 116.96 o
1156 4 -1 -2 7 1829.89 2798.49 231.07 o
1156 2 -5 2 -1 1829.89 2798.49 231.07 o
1156 1 1 2 -7 1829.89 2798.49 231.07 o
1157 4 -4 -1 -7 14933.90 15338.90 308.09 o
1157 2 1 -6 3 14933.90 15338.90 308.09 o
1157 1 4 1 7 14933.90 15338.90 308.09 o
1158 4 -1 -4 7 14933.70 13607.30 273.86 o
1158 2 -6 1 -3 14933.70 13607.30 273.86 o
1158 1 1 4 -7 14933.70 13607.30 273.86 o
1159 4 -6 -1 -7 2659.56 1240.92 202.54 o
1159 1 6 1 7 2659.56 1240.92 202.54 o
1160 4 -1 -6 7 2659.54 5268.92 211.10 o
1160 1 1 6 -7 2659.54 5268.92 211.10 o
1161 4 -8 -1 -7 2244.72 1674.53 222.51 o
1161 2 -1 -8 7 2244.72 1674.53 222.51 o
1161 1 8 1 7 2244.72 1674.53 222.51 o
1162 4 -1 -8 7 2244.70 2330.65 219.66 o
1162 2 -8 -1 -7 2244.70 2330.65 219.66 o
1162 1 1 8 -7 2244.70 2330.65 219.66 o
1163 4 1 -2 -7 7636.25 9542.25 202.54 o
1163 2 3 -4 -3 7636.25 9542.25 202.54 o
1163 1 -1 2 7 7636.25 9542.25 202.54 o
1164 4 -2 1 7 7636.17 7211.60 168.31 o
1164 2 -4 3 3 7636.17 7211.60 168.31 o
1164 1 2 -1 -7 7636.17 7211.60 168.31 o
1165 4 -1 -2 -7 1829.89 1845.69 125.52 o
1165 2 2 -5 -1 1829.89 1845.69 125.52 o
1165 1 1 2 7 1829.89 1845.69 125.52 o
1166 4 -2 -1 7 1829.91 2230.80 216.80 o
1166 2 -5 2 1 1829.91 2230.80 216.80 o
1166 1 2 1 -7 1829.91 2230.80 216.80 o
1167 4 -3 -2 -7 14877.60 19492.40 302.39 o
1167 2 1 -6 1 14877.60 19492.40 302.39 o
1167 1 3 2 7 14877.60 19492.40 302.39 o
1168 4 -2 -3 7 14876.60 5788.11 302.39 o
1168 2 -6 1 -1 14876.60 5788.11 302.39 o
1168 1 2 3 -7 14876.60 5788.11 302.39 o
1169 4 -5 -2 -7 2.65 213.95 182.57 <
1169 1 5 2 7 2.65 213.95 182.57 <
1170 4 -2 -5 7 2.65 225.36 174.01 <
1170 1 2 5 -7 2.65 225.36 174.01 <
1171 4 -7 -2 -7 2608.99 3417.52 228.21 o
1171 2 -1 -8 5 2608.99 3417.52 228.21 o
1171 1 7 2 7 2608.99 3417.52 228.21 o
1172 4 7 2 7 2608.92 1691.64 222.51 o
1172 2 1 8 -5 2608.92 1691.64 222.51 o
1172 1 -7 -2 -7 2608.92 1691.64 222.51 o
1173 4 -9 -2 -7 336.32 265.30 245.33 <
1173 2 -2 -9 7 336.32 265.30 245.33 <
1173 1 9 2 7 336.32 265.30 245.33 <
1174 4 -2 -9 7 336.31 159.75 245.33 <
1174 2 -9 -2 -7 336.31 159.75 245.33 <
1174 1 2 9 -7 336.31 159.75 245.33 <
1175 4 2 -3 -7 4157.83 4187.75 182.57 o
1175 2 3 -4 -5 4157.83 4187.75 182.57 o
1175 1 -2 3 7 4157.83 4187.75 182.57 o
1176 4 -3 2 7 4157.89 3234.95 159.75 o
1176 2 -4 3 5 4157.89 3234.95 159.75 o
1176 1 3 -2 -7 4157.89 3234.95 159.75 o
1177 4 -2 -3 -7 14876.60 19238.50 208.25 o
1177 2 1 -6 -1 14876.60 19238.50 208.25 o
1177 1 2 3 7 14876.60 19238.50 208.25 o
1178 4 -3 -2 7 14877.60 8831.92 290.97 o
1178 2 -6 1 1 14877.60 8831.92 290.97 o
1178 1 3 2 -7 14877.60 8831.92 290.97 o
1179 4 -4 -3 -7 1324.93 872.92 171.16 o
1179 1 4 3 7 1324.93 872.92 171.16 o
1180 4 -3 -4 7 1324.93 2233.66 162.60 o
1180 1 3 4 -7 1324.93 2233.66 162.60 o
1181 4 -6 -3 -7 5122.76 5266.06 271.01 o
1181 2 -1 -8 3 5122.76 5266.06 271.01 o
1181 1 6 3 7 5122.76 5266.06 271.01 o
1182 4 -3 -6 7 5122.82 4433.08 193.98 o
1182 2 -8 -1 -3 5122.82 4433.08 193.98 o
1182 1 3 6 -7 5122.82 4433.08 193.98 o
1183 4 -8 -3 -7 1003.45 727.44 233.92 o
1183 2 -2 -9 5 1003.45 727.44 233.92 o
1183 1 8 3 7 1003.45 727.44 233.92 o
1184 4 -3 -8 7 1003.42 978.47 231.07 o
1184 2 -9 -2 -5 1003.42 978.47 231.07 o
1184 1 3 8 -7 1003.42 978.47 231.07 o
1185 4 3 -4 -7 3100.72 2316.38 179.72 o
1185 2 3 -4 -7 3100.72 2316.38 179.72 o
1185 1 -3 4 7 3100.72 2316.38 179.72 o
1186 4 -4 3 7 3100.75 2846.98 179.72 o
1186 2 -4 3 7 3100.75 2846.98 179.72 o
1186 1 4 -3 -7 3100.75 2846.98 179.72 o
1187 4 1 -4 -7 3653.79 4170.63 171.16 o
1187 2 2 -5 -5 3653.79 4170.63 171.16 o
1187 1 -1 4 7 3653.79 4170.63 171.16 o
1188 4 -4 1 7 3653.80 4239.10 156.90 o
1188 2 -5 2 5 3653.80 4239.10 156.90 o
1188 1 4 -1 -7 3653.80 4239.10 156.90 o
1189 4 -1 -4 -7 14933.70 13741.40 191.13 o
1189 2 1 -6 -3 14933.70 13741.40 191.13 o
1189 1 1 4 7 14933.70 13741.40 191.13 o
1190 4 -4 -1 7 14933.90 12626.00 299.53 o
1190 2 -6 1 3 14933.90 12626.00 299.53 o
1190 1 4 1 -7 14933.90 12626.00 299.53 o
1191 4 -3 -4 -7 1324.93 921.42 131.22 o
1191 1 3 4 7 1324.93 921.42 131.22 o
1192 4 -4 -3 7 1324.94 1663.12 236.77 o
1192 1 4 3 -7 1324.94 1663.12 236.77 o
1193 4 -5 -4 -7 4908.26 7026.17 196.84 o
1193 2 -1 -8 1 4908.26 7026.17 196.84 o
1193 1 5 4 7 4908.26 7026.17 196.84 o
1194 4 -4 -5 7 4908.66 3540.19 168.31 o
1194 2 -8 -1 -1 4908.66 3540.19 168.31 o
1194 1 4 5 -7 4908.66 3540.19 168.31 o
1195 4 -7 -4 -7 733.12 901.45 233.92 o
1195 2 -2 -9 3 733.12 901.45 233.92 o
1195 1 7 4 7 733.12 901.45 233.92 o
1196 4 -4 -7 7 733.18 542.01 330.91 <
1196 3 2 -5 11 733.18 542.01 330.91 <
1196 2 -9 -2 -3 733.18 542.01 330.91 <
1196 1 4 7 -7 733.18 542.01 330.91 <
1197 4 7 4 7 733.14 927.12 205.39 o
1197 2 2 9 -3 733.14 927.12 205.39 o
1197 1 -7 -4 -7 733.14 927.12 205.39 o
1198 4 4 -5 -7 753.29 596.21 156.90 o
1198 2 3 -4 -9 753.29 596.21 156.90 o
1198 1 -4 5 7 753.29 596.21 156.90 o
1199 4 -5 4 7 753.28 707.47 148.34 o
1199 2 -4 3 9 753.28 707.47 148.34 o
1199 1 5 -4 -7 753.28 707.47 148.34 o
1200 4 2 -5 -7 6.20 -8.56 176.87 <
1200 2 2 -5 -7 6.20 -8.56 176.87 <
1200 1 -2 5 7 6.20 -8.56 176.87 <
1201 4 -5 2 7 6.20 22.82 111.25 <
1201 2 -5 2 7 6.20 22.82 111.25 <
1201 1 5 -2 -7 6.20 22.82 111.25 <
1202 4 -2 -5 -7 2.65 57.05 131.22 <
1202 1 2 5 7 2.65 57.05 131.22 <
1203 4 -5 -2 7 2.65 213.95 231.07 <
1203 1 5 2 -7 2.65 213.95 231.07 <
1204 4 -4 -5 -7 4908.66 7225.86 148.34 o
1204 2 -1 -8 -1 4908.66 7225.86 148.34 o
1204 1 4 5 7 4908.66 7225.86 148.34 o
1205 4 -5 -4 7 4908.26 3628.62 245.33 o
1205 2 -8 -1 1 4908.26 3628.62 245.33 o
1205 1 5 4 -7 4908.26 3628.62 245.33 o
1206 4 -6 -5 -7 857.70 998.44 185.43 o
1206 2 -2 -9 1 857.70 998.44 185.43 o
1206 1 6 5 7 857.70 998.44 185.43 o
1207 4 -5 -6 7 857.83 733.14 159.75 o
1207 2 -9 -2 -1 857.83 733.14 159.75 o
1207 1 5 6 -7 857.83 733.14 159.75 o
1208 4 -8 -5 -7 967.12 1323.65 273.86 o
1208 2 -3 -10 3 967.12 1323.65 273.86 o
1208 1 8 5 7 967.12 1323.65 273.86 o
1209 4 -5 -8 7 967.13 573.39 208.25 o
1209 2 -10 -3 -3 967.13 573.39 208.25 o
1209 1 5 8 -7 967.13 573.39 208.25 o
1210 4 5 -6 -7 383.37 -42.79 168.31 <
1210 2 3 -4 -11 383.37 -42.79 168.31 <
1210 1 -5 6 7 383.37 -42.79 168.31 <
1211 4 -6 5 7 383.36 430.76 156.90 o
1211 2 -4 3 11 383.36 430.76 156.90 o
1211 1 6 -5 -7 383.36 430.76 156.90 o
1212 4 3 -6 -7 1234.06 1289.42 148.34 o
1212 2 2 -5 -9 1234.06 1289.42 148.34 o
1212 1 -3 6 7 1234.06 1289.42 148.34 o
1213 4 -6 3 7 1234.06 1075.46 142.63 o
1213 2 -5 2 9 1234.06 1075.46 142.63 o
1213 1 6 -3 -7 1234.06 1075.46 142.63 o
1214 4 1 -6 -7 6224.18 6678.15 176.87 o
1214 2 1 -6 -7 6224.18 6678.15 176.87 o
1214 1 -1 6 7 6224.18 6678.15 176.87 o
1215 4 -6 1 7 6224.09 6535.51 171.16 o
1215 2 -6 1 7 6224.09 6535.51 171.16 o
1215 1 6 -1 -7 6224.09 6535.51 171.16 o
1216 4 -1 -6 -7 2659.56 2881.22 142.63 o
1216 1 1 6 7 2659.56 2881.22 142.63 o
1217 4 -6 -1 7 2659.55 2792.78 271.01 o
1217 1 6 1 -7 2659.55 2792.78 271.01 o
1218 4 -3 -6 -7 5122.82 4632.77 151.19 o
1218 2 -1 -8 -3 5122.82 4632.77 151.19 o
1218 1 3 6 7 5122.82 4632.77 151.19 o
1219 4 -6 -3 7 5122.77 4173.48 259.60 o
1219 2 -8 -1 3 5122.77 4173.48 259.60 o
1219 1 6 3 -7 5122.77 4173.48 259.60 o
1220 4 -5 -6 -7 857.83 1118.25 145.49 o
1220 2 -2 -9 -1 857.83 1118.25 145.49 o
1220 1 5 6 7 857.83 1118.25 145.49 o
1221 4 -6 -5 7 857.70 601.92 231.07 o
1221 2 -9 -2 1 857.70 601.92 231.07 o
1221 1 6 5 -7 857.70 601.92 231.07 o
1222 4 -7 -6 -7 952.84 1260.89 185.43 o
1222 2 -3 -10 1 952.84 1260.89 185.43 o
1222 1 7 6 7 952.84 1260.89 185.43 o
1223 4 -6 -7 7 958.67 561.98 271.01 o
1223 3 3 -4 13 958.67 561.98 271.01 o
1223 2 -10 -3 -1 958.67 561.98 271.01 o
1223 1 6 7 -7 958.67 561.98 271.01 o
1224 4 6 -7 -7 96.19 42.79 193.98 <
1224 2 3 -4 -13 96.19 42.79 193.98 <
1224 1 -6 7 7 96.19 42.79 193.98 <
1225 4 -7 6 7 96.18 96.99 159.75 <
1225 2 -4 3 13 96.18 96.99 159.75 <
1225 1 7 -6 -7 96.18 96.99 159.75 <
1226 4 4 -7 -7 163.85 228.21 165.46 <
1226 2 2 -5 -11 163.85 228.21 165.46 <
1226 1 -4 7 7 163.85 228.21 165.46 <
1227 4 -7 4 7 163.85 59.91 162.60 <
1227 2 -5 2 11 163.85 59.91 162.60 <
1227 1 7 -4 -7 163.85 59.91 162.60 <
1228 4 2 -7 -7 1571.16 1477.69 179.72 o
1228 2 1 -6 -9 1571.16 1477.69 179.72 o
1228 1 -2 7 7 1571.16 1477.69 179.72 o
1229 4 -7 2 7 1571.16 1797.19 174.01 o
1229 2 -6 1 9 1571.16 1797.19 174.01 o
1229 1 7 -2 -7 1571.16 1797.19 174.01 o
1230 4 -2 -7 -7 2608.92 2692.94 131.22 o
1230 2 -1 -8 -5 2608.92 2692.94 131.22 o
1230 1 2 7 7 2608.92 2692.94 131.22 o
1231 4 -7 -2 7 2608.98 2222.24 225.36 o
1231 2 -8 -1 5 2608.98 2222.24 225.36 o
1231 1 7 2 -7 2608.98 2222.24 225.36 o
1232 4 -4 -7 -7 733.14 673.23 139.78 o
1232 2 -2 -9 -3 733.14 673.23 139.78 o
1232 1 4 7 7 733.14 673.23 139.78 o
1233 4 -7 -4 7 733.12 621.89 231.07 o
1233 2 -9 -2 3 733.12 621.89 231.07 o
1233 1 7 4 -7 733.12 621.89 231.07 o
1234 4 -6 -7 -7 952.91 1295.12 145.49 o
1234 2 -3 -10 -1 952.91 1295.12 145.49 o
1234 1 6 7 7 952.91 1295.12 145.49 o
1235 4 -7 -6 7 952.84 656.12 256.74 o
1235 2 -10 -3 1 952.84 656.12 256.74 o
1235 1 7 6 -7 952.84 656.12 256.74 o
1236 4 5 -8 -7 224.17 191.13 179.72 <
1236 2 2 -5 -13 224.17 191.13 179.72 <
1236 1 -5 8 7 224.17 191.13 179.72 <
1237 4 -8 5 7 224.17 57.05 179.72 <
1237 2 -5 2 13 224.17 57.05 179.72 <
1237 1 8 -5 -7 224.17 57.05 179.72 <
1238 4 3 -8 -7 1120.14 479.25 185.43 o
1238 2 1 -6 -11 1120.14 479.25 185.43 o
1238 1 -3 8 7 1120.14 479.25 185.43 o
1239 4 -8 3 7 1120.13 248.18 182.57 <
1239 2 -6 1 11 1120.13 248.18 182.57 <
1239 1 8 -3 -7 1120.13 248.18 182.57 <
1240 4 1 -8 -7 959.15 744.55 174.01 o
1240 1 -1 8 7 959.15 744.55 174.01 o
1241 4 -8 1 7 959.16 698.91 282.42 o
1241 1 8 -1 -7 959.16 698.91 282.42 o
1242 4 -1 -8 -7 2244.70 713.17 142.63 o
1242 2 -1 -8 -7 2244.70 713.17 142.63 o
1242 1 1 8 7 2244.70 713.17 142.63 o
1243 4 -8 -1 7 2244.73 1611.77 248.18 o
1243 2 -8 -1 7 2244.73 1611.77 248.18 o
1243 1 8 1 -7 2244.73 1611.77 248.18 o
1244 4 -3 -8 -7 1003.43 39.94 139.78 <
1244 2 -2 -9 -5 1003.43 39.94 139.78 <
1244 1 3 8 7 1003.43 39.94 139.78 <
1245 4 -8 -3 7 1003.45 -22.82 222.51 <
1245 2 -9 -2 5 1003.45 -22.82 222.51 <
1245 1 8 3 -7 1003.45 -22.82 222.51 <
1246 4 -5 -8 -7 967.13 895.74 162.60 o
1246 2 -3 -10 -3 967.13 895.74 162.60 o
1246 1 5 8 7 967.13 895.74 162.60 o
1247 4 -8 -5 7 967.12 627.59 239.63 o
1247 2 -10 -3 3 967.12 627.59 239.63 o
1247 1 8 5 -7 967.12 627.59 239.63 o
1248 4 2 -9 -7 143.71 216.80 182.57 <
1248 1 -2 9 7 143.71 216.80 182.57 <
1249 4 -9 2 7 143.71 139.78 296.68 <
1249 1 9 -2 -7 143.71 139.78 296.68 <
1250 4 -2 -9 -7 336.31 176.87 145.49 <
1250 2 -2 -9 -7 336.31 176.87 145.49 <
1250 1 2 9 7 336.31 176.87 145.49 <
1251 4 -9 -2 7 336.32 407.93 225.36 <
1251 2 -9 -2 7 336.32 407.93 225.36 <
1251 1 9 2 -7 336.32 407.93 225.36 <
1252 4 -6 6 -8 14096.90 17344.30 416.49 o
1252 2 4 -4 12 14096.90 17344.30 416.49 o
1252 1 6 -6 8 14096.90 17344.30 416.49 o
1253 4 6 -6 8 13994.10 16502.80 339.47 o
1253 2 -4 4 -12 13994.10 16502.80 339.47 o
1253 1 -6 6 -8 13994.10 16502.80 339.47 o
1254 4 -5 5 -8 8942.37 9448.11 319.50 o
1254 2 4 -4 10 8942.37 9448.11 319.50 o
1254 1 5 -5 8 8942.37 9448.11 319.50 o
1255 4 5 -5 8 7893.56 8692.14 288.12 o
1255 2 -4 4 -10 7893.56 8692.14 288.12 o
1255 1 -5 5 -8 7893.56 8692.14 288.12 o
1256 4 -7 5 -8 15052.10 18693.70 288.12 o
1256 2 3 -5 12 15052.10 18693.70 288.12 o
1256 1 7 -5 8 15052.10 18693.70 288.12 o
1257 4 5 -7 8 14917.60 17917.70 262.45 o
1257 2 -5 3 -12 14917.60 17917.70 262.45 o
1257 1 -5 7 -8 14917.60 17917.70 262.45 o
1258 4 -4 4 -8 40356.40 45218.00 533.45 o
1258 2 4 -4 8 40356.40 45218.00 533.45 o
1258 1 4 -4 8 40356.40 45218.00 533.45 o
1259 4 4 -4 8 39634.20 48347.40 504.93 o
1259 2 -4 4 -8 39634.20 48347.40 504.93 o
1259 1 -4 4 -8 39634.20 48347.40 504.93 o
1260 4 -6 4 -8 10953.30 11584.80 279.56 o
1260 2 3 -5 10 10953.30 11584.80 279.56 o
1260 1 6 -4 8 10953.30 11584.80 279.56 o
1261 4 4 -6 8 9857.81 13464.70 242.48 o
1261 2 -5 3 -10 9857.81 13464.70 242.48 o
1261 1 -4 6 -8 9857.81 13464.70 242.48 o
1262 4 -8 4 -8 9894.67 11242.40 319.50 o
1262 2 2 -6 12 9894.67 11242.40 319.50 o
1262 1 8 -4 8 9894.67 11242.40 319.50 o
1263 4 8 -4 8 9896.16 10209.80 253.89 o
1263 2 -2 6 -12 9896.16 10209.80 253.89 o
1263 1 -8 4 -8 9896.16 10209.80 253.89 o
1264 4 -3 3 -8 27207.80 28190.30 453.58 o
1264 2 4 -4 6 27207.80 28190.30 453.58 o
1264 1 3 -3 8 27207.80 28190.30 453.58 o
1265 4 3 -3 8 25479.20 34871.30 453.58 o
1265 2 -4 4 -6 25479.20 34871.30 453.58 o
1265 1 -3 3 -8 25479.20 34871.30 453.58 o
1266 4 -5 3 -8 42239.20 46410.40 359.44 o
1266 2 3 -5 8 42239.20 46410.40 359.44 o
1266 1 5 -3 8 42239.20 46410.40 359.44 o
1267 4 3 -5 8 41551.50 52352.50 350.88 o
1267 2 -5 3 -8 41551.50 52352.50 350.88 o
1267 1 -3 5 -8 41551.50 52352.50 350.88 o
1268 4 -7 3 -8 7499.10 6275.92 256.74 o
1268 2 2 -6 10 7499.10 6275.92 256.74 o
1268 1 7 -3 8 7499.10 6275.92 256.74 o
1269 4 3 -7 8 7020.67 9642.09 256.74 o
1269 2 -6 2 -10 7020.67 9642.09 256.74 o
1269 1 -3 7 -8 7020.67 9642.09 256.74 o
1270 4 -2 2 -8 96229.70 80448.70 467.84 o
1270 2 4 -4 4 96229.70 80448.70 467.84 o
1270 1 2 -2 8 96229.70 80448.70 467.84 o
1271 4 -4 2 -8 28464.20 30803.30 299.53 o
1271 2 3 -5 6 28464.20 30803.30 299.53 o
1271 1 4 -2 8 28464.20 30803.30 299.53 o
1272 4 2 -4 8 26273.70 35071.00 425.05 o
1272 2 -5 3 -6 26273.70 35071.00 425.05 o
1272 1 -2 4 -8 26273.70 35071.00 425.05 o
1273 4 -6 2 -8 26049.80 28047.60 353.73 o
1273 2 2 -6 8 26049.80 28047.60 353.73 o
1273 1 6 -2 8 26049.80 28047.60 353.73 o
1274 4 2 -6 8 25815.10 32657.60 359.44 o
1274 2 -6 2 -8 25815.10 32657.60 359.44 o
1274 1 -2 6 -8 25815.10 32657.60 359.44 o
1275 4 -8 2 -8 8447.65 6886.39 242.48 o
1275 2 1 -7 10 8447.65 6886.39 242.48 o
1275 1 8 -2 8 8447.65 6886.39 242.48 o
1276 4 8 -2 8 8202.69 12489.10 285.27 o
1276 2 -1 7 -10 8202.69 12489.10 285.27 o
1276 1 -8 2 -8 8202.69 12489.10 285.27 o
1277 4 -1 1 -8 55913.00 51830.50 387.97 o
1277 2 4 -4 2 55913.00 51830.50 387.97 o
1277 1 1 -1 8 55913.00 51830.50 387.97 o
1278 4 -3 1 -8 84437.80 77008.30 473.55 o
1278 2 3 -5 4 84437.80 77008.30 473.55 o
1278 1 3 -1 8 84437.80 77008.30 473.55 o
1279 4 1 -3 8 82991.90 89922.50 621.89 o
1279 2 -5 3 -4 82991.90 89922.50 621.89 o
1279 1 -1 3 -8 82991.90 89922.50 621.89 o
1280 4 -5 1 -8 20285.70 19127.30 342.32 o
1280 2 2 -6 6 20285.70 19127.30 342.32 o
1280 1 5 -1 8 20285.70 19127.30 342.32 o
1281 4 1 -5 8 19606.40 34061.10 290.97 o
1281 2 -6 2 -6 19606.40 34061.10 290.97 o
1281 1 -1 5 -8 19606.40 34061.10 290.97 o
1282 4 -7 1 -8 19939.20 22473.50 305.24 o
1282 2 1 -7 8 19939.20 22473.50 305.24 o
1282 1 7 -1 8 19939.20 22473.50 305.24 o
1283 4 1 -7 8 19859.80 26475.80 305.24 o
1283 2 -7 1 -8 19859.80 26475.80 305.24 o
1283 1 -1 7 -8 19859.80 26475.80 305.24 o
1284 4 -9 1 -8 5084.78 3471.72 265.30 o
1284 2 0 -8 10 5084.78 3471.72 265.30 o
1284 1 9 -1 8 5084.78 3471.72 265.30 o
1285 4 1 -9 8 5208.53 7767.87 239.63 o
1285 2 -8 0 -10 5208.53 7767.87 239.63 o
1285 1 -1 9 -8 5208.53 7767.87 239.63 o
1286 4 0 0 -8 139195.00 118521.00 781.64 o
1286 2 4 -4 0 139195.00 118521.00 781.64 o
1286 1 0 0 8 139195.00 118521.00 781.64 o
1287 4 -2 0 -8 48819.50 47474.40 262.45 o
1287 2 3 -5 2 48819.50 47474.40 262.45 o
1287 1 2 0 8 48819.50 47474.40 262.45 o
1288 4 -4 0 -8 58256.30 54594.80 536.31 o
1288 2 2 -6 4 58256.30 54594.80 536.31 o
1288 1 4 0 8 58256.30 54594.80 536.31 o
1289 4 0 -4 8 58346.50 87620.30 570.54 o
1289 2 -6 2 -4 58346.50 87620.30 570.54 o
1289 1 0 4 -8 58346.50 87620.30 570.54 o
1290 4 -6 0 -8 16851.90 16634.00 316.65 o
1290 2 1 -7 6 16851.90 16634.00 316.65 o
1290 1 6 0 8 16851.90 16634.00 316.65 o
1291 4 0 -6 8 16301.20 30315.50 368.00 o
1291 2 -7 1 -6 16301.20 30315.50 368.00 o
1291 1 0 6 -8 16301.20 30315.50 368.00 o
1292 4 -8 0 -8 9733.89 10594.90 296.68 o
1292 2 0 -8 8 9733.89 10594.90 296.68 o
1292 1 8 0 8 9733.89 10594.90 296.68 o
1293 4 8 0 8 9963.43 12568.90 282.42 o
1293 2 0 8 -8 9963.43 12568.90 282.42 o
1293 1 -8 0 -8 9963.43 12568.90 282.42 o
1294 4 1 -1 -8 54971.20 58517.20 553.42 o
1294 2 4 -4 -2 54971.20 58517.20 553.42 o
1294 1 -1 1 8 54971.20 58517.20 553.42 o
1295 4 -1 1 8 55554.00 63603.60 513.48 o
1295 2 -4 4 2 55554.00 63603.60 513.48 o
1295 1 1 -1 -8 55554.00 63603.60 513.48 o
1296 4 -1 -1 -8 105567.00 95502.30 396.52 o
1296 2 3 -5 0 105567.00 95502.30 396.52 o
1296 1 1 1 8 105567.00 95502.30 396.52 o
1297 4 -1 -1 8 105208.00 78748.50 630.44 o
1297 2 -5 3 0 105208.00 78748.50 630.44 o
1297 1 1 1 -8 105208.00 78748.50 630.44 o
1298 4 -3 -1 -8 40229.80 40026.10 310.94 o
1298 2 2 -6 2 40229.80 40026.10 310.94 o
1298 1 3 1 8 40229.80 40026.10 310.94 o
1299 4 -5 -1 -8 34022.90 36808.20 373.70 o
1299 2 1 -7 4 34022.90 36808.20 373.70 o
1299 1 5 1 8 34022.90 36808.20 373.70 o
1300 4 -1 -5 8 33534.90 46176.50 416.49 o
1300 2 -7 1 -4 33534.90 46176.50 416.49 o
1300 1 1 5 -8 33534.90 46176.50 416.49 o
1301 4 -7 -1 -8 11130.60 8948.89 293.83 o
1301 2 0 -8 6 11130.60 8948.89 293.83 o
1301 1 7 1 8 11130.60 8948.89 293.83 o
1302 4 -1 -7 8 11499.90 23452.00 322.35 o
1302 2 -8 0 -6 11499.90 23452.00 322.35 o
1302 1 1 7 -8 11499.90 23452.00 322.35 o
1303 4 -9 -1 -8 7513.04 8409.73 279.56 o
1303 2 -1 -9 8 7513.04 8409.73 279.56 o
1303 1 9 1 8 7513.04 8409.73 279.56 o
1304 4 -1 -9 8 7601.42 10075.70 271.01 o
1304 2 -9 -1 -8 7601.42 10075.70 271.01 o
1304 1 1 9 -8 7601.42 10075.70 271.01 o
1305 4 2 -2 -8 95147.30 48410.10 821.57 o
1305 2 4 -4 -4 95147.30 48410.10 821.57 o
1305 1 -2 2 8 95147.30 48410.10 821.57 o
1306 4 -2 2 8 96925.30 87814.30 584.80 o
1306 2 -4 4 4 96925.30 87814.30 584.80 o
1306 1 2 -2 -8 96925.30 87814.30 584.80 o
1307 4 0 -2 -8 47882.20 42513.60 402.23 o
1307 2 3 -5 -2 47882.20 42513.60 402.23 o
1307 1 0 2 8 47882.20 42513.60 402.23 o
1308 4 -2 0 8 48039.10 33057.00 405.08 o
1308 2 -5 3 2 48039.10 33057.00 405.08 o
1308 1 2 0 -8 48039.10 33057.00 405.08 o
1309 4 -2 -2 -8 82714.80 72310.00 402.23 o
1309 2 2 -6 0 82714.80 72310.00 402.23 o
1309 1 2 2 8 82714.80 72310.00 402.23 o
1310 4 -2 -2 8 83410.50 71322.90 624.74 o
1310 2 -6 2 0 83410.50 71322.90 624.74 o
1310 1 2 2 -8 83410.50 71322.90 624.74 o
1311 4 -4 -2 -8 23102.80 24718.60 350.88 o
1311 2 1 -7 2 23102.80 24718.60 350.88 o
1311 1 4 2 8 23102.80 24718.60 350.88 o
1312 4 -2 -4 8 22551.90 24561.70 507.78 o
1312 2 -7 1 -2 22551.90 24561.70 507.78 o
1312 1 2 4 -8 22551.90 24561.70 507.78 o
1313 4 -6 -2 -8 18744.50 19883.20 302.39 o
1313 2 0 -8 4 18744.50 19883.20 302.39 o
1313 1 6 2 8 18744.50 19883.20 302.39 o
1314 4 -2 -6 8 19218.60 34580.30 368.00 o
1314 2 -8 0 -4 19218.60 34580.30 368.00 o
1314 1 2 6 -8 19218.60 34580.30 368.00 o
1315 4 -8 -2 -8 8336.89 7782.14 273.86 o
1315 2 -1 -9 6 8336.89 7782.14 273.86 o
1315 1 8 2 8 8336.89 7782.14 273.86 o
1316 4 8 2 8 8406.02 15940.80 296.68 o
1316 2 1 9 -6 8406.02 15940.80 296.68 o
1316 1 -8 -2 -8 8406.02 15940.80 296.68 o
1317 4 3 -3 -8 25947.00 39258.70 436.46 o
1317 2 4 -4 -6 25947.00 39258.70 436.46 o
1317 1 -3 3 8 25947.00 39258.70 436.46 o
1318 4 -3 3 8 26740.10 31373.90 370.85 o
1318 2 -4 4 6 26740.10 31373.90 370.85 o
1318 1 3 -3 -8 26740.10 31373.90 370.85 o
1319 4 1 -3 -8 83041.20 57299.10 539.16 o
1319 2 3 -5 -4 83041.20 57299.10 539.16 o
1319 1 -1 3 8 83041.20 57299.10 539.16 o
1320 4 -3 1 8 84388.50 78277.80 385.11 o
1320 2 -5 3 4 84388.50 78277.80 385.11 o
1320 1 3 -1 -8 84388.50 78277.80 385.11 o
1321 4 -1 -3 -8 39851.60 39030.50 313.80 o
1321 2 2 -6 -2 39851.60 39030.50 313.80 o
1321 1 1 3 8 39851.60 39030.50 313.80 o
1322 4 -3 -1 8 40180.50 49494.20 473.55 o
1322 2 -6 2 2 40180.50 49494.20 473.55 o
1322 1 3 1 -8 40180.50 49494.20 473.55 o
1323 4 -3 -3 -8 39704.90 44521.90 330.91 o
1323 2 1 -7 0 39704.90 44521.90 330.91 o
1323 1 3 3 8 39704.90 44521.90 330.91 o
1324 4 -3 -3 8 39237.20 32292.40 470.69 o
1324 2 -7 1 0 39237.20 32292.40 470.69 o
1324 1 3 3 -8 39237.20 32292.40 470.69 o
1325 4 -5 -3 -8 20552.30 17760.80 305.24 o
1325 2 0 -8 2 20552.30 17760.80 305.24 o
1325 1 5 3 8 20552.30 17760.80 305.24 o
1326 4 -3 -5 8 20954.70 38656.80 359.44 o
1326 2 -8 0 -2 20954.70 38656.80 359.44 o
1326 1 3 5 -8 20954.70 38656.80 359.44 o
1327 4 -7 -3 -8 10699.20 13162.30 285.27 o
1327 2 -1 -9 4 10699.20 13162.30 285.27 o
1327 1 7 3 8 10699.20 13162.30 285.27 o
1328 4 -3 -7 8 10608.30 16639.70 293.83 o
1328 2 -9 -1 -4 10608.30 16639.70 293.83 o
1328 1 3 7 -8 10608.30 16639.70 293.83 o
1329 4 4 -4 -8 39392.90 57379.00 473.55 o
1329 2 4 -4 -8 39392.90 57379.00 473.55 o
1329 1 -4 4 8 39392.90 57379.00 473.55 o
1330 4 -4 4 8 40597.70 40656.50 288.12 o
1330 2 -4 4 8 40597.70 40656.50 288.12 o
1330 1 4 -4 -8 40597.70 40656.50 288.12 o
1331 4 2 -4 -8 26622.80 29907.60 302.39 o
1331 2 3 -5 -6 26622.80 29907.60 302.39 o
1331 1 -2 4 8 26622.80 29907.60 302.39 o
1332 4 -4 2 8 28115.10 24752.80 290.97 o
1332 2 -5 3 6 28115.10 24752.80 290.97 o
1332 1 4 -2 -8 28115.10 24752.80 290.97 o
1333 4 0 -4 -8 57948.40 41586.50 479.25 o
1333 2 2 -6 -4 57948.40 41586.50 479.25 o
1333 1 0 4 8 57948.40 41586.50 479.25 o
1334 4 -4 0 8 58654.40 66330.70 530.60 o
1334 2 -6 2 4 58654.40 66330.70 530.60 o
1334 1 4 0 -8 58654.40 66330.70 530.60 o
1335 4 -2 -4 -8 22901.10 18682.30 251.04 o
1335 2 1 -7 -2 22901.10 18682.30 251.04 o
1335 1 2 4 8 22901.10 18682.30 251.04 o
1336 4 -4 -2 8 22753.60 25466.00 368.00 o
1336 2 -7 1 2 22753.60 25466.00 368.00 o
1336 1 4 2 -8 22753.60 25466.00 368.00 o
1337 4 -4 -4 -8 25830.70 23246.60 259.60 o
1337 2 0 -8 0 25830.70 23246.60 259.60 o
1337 1 4 4 8 25830.70 23246.60 259.60 o
1338 4 -4 -4 8 26072.00 32215.40 459.28 o
1338 2 -8 0 0 26072.00 32215.40 459.28 o
1338 1 4 4 -8 26072.00 32215.40 459.28 o
1339 4 -6 -4 -8 9442.68 9479.49 251.04 o
1339 2 -1 -9 2 9442.68 9479.49 251.04 o
1339 1 6 4 8 9442.68 9479.49 251.04 o
1340 4 -4 -6 8 9363.55 12717.30 248.18 o
1340 2 -9 -1 -2 9363.55 12717.30 248.18 o
1340 1 4 6 -8 9363.55 12717.30 248.18 o
1341 4 -8 -4 -8 6573.65 6983.38 308.09 o
1341 2 -2 -10 4 6573.65 6983.38 308.09 o
1341 1 8 4 8 6573.65 6983.38 308.09 o
1342 4 8 4 8 6859.86 12163.90 328.06 o
1342 2 2 10 -4 6859.86 12163.90 328.06 o
1342 1 -8 -4 -8 6859.86 12163.90 328.06 o
1343 4 5 -5 -8 8232.28 10321.00 288.12 o
1343 2 4 -4 -10 8232.28 10321.00 288.12 o
1343 1 -5 5 8 8232.28 10321.00 288.12 o
1344 4 -5 5 8 8603.65 8817.66 296.68 o
1344 2 -4 4 10 8603.65 8817.66 296.68 o
1344 1 5 -5 -8 8603.65 8817.66 296.68 o
1345 4 3 -5 -8 41321.70 19101.60 416.49 o
1345 2 3 -5 -8 41321.70 19101.60 416.49 o
1345 1 -3 5 8 41321.70 19101.60 416.49 o
1346 4 -5 3 8 42468.90 34680.10 328.06 o
1346 2 -5 3 8 42468.90 34680.10 328.06 o
1346 1 5 -3 -8 42468.90 34680.10 328.06 o
1347 4 1 -5 -8 19836.30 16323.10 302.39 o
1347 2 2 -6 -6 19836.30 16323.10 302.39 o
1347 1 -1 5 8 19836.30 16323.10 302.39 o
1348 4 -5 1 8 20055.80 23848.50 268.15 o
1348 2 -6 2 6 20055.80 23848.50 268.15 o
1348 1 5 -1 -8 20055.80 23848.50 268.15 o
1349 4 -1 -5 -8 33764.80 38174.70 231.07 o
1349 2 1 -7 -4 33764.80 38174.70 231.07 o
1349 1 1 5 8 33764.80 38174.70 231.07 o
1350 4 -5 -1 8 33793.00 35339.10 410.79 o
1350 2 -7 1 4 33793.00 35339.10 410.79 o
1350 1 5 1 -8 33793.00 35339.10 410.79 o
1351 4 -3 -5 -8 20725.00 14180.70 231.07 o
1351 2 0 -8 -2 20725.00 14180.70 231.07 o
1351 1 3 5 8 20725.00 14180.70 231.07 o
1352 4 -5 -3 8 20782.10 28706.60 385.11 o
1352 2 -8 0 2 20782.10 28706.60 385.11 o
1352 1 5 3 -8 20782.10 28706.60 385.11 o
1353 4 -5 -5 -8 11643.30 13818.40 199.69 o
1353 2 -1 -9 0 11643.30 13818.40 199.69 o
1353 1 5 5 8 11643.30 13818.40 199.69 o
1354 4 -5 -5 8 11304.60 9827.51 302.39 o
1354 2 -9 -1 0 11304.60 9827.51 302.39 o
1354 1 5 5 -8 11304.60 9827.51 302.39 o
1355 4 -7 -5 -8 8669.11 6672.44 251.04 o
1355 2 -2 -10 2 8669.11 6672.44 251.04 o
1355 1 7 5 8 8669.11 6672.44 251.04 o
1356 4 -5 -7 8 8976.67 13613.00 251.04 o
1356 2 -10 -2 -2 8976.67 13613.00 251.04 o
1356 1 5 7 -8 8976.67 13613.00 251.04 o
1357 4 6 -6 -8 13874.10 18964.70 350.88 o
1357 2 4 -4 -12 13874.10 18964.70 350.88 o
1357 1 -6 6 8 13874.10 18964.70 350.88 o
1358 4 -6 6 8 14217.00 11553.40 336.62 o
1358 2 -4 4 12 14217.00 11553.40 336.62 o
1358 1 6 -6 -8 14217.00 11553.40 336.62 o
1359 4 4 -6 -8 9986.72 7616.68 225.36 o
1359 2 3 -5 -10 9986.72 7616.68 225.36 o
1359 1 -4 6 8 9986.72 7616.68 225.36 o
1360 4 -6 4 8 10824.40 12936.90 222.51 o
1360 2 -5 3 10 10824.40 12936.90 222.51 o
1360 1 6 -4 -8 10824.40 12936.90 222.51 o
1361 4 2 -6 -8 25736.70 7893.39 339.47 o
1361 2 2 -6 -8 25736.70 7893.39 339.47 o
1361 1 -2 6 8 25736.70 7893.39 339.47 o
1362 4 -6 2 8 26128.20 31345.30 202.54 o
1362 2 -6 2 8 26128.20 31345.30 202.54 o
1362 1 6 -2 -8 26128.20 31345.30 202.54 o
1363 4 0 -6 -8 16362.50 22362.20 196.84 o
1363 2 1 -7 -6 16362.50 22362.20 196.84 o
1363 1 0 6 8 16362.50 22362.20 196.84 o
1364 4 -6 0 8 16790.60 17572.60 402.23 o
1364 2 -7 1 6 16790.60 17572.60 402.23 o
1364 1 6 0 -8 16790.60 17572.60 402.23 o
1365 4 -2 -6 -8 19140.20 7251.54 248.18 o
1365 2 0 -8 -4 19140.20 7251.54 248.18 o
1365 1 2 6 8 19140.20 7251.54 248.18 o
1366 4 -6 -2 8 18822.90 22162.50 368.00 o
1366 2 -8 0 4 18822.90 22162.50 368.00 o
1366 1 6 2 -8 18822.90 22162.50 368.00 o
1367 4 -4 -6 -8 9492.45 6027.73 191.13 o
1367 2 -1 -9 -2 9492.45 6027.73 191.13 o
1367 1 4 6 8 9492.45 6027.73 191.13 o
1368 4 -6 -4 8 9313.78 9656.35 302.39 o
1368 2 -9 -1 2 9313.78 9656.35 302.39 o
1368 1 6 4 -8 9313.78 9656.35 302.39 o
1369 4 -6 -6 -8 8913.11 6569.74 205.39 o
1369 2 -2 -10 0 8913.11 6569.74 205.39 o
1369 1 6 6 8 8913.11 6569.74 205.39 o
1370 4 -6 -6 8 9033.15 10258.30 362.29 o
1370 2 -10 -2 0 9033.15 10258.30 362.29 o
1370 1 6 6 -8 9033.15 10258.30 362.29 o
1371 4 5 -7 -8 14749.20 13065.30 262.45 o
1371 2 3 -5 -12 14749.20 13065.30 262.45 o
1371 1 -5 7 8 14749.20 13065.30 262.45 o
1372 4 -7 5 8 15220.50 12623.10 225.36 o
1372 2 -5 3 12 15220.50 12623.10 225.36 o
1372 1 7 -5 -8 15220.50 12623.10 225.36 o
1373 4 3 -7 -8 7215.53 1882.77 233.92 o
1373 2 2 -6 -10 7215.53 1882.77 233.92 o
1373 1 -3 7 8 7215.53 1882.77 233.92 o
1374 4 -7 3 8 7304.25 5143.40 196.84 o
1374 2 -6 2 10 7304.25 5143.40 196.84 o
1374 1 7 -3 -8 7304.25 5143.40 196.84 o
1375 4 1 -7 -8 19833.30 27579.80 256.74 o
1375 2 1 -7 -8 19833.30 27579.80 256.74 o
1375 1 -1 7 8 19833.30 27579.80 256.74 o
1376 4 -7 1 8 19965.70 19635.10 365.14 o
1376 2 -7 1 8 19965.70 19635.10 365.14 o
1376 1 7 -1 -8 19965.70 19635.10 365.14 o
1377 4 -1 -7 -8 11473.40 7933.33 176.87 o
1377 2 0 -8 -6 11473.40 7933.33 176.87 o
1377 1 1 7 8 11473.40 7933.33 176.87 o
1378 4 -7 -1 8 11157.20 10677.60 308.09 o
1378 2 -8 0 6 11157.20 10677.60 308.09 o
1378 1 7 1 -8 11157.20 10677.60 308.09 o
1379 4 -3 -7 -8 10803.20 8706.41 179.72 o
1379 2 -1 -9 -4 10803.20 8706.41 179.72 o
1379 1 3 7 8 10803.20 8706.41 179.72 o
1380 4 -7 -3 8 10504.40 7314.29 302.39 o
1380 2 -9 -1 4 10504.40 7314.29 302.39 o
1380 1 7 3 -8 10504.40 7314.29 302.39 o
1381 4 -5 -7 -8 8808.28 3588.68 199.69 o
1381 2 -2 -10 -2 8808.28 3588.68 199.69 o
1381 1 5 7 8 8808.28 3588.68 199.69 o
1382 4 -7 -5 8 8837.49 8943.18 285.27 o
1382 2 -10 -2 2 8837.49 8943.18 285.27 o
1382 1 7 5 -8 8837.49 8943.18 285.27 o
1383 4 4 -8 -8 9864.32 4732.61 248.18 o
1383 2 2 -6 -12 9864.32 4732.61 248.18 o
1383 1 -4 8 8 9864.32 4732.61 248.18 o
1384 4 -8 4 8 9926.51 8943.18 242.48 o
1384 2 -6 2 12 9926.51 8943.18 242.48 o
1384 1 8 -4 -8 9926.51 8943.18 242.48 o
1385 4 2 -8 -8 8169.04 8152.98 219.66 o
1385 2 1 -7 -10 8169.04 8152.98 219.66 o
1385 1 -2 8 8 8169.04 8152.98 219.66 o
1386 4 -8 2 8 8481.30 5793.81 205.39 o
1386 2 -7 1 10 8481.30 5793.81 205.39 o
1386 1 8 -2 -8 8481.30 5793.81 205.39 o
1387 4 0 -8 -8 10040.10 7571.04 171.16 o
1387 2 0 -8 -8 10040.10 7571.04 171.16 o
1387 1 0 8 8 10040.10 7571.04 171.16 o
1388 4 -8 0 8 9657.20 10480.80 273.86 o
1388 2 -8 0 8 9657.20 10480.80 273.86 o
1388 1 8 0 -8 9657.20 10480.80 273.86 o
1389 4 -2 -8 -8 8372.38 1965.50 171.16 o
1389 2 -1 -9 -6 8372.38 1965.50 171.16 o
1389 1 2 8 8 8372.38 1965.50 171.16 o
1390 4 -8 -2 8 8370.55 4829.60 325.21 o
1390 2 -9 -1 6 8370.55 4829.60 325.21 o
1390 1 8 2 -8 8370.55 4829.60 325.21 o
1391 4 -4 -8 -8 6828.02 3628.62 165.46 o
1391 2 -2 -10 -4 6828.02 3628.62 165.46 o
1391 1 4 8 8 6828.02 3628.62 165.46 o
1392 4 -8 -4 8 6605.49 5856.57 282.42 o
1392 2 -10 -2 4 6605.49 5856.57 282.42 o
1392 1 8 4 -8 6605.49 5856.57 282.42 o
1393 4 1 -9 -8 5238.06 -593.36 165.46 <
1393 2 0 -8 -10 5238.06 -593.36 165.46 <
1393 1 -1 9 8 5238.06 -593.36 165.46 <
1394 4 -9 1 8 5055.25 1380.70 268.15 o
1394 2 -8 0 10 5055.25 1380.70 268.15 o
1394 1 9 -1 -8 5055.25 1380.70 268.15 o
1395 4 -1 -9 -8 7630.95 4903.77 165.46 o
1395 2 -1 -9 -8 7630.95 4903.77 165.46 o
1395 1 1 9 8 7630.95 4903.77 165.46 o
1396 4 -9 -1 8 7483.51 6147.54 279.56 o
1396 2 -9 -1 8 7483.51 6147.54 279.56 o
1396 1 9 1 -8 7483.51 6147.54 279.56 o
1397 4 -6 5 -9 69.67 42.79 196.84 <
1397 2 4 -5 11 69.67 42.79 196.84 <
1397 1 6 -5 9 69.67 42.79 196.84 <
1398 4 5 -6 9 69.67 119.81 165.46 <
1398 2 -5 4 -11 69.67 119.81 165.46 <
1398 1 -5 6 -9 69.67 119.81 165.46 <
1399 4 -5 4 -9 38.36 62.76 171.16 <
1399 2 4 -5 9 38.36 62.76 171.16 <
1399 1 5 -4 9 38.36 62.76 171.16 <
1400 4 4 -5 9 38.35 11.41 199.69 <
1400 2 -5 4 -9 38.35 11.41 199.69 <
1400 1 -4 5 -9 38.35 11.41 199.69 <
1401 4 -7 4 -9 297.93 416.49 245.33 <
1401 2 3 -6 11 297.93 416.49 245.33 <
1401 1 7 -4 9 297.93 416.49 245.33 <
1402 4 4 -7 9 297.94 125.52 202.54 <
1402 2 -6 3 -11 297.94 125.52 202.54 <
1402 1 -4 7 -9 297.94 125.52 202.54 <
1403 4 -4 3 -9 586.21 185.43 136.93 <
1403 2 4 -5 7 586.21 185.43 136.93 <
1403 1 4 -3 9 586.21 185.43 136.93 <
1404 4 3 -4 9 586.22 887.19 213.95 o
1404 2 -5 4 -7 586.22 887.19 213.95 o
1404 1 -3 4 -9 586.22 887.19 213.95 o
1405 4 -6 3 -9 1188.55 1109.70 191.13 o
1405 2 3 -6 9 1188.55 1109.70 191.13 o
1405 1 6 -3 9 1188.55 1109.70 191.13 o
1406 4 3 -6 9 1188.55 1218.10 171.16 o
1406 2 -6 3 -9 1188.55 1218.10 171.16 o
1406 1 -3 6 -9 1188.55 1218.10 171.16 o
1407 4 -8 3 -9 290.21 199.69 211.10 <
1407 2 2 -7 11 290.21 199.69 211.10 <
1407 1 8 -3 9 290.21 199.69 211.10 <
1408 4 3 -8 9 290.21 316.65 216.80 <
1408 2 -7 2 -11 290.21 316.65 216.80 <
1408 1 -3 8 -9 290.21 316.65 216.80 <
1409 4 -3 2 -9 328.58 225.36 99.84 o
1409 2 4 -5 5 328.58 225.36 99.84 o
1409 1 3 -2 9 328.58 225.36 99.84 o
1410 4 -5 2 -9 1654.25 2168.04 213.95 o
1410 2 3 -6 7 1654.25 2168.04 213.95 o
1410 1 5 -2 9 1654.25 2168.04 213.95 o
1411 4 2 -5 9 1654.22 673.23 179.72 o
1411 2 -6 3 -7 1654.22 673.23 179.72 o
1411 1 -2 5 -9 1654.22 673.23 179.72 o
1412 4 -7 2 -9 113.66 125.52 182.57 <
1412 2 2 -7 9 113.66 125.52 182.57 <
1412 1 7 -2 9 113.66 125.52 182.57 <
1413 4 2 -7 9 113.65 213.95 188.28 <
1413 2 -7 2 -9 113.65 213.95 188.28 <
1413 1 -2 7 -9 113.65 213.95 188.28 <
1414 4 -2 1 -9 867.51 499.22 105.55 o
1414 2 4 -5 3 867.51 499.22 105.55 o
1414 1 2 -1 9 867.51 499.22 105.55 o
1415 4 -4 1 -9 4704.46 4869.54 174.01 o
1415 2 3 -6 5 4704.46 4869.54 174.01 o
1415 1 4 -1 9 4704.46 4869.54 174.01 o
1416 4 1 -4 9 4704.40 4886.66 236.77 o
1416 2 -6 3 -5 4704.40 4886.66 236.77 o
1416 1 -1 4 -9 4704.40 4886.66 236.77 o
1417 4 -6 1 -9 1242.60 744.55 188.28 o
1417 2 2 -7 7 1242.60 744.55 188.28 o
1417 1 6 -1 9 1242.60 744.55 188.28 o
1418 4 1 -6 9 1242.62 2128.11 216.80 o
1418 2 -7 2 -7 1242.62 2128.11 216.80 o
1418 1 -1 6 -9 1242.62 2128.11 216.80 o
1419 4 -8 1 -9 942.58 696.06 228.21 o
1419 2 1 -8 9 942.58 696.06 228.21 o
1419 1 8 -1 9 942.58 696.06 228.21 o
1420 4 1 -8 9 942.58 647.56 188.28 o
1420 2 -8 1 -9 942.58 647.56 188.28 o
1420 1 -1 8 -9 942.58 647.56 188.28 o
1421 4 -2 -1 -9 7201.94 8617.97 162.60 o
1421 2 3 -6 1 7201.94 8617.97 162.60 o
1421 1 2 1 9 7201.94 8617.97 162.60 o
1422 4 -1 -2 9 7202.23 3782.67 253.89 o
1422 2 -6 3 -1 7202.23 3782.67 253.89 o
1422 1 1 2 -9 7202.23 3782.67 253.89 o
1423 4 -4 -1 -9 1928.30 1403.52 156.90 o
1423 2 2 -7 3 1928.30 1403.52 156.90 o
1423 1 4 1 9 1928.30 1403.52 156.90 o
1424 4 -6 -1 -9 3578.91 3457.46 211.10 o
1424 2 1 -8 5 3578.91 3457.46 211.10 o
1424 1 6 1 9 3578.91 3457.46 211.10 o
1425 4 -1 -6 9 3578.85 3346.20 213.95 o
1425 2 -8 1 -5 3578.85 3346.20 213.95 o
1425 1 1 6 -9 3578.85 3346.20 213.95 o
1426 4 -8 -1 -9 402.76 -96.99 268.15 <
1426 1 8 1 9 402.76 -96.99 268.15 <
1427 4 -1 -8 9 402.76 584.80 211.10 o
1427 1 1 8 -9 402.76 584.80 211.10 o
1428 4 1 -2 -9 867.49 607.62 159.75 o
1428 2 4 -5 -3 867.49 607.62 159.75 o
1428 1 -1 2 9 867.49 607.62 159.75 o
1429 4 -2 1 9 867.51 1035.53 148.34 o
1429 2 -5 4 3 867.51 1035.53 148.34 o
1429 1 2 -1 -9 867.51 1035.53 148.34 o
1430 4 -1 -2 -9 7202.25 8275.65 154.04 o
1430 2 3 -6 -1 7202.25 8275.65 154.04 o
1430 1 1 2 9 7202.25 8275.65 154.04 o
1431 4 -2 -1 9 7201.92 3237.80 233.92 o
1431 2 -6 3 1 7201.92 3237.80 233.92 o
1431 1 2 1 -9 7201.92 3237.80 233.92 o
1432 4 -3 -2 -9 830.48 1123.96 128.37 o
1432 2 2 -7 1 830.48 1123.96 128.37 o
1432 1 3 2 9 830.48 1123.96 128.37 o
1433 4 -2 -3 9 830.22 610.47 208.25 o
1433 2 -7 2 -1 830.22 610.47 208.25 o
1433 1 2 3 -9 830.22 610.47 208.25 o
1434 4 -5 -2 -9 3893.74 5191.89 262.45 o
1434 2 1 -8 3 3893.74 5191.89 262.45 o
1434 1 5 2 9 3893.74 5191.89 262.45 o
1435 4 -2 -5 9 3893.80 2724.32 208.25 o
1435 2 -8 1 -3 3893.80 2724.32 208.25 o
1435 1 2 5 -9 3893.80 2724.32 208.25 o
1436 4 -7 -2 -9 48.56 182.57 202.54 <
1436 1 7 2 9 48.56 182.57 202.54 <
1437 4 -2 -7 9 48.57 182.57 205.39 <
1437 1 2 7 -9 48.57 182.57 205.39 <
1438 4 2 -3 -9 328.60 105.55 165.46 <
1438 2 4 -5 -5 328.60 105.55 165.46 <
1438 1 -2 3 9 328.60 105.55 165.46 <
1439 4 -3 2 9 328.58 308.09 145.49 o
1439 2 -5 4 5 328.58 308.09 145.49 o
1439 1 3 -2 -9 328.58 308.09 145.49 o
1440 4 -2 -3 -9 830.22 921.42 125.52 o
1440 2 2 -7 -1 830.22 921.42 125.52 o
1440 1 2 3 9 830.22 921.42 125.52 o
1441 4 -3 -2 9 830.48 507.78 188.28 o
1441 2 -7 2 1 830.48 507.78 188.28 o
1441 1 3 2 -9 830.48 507.78 188.28 o
1442 4 -4 -3 -9 5404.01 7619.53 159.75 o
1442 2 1 -8 1 5404.01 7619.53 159.75 o
1442 1 4 3 9 5404.01 7619.53 159.75 o
1443 4 -3 -4 9 5404.41 2561.71 268.15 o
1443 2 -8 1 -1 5404.41 2561.71 268.15 o
1443 1 3 4 -9 5404.41 2561.71 268.15 o
1444 4 -6 -3 -9 507.86 288.12 208.25 <
1444 1 6 3 9 507.86 288.12 208.25 <
1445 4 -3 -6 9 507.86 890.04 222.51 o
1445 1 3 6 -9 507.86 890.04 222.51 o
1446 4 -8 -3 -9 697.02 484.96 273.86 <
1446 2 -1 -10 5 697.02 484.96 273.86 <
1446 1 8 3 9 697.02 484.96 273.86 <
1447 4 -3 -8 9 697.03 616.18 271.01 o
1447 2 -10 -1 -5 697.03 616.18 271.01 o
1447 1 3 8 -9 697.03 616.18 271.01 o
1448 4 3 -4 -9 586.22 556.27 154.04 o
1448 2 4 -5 -7 586.22 556.27 154.04 o
1448 1 -3 4 9 586.22 556.27 154.04 o
1449 4 -4 3 9 586.21 302.39 128.37 o
1449 2 -5 4 7 586.21 302.39 128.37 o
1449 1 4 -3 -9 586.21 302.39 128.37 o
1450 4 1 -4 -9 4704.40 3514.51 193.98 o
1450 2 3 -6 -5 4704.40 3514.51 193.98 o
1450 1 -1 4 9 4704.40 3514.51 193.98 o
1451 4 -4 1 9 4704.45 4418.81 162.60 o
1451 2 -6 3 5 4704.45 4418.81 162.60 o
1451 1 4 -1 -9 4704.45 4418.81 162.60 o
1452 4 -1 -4 -9 1928.26 1480.55 128.37 o
1452 2 2 -7 -3 1928.26 1480.55 128.37 o
1452 1 1 4 9 1928.26 1480.55 128.37 o
1453 4 -4 -1 9 1928.30 2008.29 225.36 o
1453 2 -7 2 3 1928.30 2008.29 225.36 o
1453 1 4 1 -9 1928.30 2008.29 225.36 o
1454 4 -3 -4 -9 5404.41 7014.76 159.75 o
1454 2 1 -8 -1 5404.41 7014.76 159.75 o
1454 1 3 4 9 5404.41 7014.76 159.75 o
1455 4 -4 -3 9 5404.01 3403.26 225.36 o
1455 2 -8 1 1 5404.01 3403.26 225.36 o
1455 1 4 3 -9 5404.01 3403.26 225.36 o
1456 4 -5 -4 -9 16.39 85.58 139.78 <
1456 1 5 4 9 16.39 85.58 139.78 <
1457 4 -4 -5 9 16.39 37.08 245.33 <
1457 1 4 5 -9 16.39 37.08 245.33 <
1458 4 -7 -4 -9 727.69 878.63 242.48 o
1458 2 -1 -10 3 727.69 878.63 242.48 o
1458 1 7 4 9 727.69 878.63 242.48 o
1459 4 -4 -7 9 727.69 516.34 245.33 o
1459 2 -10 -1 -3 727.69 516.34 245.33 o
1459 1 4 7 -9 727.69 516.34 245.33 o
1460 4 4 -5 -9 38.35 39.94 159.75 <
1460 2 4 -5 -9 38.35 39.94 159.75 <
1460 1 -4 5 9 38.35 39.94 159.75 <
1461 4 -5 4 9 38.35 -57.05 148.34 <
1461 2 -5 4 9 38.35 -57.05 148.34 <
1461 1 5 -4 -9 38.35 -57.05 148.34 <
1462 4 2 -5 -9 1654.23 1623.18 165.46 o
1462 2 3 -6 -7 1654.23 1623.18 165.46 o
1462 1 -2 5 9 1654.23 1623.18 165.46 o
1463 4 -5 2 9 1654.24 1483.40 151.19 o
1463 2 -6 3 7 1654.24 1483.40 151.19 o
1463 1 5 -2 -9 1654.24 1483.40 151.19 o
1464 4 -2 -5 -9 3893.80 4849.57 139.78 o
1464 2 1 -8 -3 3893.80 4849.57 139.78 o
1464 1 2 5 9 3893.80 4849.57 139.78 o
1465 4 -5 -2 9 3893.74 2621.62 239.63 o
1465 2 -8 1 3 3893.74 2621.62 239.63 o
1465 1 5 2 -9 3893.74 2621.62 239.63 o
1466 4 -4 -5 -9 16.39 31.38 125.52 <
1466 1 4 5 9 16.39 31.38 125.52 <
1467 4 -5 -4 9 16.39 168.31 202.54 <
1467 1 5 4 -9 16.39 168.31 202.54 <
1468 4 -6 -5 -9 880.41 1278.00 154.04 o
1468 2 -1 -10 1 880.41 1278.00 154.04 o
1468 1 6 5 9 880.41 1278.00 154.04 o
1469 4 -5 -6 9 880.36 593.36 256.74 o
1469 2 -10 -1 -1 880.36 593.36 256.74 o
1469 1 5 6 -9 880.36 593.36 256.74 o
1470 4 5 -6 -9 69.67 136.93 188.28 <
1470 2 4 -5 -11 69.67 136.93 188.28 <
1470 1 -5 6 9 69.67 136.93 188.28 <
1471 4 -6 5 9 69.67 -39.94 165.46 <
1471 2 -5 4 11 69.67 -39.94 165.46 <
1471 1 6 -5 -9 69.67 -39.94 165.46 <
1472 4 3 -6 -9 1188.55 159.75 176.87 <
1472 2 3 -6 -9 1188.55 159.75 176.87 <
1472 1 -3 6 9 1188.55 159.75 176.87 <
1473 4 -6 3 9 1188.55 516.34 174.01 o
1473 2 -6 3 9 1188.55 516.34 174.01 o
1473 1 6 -3 -9 1188.55 516.34 174.01 o
1474 4 1 -6 -9 1242.62 858.66 182.57 o
1474 2 2 -7 -7 1242.62 858.66 182.57 o
1474 1 -1 6 9 1242.62 858.66 182.57 o
1475 4 -6 1 9 1242.60 981.33 165.46 o
1475 2 -7 2 7 1242.60 981.33 165.46 o
1475 1 6 -1 -9 1242.60 981.33 165.46 o
1476 4 -1 -6 -9 3578.84 2427.64 148.34 o
1476 2 1 -8 -5 3578.84 2427.64 148.34 o
1476 1 1 6 9 3578.84 2427.64 148.34 o
1477 4 -6 -1 9 3578.92 1834.28 233.92 o
1477 2 -8 1 5 3578.92 1834.28 233.92 o
1477 1 6 1 -9 3578.92 1834.28 233.92 o
1478 4 -3 -6 -9 507.86 165.46 128.37 <
1478 1 3 6 9 507.86 165.46 128.37 <
1479 4 -6 -3 9 507.86 504.93 216.80 o
1479 1 6 3 -9 507.86 504.93 216.80 o
1480 4 -5 -6 -9 880.36 1309.38 156.90 o
1480 2 -1 -10 -1 880.36 1309.38 156.90 o
1480 1 5 6 9 880.36 1309.38 156.90 o
1481 4 -6 -5 9 880.41 499.22 228.21 o
1481 2 -10 -1 1 880.41 499.22 228.21 o
1481 1 6 5 -9 880.41 499.22 228.21 o
1482 4 4 -7 -9 297.93 111.25 208.25 <
1482 2 3 -6 -11 297.93 111.25 208.25 <
1482 1 -4 7 9 297.93 111.25 208.25 <
1483 4 -7 4 9 297.93 139.78 174.01 <
1483 2 -6 3 11 297.93 139.78 174.01 <
1483 1 7 -4 -9 297.93 139.78 174.01 <
1484 4 2 -7 -9 113.65 11.41 185.43 <
1484 2 2 -7 -9 113.65 11.41 185.43 <
1484 1 -2 7 9 113.65 11.41 185.43 <
1485 4 -7 2 9 113.66 219.66 165.46 <
1485 2 -7 2 9 113.66 219.66 165.46 <
1485 1 7 -2 -9 113.66 219.66 165.46 <
1486 4 -2 -7 -9 48.56 -48.50 136.93 <
1486 1 2 7 9 48.56 -48.50 136.93 <
1487 4 -7 -2 9 48.56 159.75 219.66 <
1487 1 7 2 -9 48.56 159.75 219.66 <
1488 4 -4 -7 -9 727.69 827.28 139.78 o
1488 2 -1 -10 -3 727.69 827.28 139.78 o
1488 1 4 7 9 727.69 827.28 139.78 o
1489 4 -7 -4 9 727.69 459.28 219.66 o
1489 2 -10 -1 3 727.69 459.28 219.66 o
1489 1 7 4 -9 727.69 459.28 219.66 o
1490 4 3 -8 -9 290.21 145.49 193.98 <
1490 2 2 -7 -11 290.21 145.49 193.98 <
1490 1 -3 8 9 290.21 145.49 193.98 <
1491 4 -8 3 9 290.21 -205.39 176.87 <
1491 2 -7 2 11 290.21 -205.39 176.87 <
1491 1 8 -3 -9 290.21 -205.39 176.87 <
1492 4 1 -8 -9 942.58 -2.85 142.63 <
1492 2 1 -8 -9 942.58 -2.85 142.63 <
1492 1 -1 8 9 942.58 -2.85 142.63 <
1493 4 -8 1 9 942.58 445.02 228.21 <
1493 2 -8 1 9 942.58 445.02 228.21 <
1493 1 8 -1 -9 942.58 445.02 228.21 <
1494 4 -1 -8 -9 402.76 74.17 134.08 <
1494 1 1 8 9 402.76 74.17 134.08 <
1495 4 -8 -1 9 402.76 231.07 148.34 <
1495 1 8 1 -9 402.76 231.07 148.34 <
1496 4 -3 -8 -9 697.02 339.47 142.63 o
1496 2 -1 -10 -5 697.02 339.47 142.63 o
1496 1 3 8 9 697.02 339.47 142.63 o
1497 4 -8 -3 9 697.02 290.97 239.63 <
1497 2 -10 -1 5 697.02 290.97 239.63 <
1497 1 8 3 -9 697.02 290.97 239.63 <
1498 4 -5 5 -10 2235.05 1945.53 282.42 o
1498 2 5 -5 10 2235.05 1945.53 282.42 o
1498 1 5 -5 10 2235.05 1945.53 282.42 o
1499 4 -4 4 -10 7841.04 8481.04 211.10 o
1499 2 5 -5 8 7841.04 8481.04 211.10 o
1499 1 4 -4 10 7841.04 8481.04 211.10 o
1500 4 -6 4 -10 3300.50 3466.02 191.13 o
1500 2 4 -6 10 3300.50 3466.02 191.13 o
1500 1 6 -4 10 3300.50 3466.02 191.13 o
1501 4 4 -6 10 3501.01 3796.93 216.80 o
1501 2 -6 4 -10 3501.01 3796.93 216.80 o
1501 1 -4 6 -10 3501.01 3796.93 216.80 o
1502 4 -3 3 -10 1610.66 984.18 145.49 o
1502 2 5 -5 6 1610.66 984.18 145.49 o
1502 1 3 -3 10 1610.66 984.18 145.49 o
1503 4 -5 3 -10 10515.00 13256.40 231.07 o
1503 2 4 -6 8 10515.00 13256.40 231.07 o
1503 1 5 -3 10 10515.00 13256.40 231.07 o
1504 4 3 -5 10 11271.90 12680.20 305.24 o
1504 2 -6 4 -8 11271.90 12680.20 305.24 o
1504 1 -3 5 -10 11271.90 12680.20 305.24 o
1505 4 -7 3 -10 2754.98 2633.03 251.04 o
1505 2 3 -7 10 2754.98 2633.03 251.04 o
1505 1 7 -3 10 2754.98 2633.03 251.04 o
1506 4 3 -7 10 3017.20 2895.48 211.10 o
1506 2 -7 3 -10 3017.20 2895.48 211.10 o
1506 1 -3 7 -10 3017.20 2895.48 211.10 o
1507 4 -2 2 -10 8114.52 6840.75 176.87 o
1507 2 5 -5 4 8114.52 6840.75 176.87 o
1507 1 2 -2 10 8114.52 6840.75 176.87 o
1508 4 -4 2 -10 3496.11 4202.01 165.46 o
1508 2 4 -6 6 3496.11 4202.01 165.46 o
1508 1 4 -2 10 3496.11 4202.01 165.46 o
1509 4 -6 2 -10 7354.41 9179.95 265.30 o
1509 2 3 -7 8 7354.41 9179.95 265.30 o
1509 1 6 -2 10 7354.41 9179.95 265.30 o
1510 4 2 -6 10 8203.83 7297.18 253.89 o
1510 2 -7 3 -8 8203.83 7297.18 253.89 o
1510 1 -2 6 -10 8203.83 7297.18 253.89 o
1511 4 -1 1 -10 1605.40 1024.12 136.93 o
1511 2 5 -5 2 1605.40 1024.12 136.93 o
1511 1 1 -1 10 1605.40 1024.12 136.93 o
1512 4 -3 1 -10 11530.70 13633.00 154.04 o
1512 2 4 -6 4 11530.70 13633.00 154.04 o
1512 1 3 -1 10 11530.70 13633.00 154.04 o
1513 4 -5 1 -10 2980.67 3223.54 219.66 o
1513 2 3 -7 6 2980.67 3223.54 219.66 o
1513 1 5 -1 10 2980.67 3223.54 219.66 o
1514 4 1 -5 10 3685.54 4812.49 239.63 o
1514 2 -7 3 -6 3685.54 4812.49 239.63 o
1514 1 -1 5 -10 3685.54 4812.49 239.63 o
1515 4 -7 1 -10 9373.14 12175.30 273.86 o
1515 2 2 -8 8 9373.14 12175.30 273.86 o
1515 1 7 -1 10 9373.14 12175.30 273.86 o
1516 4 1 -7 10 9308.46 8501.01 256.74 o
1516 2 -8 2 -8 9308.46 8501.01 256.74 o
1516 1 -1 7 -10 9308.46 8501.01 256.74 o
1517 4 0 0 -10 8639.87 6133.28 176.87 o
1517 2 5 -5 0 8639.87 6133.28 176.87 o
1517 1 0 0 10 8639.87 6133.28 176.87 o
1518 4 -2 0 -10 2983.56 2675.82 108.40 o
1518 2 4 -6 2 2983.56 2675.82 108.40 o
1518 1 2 0 10 2983.56 2675.82 108.40 o
1519 4 -4 0 -10 9041.25 10629.10 171.16 o
1519 2 3 -7 4 9041.25 10629.10 171.16 o
1519 1 4 0 10 9041.25 10629.10 171.16 o
1520 4 -6 0 -10 7191.12 8230.01 251.04 o
1520 2 2 -8 6 7191.12 8230.01 251.04 o
1520 1 6 0 10 7191.12 8230.01 251.04 o
1521 4 0 -6 10 6976.04 8304.18 233.92 o
1521 2 -8 2 -6 6976.04 8304.18 233.92 o
1521 1 0 6 -10 6976.04 8304.18 233.92 o
1522 4 -8 0 -10 5721.52 7174.51 256.74 o
1522 2 1 -9 8 5721.52 7174.51 256.74 o
1522 1 8 0 10 5721.52 7174.51 256.74 o
1523 4 0 -8 10 5801.10 4952.27 222.51 o
1523 2 -9 1 -8 5801.10 4952.27 222.51 o
1523 1 0 8 -10 5801.10 4952.27 222.51 o
1524 4 1 -1 -10 2515.48 733.14 193.98 o
1524 2 5 -5 -2 2515.48 733.14 193.98 o
1524 1 -1 1 10 2515.48 733.14 193.98 o
1525 4 -1 1 10 1700.99 2059.64 179.72 o
1525 2 -5 5 2 1700.99 2059.64 179.72 o
1525 1 1 -1 -10 1700.99 2059.64 179.72 o
1526 4 -1 -1 -10 11676.80 12480.50 162.60 o
1526 2 4 -6 0 11676.80 12480.50 162.60 o
1526 1 1 1 10 11676.80 12480.50 162.60 o
1527 4 -1 -1 10 11772.40 6124.72 242.48 o
1527 2 -6 4 0 11772.40 6124.72 242.48 o
1527 1 1 1 -10 11772.40 6124.72 242.48 o
1528 4 -3 -1 -10 3323.11 2852.69 122.67 o
1528 2 3 -7 2 3323.11 2852.69 122.67 o
1528 1 3 1 10 3323.11 2852.69 122.67 o
1529 4 -5 -1 -10 14525.80 19546.60 313.80 o
1529 2 2 -8 4 14525.80 19546.60 313.80 o
1529 1 5 1 10 14525.80 19546.60 313.80 o
1530 4 -7 -1 -10 5350.70 5676.85 236.77 o
1530 2 1 -9 6 5350.70 5676.85 236.77 o
1530 1 7 1 10 5350.70 5676.85 236.77 o
1531 4 -1 -7 10 5455.95 8369.79 251.04 o
1531 2 -9 1 -6 5455.95 8369.79 251.04 o
1531 1 1 7 -10 5455.95 8369.79 251.04 o
1532 4 2 -2 -10 9663.00 10092.80 262.45 o
1532 2 5 -5 -4 9663.00 10092.80 262.45 o
1532 1 -2 2 10 9663.00 10092.80 262.45 o
1533 4 -2 2 10 8575.08 7419.84 248.18 o
1533 2 -5 5 4 8575.08 7419.84 248.18 o
1533 1 2 -2 -10 8575.08 7419.84 248.18 o
1534 4 0 -2 -10 3293.64 2590.24 116.96 o
1534 2 4 -6 -2 3293.64 2590.24 116.96 o
1534 1 0 2 10 3293.64 2590.24 116.96 o
1535 4 -2 0 10 2548.64 1046.94 176.87 o
1535 2 -6 4 2 2548.64 1046.94 176.87 o
1535 1 2 0 -10 2548.64 1046.94 176.87 o
1536 4 -2 -2 -10 9926.16 9941.62 174.01 o
1536 2 3 -7 0 9926.16 9941.62 174.01 o
1536 1 2 2 10 9926.16 9941.62 174.01 o
1537 4 -2 -2 10 10386.70 10560.70 285.27 o
1537 2 -7 3 0 10386.70 10560.70 285.27 o
1537 1 2 2 -10 10386.70 10560.70 285.27 o
1538 4 -4 -2 -10 9053.76 12295.10 202.54 o
1538 2 2 -8 2 9053.76 12295.10 202.54 o
1538 1 4 2 10 9053.76 12295.10 202.54 o
1539 4 -6 -2 -10 9057.46 12332.20 285.27 o
1539 2 1 -9 4 9057.46 12332.20 285.27 o
1539 1 6 2 10 9057.46 12332.20 285.27 o
1540 4 -2 -6 10 9232.48 10038.60 288.12 o
1540 2 -9 1 -4 9232.48 10038.60 288.12 o
1540 1 2 6 -10 9232.48 10038.60 288.12 o
1541 4 3 -3 -10 2994.31 25.67 222.51 <
1541 2 5 -5 -6 2994.31 25.67 222.51 <
1541 1 -3 3 10 2994.31 25.67 222.51 <
1542 4 -3 3 10 1477.80 1238.07 188.28 o
1542 2 -5 5 6 1477.80 1238.07 188.28 o
1542 1 3 -3 -10 1477.80 1238.07 188.28 o
1543 4 1 -3 -10 12201.40 12580.40 211.10 o
1543 2 4 -6 -4 12201.40 12580.40 211.10 o
1543 1 -1 3 10 12201.40 12580.40 211.10 o
1544 4 -3 1 10 11731.80 8617.97 165.46 o
1544 2 -6 4 4 11731.80 8617.97 165.46 o
1544 1 3 -1 -10 11731.80 8617.97 165.46 o
1545 4 -1 -3 -10 3822.44 3203.57 122.67 o
1545 2 3 -7 -2 3822.44 3203.57 122.67 o
1545 1 1 3 10 3822.44 3203.57 122.67 o
1546 4 -3 -1 10 3524.14 3754.14 199.69 o
1546 2 -7 3 2 3524.14 3754.14 199.69 o
1546 1 3 1 -10 3524.14 3754.14 199.69 o
1547 4 -3 -3 -10 17382.80 22011.30 205.39 o
1547 2 2 -8 0 17382.80 22011.30 205.39 o
1547 1 3 3 10 17382.80 22011.30 205.39 o
1548 4 -3 -3 10 17249.90 7822.07 285.27 o
1548 2 -8 2 0 17249.90 7822.07 285.27 o
1548 1 3 3 -10 17249.90 7822.07 285.27 o
1549 4 -5 -3 -10 7846.03 8281.36 205.39 o
1549 2 1 -9 2 7846.03 8281.36 205.39 o
1549 1 5 3 10 7846.03 8281.36 205.39 o
1550 4 -3 -5 10 8138.03 8786.28 393.67 o
1550 2 -9 1 -2 8138.03 8786.28 393.67 o
1550 1 3 5 -10 8138.03 8786.28 393.67 o
1551 4 -7 -3 -10 10426.60 14580.10 313.80 o
1551 2 0 -10 4 10426.60 14580.10 313.80 o
1551 1 7 3 10 10426.60 14580.10 313.80 o
1552 4 -3 -7 10 10016.30 8030.32 282.42 o
1552 2 -10 0 -4 10016.30 8030.32 282.42 o
1552 1 3 7 -10 10016.30 8030.32 282.42 o
1553 4 4 -4 -10 9194.11 12209.50 310.94 o
1553 2 5 -5 -8 9194.11 12209.50 310.94 o
1553 1 -4 4 10 9194.11 12209.50 310.94 o
1554 4 -4 4 10 8018.90 3203.57 273.86 o
1554 2 -5 5 8 8018.90 3203.57 273.86 o
1554 1 4 -4 -10 8018.90 3203.57 273.86 o
1555 4 2 -4 -10 4087.44 3528.78 162.60 o
1555 2 4 -6 -6 4087.44 3528.78 162.60 o
1555 1 -2 4 10 4087.44 3528.78 162.60 o
1556 4 -4 2 10 3313.35 2079.61 154.04 o
1556 2 -6 4 6 3313.35 2079.61 154.04 o
1556 1 4 -2 -10 3313.35 2079.61 154.04 o
1557 4 0 -4 -10 9903.75 8392.61 165.46 o
1557 2 3 -7 -4 9903.75 8392.61 165.46 o
1557 1 0 4 10 9903.75 8392.61 165.46 o
1558 4 -4 0 10 9322.67 9998.67 279.56 o
1558 2 -7 3 4 9322.67 9998.67 279.56 o
1558 1 4 0 -10 9322.67 9998.67 279.56 o
1559 4 -2 -4 -10 8896.73 9870.30 154.04 o
1559 2 2 -8 -2 8896.73 9870.30 154.04 o
1559 1 2 4 10 8896.73 9870.30 154.04 o
1560 4 -4 -2 10 8871.00 5674.00 259.60 o
1560 2 -8 2 2 8871.00 5674.00 259.60 o
1560 1 4 2 -10 8871.00 5674.00 259.60 o
1561 4 -4 -4 -10 10851.20 13624.40 208.25 o
1561 2 1 -9 0 10851.20 13624.40 208.25 o
1561 1 4 4 10 10851.20 13624.40 208.25 o
1562 4 -4 -4 10 11029.10 9667.76 319.50 o
1562 2 -9 1 0 11029.10 9667.76 319.50 o
1562 1 4 4 -10 11029.10 9667.76 319.50 o
1563 4 -6 -4 -10 9689.49 12032.60 233.92 o
1563 2 0 -10 2 9689.49 12032.60 233.92 o
1563 1 6 4 10 9689.49 12032.60 233.92 o
1564 4 -4 -6 10 9397.69 5474.31 425.05 o
1564 2 -10 0 -2 9397.69 5474.31 425.05 o
1564 1 4 6 -10 9397.69 5474.31 425.05 o
1565 4 5 -5 -10 2906.55 -710.32 268.15 <
1565 2 5 -5 -10 2906.55 -710.32 268.15 <
1565 1 -5 5 10 2906.55 -710.32 268.15 <
1566 4 -5 5 10 2066.87 1072.61 268.15 o
1566 2 -5 5 10 2066.87 1072.61 268.15 o
1566 1 5 -5 -10 2066.87 1072.61 268.15 o
1567 4 3 -5 -10 11029.70 15809.60 236.77 o
1567 2 4 -6 -8 11029.70 15809.60 236.77 o
1567 1 -3 5 10 11029.70 15809.60 236.77 o
1568 4 -5 3 10 10757.10 13878.30 211.10 o
1568 2 -6 4 8 10757.10 13878.30 211.10 o
1568 1 5 -3 -10 10757.10 13878.30 211.10 o
1569 4 1 -5 -10 3709.28 2159.49 171.16 o
1569 2 3 -7 -6 3709.28 2159.49 171.16 o
1569 1 -1 5 10 3709.28 2159.49 171.16 o
1570 4 -5 1 10 2956.93 2427.64 154.04 o
1570 2 -7 3 6 2956.93 2427.64 154.04 o
1570 1 5 -1 -10 2956.93 2427.64 154.04 o
1571 4 -1 -5 -10 14386.40 15818.20 176.87 o
1571 2 2 -8 -4 14386.40 15818.20 176.87 o
1571 1 1 5 10 14386.40 15818.20 176.87 o
1572 4 -5 -1 10 14502.00 12024.10 262.45 o
1572 2 -8 2 4 14502.00 12024.10 262.45 o
1572 1 5 1 -10 14502.00 12024.10 262.45 o
1573 4 -3 -5 -10 7895.85 5440.08 185.43 o
1573 2 1 -9 -2 7895.85 5440.08 185.43 o
1573 1 3 5 10 7895.85 5440.08 185.43 o
1574 4 -5 -3 10 8088.21 7824.93 290.97 o
1574 2 -9 1 2 8088.21 7824.93 290.97 o
1574 1 5 3 -10 8088.21 7824.93 290.97 o
1575 4 -5 -5 -10 12851.90 16451.50 211.10 o
1575 2 0 -10 0 12851.90 16451.50 211.10 o
1575 1 5 5 10 12851.90 16451.50 211.10 o
1576 4 -5 -5 10 12683.80 7057.55 288.12 o
1576 2 -10 0 0 12683.80 7057.55 288.12 o
1576 1 5 5 -10 12683.80 7057.55 288.12 o
1577 4 4 -6 -10 3568.00 1583.24 211.10 o
1577 2 4 -6 -10 3568.00 1583.24 211.10 o
1577 1 -4 6 10 3568.00 1583.24 211.10 o
1578 4 -6 4 10 3233.51 2082.46 185.43 o
1578 2 -6 4 10 3233.51 2082.46 185.43 o
1578 1 6 -4 -10 3233.51 2082.46 185.43 o
1579 4 2 -6 -10 8132.82 3209.28 245.33 o
1579 2 3 -7 -8 8132.82 3209.28 245.33 o
1579 1 -2 6 10 8132.82 3209.28 245.33 o
1580 4 -6 2 10 7425.43 7428.40 159.75 o
1580 2 -7 3 8 7425.43 7428.40 159.75 o
1580 1 6 -2 -10 7425.43 7428.40 159.75 o
1581 4 0 -6 -10 6991.05 4504.40 168.31 o
1581 2 2 -8 -6 6991.05 4504.40 168.31 o
1581 1 0 6 10 6991.05 4504.40 168.31 o
1582 4 -6 0 10 7176.11 8207.19 262.45 o
1582 2 -8 2 6 7176.11 8207.19 262.45 o
1582 1 6 0 -10 7176.11 8207.19 262.45 o
1583 4 -2 -6 -10 9161.47 10720.40 168.31 o
1583 2 1 -9 -4 9161.47 10720.40 168.31 o
1583 1 2 6 10 9161.47 10720.40 168.31 o
1584 4 -6 -2 10 9128.48 8304.18 233.92 o
1584 2 -9 1 4 9128.48 8304.18 233.92 o
1584 1 6 2 -10 9128.48 8304.18 233.92 o
1585 4 -4 -6 -10 9464.68 10560.70 179.72 o
1585 2 0 -10 -2 9464.68 10560.70 179.72 o
1585 1 4 6 10 9464.68 10560.70 179.72 o
1586 4 -6 -4 10 9622.49 6255.95 253.89 o
1586 2 -10 0 2 9622.49 6255.95 253.89 o
1586 1 6 4 -10 9622.49 6255.95 253.89 o
1587 4 3 -7 -10 3104.81 2339.21 193.98 o
1587 2 3 -7 -10 3104.81 2339.21 193.98 o
1587 1 -3 7 10 3104.81 2339.21 193.98 o
1588 4 -7 3 10 2667.37 2093.87 191.13 o
1588 2 -7 3 10 2667.37 2093.87 191.13 o
1588 1 7 -3 -10 2667.37 2093.87 191.13 o
1589 4 1 -7 -10 9238.64 10934.40 174.01 o
1589 2 2 -8 -8 9238.64 10934.40 174.01 o
1589 1 -1 7 10 9238.64 10934.40 174.01 o
1590 4 -7 1 10 9442.96 8695.00 290.97 o
1590 2 -8 2 8 9442.96 8695.00 290.97 o
1590 1 7 -1 -10 9442.96 8695.00 290.97 o
1591 4 -1 -7 -10 5386.14 2610.21 165.46 o
1591 2 1 -9 -6 5386.14 2610.21 165.46 o
1591 1 1 7 10 5386.14 2610.21 165.46 o
1592 4 -7 -1 10 5420.50 1942.68 242.48 o
1592 2 -9 1 6 5420.50 1942.68 242.48 o
1592 1 7 1 -10 5420.50 1942.68 242.48 o
1593 4 -3 -7 -10 10103.90 11490.60 185.43 o
1593 2 0 -10 -4 10103.90 11490.60 185.43 o
1593 1 3 7 10 10103.90 11490.60 185.43 o
1594 4 -7 -3 10 10339.00 6772.28 271.01 o
1594 2 -10 0 4 10339.00 6772.28 271.01 o
1594 1 7 3 -10 10339.00 6772.28 271.01 o
1595 4 0 -8 -10 5839.50 2444.75 168.31 o
1595 2 1 -9 -8 5839.50 2444.75 168.31 o
1595 1 0 8 10 5839.50 2444.75 168.31 o
1596 4 -8 0 10 5683.11 3965.24 248.18 o
1596 2 -9 1 8 5683.11 3965.24 248.18 o
1596 1 8 0 -10 5683.11 3965.24 248.18 o
1597 4 -5 4 -11 89.06 119.81 131.22 <
1597 2 5 -6 9 89.06 119.81 131.22 <
1597 1 5 -4 11 89.06 119.81 131.22 <
1598 4 -4 3 -11 374.94 330.91 114.11 o
1598 2 5 -6 7 374.94 330.91 114.11 o
1598 1 4 -3 11 374.94 330.91 114.11 o
1599 4 -6 3 -11 263.21 231.07 216.80 <
1599 2 4 -7 9 263.21 231.07 216.80 <
1599 1 6 -3 11 263.21 231.07 216.80 <
1600 4 3 -6 11 263.20 276.71 199.69 <
1600 2 -7 4 -9 263.20 276.71 199.69 <
1600 1 -3 6 -11 263.20 276.71 199.69 <
1601 4 -3 2 -11 461.17 476.40 99.84 o
1601 2 5 -6 5 461.17 476.40 99.84 o
1601 1 3 -2 11 461.17 476.40 99.84 o
1602 4 -5 2 -11 219.60 402.23 171.16 o
1602 2 4 -7 7 219.60 402.23 171.16 o
1602 1 5 -2 11 219.60 402.23 171.16 o
1603 4 -7 2 -11 376.05 519.19 208.25 o
1603 2 3 -8 9 376.05 519.19 208.25 o
1603 1 7 -2 11 376.05 519.19 208.25 o
1604 4 2 -7 11 376.05 251.04 222.51 <
1604 2 -8 3 -9 376.05 251.04 222.51 <
1604 1 -2 7 -11 376.05 251.04 222.51 <
1605 4 -2 1 -11 831.14 841.54 94.14 o
1605 2 5 -6 3 831.14 841.54 94.14 o
1605 1 2 -1 11 831.14 841.54 94.14 o
1606 4 -4 1 -11 895.15 764.52 122.67 o
1606 2 4 -7 5 895.15 764.52 122.67 o
1606 1 4 -1 11 895.15 764.52 122.67 o
1607 4 -6 1 -11 1214.30 1175.31 216.80 o
1607 2 3 -8 7 1214.30 1175.31 216.80 o
1607 1 6 -1 11 1214.30 1175.31 216.80 o
1608 4 1 -6 11 1214.33 947.09 185.43 o
1608 2 -8 3 -7 1214.33 947.09 185.43 o
1608 1 -1 6 -11 1214.33 947.09 185.43 o
1609 4 -2 -1 -11 1053.26 1086.87 105.55 o
1609 2 4 -7 1 1053.26 1086.87 105.55 o
1609 1 2 1 11 1053.26 1086.87 105.55 o
1610 4 -4 -1 -11 3020.34 3454.61 139.78 o
1610 2 3 -8 3 3020.34 3454.61 139.78 o
1610 1 4 1 11 3020.34 3454.61 139.78 o
1611 4 -6 -1 -11 731.79 576.24 196.84 o
1611 2 2 -9 5 731.79 576.24 196.84 o
1611 1 6 1 11 731.79 576.24 196.84 o
1612 4 1 -2 -11 831.18 750.26 156.90 o
1612 2 5 -6 -3 831.18 750.26 156.90 o
1612 1 -1 2 11 831.18 750.26 156.90 o
1613 4 -2 1 11 831.14 559.13 136.93 o
1613 2 -6 5 3 831.14 559.13 136.93 o
1613 1 2 -1 -11 831.14 559.13 136.93 o
1614 4 -1 -2 -11 1053.26 932.83 108.40 o
1614 2 4 -7 -1 1053.26 932.83 108.40 o
1614 1 1 2 11 1053.26 932.83 108.40 o
1615 4 -2 -1 11 1053.26 664.68 191.13 o
1615 2 -7 4 1 1053.26 664.68 191.13 o
1615 1 2 1 -11 1053.26 664.68 191.13 o
1616 4 -3 -2 -11 3258.60 4338.94 145.49 o
1616 2 3 -8 1 3258.60 4338.94 145.49 o
1616 1 3 2 11 3258.60 4338.94 145.49 o
1617 4 -2 -3 11 3258.26 1360.73 202.54 o
1617 2 -8 3 -1 3258.26 1360.73 202.54 o
1617 1 2 3 -11 3258.26 1360.73 202.54 o
1618 4 -5 -2 -11 570.81 878.63 151.19 o
1618 2 2 -9 3 570.81 878.63 151.19 o
1618 1 5 2 11 570.81 878.63 151.19 o
1619 4 -7 -2 -11 445.66 641.85 231.07 o
1619 2 1 -10 5 445.66 641.85 231.07 o
1619 1 7 2 11 445.66 641.85 231.07 o
1620 4 2 -3 -11 461.14 376.55 154.04 o
1620 2 5 -6 -5 461.14 376.55 154.04 o
1620 1 -2 3 11 461.14 376.55 154.04 o
1621 4 -3 2 11 461.17 211.10 139.78 <
1621 2 -6 5 5 461.17 211.10 139.78 <
1621 1 3 -2 -11 461.17 211.10 139.78 <
1622 4 -2 -3 -11 3258.26 4042.26 128.37 o
1622 2 3 -8 -1 3258.26 4042.26 128.37 o
1622 1 2 3 11 3258.26 4042.26 128.37 o
1623 4 -3 -2 11 3258.60 1212.39 171.16 o
1623 2 -8 3 1 3258.60 1212.39 171.16 o
1623 1 3 2 -11 3258.60 1212.39 171.16 o
1624 4 -4 -3 -11 885.06 1001.29 145.49 o
1624 2 2 -9 1 885.06 1001.29 145.49 o
1624 1 4 3 11 885.06 1001.29 145.49 o
1625 4 -3 -4 11 885.19 416.49 242.48 <
1625 2 -9 2 -1 885.19 416.49 242.48 <
1625 1 3 4 -11 885.19 416.49 242.48 <
1626 4 -6 -3 -11 830.74 1121.11 179.72 o
1626 2 1 -10 3 830.74 1121.11 179.72 o
1626 1 6 3 11 830.74 1121.11 179.72 o
1627 4 3 -4 -11 374.93 139.78 165.46 <
1627 2 5 -6 -7 374.93 139.78 165.46 <
1627 1 -3 4 11 374.93 139.78 165.46 <
1628 4 -4 3 11 374.93 42.79 148.34 <
1628 2 -6 5 7 374.93 42.79 148.34 <
1628 1 4 -3 -11 374.93 42.79 148.34 <
1629 4 1 -4 -11 895.14 596.21 168.31 o
1629 2 4 -7 -5 895.14 596.21 168.31 o
1629 1 -1 4 11 895.14 596.21 168.31 o
1630 4 -4 1 11 895.14 547.72 136.93 o
1630 2 -7 4 5 895.14 547.72 136.93 o
1630 1 4 -1 -11 895.14 547.72 136.93 o
1631 4 -1 -4 -11 3020.30 2989.62 139.78 o
1631 2 3 -8 -3 3020.30 2989.62 139.78 o
1631 1 1 4 11 3020.30 2989.62 139.78 o
1632 4 -4 -1 11 3020.34 1705.91 213.95 o
1632 2 -8 3 3 3020.34 1705.91 213.95 o
1632 1 4 1 -11 3020.34 1705.91 213.95 o
1633 4 -3 -4 -11 885.19 969.91 139.78 o
1633 2 2 -9 -1 885.19 969.91 139.78 o
1633 1 3 4 11 885.19 969.91 139.78 o
1634 4 -4 -3 11 885.06 439.31 228.21 <
1634 2 -9 2 1 885.06 439.31 228.21 <
1634 1 4 3 -11 885.06 439.31 228.21 <
1635 4 -5 -4 -11 824.12 1357.88 154.04 o
1635 2 1 -10 1 824.12 1357.88 154.04 o
1635 1 5 4 11 824.12 1357.88 154.04 o
1636 4 -4 -5 11 824.07 402.23 259.60 <
1636 2 -10 1 -1 824.07 402.23 259.60 <
1636 1 4 5 -11 824.07 402.23 259.60 <
1637 4 4 -5 -11 89.07 -79.88 202.54 <
1637 2 5 -6 -9 89.07 -79.88 202.54 <
1637 1 -4 5 11 89.07 -79.88 202.54 <
1638 4 -5 4 11 89.06 -8.56 131.22 <
1638 2 -6 5 9 89.06 -8.56 131.22 <
1638 1 5 -4 -11 89.06 -8.56 131.22 <
1639 4 2 -5 -11 219.60 139.78 193.98 <
1639 2 4 -7 -7 219.60 139.78 193.98 <
1639 1 -2 5 11 219.60 139.78 193.98 <
1640 4 -5 2 11 219.60 276.71 145.49 <
1640 2 -7 4 7 219.60 276.71 145.49 <
1640 1 5 -2 -11 219.60 276.71 145.49 <
1641 4 -2 -5 -11 570.82 690.35 131.22 o
1641 2 2 -9 -3 570.82 690.35 131.22 o
1641 1 2 5 11 570.82 690.35 131.22 o
1642 4 -5 -2 11 570.81 316.65 205.39 <
1642 2 -9 2 3 570.81 316.65 205.39 <
1642 1 5 2 -11 570.81 316.65 205.39 <
1643 4 -4 -5 -11 824.07 1203.83 156.90 o
1643 2 1 -10 -1 824.07 1203.83 156.90 o
1643 1 4 5 11 824.07 1203.83 156.90 o
1644 4 -5 -4 11 824.12 556.27 228.21 o
1644 2 -10 1 1 824.12 556.27 228.21 o
1644 1 5 4 -11 824.12 556.27 228.21 o
1645 4 3 -6 -11 263.20 -14.26 199.69 <
1645 2 4 -7 -9 263.20 -14.26 199.69 <
1645 1 -3 6 11 263.20 -14.26 199.69 <
1646 4 -6 3 11 263.21 71.32 171.16 <
1646 2 -7 4 9 263.21 71.32 171.16 <
1646 1 6 -3 -11 263.21 71.32 171.16 <
1647 4 1 -6 -11 1214.33 308.09 185.43 <
1647 2 3 -8 -7 1214.33 308.09 185.43 <
1647 1 -1 6 11 1214.33 308.09 185.43 <
1648 4 -6 1 11 1214.30 385.11 213.95 <
1648 2 -8 3 7 1214.30 385.11 213.95 <
1648 1 6 -1 -11 1214.30 385.11 213.95 <
1649 4 -1 -6 -11 731.77 293.83 136.93 o
1649 2 2 -9 -5 731.77 293.83 136.93 o
1649 1 1 6 11 731.77 293.83 136.93 o
1650 4 -6 -1 11 731.79 245.33 191.13 <
1650 2 -9 2 5 731.79 245.33 191.13 <
1650 1 6 1 -11 731.79 245.33 191.13 <
1651 4 -3 -6 -11 830.73 653.27 145.49 o
1651 2 1 -10 -3 830.73 653.27 145.49 o
1651 1 3 6 11 830.73 653.27 145.49 o
1652 4 -6 -3 11 830.73 245.33 216.80 <
1652 2 -10 1 3 830.73 245.33 216.80 <
1652 1 6 3 -11 830.73 245.33 216.80 <
1653 4 2 -7 -11 376.05 -2.85 202.54 <
1653 2 3 -8 -9 376.05 -2.85 202.54 <
1653 1 -2 7 11 376.05 -2.85 202.54 <
1654 4 -7 2 11 376.05 245.33 145.49 <
1654 2 -8 3 9 376.05 245.33 145.49 <
1654 1 7 -2 -11 376.05 245.33 145.49 <
1655 4 -2 -7 -11 445.67 413.64 142.63 o
1655 2 1 -10 -5 445.67 413.64 142.63 o
1655 1 2 7 11 445.67 413.64 142.63 o
1656 4 -7 -2 11 445.66 268.15 185.43 <
1656 2 -10 1 5 445.66 268.15 185.43 <
1656 1 7 2 -11 445.66 268.15 185.43 <
1657 4 -4 4 -12 14427.70 15142.10 271.01 o
1657 2 6 -6 8 14427.70 15142.10 271.01 o
1657 1 4 -4 12 14427.70 15142.10 271.01 o
1658 4 -3 3 -12 14883.70 14585.80 233.92 o
1658 2 6 -6 6 14883.70 14585.80 233.92 o
1658 1 3 -3 12 14883.70 14585.80 233.92 o
1659 4 -5 3 -12 15826.30 17053.40 202.54 o
1659 2 5 -7 8 15826.30 17053.40 202.54 o
1659 1 5 -3 12 15826.30 17053.40 202.54 o
1660 4 -2 2 -12 30365.40 29827.70 288.12 o
1660 2 6 -6 4 30365.40 29827.70 288.12 o
1660 1 2 -2 12 30365.40 29827.70 288.12 o
1661 4 -4 2 -12 17149.80 17121.80 179.72 o
1661 2 5 -7 6 17149.80 17121.80 179.72 o
1661 1 4 -2 12 17149.80 17121.80 179.72 o
1662 4 -6 2 -12 9868.99 10030.10 191.13 o
1662 2 4 -8 8 9868.99 10030.10 191.13 o
1662 1 6 -2 12 9868.99 10030.10 191.13 o
1663 4 -1 1 -12 25743.20 23626.00 268.15 o
1663 2 6 -6 2 25743.20 23626.00 268.15 o
1663 1 1 -1 12 25743.20 23626.00 268.15 o
1664 4 -3 1 -12 32705.50 31927.30 211.10 o
1664 2 5 -7 4 32705.50 31927.30 211.10 o
1664 1 3 -1 12 32705.50 31927.30 211.10 o
1665 4 -5 1 -12 10330.20 9610.71 253.89 o
1665 2 4 -8 6 10330.20 9610.71 253.89 o
1665 1 5 -1 12 10330.20 9610.71 253.89 o
1666 4 0 0 -12 40485.80 36930.90 308.09 o
1666 2 6 -6 0 40485.80 36930.90 308.09 o
1666 1 0 0 12 40485.80 36930.90 308.09 o
1667 4 -2 0 -12 29323.20 27499.90 191.13 o
1667 2 5 -7 2 29323.20 27499.90 191.13 o
1667 1 2 0 12 29323.20 27499.90 191.13 o
1668 4 -4 0 -12 19081.30 18864.80 202.54 o
1668 2 4 -8 4 19081.30 18864.80 202.54 o
1668 1 4 0 12 19081.30 18864.80 202.54 o
1669 4 -6 0 -12 9165.80 8563.77 191.13 o
1669 2 3 -9 6 9165.80 8563.77 191.13 o
1669 1 6 0 12 9165.80 8563.77 191.13 o
1670 4 1 -1 -12 25330.90 16936.40 379.41 o
1670 2 6 -6 -2 25330.90 16936.40 379.41 o
1670 1 -1 1 12 25330.90 16936.40 379.41 o
1671 4 -1 -1 -12 41823.90 39350.00 219.66 o
1671 2 5 -7 0 41823.90 39350.00 219.66 o
1671 1 1 1 12 41823.90 39350.00 219.66 o
1672 4 -3 -1 -12 16872.20 15096.40 171.16 o
1672 2 4 -8 2 16872.20 15096.40 171.16 o
1672 1 3 1 12 16872.20 15096.40 171.16 o
1673 4 -5 -1 -12 14749.60 16360.20 305.24 o
1673 2 3 -9 4 14749.60 16360.20 305.24 o
1673 1 5 1 12 14749.60 16360.20 305.24 o
1674 4 2 -2 -12 29808.50 26632.70 365.14 o
1674 2 6 -6 -4 29808.50 26632.70 365.14 o
1674 1 -2 2 12 29808.50 26632.70 365.14 o
1675 4 -2 2 12 30520.90 29839.10 336.62 o
1675 2 -6 6 4 30520.90 29839.10 336.62 o
1675 1 2 -2 -12 30520.90 29839.10 336.62 o
1676 4 0 -2 -12 28770.60 26949.40 202.54 o
1676 2 5 -7 -2 28770.60 26949.40 202.54 o
1676 1 0 2 12 28770.60 26949.40 202.54 o
1677 4 -2 0 12 28991.60 22901.40 325.21 o
1677 2 -7 5 2 28991.60 22901.40 325.21 o
1677 1 2 0 -12 28991.60 22901.40 325.21 o
1678 4 -2 -2 -12 24793.40 16896.50 239.63 o
1678 2 4 -8 0 24793.40 16896.50 239.63 o
1678 1 2 2 12 24793.40 16896.50 239.63 o
1679 4 -2 -2 12 24948.90 31060.10 402.23 o
1679 2 -8 4 0 24948.90 31060.10 402.23 o
1679 1 2 2 -12 24948.90 31060.10 402.23 o
1680 4 -4 -2 -12 13659.90 12158.20 179.72 o
1680 2 3 -9 2 13659.90 12158.20 179.72 o
1680 1 4 2 12 13659.90 12158.20 179.72 o
1681 4 -6 -2 -12 6876.90 6184.63 196.84 o
1681 2 2 -10 4 6876.90 6184.63 196.84 o
1681 1 6 2 12 6876.90 6184.63 196.84 o
1682 4 3 -3 -12 14259.30 -910.01 419.35 <
1682 2 6 -6 -6 14259.30 -910.01 419.35 <
1682 1 -3 3 12 14259.30 -910.01 419.35 <
1683 4 -3 3 12 14722.10 16052.10 302.39 o
1683 2 -6 6 6 14722.10 16052.10 302.39 o
1683 1 3 -3 -12 14722.10 16052.10 302.39 o
1684 4 1 -3 -12 31839.70 36035.20 271.01 o
1684 2 5 -7 -4 31839.70 36035.20 271.01 o
1684 1 -1 3 12 31839.70 36035.20 271.01 o
1685 4 -3 1 12 32690.90 30809.00 356.59 o
1685 2 -7 5 4 32690.90 30809.00 356.59 o
1685 1 3 -1 -12 32690.90 30809.00 356.59 o
1686 4 -1 -3 -12 16739.20 6883.54 211.10 o
1686 2 4 -8 -2 16739.20 6883.54 211.10 o
1686 1 1 3 12 16739.20 6883.54 211.10 o
1687 4 -3 -1 12 16857.60 21957.10 313.80 o
1687 2 -8 4 2 16857.60 21957.10 313.80 o
1687 1 3 1 -12 16857.60 21957.10 313.80 o
1688 4 -3 -3 -12 17848.20 17937.70 211.10 o
1688 2 3 -9 0 17848.20 17937.70 211.10 o
1688 1 3 3 12 17848.20 17937.70 211.10 o
1689 4 -3 -3 12 17686.70 17598.20 350.88 o
1689 2 -9 3 0 17686.70 17598.20 350.88 o
1689 1 3 3 -12 17686.70 17598.20 350.88 o
1690 4 -5 -3 -12 7178.02 6044.85 168.31 o
1690 2 2 -10 2 7178.02 6044.85 168.31 o
1690 1 5 3 12 7178.02 6044.85 168.31 o
1691 4 4 -4 -12 13948.00 20804.70 359.44 o
1691 2 6 -6 -8 13948.00 20804.70 359.44 o
1691 1 -4 4 12 13948.00 20804.70 359.44 o
1692 4 -4 4 12 14483.60 7822.07 288.12 o
1692 2 -6 6 8 14483.60 7822.07 288.12 o
1692 1 4 -4 -12 14483.60 7822.07 288.12 o
1693 4 2 -4 -12 16150.50 5788.11 262.45 o
1693 2 5 -7 -6 16150.50 5788.11 262.45 o
1693 1 -2 4 12 16150.50 5788.11 262.45 o
1694 4 -4 2 12 16993.60 4629.91 219.66 o
1694 2 -7 5 6 16993.60 4629.91 219.66 o
1694 1 4 -2 -12 16993.60 4629.91 219.66 o
1695 4 0 -4 -12 18942.40 16228.90 199.69 o
1695 2 4 -8 -4 18942.40 16228.90 199.69 o
1695 1 0 4 12 18942.40 16228.90 199.69 o
1696 4 -4 0 12 19164.00 24033.90 336.62 o
1696 2 -8 4 4 19164.00 24033.90 336.62 o
1696 1 4 0 -12 19164.00 24033.90 336.62 o
1697 4 -2 -4 -12 13514.30 9102.93 185.43 o
1697 2 3 -9 -2 13514.30 9102.93 185.43 o
1697 1 2 4 12 13514.30 9102.93 185.43 o
1698 4 -4 -2 12 13503.80 14842.50 319.50 o
1698 2 -9 3 2 13503.80 14842.50 319.50 o
1698 1 4 2 -12 13503.80 14842.50 319.50 o
1699 4 -4 -4 -12 8501.74 4592.83 193.98 o
1699 2 2 -10 0 8501.74 4592.83 193.98 o
1699 1 4 4 12 8501.74 4592.83 193.98 o
1700 4 -4 -4 12 8557.60 12917.00 368.00 o
1700 2 -10 2 0 8557.60 12917.00 368.00 o
1700 1 4 4 -12 8557.60 12917.00 368.00 o
1701 4 3 -5 -12 15153.70 -5274.62 310.94 <
1701 2 5 -7 -8 15153.70 -5274.62 310.94 <
1701 1 -3 5 12 15153.70 -5274.62 310.94 <
1702 4 -5 3 12 15902.20 13935.40 222.51 o
1702 2 -7 5 8 15902.20 13935.40 222.51 o
1702 1 5 -3 -12 15902.20 13935.40 222.51 o
1703 4 1 -5 -12 10147.90 134.08 251.04 <
1703 2 4 -8 -6 10147.90 134.08 251.04 <
1703 1 -1 5 12 10147.90 134.08 251.04 <
1704 4 -5 1 12 10247.70 12434.90 282.42 o
1704 2 -8 4 6 10247.70 12434.90 282.42 o
1704 1 5 -1 -12 10247.70 12434.90 282.42 o
1705 4 -1 -5 -12 14531.80 13835.50 171.16 o
1705 2 3 -9 -4 14531.80 13835.50 171.16 o
1705 1 1 5 12 14531.80 13835.50 171.16 o
1706 4 -5 -1 12 14667.20 15299.00 282.42 o
1706 2 -9 3 4 14667.20 15299.00 282.42 o
1706 1 5 1 -12 14667.20 15299.00 282.42 o
1707 4 -3 -5 -12 7317.26 3999.47 176.87 o
1707 2 2 -10 -2 7317.26 3999.47 176.87 o
1707 1 3 5 12 7317.26 3999.47 176.87 o
1708 4 -5 -3 12 7253.92 11445.00 296.68 o
1708 2 -10 2 2 7253.92 11445.00 296.68 o
1708 1 5 3 -12 7253.92 11445.00 296.68 o
1709 4 2 -6 -12 9741.66 5123.43 236.77 o
1709 2 4 -8 -8 9741.66 5123.43 236.77 o
1709 1 -2 6 12 9741.66 5123.43 236.77 o
1710 4 -6 2 12 9876.60 8252.83 208.25 o
1710 2 -8 4 8 9876.60 8252.83 208.25 o
1710 1 6 -2 -12 9876.60 8252.83 208.25 o
1711 4 0 -6 -12 8882.14 4957.97 168.31 o
1711 2 3 -9 -6 8882.14 4957.97 168.31 o
1711 1 0 6 12 8882.14 4957.97 168.31 o
1712 4 -6 0 12 9122.87 11544.80 290.97 o
1712 2 -9 3 6 9122.87 11544.80 290.97 o
1712 1 6 0 -12 9122.87 11544.80 290.97 o
1713 4 -2 -6 -12 7131.42 3794.08 165.46 o
1713 2 2 -10 -4 7131.42 3794.08 165.46 o
1713 1 2 6 12 7131.42 3794.08 165.46 o
1714 4 -6 -2 12 6884.51 7308.59 271.01 o
1714 2 -10 2 4 6884.51 7308.59 271.01 o
1714 1 6 2 -12 6884.51 7308.59 271.01 o
1715 4 -4 3 -13 91.21 145.49 122.67 <
1715 2 6 -7 7 91.21 145.49 122.67 <
1715 1 4 -3 13 91.21 145.49 122.67 <
1716 4 -3 2 -13 102.84 185.43 111.25 <
1716 2 6 -7 5 102.84 185.43 111.25 <
1716 1 3 -2 13 102.84 185.43 111.25 <
1717 4 -5 2 -13 300.90 393.67 151.19 o
1717 2 5 -8 7 300.90 393.67 151.19 o
1717 1 5 -2 13 300.90 393.67 151.19 o
1718 4 -2 1 -13 187.88 225.36 105.55 o
1718 2 6 -7 3 187.88 225.36 105.55 o
1718 1 2 -1 13 187.88 225.36 105.55 o
1719 4 -4 1 -13 699.90 721.73 122.67 o
1719 2 5 -8 5 699.90 721.73 122.67 o
1719 1 4 -1 13 699.90 721.73 122.67 o
1720 4 -2 -1 -13 1160.58 1329.35 108.40 o
1720 2 5 -8 1 1160.58 1329.35 108.40 o
1720 1 2 1 13 1160.58 1329.35 108.40 o
1721 4 -4 -1 -13 1261.66 1332.21 131.22 o
1721 2 4 -9 3 1261.66 1332.21 131.22 o
1721 1 4 1 13 1261.66 1332.21 131.22 o
1722 4 1 -2 -13 187.89 174.01 116.96 <
1722 2 6 -7 -3 187.89 174.01 116.96 <
1722 1 -1 2 13 187.89 174.01 116.96 <
1723 4 -2 1 13 187.88 -48.50 165.46 <
1723 2 -7 6 3 187.88 -48.50 165.46 <
1723 1 2 -1 -13 187.88 -48.50 165.46 <
1724 4 -1 -2 -13 1160.55 1283.71 125.52 o
1724 2 5 -8 -1 1160.55 1283.71 125.52 o
1724 1 1 2 13 1160.55 1283.71 125.52 o
1725 4 -3 -2 -13 1429.47 1700.20 119.81 o
1725 2 4 -9 1 1429.47 1700.20 119.81 o
1725 1 3 2 13 1429.47 1700.20 119.81 o
1726 4 -5 -2 -13 744.48 984.18 154.04 o
1726 2 3 -10 3 744.48 984.18 154.04 o
1726 1 5 2 13 744.48 984.18 154.04 o
1727 4 2 -3 -13 102.83 42.79 168.31 <
1727 2 6 -7 -5 102.83 42.79 168.31 <
1727 1 -2 3 13 102.83 42.79 168.31 <
1728 4 -3 2 13 102.84 39.94 136.93 <
1728 2 -7 6 5 102.84 39.94 136.93 <
1728 1 3 -2 -13 102.84 39.94 136.93 <
1729 4 -2 -3 -13 1429.39 1577.54 131.22 o
1729 2 4 -9 -1 1429.39 1577.54 131.22 o
1729 1 2 3 13 1429.39 1577.54 131.22 o
1730 4 -3 -2 13 1429.47 656.12 202.54 o
1730 2 -9 4 1 1429.47 656.12 202.54 o
1730 1 3 2 -13 1429.47 656.12 202.54 o
1731 4 -4 -3 -13 969.70 1206.69 131.22 o
1731 2 3 -10 1 969.70 1206.69 131.22 o
1731 1 4 3 13 969.70 1206.69 131.22 o
1732 4 3 -4 -13 91.20 42.79 193.98 <
1732 2 6 -7 -7 91.20 42.79 193.98 <
1732 1 -3 4 13 91.20 42.79 193.98 <
1733 4 -4 3 13 91.21 271.01 162.60 <
1733 2 -7 6 7 91.21 271.01 162.60 <
1733 1 4 -3 -13 91.21 271.01 162.60 <
1734 4 1 -4 -13 699.90 168.31 142.63 <
1734 2 5 -8 -5 699.90 168.31 142.63 <
1734 1 -1 4 13 699.90 168.31 142.63 <
1735 4 -4 1 13 699.91 268.15 225.36 <
1735 2 -8 5 5 699.91 268.15 225.36 <
1735 1 4 -1 -13 699.91 268.15 225.36 <
1736 4 -1 -4 -13 1261.66 998.44 128.37 o
1736 2 4 -9 -3 1261.66 998.44 128.37 o
1736 1 1 4 13 1261.66 998.44 128.37 o
1737 4 -4 -1 13 1261.66 499.22 193.98 o
1737 2 -9 4 3 1261.66 499.22 193.98 o
1737 1 4 1 -13 1261.66 499.22 193.98 o
1738 4 -3 -4 -13 969.77 1084.02 145.49 o
1738 2 3 -10 -1 969.77 1084.02 145.49 o
1738 1 3 4 13 969.77 1084.02 145.49 o
1739 4 -4 -3 13 969.70 456.43 239.63 <
1739 2 -10 3 1 969.70 456.43 239.63 <
1739 1 4 3 -13 969.70 456.43 239.63 <
1740 4 2 -5 -13 300.91 91.29 202.54 <
1740 2 5 -8 -7 300.91 91.29 202.54 <
1740 1 -2 5 13 300.91 91.29 202.54 <
1741 4 -5 2 13 300.90 233.92 211.10 <
1741 2 -8 5 7 300.90 233.92 211.10 <
1741 1 5 -2 -13 300.90 233.92 211.10 <
1742 4 -2 -5 -13 744.49 741.70 145.49 o
1742 2 3 -10 -3 744.49 741.70 145.49 o
1742 1 2 5 13 744.49 741.70 145.49 o
1743 4 -5 -2 13 744.48 379.41 245.33 <
1743 2 -10 3 3 744.48 379.41 245.33 <
1743 1 5 2 -13 744.48 379.41 245.33 <
1744 4 -2 2 -14 1811.49 1406.38 151.19 o
1744 2 7 -7 4 1811.49 1406.38 151.19 o
1744 1 2 -2 14 1811.49 1406.38 151.19 o
1745 4 -1 1 -14 725.83 345.17 139.78 o
1745 2 7 -7 2 725.83 345.17 139.78 o
1745 1 1 -1 14 725.83 345.17 139.78 o
1746 4 -3 1 -14 2817.88 2658.71 125.52 o
1746 2 6 -8 4 2817.88 2658.71 125.52 o
1746 1 3 -1 14 2817.88 2658.71 125.52 o
1747 4 0 0 -14 1653.56 764.52 148.34 o
1747 2 7 -7 0 1653.56 764.52 148.34 o
1747 1 0 0 14 1653.56 764.52 148.34 o
1748 4 -2 0 -14 1441.43 1106.84 108.40 o
1748 2 6 -8 2 1441.43 1106.84 108.40 o
1748 1 2 0 14 1441.43 1106.84 108.40 o
1749 4 -4 0 -14 2725.72 2915.45 142.63 o
1749 2 5 -9 4 2725.72 2915.45 142.63 o
1749 1 4 0 14 2725.72 2915.45 142.63 o
1750 4 1 -1 -14 1136.61 245.33 136.93 <
1750 2 7 -7 -2 1136.61 245.33 136.93 <
1750 1 -1 1 14 1136.61 245.33 136.93 <
1751 4 -1 -1 -14 2647.20 2419.08 108.40 o
1751 2 6 -8 0 2647.20 2419.08 108.40 o
1751 1 1 1 14 2647.20 2419.08 108.40 o
1752 4 -3 -1 -14 1678.64 1317.94 128.37 o
1752 2 5 -9 2 1678.64 1317.94 128.37 o
1752 1 3 1 14 1678.64 1317.94 128.37 o
1753 4 2 -2 -14 2491.05 1400.67 228.21 o
1753 2 7 -7 -4 2491.05 1400.67 228.21 o
1753 1 -2 2 14 2491.05 1400.67 228.21 o
1754 4 0 -2 -14 1661.10 972.77 131.22 o
1754 2 6 -8 -2 1661.10 972.77 131.22 o
1754 1 0 2 14 1661.10 972.77 131.22 o
1755 4 -2 -2 -14 2736.20 2344.91 116.96 o
1755 2 5 -9 0 2736.20 2344.91 116.96 o
1755 1 2 2 14 2736.20 2344.91 116.96 o
1756 4 1 -3 -14 3205.28 2165.19 142.63 o
1756 2 6 -8 -4 3205.28 2165.19 142.63 o
1756 1 -1 3 14 3205.28 2165.19 142.63 o
1757 4 -3 1 14 2882.06 2045.38 239.63 o
1757 2 -8 6 4 2882.06 2045.38 239.63 o
1757 1 3 -1 -14 2882.06 2045.38 239.63 o
1758 4 -1 -3 -14 1890.78 1084.02 131.22 o
1758 2 5 -9 -2 1890.78 1084.02 131.22 o
1758 1 1 3 14 1890.78 1084.02 131.22 o
1759 4 -3 -1 14 1742.82 1369.29 199.69 o
1759 2 -9 5 2 1742.82 1369.29 199.69 o
1759 1 3 1 -14 1742.82 1369.29 199.69 o
1760 4 0 -4 -14 3080.49 1911.30 136.93 o
1760 2 5 -9 -4 3080.49 1911.30 136.93 o
1760 1 0 4 14 3080.49 1911.30 136.93 o
1761 4 -4 0 14 2820.35 1857.10 245.33 o
1761 2 -9 5 4 2820.35 1857.10 245.33 o
1761 1 4 0 -14 2820.35 1857.10 245.33 o
1762 2 8 -7 1 61.07 176.87 111.25 <
1763 2 7 -6 1 159.93 205.39 96.99 o
1764 2 6 -5 1 759.47 941.39 96.99 o
1765 2 5 -4 1 212.85 348.03 88.43 o
1766 2 4 -3 1 7445.08 9699.14 139.78 o
1767 2 3 -2 1 3476.68 5280.33 134.08 o
1768 2 2 -1 1 12583.20 14956.60 356.59 o
1769 2 -1 2 -1 12583.20 10249.70 310.94 o
1770 2 -1 2 1 12583.20 10903.00 290.97 o
1771 2 2 -1 -1 12583.20 15176.30 336.62 o
1772 2 -2 3 1 3476.68 3346.20 156.90 o
1773 2 3 -2 -1 3476.62 5625.50 199.69 o
1774 2 -3 4 1 7445.08 5112.02 171.16 o
1775 2 4 -3 -1 7445.51 10155.60 196.84 o
1776 2 -4 5 1 212.85 193.98 193.98 <
1777 2 5 -4 -1 212.72 328.06 139.78 o
1778 2 -5 6 1 759.48 339.47 165.46 o
1779 2 6 -5 -1 759.68 995.59 116.96 o
1780 2 7 -6 -1 159.98 154.04 91.29 <
1781 2 8 -7 -1 61.09 142.63 119.81 <
1782 2 8 -5 3 882.99 1135.37 108.40 o
1783 2 7 -4 3 661.82 892.89 102.70 o
1784 2 6 -3 3 5147.20 6535.51 134.08 o
1785 2 5 -2 3 11.35 -2.85 128.37 <
1786 2 -2 5 -3 11.34 28.53 199.69 <
1787 2 4 -1 3 16579.60 20710.50 390.82 o
1788 2 -1 4 -3 16579.70 11325.20 282.42 o
1789 2 2 1 3 9182.11 13282.10 390.82 o
1790 2 1 2 -3 9182.11 8846.19 271.01 o
1791 2 1 2 3 9182.11 13393.40 299.53 o
1792 2 2 1 -3 9182.11 9505.16 262.45 o
1793 2 -1 4 3 16579.60 15752.50 253.89 o
1794 2 4 -1 -3 16579.70 19398.30 285.27 o
1795 2 -2 5 3 11.35 8.56 136.93 <
1796 2 5 -2 -3 11.34 -19.97 165.46 <
1797 2 -3 6 3 5147.21 2838.43 222.51 o
1798 2 6 -3 -3 5147.25 6735.20 191.13 o
1799 2 -4 7 3 661.81 390.82 202.54 <
1800 2 7 -4 -3 661.82 818.72 111.25 o
1801 2 -5 8 3 882.99 290.97 182.57 <
1802 2 8 -5 -3 882.98 975.62 122.67 o
1803 2 9 -4 5 735.88 1101.14 211.10 o
1804 2 8 -3 5 1635.77 2347.76 156.90 o
1805 2 7 -2 5 305.45 490.66 228.21 o
1806 2 -2 7 -5 305.49 319.50 196.84 <
1807 2 6 -1 5 7071.93 9382.49 233.92 o
1808 2 -1 6 -5 7072.11 4202.01 205.39 o
1809 2 4 1 5 10039.70 15164.90 310.94 o
1810 2 1 4 -5 10039.60 9670.62 279.56 o
1811 2 3 2 5 1578.04 3043.82 242.48 o
1812 2 2 3 -5 1578.04 1537.60 136.93 o
1813 2 2 3 5 1578.04 2938.27 265.30 o
1814 2 3 2 -5 1578.05 1762.96 179.72 o
1815 2 1 4 5 10039.70 12922.70 368.00 o
1816 2 4 1 -5 10039.60 10960.00 219.66 o
1817 2 -1 6 5 7071.94 6777.99 279.56 o
1818 2 6 -1 -5 7072.10 8332.71 205.39 o
1819 2 -2 7 5 305.45 330.91 228.21 <
1820 2 7 -2 -5 305.49 365.14 114.11 o
1821 2 -3 8 5 1635.77 1055.49 182.57 o
1822 2 8 -3 -5 1635.82 1788.64 134.08 o
1823 2 -4 9 5 735.88 467.84 233.92 <
1824 2 9 -4 -5 735.89 522.04 142.63 o
1825 2 9 -2 7 192.61 251.04 242.48 <
1826 2 -2 9 -7 192.60 333.77 231.07 <
1827 2 8 -1 7 1285.57 1212.39 211.10 o
1828 2 -1 8 -7 1285.54 559.13 165.46 o
1829 2 6 1 7 3564.55 4989.35 248.18 o
1830 2 1 6 -7 3564.61 2302.12 222.51 o
1831 2 5 2 7 3.55 125.52 208.25 <
1832 2 2 5 -7 3.55 48.50 196.84 <
1833 2 4 3 7 1775.81 3292.00 288.12 o
1834 2 3 4 -7 1775.79 1252.33 151.19 o
1835 2 3 4 7 1775.81 2824.16 268.15 o
1836 2 4 3 -7 1775.79 1292.27 111.25 o
1837 2 2 5 7 3.55 162.60 231.07 <
1838 2 5 2 -7 3.55 -42.79 122.67 <
1839 2 1 6 7 3564.55 3933.86 231.07 o
1840 2 6 1 -7 3564.62 3511.66 136.93 o
1841 2 -1 8 7 1285.57 1084.02 239.63 o
1842 2 8 -1 -7 1285.54 707.47 139.78 o
1843 2 -2 9 7 192.61 308.09 182.57 <
1844 2 9 -2 -7 192.60 77.02 151.19 <
1845 2 8 1 9 539.82 524.90 222.51 o
1846 2 1 8 -9 539.82 142.63 233.92 <
1847 2 7 2 9 65.09 365.14 239.63 <
1848 2 2 7 -9 65.09 -37.08 233.92 <
1849 2 6 3 9 680.68 941.39 231.07 o
1850 2 3 6 -9 680.69 402.23 231.07 <
1851 2 5 4 9 21.97 39.94 219.66 <
1852 2 4 5 -9 21.97 31.38 134.08 <
1853 2 4 5 9 21.97 -2.85 268.15 <
1854 2 5 4 -9 21.97 31.38 125.52 <
1855 2 3 6 9 680.68 841.54 279.56 o
1856 2 6 3 -9 680.68 464.99 134.08 o
1857 2 2 7 9 65.09 131.22 228.21 <
1858 2 7 2 -9 65.09 25.67 125.52 <
1859 2 1 8 9 539.82 231.07 231.07 <
1860 2 8 1 -9 539.82 168.31 145.49 <
loop_
_jana_atom_site_adp_c_label
_jana_atom_site_adp_c_type_symbol
_jana_atom_site_adp_c_111
_jana_atom_site_adp_c_112
_jana_atom_site_adp_c_113
_jana_atom_site_adp_c_122
_jana_atom_site_adp_c_123
_jana_atom_site_adp_c_133
_jana_atom_site_adp_c_222
_jana_atom_site_adp_c_223
_jana_atom_site_adp_c_233
_jana_atom_site_adp_c_333
? ? ? ? ? ? ? ? ? ? ? ?
loop_
_jana_atom_site_adp_d_label
_jana_atom_site_adp_d_type_symbol
_jana_atom_site_adp_d_1111
_jana_atom_site_adp_d_1112
_jana_atom_site_adp_d_1113
_jana_atom_site_adp_d_1122
_jana_atom_site_adp_d_1123
_jana_atom_site_adp_d_1133
_jana_atom_site_adp_d_1222
_jana_atom_site_adp_d_1223
_jana_atom_site_adp_d_1233
_jana_atom_site_adp_d_1333
_jana_atom_site_adp_d_2222
_jana_atom_site_adp_d_2223
_jana_atom_site_adp_d_2233
_jana_atom_site_adp_d_2333
_jana_atom_site_adp_d_3333
? ? ? ? ? ? ? ? ? ? ? ? ? ? ? ? ?
loop_
_jana_atom_site_adp_e_label
_jana_atom_site_adp_e_type_symbol
_jana_atom_site_adp_e_11111
_jana_atom_site_adp_e_11112
_jana_atom_site_adp_e_11113
_jana_atom_site_adp_e_11122
_jana_atom_site_adp_e_11123
_jana_atom_site_adp_e_11133
_jana_atom_site_adp_e_11222
_jana_atom_site_adp_e_11223
_jana_atom_site_adp_e_11233
_jana_atom_site_adp_e_11333
_jana_atom_site_adp_e_12222
_jana_atom_site_adp_e_12223
_jana_atom_site_adp_e_12233
_jana_atom_site_adp_e_12333
_jana_atom_site_adp_e_13333
_jana_atom_site_adp_e_22222
_jana_atom_site_adp_e_22223
_jana_atom_site_adp_e_22233
_jana_atom_site_adp_e_22333
_jana_atom_site_adp_e_23333
_jana_atom_site_adp_e_33333
? ? ? ? ? ? ? ? ? ? ? ? ? ? ? ? ? ? ? ? ? ? ?
loop_
_jana_atom_site_adp_f_label
_jana_atom_site_adp_f_type_symbol
_jana_atom_site_adp_f_111111
_jana_atom_site_adp_f_111112
_jana_atom_site_adp_f_111113
_jana_atom_site_adp_f_111122
_jana_atom_site_adp_f_111123
_jana_atom_site_adp_f_111133
_jana_atom_site_adp_f_111222
_jana_atom_site_adp_f_111223
_jana_atom_site_adp_f_111233
_jana_atom_site_adp_f_111333
_jana_atom_site_adp_f_112222
_jana_atom_site_adp_f_112223
_jana_atom_site_adp_f_112233
_jana_atom_site_adp_f_112333
_jana_atom_site_adp_f_113333
_jana_atom_site_adp_f_122222
_jana_atom_site_adp_f_122223
_jana_atom_site_adp_f_122233
_jana_atom_site_adp_f_122333
_jana_atom_site_adp_f_123333
_jana_atom_site_adp_f_133333
_jana_atom_site_adp_f_222222
_jana_atom_site_adp_f_222223
_jana_atom_site_adp_f_222233
_jana_atom_site_adp_f_222333
_jana_atom_site_adp_f_223333
_jana_atom_site_adp_f_233333
_jana_atom_site_adp_f_333333
? ? ? ? ? ? ? ? ? ? ? ? ? ? ? ? ? ? ? ? ? ? ? ? ? ? ? ? ? ?
