#------------------------------------------------------------------------------
#$Date: 2021-05-30 00:24:41 +0300 (Sun, 30 May 2021) $
#$Revision: 265616 $
#$URL: file:///home/coder/svn-repositories/cod/cif/4/51/87/4518756.cif $
#------------------------------------------------------------------------------
#
# This file is available in the Crystallography Open Database (COD),
# http://www.crystallography.net/
#
# All data on this site have been placed in the public domain by the
# contributors.
#
data_4518756
loop_
_publ_author_name
'Ao, Yu-Fei'
'Hu, Hui-Juan'
'Zhao, Cheng-Xin'
'Chen, Peng'
'Huang, Tingting'
'Chen, Hui'
'Wang, Qi-Qiang'
'Wang, De-Xian'
'Wang, Mei-Xiang'
_publ_section_title
;
 Reversal and Amplification of the Enantioselectivity of Biocatalytic
 Desymmetrization toward Meso Heterocyclic Dicarboxamides Enabled by
 Rational Engineering of Amidase
;
_journal_name_full               'ACS Catalysis'
_journal_page_first              6900
_journal_page_last               6907
_journal_paper_doi               10.1021/acscatal.1c01220
_journal_year                    2021
_chemical_absolute_configuration ad
_chemical_formula_moiety         'C14 H17 N O4'
_chemical_formula_sum            'C14 H17 N O4'
_chemical_formula_weight         263.28
_space_group_crystal_system      monoclinic
_space_group_IT_number           4
_space_group_name_Hall           'P 2yb'
_space_group_name_H-M_alt        'P 1 21 1'
_atom_sites_solution_hydrogens   geom
_atom_sites_solution_primary     dual
_audit_creation_date             2020-11-03
_audit_creation_method
;
Olex2 1.2
(compiled 2018.05.29 svn.r3508 for OlexSys, GUI svn.r5506)
;
_cell_angle_alpha                90
_cell_angle_beta                 91.2890(10)
_cell_angle_gamma                90
_cell_formula_units_Z            2
_cell_length_a                   10.2799(2)
_cell_length_b                   5.20460(10)
_cell_length_c                   12.4362(2)
_cell_measurement_reflns_used    9006
_cell_measurement_temperature    169.99(11)
_cell_measurement_theta_max      74.7900
_cell_measurement_theta_min      3.5440
_cell_volume                     665.20(2)
_computing_cell_refinement       'CrysAlisPro 1.171.40.67a (Rigaku OD, 2019)'
_computing_data_collection       'CrysAlisPro 1.171.40.67a (Rigaku OD, 2019)'
_computing_data_reduction        'CrysAlisPro 1.171.40.67a (Rigaku OD, 2019)'
_computing_molecular_graphics    'Olex2 (Dolomanov et al., 2009)'
_computing_publication_material  'Olex2 (Dolomanov et al., 2009)'
_computing_structure_refinement  'ShelXL (Sheldrick, 2015)'
_computing_structure_solution    'ShelXT (Sheldrick, 2015)'
_diffrn_ambient_environment      N~2~
_diffrn_ambient_temperature      169.99(11)
_diffrn_detector                 'Hybrid Pixel Array Detector'
_diffrn_detector_area_resol_mean 10.0000
_diffrn_detector_type            HyPix
_diffrn_measured_fraction_theta_full 1.000
_diffrn_measured_fraction_theta_max 0.982
_diffrn_measurement_details
;
List of Runs (angles in degrees, time in seconds):

  # Type    Start    End  Width  t~exp~   \w     \q     \k     \f   Frames
--------------------------------------------------------------------------
  1  \w    -73.00  26.00   0.50    0.05    --  -47.20  83.00  82.00  198
  2  \w    -24.00  73.00   0.50    0.05    --   47.20 -83.00 -37.00  194
  3  \w   -168.00 -79.00   0.50    0.50    --  -99.00 -83.00 -37.00  178
  4  \w     31.00 129.00   0.50    0.50    --  103.25 -83.00 -37.00  196
  5  \w     86.00 169.00   0.50    0.50    --  103.25  83.00  82.00  166
  6  \w   -120.00 -74.00   0.50    0.05    --  -47.20-125.00  90.00   92
  7  \w    -23.00  28.00   0.50    0.05    --  -47.20  19.00  60.00  102
  8  \w   -120.00 -32.00   0.50    0.05    --  -47.20 -57.00 -90.00  176
  9  \w    -23.00  28.00   0.50    0.05    --  -47.20  19.00 120.00  102
 10  \w    -26.00  47.00   0.50    0.05    --   47.20 -38.00-120.00  146
 11  \w    -68.00 -26.00   0.50    0.50    --  -99.00  61.00   0.00   84
 12  \w   -168.00 -86.00   0.50    0.50    --  -99.00 -45.00-120.00  164
 13  \w   -168.00 -82.00   0.50    0.50    --  -99.00 -61.00  60.00  172
 14  \w   -112.00 -26.00   0.50    0.50    --  -99.00 125.00-120.00  172
 15  \w   -168.00 -82.00   0.50    0.50    --  -99.00 -61.00 -90.00  172
 16  \w   -168.00 -86.00   0.50    0.50    --  -99.00 -45.00-150.00  164
 17  \w    -68.00 -26.00   0.50    0.50    --  -99.00  61.00 -90.00   84
 18  \w    -68.00 -26.00   0.50    0.50    --  -99.00  61.00 -60.00   84
 19  \w   -124.00 -26.00   0.50    0.50    --  -99.00  83.00  82.00  196
 20  \w    -68.00 -26.00   0.50    0.50    --  -99.00  61.00  30.00   84
 21  \w     31.00  75.00   0.50    0.50    --  103.25 -61.00-120.00   88
 22  \w     91.00 169.00   0.50    0.50    --  103.25  45.00-120.00  156
 23  \w     31.00  75.00   0.50    0.50    --  103.25 -61.00  90.00   88
 24  \w     91.00 169.00   0.50    0.50    --  103.25  45.00 -60.00  156
 25  \w     31.00 106.00   0.50    0.50    --  103.25 -94.00   0.00  150
 26  \w     31.00  75.00   0.50    0.50    --  103.25 -61.00 150.00   88
 27  \w     31.00 111.00   0.50    0.50    --  103.25-125.00 120.00  160
 28  \w     87.00 169.00   0.50    0.50    --  103.25  61.00   0.00  164
 29  \w     91.00 169.00   0.50    0.50    --  103.25  45.00  30.00  156
 30  \w     31.00  75.00   0.50    0.50    --  103.25 -61.00   0.00   88
 31  \w   -120.00 -32.00   0.50    0.05    --  -47.20 -57.00 120.00  176
 32  \w   -120.00 -24.00   0.50    0.05    --  -47.20 -77.00  30.00  192
 33  \w   -120.00 -24.00   0.50    0.05    --  -47.20 -77.00  90.00  192
 34  \w   -120.00 -34.00   0.50    0.05    --  -47.20 -38.00 -60.00  172
 35  \w   -120.00 -32.00   0.50    0.05    --  -47.20 -57.00-150.00  176
 36  \w   -120.00 -32.00   0.50    0.05    --  -47.20 -57.00-180.00  176
 37  \w    -27.00  30.00   0.50    0.05    --   47.20 -19.00 150.00  114
;
_diffrn_measurement_device       'four-circle diffractometer'
_diffrn_measurement_device_type  'XtaLAB Synergy R, HyPix'
_diffrn_measurement_method       '\w scans'
_diffrn_orient_matrix_type
'CrysAlisPro convention (1999,Acta A55,543-557)'
_diffrn_orient_matrix_UB_11      0.0675127000
_diffrn_orient_matrix_UB_12      -0.2392005000
_diffrn_orient_matrix_UB_13      0.0482483000
_diffrn_orient_matrix_UB_21      0.0262480000
_diffrn_orient_matrix_UB_22      -0.0998361000
_diffrn_orient_matrix_UB_23      -0.1141073000
_diffrn_orient_matrix_UB_31      0.1311710000
_diffrn_orient_matrix_UB_32      0.1432445000
_diffrn_orient_matrix_UB_33      0.0011379000
_diffrn_radiation_monochromator  mirror
_diffrn_radiation_probe          x-ray
_diffrn_radiation_type           CuK\a
_diffrn_radiation_wavelength     1.54184
_diffrn_reflns_av_R_equivalents  0.0365
_diffrn_reflns_av_unetI/netI     0.0225
_diffrn_reflns_Laue_measured_fraction_full 1.000
_diffrn_reflns_Laue_measured_fraction_max 0.982
_diffrn_reflns_limit_h_max       12
_diffrn_reflns_limit_h_min       -11
_diffrn_reflns_limit_k_max       6
_diffrn_reflns_limit_k_min       -6
_diffrn_reflns_limit_l_max       15
_diffrn_reflns_limit_l_min       -15
_diffrn_reflns_number            12599
_diffrn_reflns_point_group_measured_fraction_full 0.997
_diffrn_reflns_point_group_measured_fraction_max 0.954
_diffrn_reflns_theta_full        67.684
_diffrn_reflns_theta_max         75.606
_diffrn_reflns_theta_min         3.555
_diffrn_source                   'Rotating-anode X-ray tube'
_diffrn_source_type              'PhotonJet R (Cu) X-ray Source'
_exptl_absorpt_coefficient_mu    0.799
_exptl_absorpt_correction_T_max  1.00000
_exptl_absorpt_correction_T_min  0.91942
_exptl_absorpt_correction_type   multi-scan
_exptl_absorpt_process_details
;
CrysAlisPro 1.171.40.67a (Rigaku Oxford Diffraction, 2019)
Empirical absorption correction using spherical harmonics,
 implemented in SCALE3 ABSPACK scaling algorithm.
;
_exptl_crystal_colour            'translucent light colourless'
_exptl_crystal_density_diffrn    1.314
_exptl_crystal_description       needle
_exptl_crystal_F_000             280
_exptl_crystal_size_max          0.8
_exptl_crystal_size_mid          0.04
_exptl_crystal_size_min          0.04
_refine_diff_density_max         0.159
_refine_diff_density_min         -0.192
_refine_diff_density_rms         0.038
_refine_ls_abs_structure_details
;
 Flack x determined using 1062 quotients [(I+)-(I-)]/[(I+)+(I-)]
 (Parsons, Flack and Wagner, Acta Cryst. B69 (2013) 249-259).
;
_refine_ls_abs_structure_Flack   -0.08(6)
_refine_ls_extinction_method     none
_refine_ls_goodness_of_fit_ref   1.049
_refine_ls_hydrogen_treatment    constr
_refine_ls_matrix_type           full
_refine_ls_number_parameters     172
_refine_ls_number_reflns         2644
_refine_ls_number_restraints     1
_refine_ls_restrained_S_all      1.049
_refine_ls_R_factor_all          0.0326
_refine_ls_R_factor_gt           0.0316
_refine_ls_shift/su_max          0.000
_refine_ls_shift/su_mean         0.000
_refine_ls_structure_factor_coef Fsqd
_refine_ls_weighting_details
'w=1/[\s^2^(Fo^2^)+(0.0473P)^2^+0.0940P] where P=(Fo^2^+2Fc^2^)/3'
_refine_ls_weighting_scheme      calc
_refine_ls_wR_factor_gt          0.0815
_refine_ls_wR_factor_ref         0.0823
_reflns_Friedel_coverage         0.745
_reflns_Friedel_fraction_full    0.992
_reflns_Friedel_fraction_max     0.919
_reflns_number_gt                2553
_reflns_number_total             2644
_reflns_threshold_expression     'I > 2\s(I)'
_cod_data_source_file            cs1c01220_si_003.cif
_cod_data_source_block           tx3757
_cod_database_code               4518756
_shelx_shelxl_version_number     2018/3
_chemical_oxdiff_usercomment     'C H N O'
_shelx_space_group_comment
;
The symmetry employed for this shelxl refinement is uniquely defined
by the following loop, which should always be used as a source of
symmetry information in preference to the above space-group names.
They are only intended as comments.
;
_shelx_estimated_absorpt_t_max   0.969
_shelx_estimated_absorpt_t_min   0.567
_reflns_odcompleteness_completeness 100.00
_reflns_odcompleteness_iscentric 1
_reflns_odcompleteness_theta     66.97
_olex2_refinement_description
;
1. Fixed Uiso
 At 1.2 times of:
  All C(H) groups, All C(H,H) groups, All N(H,H) groups
2.a Ternary CH refined with riding coordinates:
 C1(H1), C5(H5)
2.b Secondary CH2 refined with riding coordinates:
 C4(H4A,H4B), C3(H3A,H3B), C2(H2A,H2B), C8(H8A,H8B)
2.c Aromatic/amide H refined with riding coordinates:
 C10(H10), C11(H11), C12(H12), C14(H14), C13(H13)
2.d X=CH2 refined with riding coordinates:
 N1(H1A,H1B)
;
_shelx_res_file
;
TITL tx3757_a.res in P2(1)
    tx3757.res
    created by SHELXL-2018/3 at 06:46:09 on 03-Nov-2020
REM Old TITL TX3757 in P2(1)/m
REM SHELXT solution in P2(1): R1 0.120, Rweak 0.030, Alpha 0.002
REM <I/s> 0.963 for 3 systematic absences, Orientation as input
REM Flack x = -0.027 ( 0.053 ) from 1069 Parsons' quotients
REM Formula found by SHELXT: C12 O5
CELL 1.54184 10.2799 5.2046 12.4362 90 91.289 90
ZERR 2 0.0002 0.0001 0.0002 0 0.001 0
LATT -1
SYMM -X,0.5+Y,-Z
SFAC C H N O
UNIT 28 34 2 8

L.S. 4
PLAN  5
SIZE 0.04 0.04 0.8
BOND
LIST 6
fmap 2
ACTA
REM <olex2.extras>
REM <HklSrc "%.\\TX3757.hkl">
REM </olex2.extras>

WGHT    0.047300    0.094000
FVAR       1.28787
O1    4    0.657082    0.371844    0.303977    11.00000    0.03454    0.02558 =
         0.02087   -0.00201   -0.00555    0.00198
O3    4    0.573857    0.726532    0.441097    11.00000    0.04092    0.03139 =
         0.02596   -0.00076   -0.00402    0.00321
O2    4    0.581813   -0.065719    0.096440    11.00000    0.05642    0.02222 =
         0.02936   -0.00366   -0.01244    0.00017
O4    4    0.715613    0.597082    0.570180    11.00000    0.03864    0.04831 =
         0.02395   -0.00939   -0.00713    0.01050
N1    3    0.573690    0.368667    0.101354    11.00000    0.05154    0.02229 =
         0.02465   -0.00092   -0.01191   -0.00097
AFIX  93
H1A   2    0.532887    0.379525    0.040392    11.00000   -1.20000
H1B   2    0.593516    0.505880    0.136597    11.00000   -1.20000
AFIX   0
C7    1    0.658035    0.583488    0.472497    11.00000    0.03005    0.03110 =
         0.02126   -0.00102   -0.00293   -0.00485
C6    1    0.605869    0.141521    0.140810    11.00000    0.03311    0.02304 =
         0.02314   -0.00058   -0.00201   -0.00169
C1    1    0.679480    0.136108    0.248017    11.00000    0.03690    0.02054 =
         0.02265   -0.00120   -0.00416   -0.00052
AFIX  13
H1    2    0.645183   -0.005314    0.291009    11.00000   -1.20000
AFIX   0
C5    1    0.711085    0.357298    0.410420    11.00000    0.03528    0.02605 =
         0.02098    0.00023   -0.00539   -0.00246
AFIX  13
H5    2    0.678621    0.199696    0.443575    11.00000   -1.20000
AFIX   0
C4    1    0.858711    0.338081    0.406996    11.00000    0.03540    0.03173 =
         0.03170   -0.00456   -0.00870    0.00156
AFIX  23
H4A   2    0.895018    0.327949    0.479542    11.00000   -1.20000
H4B   2    0.893872    0.489493    0.372663    11.00000   -1.20000
AFIX   0
C9    1    0.741617    0.817066    0.740040    11.00000    0.03510    0.04587 =
         0.02502   -0.00993   -0.00170    0.01090
C10   1    0.733177    0.657517    0.828725    11.00000    0.03926    0.04039 =
         0.04194   -0.00002    0.00011   -0.00226
AFIX  43
H10   2    0.676522    0.518195    0.826969    11.00000   -1.20000
AFIX   0
C3    1    0.895214    0.097016    0.343578    11.00000    0.03395    0.03553 =
         0.04198   -0.00705   -0.00971    0.00676
AFIX  23
H3A   2    0.988434    0.094479    0.333153    11.00000   -1.20000
H3B   2    0.872349   -0.054864    0.384220    11.00000   -1.20000
AFIX   0
C2    1    0.824161    0.092239    0.234077    11.00000    0.03850    0.03475 =
         0.03421   -0.00949   -0.00225    0.00544
AFIX  23
H2A   2    0.859039    0.225120    0.188246    11.00000   -1.20000
H2B   2    0.837882   -0.072475    0.199644    11.00000   -1.20000
AFIX   0
C11   1    0.809206    0.705267    0.920300    11.00000    0.04818    0.06127 =
         0.03066    0.00832   -0.00116    0.00542
AFIX  43
H11   2    0.802789    0.598486    0.979907    11.00000   -1.20000
AFIX   0
C12   1    0.893107    0.907801    0.923165    11.00000    0.04593    0.06126 =
         0.03378   -0.01246   -0.01124    0.00616
AFIX  43
H12   2    0.943979    0.938450    0.984612    11.00000   -1.20000
AFIX   0
C14   1    0.826910    1.022729    0.744447    11.00000    0.05353    0.04776 =
         0.03786    0.00898    0.00420    0.00415
AFIX  43
H14   2    0.833067    1.131837    0.685558    11.00000   -1.20000
AFIX   0
C8    1    0.654799    0.780872    0.643061    11.00000    0.04846    0.08039 =
         0.03318   -0.02296   -0.01025    0.02647
AFIX  23
H8A   2    0.570725    0.716583    0.664574    11.00000   -1.20000
H8B   2    0.641569    0.944019    0.606727    11.00000   -1.20000
AFIX   0
C13   1    0.902871    1.067386    0.835366    11.00000    0.04725    0.04890 =
         0.06004   -0.00620   -0.00486   -0.00893
AFIX  43
H13   2    0.960577    1.205007    0.837382    11.00000   -1.20000
AFIX   0
HKLF 4




REM  tx3757_a.res in P2(1)
REM wR2 = 0.0823, GooF = S = 1.049, Restrained GooF = 1.049 for all data
REM R1 = 0.0316 for 2553 Fo > 4sig(Fo) and 0.0326 for all 2644 data
REM 172 parameters refined using 1 restraints

END

WGHT      0.0473      0.0940

REM Highest difference peak  0.159,  deepest hole -0.192,  1-sigma level  0.038
Q1    1   0.8126  0.8554  0.7342  11.00000  0.05    0.16
Q2    1   0.7872  0.3593  0.4082  11.00000  0.05    0.14
Q3    1   0.7517  0.1051  0.2468  11.00000  0.05    0.12
Q4    1   0.5729  0.8764  0.6322  11.00000  0.05    0.12
Q5    1   0.8868  0.2399  0.3668  11.00000  0.05    0.11
;
_shelx_res_checksum              74034
_shelx_hkl_file
;
   0   0   1  522.03   19.39
   0   0  -1  501.05   19.39
   0   0   1  557.45   19.40
   0   0   1  485.23   19.31
   0   0   2  382.43   14.26
   0   0  -2  368.83   14.29
   0   0   2  376.91   14.02
   0   0   3  431.67   15.61
   0   0  -3  384.81   15.93
   0   0  -3  370.33   15.68
   0   0   3  382.19   15.65
   0   0  -4 1112.11   40.74
   0   0   4 1017.93   38.80
   0   0  -4 1004.64   40.26
   0   0   4 1084.23   40.27
   0   0  -5  337.80   14.91
   0   0   5  320.76   14.75
   0   0   6 2444.65   87.79
   0   0  -6 2177.90   88.11
   0   0   6 2325.93   88.13
   0   0   7  242.83   10.74
   0   0   7  224.58   11.08
   0   0  -7  227.63   11.21
   0   0  -7  214.77    8.49
   0   0  -8   73.87    3.29
   0   0   8   70.82    5.11
   0   0   8   82.02    6.41
   0   0   8   74.85    5.67
   0   0  -8   77.55    3.25
   0   0   8   73.97    3.33
   0   0  -8   82.90    5.93
   0   0  -9  118.41    5.14
   0   0   9  121.65    7.35
   0   0   9  128.44    8.35
   0   0  -9  124.07    5.18
   0   0  -9  129.39    5.11
   0   0   9  115.73    5.15
   0   0  -9  129.80    8.38
   0   0  10   37.61    2.32
   0   0 -10   39.75    4.97
   0   0  10   50.29    6.32
   0   0  10   34.99    4.60
   0   0 -10   35.69    2.33
   0   0 -10   39.01    2.08
   0   0 -10   38.11    2.85
   0   0  10   33.09    5.45
   0   0 -11   60.71    3.57
   0   0  11   66.00    7.06
   0   0 -11   62.49    3.05
   0   0  11   56.66    7.14
   0   0 -11   68.24    3.30
   0   0  11   57.48    5.92
   0   0 -11   62.62    3.01
   0   0 -11   53.78    6.12
   0   0  11   59.14    3.21
   0   0  12  415.11   16.16
   0   0 -12  435.21   16.05
   0   0 -12  405.30   16.23
   0   0 -12  413.86   16.16
   0   0  13    3.23    1.38
   0   0 -13    2.79    1.96
   0   0 -13    4.06    1.45
   0   0 -13    4.22    0.91
   0   0  14    0.86    1.02
   0   0 -14    2.07    1.44
   0   0 -14    1.23    1.09
   0   0 -15   25.69    1.55
   0   0  15   29.26    1.49
   0   1   0    0.52    0.90
   0   1   0   -0.25    1.05
   0  -1   0   -0.17    1.11
   0   1   0   -0.09    1.04
   0  -1   0    2.26    0.71
   0  -1  -1 6958.27  259.15
   0   1   1 7131.50  259.07
   0  -1  -1 7200.21  259.71
   0  -1   1 6716.49  259.52
   0   1   1 7069.22  259.54
   0  -1   1 7047.80  259.40
   0  -1   1 7024.58  259.14
   0  -1  -1 6966.45  259.31
   0   1  -1 7062.43  259.41
   0  -1  -2  286.96   11.47
   0   1   2  272.95   10.88
   0   1  -2  285.92   11.85
   0  -1  -2  294.05   11.55
   0  -1   2  289.14   11.55
   0   1  -2  278.70   11.39
   0  -1   2  289.12   11.80
   0  -1  -2  284.58   11.72
   0   1  -2  266.13   11.24
   0  -1   2  271.54   11.37
   0  -1  -3  110.08    5.68
   0   1  -3  113.55    5.99
   0   1   3  113.45    4.71
   0   1   3  128.97    6.20
   0   1   3  115.62    5.92
   0  -1   3  116.58    5.67
   0  -1  -3  126.11    5.98
   0   1  -3  111.45    5.69
   0  -1   3  128.80    6.11
   0   1   3  127.00    5.85
   0  -1  -3  119.59    6.08
   0   1  -3  107.69    5.03
   0  -1   4  533.06   20.85
   0   1   4  587.76   21.65
   0   1  -4  545.86   21.42
   0   1   4  567.66   21.74
   0  -1   4  605.16   21.71
   0   1   4  466.82   19.48
   0   1   4  514.75   21.20
   0  -1  -4  557.06   21.53
   0   1  -4  553.81   21.39
   0  -1   4  600.65   21.71
   0  -1  -4  552.16   21.67
   0   1  -4  532.00   20.49
   0   1   4  550.76   20.93
   0   1   5   73.12    4.85
   0  -1   5   62.89    4.16
   0   1   5   61.88    4.75
   0  -1   5   67.36    4.91
   0   1   5   67.88    4.52
   0  -1   5   70.09    4.80
   0  -1  -5   65.90    4.76
   0   1  -5   65.93    4.75
   0   1   5   67.41    4.00
   0   1  -5   65.36    3.92
   0  -1   6  121.49    7.12
   0   1   6  141.52    7.98
   0  -1   6  134.04    8.00
   0  -1   6  152.24    8.19
   0   1  -6  121.14    7.73
   0   1   6  142.55    7.65
   0  -1  -6  134.96    8.02
   0  -1   6  129.72    7.01
   0   1   6  147.35    6.73
   0   1  -6  140.46    7.03
   0   1  -7  354.04   15.62
   0  -1   7  300.66   13.78
   0  -1   7  380.47   15.79
   0  -1  -7  342.48   15.58
   0   1   7  332.27   14.73
   0  -1   7  346.62   15.57
   0  -1   7  314.22   14.37
   0   1   7  336.07   15.28
   0   1  -7  287.70   13.77
   0  -1  -7  327.55   15.35
   0  -1  -7  305.22   11.79
   0   1  -7  294.99   11.77
   0  -1  -8  136.57    5.42
   0   1  -8  128.46    5.40
   0  -1   8  118.39    7.23
   0   1  -8  137.78    8.95
   0   1   8  145.88    8.27
   0  -1  -8  133.01    8.94
   0   1   8  131.20    5.36
   0  -1   8  146.30    9.12
   0   1   8  151.67    8.97
   0  -1  -8  143.88    8.83
   0  -1   8  137.53    8.12
   0   1  -8  129.20    5.45
   0   1  -8  134.97    5.39
   0  -1  -8  132.20    5.40
   0   1  -8  136.22    7.68
   0  -1  -8  135.49    8.81
   0   1   8  133.87    5.45
   0  -1   8  132.55    5.43
   0   1  -9   34.05    5.63
   0  -1  -9   34.27    2.01
   0   1   9   24.08    4.49
   0  -1   9   41.08    5.19
   0   1  -9   32.49    2.00
   0   1  -9   24.69    4.77
   0  -1  -9   48.98    5.79
   0   1   9   35.16    1.83
   0  -1   9   35.57    5.07
   0   1   9   28.66    3.94
   0   1   9   41.67    4.80
   0  -1   9   31.73    3.85
   0   1  -9   37.95    2.07
   0   1  -9   32.03    1.85
   0  -1  -9   35.03    1.87
   0  -1   9   33.61    1.92
   0   1  -9   34.50    3.70
   0   1   9   35.73    2.02
   0  -1  -9   26.89    4.59
   0  -1  -9   23.36    4.46
   0   1  10  133.38    5.82
   0  -1  10  135.73    5.77
   0  -1 -10  144.85   10.13
   0   1  10  114.71    9.65
   0   1 -10  139.71   10.74
   0  -1 -10  126.55   10.41
   0  -1 -10  135.65    5.88
   0  -1  10  130.31   10.01
   0   1 -10  129.64    5.87
   0   1 -10  137.92   10.43
   0  -1 -10  139.28   10.46
   0  -1  10  141.63   10.32
   0   1  10  116.03   10.01
   0  -1 -10  159.75   10.55
   0   1  10  154.98   10.00
   0   1 -10  139.64    5.85
   0   1 -10  135.13    5.68
   0  -1 -10  141.51    5.67
   0  -1 -10  138.28    5.74
   0   1  11  169.90    7.10
   0  -1  11  172.36    7.05
   0  -1 -11  157.88   11.38
   0   1  11  183.93   12.11
   0  -1  11  146.42   11.23
   0   1 -11  176.76   12.45
   0  -1 -11  173.94    7.16
   0   1 -11  153.90    7.13
   0  -1 -11  168.61   12.41
   0   1 -11  185.77   12.38
   0   1  11  161.52   11.80
   0  -1  11  179.59   12.19
   0   1 -11  170.91    7.14
   0  -1 -11  166.87    6.99
   0  -1 -11  181.31    6.95
   0   1  11  171.96   11.27
   0  -1 -11  150.61   11.26
   0  -1 -12   51.67    2.88
   0  -1 -12   51.61    2.89
   0   1 -12   50.83    2.91
   0   1 -12   48.14    3.08
   0  -1 -12   49.92    3.08
   0  -1 -12   51.43    2.53
   0  -1  12   52.14    2.69
   0   1  12   47.47    2.82
   0   1 -13   47.79    2.67
   0  -1 -13   47.56    2.63
   0  -1 -13   44.94    2.77
   0   1 -13   50.96    2.86
   0  -1 -13   49.07    2.34
   0   1  13   51.36    2.66
   0  -1  13   47.74    2.51
   0   1  14   15.42    1.30
   0   1  14   14.13    1.74
   0   1 -14   15.29    1.39
   0  -1 -14   16.55    1.37
   0  -1 -14   15.90    1.05
   0   1 -14   14.39    1.50
   0  -1 -14   16.88    1.53
   0  -1  14   15.01    1.23
   0   1  14   17.63    1.35
   0   1  15   20.06    1.30
   0  -1 -15   16.87    1.14
   0   1 -15   17.82    1.16
   0   1  15   18.91    1.10
   0  -1  15   18.40    1.06
   0   2   0   68.65    4.49
   0  -2   0   73.17    3.81
   0  -2   0   74.36    4.21
   0   2   0   79.69    5.02
   0  -2   0   63.98    4.65
   0   2   0   70.22    4.59
   0   2   1  480.32   19.25
   0   2  -1  480.15   19.82
   0   2   1  463.51   19.59
   0   2   1  466.67   19.82
   0  -2   1  493.03   20.01
   0   2  -1  478.15   19.72
   0  -2  -1  470.46   19.96
   0  -2   1  475.48   19.71
   0   2  -1  488.42   19.92
   0  -2  -1  460.92   19.01
   0  -2   1  468.08   19.05
   0   2   1  456.54   19.94
   0  -2   2  259.63   11.31
   0  -2   2  260.30   11.59
   0   2  -2  271.51   11.56
   0   2  -2  241.33   10.30
   0  -2  -2  265.66   10.75
   0   2   2  261.64   10.51
   0  -2   2  223.71    9.52
   0  -2  -2  237.50    9.65
   0   2   2  233.62    9.45
   0   2  -2  229.39    9.38
   0  -2   2  259.48   10.77
   0  -2  -2  259.99   11.01
   0   2  -2  261.60   11.21
   0   2  -3 1090.36   42.30
   0  -2   3 1139.27   42.99
   0  -2   3 1162.66   43.58
   0  -2  -3 1143.20   42.68
   0   2   3 1055.36   41.65
   0   2  -3 1135.61   43.77
   0  -2   3 1109.61   41.89
   0   2   3 1114.28   41.82
   0  -2  -3 1049.59   41.94
   0   2  -3 1025.72   41.73
   0   2  -3 1044.17   42.51
   0  -2   3 1165.99   42.67
   0   2   3 1161.90   43.57
   0  -2  -3 1178.85   43.22
   0  -2   4  396.52   16.35
   0   2  -4  377.42   15.94
   0   2   4  394.48   16.95
   0  -2  -4  407.12   17.40
   0  -2   4  401.89   17.06
   0  -2  -4  380.98   16.13
   0  -2   4  392.81   16.81
   0   2   4  328.33   14.22
   0   2  -4  406.99   17.27
   0   2   4  386.68   15.64
   0   2  -4  366.23   15.59
   0   2   4  410.88   16.94
   0  -2  -4  398.12   16.86
   0   2  -4  354.49   15.41
   0  -2   5  605.76   23.97
   0   2  -5  565.11   22.95
   0  -2   5  521.04   22.70
   0  -2  -5  546.89   23.89
   0   2   5  535.06   23.48
   0  -2   5  537.39   23.48
   0  -2  -5  516.69   22.76
   0   2   5  555.89   22.59
   0   2  -5  515.58   22.52
   0  -2  -5  540.80   23.57
   0   2   5  540.95   23.12
   0  -2  -6  439.13   20.25
   0  -2   6  439.69   20.18
   0   2  -6  437.18   19.47
   0   2   6  438.16   19.97
   0  -2   6  422.63   19.94
   0   2   6  438.54   16.45
   0  -2  -6  431.01   19.36
   0   2  -6  423.69   16.46
   0  -2  -6  467.34   20.44
   0   2   6  445.52   19.28
   0   2   6  436.51   19.19
   0  -2   6  418.66   19.21
   0  -2  -6  459.71   19.73
   0   2  -6  438.85   19.44
   0   2  -7   28.41    1.58
   0   2   7   31.84    3.74
   0  -2  -7   29.72    1.55
   0   2  -7   24.63    3.63
   0  -2   7   31.34    3.85
   0  -2  -7   26.98    3.92
   0   2  -7   43.49    4.50
   0  -2   7   35.29    4.37
   0  -2  -7   31.55    4.29
   0  -2   7   34.09    3.42
   0   2   7   29.90    3.96
   0   2   7   31.67    1.65
   0  -2   7   29.12    4.34
   0   2   7   32.96    1.73
   0  -2  -7   31.47    3.98
   0   2   7   40.28    4.61
   0   2  -7   28.59    1.75
   0   2  -7   32.32    1.67
   0  -2  -7   34.95    1.77
   0   2   7   32.38    1.61
   0   2   7   25.25    3.11
   0  -2  -7   32.48    4.39
   0   2  -8   55.88    5.61
   0  -2  -8   59.01    2.72
   0   2  -8   54.22    2.69
   0   2   8   63.52    5.86
   0  -2   8   52.46    5.48
   0  -2  -8   66.95    6.11
   0  -2  -8   58.43    6.14
   0   2   8   65.19    6.07
   0   2  -8   64.31    6.08
   0  -2   8   65.16    6.34
   0   2   8   65.17    2.88
   0  -2   8   55.21    6.32
   0   2   8   68.82    6.40
   0  -2  -8   62.89    5.76
   0   2  -8   61.80    2.97
   0   2  -8   60.81    2.77
   0  -2  -8   60.69    2.86
   0  -2  -8   77.96    6.89
   0  -2   8   58.96    2.71
   0   2   8   60.37    2.80
   0   2   9   44.88    5.10
   0  -2  -9   37.92    2.27
   0  -2  -9   40.20    5.41
   0   2  -9   42.07    5.36
   0   2  -9   41.32    2.31
   0  -2   9   35.92    4.85
   0  -2  -9   37.65    5.19
   0   2  -9   41.63    5.63
   0   2   9   42.28    2.26
   0  -2   9   31.61    5.72
   0   2   9   34.72    5.03
   0   2   9   36.17    5.18
   0   2  -9   43.00    2.45
   0  -2  -9   41.52    2.25
   0   2  -9   38.09    2.10
   0  -2  -9   39.57    5.37
   0   2   9   41.63    2.25
   0  -2   9   39.53    2.10
   0   2  10  843.35   31.57
   0  -2  10  853.34   31.55
   0   2  10  846.03   36.77
   0  -2 -10  835.30   37.10
   0  -2  10  743.02   36.47
   0   2 -10  806.34   36.67
   0   2 -10  819.28   31.53
   0  -2 -10  869.39   31.56
   0   2  10  759.50   35.58
   0   2 -10  841.60   36.89
   0   2  10  854.95   31.60
   0  -2  10  777.00   36.92
   0   2 -10  851.45   31.74
   0  -2 -10  858.05   31.67
   0  -2 -10  880.11   31.62
   0   2 -10  785.76   31.47
   0   2  10  875.90   37.29
   0  -2 -10  845.79   36.62
   0  -2 -11    4.05    1.65
   0   2 -11    5.04    1.62
   0   2 -11    4.87    1.69
   0  -2 -11    2.21    1.90
   0   2  11    3.07    1.88
   0  -2 -11    5.57    1.08
   0   2  11    4.91    0.90
   0  -2  11    3.55    0.99
   0   2  11    7.15    1.41
   0  -2 -12   10.38    1.60
   0   2 -12   13.36    1.71
   0   2  12   12.32    1.76
   0  -2 -12   12.03    1.83
   0   2  12   12.00    2.03
   0  -2 -12   11.29    1.15
   0   2  12    9.32    0.95
   0   2  12   10.33    1.40
   0  -2  12   10.22    1.09
   0  -2 -13    3.87    1.16
   0   2  13    5.47    1.58
   0   2  13    4.87    1.23
   0  -2 -13    5.38    1.34
   0  -2 -13    3.53    0.78
   0  -2 -13    5.70    1.25
   0   2 -13    3.52    1.23
   0  -2  13    4.46    0.79
   0  -2 -14   20.52    1.29
   0   2 -14   20.29    1.33
   0   2  14   19.47    1.41
   0   3   0    0.28    1.62
   0  -3   0    1.61    2.04
   0   3   0    1.15    1.88
   0   3   0   -0.09    0.52
   0  -3   0    0.43    1.39
   0   3   0    2.69    2.18
   0   3   0   -0.19    0.51
   0   3   1  289.23   12.53
   0   3  -1  298.35   13.30
   0  -3   1  295.28   13.36
   0   3   1  280.48   13.00
   0  -3   1  272.62   13.37
   0  -3  -1  275.69   13.43
   0   3  -1  268.99   12.93
   0   3   1  252.65    9.67
   0  -3   1  253.76   11.80
   0  -3  -1  249.67   11.45
   0  -3  -1  263.39   12.06
   0   3  -1  256.76   13.05
   0   3   1  248.11   13.19
   0   3   1  244.56    9.72
   0   3  -1  241.79    9.69
   0   3   1  247.66    9.69
   0   3  -2  805.68   32.19
   0   3   2  779.17   30.51
   0  -3   2  795.51   31.73
   0  -3   2  764.97   32.23
   0   3   2  781.25   31.75
   0  -3  -2  801.27   32.51
   0   3  -2  789.75   31.81
   0  -3  -2  788.49   32.36
   0  -3  -2  740.00   28.05
   0   3   2  751.50   28.10
   0   3  -2  748.14   28.15
   0   3  -2  775.00   28.16
   0   3   2  724.46   28.17
   0   3   2  743.52   28.14
   0   3  -2  767.19   31.65
   0  -3   2  781.38   30.57
   0  -3  -2  808.41   30.74
   0  -3   3  290.77   12.98
   0  -3  -3  282.43   13.30
   0   3  -3  291.87   13.68
   0   3   3  296.23   14.63
   0   3  -3  304.89   14.29
   0  -3   3  305.01   14.65
   0  -3   3  310.11   14.00
   0   3  -3  297.32   14.53
   0   3   3  275.65   12.19
   0  -3  -3  271.53   10.47
   0   3  -3  265.89   10.53
   0   3   3  274.20   10.49
   0   3  -3  287.53   10.60
   0  -3   3  269.61   10.41
   0  -3  -3  275.49   10.44
   0   3   3  258.34   10.56
   0   3   4  103.02    7.68
   0   3  -4  108.72    6.88
   0  -3  -4  114.43    7.28
   0   3  -4  105.64    7.64
   0  -3   4  102.91    7.13
   0  -3   4  123.33    8.19
   0   3   4  115.61    4.54
   0   3   4  118.24    4.54
   0   3   4  104.78    4.41
   0   3  -4  106.70    4.51
   0   3   4  116.28    7.74
   0   3   4  111.92    4.56
   0   3  -4  112.16    4.55
   0  -3   4  104.53    4.34
   0  -3  -4  106.33    4.42
   0   3   4  102.82    4.52
   0   3   5  132.07    8.96
   0  -3  -5  131.25    8.55
   0  -3   5  128.23    8.89
   0   3   5  139.34    5.47
   0   3   5  137.36    5.44
   0  -3   5  134.71    8.44
   0  -3   5  139.14    9.39
   0   3  -5  121.12    8.79
   0   3   5  124.56    8.95
   0  -3  -5  151.19    9.86
   0  -3  -5  131.41    7.91
   0   3  -5  138.50    5.44
   0   3   5  138.61    9.05
   0   3   5  126.03    5.29
   0   3  -5  126.21    5.42
   0   3   5  129.44    5.46
   0  -3  -5  133.88    5.38
   0  -3  -6   31.02    3.84
   0  -3  -6   31.78    4.53
   0   3   6   27.87    4.33
   0  -3   6   34.42    5.06
   0   3  -6   30.22    4.57
   0  -3  -6   47.73    5.78
   0  -3   6   26.32    4.75
   0   3   6   35.06    1.88
   0   3   6   35.58    1.96
   0   3   6   26.75    4.70
   0   3   6   33.41    4.72
   0   3  -6   34.02    1.90
   0   3   6   30.22    1.65
   0   3  -6   33.30    1.84
   0  -3  -6   32.60    1.92
   0   3   6   29.90    1.94
   0  -3  -6   35.65    1.92
   0  -3  -7   25.62    3.91
   0   3   7   24.34    4.06
   0  -3  -7   34.98    5.32
   0  -3   7   28.52    5.41
   0  -3  -7   26.41    5.37
   0   3   7   33.82    1.88
   0   3   7   25.79    5.32
   0  -3   7   25.98    5.26
   0   3   7   31.97    5.01
   0   3  -7   32.22    2.11
   0  -3  -7   28.74    1.92
   0   3  -7   30.67    1.84
   0   3   7   30.59    2.14
   0  -3  -7   30.64    2.17
   0  -3  -8   41.22    6.10
   0  -3  -8   38.88    5.05
   0  -3   8   31.93    5.60
   0   3   8   31.70    5.71
   0   3   8   41.58    2.42
   0  -3  -8   38.74    6.05
   0  -3   8   38.80    6.28
   0   3  -8   38.68    2.56
   0  -3  -8   42.39    2.33
   0   3  -8   40.48    2.19
   0  -3  -8   42.18    2.74
   0   3   8   38.95    2.70
   0   3   8   38.84    2.39
   0  -3  -9  239.53   14.22
   0  -3  -9  207.47   13.59
   0  -3   9  197.25   13.67
   0  -3   9  212.49   13.74
   0   3   9  238.36    8.99
   0   3  -9  213.51    8.82
   0  -3  -9  225.28    8.96
   0   3   9  216.82    8.95
   0   3   9  227.07    9.06
   0  -3  -9  226.77    9.07
   0   3  -9  225.21    9.11
   0   3  10  210.45    8.23
   0  -3 -10  204.65    8.16
   0   3  10  194.53    8.20
   0  -3 -10  218.01    8.38
   0   3  10  196.54    8.27
   0   3 -10  200.75    8.35
   0  -3 -11  122.01    5.29
   0  -3 -11  121.45    5.09
   0   3  11  125.02    5.10
   0   3  11  119.18    5.21
   0  -3 -11  130.55    5.37
   0   3  11  117.21    5.19
   0   3 -11  128.70    5.36
   0  -3 -12    4.01    1.23
   0  -3 -12    5.67    0.82
   0   3  12    3.91    0.77
   0   3  12    4.49    1.14
   0   3 -12    5.50    1.25
   0  -3 -13   28.19    1.51
   0   3 -13   28.16    1.56
   0  -3 -13   24.97    1.29
   0   4   0  854.52   38.03
   0  -4   0  909.71   38.87
   0   4   0  845.82   33.29
   0   4   0  912.59   33.46
   0   4   0  913.80   33.49
   0   4   0  914.66   33.54
   0   4   0  856.50   38.76
   0  -4   0  914.08   33.38
   0   4   0  883.82   33.49
   0   4   1  324.45   16.62
   0  -4  -1  299.75   17.10
   0  -4   1  336.01   17.11
   0  -4   1  336.60   17.69
   0   4  -1  304.49   16.29
   0   4   1  318.37   12.22
   0   4   1  314.01   12.07
   0   4  -1  312.50   12.17
   0  -4  -1  306.52   11.99
   0   4   1  320.81   12.22
   0   4  -1  311.92   12.26
   0   4   1  325.31   12.27
   0   4   1  341.33   17.75
   0  -4  -1  302.06   15.05
   0   4  -1  305.48   16.85
   0  -4   1  308.16   12.07
   0   4  -1  319.79   12.26
   0   4   1  313.51   12.25
   0  -4   2   84.08    8.31
   0  -4  -2   68.42    7.55
   0   4   2   73.12    6.82
   0  -4   2   68.08    7.08
   0   4  -2   74.15    7.04
   0  -4  -2   69.68    7.74
   0   4   2   81.54    3.67
   0   4   2   81.37    3.54
   0  -4  -2   79.67    3.47
   0   4  -2   80.65    3.80
   0   4   2   80.19    3.68
   0   4  -2   80.12    3.70
   0   4  -2   77.71    3.55
   0   4   2   78.90    3.65
   0  -4  -2   75.98    6.14
   0   4   2   91.46    8.47
   0   4  -2   75.71    7.22
   0  -4   2   81.55    3.50
   0   4   2   78.46    3.78
   0  -4  -3   16.69    5.34
   0  -4   3   18.04    4.86
   0   4  -3   12.74    3.99
   0  -4  -3   16.94    5.09
   0  -4   3   14.21    3.93
   0   4   3   20.81    1.56
   0   4   3   21.03    1.75
   0  -4  -3   20.99    1.56
   0   4   3   18.74    3.83
   0   4  -3   18.86    2.07
   0   4  -3   20.45    1.49
   0   4   3   18.05    1.56
   0   4  -3   18.98    1.76
   0  -4  -3   23.87    3.89
   0   4  -3   22.12    4.14
   0  -4   3   21.30    1.51
   0   4   3   19.25    2.01
   0  -4   4   81.09    8.38
   0  -4  -4   85.04    8.47
   0  -4   4   70.63    7.04
   0   4  -4   70.10    7.10
   0   4   4   84.88    3.74
   0  -4   4   71.64    7.49
   0   4  -4   75.57    4.01
   0   4   4   82.79    3.74
   0  -4  -4   83.38    3.70
   0   4   4   89.68    7.48
   0   4   4   72.79    3.69
   0   4  -4   79.32    3.51
   0   4   4   93.61    8.77
   0  -4  -4   82.07    6.85
   0  -4   4   79.01    3.53
   0   4   4   78.96    3.99
   0   4   4   82.29    3.99
   0  -4  -4   80.63    3.51
   0  -4  -5  118.02    9.72
   0  -4   5   99.67    9.55
   0  -4  -5  116.50    9.88
   0   4  -5  107.37    8.82
   0   4   5  110.87    4.77
   0  -4   5  102.19    8.99
   0   4   5  115.49    4.80
   0  -4  -5  106.99    4.77
   0   4   5  107.76    8.54
   0   4   5  105.20    4.64
   0   4  -5  109.25    4.98
   0   4   5  104.29    4.93
   0   4   5  102.71    4.98
   0  -4  -5  101.67    4.58
   0   4   5  113.45    9.28
   0  -4  -6   18.09    4.21
   0   4   6    5.09    4.28
   0  -4  -6   10.78    4.67
   0   4  -6   12.10    4.03
   0  -4  -6    9.73    5.09
   0  -4   6   10.15    4.95
   0  -4   6   11.14    4.50
   0   4   6   12.41    1.63
   0  -4  -6   13.24    1.96
   0   4   6   13.63    1.52
   0   4   6    8.63    3.53
   0   4   6   11.95    1.57
   0  -4  -6   13.66    1.58
   0   4   6   11.79    2.16
   0   4   6   10.26    2.13
   0  -4  -6   14.39    1.75
   0  -4  -7   20.02    5.41
   0   4  -7   22.04    4.87
   0   4   7   26.72    2.03
   0   4   7   28.40    1.96
   0  -4  -7   26.26    1.97
   0   4   7   24.09    2.51
   0  -4  -7   26.93    2.21
   0   4   7   23.39    2.39
   0  -4  -7   28.33    2.38
   0   4   7   31.45    5.01
   0   4   8   36.06    2.33
   0  -4  -8   38.28    2.63
   0  -4  -8   32.62    2.15
   0   4   8   31.18    2.69
   0   4   8   35.69    2.56
   0  -4  -8   38.49    2.44
   0  -4  -9   11.77    1.84
   0  -4  -9    8.53    1.17
   0   4   9    8.41    1.91
   0  -4  -9    9.38    1.66
   0   4   9    6.98    1.62
   0   4  -9    9.40    1.59
   0  -4 -10   49.59    2.53
   0  -4 -10   46.20    2.24
   0   4  10   45.02    2.59
   0  -4 -10   49.48    2.49
   0   4  10   42.29    2.36
   0   4 -10   49.33    2.53
   0  -4 -11   70.42    2.97
   0  -4 -11   63.69    2.80
   0   4  11   67.52    2.89
   0   4  11   63.98    3.00
   0  -4 -11   70.16    2.98
   0   4 -11   68.15    3.03
   0  -4 -12   16.62    1.02
   0   5   0    0.81    1.28
   0   5   0   -0.37    1.42
   0   5   0    1.54    2.06
   0  -5   0    0.98    1.69
   0   5   1  454.22   17.15
   0   5  -1  435.40   17.14
   0   5   1  439.47   17.16
   0   5  -1  442.81   17.21
   0   5   1  460.29   17.10
   0   5  -1  439.73   17.00
   0  -5  -1  454.50   17.03
   0   5   1  434.55   17.17
   0  -5   1  445.43   16.98
   0   5  -2   70.28    3.39
   0   5   2   68.57    3.33
   0   5   2   67.32    3.57
   0   5   2   70.84    3.41
   0   5  -2   64.10    3.15
   0   5   2   64.05    3.63
   0  -5   2   65.39    3.28
   0  -5  -2   66.49    3.48
   0   5   3   81.74    3.67
   0   5  -3   80.05    3.77
   0   5  -3   80.81    4.15
   0   5   3   77.88    3.77
   0  -5  -3   72.42    3.49
   0   5   3   79.07    3.51
   0   5   3   87.63    3.79
   0  -5  -3   73.27    3.84
   0  -5   3   70.18    3.51
   0   5   3   79.19    4.02
   0   5  -4   61.37    3.12
   0   5  -4   59.05    3.39
   0   5   4   61.35    3.07
   0  -5  -4   57.13    2.93
   0   5   4   58.73    2.89
   0   5   4   57.77    3.37
   0  -5  -4   60.83    3.27
   0   5   5   28.10    1.86
   0  -5  -5   28.48    1.92
   0   5  -5   28.20    1.98
   0  -5  -5   25.85    1.94
   0   5   5   26.78    2.28
   0  -5  -5   28.51    2.31
   0   5   6   90.29    3.88
   0   5   6   99.49    4.01
   0  -5  -6   88.10    3.92
   0   5  -6   87.43    4.02
   0  -5  -6   87.48    4.00
   0   5   6   80.98    4.11
   0   5   7   63.33    2.82
   0  -5  -7   62.54    2.84
   0   5  -7   60.40    2.93
   0  -5  -7   57.87    2.83
   0   5   7   56.86    2.99
   0   5   8   12.02    1.13
   0  -5  -8   13.13    1.26
   0  -5  -8   12.61    1.09
   0   5   8   10.96    1.39
   0   5  -8   12.29    1.23
   0  -5  -9   44.92    1.94
   0  -5  -9   38.95    1.84
   0   5   9   43.69    1.96
   0  -5  -9   41.36    1.96
   0   5   9   38.14    1.98
   0   5  -9   41.82    2.04
   0   5  10   41.49    1.78
   0   6   0    8.98    1.07
   0  -6   0   10.40    1.08
   0   6  -1    5.62    0.96
   0   6   1    4.98    1.20
   0   6  -1    5.11    1.26
   0  -6  -1    5.50    1.03
   0   6  -2   31.23    1.76
   0  -6  -2   34.85    1.79
   0   6   2   32.88    1.75
   0   6  -3    8.13    0.99
   0   6   3    8.68    1.00
   0  -6  -3    7.49    1.04
   0  -6  -3    7.97    1.03
   0   6  -4    2.99    0.82
   0  -6  -4    3.06    0.89
   0  -6  -4    1.64    0.82
   0  -6  -5   15.02    1.02
   0  -6  -5   16.96    1.05
  -1   0  15   38.36    1.78
   1   0 -15   33.63    1.83
   1   0 -14    1.63    1.37
  -1   0  14    1.98    1.00
   1   0 -14    2.32    1.05
   1   0 -13    7.44    2.01
   1   0 -13    8.60    1.45
   1   0 -13    6.69    1.12
  -1   0  13    8.68    1.43
   1   0 -12  416.58   16.31
   1   0 -12  425.06   16.41
   1   0 -12  428.28   16.26
  -1   0  12  424.77   16.37
   1   0 -11  438.79   17.55
   1   0 -11  489.44   17.94
  -1   0  11  426.45   23.33
   1   0 -11  462.61   17.84
   1   0 -11  491.06   17.81
   1   0 -11  436.52   21.58
  -1   0  11  468.72   17.91
  -1   0  10  304.81   11.95
   1   0 -10  310.31   15.66
  -1   0  10  280.56   14.98
   1   0 -10  295.39   16.94
  -1   0  10  313.69   15.60
   1   0 -10  319.17   12.01
   1   0 -10  310.18   11.91
   1   0 -10  317.18   11.86
   1   0 -10  285.75   11.64
  -1   0   9  190.58    7.97
   1   0  -9  195.87   11.16
   1   0  -9  195.89    7.94
  -1   0   9  218.09   11.25
  -1   0   9  211.76   11.17
   1   0  -9  205.76    7.95
   1   0  -9  212.09    7.94
   1   0  -9  191.34    7.74
   1   0  -8   92.16    4.09
   1   0  -8   99.70    7.64
  -1   0   8  115.23    7.58
  -1   0   8   98.16    6.50
  -1   0   8   96.07    6.40
   1   0  -8   98.27    4.07
   1   0  -8  108.20    6.87
  -1   0   7  179.79    8.90
  -1   0   7  155.47    8.46
   1   0  -7  151.45    6.21
   1   0  -7  163.06    8.74
  -1   0   6  891.33   36.62
  -1   0   6  968.11   37.04
  -1   0   6 1003.81   37.73
   1   0  -6  886.60   36.87
  -1   0   5  651.40   26.74
  -1   0   5  732.66   27.18
  -1   0   5  732.58   27.73
   1   0  -5  610.49   26.78
  -1   0   4  295.86   12.60
  -1   0   4  308.56   13.01
   1   0  -4  279.68   12.63
  -1   0   3  110.16    5.33
  -1   0   3  128.95    5.85
   1   0  -3  112.42    5.45
  -1   0   3  114.23    5.67
   1   0  -2   34.87    2.17
  -1   0   2   40.43    2.44
   1   0  -2   38.77    2.57
   1   0  -1    1.99    0.58
   1   0  -1    3.20    0.83
   1   0   0 1296.08   47.42
   1   0   0 1340.53   47.68
   1   0   0 1201.83   47.61
   1   0   1  498.27   18.95
  -1   0  -1  494.97   18.65
   1   0   1  490.37   18.58
   1   0   2 2736.65  100.26
   1   0   2 2534.07  100.38
  -1   0  -2 2789.23  100.32
   1   0   2 2655.48   99.56
   1   0   2 2737.78  100.40
  -1   0  -2 2744.11   99.78
   1   0   2 2707.83  100.07
   1   0   3  672.00   25.43
  -1   0  -3  642.45   24.83
   1   0   3  652.17   24.73
  -1   0  -3  688.16   25.67
   1   0   3  627.49   25.44
   1   0   4  103.85    5.44
   1   0   4   97.78    4.65
  -1   0  -4  100.71    5.63
   1   0   4   99.29    5.45
  -1   0  -4  102.84    4.66
  -1   0  -4   90.00    5.35
   1   0   5 1056.22   42.82
  -1   0  -5 1141.07   43.27
   1   0   5 1094.48   41.89
   1   0   5 1170.13   43.10
  -1   0  -5 1055.01   42.84
   1   0   6   14.57    2.46
  -1   0  -6   16.78    3.03
   1   0   6   17.38    1.96
   1   0   6   18.97    2.73
  -1   0  -6    9.36    2.24
   1   0   7  534.14   23.40
  -1   0  -7  544.10   23.97
   1   0   7  526.13   21.92
  -1   0  -7  542.21   23.49
   1   0   7  573.42   23.77
   1   0   8   27.37    3.89
  -1   0  -8   24.55    4.00
   1   0   8   20.73    2.37
   1   0   8   29.85    3.78
  -1   0  -8   31.38    3.81
   1   0   8   24.98    1.53
  -1   0  -8   27.18    1.53
   1   0   8   23.57    3.78
   1   0   9  326.74   17.00
  -1   0  -9  304.07   12.02
   1   0   9  323.51   16.54
  -1   0  -9  292.28   16.55
   1   0   9  314.25   15.90
  -1   0  -9  308.31   11.90
   1   0   9  316.30   12.07
  -1   0  -9  318.92   16.08
   1   0  10  127.12    9.70
  -1   0 -10  112.72    5.01
   1   0  10  120.00    9.17
  -1   0 -10   95.97    9.41
   1   0  10  117.29    8.52
  -1   0 -10  109.79    4.63
   1   0  10  108.60    4.85
  -1   0 -10   95.57    8.19
  -1   0 -11  134.15    6.41
   1   0  11  156.83   11.23
  -1   0 -11  143.15   11.26
   1   0  11  169.81   11.52
   1   0  11  150.11    6.31
  -1   0 -11  137.21   10.05
  -1   0 -11  152.73    6.05
   1   0  11  146.61   10.23
  -1   0 -12   40.84    2.55
   1   0  12   37.18    2.46
  -1   0 -12   37.92    2.03
  -1   0 -12   34.40    2.89
  -1   0 -13   30.68    2.10
  -1   0 -13   29.22    2.35
   1   0  13   33.46    2.09
   1   0  14    3.63    1.09
  -1   0 -14    5.24    1.17
  -1   0 -14    3.92    1.35
  -1   0 -15   48.82    2.18
  -1   0 -15   52.37    2.22
   1   0  15   49.26    2.17
   1   1 -15    2.24    0.75
   1  -1 -15    2.29    0.73
  -1  -1  15    1.69    0.59
  -1   1  15    2.42    0.68
  -1   1  15    2.16    0.87
   1  -1 -14   16.65    1.18
   1   1 -14   18.71    1.55
   1  -1 -14   18.02    1.55
  -1  -1  14   17.83    1.29
  -1   1  14   17.65    1.40
   1  -1 -13    5.96    1.01
   1   1 -13    5.18    1.37
   1  -1 -13    4.17    1.33
   1  -1 -13    5.15    1.70
   1   1 -13    4.68    1.75
  -1  -1  13    6.19    1.13
  -1   1  13    5.17    1.29
   1  -1 -12   10.54    2.05
   1   1 -12    7.51    2.11
   1  -1 -12   10.30    1.69
   1   1 -12    9.96    1.63
   1   1 -12    8.78    1.06
   1  -1 -12    9.37    1.27
   1  -1 -12    8.80    1.58
  -1   1  12    9.47    1.68
  -1  -1  12    8.54    1.36
  -1  -1  11  546.21   20.51
   1  -1 -11  533.46   25.48
  -1   1  11  540.38   20.54
   1  -1 -11  555.06   26.85
   1   1 -11  528.20   20.52
   1   1 -11  544.17   26.64
   1  -1 -11  548.58   20.51
  -1  -1  11  481.72   25.63
  -1   1  11  524.58   26.09
   1   1 -11  493.52   25.58
  -1   1  11  522.33   26.11
  -1  -1  11  547.90   26.33
  -1   1  11  543.26   25.24
   1  -1 -11  540.42   25.89
   1   1 -11  534.08   20.51
   1  -1 -11  532.46   20.48
   1   1 -11  513.74   20.46
   1  -1 -11  571.64   20.47
   1  -1 -11  527.15   20.38
   1  -1 -10  143.72   10.49
  -1  -1  10  150.77    6.56
  -1   1  10  162.71    6.66
   1  -1 -10  163.40    6.67
   1  -1 -10  153.74   11.66
   1   1 -10  160.60   11.63
   1   1 -10  151.03    6.67
   1   1 -10  159.11   11.20
  -1   1  10  136.01    9.92
  -1  -1  10  154.98   11.34
  -1   1  10  169.24   11.71
  -1   1  10  167.10   10.59
   1  -1 -10  156.53   10.95
   1   1 -10  169.56    6.66
   1   1 -10  157.60    6.57
   1  -1 -10  164.64    6.56
   1  -1 -10  156.64    6.52
  -1  -1   9   34.74    1.91
   1  -1  -9   38.59    4.92
  -1   1   9   32.49    1.96
   1  -1  -9   33.17    4.94
   1   1  -9   27.82    1.93
   1  -1  -9   22.89    5.11
   1  -1  -9   34.63    1.97
   1   1  -9   31.57    5.36
  -1  -1   9   26.95    3.72
   1   1  -9   31.75    5.23
  -1   1   9   30.69    4.37
  -1   1   9   32.00    1.73
  -1   1   9   38.88    5.37
  -1   1   9   34.83    4.45
   1   1  -9   34.70    1.95
   1  -1  -9   35.87    1.89
   1   1  -9   28.58    1.82
   1  -1  -9   30.53    1.88
  -1  -1   8  200.72    8.35
   1  -1  -8  221.45   12.07
   1   1  -8  214.21   10.37
   1   1  -8  197.21    8.30
   1  -1  -8  221.02   12.69
   1  -1  -8  216.69    8.34
   1   1  -8  212.93   12.43
   1   1  -8  231.24   12.37
  -1   1   8  238.43   11.90
   1  -1  -8  210.95   10.99
  -1  -1   8  220.21   11.14
   1  -1  -8  223.81   12.39
  -1   1   8  229.71   12.46
  -1   1   8  221.12    8.30
  -1  -1   8  207.05   10.59
  -1   1   8  244.16   12.09
   1  -1  -8  218.95   12.06
   1   1  -8  210.19    8.36
   1  -1  -8  219.94    8.39
   1   1  -8  213.04    8.36
   1  -1  -8  210.45    8.29
  -1   1   7  197.35   10.57
   1  -1  -7  185.28   10.55
   1   1  -7  186.59   10.24
  -1   1   7  192.13    9.99
  -1  -1   7  176.37    9.38
   1  -1  -7  181.22   10.09
  -1  -1   7  173.42    8.93
  -1   1   7  215.44   10.45
   1  -1  -7  179.99    7.02
   1   1  -7  175.66   10.40
   1   1  -7  173.20    7.01
   1  -1  -7  189.33   10.76
  -1   1   7  175.86    8.42
   1  -1  -7  176.84   10.07
   1   1  -7  177.43    8.71
  -1   1   6   55.88    4.92
  -1   1   6   51.45    3.18
  -1   1   6   62.42    4.68
   1  -1  -6   58.13    4.87
  -1  -1   6   57.72    4.55
   1   1  -6   70.04    4.99
  -1  -1   6   59.85    4.46
  -1   1   6   63.29    4.80
  -1  -1   6   55.31    3.84
   1  -1  -6   57.01    4.70
   1   1  -6   63.76    5.05
   1  -1  -6   55.44    4.90
  -1   1   6   62.52    3.93
   1  -1  -6   63.87    4.88
   1   1  -6   60.77    3.76
  -1  -1   5  802.49   31.44
  -1   1   5  808.67   31.54
  -1   1   5  727.73   29.58
   1  -1  -5  807.94   31.54
  -1   1   5  777.79   31.17
   1   1  -5  800.75   31.13
  -1  -1   5  803.79   31.00
   1  -1  -5  799.30   31.30
  -1  -1   5  738.22   29.95
  -1   1   5  831.25   31.36
   1   1  -5  745.69   31.23
   1   1  -5  748.99   29.80
  -1   1   4  504.05   19.40
  -1   1   4  458.01   18.02
  -1  -1   4  497.01   19.39
   1  -1  -4  478.60   19.35
   1   1  -4  475.90   18.92
  -1   1   4  467.16   19.15
  -1  -1   4  492.05   18.94
   1  -1  -4  473.23   19.15
  -1  -1   4  446.02   18.01
   1   1  -4  442.67   19.07
   1  -1  -4  452.33   19.14
   1   1  -4  411.51   17.72
  -1   1   3  821.61   30.95
  -1  -1   3  871.99   31.10
  -1   1   3  804.23   30.14
  -1  -1   3  802.77   30.04
  -1  -1   3  865.05   30.74
   1   1  -3  826.06   30.50
   1  -1  -3  801.71   30.77
   1  -1  -3  830.07   30.89
   1  -1  -3  826.79   30.84
   1   1  -3  761.35   30.63
   1  -1  -3  836.50   31.00
   1   1  -3  697.60   29.43
  -1   1   2 7149.06  256.49
  -1   1   2 6798.41  256.09
  -1  -1   2 6937.34  255.90
   1   1  -2 6874.99  255.91
   1  -1  -2 6869.98  256.53
  -1   1   2 7072.90  256.52
  -1   1   2 7205.28  256.66
  -1  -1   2 7149.13  256.40
   1  -1  -2 7047.12  256.50
   1  -1  -2 6967.43  256.27
   1   1  -2 6451.19  256.10
   1  -1  -2 6920.15  256.54
  -1   1   1 1023.50   37.26
  -1  -1   1  981.02   37.29
  -1   1   1 1029.35   37.38
   1   1  -1  931.10   36.42
  -1   1   1 1012.23   37.43
  -1  -1   1  972.10   37.05
   1  -1  -1  998.95   36.86
   1   1  -1  951.02   36.75
  -1  -1   1  979.75   36.57
   1   1  -1 1002.35   37.38
   1  -1  -1  995.67   37.29
   1  -1  -1 1040.07   37.33
  -1   1   0   97.02    4.53
  -1   1   0   81.80    4.27
   1   1   0   80.24    4.04
   1  -1   0   76.39    4.25
   1   1   0   93.68    3.83
   1  -1   0   87.45    3.75
   1   1   0   90.42    3.76
   1  -1   0   84.29    3.76
   1   1   0   89.18    4.56
  -1  -1   0   86.16    3.78
   1  -1   0   99.56    4.30
  -1   1  -1 2066.96   75.30
   1  -1   1 2120.28   75.28
  -1  -1  -1 2002.00   74.39
   1   1   1 2024.18   74.93
  -1  -1  -1 2008.36   74.39
   1  -1   1 1825.97   74.53
   1   1   1 2046.38   74.63
   1  -1   1 2050.43   75.08
  -1  -1  -1 2071.59   74.90
  -1   1  -2  307.41   12.98
  -1  -1  -2  330.19   12.53
   1   1   2  308.74   12.87
   1  -1   2  299.30   13.03
  -1   1  -2  308.05   12.85
   1  -1   2  332.23   13.05
   1   1   2  310.33   12.82
  -1  -1  -2  291.41   12.29
   1   1   2  308.06   12.61
   1  -1   2  303.42   12.58
   1  -1   2  318.42   12.85
   1   1   2  305.65   12.89
  -1  -1  -2  321.71   12.90
   1  -1   3  335.35   13.32
  -1   1  -3  315.26   13.47
  -1  -1  -3  339.92   13.26
   1  -1   3  338.55   13.57
  -1   1  -3  305.70   13.34
   1  -1   3  338.83   13.73
   1   1   3  327.97   13.27
   1  -1   3  289.86   13.20
   1   1   3  313.01   13.28
   1   1   3  308.71   13.13
   1  -1   3  314.68   13.32
  -1  -1  -3  326.79   13.57
  -1   1  -3  290.35   12.36
   1  -1   4  175.73    8.23
  -1   1  -4  157.95    8.11
   1   1   4  186.57    8.62
  -1   1  -4  165.07    8.31
  -1  -1  -4  169.38    8.24
   1   1   4  176.04    8.06
   1  -1   4  178.77    8.69
   1  -1   4  154.44    8.09
   1  -1   4  156.08    8.16
   1   1   4  169.67    8.28
   1   1   4  167.23    7.73
  -1  -1  -4  171.57    8.49
   1   1   5  448.98   18.41
   1  -1   5  423.07   18.01
  -1   1  -5  406.57   17.76
   1  -1   5  436.00   18.50
  -1  -1  -5  443.89   18.26
   1  -1   5  404.15   16.73
  -1   1  -5  426.04   18.24
   1   1   5  437.88   17.68
   1  -1   5  398.84   17.77
   1   1   5  425.55   18.18
   1   1   5  415.54   18.12
  -1  -1  -5  414.59   18.32
   1   1   5  397.03   16.92
  -1   1  -5  415.88   17.45
   1  -1   6   63.63    4.87
   1   1   6   65.48    5.07
  -1   1  -6   65.22    5.09
   1   1   6   70.58    4.57
   1  -1   6   66.45    5.38
  -1  -1  -6   61.01    4.93
   1  -1   6   52.42    3.60
   1  -1   6   71.45    4.93
   1   1   6   71.49    5.34
   1   1   6   77.01    5.35
   1  -1   6   57.53    4.99
  -1   1  -6   64.29    4.41
   1   1   7  815.46   32.02
   1  -1   7  807.79   31.74
  -1  -1  -7  865.44   32.26
   1  -1   7  649.32   29.24
   1   1   7  775.53   30.63
  -1   1  -7  768.13   31.94
   1  -1   7  874.35   32.60
   1   1   7  739.59   27.97
   1  -1   7  766.93   31.26
   1   1   7  818.73   31.95
  -1   1  -7  739.64   30.61
   1   1   7  808.48   32.07
   1  -1   7  724.83   31.71
  -1   1  -7  739.31   28.00
   1   1   8 1149.25   44.06
  -1   1  -8 1051.83   39.01
  -1  -1  -8 1077.48   39.02
   1  -1   8 1059.99   43.77
   1  -1   8 1113.38   43.41
   1   1   8 1084.11   43.64
   1   1   8 1044.10   38.99
  -1  -1  -8 1112.33   43.79
   1   1   8 1044.85   41.82
  -1   1  -8  988.89   43.49
   1  -1   8 1040.47   42.71
   1   1   8 1022.50   38.95
   1   1   8 1166.63   43.74
  -1  -1  -8 1065.43   38.97
  -1   1  -8 1013.83   38.95
  -1  -1  -8 1076.99   43.71
   1  -1   8 1034.34   39.02
  -1   1  -8  942.90   41.82
   1   1   8 1049.42   39.04
  -1  -1  -9   29.45    1.84
   1   1   9   27.85    4.48
   1  -1   9   21.06    4.17
  -1   1  -9   23.04    1.77
   1   1   9   27.35    5.00
   1  -1   9   32.94    4.97
  -1  -1  -9   33.37    5.33
  -1   1  -9   24.24    4.90
   1  -1   9   22.78    3.67
   1   1   9   34.62    4.62
  -1  -1  -9   28.06    1.54
   1   1   9   26.80    1.53
  -1   1  -9   25.75    1.55
   1  -1   9   25.91    1.64
  -1  -1  -9   26.06    4.68
  -1   1  -9   25.78    3.56
   1   1   9   27.91    1.79
  -1   1 -10  371.05   15.12
  -1  -1 -10  392.17   15.16
   1  -1  10  386.21   20.52
   1   1  10  425.44   20.82
   1   1  10  393.00   20.33
   1  -1  10  369.33   19.68
  -1  -1 -10  388.54   20.47
  -1   1 -10  394.39   20.78
   1   1  10  435.71   20.40
  -1  -1 -10  383.64   19.73
   1   1  10  403.56   14.97
  -1  -1 -10  391.21   14.98
   1   1  10  411.19   15.18
   1  -1  10  375.57   15.09
  -1  -1 -10  424.22   20.61
   1   1  11  210.82   13.04
  -1  -1 -11  193.45   13.34
  -1  -1 -11  186.26    7.96
   1  -1  11  195.75   12.90
  -1   1 -11  193.17    7.95
  -1   1 -11  193.62   13.61
  -1   1 -11  173.44   12.68
  -1  -1 -11  201.55   13.06
   1  -1  11  175.69   12.21
  -1  -1 -11  191.68   12.61
   1  -1  11  189.82    7.78
   1   1  11  201.38    7.85
  -1  -1 -11  185.64    7.58
   1   1  11  189.40    7.54
   1   1  11  208.31   12.65
  -1  -1 -11  180.76   12.12
  -1   1 -12   29.18    2.49
  -1  -1 -12   26.93    2.46
  -1  -1 -12   28.04    2.19
  -1  -1 -12   26.65    2.21
  -1  -1 -12   26.24    1.59
   1   1  12   28.50    2.14
   1  -1  12   26.19    1.91
  -1  -1 -13   19.09    1.68
  -1   1 -13   17.72    1.72
  -1  -1 -13   18.71    1.70
   1  -1  13   19.78    1.51
   1   1  13   17.66    1.60
  -1   1 -13   14.44    1.90
  -1  -1 -13   16.06    1.90
  -1  -1 -14   16.25    1.49
  -1   1 -14   19.43    1.57
   1   1  14   18.28    1.73
  -1  -1 -14   18.52    1.43
  -1   1 -14   15.19    1.41
   1   1  14   16.89    1.50
   1   1  14   18.31    1.37
   1  -1  14   17.31    1.29
  -1  -1 -15    7.30    0.80
  -1   1 -15    6.25    0.80
   1   1  15    7.76    1.01
  -1   1 -15    7.09    0.80
   1  -1  15    7.75    0.70
   1   1  15    7.65    0.74
   1  -2 -14    1.56    0.64
  -1   2  14    2.09    0.89
   1  -2 -13    8.31    1.23
  -1   2  13   10.66    1.55
   1  -2 -13    8.98    1.37
   1   2 -13    6.88    1.21
   1  -2 -13    9.48    0.99
   1  -2 -13    8.60    1.19
  -1  -2  13    8.43    0.91
   1  -2 -12   20.07    1.82
   1  -2 -12   19.69    1.79
   1   2 -12   18.52    1.80
   1  -2 -12   18.82    1.75
   1  -2 -12   22.75    2.06
   1  -2 -12   19.50    1.44
   1   2 -12   17.08    1.30
  -1   2  12   18.24    1.61
  -1  -2  12   21.44    1.41
   1  -2 -11   68.82    3.39
   1   2 -11   65.74    3.42
  -1   2  11   68.06    3.34
   1  -2 -11   74.41    3.60
   1   2 -11   69.11    3.53
   1  -2 -11   74.34    3.29
  -1   2  11   64.20    3.01
   1   2 -11   62.06    3.12
  -1  -2  11   70.27    3.19
  -1   2  11   71.85    3.33
  -1   2  10  211.04    8.50
  -1  -2  10  202.40    8.40
   1  -2 -10  222.80   13.85
  -1   2  10  190.66   12.40
   1  -2 -10  222.50    8.51
  -1  -2  10  183.61   12.41
   1   2 -10  218.36   13.24
   1  -2 -10  215.28   13.30
   1   2 -10  207.07    8.48
   1   2 -10  214.92   12.99
  -1   2  10  169.33   12.29
  -1  -2  10  202.10   13.76
  -1   2  10  221.89    8.49
   1  -2 -10  207.15   13.18
  -1   2  10  206.47   12.99
   1   2 -10  216.04    8.64
   1   2 -10  206.28    8.46
   1  -2 -10  221.23    8.55
  -1   2  10  206.63    8.50
   1  -2 -10  222.82    8.66
  -1   2   9  502.93   19.33
  -1  -2   9  523.51   19.32
   1  -2  -9  523.82   24.56
   1  -2  -9  513.47   19.30
   1   2  -9  484.89   19.27
   1   2  -9  504.53   24.05
  -1   2   9  515.47   23.92
  -1  -2   9  495.03   23.97
   1   2  -9  471.64   23.47
   1  -2  -9  450.55   22.89
  -1   2   9  504.84   24.11
  -1   2   9  513.23   19.35
  -1  -2   9  465.07   24.43
   1  -2  -9  510.58   24.24
  -1   2   9  588.84   25.00
   1   2  -9  505.16   19.44
  -1   2   9  512.37   19.33
   1   2  -9  500.88   19.35
   1  -2  -9  513.33   19.42
   1  -2  -9  530.64   19.42
   1  -2  -8  287.52   10.79
   1   2  -8  269.12   10.76
   1   2  -8  281.05   14.78
   1  -2  -8  289.87   15.17
   1  -2  -8  290.62   14.75
  -1   2   8  275.20   14.97
   1   2  -8  299.38   14.79
  -1  -2   8  244.52   13.67
  -1  -2   8  274.55   14.76
  -1  -2   8  265.60   15.38
  -1   2   8  283.33   10.88
  -1   2   8  305.67   15.49
   1  -2  -8  276.25   14.97
  -1   2   8  271.24   10.67
   1   2  -8  281.35   10.94
   1  -2  -8  292.07   10.96
   1   2  -8  284.63   10.89
  -1  -2   8  282.54   10.81
  -1   2   8  271.57   10.81
   1  -2  -7   32.15    4.11
   1  -2  -7   32.91    4.33
  -1   2   7   29.25    1.62
  -1   2   7   30.37    3.48
   1  -2  -7   30.01    1.58
   1   2  -7   28.12    3.69
   1  -2  -7   30.46    3.95
   1   2  -7   29.97    1.58
   1  -2  -7   32.13    4.11
  -1  -2   7   32.28    3.78
  -1  -2   7   33.46    4.11
  -1   2   7   38.86    4.63
   1   2  -7   31.48    3.76
  -1   2   7   34.34    1.77
  -1   2   7   32.43    1.64
  -1   2   7   34.92    4.57
  -1   2   7   31.67    1.56
   1   2  -7   33.82    1.79
   1  -2  -7   29.54    1.76
   1   2  -7   34.04    1.76
   1  -2  -7   33.33    1.75
   1  -2  -6   42.52    4.49
  -1   2   6   40.81    4.02
   1   2  -6   38.68    3.93
   1  -2  -6   39.23    4.07
   1  -2  -6   37.18    4.10
  -1  -2   6   41.95    4.34
   1   2  -6   41.90    3.89
  -1   2   6   49.08    2.07
  -1   2   6   34.70    4.18
  -1   2   6   49.86    4.68
   1  -2  -6   41.66    4.15
  -1   2   6   39.39    1.87
   1   2  -6   38.89    1.99
   1  -2  -6   41.37    2.05
   1  -2  -6   38.87    1.97
   1  -2  -5  737.74   29.58
   1   2  -5  716.57   29.33
  -1  -2   5  727.94   30.08
   1   2  -5  743.53   29.28
   1  -2  -5  743.31   30.40
  -1   2   5  772.92   30.69
   1  -2  -5  745.23   30.02
  -1   2   5  701.93   29.92
   1  -2  -5  786.82   30.61
   1  -2  -5  705.98   26.96
   1   2  -4  611.83   24.40
  -1  -2   4  617.56   25.49
   1  -2  -4  645.43   25.91
  -1  -2   4  612.81   24.60
   1  -2  -4  598.11   25.25
  -1   2   4  566.75   23.83
  -1   2   4  639.13   25.84
   1  -2  -4  648.83   25.71
   1   2  -4  604.61   24.43
   1  -2  -4  603.69   24.64
   1  -2  -3 2178.40   79.66
  -1   2   3 2160.15   79.39
  -1  -2   3 2104.92   79.30
   1   2  -3 2084.14   77.83
  -1   2   3 2139.89   79.61
  -1  -2   3 2118.54   78.52
   1  -2  -3 2144.64   78.96
  -1   2   3 1988.93   78.09
   1  -2  -3 2128.99   79.20
   1   2  -3 2090.60   78.79
   1  -2  -3 2021.50   77.98
   1   2  -3 1970.15   77.72
  -1  -2   2  621.21   24.46
  -1   2   2  672.50   25.30
  -1   2   2  611.69   24.96
  -1  -2   2  644.05   25.09
   1   2  -2  573.16   23.12
   1   2  -2  622.35   24.69
   1  -2  -2  626.33   24.54
   1   2  -2  614.22   24.75
   1  -2  -2  635.38   24.67
  -1  -2   2  601.36   23.68
   1  -2  -2  589.28   23.25
   1   2  -2  585.45   23.01
  -1   2   2  640.99   24.32
  -1  -2   1  997.48   32.82
  -1   2   1 1038.60   33.09
  -1  -2   1 1014.70   33.22
   1   2  -1  964.75   32.61
  -1   2   1 1022.59   33.19
   1  -2  -1 1030.96   33.21
   1  -2  -1 1010.55   32.46
   1   2  -1 1047.67   33.31
  -1  -2   1  981.88   31.59
   1   2  -1 1093.32   33.30
  -1   2   1 1008.24   32.65
   1   2   0  569.18   22.10
  -1   2   0  556.64   22.31
  -1  -2   0  544.76   22.33
  -1   2   0  530.37   22.31
   1  -2   0  541.51   22.54
  -1   2   0  540.49   22.26
   1  -2   0  549.61   22.49
   1   2   0  503.23   21.84
  -1  -2   0  534.20   20.92
  -1  -2   0  552.01   21.25
   1  -2   0  528.11   21.92
   1   2   0  569.28   22.69
  -1   2  -1  115.46    6.69
   1   2   1  127.86    6.20
   1  -2   1  112.44    6.36
  -1  -2  -1  124.93    6.00
  -1   2  -1  125.35    6.85
   1  -2   1  124.00    6.84
  -1  -2  -1  134.00    7.18
   1   2   1  129.65    6.57
  -1  -2  -2   96.55    6.07
   1  -2   2   86.43    5.56
  -1   2  -2   87.87    5.08
   1   2   2   80.08    5.24
  -1  -2  -2  101.60    4.75
  -1  -2  -2   94.74    5.28
  -1   2  -2   89.08    5.34
   1   2   2   93.17    5.85
   1  -2   2   94.12    5.39
   1   2   2   88.95    4.16
   1  -2   2   91.58    4.19
   1  -2   3  314.47   14.82
   1  -2   3  338.23   14.64
   1   2   3  316.82   14.63
  -1   2  -3  318.46   14.06
   1   2   3  340.43   14.51
  -1  -2  -3  329.36   13.58
  -1   2  -3  318.52   14.79
   1  -2   3  334.23   14.31
  -1   2  -3  319.50   13.93
  -1  -2  -3  344.63   14.46
   1   2   3  329.23   14.76
   1  -2   3  290.60   13.17
   1   2   3  320.40   13.30
   1  -2   4  479.93   20.10
   1  -2   4  495.42   20.74
  -1   2  -4  476.08   19.75
   1   2   4  464.21   20.14
  -1  -2  -4  448.13   19.08
   1   2   4  493.40   20.27
   1  -2   4  435.66   19.77
  -1   2  -4  462.68   20.42
   1   2   4  486.83   20.16
  -1   2  -4  425.97   18.67
  -1  -2  -4  469.73   20.08
   1  -2   4  442.90   19.04
   1   2   4  474.39   19.12
  -1   2  -5  106.88    6.42
   1   2   5   90.38    6.24
   1  -2   5  103.67    6.95
   1  -2   5   99.94    6.37
  -1   2  -5  106.18    6.82
  -1  -2  -5   93.14    5.64
   1   2   5   89.38    6.29
  -1   2  -5   74.47    4.74
  -1  -2  -5   93.77    6.39
   1   2   5   88.24    5.92
   1   2   5  103.13    5.85
   1  -2   5   84.94    5.58
   1  -2   6  141.93    8.22
   1   2   6  150.01    8.25
   1  -2   6  151.91    9.18
   1   2   6  130.12    8.18
  -1   2  -6  147.79    8.57
   1  -2   6  145.39    8.61
   1   2   6  142.00    5.58
  -1   2  -6  141.75    8.80
  -1  -2  -6  142.32    7.94
  -1   2  -6  136.32    5.49
  -1   2  -6  137.25    5.64
   1  -2   6  138.49    5.51
   1   2   6  149.71    8.07
  -1  -2  -6  159.38    9.10
  -1   2  -6  129.10    6.91
   1   2   7  150.29    8.44
  -1  -2  -7  176.77   10.54
   1   2   7  155.03    6.23
  -1   2  -7  145.33    6.19
   1   2   7  181.51    9.71
  -1  -2  -7  162.51    6.23
   1  -2   7  169.21    9.56
   1   2   7  164.47    9.50
   1  -2   7  155.45   10.20
  -1   2  -7  148.96    9.51
   1  -2   7  148.39    9.52
   1   2   7  170.68    6.37
  -1  -2  -7  163.78    9.22
  -1   2  -7  159.74    6.41
  -1  -2  -7  157.80    6.32
   1  -2   7  154.06    6.22
   1  -2   8  345.62   13.57
   1   2   8  378.67   13.63
  -1  -2  -8  386.17   18.81
   1  -2   8  337.51   18.43
   1   2   8  312.58   16.89
  -1   2  -8  347.88   18.00
   1   2   8  349.34   13.68
   1  -2   8  323.74   17.59
   1   2   8  405.72   18.11
  -1   2  -8  345.55   13.58
   1  -2   8  371.08   18.00
  -1  -2  -8  367.09   13.60
   1   2   8  408.84   18.78
  -1  -2  -8  362.92   17.35
  -1  -2  -8  360.84   13.65
   1  -2   8  341.72   13.55
   1   2   9 1227.73   52.92
  -1   2  -9 1265.61   54.42
  -1  -2  -9 1342.39   54.89
   1  -2   9 1237.95   54.07
   1   2   9 1352.43   49.24
  -1   2  -9 1285.95   54.41
   1   2   9 1356.52   54.31
   1  -2   9 1315.16   54.32
  -1  -2  -9 1303.07   54.62
  -1   2  -9 1309.94   49.13
  -1  -2  -9 1330.46   49.13
  -1  -2  -9 1314.07   53.63
   1   2   9 1444.80   55.31
  -1  -2  -9 1310.49   49.16
  -1  -2  -9 1363.67   55.31
   1  -2   9 1299.75   49.13
   1   2   9 1336.45   49.16
  -1  -2 -10  339.04   19.11
  -1   2 -10  389.93   20.03
   1  -2  10  335.27   19.09
   1   2  10  369.06   14.55
   1  -2  10  375.44   14.51
   1   2  10  392.23   14.55
  -1  -2 -10  381.57   14.49
  -1  -2 -10  354.33   19.54
   1  -2  10  343.46   18.96
   1   2  10  404.42   19.53
  -1   2 -10  382.22   14.57
  -1  -2 -10  384.93   14.56
  -1   2 -10  339.08   19.26
  -1  -2 -10  336.74   18.45
   1   2  10  398.72   19.98
  -1   2 -11   13.82    1.87
  -1  -2 -11   14.16    1.83
  -1  -2 -11   14.42    1.21
   1   2  11   14.71    1.25
   1  -2  11   16.09    1.32
   1   2  11   14.39    1.63
   1   2  11   15.88    2.44
   1   2  11   13.50    2.24
  -1  -2 -11   12.78    2.17
  -1  -2 -12    2.23    1.41
  -1  -2 -12    3.76    1.65
   1   2  12    3.23    2.02
   1   2  12    3.27    1.79
  -1  -2 -12    3.87    0.78
   1   2  12    3.81    0.83
   1   2  12    3.18    1.24
   1  -2  12    3.24    0.89
  -1   2 -13   26.42    1.82
  -1  -2 -13   26.23    1.73
   1   2  13   26.50    2.09
  -1  -2 -13   27.29    1.76
   1   2  13   24.41    1.82
  -1  -2 -13   25.24    1.64
   1  -2  13   24.77    1.42
   1   2  14   56.17    2.63
  -1  -2 -14   61.27    2.58
  -1   2 -14   54.82    2.59
   1  -3 -13   25.82    1.36
   1  -3 -13   27.64    1.55
   1   3 -12    3.57    1.16
  -1   3  12    3.57    0.69
   1  -3 -12    3.77    0.85
   1  -3 -12    3.16    1.21
   1   3 -11    7.90    1.52
   1  -3 -11    8.45    1.65
   1   3 -11    8.65    1.02
   1  -3 -11   10.02    1.21
  -1   3  11   10.20    1.20
  -1   3  10  231.60    9.29
   1  -3 -10  243.19    9.37
   1   3 -10  236.26    9.43
   1   3 -10  228.54    9.23
   1  -3 -10  239.67    9.32
  -1   3  10  221.19    9.21
   1  -3 -10  242.75    9.46
   1  -3  -9   30.32    5.78
   1  -3  -9   22.49    4.76
   1  -3  -9   29.04    4.93
   1   3  -9   30.32    5.05
  -1   3   9   36.02    5.76
  -1   3   9   33.38    2.15
  -1  -3   9   17.12    5.37
  -1   3   9   31.58    5.15
   1  -3  -9   31.62    2.55
   1   3  -9   29.38    2.34
   1   3  -9   32.40    1.97
   1  -3  -9   31.71    2.05
  -1   3   9   27.27    2.16
   1  -3  -9   30.42    2.51
   1  -3  -8   68.19    7.29
  -1  -3   8   45.92    6.59
  -1   3   8   69.09    7.75
   1   3  -8   63.86    6.94
   1  -3  -8   63.30    6.93
  -1  -3   8   58.55    7.43
  -1   3   8   66.77    3.30
  -1   3   8   67.01    3.10
  -1   3   8   65.65    3.03
  -1   3   8   68.03    7.01
   1  -3  -8   60.61    6.52
   1   3  -8   65.84    3.44
   1  -3  -8   66.16    3.32
   1   3  -8   66.78    3.24
   1  -3  -8   74.76    3.60
  -1   3   8   63.37    3.29
  -1   3   7   77.99    6.94
   1  -3  -7   71.09    7.26
   1  -3  -7   67.01    7.02
   1   3  -7   62.38    6.72
  -1   3   7   65.59    7.38
  -1  -3   7   64.51    6.91
  -1   3   7   71.43    3.25
  -1   3   7   76.72    3.46
  -1  -3   7   72.80    7.56
  -1   3   7   70.14    3.20
   1  -3  -7   66.43    6.37
   1   3  -7   69.82    3.47
   1  -3  -7   75.32    3.48
   1   3  -7   69.21    3.37
  -1   3   7   67.10    3.33
   1  -3  -7   76.43    3.51
   1  -3  -6   59.13    6.00
  -1   3   6   51.72    5.70
   1  -3  -6   54.32    6.03
   1   3  -6   45.65    5.41
  -1  -3   6   54.25    5.96
  -1   3   6   55.59    6.21
  -1   3   6   53.75    2.58
  -1  -3   6   38.59    5.73
  -1   3   6   53.88    2.49
   1  -3  -6   49.47    5.16
   1   3  -6   55.63    2.72
   1  -3  -6   49.75    2.69
   1   3  -6   53.94    2.65
  -1   3   6   50.26    2.54
   1  -3  -6   54.20    2.65
   1  -3  -5   21.47    3.25
   1  -3  -5   20.13    3.52
  -1   3   5   23.17    4.07
   1   3  -5   19.20    3.68
  -1  -3   5   24.94    3.15
   1  -3  -5   28.27    4.28
  -1  -3   5   20.36    3.88
  -1   3   5   27.17    1.53
  -1  -3   5   24.47    4.30
  -1   3   5   26.16    1.59
  -1   3   5   23.13    1.38
   1  -3  -5   24.21    1.48
   1   3  -5   22.96    1.50
   1   3  -5   23.87    1.54
   1   3  -5   24.00    1.52
  -1   3   5   22.98    1.44
   1  -3  -5   26.16    1.46
  -1   3   4  611.68   26.94
   1  -3  -4  622.24   26.12
   1  -3  -4  593.68   26.43
  -1  -3   4  591.39   25.35
  -1  -3   4  625.02   26.72
  -1   3   4  586.80   26.74
   1   3  -4  572.31   25.96
   1  -3  -4  599.05   26.85
  -1   3   4  610.86   22.41
  -1   3   4  626.55   22.44
  -1   3   4  586.39   22.33
   1   3  -4  580.49   22.39
   1  -3  -4  596.27   22.34
   1   3  -4  582.45   22.43
  -1   3   4  578.50   22.40
   1   3  -4  595.49   22.45
   1  -3  -4  589.48   22.33
  -1   3   4  604.11   22.39
  -1   3   3  154.35    9.56
   1  -3  -3  150.92    8.56
   1   3  -3  145.13    8.56
  -1   3   3  155.93    9.34
   1  -3  -3  141.05    9.20
  -1  -3   3  148.53    9.18
  -1  -3   3  152.51    8.46
   1  -3  -3  150.73    9.18
   1   3  -3  150.62    8.79
  -1   3   3  151.74    5.82
  -1   3   3  149.99    5.81
  -1   3   3  134.38    7.60
  -1   3   3  137.27    5.74
   1   3  -3  141.70    5.80
   1  -3  -3  143.79    5.72
   1   3  -3  148.71    5.83
   1   3  -3  146.32    5.85
  -1   3   3  134.18    5.75
   1  -3  -3  144.71    5.69
  -1  -3   2  544.17   22.96
  -1   3   2  558.54   23.80
   1   3  -2  516.08   22.90
   1  -3  -2  548.32   23.69
  -1  -3   2  531.90   23.61
  -1   3   2  532.27   19.77
   1  -3  -2  524.76   19.71
  -1   3   2  540.67   22.45
  -1   3   2  548.43   24.02
   1  -3  -2  557.63   22.66
   1   3  -2  556.18   23.50
  -1  -3   2  543.69   21.57
  -1   3   2  524.81   19.79
  -1   3   2  491.54   19.74
   1   3  -2  540.07   19.82
   1  -3  -1  191.88   10.45
  -1  -3   1  204.30   10.70
   1  -3  -1  189.42   10.44
  -1  -3   1  195.84   10.10
   1   3  -1  192.20    9.86
   1   3  -1  179.43    6.98
   1  -3  -1  173.33    6.89
  -1   3   1  165.65    6.96
  -1   3   1  193.24    9.74
  -1  -3   1  179.47    8.55
   1   3  -1  195.00   10.49
  -1   3   1  198.79   10.74
   1  -3  -1  175.20    9.48
  -1   3   1  177.98    6.97
   1   3  -1  186.42    7.04
  -1  -3   0  569.68   23.97
   1  -3   0  546.30   24.03
  -1  -3   0  513.99   23.89
   1   3   0  575.39   23.46
   1  -3   0  552.90   24.10
   1   3   0  541.82   20.27
  -1   3   0  608.94   23.89
   1   3   0  592.99   24.49
  -1   3   0  606.13   24.53
   1  -3   0  558.30   23.12
  -1  -3   0  545.24   22.10
   1   3   0  512.73   20.31
  -1   3  -1   16.92    2.25
   1  -3   1   17.29    3.12
   1   3   1   18.55    2.92
  -1  -3  -1   30.19    3.81
  -1  -3  -1   26.82    3.77
   1   3   1   25.04    1.32
  -1   3  -1   26.63    1.37
  -1   3  -1   20.55    3.31
  -1   3  -1   27.02    3.51
  -1  -3  -1   24.79    2.60
   1  -3   1   23.36    2.98
   1   3   1   22.69    3.48
  -1  -3  -1   22.96    2.32
   1   3   1   24.15    1.38
   1  -3   1   25.87    1.30
   1   3   1   22.39    1.39
   1   3   2  688.28   29.17
   1  -3   2  703.85   29.71
  -1  -3  -2  706.38   30.13
  -1   3  -2  623.99   27.81
  -1   3  -2  788.10   30.42
   1   3   2  683.54   25.89
  -1   3  -2  689.97   25.94
  -1  -3  -2  695.40   28.11
  -1   3  -2  710.58   29.51
   1  -3   2  738.16   28.99
  -1   3  -2  682.17   25.92
   1  -3   2  691.67   25.87
   1   3   2  700.06   25.98
   1   3   2  716.74   26.03
   1  -3   3  107.61    7.67
  -1  -3  -3  112.20    7.73
  -1   3  -3   99.99    6.08
  -1   3  -3  118.07    7.67
   1  -3   3  122.96    7.66
   1   3   3  113.63    4.30
  -1   3  -3  101.45    4.25
   1   3   3   97.03    4.15
   1   3   3  106.33    6.91
  -1   3  -3  103.61    4.31
   1   3   3  112.98    4.37
   1  -3   3   95.86    4.15
   1   3   3   97.96    4.30
  -1   3  -3  100.03    6.66
   1   3   3  112.98    7.69
   1  -3   3   91.49    6.42
  -1  -3  -3   95.00    6.31
  -1  -3  -4  129.77    7.86
   1   3   4  131.82    8.74
  -1   3  -4  126.93    7.46
   1  -3   4  122.40    8.33
  -1   3  -4  122.86    8.62
  -1   3  -4  115.20    7.20
   1  -3   4  144.03    9.21
   1   3   4  129.42    5.14
   1  -3   4  113.04    7.86
  -1   3  -4  122.43    8.77
   1   3   4  122.66    5.01
  -1   3  -4  129.62    5.14
   1   3   4  153.72    8.58
   1   3   4  135.08    5.26
  -1   3  -4  120.35    5.08
  -1   3  -4  125.39    5.21
  -1   3  -4  121.67    5.12
  -1  -3  -4  128.86    5.06
   1  -3   4  124.21    5.04
   1   3   4  126.36    5.22
   1   3   5   19.71    3.83
  -1  -3  -5   30.10    3.88
  -1   3  -5   24.49    4.17
   1  -3   5   20.80    3.65
  -1   3  -5   19.10    2.93
   1  -3   5   23.39    4.38
   1  -3   5   17.09    3.44
   1   3   5   21.62    1.44
   1   3   5   23.10    1.42
  -1   3  -5   17.67    3.84
  -1   3  -5   23.21    1.36
   1   3   5   28.67    4.10
  -1   3  -5   18.64    1.29
  -1   3  -5   22.58    1.50
  -1   3  -5   21.48    1.35
   1   3   5   21.99    1.48
   1   3   5   21.22    1.31
  -1  -3  -5   23.81    1.34
   1  -3   5   21.73    1.28
   1   3   6  150.36    9.48
  -1  -3  -6  130.11    9.12
  -1  -3  -6  143.97   10.42
  -1   3  -6  148.01   10.09
  -1   3  -6  137.76    8.64
   1  -3   6  160.30   10.73
   1   3   6  148.38    5.75
   1  -3   6  150.05    9.63
   1   3   6  146.28    5.77
  -1   3  -6  137.05    5.67
   1   3   6  163.54   10.03
  -1   3  -6  135.86    5.81
  -1   3  -6  133.84    5.63
  -1  -3  -6  141.09    5.75
   1   3   6  131.92    5.66
   1   3   6  133.02    5.84
   1  -3   6  135.43    5.58
  -1  -3  -6  140.31    5.71
   1   3   7   35.42    4.68
  -1  -3  -7   37.64    5.51
  -1  -3  -7   31.37    5.98
  -1   3  -7   33.94    4.46
   1  -3   7   36.23    6.16
   1   3   7   46.68    2.47
   1   3   7   44.64    2.33
   1  -3   7   34.55    5.50
   1   3   7   38.87    5.45
  -1   3  -7   44.36    2.53
  -1  -3  -7   43.17    2.31
   1   3   7   44.34    2.43
   1   3   7   42.41    2.75
   1  -3   7   41.52    2.25
  -1  -3  -7   44.72    2.53
  -1  -3  -8  737.61   31.86
  -1  -3  -8  748.15   32.50
   1  -3   8  667.34   31.95
   1  -3   8  628.96   30.62
   1   3   8  743.07   31.79
  -1   3  -8  674.38   26.13
  -1  -3  -8  681.79   26.01
   1   3   8  685.51   26.13
  -1  -3  -8  710.60   26.07
   1   3   8  685.55   26.03
  -1  -3  -9   38.05    6.10
   1  -3   9   36.72    6.70
  -1  -3  -9   31.10    5.89
   1  -3   9   39.27    5.96
   1   3   9   45.60    5.97
   1   3   9   47.26    3.07
   1   3   9   44.93    2.88
  -1  -3  -9   46.14    2.95
  -1  -3  -9   49.10    2.45
  -1  -3 -10  108.15    4.71
   1   3  10   97.52    4.73
   1   3  10   92.18    4.57
  -1  -3 -10  101.41    4.27
  -1  -3 -11   36.42    2.40
   1   3  11   31.41    2.35
   1   3  11   30.67    2.30
  -1  -3 -11   31.99    1.75
   1   3  11   36.93    1.93
  -1  -3 -12   93.30    3.96
   1   3  12   96.14    3.86
   1   3  12   86.87    3.96
  -1  -3 -12   97.08    4.04
   1   3  12   88.40    3.95
  -1  -3 -13    7.35    0.92
  -1  -3 -13    8.40    0.95
  -1   3 -13    6.99    0.98
   1  -4 -12  119.32    4.66
  -1   4  11    7.85    0.87
   1  -4 -11    8.22    0.88
  -1   4  11    5.87    1.10
   1  -4 -11    9.76    1.18
   1   4 -11    6.80    1.05
  -1   4  10   49.10    2.39
   1  -4 -10   52.37    2.39
  -1   4  10   43.94    2.54
   1  -4 -10   50.54    2.57
   1   4 -10   44.76    2.52
   1  -4  -9   47.29    2.64
   1   4  -9   42.02    2.53
   1  -4  -9   43.07    2.34
   1  -4  -9   47.39    2.58
  -1   4   9   40.42    2.66
  -1   4   8   22.66    1.62
   1  -4  -8   24.74    2.19
   1   4  -8   20.03    1.97
   1  -4  -8   19.93    1.75
  -1   4   8   18.48    1.89
   1  -4  -8   22.68    2.08
  -1   4   8   20.25    2.12
  -1   4   7   22.52    1.91
  -1   4   7   24.17    1.74
   1  -4  -7   25.70    2.32
  -1   4   7   21.92    4.54
  -1   4   7   20.83    1.80
   1   4  -7   21.53    2.07
   1   4  -7   20.32    1.72
   1  -4  -7   22.62    1.95
  -1   4   7   21.51    2.06
   1  -4  -7   22.41    2.16
  -1   4   7   22.92    2.29
   1  -4  -6   27.57    4.91
  -1   4   6   25.14    5.63
   1  -4  -6   27.85    5.55
   1  -4  -6   28.06    6.07
  -1  -4   6   20.33    5.27
   1   4  -6   29.97    4.80
  -1   4   6   36.46    2.18
  -1   4   6   35.82    2.35
  -1  -4   6   35.62    6.16
   1  -4  -6   34.44    2.61
  -1   4   6   34.21    2.25
  -1   4   6   26.75    4.90
   1   4  -6   31.50    2.43
   1   4  -6   35.27    2.18
   1  -4  -6   35.70    2.31
   1  -4  -6   33.22    2.34
  -1   4   6   33.12    2.47
  -1   4   6   34.57    2.63
   1   4  -5   40.59    5.62
   1  -4  -5   43.85    6.84
   1  -4  -5   51.38    6.68
  -1  -4   5   55.01    7.04
  -1  -4   5   48.21    6.70
  -1   4   5   56.60    2.91
  -1   4   5   49.99    2.80
   1  -4  -5   57.02    2.99
  -1   4   5   55.89    2.91
  -1   4   5   58.04    6.43
   1   4  -5   53.60    3.29
   1   4  -5   52.79    3.03
   1  -4  -5   37.59    5.39
  -1   4   5   62.80    7.17
  -1   4   5   52.76    3.05
   1  -4  -5   52.84    2.78
  -1   4   5   51.42    3.14
   1   4  -4   47.07    5.78
   1  -4  -4   57.05    7.49
   1  -4  -4   45.48    6.47
  -1  -4   4   56.51    7.20
  -1  -4   4   54.45    6.93
  -1   4   4   61.99    3.07
  -1   4   4   59.31    3.00
   1   4  -4   60.53    3.39
  -1   4   4   64.96    6.55
   1  -4  -4   58.98    3.10
  -1   4   4   57.87    3.07
   1   4  -4   58.88    3.12
   1  -4  -4   66.84    6.57
  -1   4   4   56.18    7.40
   1  -4  -4   61.19    2.87
  -1   4   4   56.77    3.18
   1   4  -3  107.01    8.34
  -1  -4   3   97.75    8.17
   1  -4  -3  105.05    9.20
  -1  -4   3  110.28    9.52
  -1   4   3  121.33    5.05
  -1   4   3  121.26    5.08
   1  -4  -3  118.53    4.97
  -1   4   3  115.52    5.01
   1  -4  -3  104.83    8.25
  -1   4   3  116.36    5.07
   1   4  -2   49.42    5.58
   1  -4  -2   48.76    6.28
  -1  -4   2   38.96    5.24
   1  -4  -2   48.57    6.43
  -1   4   2   53.68    5.94
  -1  -4   2   47.27    6.53
  -1   4   2   51.40    2.58
   1   4  -2   49.87    2.41
  -1   4   2   51.38    2.77
   1  -4  -2   51.71    2.48
  -1   4   2   46.69    2.46
   1   4  -2   51.07    2.70
  -1   4   2   45.55    6.73
   1  -4  -2   47.79    5.33
  -1   4   2   49.23    2.65
  -1  -4   2   47.83    2.32
  -1  -4   1  574.82   26.67
  -1   4   1  576.53   26.79
   1   4  -1  541.10   25.90
   1  -4  -1  555.01   27.08
   1  -4  -1  575.15   27.39
  -1  -4   1  576.00   27.43
  -1   4   1  599.38   21.96
  -1   4   1  594.74   21.85
  -1   4   1  605.81   26.10
   1   4  -1  569.99   21.80
   1   4  -1  568.73   21.92
  -1   4   1  570.30   21.93
   1  -4  -1  565.60   21.74
   1   4  -1  591.74   22.02
  -1   4   1  596.21   21.92
  -1   4   1  585.48   27.68
   1   4  -1  628.13   27.63
   1  -4  -1  575.31   25.64
  -1   4   1  565.61   21.88
   1  -4  -1  568.24   21.85
  -1  -4   1  572.42   21.74
   1   4  -1  592.45   22.00
  -1  -4   0  140.99   10.10
  -1  -4   0  167.90   11.25
   1  -4   0  152.60   10.79
   1   4   0  151.23    9.74
  -1   4   0  132.36    9.73
   1  -4   0  133.76   10.42
   1   4   0  151.48    5.94
  -1   4   0  146.06    9.66
  -1   4   0  145.60    5.88
   1  -4   0  139.71    5.75
   1   4   0  140.11    6.02
   1   4   0  147.68    6.08
  -1   4   0  144.12    5.95
  -1   4   0  148.20    6.01
  -1   4   0  159.91   10.92
   1   4   0  137.43   10.53
   1  -4   0  138.99    9.00
  -1  -4   0  144.82    5.83
   1   4   0  150.52    6.14
  -1   4   0  137.30    5.94
   1  -4   0  142.09    5.92
  -1  -4  -1   61.76    6.83
   1  -4   1   68.01    6.99
   1   4   1   54.58    5.79
  -1   4  -1   52.57    6.13
   1  -4   1   56.90    6.71
  -1  -4  -1   66.78    7.33
   1   4   1   59.45    2.81
  -1   4  -1   57.55    2.66
  -1   4  -1   65.57    6.59
   1   4   1   54.90    2.88
   1  -4   1   51.39    2.53
   1   4   1   54.14    4.89
  -1   4  -1   59.19    3.03
   1   4   1   63.17    2.95
  -1   4  -1   57.46    2.80
  -1   4  -1   58.50    2.86
   1  -4   1   48.72    5.06
  -1   4  -1   53.47    6.42
   1   4   1   56.31    6.80
   1   4   1   59.97    3.08
   1  -4   1   56.20    2.80
  -1   4  -1   57.34    2.87
   1  -4   2   10.08    3.92
  -1  -4  -2   13.99    4.44
  -1   4  -2   12.05    3.92
   1   4   2   15.34    1.17
  -1   4  -2   10.79    4.03
   1   4   2   13.12    1.44
   1   4   2   11.27    2.71
  -1  -4  -2   10.83    1.04
   1   4   2   12.65    1.44
  -1   4  -2   10.54    1.64
  -1   4  -2   12.84    1.28
   1   4   2   12.47    1.44
  -1   4  -2   12.85    1.41
   1  -4   2    9.65    2.87
  -1   4  -2   10.02    3.80
   1   4   2   14.10    1.88
   1  -4   2   10.99    1.40
   1  -4   3    8.66    4.82
  -1   4  -3    5.34    3.49
   1  -4   3    1.92    3.57
  -1  -4  -3    2.71    4.11
   1   4   3    6.33    1.08
  -1   4  -3    2.09    3.89
   1   4   3    4.64    1.25
  -1  -4  -3    4.77    1.10
  -1   4  -3    5.20    1.67
   1   4   3    5.89    2.47
   1   4   3    5.30    1.31
   1   4   3    4.84    1.20
  -1   4  -3    5.22    1.18
  -1   4  -3    3.50    1.18
   1  -4   3    1.75    2.42
  -1   4  -3    5.86    3.12
   1   4   3    4.82    4.05
   1   4   3    3.16    1.74
   1  -4   3    4.54    1.30
   1   4   3    3.28    1.80
  -1  -4  -4   91.49    8.88
   1  -4   4   74.72    7.74
  -1   4  -4   80.97    7.92
  -1  -4  -4   87.10    8.72
   1  -4   4   92.87    8.92
   1   4   4   88.94    3.95
   1  -4   4   80.69    7.65
   1   4   4   82.01    7.13
  -1   4  -4   86.95    4.21
   1   4   4   93.40    3.95
  -1  -4  -4   86.62    3.92
   1   4   4   91.93    4.17
  -1   4  -4   87.83    3.92
  -1   4  -4   92.27    4.16
   1   4   4   90.11    8.49
   1   4   4   90.72    4.41
   1  -4   4   86.94    3.97
   1   4   4   84.73    4.34
  -1  -4  -5   63.91    7.88
   1  -4   5   62.14    7.16
  -1   4  -5   69.16    7.53
   1  -4   5   82.33    8.59
   1   4   5   79.47    3.64
   1  -4   5   74.73    7.49
   1   4   5   74.88    3.43
  -1   4  -5   73.34    3.81
   1   4   5   68.63    6.90
  -1  -4  -5   83.16    3.71
  -1   4  -5   71.70    3.43
  -1   4  -5   81.68    3.81
   1  -4   5   80.45    3.62
  -1  -4  -5   78.62    3.50
   1   4   5   76.50    4.03
   1   4   5   73.01    4.02
   1   4   5   79.41    8.08
   1   4   6    0.50    3.61
  -1  -4  -6   -0.59    4.79
  -1   4  -6   -0.53    3.49
   1  -4   6   -1.76    4.61
  -1  -4  -6   -2.84    4.37
   1  -4   6   -2.82    3.70
   1   4   6    1.14    1.37
  -1  -4  -6    3.16    1.74
   1   4   6    4.54    3.26
  -1   4  -6    0.14    1.82
  -1   4  -6    2.19    1.46
   1   4   6    1.06    1.37
  -1  -4  -6    0.59    1.12
  -1  -4  -6    2.30    1.49
   1  -4   6    1.55    1.45
   1   4   6    0.74    2.10
   1   4   6    0.33    2.16
   1   4   7  177.39    7.12
  -1  -4  -7  180.07    7.17
  -1   4  -7  178.61    7.26
  -1  -4  -7  170.03    7.09
   1   4   7  163.91    7.34
  -1  -4  -7  175.33    7.08
   1   4   7  169.20    7.35
   1   4   8   41.62    2.49
  -1  -4  -8   49.45    2.76
  -1   4  -8   40.17    2.62
  -1  -4  -8   44.74    2.32
   1   4   8   35.57    2.96
  -1  -4  -8   44.25    2.56
   1   4   8   38.25    2.90
   1   4   9   20.23    1.65
  -1  -4  -9   18.14    1.79
  -1  -4  -9   16.22    1.26
  -1  -4  -9   17.93    1.71
   1   4   9   16.18    2.08
   1   4   9   16.60    1.94
  -1   4  -9   15.27    1.64
  -1  -4 -10   13.61    1.54
   1   4  10    9.78    1.51
  -1  -4 -10   13.40    1.44
   1   4  10   11.85    1.65
   1   4  10   12.54    1.21
  -1  -4 -10   11.87    1.00
  -1  -4 -11   21.56    1.40
   1   4  11   19.03    1.24
   1   4  11   17.17    1.28
  -1  -4 -11   21.71    1.37
   1   4  11   17.18    1.45
  -1  -4 -12   41.06    1.83
  -1  -4 -12   42.90    1.86
   1   5 -10   12.70    0.89
   1  -5  -9   22.04    1.28
   1   5  -9   17.53    1.31
   1  -5  -9   21.30    1.20
   1  -5  -9   20.32    1.26
  -1   5   8   13.82    1.18
   1  -5  -8   14.36    1.30
   1   5  -8   12.94    1.32
   1  -5  -8   14.04    1.18
  -1   5   8   13.60    1.28
   1  -5  -8   13.10    1.36
  -1   5   7   42.37    2.20
   1  -5  -7   40.85    2.20
   1   5  -7   41.33    2.31
   1  -5  -7   41.29    2.21
  -1   5   7   39.59    2.29
  -1   5   6    0.94    1.18
   1  -5  -6    0.89    1.40
  -1   5   6    1.77    1.10
   1   5  -6    1.95    1.28
   1  -5  -6    1.81    1.21
  -1   5   6    0.30    1.48
  -1   5   5   23.97    1.79
  -1   5   5   24.01    1.76
   1  -5  -5   22.96    1.96
  -1   5   5   21.02    1.89
   1   5  -5   21.06    1.88
   1  -5  -5   22.33    1.91
  -1   5   5   23.18    2.05
   1  -5  -5   23.01    2.23
   1   5  -4   55.82    3.05
  -1   5   4   55.70    3.07
   1  -5  -4   57.79    2.94
  -1   5   4   58.07    2.85
   1  -5  -4   61.21    3.23
  -1   5   4   55.11    3.11
   1   5  -3   60.78    3.18
   1  -5  -3   55.60    2.99
  -1   5   3   64.50    3.35
  -1   5   3   60.57    2.99
  -1   5   3   60.32    3.23
   1  -5  -3   57.70    3.34
   1   5  -2   25.51    2.02
  -1   5   2   22.21    1.71
   1  -5  -2   27.19    1.89
   1   5  -2   29.26    2.62
  -1   5   2   26.26    2.41
  -1   5   2   26.66    2.07
  -1   5   2   23.76    1.81
  -1   5   2   21.27    2.26
   1  -5  -2   25.57    2.38
   1   5  -1  212.44    8.29
  -1   5   1  195.45    8.07
   1  -5  -1  190.55    7.92
   1   5  -1  209.41    8.35
  -1   5   1  207.89    8.35
  -1   5   1  218.61    8.21
   1   5  -1  199.51    7.99
  -1   5   1  195.27    7.94
  -1   5   1  193.22    8.19
  -1  -5   1  200.18    7.96
   1  -5  -1  206.02    8.19
  -1   5   0  147.30    6.16
   1   5   0  149.14    6.29
   1   5   0  146.03    6.34
  -1   5   0  152.76    6.21
   1   5   0  148.15    6.09
   1  -5   0  149.28    6.24
  -1  -5   0  146.16    6.09
   1   5   0  137.54    6.42
   1   5   1   39.30    2.40
  -1   5  -1   35.72    2.18
   1   5   1   38.85    2.59
   1   5   1   38.44    2.38
  -1   5  -1   36.48    2.37
   1  -5   1   38.13    2.57
   1   5   1   37.02    3.00
  -1  -5  -1   38.14    2.44
   1   5   2   95.67    4.32
  -1   5  -2   88.43    4.18
   1   5   2   96.52    4.37
  -1   5  -2   91.15    4.61
   1   5   2   95.75    4.25
  -1   5  -2   89.68    4.14
  -1  -5  -2   95.51    4.23
   1   5   2   90.00    4.59
   1  -5   2   93.27    4.26
   1   5   3   78.12    3.71
  -1   5  -3   73.45    3.57
   1   5   3   74.87    3.65
  -1   5  -3   83.17    4.04
  -1   5  -3   71.78    3.48
   1   5   3   77.33    3.69
  -1  -5  -3   80.40    3.70
   1   5   3   79.24    4.07
   1  -5   3   72.97    3.61
  -1   5  -4   39.40    2.27
  -1  -5  -4   37.81    2.09
  -1   5  -4   40.53    2.71
   1   5   4   36.53    2.35
   1   5   4   31.94    2.80
   1  -5   4   33.87    2.25
  -1  -5  -5   10.13    1.45
  -1  -5  -5   12.69    1.40
   1   5   5   11.94    2.08
  -1   5  -5   13.52    1.43
  -1  -5  -6  175.17    7.03
  -1  -5  -6  182.23    7.16
   1   5   6  176.35    7.34
  -1   5  -6  178.67    7.19
  -1  -5  -7   33.38    1.87
  -1  -5  -7   30.63    1.75
   1   5   7   34.45    2.24
  -1   5  -7   31.30    1.90
  -1  -5  -8   32.69    1.64
  -1  -5  -8   27.18    1.51
   1   5   8   27.15    1.86
  -1   5  -8   28.39    1.67
  -1  -5  -9    2.78    0.72
   1   5   9    2.57    0.93
  -1   5  -9    2.90    0.78
   1  -6  -5    3.95    0.74
   1  -6  -5    3.81    0.80
   1   6  -5    3.88    0.76
   1  -6  -4    7.08    0.97
   1  -6  -4    7.22    1.00
   1   6  -4    8.98    1.00
  -1   6   3   59.14    2.58
   1   6  -3   55.07    2.64
   1  -6  -3   55.27    2.66
   1  -6  -3   62.07    2.63
  -1   6   2   66.88    2.94
  -1   6   2   70.09    3.01
   1   6  -2   65.61    2.99
   1  -6  -2   61.75    3.00
   1  -6  -2   68.35    2.95
   1   6  -1   12.86    1.22
  -1   6   1    9.90    1.34
  -1   6   1   11.06    1.10
   1  -6  -1   11.14    1.21
   1   6   0    1.31    0.92
   1  -6   0   -0.22    1.00
  -1   6   0    0.63    1.25
  -1   6  -1   28.14    1.62
   1  -6   1   35.18    1.71
  -1   6  -2   59.05    2.64
   1  -6   2   58.74    2.62
  -1  -6  -2   62.51    2.63
  -1  -6  -3   10.15    1.05
  -1   6  -3    9.34    0.91
  -1  -6  -3    9.55    0.99
  -1  -6  -4    2.82    0.73
  -1   6  -4    2.40    0.65
  -1  -6  -4    2.68    0.80
  -1  -6  -5    3.37    0.59
   2   0 -15   10.02    1.01
  -2   0  15    9.37    0.89
  -2   0  14   86.85    3.73
   2   0 -14   89.33    3.83
   2   0 -14   82.63    3.53
  -2   0  13   28.41    2.03
   2   0 -13   31.62    1.89
   2   0 -13   28.81    2.40
  -2   0  12  200.27    8.29
   2   0 -12  196.86    8.13
   2   0 -12  209.95    8.21
   2   0 -12  202.73    8.38
  -2   0  11   39.02    6.87
  -2   0  11   36.81    5.27
   2   0 -11   37.03    5.97
  -2   0  11   38.82    2.57
   2   0 -11   41.98    2.46
   2   0 -11   45.29    2.46
   2   0 -11   41.98    2.96
   2   0 -10   13.26    2.05
  -2   0  10    7.97    3.46
  -2   0  10   12.35    4.89
   2   0 -10   12.31    1.13
   2   0 -10   11.42    1.40
   2   0 -10   11.01    1.38
  -2   0  10   11.83    1.58
   2   0 -10   10.49    2.97
   2   0 -10   16.76    4.76
   2   0  -9    4.01    1.23
   2   0  -9    4.61    0.68
  -2   0   9    5.48    3.68
  -2   0   9    0.74    2.41
  -2   0   9    4.25    1.93
   2   0  -9    5.95    0.94
   2   0  -9    4.11    0.93
   2   0  -9    6.37    2.52
   2   0  -9    1.76    2.98
   2   0  -8   14.17    2.54
   2   0  -8   10.27    3.42
   2   0  -8   15.41    1.12
  -2   0   8   11.54    2.63
   2   0  -8   13.95    3.48
  -2   0   8   12.50    3.45
  -2   0   8    8.96    2.13
   2   0  -8   14.62    1.06
   2   0  -8   16.96    1.13
   2   0  -8   13.39    0.92
  -2   0   7  145.69    8.70
  -2   0   7  144.32    8.38
   2   0  -7  137.42    8.62
  -2   0   7  145.41    7.66
   2   0  -7  136.36    5.57
   2   0  -7  139.46    9.05
   2   0  -7  148.85    8.00
  -2   0   6  843.73   31.58
   2   0  -6  691.18   28.72
   2   0  -6  775.09   31.39
  -2   0   6  795.27   31.07
  -2   0   6  801.31   30.23
   2   0  -6  756.98   31.65
   2   0  -6  777.73   30.52
  -2   0   5   88.49    5.46
   2   0  -5   76.52    3.72
   2   0  -5   85.01    5.47
  -2   0   5   77.01    5.19
  -2   0   5   88.20    4.75
   2   0  -5   82.77    5.70
   2   0  -5   81.55    4.92
  -2   0   4   40.30    3.34
   2   0  -4   39.79    1.97
   2   0  -4   43.09    3.39
  -2   0   4   41.66    2.80
   2   0  -4   48.18    3.80
   2   0  -4   39.66    2.99
  -2   0   3  572.09   22.66
  -2   0   3  566.56   22.80
   2   0  -3  570.12   23.05
   2   0  -3  576.81   22.43
  -2   0   2 9999.00  323.63
  -2   0   2 9841.47  323.94
   2   0  -2 9328.97  323.61
   2   0  -2 9782.59  324.12
   2   0  -2 9474.76  323.56
   2   0  -1 5508.92  199.19
   2   0  -1 4927.34  199.48
   2   0  -1 5579.49  199.62
  -2   0   1 5469.49  199.00
  -2   0   0 3334.00  121.97
   2   0   0 3317.82  122.80
   2   0   0 3228.72  122.73
   2   0   0 3290.81  122.29
   2   0   1   97.38    4.58
   2   0   1   98.81    4.77
   2   0   1   99.68    4.71
  -2   0  -1   87.39    4.38
   2   0   1   95.32    4.35
  -2   0  -2 1350.10   51.17
  -2   0  -2 1369.11   50.74
   2   0   2 1328.10   50.58
   2   0   2 1375.68   51.39
  -2   0  -3  951.25   35.33
   2   0   3  872.54   35.41
   2   0   3  920.44   34.79
  -2   0  -3  897.17   34.47
   2   0   4 2694.97  101.80
   2   0   4 2708.24  100.02
  -2   0  -4 2825.85  101.95
   2   0   4 2618.74  102.04
  -2   0  -4 2665.94  100.63
   2   0   4 2730.20  101.38
  -2   0  -5 2527.09   97.87
   2   0   5 2643.93   99.22
   2   0   5 2599.17   97.45
  -2   0  -5 2747.49   99.70
   2   0   5 2639.65   99.50
   2   0   5 2670.80   99.90
  -2   0  -5 2788.81   99.62
   2   0   6 4825.36  177.69
  -2   0  -6 4847.55  178.31
   2   0   6 4620.78  175.56
   2   0   6 4796.73  178.09
   2   0   6 5056.33  178.67
  -2   0  -6 4670.88  177.99
   2   0   7   66.75    5.37
  -2   0  -7   71.85    5.82
   2   0   7   68.79    5.52
   2   0   7   66.78    2.90
  -2   0  -7   68.31    5.54
   2   0   7   72.69    5.98
   2   0   8   30.61    4.35
  -2   0  -8   30.90    4.40
   2   0   8   34.82    4.24
   2   0   8   32.71    1.66
   2   0   8   33.73    4.38
   2   0   8   29.88    1.61
  -2   0  -8   36.22    4.46
   2   0   8   30.82    1.75
   2   0   9  368.26   19.02
  -2   0  -9  355.85   13.77
  -2   0  -9  348.06   18.61
   2   0   9  363.44   17.92
   2   0   9  391.00   18.59
   2   0   9  361.57   13.60
  -2   0  -9  358.65   13.77
   2   0   9  337.98   13.57
   2   0   9  361.85   13.76
  -2   0  -9  405.93   18.52
  -2   0 -10  183.18   12.47
   2   0  10  192.78   11.68
   2   0  10  192.11   11.80
   2   0  10  179.85    7.19
  -2   0 -10  178.23    7.42
   2   0  10  180.16    7.38
  -2   0 -10  172.73   11.42
  -2   0 -10  179.55    7.50
   2   0  10  150.10   11.68
  -2   0 -11    3.66    2.12
   2   0  11    4.06    3.11
  -2   0 -11    9.51    5.10
   2   0  11    1.88    3.63
  -2   0 -11    3.31    3.52
   2   0  11    5.67    1.48
  -2   0 -11    4.12    1.45
   2   0  11    3.07    2.92
  -2   0 -12   40.81    2.95
   2   0  12   40.20    2.51
  -2   0 -12   43.68    2.61
  -2   0 -13   13.58    1.91
   2   0  13   13.78    1.46
  -2   0 -13   14.43    1.56
   2   0  14   58.15    2.98
   2   0  14   61.57    2.76
  -2   0 -14   57.42    2.83
   2   0  15    0.09    0.78
  -2   0 -15    0.37    0.76
   2   0  15    0.33    0.65
  -2   1  15    0.66    0.56
  -2  -1  15    0.69    0.51
   2  -1 -14   35.52    1.83
   2   1 -14   34.65    2.04
   2  -1 -14   32.21    2.01
  -2  -1  14   37.31    1.88
  -2   1  14   37.36    1.94
   2  -1 -13   84.01    3.65
   2   1 -13   77.56    3.54
   2  -1 -13   80.78    3.82
   2   1 -13   87.68    3.92
  -2   1  13   81.89    3.75
  -2  -1  13   82.12    3.68
   2   1 -12   11.11    2.15
   2  -1 -12   12.66    2.07
   2  -1 -12   11.99    1.60
   2  -1 -12    9.45    1.48
   2   1 -12   10.56    1.55
   2   1 -12   12.32    1.29
   2  -1 -12    8.74    1.33
  -2  -1  12   10.73    1.39
  -2   1  12   11.36    1.65
  -2  -1  11  291.40   11.59
  -2   1  11  292.95   11.63
   2  -1 -11  301.19   16.23
   2   1 -11  297.51   17.38
   2   1 -11  283.73   11.65
   2  -1 -11  306.08   11.67
   2  -1 -11  299.37   17.51
  -2   1  11  258.78   15.65
  -2   1  11  279.83   16.82
  -2  -1  11  305.51   17.32
   2  -1 -11  286.23   16.74
   2   1 -11  281.83   16.36
   2  -1 -11  292.94   11.49
   2   1 -11  295.90   11.55
   2   1 -11  292.95   11.59
   2  -1 -11  315.42   11.60
   2  -1 -11  285.54   11.47
   2  -1 -10  117.21    8.89
  -2  -1  10  112.72    5.03
  -2   1  10  109.66    5.11
   2   1 -10  125.05   10.13
   2   1 -10  112.14    5.22
   2  -1 -10  124.20    5.22
   2  -1 -10  125.45   10.27
  -2  -1  10   94.19    7.89
  -2   1  10  115.54    8.94
  -2   1  10  103.78    9.42
  -2  -1  10   86.16    9.17
  -2   1  10  113.86    4.79
   2  -1 -10  125.19    9.76
  -2   1  10  120.01    8.61
   2   1 -10  116.71    5.01
   2   1 -10  116.26    5.06
   2  -1 -10  126.79    5.11
   2  -1 -10  119.53    5.00
   2  -1  -9  182.27   10.90
   2  -1  -9  201.31   12.19
   2   1  -9  168.50   11.36
   2  -1  -9  168.07    6.85
   2   1  -9  167.67    6.86
  -2  -1   9  156.91    9.85
   2   1  -9  165.57   10.84
  -2   1   9  155.65   10.47
  -2  -1   9  162.76   11.23
  -2   1   9  161.58   11.11
  -2   1   9  156.13    6.62
   2  -1  -9  170.77   11.12
  -2   1   9  172.08   10.24
   2   1  -9  164.26    6.76
   2  -1  -9  179.15    6.85
   2   1  -9  171.24    6.84
   2  -1  -9  168.17    6.74
   2  -1  -8  191.93   11.10
   2   1  -8  197.74   11.75
   2  -1  -8  192.29   11.74
   2  -1  -8  184.02    7.53
   2   1  -8  194.22    7.54
   2   1  -8  187.36   11.04
  -2  -1   8  179.56   10.51
  -2   1   8  196.48   11.14
  -2  -1   8  187.46   11.51
  -2   1   8  177.58   11.18
  -2   1   8  188.94    7.44
   2  -1  -8  199.78   11.55
  -2   1   8  224.50   11.27
   2   1  -8  192.81    7.52
   2  -1  -8  190.66    7.58
   2   1  -8  187.00    7.55
   2  -1  -8  190.66    7.48
   2  -1  -7   12.80    2.77
   2  -1  -7   14.76    2.86
   2   1  -7   10.10    1.56
   2  -1  -7    7.35    1.60
   2   1  -7   10.43    2.49
  -2  -1   7    7.09    2.18
  -2  -1   7   10.92    2.89
  -2   1   7    8.72    1.54
  -2   1   7   10.70    2.77
  -2   1   7    9.73    2.67
   2   1  -7   16.64    3.10
   2  -1  -7   13.47    0.96
   2  -1  -7   16.64    3.27
   2   1  -7   13.36    0.98
  -2   1   7   19.36    2.88
   2   1  -7   11.34    0.94
   2  -1  -7   12.46    1.00
   2  -1  -7   10.94    0.89
   2  -1  -6   86.82    5.41
  -2  -1   6   94.53    6.30
   2   1  -6   94.39    6.21
  -2   1   6   91.54    6.35
  -2  -1   6   97.78    5.77
  -2   1   6  107.86    6.51
  -2  -1   6   93.32    4.93
   2  -1  -6  101.10    6.55
  -2  -1   6   99.13    6.71
  -2   1   6   92.35    5.30
  -2   1   6  105.19    6.70
   2  -1  -6   91.27    6.38
   2   1  -6  103.06    5.06
   2  -1  -6   91.63    6.51
   2   1  -6  103.60    6.79
   2  -1  -5   90.72    5.13
   2   1  -5   97.65    5.66
  -2  -1   5   84.09    5.05
   2  -1  -5  101.11    6.09
  -2  -1   5   87.85    4.33
  -2   1   5   91.37    5.06
  -2   1   5   84.65    5.78
  -2  -1   5  104.10    6.25
   2   1  -5   81.51    4.32
   2  -1  -5   90.68    5.86
   2  -1  -5   96.44    6.12
   2   1  -5   86.14    5.88
   2  -1  -4 1188.25   44.64
   2   1  -4 1201.20   44.81
  -2  -1   4 1198.59   44.54
  -2  -1   4 1095.95   43.36
   2  -1  -4 1233.88   45.47
  -2   1   4 1159.30   45.23
  -2  -1   4 1295.19   45.62
  -2   1   4 1197.01   44.65
   2   1  -4 1108.64   43.55
   2  -1  -4 1216.72   45.50
   2   1  -4 1197.52   45.36
   2  -1  -3  267.22   10.54
  -2   1   3  213.76    9.94
  -2  -1   3  237.22   10.33
  -2   1   3  223.67    9.84
   2  -1  -3  231.04    9.87
   2   1  -3  216.71    9.56
  -2   1   3  233.57   10.38
  -2  -1   3  195.08    8.66
  -2  -1   3  235.70    9.66
   2  -1  -3  257.22   10.48
   2   1  -3  253.56   10.29
   2  -1  -2 1348.44   51.65
  -2  -1   2 1339.53   50.82
  -2   1   2 1440.68   52.06
  -2  -1   2 1412.28   51.42
   2  -1  -2 1378.85   51.25
  -2   1   2 1393.55   51.80
   2  -1  -2 1324.68   51.87
  -2   1   2 1332.50   51.53
  -2   1   2 1390.28   51.82
   2  -1  -2 1364.67   51.94
   2  -1  -2 1343.73   51.72
   2   1  -2 1313.27   51.62
  -2  -1   1 7551.32  278.43
  -2   1   1 7911.87  278.94
   2   1  -1 7578.09  278.15
  -2   1   1 7868.40  278.82
   2  -1  -1 7872.14  278.56
   2  -1  -1 7729.85  278.89
   2  -1  -1 7474.80  278.96
  -2   1   1 7863.80  279.05
   2  -1  -1 7539.52  278.98
   2  -1  -1 7655.50  278.69
   2   1  -1 7446.16  278.61
   2   1  -1 6806.00  278.56
   2  -1  -1 6980.38  278.55
   2   1   0 2540.80   89.12
  -2   1   0 2688.09   90.00
   2  -1   0 2661.45   90.14
   2  -1   0 2560.82   89.83
  -2  -1   0 2153.82   88.64
  -2   1   0 2521.80   89.69
   2   1   0 2558.04   89.23
   2  -1   0 2499.45   89.64
   2   1   0 2547.19   89.69
   2   1   0 2514.58   89.62
   2  -1   0 2473.28   89.62
   2   1   1  101.63    4.70
  -2   1  -1   98.22    5.26
  -2   1  -1   97.10    4.49
  -2  -1  -1   99.06    4.21
   2  -1   1   98.35    5.09
   2  -1   1   88.81    4.68
   2  -1   1   94.08    4.76
   2   1   1  101.38    4.83
   2   1   1   97.46    4.75
   2  -1   2   30.91    2.78
   2  -1   2   26.54    2.62
  -2  -1  -2   28.88    2.10
   2   1   2   31.47    2.42
  -2   1  -2   28.97    2.60
   2  -1   2   25.91    2.02
  -2  -1  -2   28.82    2.50
   2  -1   2   28.83    2.54
   2  -1   2   27.00    2.39
   2   1   2   31.60    2.50
   2  -1   3   54.74    3.97
  -2  -1  -3   55.17    3.43
   2   1   3   54.18    3.76
   2  -1   3   50.32    3.23
  -2   1  -3   52.50    3.75
  -2  -1  -3   56.29    3.86
   2  -1   3   51.20    3.76
   2  -1   3   51.09    3.59
   2   1   3   54.88    3.69
   2  -1   4  611.74   23.89
  -2  -1  -4  650.01   23.28
   2   1   4  612.37   22.67
   2   1   4  650.75   23.60
  -2   1  -4  615.13   23.29
   2  -1   4  598.41   22.82
  -2  -1  -4  654.92   23.76
   2  -1   4  598.76   23.46
   2   1   4  639.10   23.63
  -2  -1  -5 2200.06   68.99
   2   1   5 2076.81   67.85
   2  -1   5 2175.51   69.86
   2  -1   5 1928.10   68.87
   2  -1   5 1989.89   68.29
   2   1   5 2014.38   68.90
  -2   1  -5 2076.16   68.56
  -2  -1  -5 2133.30   69.34
   2  -1   5 1838.88   68.79
   2   1   5 2139.80   69.33
  -2  -1  -6  130.55    7.65
   2  -1   6  126.11    8.09
   2   1   6  123.00    6.57
   2   1   6  120.65    7.49
   2  -1   6  120.84    7.24
  -2   1  -6  128.00    7.12
   2  -1   6  109.76    7.39
  -2  -1  -6  126.86    7.85
  -2   1  -6  123.54    7.18
   2  -1   6  124.92    7.79
   2   1   6  148.22    8.21
   2  -1   7   64.12    5.46
   2   1   7   60.64    5.39
   2   1   7   46.83    3.75
  -2  -1  -7   59.49    5.16
   2  -1   7   55.39    4.71
   2   1   7   53.82    4.89
   2   1   7   56.42    2.49
   2   1   7   52.71    2.46
   2  -1   7   53.00    4.91
   2   1   7   58.44    5.18
  -2   1  -7   51.97    2.51
   2  -1   7   58.13    2.50
  -2   1  -7   46.22    4.39
   2  -1   7   55.66    2.48
   2   1   7   51.05    2.47
   2   1   8  146.52    9.84
   2  -1   8  161.31   10.06
  -2  -1  -8  164.12    9.86
  -2   1  -8  149.87    9.87
   2  -1   8  139.79    8.96
   2   1   8  141.85    9.26
   2  -1   8  148.55    9.42
   2  -1   8  145.24    5.80
   2   1   8  148.39    9.53
   2   1   8  143.76    5.89
  -2   1  -8  147.20    5.97
   2   1   8  145.62    5.86
   2   1   8  142.27    5.94
   2  -1   8  145.06    5.92
  -2   1  -8  142.47    8.81
   2   1   9    3.44    3.07
  -2   1  -9    1.25    1.34
  -2  -1  -9   -0.05    1.38
   2  -1   9    0.50    2.48
  -2  -1  -9    2.78    3.42
  -2   1  -9    3.98    3.73
   2  -1   9    0.41    2.84
   2   1   9    0.46    2.81
   2   1   9    0.98    0.99
  -2   1  -9    1.23    1.09
   2   1   9    0.58    0.68
   2  -1   9    1.33    0.87
  -2   1  -9   -2.21    2.33
  -2  -1  -9    3.33    3.66
   2   1   9    0.38    1.05
   2  -1  10   68.18    7.14
   2   1  10   83.28    7.79
  -2   1 -10   72.70    3.74
  -2  -1 -10   72.38    3.77
  -2   1 -10   91.55    8.59
  -2  -1 -10   75.24    7.75
   2  -1  10   61.65    6.76
   2   1  10   82.65    7.60
  -2  -1 -10   62.87    6.78
  -2   1 -10   76.69    3.63
   2   1  10   73.88    3.34
  -2   1 -10   66.96    6.31
  -2  -1 -10   71.84    7.75
   2  -1  10   72.17    3.50
   2   1  10   71.97    3.62
   2  -1  11   52.71    6.57
   2   1  11   58.85    7.04
  -2   1 -11   66.40    3.66
  -2  -1 -11   61.26    3.65
  -2   1 -11   84.98    8.59
  -2  -1 -11   74.82    7.88
   2  -1  11   55.71    6.65
  -2   1 -11   67.84    3.47
  -2  -1 -11   58.68    7.24
   2   1  11   69.33    3.45
   2  -1  11   65.24    3.27
   2   1  11   70.30    3.09
   2   1  11   64.77    6.93
  -2  -1 -11   59.97    6.75
  -2   1 -12   36.02    2.79
  -2  -1 -12   38.43    2.75
  -2  -1 -12   42.30    2.50
  -2   1 -12   39.26    2.48
  -2  -1 -12   40.42    2.55
   2   1  12   39.77    3.16
   2   1  12   41.88    2.06
   2  -1  12   41.90    2.29
   2   1  12   38.66    2.44
  -2   1 -13   19.45    1.65
  -2   1 -13   18.55    1.82
  -2  -1 -13   19.90    1.87
   2  -1  13   18.46    1.47
   2   1  13   18.09    1.57
  -2  -1 -13   18.67    1.63
   2   1  13   16.43    2.20
  -2  -1 -14   21.56    1.57
  -2   1 -14   23.89    1.63
   2   1  14   21.79    1.67
   2   1  14   23.29    1.47
   2  -1  14   25.02    1.43
   2   1  14   21.88    1.84
   2   1  15   13.58    0.85
   2  -2 -14   18.50    1.11
   2  -2 -13   42.68    2.11
   2  -2 -13   45.62    2.19
  -2   2  13   41.91    2.24
   2   2 -13   36.83    1.96
   2  -2 -13   44.98    2.10
  -2  -2  13   37.18    1.94
   2  -2 -12   88.97    3.94
   2  -2 -12   91.20    4.04
   2   2 -12   83.67    3.97
   2  -2 -12   93.62    3.97
   2   2 -12   87.08    3.88
  -2  -2  12   86.04    3.79
  -2   2  12   92.36    3.95
   2   2 -11   85.57    4.16
   2  -2 -11   89.16    4.11
   2  -2 -11   91.62    4.30
  -2   2  11   88.09    3.90
   2  -2 -11   91.01    4.07
   2   2 -11   85.94    4.16
   2   2 -11   89.91    4.05
   2  -2 -11   90.60    4.12
  -2   2  11   95.46    4.11
  -2  -2  11   90.44    3.94
  -2   2  10   28.14    4.67
  -2  -2  10   25.79    4.40
   2   2 -10   29.75    2.24
   2   2 -10   26.18    4.96
   2  -2 -10   31.29    2.22
   2  -2 -10   24.01    5.20
   2  -2 -10   31.74    2.53
  -2   2  10   33.21    1.93
  -2   2  10   34.94    5.82
  -2   2  10   25.55    4.40
  -2   2  10   28.99    1.83
   2  -2 -10   31.32    2.24
   2   2 -10   31.15    2.17
   2   2 -10   31.75    1.99
   2  -2 -10   33.59    2.09
   2  -2 -10   33.59    5.92
  -2  -2  10   27.90    1.81
   2  -2 -10   33.51    6.15
  -2   2  10   27.30    2.04
  -2  -2   9  119.76    5.24
  -2   2   9  130.13    5.38
   2  -2  -9  137.92   10.05
   2  -2  -9  129.67    5.34
   2  -2  -9  128.63    9.50
   2   2  -9  118.88    5.30
   2   2  -9  130.41    9.64
  -2   2   9  108.22    9.30
  -2  -2   9  110.76    8.48
  -2   2   9  128.18    5.32
  -2   2   9  128.77    5.22
   2  -2  -9  118.47    9.53
  -2   2   9  127.19    9.31
   2   2  -9  130.26    5.43
   2  -2  -9  130.74    5.47
   2   2  -9  126.75    5.43
   2  -2  -9  129.41    5.52
   2   2  -8  125.14    5.18
   2  -2  -8  131.69    9.19
   2   2  -8  108.95    8.52
   2  -2  -8  132.26    5.19
   2  -2  -8  105.47    7.78
   2   2  -8  101.03    7.85
  -2  -2   8  105.67    8.12
  -2   2   8  132.25    9.50
  -2   2   8  126.87    5.25
  -2  -2   8  121.52    9.49
   2  -2  -8  141.29    9.53
  -2   2   8  125.73    5.14
  -2   2   8  165.94    9.80
   2   2  -8  123.92    5.30
   2   2  -8  129.19    5.34
   2  -2  -8  123.21    5.35
  -2  -2   8  128.23    5.20
  -2   2   8  125.15    5.22
   2  -2  -7  214.18   11.50
   2   2  -7  199.37   11.16
   2  -2  -7  197.15    7.71
   2   2  -7  187.58    7.70
   2  -2  -7  204.88   10.95
   2   2  -7  203.60   10.62
  -2   2   7  198.61   11.94
  -2  -2   7  208.21   11.29
  -2  -2   7  199.37   10.90
  -2   2   7  204.13    7.83
  -2  -2   7  218.76   12.15
  -2   2   7  221.33   11.98
   2  -2  -7  214.14   11.74
   2   2  -7  199.78    7.83
   2  -2  -7  194.44    7.90
   2   2  -7  196.08    7.87
  -2   2   7  191.22   10.74
   2  -2  -6  185.16   10.19
   2   2  -6  157.61    6.36
   2  -2  -6  183.34    9.68
   2   2  -6  158.21    9.08
   2   2  -6  156.52    8.54
   2  -2  -6  159.41    9.30
  -2  -2   6  150.81    9.01
  -2   2   6  148.95    9.66
  -2   2   6  170.97    6.51
  -2  -2   6  177.09   10.19
  -2   2   6  177.25   10.04
   2  -2  -6  165.29    9.73
   2   2  -6  159.94    6.47
   2   2  -6  165.45    6.54
   2  -2  -6  162.38    6.56
   2  -2  -6  163.15    6.47
   2  -2  -5  152.91    8.28
   2   2  -5  152.95    8.10
  -2  -2   5  153.81    9.08
  -2   2   5  138.34    7.31
  -2  -2   5  157.78    8.45
   2  -2  -5  155.96    8.60
   2   2  -5  143.60    7.48
   2  -2  -5  158.01    8.86
   2  -2  -5  165.14    9.09
   2  -2  -5  145.16    5.86
  -2   2   4 1123.11   44.13
  -2  -2   4 1190.92   45.64
   2  -2  -4 1155.55   45.28
   2   2  -4 1119.25   43.47
  -2  -2   4 1046.21   43.49
  -2  -2   4 1185.09   44.96
  -2   2   4 1211.61   45.84
   2  -2  -4 1145.44   45.22
   2  -2  -4 1221.51   45.65
   2  -2  -4 1177.04   44.52
   2   2  -4 1103.66   44.10
  -2   2   3  153.70    7.82
   2  -2  -3  151.77    8.50
  -2  -2   3  154.34    7.36
   2  -2  -3  160.63    8.14
   2   2  -3  150.51    7.81
  -2   2   3  159.61    8.49
  -2  -2   3  161.44    8.22
  -2   2   3  160.95    8.70
   2  -2  -3  156.90    8.37
   2  -2  -3  161.17    8.50
   2   2  -3  148.78    7.24
   2  -2  -3  151.75    7.49
  -2   2   2  175.54    8.48
  -2   2   2  164.46    8.76
   2  -2  -2  157.98    8.76
  -2  -2   2  160.40    7.94
   2   2  -2  157.11    7.97
   2  -2  -2  159.08    8.41
  -2  -2   2  173.39    8.59
  -2   2   2  176.22    8.86
   2  -2  -2  176.28    8.63
   2  -2  -2  172.78    8.64
   2  -2  -2  178.52    7.60
   2   2  -2  157.97    7.25
  -2   2   1 1392.64   51.61
  -2   2   1 1470.10   51.86
  -2  -2   1 1392.86   51.32
   2  -2  -1 1419.04   51.99
  -2   2   1 1463.21   51.87
   2   2  -1 1368.88   50.91
  -2  -2   1 1459.64   51.87
   2  -2  -1 1422.70   51.62
   2   2  -1 1257.42   49.75
   2   2  -1 1417.57   52.05
  -2  -2   1 1299.29   49.64
   2   2  -1 1246.60   49.86
   2  -2  -1 1273.22   50.02
   2   2   0  370.87   14.48
  -2   2   0  356.12   15.73
   2  -2   0  357.21   15.64
  -2  -2   0  361.06   15.62
  -2   2   0  354.06   15.44
   2   2   0  359.39   15.02
  -2  -2   0  344.17   14.11
  -2  -2   0  351.78   13.97
   2  -2   0  365.87   15.62
   2   2   0  373.40   16.07
  -2   2   0  369.62   15.83
   2  -2   1   98.98    6.40
   2   2   1  108.89    5.85
  -2   2  -1  109.41    6.46
  -2  -2  -1  113.37    6.70
   2  -2   1  118.16    6.71
   2   2   1  125.14    5.79
   2  -2   1  111.72    6.28
  -2  -2  -1  123.47    5.66
   2   2   1  106.17    5.04
   2  -2   1   97.77    4.93
  -2   2  -2  308.79   14.09
   2  -2   2  316.44   14.18
  -2   2  -2  301.45   14.04
   2  -2   2  321.99   14.18
   2   2   2  327.68   13.40
  -2  -2  -2  316.27   13.28
   2   2   2  302.63   14.08
   2  -2   2  300.06   13.67
   2   2   2  289.77   12.44
   2  -2   2  277.53   12.36
  -2   2  -3  633.77   27.04
   2  -2   3  622.37   26.04
   2  -2   3  685.25   27.15
  -2   2  -3  606.83   26.42
   2   2   3  722.32   26.72
  -2  -2  -3  622.27   25.03
   2   2   3  670.51   27.02
  -2   2  -3  638.27   26.06
   2  -2   3  645.29   26.60
  -2  -2  -3  675.68   26.55
   2  -2   3  615.40   25.52
   2   2   3  668.08   25.69
  -2   2  -4 1235.05   48.35
   2  -2   4 1191.23   47.29
  -2  -2  -4 1206.68   46.60
   2  -2   4 1247.01   48.30
  -2   2  -4 1200.32   47.72
   2   2   4 1306.64   48.02
  -2  -2  -4 1178.38   46.29
  -2   2  -4 1141.16   46.41
   2   2   4 1252.12   47.93
  -2  -2  -4 1258.82   48.00
   2  -2   4 1229.67   47.81
   2  -2   4 1120.32   46.76
   2   2   4 1280.98   47.11
   2   2   5   18.25    2.47
   2  -2   5   15.21    2.44
  -2   2  -5   14.19    2.74
  -2  -2  -5   12.17    2.13
   2  -2   5   11.29    2.96
   2  -2   5   10.60    2.30
  -2   2  -5   14.53    2.88
   2   2   5   11.50    2.62
   2   2   5   11.59    2.31
  -2  -2  -5   11.60    1.90
  -2  -2  -5   13.62    2.77
   2  -2   5   12.58    0.92
   2   2   5   15.25    1.07
   2  -2   6   37.84    4.09
   2   2   6   49.69    4.37
  -2  -2  -6   49.25    4.24
   2  -2   6   43.94    5.13
  -2   2  -6   47.03    4.74
   2   2   6   47.18    2.22
  -2   2  -6   43.39    4.71
   2  -2   6   42.82    4.35
   2   2   6   55.35    5.05
  -2  -2  -6   50.72    3.98
  -2   2  -6   47.24    2.26
   2   2   6   44.26    2.27
   2  -2   6   45.26    2.15
  -2   2  -6   44.87    3.81
  -2  -2  -6   50.06    4.86
  -2  -2  -7   30.12    4.50
   2   2   7   34.37    1.69
  -2   2  -7   29.03    3.18
   2  -2   7   31.14    1.62
  -2  -2  -7   26.37    3.26
   2   2   7   30.81    3.91
  -2  -2  -7   34.25    1.67
  -2   2  -7   31.72    1.67
   2  -2   7   38.18    4.33
   2  -2   7   34.75    5.04
  -2  -2  -7   30.45    3.90
  -2   2  -7   30.57    4.32
   2  -2   7   27.52    3.84
   2   2   7   38.01    4.59
  -2   2  -7   30.14    1.83
  -2  -2  -7   32.22    1.66
   2  -2   7   31.43    1.74
   2   2   7   31.75    1.87
   2  -2   8  128.67    5.32
   2   2   8  128.60    5.36
  -2  -2  -8  135.13    9.88
  -2   2  -8  130.51    5.36
  -2  -2  -8  130.52    5.35
   2  -2   8  129.92    8.92
   2   2   8  134.94    8.93
  -2  -2  -8  124.28    8.66
   2  -2   8  131.22   10.14
  -2   2  -8  134.04    9.65
   2  -2   8  126.10    8.83
  -2  -2  -8  119.99    8.12
  -2   2  -8  138.46    5.58
  -2  -2  -8  131.56    5.30
   2   2   8  129.75    5.66
   2  -2   8  127.32    5.40
  -2  -2  -9  817.18   36.24
   2   2   9  793.23   30.30
   2  -2   9  826.46   30.30
  -2  -2  -9  831.67   30.32
   2   2   9  834.24   35.39
   2  -2   9  797.49   35.29
  -2   2  -9  798.02   30.30
  -2   2  -9  799.02   35.91
   2  -2   9  719.36   34.44
  -2   2  -9  807.81   30.49
   2   2   9  848.53   30.39
  -2  -2  -9  799.75   30.22
   2   2   9  823.71   30.57
   2  -2   9  760.70   30.31
  -2  -2 -10  168.76   11.63
   2  -2  10  153.52    6.29
   2   2  10  158.35    6.38
  -2  -2 -10  134.43   10.72
  -2   2 -10  148.07   10.98
  -2  -2 -10  156.15    6.45
  -2   2 -10  160.18    6.46
   2   2  10  152.67   10.57
   2  -2  10  149.27   10.65
  -2  -2 -10  125.78   10.91
  -2   2 -10  129.13   10.93
   2  -2  10  116.95    9.82
  -2   2 -10  156.54    6.58
   2   2  10  156.26    6.38
   2   2  10  152.78    6.83
   2   2  10  147.87   10.84
  -2  -2 -11   13.86    1.80
  -2   2 -11   13.04    1.78
   2   2  11   12.70    2.23
   2   2  11   12.26    2.42
  -2   2 -11   11.33    1.69
   2   2  11   13.68    1.30
   2   2  11   13.41    1.49
   2  -2  11   11.38    1.16
  -2  -2 -12   11.43    1.53
  -2   2 -12   13.16    1.55
  -2  -2 -12   10.59    1.78
   2   2  12   14.26    2.10
   2   2  12   12.42    1.89
   2   2  12   12.20    1.14
   2   2  12   12.32    1.37
   2  -2  12   13.47    1.13
  -2  -2 -13   24.76    1.53
  -2  -2 -13   24.80    1.74
   2   2  13   28.65    1.92
   2   2  13   22.90    1.99
   2   2  13   24.34    1.38
   2  -2  13   22.99    1.36
  -2   2 -13   24.43    1.69
  -2  -2 -14   56.73    2.32
   2   2  14   50.64    2.33
   2   2  14   50.82    2.42
   2  -3 -13    1.82    0.66
   2  -3 -13    2.46    0.87
  -2   3  13    1.32    0.78
   2  -3 -12   53.02    2.36
   2  -3 -12   51.99    2.54
   2   3 -11   22.73    1.76
   2  -3 -11   24.08    1.87
   2   3 -11   21.86    1.55
   2  -3 -11   25.25    1.71
  -2   3  11   23.61    1.58
  -2   3  10  131.48    5.55
   2  -3 -10  140.83    5.69
   2   3 -10  129.94    5.72
   2  -3 -10  140.45    5.70
   2   3 -10  125.33    5.58
   2  -3 -10  131.70    5.83
   2  -3  -9   65.99    3.66
  -2   3   9   68.44    3.33
  -2   3   9   56.61    7.43
   2  -3  -9   68.81    3.54
   2  -3  -9   61.60    6.92
  -2   3   9   60.01    6.66
   2   3  -9   67.40    3.46
   2  -3  -9   70.52    3.48
   2   3  -9   70.56    3.35
   2  -3  -9   70.70    7.85
   2  -3  -8   20.31    5.13
   2  -3  -8   19.36    4.70
  -2  -3   8   10.38    3.93
   2   3  -8   11.63    3.63
   2  -3  -8   16.51    4.28
  -2   3   8   19.41    1.75
  -2   3   8   22.47    1.48
  -2   3   8   14.54    5.05
  -2   3   8   22.27    4.63
   2  -3  -8   27.79    2.22
  -2   3   8   21.98    1.80
   2   3  -8   20.65    1.95
   2   3  -8   21.91    1.77
   2  -3  -8   23.71    1.96
   2  -3  -8   23.92    2.38
   2  -3  -7   13.78    4.58
  -2   3   7   20.93    4.15
   2  -3  -7   10.55    3.59
   2   3  -7   16.81    3.76
   2  -3  -7   14.78    3.96
   2  -3  -7   12.11    3.32
  -2  -3   7   14.56    3.93
  -2   3   7   17.02    1.29
  -2   3   7   17.63    1.60
  -2   3   7   18.79    5.11
  -2   3   7   16.96    1.62
  -2   3   7   17.96    4.20
   2   3  -7   15.15    1.62
   2   3  -7   17.13    1.52
   2  -3  -7   18.04    1.67
   2  -3  -7   12.54    1.87
  -2   3   6   12.61    3.77
   2  -3  -6    6.92    3.17
   2  -3  -6   11.28    3.59
   2  -3  -6    6.62    3.53
   2   3  -6   13.25    3.17
   2  -3  -6   13.17    3.07
  -2  -3   6    9.83    3.09
  -2   3   6   12.62    1.34
  -2   3   6   14.54    1.15
  -2   3   6   14.88    3.72
  -2   3   6   13.55    1.30
   2   3  -6   13.93    1.36
   2   3  -6   14.01    1.35
   2  -3  -6   13.21    1.44
   2  -3  -6   11.87    1.44
  -2   3   5  218.82   12.64
   2  -3  -5  209.01   12.10
  -2  -3   5  205.95   11.92
   2  -3  -5  193.33   12.05
  -2   3   5  210.10   12.69
   2   3  -5  200.55   11.35
   2  -3  -5  197.75   11.52
  -2   3   5  213.64    8.25
  -2  -3   5  216.28   12.62
   2  -3  -5  202.49    8.22
  -2   3   5  203.00    8.20
   2  -3  -5  212.34   11.89
   2   3  -5  209.31    8.28
   2   3  -5  218.11    8.37
   2  -3  -5  212.28    8.25
  -2   3   4   41.48    5.12
   2  -3  -4   37.75    4.39
   2  -3  -4   32.75    4.60
  -2  -3   4   36.20    4.41
   2   3  -4   29.00    3.70
   2  -3  -4   34.89    4.12
  -2   3   4   34.85    4.71
  -2   3   4   37.57    1.96
  -2   3   4   32.12    3.29
  -2   3   4   37.93    1.93
   2   3  -4   38.74    2.03
   2  -3  -4   40.97    1.95
   2   3  -4   39.23    2.00
   2   3  -4   38.31    2.06
   2  -3  -4   40.81    1.92
   2  -3  -3   47.05    4.46
   2  -3  -3   38.82    4.68
  -2  -3   3   29.84    3.37
   2  -3  -3   37.13    4.24
   2   3  -3   33.67    3.87
  -2  -3   3   33.01    3.99
  -2   3   3   44.36    4.86
  -2   3   3   33.76    4.32
  -2   3   3   37.66    3.71
  -2   3   3   39.03    1.94
  -2   3   3   38.41    1.87
   2  -3  -3   40.62    1.86
   2   3  -3   37.51    1.90
  -2   3   3   33.42    1.87
   2   3  -3   38.08    1.97
   2  -3  -3   38.56    1.83
  -2   3   3   35.66    1.81
  -2   3   3   36.86    1.81
   2  -3  -2   94.29    7.23
  -2  -3   2  107.22    6.66
  -2  -3   2  100.35    7.15
   2   3  -2  107.98    6.59
   2  -3  -2   99.18    6.96
  -2   3   2  104.53    7.27
  -2   3   2  102.22    7.29
  -2   3   2  101.68    4.20
  -2   3   2  116.48    6.92
   2   3  -2   95.30    4.19
   2  -3  -2  101.86    4.11
   2   3  -2  104.77    4.20
  -2   3   2   99.13    4.20
  -2   3   2  103.01    7.58
   2  -3  -2  102.23    4.08
  -2   3   2   95.95    4.08
  -2   3   1   26.26    3.44
   2   3  -1   25.14    1.45
   2  -3  -1   27.87    1.41
  -2   3   1   27.52    1.47
  -2   3   1   27.00    3.94
   2   3  -1   26.48    3.77
   2  -3  -1   30.96    3.70
  -2  -3   1   33.09    3.65
   2   3  -1   27.41    3.21
  -2   3   1   34.41    4.06
  -2  -3   1   24.38    3.56
   2  -3  -1   25.50    3.65
   2   3   0    3.04    1.78
  -2  -3   0    8.89    2.72
   2  -3   0    4.91    2.55
  -2  -3   0    3.83    1.88
  -2   3   0   -0.33    1.89
   2  -3   0    3.37    2.17
  -2   3   0    3.56    1.93
   2   3   0    4.60    1.24
   2  -3   0    5.75    0.63
  -2   3   0    3.46    0.67
   2   3   0    5.01    0.67
  -2   3   0    4.24    0.72
   2  -3   0   10.52    2.54
  -2   3   0    2.16    2.09
   2   3   0    5.42    2.38
   2  -3   0    5.66    0.67
  -2  -3  -1   38.14    4.15
  -2  -3  -1   36.16    4.24
   2  -3   1   34.53    4.06
   2   3   1   31.70    3.42
  -2   3  -1   29.54    3.86
   2  -3   1   30.63    4.02
  -2   3  -1   30.17    3.83
  -2   3  -1   26.53    1.51
   2   3   1   29.12    1.49
   2  -3   1   27.59    1.43
   2   3   1   34.99    3.07
  -2   3  -1   29.51    1.59
  -2   3  -1   32.02    3.86
   2   3   1   25.63    3.83
   2  -3   1   23.94    3.42
   2  -3   1   28.77    1.49
  -2  -3  -2  327.29   16.35
   2  -3   2  344.99   16.44
  -2   3  -2  343.74   16.44
  -2   3  -2  329.78   15.18
   2  -3   2  327.31   16.43
   2   3   2  338.68   12.46
  -2   3  -2  352.18   16.55
   2  -3   2  315.28   12.35
  -2   3  -2  322.85   12.44
   2   3   2  315.08   12.37
   2   3   2  347.02   15.09
  -2   3  -2  342.10   12.51
   2   3   2  344.33   12.57
  -2   3  -2  311.63   12.50
  -2   3  -2  352.62   16.14
  -2  -3  -2  306.68   14.27
   2  -3   2  357.44   15.85
   2   3   2  330.91   12.55
   2  -3   2  317.04   12.40
  -2  -3  -3  254.58   13.35
   2  -3   3  248.41   13.01
  -2   3  -3  247.16   13.06
  -2   3  -3  220.21   11.60
   2   3   3  246.20    9.01
   2  -3   3  223.58    8.86
  -2   3  -3  228.15    8.94
   2   3   3  220.01    8.83
   2   3   3  270.97   12.19
  -2   3  -3  236.45    9.03
  -2   3  -3  222.58    9.00
   2   3   3  239.78    9.10
  -2   3  -3  242.62   12.09
   2   3   3  248.43   13.10
  -2  -3  -3  246.73   11.64
   2  -3   3  235.09   12.15
   2   3   3  225.84    8.96
   2   3   3  240.85    9.09
   2  -3   3  225.43    8.91
  -2   3  -4   27.57    4.43
  -2  -3  -4   32.99    4.89
   2  -3   4   31.39    4.49
  -2   3  -4   28.20    3.62
   2   3   4   35.22    1.85
   2   3   4   35.71    1.77
   2  -3   4   31.59    3.86
  -2   3  -4   31.32    4.54
  -2   3  -4   34.95    1.78
   2  -3   4   34.36    1.69
   2   3   4   37.50    4.09
  -2   3  -4   33.73    1.87
  -2   3  -4   35.40    1.85
   2   3   4   36.47    1.97
   2   3   4   39.44    4.82
  -2  -3  -4   36.26    3.92
  -2   3  -4   30.10    3.44
   2  -3   4   34.81    4.15
   2  -3   4   34.21    1.76
   2   3   4   34.94    1.81
   2   3   4   34.33    1.92
  -2  -3  -5   20.96    4.66
   2  -3   5   25.21    4.41
  -2   3  -5   31.43    3.93
   2  -3   5   24.33    4.70
   2   3   5   27.15    1.61
   2  -3   5   27.93    3.85
  -2   3  -5   28.61    4.76
  -2   3  -5   25.15    1.52
   2   3   5   27.15    4.07
  -2   3  -5   31.94    1.76
  -2   3  -5   27.62    1.62
   2  -3   5   25.40    1.54
   2   3   5   28.91    1.88
   2   3   5   26.67    1.62
  -2  -3  -5   28.54    3.96
   2   3   5   26.90    4.16
  -2  -3  -6    7.55    3.38
  -2   3  -6    4.20    2.70
   2  -3   6    3.66    4.06
   2   3   6    5.03    1.07
   2  -3   6    5.30    2.99
  -2   3  -6    2.49    3.57
   2   3   6    3.34    2.80
   2   3   6    4.89    1.14
  -2   3  -6    5.55    0.97
   2   3   6    5.34    1.15
  -2   3  -6    5.21    1.02
  -2   3  -6    5.48    1.11
  -2  -3  -6    4.54    0.87
   2  -3   6    4.85    1.11
   2   3   6    6.34    1.62
  -2  -3  -7  143.21    9.86
  -2  -3  -7  112.68   10.32
   2  -3   7  136.11   10.87
  -2   3  -7  127.03    9.33
   2   3   7  136.24    5.63
   2  -3   7  125.40    9.01
   2   3   7  129.78    9.42
  -2   3  -7  131.61    5.46
  -2   3  -7  138.93    5.71
  -2  -3  -7  131.02    5.47
   2  -3   7  123.27    5.53
   2   3   7  134.53    5.88
   2   3   7  134.95    5.71
  -2  -3  -8  508.55   24.45
  -2  -3  -8  538.24   25.80
   2  -3   8  505.47   25.43
  -2   3  -8  532.29   24.18
   2  -3   8  425.83   22.94
   2   3   8  516.54   19.24
  -2   3  -8  507.24   19.32
   2  -3   8  497.80   19.13
   2   3   8  505.77   19.38
  -2  -3  -8  519.53   19.25
   2   3   8  504.72   19.30
  -2  -3  -8  480.19   19.08
   2   3   8  543.67   24.68
  -2  -3  -9   45.67    6.54
  -2  -3  -9   41.85    6.79
   2   3   9   54.35    6.31
  -2  -3  -9   52.75    2.51
   2   3   9   50.90    3.37
  -2  -3  -9   52.43    3.18
   2   3   9   47.14    3.13
   2  -3   9   53.30    2.92
  -2   3  -9   57.70    2.99
   2   3  10   58.89    2.88
  -2  -3 -10   55.49    3.18
   2   3  10   53.77    3.19
   2   3  10   53.57    3.29
  -2   3 -10   57.44    3.02
   2   3  11   -0.59    1.65
   2   3  11    1.53    0.96
   2   3  11    2.07    1.70
  -2  -3 -11    0.28    1.61
  -2   3 -11    1.18    1.22
   2   3  12    9.07    1.34
   2   3  12    9.39    0.99
  -2  -3 -12   12.32    1.38
   2   3  12   10.93    1.43
  -2   3 -12    8.40    1.19
  -2  -3 -13    4.40    0.81
   2   3  13    3.63    0.61
  -2  -3 -13    4.39    0.86
   2   3  13    3.69    0.78
  -2   3 -13    4.63    0.87
   2  -4 -12   39.82    1.63
   2   4 -12   34.42    1.68
   2  -4 -11   66.51    2.74
   2  -4 -11   65.25    2.71
  -2   4  11   57.25    2.59
   2  -4 -11   71.91    2.81
  -2   4  11   54.83    2.61
  -2   4  10    4.43    1.01
   2  -4 -10    5.86    1.35
   2  -4 -10    4.24    1.03
   2  -4 -10    4.61    1.31
  -2   4  10    3.42    1.19
   2   4 -10    3.77    1.13
  -2   4   9    1.59    1.18
   2   4  -9    0.55    1.27
   2  -4  -9    1.21    1.19
   2   4  -9    0.22    0.99
   2  -4  -9   -0.63    1.50
  -2   4   9    1.90    1.47
  -2   4   8   26.26    2.00
  -2   4   8   25.14    1.63
   2  -4  -8   26.13    2.29
   2   4  -8   23.66    2.02
   2  -4  -8   25.19    1.94
   2   4  -8   23.34    1.82
   2  -4  -8   27.74    2.22
  -2   4   8   23.36    2.07
  -2   4   7   92.51    3.92
   2  -4  -7   88.51    4.20
  -2   4   7   82.96    3.99
   2   4  -7   85.80    4.12
   2   4  -7   87.29    4.09
   2  -4  -7   89.38    4.20
   2  -4  -7   85.22    4.16
  -2   4   7   86.11    4.09
  -2   4   6   77.93    8.23
   2  -4  -6   85.91    8.39
  -2  -4   6   85.21    8.08
  -2   4   6   86.97    3.85
  -2  -4   6   71.73    8.27
   2  -4  -6   83.96    4.10
  -2   4   6   80.23    3.99
  -2   4   6   88.76    8.14
   2   4  -6   83.33    4.04
   2   4  -6   79.59    3.97
   2  -4  -6   91.13    4.15
   2  -4  -6   86.72    4.04
  -2   4   6   80.48    3.95
  -2   4   5  188.16   12.61
   2  -4  -5  159.21   11.42
   2  -4  -5  161.65   11.98
   2  -4  -5  157.40   11.06
   2   4  -5  126.88    9.92
  -2  -4   5  148.42   11.50
  -2   4   5  177.54    7.15
  -2   4   5  172.78    7.08
   2  -4  -5  176.27    7.17
  -2   4   5  176.51   11.77
  -2   4   5  172.26    7.14
   2   4  -5  169.69    7.17
   2   4  -5  175.04    7.20
  -2   4   5  170.85    7.08
   2  -4  -5  177.49    7.07
  -2   4   4   86.61    8.72
   2  -4  -4   73.72    7.28
   2   4  -4   50.30    5.67
   2  -4  -4   59.67    7.41
  -2  -4   4   74.63    7.66
   2  -4  -4   72.82    7.27
  -2   4   4   72.65    3.49
  -2   4   4   72.55    3.55
   2  -4  -4   78.98    3.67
  -2   4   4   77.58    3.86
   2   4  -4   68.60    3.58
   2  -4  -4   71.66    3.38
  -2   4   4   68.09    3.45
   2  -4  -3  127.04   10.38
   2   4  -3  117.91    8.72
   2  -4  -3  116.15    9.64
  -2  -4   3  133.05   10.29
  -2   4   3  129.60    5.71
  -2   4   3  143.60    5.77
  -2   4   3  140.68    5.84
   2   4  -3  129.10    5.91
   2  -4  -3  142.99    5.72
  -2   4   3  130.78    5.56
   2  -4  -3  144.62    9.88
  -2   4   3  132.37    5.66
   2  -4  -3  138.35    5.55
   2  -4  -2   71.05    7.32
  -2  -4   2   63.57    6.27
  -2   4   2   68.10    6.89
   2   4  -2   68.43    6.11
  -2  -4   2   84.35    8.01
  -2   4   2   59.47    5.99
  -2   4   2   74.70    3.48
  -2   4   2   75.92    3.49
   2  -4  -2   73.85    3.40
   2   4  -2   73.31    3.61
  -2   4   2   73.36    3.60
  -2   4   2   71.89    3.26
   2   4  -2   70.36    3.58
  -2   4   2   66.25    7.70
   2  -4  -2   72.74    7.02
  -2   4   2   72.44    3.37
   2  -4  -2   73.08    3.55
  -2  -4   1  326.90   17.02
   2   4  -1  306.61   16.21
  -2   4   1  336.63   17.64
  -2  -4   1  297.26   17.54
   2  -4  -1  320.03   17.66
   2   4  -1  317.31   12.65
  -2   4   1  333.70   16.95
  -2   4   1  341.99   12.84
   2  -4  -1  329.08   12.72
   2   4  -1  336.98   12.87
  -2   4   1  328.57   12.74
   2   4  -1  333.43   12.96
  -2   4   1  348.77   18.57
   2  -4  -1  359.23   17.21
  -2   4   1  317.25   12.72
   2   4  -1  347.72   12.98
   2  -4  -1  341.08   12.82
  -2  -4   0  209.12   13.29
   2  -4   0  244.20   14.51
  -2  -4   0  231.35   14.24
   2   4   0  253.68   13.00
   2  -4   0  212.27   13.79
  -2   4   0  240.54    9.22
   2   4   0  235.63    9.14
  -2   4   0  244.76   13.67
   2  -4   0  224.18    9.10
  -2   4   0  235.03    9.31
   2   4   0  241.95    9.28
   2   4   0  230.29    9.36
  -2   4   0  232.28    9.16
  -2   4   0  223.34    9.27
  -2   4   0  234.15   14.21
   2  -4   0  245.10   13.29
  -2   4   0  218.57    9.11
   2   4   0  241.41    9.40
   2  -4   0  248.61    9.26
  -2  -4  -1  258.62   14.78
   2  -4   1  245.30   14.92
  -2  -4  -1  248.72   15.14
   2  -4   1  235.23   14.67
  -2   4  -1  240.34   14.35
   2   4   1  244.67    9.80
  -2   4  -1  251.68    9.81
   2  -4   1  244.10    9.71
  -2   4  -1  249.41    9.93
   2   4   1  262.05    9.86
  -2   4  -1  246.81    9.81
  -2   4  -1  248.12    9.91
   2   4   1  241.96    9.97
  -2   4  -1  266.44   14.98
   2  -4   1  267.17   13.95
   2  -4   1  257.20    9.86
   2   4   1  259.82   10.05
   2  -4   2   56.40    6.98
  -2  -4  -2   61.62    7.31
   2  -4   2   59.52    7.32
  -2  -4  -2   57.52    7.41
  -2   4  -2   60.56    2.96
   2   4   2   65.26    3.06
  -2   4  -2   56.85    7.03
   2  -4   2   63.58    2.90
  -2   4  -2   64.25    3.34
   2   4   2   59.95    2.97
   2   4   2   66.30    3.23
  -2   4  -2   62.44    2.96
  -2   4  -2   59.41    3.11
  -2   4  -2   75.20    7.01
   2  -4   2   58.22    6.11
   2   4   2   64.90    3.42
   2  -4   2   63.65    3.17
  -2  -4  -3  111.96    9.50
   2  -4   3  103.41    9.20
  -2  -4  -3   94.94    9.18
   2  -4   3  103.63    9.36
   2   4   3  105.28    4.48
   2   4   3  112.48    4.75
  -2   4  -3  112.69    9.44
   2  -4   3   84.33    7.66
  -2   4  -3  105.92    4.54
  -2  -4  -3  101.60    4.45
  -2   4  -3  110.63    4.82
   2   4   3  110.70    4.58
  -2   4  -3  108.27    4.76
   2   4   3  112.05    4.88
  -2   4  -3  110.30    4.74
  -2   4  -3   99.83    8.23
   2  -4   3  109.30    8.38
   2   4   3  109.05    5.07
   2   4   3  106.19    5.02
   2  -4   3  110.03    4.72
   2   4   4  167.08    6.60
   2  -4   4  132.75   10.02
   2   4   4  172.33    6.80
   2   4   4  149.50    6.50
  -2   4  -4  171.21    6.87
   2   4   4  174.00   10.24
  -2  -4  -4  157.42    6.56
  -2   4  -4  168.10    6.76
   2   4   4  172.29    6.93
  -2   4  -4  164.40    6.81
  -2  -4  -4  188.77   12.67
   2  -4   4  166.23   11.93
   2   4   4  157.11    7.05
   2  -4   4  171.92    6.77
   2   4   4  156.18    7.03
   2  -4   5   20.36    4.40
   2   4   5   23.42    1.69
  -2  -4  -5   22.18    1.84
   2   4   5   20.08    3.84
  -2   4  -5   22.81    2.10
  -2   4  -5   20.72    1.78
  -2   4  -5   20.78    1.83
   2  -4   5   19.66    5.19
  -2  -4  -5   19.43    5.83
  -2  -4  -5   23.55    6.16
   2  -4   5   10.63    5.44
   2   4   5   19.42    2.47
   2   4   5   18.72    2.62
   2  -4   5   20.24    2.07
  -2   4  -6  165.27   12.16
  -2  -4  -6  181.91   12.95
   2  -4   6  171.31   13.08
   2   4   6  191.28    7.51
  -2   4  -6  191.08    7.61
  -2  -4  -6  192.19    7.58
   2   4   6  185.18   11.63
  -2   4  -6  184.08    7.69
  -2   4  -6  173.76    7.42
  -2  -4  -6  177.83    7.51
   2  -4   6  192.01    7.58
   2   4   6  184.20    7.93
  -2  -4  -6  189.40    7.45
   2   4   6  191.10    7.89
   2   4   7  181.40    7.18
  -2  -4  -7  182.19    7.22
  -2  -4  -7  172.05    7.09
   2  -4   7  170.71    7.16
   2   4   7  168.24    7.49
  -2  -4  -7  183.47    7.14
   2   4   7  170.92    7.45
  -2   4  -7  174.29    7.33
  -2  -4  -8   75.28    3.50
  -2  -4  -8   66.55    3.13
   2   4   8   66.22    3.79
   2  -4   8   64.58    3.32
   2   4   8   74.58    3.76
  -2  -4  -8   77.79    3.41
  -2   4  -8   71.50    3.47
  -2  -4  -9   53.77    2.70
  -2  -4  -9   43.72    2.20
   2   4   9   50.45    2.56
   2   4   9   47.86    2.90
  -2  -4  -9   51.19    2.53
   2   4   9   46.46    2.88
  -2   4  -9   49.19    2.64
  -2  -4 -10   26.38    1.72
   2   4  10   23.94    1.54
  -2  -4 -10   24.60    1.60
   2   4  10   19.68    1.86
   2   4  10   21.99    1.84
  -2   4 -10   23.97    1.67
  -2  -4 -11   17.21    1.26
   2   4  11   17.53    1.19
   2   4  11   19.00    1.46
  -2  -4 -11   16.77    1.20
   2   4  11   17.54    1.31
  -2   4 -11   17.24    1.29
   2  -5  -9   21.01    1.24
   2  -5  -9   23.43    1.30
  -2   5   8   60.94    2.69
   2  -5  -8   62.10    2.73
   2  -5  -8   61.59    2.74
   2  -5  -8   56.69    2.55
   2  -5  -8   60.04    2.70
  -2   5   7    8.24    1.17
   2  -5  -7    7.91    1.32
  -2   5   7    6.50    0.99
   2  -5  -7    7.06    1.21
   2  -5  -7    7.79    1.36
   2  -5  -7    6.32    1.03
  -2   5   6    1.11    1.19
   2  -5  -6    0.38    1.32
   2   5  -6    0.95    1.33
  -2   5   6    0.34    1.00
   2  -5  -6    0.36    1.20
   2  -5  -6    1.41    1.45
  -2   5   6   -0.24    1.20
   2   5  -5   71.78    3.45
   2  -5  -5   64.54    3.23
  -2   5   5   70.86    3.32
  -2   5   5   72.00    3.26
  -2   5   5   66.34    3.21
  -2   5   5   60.35    3.16
   2   5  -4   17.87    1.91
   2  -5  -4   17.32    1.82
  -2   5   4   15.80    2.05
  -2   5   4   20.37    1.76
  -2   5   4   22.05    1.77
   2  -5  -4   20.91    2.09
  -2   5   4   18.57    1.78
   2   5  -3  130.16    5.73
   2  -5  -3  131.82    5.55
  -2   5   3  131.49    5.72
  -2   5   3  135.75    5.58
  -2   5   3  132.79    5.62
   2  -5  -3  139.38    5.73
  -2   5   3  121.77    5.48
   2   5  -2   67.04    3.52
   2  -5  -2   69.54    3.34
  -2   5   2   67.36    3.62
   2   5  -2   70.51    3.72
  -2   5   2   69.03    3.29
  -2   5   2   63.67    3.27
   2  -5  -2   67.12    3.64
  -2   5   1   68.06    3.28
   2   5  -1   76.40    3.73
   2  -5  -1   69.49    3.45
   2   5  -1   75.39    3.81
  -2   5   1   72.77    3.42
  -2   5   1   77.20    3.64
   2  -5  -1   76.36    3.79
  -2   5   0  407.15   16.20
   2   5   0  444.08   16.50
   2   5   0  432.91   16.37
   2  -5   0  393.93   16.13
  -2   5   0  451.56   16.50
  -2   5   0  445.08   16.40
  -2   5   0  420.84   16.18
   2   5   0  427.11   16.19
   2  -5   0  428.54   16.35
  -2  -5   0  427.82   16.11
   2   5   1    4.22    1.74
  -2   5  -1   -2.10    2.19
  -2  -5  -1    2.84    1.46
   2  -5   1    0.57    1.85
   2   5   1    2.45    2.29
  -2   5  -1    1.76    0.92
   2   5   1    1.73    1.51
   2   5   1   -0.62    1.27
  -2   5  -1    2.66    1.52
  -2   5  -2    4.88    2.15
   2   5   2    5.22    1.59
  -2  -5  -2    5.20    1.61
   2  -5   2    2.75    1.81
   2   5   2    5.50    2.30
  -2   5  -2    6.56    1.55
   2   5   2    5.87    1.52
  -2   5  -2    4.28    1.01
   2   5   2    6.88    1.46
  -2   5  -3    2.37    2.01
   2  -5   3    2.96    1.66
   2   5   3    1.43    2.15
  -2  -5  -3    0.53    1.53
  -2   5  -3    2.03    1.35
  -2   5  -3    2.67    0.99
   2   5   3    0.97    1.36
   2   5   3    1.72    1.42
  -2   5  -4   12.14    1.97
   2  -5   4   10.66    1.72
   2   5   4   12.05    2.22
  -2   5  -4    9.20    1.13
  -2   5  -4    8.05    1.35
   2   5   4   12.93    1.57
  -2   5  -5   85.89    3.86
  -2  -5  -5   81.04    3.63
   2  -5   5   79.94    3.70
   2   5   5   80.08    4.06
  -2   5  -5   82.58    3.64
  -2  -5  -6   26.26    1.62
  -2  -5  -6   29.45    1.63
   2  -5   6   24.84    1.80
   2   5   6   26.67    2.26
  -2   5  -6   28.73    1.68
  -2  -5  -7   89.11    3.72
  -2  -5  -7   82.72    3.69
   2   5   7   99.24    3.90
   2   5   7   93.82    4.07
  -2   5  -7   92.95    3.84
  -2  -5  -8   12.03    1.01
   2   5   8   11.56    1.08
   2   5   8   11.69    1.42
  -2   5  -8   12.54    1.07
   2   5   9   15.24    0.99
  -2  -5  -9   12.55    1.04
   2   5   9   15.13    1.12
   2  -6  -5   11.71    0.90
   2   6  -5   10.92    0.97
   2  -6  -4   31.96    1.64
   2   6  -4   30.62    1.69
   2   6  -3   40.13    2.08
  -2   6   3   42.19    2.02
   2  -6  -3   41.25    2.03
  -2   6   2   22.84    1.38
  -2   6   2   21.67    1.52
   2   6  -2   20.66    1.47
   2  -6  -2   19.81    1.44
   2  -6  -2   21.94    1.45
   2   6  -1   14.82    1.30
  -2   6   1   17.26    1.43
   2  -6  -1   16.88    1.34
  -2   6   1   13.97    1.22
   2   6   0   26.28    1.63
   2  -6   0   22.55    1.55
  -2   6   0   25.29    1.47
  -2   6  -1   21.80    1.59
   2  -6   1   20.73    1.43
  -2  -6  -2   21.24    1.34
  -2   6  -2   23.48    1.56
   2  -6   2   22.16    1.39
  -2  -6  -3   45.72    2.07
  -2  -6  -4    0.74    0.56
  -3   0  15    1.81    0.62
   3   0 -15    1.44    0.72
   3   0 -14    9.13    0.97
  -3   0  14    7.62    1.08
   3   0 -14   11.01    1.41
   3   0 -13    0.09    1.05
  -3   0  13    1.44    1.20
   3   0 -13    1.21    1.67
   3   0 -12  311.40   12.33
  -3   0  12  322.06   12.44
   3   0 -12  315.38   12.47
  -3   0  11    2.67    4.55
  -3   0  11   -1.32    3.39
   3   0 -11    5.27    2.26
   3   0 -11    4.01    1.40
   3   0 -11    3.88    1.22
   3   0 -11    4.58    4.11
  -3   0  11    2.85    1.51
  -3   0  10   25.89    5.52
  -3   0  10   13.84    4.27
   3   0 -10   20.14    2.33
   3   0 -10   20.10    1.37
   3   0 -10   18.38    1.53
   3   0 -10   20.68    1.74
   3   0 -10   21.81    4.97
  -3   0   9    2.34    3.45
  -3   0   9    4.20    3.10
   3   0  -9    3.46    0.70
   3   0  -9    3.87    1.44
   3   0  -9    5.25    0.86
   3   0  -9    9.45    3.68
   3   0  -9    2.96    1.91
   3   0  -8    6.24    1.98
   3   0  -8    5.88    2.74
  -3   0   8    7.17    2.84
  -3   0   8    9.71    3.24
   3   0  -8    8.80    0.98
   3   0  -8    5.75    0.73
   3   0  -8    6.04    0.64
   3   0  -7  449.82   17.18
   3   0  -7  493.47   21.75
  -3   0   7  494.36   21.13
  -3   0   7  502.16   21.12
  -3   0   7  457.73   19.32
   3   0  -7  495.20   21.11
   3   0  -7  447.29   17.16
   3   0  -7  498.38   20.12
   3   0  -7  441.59   17.21
  -3   0   6 2236.24   80.99
  -3   0   6 2056.83   80.90
   3   0  -6 2112.50   80.68
  -3   0   6 2055.15   79.37
   3   0  -6 2085.15   77.48
   3   0  -6 2109.20   81.50
   3   0  -6 2123.89   80.00
  -3   0   5  287.01   12.55
   3   0  -5  300.33   13.60
   3   0  -5  285.30   12.96
   3   0  -5  296.94   14.14
  -3   0   5  294.97   13.54
  -3   0   4   39.82    3.25
  -3   0   4   35.56    3.48
   3   0  -4   30.99    3.01
   3   0  -4   36.02    3.53
   3   0  -4   34.59    2.87
  -3   0   3 1181.88   44.73
  -3   0   3 1236.72   45.36
   3   0  -3 1141.66   44.82
   3   0  -3 1128.48   45.47
   3   0  -3 1154.01   44.67
   3   0  -2   25.08    2.18
  -3   0   2   34.29    2.82
   3   0  -2   24.02    2.61
  -3   0   2   32.97    2.22
   3   0  -1 6802.96  255.53
   3   0  -1 6574.77  256.17
   3   0  -1 7142.75  256.29
  -3   0   1 6946.80  255.14
  -3   0   1 7106.25  255.92
  -3   0   0  197.91    7.96
   3   0   0  238.29    9.52
   3   0   0  215.85    9.44
   3   0   0  231.20    8.74
  -3   0   0  205.79    8.06
  -3   0   0  223.09    8.85
   3   0   1  173.74    7.75
  -3   0  -1  195.46    8.23
   3   0   1  170.27    8.30
   3   0   1  185.46    8.47
   3   0   2    1.16    1.41
  -3   0  -2    0.73    0.40
   3   0   2   -0.16    1.25
   3   0   2   -0.77    1.46
  -3   0  -2    0.34    0.98
  -3   0  -3 1874.91   67.69
   3   0   3 1762.02   67.96
   3   0   3 1735.00   66.55
  -3   0  -3 1776.83   66.86
  -3   0  -4   18.78    2.63
   3   0   4   20.14    2.10
  -3   0  -4   19.37    1.89
   3   0   5   12.60    2.68
  -3   0  -5    8.23    2.19
  -3   0  -5    6.89    1.33
   3   0   5    8.24    1.75
   3   0   6  114.76    7.54
   3   0   6  106.53    6.48
  -3   0  -6  113.69    7.28
   3   0   6  102.89    4.41
   3   0   6  105.26    7.16
   3   0   6  109.80    4.44
   3   0   6  111.82    4.42
  -3   0  -6  113.62    7.13
   3   0   7  144.01    8.96
   3   0   7  129.41    7.77
  -3   0  -7  131.98    8.65
   3   0   7  130.02    5.23
   3   0   7  149.82    8.86
   3   0   7  128.02    5.21
   3   0   7  129.97    5.21
   3   0   7  128.46    5.25
  -3   0  -7  127.14    8.29
   3   0   7  123.15    5.24
   3   0   8  209.46   12.14
   3   0   8  189.06   10.63
  -3   0  -8  219.15   12.22
   3   0   8  189.04   11.52
   3   0   8  193.40    7.57
   3   0   8  181.66    7.51
   3   0   8  195.17    7.63
  -3   0  -8  180.83   11.31
   3   0   9    5.23    3.24
  -3   0  -9    8.97    3.99
   3   0   9    3.07    2.84
   3   0   9    8.23    1.22
   3   0   9   10.69    3.53
   3   0   9    6.78    0.89
  -3   0  -9    7.64    1.18
   3   0   9    6.35    1.26
  -3   0  -9    8.66    3.40
   3   0  10   23.24    4.84
  -3   0 -10   14.51    2.18
  -3   0 -10   17.83    5.52
   3   0  10   17.87    4.01
   3   0  10   23.20    4.62
   3   0  10   18.11    1.82
  -3   0 -10   17.66    1.67
   3   0  10   15.29    1.32
   3   0  10   18.84    1.76
  -3   0 -10   13.68    4.39
  -3   0 -11   30.90    6.03
   3   0  11   27.85    4.69
   3   0  11   31.23    2.09
  -3   0 -11   29.49    2.14
  -3   0 -11   22.87    5.01
   3   0  11   31.26    2.17
   3   0  11   27.32    1.71
   3   0  11   35.82    5.55
  -3   0 -11   27.59    2.71
  -3   0 -12   67.39    3.28
  -3   0 -12   63.70    3.62
   3   0  12   66.42    3.29
   3   0  12   60.05    3.68
  -3   0 -13    0.62    1.56
   3   0  13    1.29    1.74
  -3   0 -13    0.44    1.10
   3   0  13    0.38    1.11
  -3   0 -14   10.21    1.10
   3   0  14    9.92    1.35
   3   0  14   10.74    1.06
  -3   0 -14    9.31    1.27
   3   0  15   16.53    0.94
  -3   0 -15   15.32    0.97
  -3   1  14    7.64    1.02
  -3  -1  14    8.82    0.96
   3  -1 -14    6.92    1.16
   3   1 -14    5.54    1.18
   3   1 -14    7.89    0.88
   3  -1 -14    9.92    1.00
  -3   1  13   18.50    1.61
  -3  -1  13   20.72    1.51
   3  -1 -13   17.15    1.48
   3   1 -13   19.11    1.42
   3  -1 -13   17.91    1.82
   3   1 -13   20.41    1.93
  -3  -1  12  205.01    8.42
  -3   1  12  212.90    8.51
   3  -1 -12  211.35    8.30
   3  -1 -12  208.85    8.42
   3   1 -12  205.98    8.42
   3  -1 -12  215.32    8.53
   3   1 -12  211.34    8.57
  -3  -1  11   97.90    4.23
  -3   1  11   93.16    4.30
   3  -1 -11   77.24    7.61
   3  -1 -11   92.52    4.47
   3   1 -11   92.19    4.50
   3  -1 -11   91.90    9.26
   3   1 -11   91.13    9.03
  -3  -1  11   59.81    6.76
  -3   1  11   70.35    7.71
  -3  -1  11   87.09    9.03
  -3   1  11   72.60    8.25
   3   1 -11   79.69    8.02
   3   1 -11   87.08    4.03
   3  -1 -11   88.17    3.97
   3   1 -11   90.68    4.24
   3  -1 -11   99.25    4.23
   3  -1 -11   92.94    4.10
   3   1 -10   14.99    4.56
   3  -1 -10   17.66    4.25
   3  -1 -10   17.34    2.15
   3   1 -10   18.68    2.25
   3   1 -10   15.11    5.00
   3  -1 -10   16.54    5.36
  -3  -1  10   13.85    4.11
  -3  -1  10   11.68    5.05
  -3   1  10   22.16    4.87
  -3   1  10   24.50    5.39
   3  -1 -10   17.18    1.39
   3   1 -10   16.71    1.53
   3  -1 -10   20.24    1.51
   3  -1 -10   20.81    1.76
   3   1 -10   18.80    1.81
   3  -1 -10   19.05    1.79
   3   1  -9   18.74    4.79
   3  -1  -9   24.97    5.34
   3  -1  -9   18.51    1.84
   3   1  -9   19.89    1.83
  -3  -1   9   15.81    3.98
  -3  -1   9   15.67    4.33
  -3   1   9   20.38    4.61
  -3   1   9   28.23    5.29
  -3   1   9   19.99    3.38
   3  -1  -9   16.71    1.25
   3   1  -9   17.78    1.38
   3   1  -9   19.36    4.11
   3  -1  -9   17.61    4.13
   3  -1  -9   20.77    1.60
   3   1  -8  168.64    6.78
   3  -1  -8  182.32   11.28
   3   1  -8  178.46   11.25
   3  -1  -8  174.28    6.78
  -3   1   8  167.67   10.77
  -3  -1   8  167.23   10.31
  -3  -1   8  175.33   10.97
  -3   1   8  162.80    6.60
  -3   1   8  196.62   11.17
  -3   1   8  179.14   10.07
   3  -1  -8  163.96    6.55
   3   1  -8  166.88    6.66
   3  -1  -8  167.47    6.68
   3  -1  -8  173.67   10.40
   3   1  -7  118.16    4.98
   3  -1  -7  120.65    4.98
   3  -1  -7  123.95    7.98
  -3   1   7  121.29    8.21
  -3  -1   7  119.88    8.02
  -3  -1   7  141.01    8.60
  -3   1   7  119.04    8.04
  -3   1   7  102.21    6.70
   3  -1  -7  152.74    9.11
   3   1  -7  132.07    8.64
   3  -1  -7  121.54    4.94
   3   1  -7  120.01    4.95
  -3   1   7  138.20    8.02
   3   1  -7  119.98    4.96
   3  -1  -7  121.74    4.99
   3  -1  -7  120.26    4.89
  -3  -1   6    3.03    2.00
   3  -1  -6    5.41    1.21
  -3  -1   6    4.69    2.30
  -3   1   6    9.40    2.40
  -3   1   6    5.37    1.77
   3   1  -6    9.31    2.57
   3  -1  -6    4.45    2.33
   3  -1  -6    6.42    0.71
   3   1  -6    7.23    0.72
  -3   1   6    5.76    2.09
   3  -1  -6   10.72    2.36
   3  -1  -6    6.96    0.68
  -3   1   5  201.55   10.07
  -3   1   5  192.94    9.63
  -3  -1   5  207.81   10.40
   3  -1  -5  183.61    8.74
  -3   1   5  198.84   10.46
  -3  -1   5  179.96    8.67
   3  -1  -5  207.12   10.24
   3   1  -5  212.14   10.52
   3  -1  -5  206.85   10.65
  -3   1   4 1102.05   40.71
  -3   1   4 1112.87   40.78
  -3  -1   4 1159.32   41.22
  -3   1   4  839.04   40.53
   3  -1  -4 1010.04   39.72
   3  -1  -4  974.63   38.98
  -3  -1   4  984.53   39.40
   3  -1  -4 1165.51   41.26
   3  -1  -4 1173.12   41.51
   3   1  -4 1125.07   41.23
   3  -1  -3  496.09   18.61
   3   1  -3  440.83   18.16
  -3   1   3  425.54   18.21
   3  -1  -3  457.06   17.48
   3  -1  -3  393.08   16.53
  -3  -1   3  424.57   16.93
  -3   1   3  421.51   17.58
  -3   1   3  427.19   18.03
  -3  -1   3  449.55   18.15
   3   1  -2 2000.69   76.19
   3  -1  -2 2238.34   77.62
   3   1  -2 2169.35   77.48
  -3   1   2 2188.50   77.67
  -3  -1   2 1930.18   75.89
   3  -1  -2 2107.10   77.04
  -3   1   2 2157.08   77.56
   3   1  -2 2006.27   75.96
  -3   1   2 2079.36   77.04
  -3  -1   2 2091.70   76.54
   3  -1  -2 2021.08   76.20
   3  -1  -1 1630.18   56.44
  -3   1   1 1583.02   56.36
   3  -1  -1 1624.25   55.76
  -3   1   1 1574.70   56.17
   3  -1  -1 1686.12   56.57
   3   1  -1 1695.93   56.52
   3   1  -1 1648.21   56.61
   3  -1  -1 1553.67   56.50
  -3   1   0 1852.86   66.83
   3  -1   0 1787.59   66.37
   3   1   0 1792.99   66.30
   3  -1   0 1654.54   66.29
   3   1   0 1787.60   66.40
   3   1   0 1705.15   65.38
  -3   1   0 1792.19   66.16
   3  -1   0 1904.69   66.64
  -3   1   0 1725.33   65.92
   3  -1   0 1739.86   66.00
   3  -1   0 1663.70   66.31
  -3   1  -1   67.36    4.49
   3  -1   1   65.94    2.98
   3   1   1   78.02    4.37
   3  -1   1   69.70    4.24
   3   1   1   81.90    4.33
   3  -1   1   69.47    4.22
   3   1   1   73.07    3.83
  -3   1  -1   68.18    3.50
   3  -1   1   72.88    4.57
  -3  -1  -1   64.78    3.42
   3  -1   1   71.94    4.27
   3  -1   1   73.08    4.33
   3   1   2    0.27    1.21
   3  -1   2    1.61    1.29
   3   1   2   -0.16    1.32
  -3  -1  -2    0.41    0.97
   3  -1   2    1.77    1.52
   3  -1   2    1.19    0.68
  -3   1  -2    0.71    1.56
   3   1   3  125.81    6.83
   3   1   3  120.96    7.04
   3  -1   3  119.81    6.96
   3  -1   3  142.98    7.56
  -3  -1  -3  141.58    6.67
   3  -1   3  133.81    6.04
  -3  -1  -3  134.76    5.59
  -3   1  -3  128.95    7.03
   3  -1   4  302.18   13.55
  -3   1  -4  314.33   14.40
   3   1   4  338.42   14.93
   3  -1   4  329.36   14.87
   3   1   4  330.00   14.66
   3  -1   4  317.35   15.11
  -3  -1  -4  351.13   14.48
  -3  -1  -4  339.75   15.01
   3  -1   5    8.02    1.74
  -3   1  -5    8.76    2.00
   3   1   5   10.65    2.46
   3  -1   5   10.92    2.39
   3   1   5    9.01    2.31
  -3  -1  -5    9.01    2.20
  -3  -1  -5    9.01    2.37
  -3  -1  -6  344.42   15.83
   3   1   6  351.55   15.85
   3  -1   6  329.89   15.63
  -3  -1  -6  342.47   15.28
   3  -1   6  316.46   14.35
  -3   1  -6  304.96   14.46
   3   1   6  325.51   15.45
   3   1   6  311.69   12.07
   3  -1   6  312.85   12.04
   3   1   6  314.19   12.04
   3  -1   6  313.71   12.05
  -3  -1  -7  141.02    9.13
   3  -1   7  135.18    5.59
   3   1   7  140.62    5.61
  -3   1  -7  148.89    8.75
   3   1   7  157.54    9.44
   3  -1   7  153.22    9.40
  -3  -1  -7  161.08    9.14
   3  -1   7  136.35    8.05
  -3   1  -7  140.35    7.90
   3   1   7  142.69    5.62
  -3   1  -7  135.23    5.61
   3  -1   7  139.07    5.61
   3   1   7  138.30    5.59
   3   1   7  141.48    5.60
   3  -1   7  132.75    5.50
   3  -1   7  127.03    5.53
   3  -1   7  145.18    5.63
   3   1   8  325.78   12.03
   3  -1   8  316.64   12.00
  -3   1  -8  312.21   15.74
   3   1   8  337.48   16.86
   3  -1   8  346.19   17.03
  -3  -1  -8  334.64   16.38
   3  -1   8  282.58   15.01
   3   1   8  322.18   12.01
   3  -1   8  313.74   11.94
  -3   1  -8  315.14   12.04
   3  -1   8  304.68   11.87
   3  -1   8  271.58   11.87
   3   1   8  314.76   11.98
   3  -1   8  312.31   12.04
   3   1   9   85.78    7.85
   3  -1   9   73.80    7.32
  -3  -1  -9   77.57    7.42
   3  -1   9   69.64    6.36
   3   1   9   71.74    7.20
   3   1   9   82.71    3.82
   3  -1   9   81.25    3.64
  -3   1  -9   79.40    3.71
   3   1   9   78.50    3.58
  -3   1  -9   70.75    6.59
   3  -1   9   80.94    3.67
   3   1   9   79.23    3.70
  -3  -1 -10   32.71    5.62
   3   1  10   35.99    2.45
   3   1  10   31.50    5.19
   3  -1  10   29.57    2.10
  -3  -1 -10   34.12    5.02
  -3   1 -10   30.91    4.90
  -3  -1 -10   35.54    5.94
   3  -1  10   32.65    2.05
   3   1  10   33.23    2.28
  -3   1 -10   31.25    2.18
   3   1  10   32.49    1.99
   3   1  10   24.55    5.08
   3  -1  10   33.15    5.23
  -3   1 -10   31.14    2.56
  -3  -1 -10   32.44    2.63
   3   1  11  163.29   11.19
  -3  -1 -11  150.30    6.34
  -3   1 -11  141.77    6.33
   3   1  11  150.08    6.18
  -3  -1 -11  152.71    6.50
  -3   1 -11  148.11    6.48
   3   1  11  153.63   11.12
   3  -1  11  124.98   10.32
   3  -1  11  151.87    6.28
   3   1  11  155.52    6.37
  -3   1 -12    1.11    1.84
  -3  -1 -12   -0.41    1.80
  -3  -1 -12    0.91    1.21
   3   1  12    1.58    0.86
  -3   1 -12    2.41    1.33
   3  -1  12    1.26    1.13
   3   1  12    1.59    1.36
   3  -1  12    1.19    1.78
  -3   1 -13    2.08    1.39
  -3  -1 -13    4.17    1.48
  -3  -1 -13    2.22    1.28
  -3   1 -13    4.77    1.16
  -3  -1 -13    2.80    1.13
   3   1  13    3.27    1.10
   3  -1  13    2.65    0.96
  -3   1 -14   68.02    2.99
  -3  -1 -14   69.64    2.99
   3   1  14   67.38    2.93
   3  -1  14   67.40    2.91
   3   1  14   66.31    3.06
  -3  -1 -14   69.09    2.97
  -3   1 -14   68.01    2.98
   3  -2 -14   12.89    0.93
   3  -2 -13   14.12    1.09
   3  -2 -13   13.79    1.16
   3   2 -13   10.93    1.07
   3  -2 -13   12.22    1.18
  -3  -2  13   11.87    0.98
   3  -2 -12   35.63    2.15
   3  -2 -12   35.92    2.27
   3  -2 -12   37.20    2.14
   3   2 -12   35.83    2.07
  -3  -2  12   35.77    1.88
  -3   2  12   34.38    2.05
   3  -2 -11  136.62    5.77
   3   2 -11  140.18    5.81
   3  -2 -11  136.90    5.89
  -3   2  11  132.57    5.56
   3   2 -11  129.38    5.67
   3   2 -11  143.18    5.85
   3  -2 -11  145.97    5.88
  -3  -2  11  136.69    5.66
  -3   2  11  140.11    5.77
  -3  -2  10  103.91    4.50
  -3   2  10  104.18    4.63
   3  -2 -10  106.91    9.35
   3  -2 -10   87.50    8.59
   3   2 -10   97.33    8.58
   3  -2 -10  104.60    4.65
   3   2 -10  109.27    4.72
  -3  -2  10   75.44    7.76
  -3   2  10   81.63    8.64
  -3   2  10  101.93    4.45
  -3  -2  10   85.11    9.06
   3  -2 -10  103.66    4.55
   3  -2 -10   98.09    8.89
  -3   2  10  106.82    4.54
  -3   2  10   97.93    8.10
   3   2 -10  102.24    4.55
   3   2 -10  108.42    4.72
   3  -2 -10  112.94    4.75
   3  -2 -10  107.20    4.84
   3  -2  -9   -0.50    3.78
  -3  -2   9    0.32    0.84
  -3   2   9   -0.28    1.25
   3  -2  -9    2.54    3.94
   3  -2  -9    1.62    1.33
   3   2  -9    0.13    1.48
   3   2  -9    1.82    3.17
   3  -2  -9    1.92    3.73
  -3  -2   9    1.75    2.99
  -3   2   9    1.37    0.95
  -3  -2   9   -1.60    4.36
  -3   2   9    4.13    4.40
  -3   2   9   -0.46    2.49
   3  -2  -9    0.60    1.48
  -3   2   9    0.32    1.32
   3   2  -9    1.74    1.19
   3  -2  -9    2.44    1.30
   3   2  -9    2.24    1.28
   3  -2  -9   -0.29    1.72
  -3   2   8   21.98    3.61
   3  -2  -8   18.81    4.83
   3  -2  -8   24.32    5.03
   3   2  -8   24.46    1.75
   3  -2  -8   22.26    4.52
   3   2  -8   27.10    4.33
   3  -2  -8   27.33    1.69
  -3  -2   8   28.16    4.84
  -3   2   8   26.75    1.68
  -3  -2   8   24.22    5.47
  -3   2   8   25.95    5.27
  -3   2   8   29.19    4.37
   3  -2  -8   30.60    1.84
   3   2  -8   26.54    1.67
   3   2  -8   25.68    1.84
   3  -2  -8   28.69    2.09
   3  -2  -7  180.80   10.22
  -3  -2   7  209.42   11.86
  -3   2   7  198.64    7.79
  -3  -2   7  200.25   12.12
  -3   2   7  216.82   11.86
   3  -2  -7  221.17   12.22
   3  -2  -7  198.37    7.74
   3   2  -7  196.47    7.75
   3   2  -7  201.03    7.92
   3   2  -7  191.54    7.69
   3  -2  -7  198.80   11.50
   3   2  -7  212.75   11.46
   3  -2  -7  190.16    7.69
   3   2  -6  100.85    4.24
   3  -2  -6  112.30    7.39
   3   2  -6  110.26    7.15
   3  -2  -6   96.63    4.22
   3  -2  -6   96.74    6.65
  -3  -2   6   94.56    6.39
  -3   2   6  113.80    4.40
  -3   2   6   98.33    6.18
  -3  -2   6  115.22    7.96
   3  -2  -6  103.12    7.47
   3  -2  -6  108.05    4.31
   3   2  -6  112.84    4.33
   3   2  -6  109.80    4.47
   3  -2  -6  115.34    4.50
   3   2  -6   90.83    4.24
   3  -2  -5  124.55    7.82
   3  -2  -5   95.45    6.59
   3  -2  -5   91.51    5.93
  -3   2   5  100.30    7.47
  -3  -2   5  107.35    6.55
  -3  -2   5  117.61    7.66
  -3   2   5  114.56    4.54
  -3   2   5  112.49    6.62
   3  -2  -5  106.46    6.92
   3   2  -5  122.42    6.98
   3  -2  -5  106.03    4.45
   3  -2  -5  125.37    7.69
   3   2  -5  112.61    4.59
   3  -2  -5  108.06    4.57
   3  -2  -5  111.88    4.51
   3  -2  -4  454.25   20.84
   3   2  -4  459.18   20.07
   3  -2  -4  468.28   20.14
  -3  -2   4  496.16   20.61
  -3   2   4  503.26   21.82
  -3  -2   4  500.73   21.67
  -3   2   4  487.97   20.77
   3  -2  -4  503.27   20.82
   3   2  -4  487.55   20.46
   3  -2  -4  482.61   18.17
   3  -2  -4  501.59   21.58
   3  -2  -4  530.18   21.84
   3  -2  -4  482.76   18.21
  -3   2   3 1127.19   45.57
   3  -2  -3 1214.80   45.23
   3   2  -3 1194.82   44.93
   3  -2  -3 1209.28   46.16
   3  -2  -3 1133.12   45.77
  -3  -2   3 1091.56   44.06
  -3   2   3 1163.73   45.85
   3  -2  -3 1108.04   44.93
  -3  -2   3 1185.23   45.36
   3   2  -3 1134.18   44.65
  -3   2   3 1204.09   46.37
   3  -2  -3 1262.74   46.49
  -3  -2   2 1507.39   58.86
   3  -2  -2 1617.64   60.24
   3   2  -2 1482.64   58.67
  -3  -2   2 1556.23   59.71
   3  -2  -2 1564.81   59.44
  -3   2   2 1591.85   60.05
  -3   2   2 1535.03   60.13
  -3   2   2 1579.85   60.14
   3   2  -2 1537.22   58.82
   3  -2  -2 1589.89   59.11
  -3   2   1   23.05    3.16
   3  -2  -1   24.90    2.29
   3   2  -1   22.15    2.06
  -3  -2   1   23.54    2.57
  -3   2   1   23.97    2.94
  -3   2   1   21.84    2.83
   3  -2  -1   17.33    2.74
  -3  -2   1   27.02    2.96
   3  -2  -1   23.06    2.68
   3   2  -1   26.13    2.17
   3  -2  -1   27.02    3.25
  -3   2   0   24.02    3.13
   3  -2   0   26.84    2.29
   3   2   0   26.83    2.22
   3   2   0   22.93    2.19
   3  -2   0   23.82    2.17
  -3   2   0   26.35    2.72
  -3  -2   0   19.79    2.72
  -3   2   0   24.47    2.97
   3  -2   0   25.21    3.02
   3  -2   0   23.00    2.84
   3   2   0   26.81    2.28
  -3  -2   0   24.08    1.87
   3  -2   0   25.59    3.08
   3   2   0   22.88    1.75
   3  -2   1   77.22    4.56
   3   2   1   81.67    4.70
   3   2   1   88.56    4.63
  -3   2  -1   90.02    5.05
  -3   2  -1   76.94    5.53
   3  -2   1   94.80    5.78
  -3  -2  -1   87.63    4.77
   3  -2   1   94.92    5.82
  -3   2  -2  297.72   13.94
   3   2   2  285.22   12.52
   3  -2   2  266.70   12.36
   3   2   2  292.43   12.68
   3  -2   2  324.89   14.24
  -3   2  -2  290.61   13.67
   3  -2   2  287.94   13.74
  -3  -2  -2  283.23   12.78
   3  -2   2  276.33   13.43
  -3   2  -3   83.83    6.04
   3  -2   3   78.26    4.79
   3  -2   3   78.26    4.96
   3   2   3   83.17    5.09
   3   2   3   85.30    5.38
   3  -2   3   91.60    6.32
  -3   2  -3   85.48    5.85
   3  -2   3   94.57    6.34
  -3  -2  -3   86.01    5.53
   3  -2   3   84.98    5.80
  -3   2  -4  377.79   17.21
  -3  -2  -4  442.27   18.69
   3  -2   4  431.77   18.80
   3   2   4  440.75   18.09
   3  -2   4  397.34   17.76
  -3   2  -4  437.78   18.98
   3  -2   4  437.52   19.44
   3  -2   4  471.79   19.63
  -3   2  -4  401.97   18.83
   3  -2   4  425.22   17.55
   3   2   4  457.40   18.61
   3   2   4  400.28   15.53
   3  -2   4  391.28   15.45
   3   2   4  418.25   15.58
   3  -2   4  408.39   15.47
   3   2   4  420.41   15.60
  -3  -2  -5  144.56    8.29
   3   2   5  127.96    7.42
   3  -2   5  118.58    7.21
  -3  -2  -5  123.64    6.79
  -3   2  -5  132.65    8.09
  -3   2  -5  123.96    8.02
   3   2   5  121.27    4.84
   3  -2   5  117.58    6.84
   3  -2   5  112.84    4.80
   3   2   5  132.60    7.85
  -3   2  -5  125.66    4.91
   3  -2   5  115.60    4.76
   3   2   5  119.15    4.96
   3  -2   5  119.15    4.85
   3   2   6   14.31    2.82
   3  -2   6   13.05    2.67
  -3   2  -6   15.53    3.25
  -3  -2  -6   14.98    2.51
   3  -2   6   15.35    2.51
  -3   2  -6   16.08    3.32
   3   2   6   18.72    1.20
   3   2   6   16.30    1.23
   3   2   6   14.55    3.05
  -3   2  -6   17.73    1.20
   3   2   6   14.11    1.02
  -3  -2  -6   11.65    2.88
   3  -2   6   16.44    1.16
   3   2   6   16.65    1.28
   3   2   7  272.89   14.25
   3  -2   7  299.23   14.59
  -3  -2  -7  275.93   13.79
  -3   2  -7  276.32   15.07
   3  -2   7  266.43   15.62
   3  -2   7  252.14   13.39
  -3   2  -7  300.43   14.85
   3   2   7  297.95   15.11
  -3   2  -7  267.49   10.63
   3  -2   7  272.58   10.61
   3   2   7  272.23   10.75
   3   2   7  272.71   10.51
   3  -2   7  270.41   10.49
  -3  -2  -7  282.32   15.13
  -3   2  -7  251.45   13.42
  -3  -2  -8  316.92   17.09
   3  -2   8  304.56   11.82
   3   2   8  297.31   11.84
  -3   2  -8  312.44   11.87
  -3  -2  -8  306.50   11.85
   3   2   8  325.13   16.29
   3  -2   8  277.15   15.70
  -3   2  -8  301.16   16.83
   3  -2   8  262.89   14.86
   3   2   8  322.80   16.80
  -3   2  -8  312.39   12.00
   3   2   8  315.34   11.94
   3  -2   8  296.53   11.97
   3   2   8  316.76   12.17
   3   2   9    3.59    1.25
   3  -2   9    2.48    0.90
  -3  -2  -9    3.73    4.14
  -3   2  -9   -1.06    4.10
   3  -2   9    2.07    1.32
   3   2   9    1.02    3.00
  -3  -2  -9    6.23    1.59
  -3   2  -9    4.56    1.57
   3   2   9    4.56    2.93
   3  -2   9    1.86    2.45
   3   2   9    3.01    1.19
  -3   2  -9    3.78    1.29
   3  -2   9    5.73    1.87
   3   2   9    1.88    2.29
  -3  -2 -10   69.23    7.74
   3  -2  10   67.41    3.08
   3   2  10   68.94    3.23
  -3   2 -10   65.08    7.70
   3   2  10   56.10    6.69
  -3   2 -10   63.36    3.35
   3   2  10   60.23    3.88
   3   2  10   68.35    3.23
  -3   2 -10   65.02    3.39
  -3  -2 -10   69.84    3.38
   3   2  10   58.12    6.33
  -3  -2 -11   73.56    3.59
  -3   2 -11   72.97    3.59
   3   2  11   74.75    4.10
  -3   2 -11   76.49    3.62
   3   2  11   75.52    3.45
   3   2  11   71.04    4.05
   3  -2  11   75.78    3.36
   3   2  11   77.10    3.49
  -3  -2 -12    1.55    1.27
   3   2  12    2.34    1.88
  -3   2 -12    2.18    1.18
   3   2  12    2.34    1.69
  -3  -2 -12    2.93    1.17
   3   2  12    3.24    0.95
   3  -2  12    3.29    0.82
  -3  -2 -13  127.56    5.14
  -3  -2 -13  133.52    5.30
   3   2  13  136.99    5.40
   3   2  13  131.87    5.42
   3   2  13  126.86    5.17
   3  -2  13  125.91    5.11
  -3   2 -13  130.78    5.34
  -3  -2 -13  138.68    5.34
  -3  -2 -14   24.70    1.33
  -3   2 -14   26.93    1.40
  -3  -2 -14   27.06    1.39
   3  -3 -13   22.58    1.19
   3  -3 -13   24.53    1.23
   3  -3 -13   20.22    1.24
   3  -3 -12    2.02    0.87
   3   3 -12    3.71    0.87
   3  -3 -12    2.86    1.15
   3  -3 -11   60.84    2.83
   3  -3 -11   58.88    2.83
   3   3 -11   59.89    2.84
  -3   3  11   55.12    2.67
   3   3 -10   12.38    1.48
   3  -3 -10   19.25    1.90
   3   3 -10   17.41    1.57
   3  -3 -10   15.66    1.68
  -3   3  10   16.47    1.43
  -3   3   9   16.64    1.52
  -3   3   9   18.48    1.77
   3  -3  -9   15.99    2.05
   3   3  -9   15.88    1.62
   3   3  -9   13.03    1.63
   3  -3  -9   18.58    1.85
   3  -3  -9   16.36    2.34
   3  -3  -8   19.68    5.05
   3  -3  -8   14.62    4.82
  -3  -3   8    8.74    3.97
  -3   3   8   15.95    1.62
  -3  -3   8   18.61    5.62
  -3   3   8   14.97    5.23
  -3   3   8   17.14    1.23
   3  -3  -8   20.75    2.19
  -3   3   8   10.57    3.67
  -3   3   8   17.73    1.87
   3   3  -8   15.84    1.64
   3   3  -8   17.82    1.75
   3  -3  -8   19.42    2.32
  -3   3   7   84.59    7.61
   3  -3  -7   83.10    8.19
   3  -3  -7   63.89    6.54
  -3   3   7   82.74    3.77
  -3   3   7   79.51    3.51
  -3  -3   7   80.74    8.25
   3  -3  -7   78.82    3.87
   3  -3  -7   71.95    7.56
  -3   3   7   68.90    7.10
  -3   3   7   78.30    3.79
   3   3  -7   80.65    3.69
   3   3  -7   80.32    3.81
   3  -3  -7   80.43    3.99
  -3   3   6  141.91   10.13
   3  -3  -6  139.55   10.09
   3  -3  -6  111.60    8.85
  -3   3   6  135.69   10.24
  -3   3   6  127.14    5.57
  -3   3   6  132.75    5.44
  -3  -3   6  122.04    9.96
   3  -3  -6  139.10    5.62
  -3   3   6  126.77    5.57
   3  -3  -6  111.39    9.27
   3   3  -6  130.50    5.52
   3   3  -6  140.31    5.71
   3  -3  -6  130.54    5.70
   3  -3  -6  138.93    5.66
  -3   3   5  156.24   10.30
   3  -3  -5  134.58    9.42
   3  -3  -5  145.46    9.51
   3   3  -5  110.87    7.81
  -3   3   5  136.61    9.90
   3  -3  -5  112.40    7.97
  -3  -3   5  126.43    8.67
  -3   3   5  141.00    5.56
  -3  -3   5  138.70    9.95
  -3   3   5  136.19    5.68
  -3   3   5  130.18    5.59
   3   3  -5  139.08    5.59
   3  -3  -5  132.99    5.72
   3   3  -5  133.44    5.71
   3  -3  -5  141.23    5.63
  -3   3   4  292.54   11.08
  -3   3   4  261.23   13.63
  -3   3   4  283.41   11.00
  -3  -3   4  292.17   15.43
   3  -3  -4  286.75   10.99
  -3   3   4  286.95   11.01
   3   3  -4  275.14   10.98
   3  -3  -4  269.76   14.90
   3   3  -4  245.90   13.31
  -3   3   4  306.76   15.77
   3  -3  -4  258.61   13.88
  -3  -3   4  272.23   14.44
   3  -3  -4  296.35   11.00
  -3   3   3   16.13    3.46
  -3   3   3   22.52    3.19
   3  -3  -3   20.77    1.30
   3   3  -3   20.80    1.38
   3   3  -3   23.41    1.36
  -3   3   3   20.87    1.38
  -3   3   3   15.69    3.32
   3  -3  -3   18.40    3.61
   3   3  -3   21.85    2.83
   3  -3  -3   14.78    2.90
  -3  -3   3   17.55    3.17
   3  -3  -3   24.06    1.32
   3   3  -3   22.09    1.37
   3  -3  -2   19.55    3.52
  -3  -3   2   19.50    2.74
   3  -3  -2   24.10    3.83
  -3   3   2   19.66    3.42
   3   3  -2   18.21    2.57
  -3  -3   2   19.91    3.38
   3  -3  -2   19.74    3.13
  -3   3   2   22.48    3.65
  -3   3   2   17.73    3.07
  -3   3   2   22.69    1.38
   3  -3  -2   21.04    1.26
  -3   3   2   21.07    1.29
   3   3  -2   19.17    1.28
   3   3  -2   20.99    1.37
  -3   3   2   22.11    1.38
   3   3  -2   21.47    1.38
   3  -3  -2   19.65    1.25
   3   3  -2   20.68    1.33
   3  -3  -2   22.01    1.23
   3   3  -2   20.82    1.29
   3  -3  -1  108.08    7.44
  -3  -3   1  100.23    6.87
  -3   3   1  109.05    7.41
   3  -3  -1  122.44    8.06
   3   3  -1  107.53    6.46
  -3  -3   1  110.57    7.63
   3  -3  -1  107.62    7.37
  -3   3   1  117.48    7.71
  -3   3   1  104.57    4.54
  -3   3   1  122.21    7.72
   3  -3  -1  106.14    4.44
   3   3  -1  102.81    4.48
  -3   3   1  109.91    4.51
   3   3  -1  115.71    4.59
   3   3  -1  111.68    4.61
  -3   3   1  118.15    4.59
   3   3  -1  107.39    4.55
   3   3  -1  102.22    4.46
   3   3  -1  116.96    4.56
   3  -3  -1  105.14    4.40
  -3  -3   0  125.88    7.86
   3   3   0  112.10    6.81
  -3   3   0  114.77    7.83
  -3  -3   0  127.28    8.19
   3  -3   0  117.49    7.82
  -3   3   0  117.13    8.00
   3  -3   0  114.22    4.75
  -3   3   0  113.99    4.80
   3   3   0  112.50    4.75
  -3   3   0  119.15    4.88
   3   3   0  123.02    4.98
   3   3   0  124.24    4.93
   3  -3   0  120.71    7.86
   3   3   0  123.01    4.90
   3   3   0  123.59    4.88
   3  -3   0  115.56    4.71
   3   3   0  114.97    4.81
  -3  -3  -1  459.84   21.14
  -3   3  -1  445.47   20.98
   3  -3   1  448.53   21.06
   3   3   1  446.90   17.13
  -3   3  -1  449.10   21.20
   3  -3   1  456.08   17.14
  -3   3  -1  459.74   17.19
   3   3   1  443.31   17.11
  -3   3  -1  461.87   17.20
   3   3   1  450.00   17.28
  -3   3  -1  490.94   21.48
   3  -3   1  491.18   21.14
   3  -3   1  455.76   17.17
   3   3   1  475.98   17.30
   3   3   1  444.00   17.24
   3   3   1  452.51   17.22
  -3   3  -2   28.37    3.62
  -3   3  -2   28.25    4.01
  -3  -3  -2   25.27    3.96
   3  -3   2   26.64    4.22
   3  -3   2   27.85    4.10
   3   3   2   30.11    1.49
   3  -3   2   25.44    1.42
  -3   3  -2   24.08    1.41
   3   3   2   23.07    1.31
   3   3   2   24.99    2.82
  -3   3  -2   27.80    1.49
   3   3   2   26.40    1.59
  -3   3  -2   26.25    1.59
   3  -3   2   28.27    3.84
  -3   3  -2   24.34    3.52
   3  -3   2   26.38    1.46
   3   3   2   24.90    1.55
   3   3   2   24.93    1.50
   3   3   2   26.61    1.52
  -3  -3  -3   79.13    6.95
   3  -3   3   73.36    6.84
  -3   3  -3   84.47    6.42
   3  -3   3   84.19    7.07
  -3   3  -3   78.16    6.77
   3   3   3   78.53    3.32
  -3   3  -3   77.25    6.99
   3  -3   3   71.03    5.38
   3   3   3   82.80    3.48
   3  -3   3   78.03    3.38
  -3   3  -3   78.97    3.40
   3   3   3   86.83    5.80
  -3   3  -3   79.05    3.53
  -3   3  -3   76.04    3.46
  -3   3  -3   92.96    6.42
  -3  -3  -3   77.87    5.53
   3  -3   3   84.83    6.54
   3   3   3   82.26    3.51
   3   3   3   76.09    3.49
   3  -3   3   83.38    3.44
  -3  -3  -4   54.41    6.28
   3  -3   4   57.18    6.20
  -3   3  -4   56.82    6.07
  -3   3  -4   51.31    5.23
   3  -3   4   58.97    6.38
   3   3   4   59.82    2.64
  -3   3  -4   67.51    6.59
   3   3   4   58.42    2.75
   3  -3   4   46.44    4.51
  -3   3  -4   55.33    2.58
   3   3   4   58.22    5.04
   3  -3   4   53.61    2.60
  -3   3  -4   61.75    2.80
  -3   3  -4   61.91    2.75
  -3  -3  -4   54.88    4.98
   3  -3   4   54.84    5.61
   3   3   4   58.93    2.78
   3   3   4   57.15    2.78
   3  -3   4   56.18    2.68
  -3  -3  -5  116.22    9.58
  -3   3  -5  116.92    9.05
  -3   3  -5  107.32    8.36
  -3   3  -5  117.08    9.19
   3  -3   5   94.15    7.10
   3   3   5  117.57    4.84
   3   3   5  131.23    8.40
   3  -3   5  109.77    4.77
  -3   3  -5  115.81    4.77
  -3   3  -5  116.95    4.94
  -3   3  -5  119.13    4.95
  -3  -3  -5  123.63    8.30
   3   3   5  122.41    5.03
   3  -3   5  116.45    4.91
  -3  -3  -6  263.00   16.42
  -3   3  -6  238.42   14.93
  -3   3  -6  242.84   14.18
  -3   3  -6  263.73   15.42
   3   3   6  262.75   10.17
   3   3   6  271.99   14.39
  -3   3  -6  256.81   10.23
  -3   3  -6  261.04   10.27
  -3  -3  -6  269.37   14.43
   3   3   6  256.44   10.33
   3  -3   6  257.39   10.24
   3   3   6  266.27   10.44
  -3   3  -7  156.57   11.79
   3  -3   7  167.26   12.73
  -3   3  -7  170.62   11.63
  -3   3  -7  193.64   12.53
   3   3   7  179.21    7.29
  -3   3  -7  185.16    7.41
  -3   3  -7  169.45    7.27
   3  -3   7  181.35    7.41
   3   3   7  187.23    7.69
   3   3   7  179.68    7.55
  -3  -3  -7  192.91   11.96
   3   3   7  196.81   11.83
   3   3   8  363.38   17.73
  -3   3  -8  325.21   12.48
  -3   3  -8  299.57   12.26
  -3  -3  -8  303.22   18.29
  -3   3  -8  298.34   17.68
   3  -3   8  305.50   18.41
  -3   3  -8  283.58   16.88
   3  -3   8  324.20   12.43
   3   3   8  322.02   12.65
   3   3   8  328.70   12.59
  -3  -3  -8  317.82   17.30
   3   3   9  275.05   10.47
  -3  -3  -9  274.86   10.48
   3  -3   9  247.02   10.42
   3   3   9  255.13   10.67
   3   3   9  260.68   10.61
  -3   3  -9  270.13   10.52
   3   3  10  152.54    6.28
   3   3  10  147.52    6.50
   3   3  10  158.76    6.62
  -3  -3 -10  154.15    6.38
  -3   3 -10  149.19    6.36
   3   3  11   10.94    1.75
   3   3  11   11.01    1.21
  -3  -3 -11   10.11    1.60
   3   3  11    9.33    1.74
  -3   3 -11   10.13    1.32
   3   3  12    4.33    1.16
   3   3  12    5.64    0.90
  -3  -3 -12    5.49    1.15
   3   3  12    5.16    1.20
   3   3  12    3.15    1.24
  -3   3 -12    4.92    1.01
  -3  -3 -13   11.91    0.88
  -3   3 -13    9.92    0.83
  -3  -3 -13   11.29    0.88
   3  -4 -11   26.52    1.37
   3   4 -11   24.65    1.42
   3  -4 -11   27.52    1.37
   3  -4 -11   26.76    1.47
  -3   4  10    2.71    0.89
   3  -4 -10    4.46    1.00
   3  -4 -10    4.95    1.29
   3  -4 -10    4.16    1.12
  -3   4   9   19.35    1.51
   3   4  -9   17.51    1.52
   3  -4  -9   18.82    1.61
   3  -4  -9   18.16    1.83
   3  -4  -9   19.59    1.81
  -3   4   8   13.10    1.52
  -3   4   8   13.70    1.14
   3   4  -8   13.79    1.53
   3  -4  -8   14.55    1.70
   3  -4  -8   14.96    1.94
  -3   4   8   12.30    1.64
  -3   4   7   45.41    2.34
  -3   4   7   43.49    2.58
  -3   4   7   43.86    2.70
   3   4  -7   46.12    2.70
   3  -4  -7   47.96    2.85
   3  -4  -7   46.92    2.74
   3  -4  -6    8.95    1.88
   3  -4  -6    4.53    1.80
  -3  -4   6    4.40    4.84
   3  -4  -6    6.41    2.09
  -3   4   6    4.71    1.87
  -3   4   6    8.53    1.21
   3   4  -6    8.06    1.59
  -3   4   6   11.38    4.56
   3  -4  -6   13.40    4.81
  -3   4   5   86.38    8.87
   3  -4  -5   79.76    8.06
   3  -4  -5   66.96    7.87
  -3   4   5   85.17    3.86
  -3  -4   5   79.67    8.81
   3  -4  -5   87.78    4.17
  -3   4   5   86.92    4.18
   3  -4  -5   80.94    4.10
   3   4  -5   83.30    4.08
   3  -4  -5   86.34    4.02
   3  -4  -5   82.35    4.09
   3  -4  -4   41.43    6.39
  -3   4   4   43.00    6.94
   3  -4  -4   41.33    6.23
   3  -4  -4   37.12    5.25
  -3  -4   4   42.07    5.88
  -3  -4   4   30.28    6.42
  -3   4   4   46.40    2.52
  -3   4   4   40.97    2.64
   3  -4  -4   48.08    2.83
  -3   4   4   43.96    2.87
   3   4  -4   47.06    2.83
   3   4  -4   43.58    2.70
   3  -4  -4   46.28    2.66
   3  -4  -4   48.03    2.87
   3  -4  -3   48.11    6.73
   3  -4  -3   42.49    5.66
  -3  -4   3   41.06    6.15
  -3   4   3   52.62    2.77
  -3   4   3   52.30    2.86
   3  -4  -3   50.88    2.97
   3   4  -3   47.17    2.88
   3  -4  -3   45.50    6.11
   3  -4  -3   50.36    2.62
   3  -4  -3   51.56    3.03
   3  -4  -2  445.11   23.23
  -3   4   2  438.08   22.47
  -3  -4   2  457.57   22.79
   3  -4  -2  441.91   22.39
  -3   4   2  411.22   21.51
  -3   4   2  471.39   17.76
   3  -4  -2  460.41   17.66
   3   4  -2  467.02   17.77
  -3   4   2  470.15   17.77
   3   4  -2  464.66   17.84
  -3   4   2  488.98   24.08
   3  -4  -2  497.06   22.86
   3  -4  -2  456.82   17.55
  -3  -4   1  103.31    8.29
   3  -4  -1  103.69    9.55
  -3   4   1  110.50    9.02
  -3  -4   1  117.08    9.53
   3  -4  -1  113.01    9.19
  -3   4   1  112.89    8.92
  -3   4   1  125.18    5.27
   3  -4  -1  118.30    5.18
  -3   4   1  119.68    5.35
   3   4  -1  121.17    5.24
  -3   4   1  128.67    5.28
  -3   4   1  127.70   10.29
   3  -4  -1  125.36    9.37
   3  -4  -1  119.79    5.26
  -3  -4   0  124.31    9.31
  -3   4   0  109.49    8.98
  -3  -4   0  112.48    9.69
   3  -4   0  115.41    9.50
  -3   4   0  120.67    9.61
  -3   4   0  128.09    5.39
   3   4   0  120.92    5.19
   3  -4   0  127.26    5.34
  -3   4   0  125.76    5.53
   3   4   0  131.55    5.37
  -3   4   0  135.24   10.33
   3  -4   0  135.01    9.48
   3  -4   0  127.71    5.44
  -3  -4  -1   36.06    5.44
  -3   4  -1   29.62    5.16
   3  -4   1   27.50    6.10
  -3  -4  -1   49.07    6.95
   3  -4   1   30.85    5.66
  -3   4  -1   35.30    5.76
  -3   4  -1   43.89    2.43
   3   4   1   40.46    2.22
   3  -4   1   39.93    2.40
  -3   4  -1   44.07    2.60
   3   4   1   38.34    2.31
  -3   4  -1   42.36    2.55
   3  -4   1   47.42    6.17
  -3   4  -1   38.57    5.99
   3  -4   1   42.13    2.65
  -3  -4  -2    8.23    4.33
  -3   4  -2   11.09    3.70
   3  -4   2   12.00    4.81
  -3  -4  -2    1.67    4.41
   3  -4   2   10.70    4.86
  -3   4  -2    8.59    1.37
  -3   4  -2    4.30    4.01
   3   4   2    7.21    1.26
   3  -4   2    6.98    1.47
  -3   4  -2    9.31    1.75
   3   4   2    6.97    1.34
  -3   4  -2    6.16    1.53
   3  -4   2   10.16    4.06
  -3   4  -2    8.49    3.81
   3  -4   2    8.67    1.85
  -3   4  -3   51.54    6.27
  -3  -4  -3   38.17    6.28
   3  -4   3   37.15    6.61
  -3  -4  -3   42.62    6.83
   3  -4   3   40.68    6.82
  -3   4  -3   45.14    2.43
   3   4   3   42.75    2.50
  -3   4  -3   47.15    6.88
  -3   4  -3   42.09    2.73
   3  -4   3   39.39    2.47
   3   4   3   45.72    2.73
  -3   4  -3   46.07    2.69
  -3   4  -3   44.07    2.26
   3  -4   3   34.37    5.49
   3  -4   3   47.10    2.77
  -3   4  -4   73.60    3.66
   3   4   4   88.31    3.85
   3   4   4   80.79    3.54
   3  -4   4   75.19    3.70
  -3   4  -4   81.79    3.90
  -3  -4  -4   82.49    3.58
  -3   4  -4   78.46    3.77
  -3   4  -4   80.41    3.88
  -3  -4  -4   76.55    8.49
   3  -4   4   69.73    8.26
  -3   4  -4   65.49    7.34
  -3  -4  -4   76.08    8.71
   3  -4   4   77.77    8.60
   3   4   4   82.23    4.35
   3   4   4   82.05    3.81
   3  -4   4   88.81    3.99
  -3  -4  -5  201.74   13.62
  -3  -4  -5  184.98   13.29
  -3   4  -5  177.56   12.51
   3  -4   5  170.09   13.04
  -3   4  -5  213.60   13.77
  -3   4  -5  182.19    7.51
   3   4   5  190.36    7.50
  -3   4  -5  192.13    7.69
  -3   4  -5  198.42    7.73
  -3   4  -5  191.67    7.65
  -3  -4  -5  184.52    7.51
  -3  -4  -5  177.74    7.52
   3  -4   5  200.95    7.76
   3   4   5  189.22    8.09
   3   4   5  182.76    7.66
  -3   4  -6   56.32    2.93
  -3  -4  -6   56.65    2.95
  -3  -4  -6   56.58    2.70
   3  -4   6   59.51    3.25
   3   4   6   50.65    3.07
   3   4   6   59.03    3.70
  -3  -4  -6   59.39    2.82
  -3   4  -6   61.95    3.01
  -3   4  -6   53.77    2.90
  -3  -4  -7   80.31    3.63
   3  -4   7   72.14    3.75
  -3  -4  -7   74.01    3.47
   3   4   7   80.97    4.12
   3   4   7   71.64    3.66
  -3   4  -7   75.29    3.59
  -3  -4  -8   28.25    1.98
   3   4   8   28.49    1.90
   3   4   8   20.74    1.92
   3   4   8   21.50    2.41
   3  -4   8   22.28    1.96
  -3  -4  -8   23.64    1.80
  -3   4  -8   20.37    1.75
  -3  -4  -9    9.93    1.43
  -3  -4  -9    9.27    1.32
   3   4   9    8.59    1.78
   3   4   9    9.65    1.76
  -3   4  -9    7.54    1.24
  -3  -4 -10    8.99    1.21
   3   4  10    9.11    1.09
   3   4  10    8.02    1.42
  -3  -4 -10    9.61    1.12
   3   4  10   10.82    1.43
  -3   4 -10    7.91    1.10
  -3  -4 -11    9.04    0.89
   3   4  11    8.99    0.87
   3   4  11    7.16    1.04
  -3  -4 -11    7.04    0.83
   3   4  11    7.33    1.01
  -3   4 -11    7.94    0.88
   3  -5  -9   21.28    1.14
   3   5  -9   18.49    1.18
   3  -5  -9   19.86    1.14
   3   5  -8    2.34    0.97
   3  -5  -8    4.64    1.02
   3  -5  -8    3.21    0.84
   3   5  -7   13.06    1.34
   3  -5  -7   12.55    1.38
  -3   5   7   12.50    1.23
  -3   5   7   10.01    1.03
   3  -5  -7   11.29    1.13
   3  -5  -7   11.76    1.31
   3   5  -6   31.55    2.10
  -3   5   6   31.29    1.83
  -3   5   6   34.92    1.98
   3  -5  -6   32.24    2.07
   3  -5  -6   31.14    1.85
   3  -5  -6   35.93    2.10
  -3   5   6   34.57    2.07
  -3   5   5   39.18    2.22
  -3   5   5   34.66    2.04
   3  -5  -5   42.38    2.39
   3  -5  -5   36.79    2.39
  -3   5   5   34.98    2.36
   3  -5  -5   35.35    2.29
   3  -5  -4   11.56    1.68
   3  -5  -4   10.75    1.76
  -3   5   4   10.42    1.88
  -3   5   4   11.42    1.53
  -3   5   4   13.64    1.40
  -3   5   3   75.59    3.87
   3  -5  -3   78.68    3.69
  -3   5   3   77.66    3.63
  -3   5   3   75.96    3.63
   3  -5  -2   34.27    2.34
   3  -5  -2   35.04    2.57
  -3   5   2   32.36    2.22
  -3   5   2   34.67    2.28
   3  -5  -1  138.68    5.94
  -3   5   1  142.53    6.20
  -3   5   1  144.50    5.94
   3  -5  -1  140.66    6.12
   3   5   0  237.68    9.80
   3  -5   0  235.12    9.55
  -3   5   0  259.23    9.84
  -3   5   0  244.17    9.71
  -3   5   0  238.47    9.56
   3  -5   0  249.79    9.72
   3   5   1    2.38    1.53
  -3   5  -1    1.75    1.52
   3  -5   1    2.11    1.46
  -3   5  -1    3.71    2.03
  -3   5  -1    0.55    1.21
   3   5   1    1.60    2.20
   3  -5   1    3.57    1.85
   3  -5   2   12.31    1.55
  -3   5  -2   13.24    2.19
  -3  -5  -2   11.88    1.50
   3   5   2   13.70    2.37
   3  -5   2   16.72    2.02
   3   5   2   13.86    1.85
  -3   5  -2   14.86    1.77
  -3   5  -3   13.33    1.94
   3  -5   3   14.57    1.95
  -3  -5  -3   16.14    1.60
  -3   5  -3   15.29    1.67
  -3   5  -4   53.56    2.79
  -3  -5  -4   46.90    2.40
   3  -5   4   50.22    2.78
  -3   5  -4   49.61    2.59
  -3   5  -5   75.88    3.45
   3   5   5   82.26    3.36
  -3  -5  -5   67.95    3.20
   3  -5   5   75.42    3.52
   3   5   6   25.43    1.62
   3  -5   6   26.52    1.78
   3   5   7   33.48    1.66
   3  -5   7   23.82    1.62
   3   5   8    9.35    0.95
   3   5   9   12.31    0.84
   3  -6  -4    3.40    0.71
  -3   6   4    4.42    0.67
  -3   6   3   28.10    1.58
   3  -6  -3   26.47    1.53
   3  -6  -3   32.65    1.60
   3   6  -3   30.85    1.64
  -3   6   2   85.64    3.46
   3  -6  -2   86.66    3.44
   3   6  -2   83.98    3.49
   3  -6  -1    3.79    0.90
   3  -6  -1    4.38    1.01
  -3   6   1    3.32    0.87
   3   6  -1    3.35    0.95
  -3   6   0    6.83    1.14
  -3   6   0    7.24    0.94
   3  -6   0    6.19    0.97
   3  -6   0    7.83    1.10
   3  -6   1   42.59    2.06
  -3   6  -1   38.60    1.95
  -3  -6  -2    1.40    0.61
   3  -6   2    0.04    0.86
  -3   6  -2    1.73    0.95
  -4   0  14   22.89    1.40
   4   0 -14   20.92    1.52
   4   0 -14   20.50    1.31
  -4   0  13  161.71    6.49
   4   0 -13  160.37    6.55
   4   0 -13  155.16    6.44
  -4   0  12  194.45    7.87
   4   0 -12  190.32    7.97
   4   0 -11   10.33    2.30
   4   0 -11   11.05    1.17
  -4   0  10   30.64    5.73
  -4   0  10   31.49    5.85
   4   0 -10   35.28    2.01
   4   0 -10   30.12    5.30
   4   0 -10   29.95    2.66
  -4   0   9   81.99    7.60
   4   0  -9   72.70    7.02
   4   0  -9   75.75    3.43
   4   0  -9   69.79    3.45
   4   0  -9   76.70    3.77
  -4   0   8   33.27    4.95
  -4   0   8   28.23    4.96
   4   0  -8   35.83    2.14
   4   0  -8   36.86    2.04
   4   0  -8   36.31    2.13
   4   0  -8   35.77    3.96
   4   0  -8   40.04    5.05
   4   0  -7   15.97    0.99
  -4   0   7   12.06    3.02
   4   0  -7   19.93    1.25
   4   0  -7   15.03    1.14
   4   0  -7   17.80    2.75
   4   0  -7   19.88    3.31
   4   0  -7   17.66    1.27
   4   0  -6  111.83    6.91
  -4   0   6   94.54    5.55
   4   0  -6  109.13    7.54
   4   0  -6  101.32    4.18
   4   0  -6   98.06    4.19
   4   0  -6  102.85    6.35
  -4   0   6  106.11    6.84
   4   0  -6  100.50    4.23
  -4   0   5  192.14    8.83
   4   0  -5  203.10   10.02
   4   0  -5  192.84   10.67
   4   0  -5  185.64    7.41
  -4   0   5  197.47   10.44
  -4   0   5  209.47   10.00
   4   0  -4   73.80    4.61
   4   0  -4   58.46    4.95
  -4   0   4   63.10    5.02
  -4   0   4   61.74    4.34
   4   0  -3 1032.99   39.22
   4   0  -3 1015.19   40.09
  -4   0   3 1050.00   39.96
  -4   0   3  953.94   38.80
   4   0  -2  816.01   31.17
  -4   0   2  808.09   31.73
  -4   0   2  790.96   30.66
   4   0  -2  827.19   32.15
   4   0  -2  749.75   31.95
  -4   0   1  170.75    7.09
  -4   0   1  189.47    8.35
   4   0  -1  171.64    7.60
   4   0  -1  178.10    8.71
   4   0  -1  163.49    8.63
  -4   0   0 2683.79  101.13
   4   0   0 2722.19  100.91
   4   0   0 2799.20  102.07
   4   0   0 2621.10  102.05
  -4   0  -1  149.03    7.41
  -4   0  -1  140.80    6.36
   4   0   1  146.87    6.80
   4   0   1  143.25    7.66
   4   0   1  150.78    7.64
   4   0   2  698.98   25.65
   4   0   2  713.01   25.81
  -4   0  -2  718.50   25.02
   4   0   3 1978.17   76.75
   4   0   3 2021.85   76.96
  -4   0  -3 2021.04   75.79
  -4   0  -3 1988.41   76.44
   4   0   4 2112.12   78.70
   4   0   4 2109.48   78.95
  -4   0  -4 1984.66   77.10
  -4   0  -4 2021.99   78.31
  -4   0  -5  617.93   25.52
  -4   0  -5  555.02   23.58
   4   0   5  611.37   22.25
   4   0   5  583.89   22.24
   4   0   5  584.31   22.25
   4   0   6    9.47    2.79
   4   0   6    9.13    1.75
  -4   0  -6    8.79    2.60
   4   0   6    8.40    0.87
   4   0   6    8.13    0.87
   4   0   6   10.16    0.92
   4   0   6    9.69    0.91
   4   0   6    8.42    0.84
   4   0   7  312.29   15.57
  -4   0  -7  301.70   15.05
   4   0   7  272.30   13.21
   4   0   7  270.71   14.93
   4   0   7  283.76   10.76
   4   0   7  269.94   10.75
   4   0   7  274.66   10.76
   4   0   7  272.93   10.77
  -4   0  -7  290.50   14.88
   4   0   7  279.60   10.78
  -4   0  -8   14.79    4.22
   4   0   8   19.58    4.05
   4   0   8   13.83    1.41
   4   0   8   12.95    3.71
  -4   0  -8   14.96    1.24
   4   0   8   12.80    1.20
   4   0   8   14.60    1.61
  -4   0  -8   13.47    4.07
   4   0   8   12.22    1.34
  -4   0  -9    1.96    3.59
   4   0   9    2.47    1.27
  -4   0  -9    5.66    4.12
   4   0   9    2.67    1.56
   4   0   9    2.12    2.97
   4   0   9    4.94    3.08
   4   0   9    3.29    0.95
  -4   0  -9    2.20    1.01
   4   0   9    2.43    1.78
   4   0  10   71.10    3.72
  -4   0 -10   64.23    7.64
  -4   0 -10   64.58    7.68
   4   0  10   82.38    3.84
   4   0  10   77.16    4.08
  -4   0 -10   78.56    3.63
   4   0  10   73.69    3.54
   4   0  10   77.55    7.79
  -4   0 -11   16.52    2.46
   4   0  11   20.01    2.04
  -4   0 -11   20.00    1.65
   4   0  11   15.23    2.37
   4   0  11   16.92    1.42
   4   0  11   20.10    1.88
   4   0  12   91.76    4.62
  -4   0 -12   97.79    4.38
  -4   0 -12   96.09    4.61
   4   0  12  106.98    4.45
   4   0  13    6.57    1.48
   4   0  13    6.82    1.13
  -4   0 -13    7.98    1.13
  -4   0 -13    5.79    1.52
  -4   0 -14   96.03    3.98
  -4   0 -14   96.45    4.03
   4   0  14  100.96    4.00
  -4   1  14    7.14    0.92
  -4  -1  14    8.05    0.84
   4   1 -14    8.06    1.06
   4  -1 -14    8.78    1.04
   4   1 -14    7.19    0.85
   4  -1 -14    8.48    0.91
  -4  -1  13   39.39    2.14
  -4   1  13   40.04    2.20
   4   1 -13   39.85    2.12
   4  -1 -13   41.13    2.15
   4   1 -13   42.99    2.37
   4  -1 -13   40.98    2.35
   4  -1 -12   56.96    2.77
  -4  -1  12   56.90    2.88
  -4   1  12   57.46    3.02
   4   1 -12   57.71    2.91
   4  -1 -12   61.38    3.15
   4   1 -12   58.83    3.15
   4  -1 -11   29.14    2.02
   4  -1 -11   32.22    1.99
   4  -1 -11   29.03    2.50
   4   1 -11   31.97    2.61
  -4  -1  11   26.98    1.98
  -4   1  11   26.19    2.23
   4   1 -10   49.43    5.81
   4  -1 -10   41.82    5.76
  -4  -1  10   42.09    6.06
  -4  -1  10   46.10    6.92
  -4   1  10   44.39    6.60
  -4   1  10   42.05    6.62
   4  -1 -10   65.09    7.68
   4   1 -10   55.91    7.31
   4  -1 -10   55.36    3.20
   4   1 -10   57.15    3.32
   4  -1 -10   62.66    7.17
   4   1 -10   52.47    2.95
   4  -1 -10   55.00    2.87
   4  -1  -9   76.57    7.07
   4  -1  -9   74.13    7.88
   4   1  -9   78.93    8.11
   4  -1  -9   72.89    3.66
   4   1  -9   76.49    3.67
  -4  -1   9   65.40    7.24
  -4   1   9   70.98    7.50
  -4  -1   9   58.04    6.98
  -4   1   9   67.50    7.12
   4   1  -9   67.26    6.67
   4  -1  -9   82.06    7.71
   4   1  -9   67.61    3.48
   4  -1  -9   70.33    3.48
   4  -1  -9   70.63    3.34
   4  -1  -8   62.15    5.94
   4  -1  -8   58.05    2.84
   4   1  -8   52.91    2.91
   4  -1  -8   64.42    7.17
   4   1  -8   61.06    6.60
   4  -1  -8   59.10    2.93
   4   1  -8   59.42    2.97
  -4   1   8   61.80    6.79
  -4  -1   8   60.67    6.38
  -4  -1   8   55.59    6.25
  -4   1   8   51.78    5.93
  -4   1   8   52.40    4.90
   4   1  -8   59.95    5.57
   4  -1  -8   57.85    2.53
   4  -1  -8   73.92    6.86
  -4   1   8   54.83    5.13
   4   1  -8   57.71    2.73
   4  -1  -8   60.15    2.87
   4   1  -8   58.49    2.86
   4  -1  -8   56.10    2.76
   4   1  -7   30.23    3.70
   4  -1  -7   35.44    4.19
   4  -1  -7   35.51    1.82
   4   1  -7   31.43    1.82
   4  -1  -7   37.03    4.66
   4   1  -7   41.40    4.75
   4  -1  -7   33.76    1.79
   4   1  -7   31.24    1.76
  -4  -1   7   25.84    4.16
  -4  -1   7   29.39    4.27
   4  -1  -7   29.08    1.72
  -4   1   7   28.39    3.57
  -4   1   7   20.71    3.56
   4  -1  -7   32.68    1.54
  -4   1   7   32.37    3.80
   4  -1  -7   39.25    4.71
   4   1  -7   29.98    1.71
   4  -1  -7   32.59    1.78
   4   1  -7   31.39    1.75
   4  -1  -7   29.93    1.67
   4  -1  -6  132.11    7.89
   4   1  -6  110.41    4.64
   4  -1  -6  114.19    4.65
   4  -1  -6  125.73    8.20
   4   1  -6  127.80    8.14
   4  -1  -6  113.42    4.63
   4   1  -6  114.82    4.63
  -4   1   6  109.67    7.76
  -4   1   6  120.24    7.42
   4  -1  -6  113.58    4.65
  -4   1   6  112.75    7.20
  -4  -1   6  111.89    7.57
   4  -1  -6  110.84    4.46
   4  -1  -6  125.56    7.89
   4   1  -6  122.83    7.13
   4   1  -6  109.01    4.71
   4   1  -6  112.84    4.62
   4  -1  -6  111.17    4.63
   4  -1  -6  109.01    4.57
  -4   1   5  143.93    8.69
  -4  -1   5  134.15    8.64
  -4   1   5  150.34    8.08
  -4   1   5  149.14    8.42
  -4  -1   5  145.57    8.45
   4  -1  -5  156.59    8.95
   4  -1  -5  144.14    5.73
   4   1  -5  140.51    5.72
   4   1  -5  166.96    9.06
   4   1  -5  148.51    7.72
   4  -1  -5  155.73    8.70
   4  -1  -5  166.14    8.83
   4  -1  -5  142.74    5.70
  -4   1   4  405.18   17.81
  -4   1   4  427.71   18.71
  -4  -1   4  415.91   18.37
   4   1  -4  457.60   19.13
   4  -1  -4  445.02   19.03
   4   1  -4  430.84   17.51
   4  -1  -4  454.65   18.84
  -4   1   4  405.74   18.73
   4  -1  -4  385.85   16.93
   4  -1  -4  427.53   18.80
   4   1  -3  262.24   10.77
   4  -1  -3  274.41   12.26
   4   1  -3  250.23   12.08
   4  -1  -3  266.80   12.31
  -4   1   3  242.96   12.05
   4  -1  -3  248.45   10.99
  -4   1   3  230.40   10.90
  -4   1   3  257.05   12.29
  -4  -1   3  259.02   11.76
   4   1  -2   71.00    3.38
   4  -1  -2   75.46    4.79
  -4   1   2   66.57    4.66
   4  -1  -2   66.69    4.17
  -4   1   2   67.96    4.08
  -4  -1   2   79.60    3.66
   4  -1  -2   58.24    3.05
  -4   1   2   71.80    5.04
  -4  -1   2   69.79    4.39
   4  -1  -2   80.68    4.97
   4   1  -2   78.31    4.86
  -4   1   1  554.65   22.97
   4  -1  -1  618.69   23.27
  -4   1   1  551.41   22.52
   4  -1  -1  531.09   22.05
   4  -1  -1  596.63   23.24
   4   1  -1  595.08   23.42
   4   1  -1  549.32   23.43
   4  -1  -1  576.16   23.45
   4  -1  -1  596.26   23.46
  -4   1   0  538.27   21.51
   4  -1   0  480.78   20.95
   4   1   0  508.79   21.10
   4  -1   0  502.63   20.99
   4   1   0  480.96   20.91
   4  -1   0  534.53   21.17
  -4   1   0  506.58   20.34
  -4   1   0  505.67   20.26
   4  -1   0  492.44   20.27
   4  -1   0  523.14   20.91
  -4   1  -1   67.31    4.88
   4  -1   1   62.53    4.52
   4   1   1   60.86    4.52
   4   1   1   65.73    4.51
   4  -1   1   70.45    4.61
   4   1   1   71.37    3.99
  -4   1  -1   66.43    4.11
   4  -1   1   69.26    4.78
  -4  -1  -1   65.19    3.68
   4  -1   1   60.34    4.24
  -4   1  -1   65.11    3.50
   4  -1   1   63.54    4.35
  -4   1  -2   57.87    4.41
   4   1   2   57.35    4.29
   4  -1   2   55.33    4.24
   4   1   2   57.26    3.87
  -4  -1  -2   58.43    3.60
   4  -1   2   53.46    4.20
   4  -1   2   51.91    4.15
  -4   1  -3   87.03    5.65
  -4  -1  -3   87.20    4.44
   4   1   3   91.45    5.87
   4  -1   3   76.57    5.61
   4   1   3   90.88    5.55
  -4   1  -3   82.20    5.84
  -4  -1  -3   95.88    5.23
   4  -1   3   90.89    6.07
   4  -1   3   82.25    5.55
   4   1   4  481.43   19.80
   4   1   4  497.92   20.27
   4  -1   4  495.32   20.20
  -4   1  -4  474.69   19.63
  -4   1  -4  465.47   20.21
  -4  -1  -4  474.50   19.25
   4  -1   4  460.38   20.27
  -4  -1  -5  418.37   18.36
   4   1   5  436.45   18.53
   4  -1   5  380.70   18.03
  -4   1  -5  395.00   18.29
  -4  -1  -5  418.92   17.58
   4  -1   5  340.46   15.83
  -4   1  -5  404.95   17.44
   4   1   5  427.52   18.27
   4  -1   5  396.99   14.64
   4  -1   5  379.32   14.62
   4   1   5  388.05   14.62
   4  -1   5  374.56   14.64
   4   1   5  384.15   14.72
  -4  -1  -6  184.61   10.19
   4  -1   6  149.28    6.33
   4   1   6  163.74    6.36
   4   1   6  164.01    9.88
   4  -1   6  177.55   10.12
  -4   1  -6  159.09    9.82
  -4  -1  -6  177.43    9.57
   4  -1   6  140.08    7.88
  -4   1  -6  147.42    8.63
   4   1   6  164.82    9.73
   4   1   6  158.99    6.37
  -4   1  -6  158.25    6.31
   4   1   6  155.55    6.34
   4  -1   6  146.76    6.36
   4   1   6  160.22    6.35
   4  -1   6  163.03    6.36
   4  -1   6  158.19    6.31
   4  -1   6  162.85    6.38
   4   1   6  172.28    6.48
   4   1   7  247.20    9.75
  -4   1  -7  244.59   13.36
  -4  -1  -7  276.92   14.35
   4  -1   7  246.17    9.74
  -4  -1  -7  246.00   13.26
  -4   1  -7  247.91   13.95
   4   1   7  275.25   14.27
   4   1   7  247.37    9.76
   4   1   7  275.49   14.28
   4  -1   7  270.16   14.18
  -4   1  -7  252.88    9.72
   4   1   7  243.26    9.73
   4  -1   7  246.98    9.69
   4   1   7  246.96    9.74
   4  -1   7  246.06    9.74
   4  -1   7  247.22    9.76
   4   1   7  257.73    9.87
  -4  -1  -8  203.44   13.10
  -4   1  -8  212.39   12.67
   4  -1   8  214.05    8.67
   4   1   8  229.57    8.74
  -4  -1  -8  219.54   12.79
  -4   1  -8  219.73   13.47
   4   1   8  231.38   13.42
   4  -1   8  221.13    8.71
   4   1   8  213.89    8.76
   4   1   8  247.78   13.68
   4  -1   8  243.31   13.58
  -4   1  -8  214.64    8.66
   4   1   8  217.62    8.69
   4  -1   8  212.14    8.60
   4  -1   8  215.21    8.82
   4   1   8  221.64    8.89
   4  -1   9   26.81    1.89
   4   1   9   26.90    2.06
  -4   1  -9   30.93    4.93
  -4   1  -9   25.58    5.67
  -4  -1  -9   32.74    5.37
   4  -1   9   27.32    2.18
   4   1   9   29.72    2.43
   4   1   9   29.75    5.14
   4  -1   9   33.22    5.02
  -4   1  -9   29.70    1.90
   4   1   9   26.75    1.86
   4   1   9   25.35    2.74
   4  -1  10   14.42    1.51
   4   1  10   14.25    1.75
  -4   1 -10   15.28    4.29
  -4  -1 -10   11.85    4.94
  -4   1 -10   14.69    5.49
  -4  -1 -10   11.19    4.31
   4  -1  10   14.03    1.87
   4   1  10   15.63    2.04
   4   1  10   13.45    2.65
   4  -1  10   14.06    2.00
  -4   1 -10   15.52    1.58
   4   1  10   12.47    1.45
  -4  -1 -10   16.17    2.22
  -4   1 -10   12.93    2.14
   4   1  10   14.23    4.10
   4  -1  10   11.62    3.89
  -4  -1 -11   23.86    2.43
  -4   1 -11   28.23    2.49
   4  -1  11   27.26    2.01
   4   1  11   22.51    2.82
  -4  -1 -11   25.33    1.87
  -4   1 -11   26.33    1.87
   4   1  11   22.82    1.75
   4  -1  11   26.78    1.89
   4   1  11   25.55    2.08
   4   1  12   18.32    2.28
   4  -1  12   20.56    1.51
   4   1  12   18.95    1.70
  -4  -1 -12   19.72    1.55
  -4   1 -12   18.04    1.55
   4   1  12   17.97    1.39
  -4   1 -12   14.45    2.00
  -4  -1 -12   17.15    2.00
  -4  -1 -13    3.44    1.28
  -4   1 -13    4.56    1.34
   4   1  13    5.75    1.57
  -4  -1 -13    4.29    1.15
  -4  -1 -13    5.34    1.00
  -4   1 -13    5.95    1.07
   4  -1  13    5.06    0.96
   4   1  13    5.66    1.10
   4   1  14    9.79    1.14
  -4   1 -14   10.59    0.92
  -4  -1 -14    8.98    0.89
  -4  -1 -14    7.76    0.95
  -4   1 -14    9.48    0.95
   4  -1  14   10.72    0.84
   4   1  14   10.77    0.86
   4   1  14    8.15    1.06
   4  -2 -14   28.33    1.36
   4  -2 -13   26.54    1.58
   4   2 -13   25.06    1.54
   4  -2 -13   30.46    1.62
   4  -2 -13   30.31    1.53
   4  -2 -12   60.00    2.87
   4  -2 -12   59.44    2.90
   4  -2 -12   63.14    2.89
   4   2 -12   64.08    2.95
  -4  -2  12   58.59    2.71
   4  -2 -11    5.65    1.72
  -4   2  11    5.22    0.81
   4  -2 -11    7.34    1.56
   4   2 -11    5.27    1.58
   4   2 -11    5.25    1.33
  -4  -2  11    6.31    0.99
  -4   2  11    5.10    1.35
   4  -2 -10  390.25   14.26
  -4   2  10  328.07   13.99
   4  -2 -10  370.26   14.19
   4   2 -10  380.22   14.22
   4  -2 -10  368.73   14.03
  -4   2  10  365.10   14.14
   4   2 -10  384.97   14.38
  -4  -2  10  379.80   14.18
  -4   2  10  364.87   14.21
   4  -2  -9   55.45    6.90
   4  -2  -9   52.90    6.78
  -4  -2   9   42.88    6.36
  -4   2   9   50.80    2.59
  -4  -2   9   41.55    6.63
  -4   2   9   48.62    7.06
   4   2  -9   49.82    6.03
   4  -2  -9   49.92    2.89
   4   2  -9   54.65    2.97
   4  -2  -9   56.61    6.77
   4  -2  -9   54.14    2.80
  -4   2   9   55.11    5.89
   4   2  -9   55.12    2.98
   4  -2  -9   58.74    3.01
   4  -2  -9   58.88    3.20
   4  -2  -8   33.98    5.75
   4  -2  -8   36.92    5.92
  -4  -2   8   40.33    6.05
  -4   2   8   35.26    1.98
  -4  -2   8   40.48    6.08
   4   2  -8   34.32    2.20
   4  -2  -8   33.53    5.05
   4  -2  -8   35.08    2.19
   4   2  -8   30.05    4.89
   4  -2  -8   40.89    2.23
  -4   2   8   33.11    4.56
   4  -2  -8   40.21    2.39
   4   2  -8   36.94    2.37
   4  -2  -8   34.09    2.49
   4  -2  -7  146.45   10.33
  -4  -2   7  145.77   10.12
  -4   2   7  134.31   10.37
  -4   2   7  144.55    5.93
  -4  -2   7  143.52   10.16
   4  -2  -7  136.63    5.85
   4   2  -7  145.41    5.91
   4  -2  -7  150.95    9.81
   4   2  -7  148.37    9.50
   4  -2  -7  146.13    5.89
  -4   2   7  148.72    9.69
   4  -2  -7  148.22   10.23
   4   2  -7  145.02    6.10
   4  -2  -7  154.08    6.10
   4  -2  -7  148.39    6.08
   4  -2  -6  129.74    5.12
   4   2  -6  128.11    5.12
   4  -2  -6  135.95    8.65
   4   2  -6  137.58    8.37
  -4   2   6  125.57    9.04
  -4   2   6  102.39    7.39
  -4   2   6  131.91    5.23
  -4  -2   6  131.72    9.02
   4  -2  -6  131.19    5.14
   4  -2  -6  134.25    9.10
   4  -2  -6  129.44    5.31
   4  -2  -6  122.87    5.13
   4   2  -6  113.95    5.13
   4  -2  -5   24.74    3.34
   4   2  -5   34.37    3.65
   4   2  -5   30.82    1.59
   4  -2  -5   30.34    1.59
   4  -2  -5   27.37    3.26
  -4  -2   5   36.60    4.30
   4  -2  -5   33.53    1.65
  -4   2   5   32.32    4.34
  -4   2   5   31.26    1.72
  -4   2   5   31.02    3.65
   4  -2  -5   33.57    1.65
   4  -2  -5   41.04    4.51
   4   2  -5   31.38    1.72
   4   2  -5   35.71    1.82
   4  -2  -5   31.43    1.75
   4   2  -5   30.57    1.62
   4  -2  -4  805.59   30.79
   4   2  -4  763.78   30.31
   4  -2  -4  731.13   30.25
  -4   2   4  754.52   31.49
  -4   2   4  719.12   30.70
  -4   2   4  732.93   27.48
  -4  -2   4  705.61   30.99
   4  -2  -4  732.19   27.40
   4  -2  -4  792.28   31.55
   4   2  -4  732.81   27.55
   4   2  -4  737.71   27.53
   4   2  -4  760.63   27.56
   4  -2  -4  700.94   27.44
  -4   2   3   92.97    6.67
   4  -2  -3  102.19    6.55
  -4  -2   3  103.41    6.06
   4  -2  -3   89.78    5.50
  -4   2   3   99.73    6.98
   4  -2  -3  105.76    4.29
   4  -2  -3  114.94    7.31
   4  -2  -3  116.92    6.67
   4   2  -3  102.87    6.19
   4   2  -3  113.28    4.45
   4  -2  -3  106.89    4.33
  -4   2   2  720.08   28.83
   4  -2  -2  687.39   28.27
  -4   2   2  691.54   28.04
  -4  -2   2  672.63   27.51
   4  -2  -2  615.77   26.95
  -4   2   2  674.54   28.28
   4  -2  -2  673.98   25.21
  -4   2   2  653.67   25.23
   4   2  -2  701.65   27.44
   4  -2  -2  684.19   27.59
   4   2  -2  715.29   25.35
   4  -2  -2  669.09   25.24
  -4   2   1   98.89    6.85
   4  -2  -1  125.89    6.34
   4   2  -1  120.91    6.06
  -4   2   1  100.50    6.38
  -4   2   1  102.88    6.35
  -4  -2   1  100.68    5.86
   4  -2  -1   98.28    6.74
  -4  -2   1   92.81    6.05
   4  -2  -1   97.28    5.90
  -4  -2   0  117.06    7.09
   4  -2   0  119.71    7.70
  -4   2   0  121.15    6.90
  -4   2   0  130.85    7.39
   4  -2   0  126.50    7.17
  -4  -2   0  124.11    6.10
   4   2   0  142.67    6.91
   4   2   0  127.13    6.92
   4  -2   0  131.85    6.88
   4  -2   0  130.93    6.92
  -4   2  -1   96.60    6.48
  -4   2  -1   85.10    5.04
   4  -2   1  105.24    6.78
  -4   2  -1   82.96    5.77
   4  -2   1   95.07    5.98
   4  -2   1   85.25    3.55
   4   2   1   86.06    4.63
  -4  -2  -1   90.34    5.10
   4   2   1   81.80    5.24
   4  -2   1   84.08    5.27
   4  -2   2  691.56   28.60
   4   2   2  752.43   28.91
  -4   2  -2  727.75   30.12
  -4   2  -2  697.06   29.46
   4  -2   2  714.41   29.66
   4  -2   2  676.49   26.31
   4   2   2  742.31   28.36
  -4  -2  -2  759.35   28.87
   4   2   2  700.73   26.44
   4  -2   2  720.47   26.32
   4  -2   3  191.64    9.74
   4   2   3  195.64    9.79
  -4   2  -3  197.64   10.80
  -4   2  -3  195.37   10.50
  -4   2  -3  198.58   10.69
   4  -2   3  198.08   10.73
   4   2   3  182.56    7.39
   4  -2   3  184.57    7.36
   4   2   3  206.77    9.78
  -4  -2  -3  207.34   10.14
   4   2   3  183.25    7.47
   4   2   3  196.84    7.43
   4  -2   4  299.82   13.81
   4   2   4  289.52   13.79
  -4   2  -4  292.27   14.73
   4  -2   4  302.99   14.99
  -4   2  -4  275.03   14.42
   4   2   4  304.91   13.95
   4  -2   4  276.79   10.92
   4   2   4  277.22   10.96
   4  -2   4  283.99   10.92
   4   2   4  277.10   10.98
   4   2   4  302.29   11.08
  -4  -2  -4  320.93   14.44
   4  -2   4  272.07   14.31
  -4  -2  -5   92.85    6.61
   4   2   5   72.21    3.20
   4   2   5   84.34    6.05
   4  -2   5   81.15    5.94
  -4   2  -5   81.86    6.55
   4  -2   5   74.84    6.85
  -4   2  -5   74.44    6.28
   4  -2   5   69.75    3.28
   4   2   5   75.92    5.94
   4   2   5   78.26    3.39
  -4   2  -5   74.00    3.29
   4   2   5   76.23    3.39
   4  -2   5   75.23    3.22
   4   2   5   77.82    3.24
   4  -2   5   75.23    3.27
   4  -2   5   77.28    3.35
   4   2   5   85.98    3.51
   4  -2   6   38.94    1.93
   4   2   6   37.21    1.95
  -4  -2  -6   40.50    4.84
   4   2   6   38.30    4.53
   4  -2   6   34.60    4.22
   4  -2   6   43.22    5.72
  -4   2  -6   32.84    4.98
  -4   2  -6   32.06    4.60
   4   2   6   49.16    5.22
  -4   2  -6   39.92    2.04
   4   2   6   38.95    1.99
   4  -2   6   40.01    1.99
   4  -2   6   41.20    1.99
   4  -2   6   41.23    2.19
   4   2   6   41.60    2.33
  -4  -2  -7  239.12   13.88
   4  -2   7  227.74    9.09
   4   2   7  220.11    9.09
   4   2   7  249.89   13.31
   4  -2   7  230.19   13.03
  -4   2  -7  243.92   14.07
  -4   2  -7  219.97   12.94
   4   2   7  232.37    9.34
   4   2   7  259.39   13.80
  -4   2  -7  246.30    9.24
   4   2   7  240.27    9.26
   4  -2   7  219.91    9.08
   4  -2   7  244.22    9.33
   4   2   7  242.70    9.50
  -4   2  -8  869.16   40.19
  -4  -2  -8  958.49   42.20
   4  -2   8  956.77   36.43
   4   2   8  992.94   36.47
  -4   2  -8  891.90   42.05
   4   2   8  995.12   42.16
   4   2   8  993.55   41.47
   4  -2   8  914.90   41.12
  -4   2  -8  964.49   36.56
   4   2   8  981.88   36.57
   4   2   8 1005.89   36.75
   4  -2   8  988.09   36.62
  -4  -2  -9  206.98   13.30
   4  -2   9  203.29    7.83
   4   2   9  191.88    7.86
  -4   2  -9  163.14   12.63
   4  -2   9  187.58    7.90
   4   2   9  197.80   12.82
   4  -2   9  195.80    8.14
   4   2   9  193.63    8.33
  -4   2  -9  193.61    7.96
   4   2   9  203.90    8.00
   4   2   9  175.04   11.83
  -4  -2  -9  201.07    7.93
  -4   2  -9  192.43    7.94
   4  -2   9  197.85   12.33
   4  -2  10    6.05    1.56
   4   2  10    6.78    2.41
  -4   2 -10    3.58    1.27
   4   2  10    5.47    1.42
   4  -2  10    6.94    1.04
   4   2  10    7.19    1.32
  -4  -2 -10    5.81    1.71
  -4   2 -10    6.10    1.72
  -4  -2 -11   43.74    2.52
  -4   2 -11   43.18    2.43
   4   2  11   46.35    3.06
   4   2  11   42.87    3.04
   4   2  11   45.23    2.40
   4  -2  11   44.27    2.23
   4   2  11   46.95    2.40
  -4  -2 -12   41.86    2.15
  -4  -2 -12   43.40    2.21
  -4   2 -12   42.84    2.24
   4   2  12   39.38    2.51
   4   2  12   40.56    2.57
   4   2  12   43.74    2.14
   4  -2  12   38.75    1.97
   4   2  13  139.99    5.24
   4   2  13  146.37    5.22
  -4  -2 -13  132.46    5.10
   4   2  13  143.54    5.04
  -4   2 -13  143.51    5.14
  -4  -2 -13  147.54    5.13
   4  -3 -13    3.27    0.55
   4  -3 -12   25.60    1.55
   4  -3 -12   27.61    1.52
  -4   3  11   87.16    3.80
   4   3 -11   95.13    4.04
   4  -3 -11   97.85    4.07
   4  -3 -10   35.08    2.19
  -4   3  10   32.62    1.90
   4   3 -10   36.71    2.21
   4  -3  -9   44.15    2.58
  -4   3   9   40.81    2.51
   4   3  -9   42.42    2.55
   4  -3  -9   41.00    2.59
  -4   3   9   41.24    2.26
  -4  -3   8   30.36    5.62
  -4   3   8   29.61    2.04
  -4  -3   8   24.32    5.97
   4  -3  -8   34.06    2.42
  -4   3   8   32.70    2.44
  -4   3   8   41.29    5.37
   4   3  -8   30.70    1.97
   4   3  -8   30.19    2.31
   4  -3  -8   34.71    2.35
   4  -3  -8   31.65    2.72
   4  -3  -8   33.84    1.99
  -4   3   7   -0.50    3.49
  -4  -3   7    8.02    4.65
  -4  -3   7   -2.67    4.55
  -4   3   7    1.61    1.16
  -4   3   7    6.67    5.04
   4  -3  -7    2.83    1.75
  -4   3   7    0.50    2.82
  -4   3   7    0.05    1.77
   4   3  -7    2.21    1.12
  -4   3   7    1.96    0.77
   4   3  -7    1.07    1.45
   4  -3  -7    1.96    1.53
   4  -3  -7    3.19    2.03
  -4   3   6  228.43   13.87
   4  -3  -6  182.33   11.82
  -4   3   6  216.28   14.07
  -4   3   6  214.65    8.45
  -4   3   6  214.87    8.63
  -4  -3   6  195.85   13.21
   4  -3  -6  217.91    8.65
  -4   3   6  215.05    8.66
   4   3  -6  210.17    8.47
   4  -3  -6  217.65    8.73
   4  -3  -6  220.70    8.74
   4  -3  -5   18.69    3.93
  -4  -3   5   19.67    4.72
  -4   3   5   30.47    1.72
  -4   3   5   24.02    5.15
  -4   3   5   30.27    1.96
  -4   3   5   21.41    3.46
   4  -3  -5   31.82    2.13
  -4   3   5   30.51    2.23
   4   3  -5   28.13    1.75
   4  -3  -5   32.41    2.07
   4  -3  -5   31.58    2.21
   4  -3  -5   32.94    1.91
   4  -3  -4  233.11   13.55
  -4   3   4  232.56   14.09
  -4  -3   4  228.08   12.79
  -4   3   4  236.43   13.10
  -4   3   4  255.07    9.92
  -4  -3   4  246.21   14.25
   4   3  -4  236.71    9.85
  -4   3   4  254.56    9.81
   4  -3  -4  244.94    9.90
   4   3  -4  257.70    9.97
   4  -3  -4  261.49    9.87
   4  -3  -4  257.90    9.78
   4  -3  -3  338.48   16.84
   4  -3  -3  304.33   16.25
  -4   3   3  310.91   16.46
  -4  -3   3  282.45   15.33
   4  -3  -3  289.55   14.97
  -4   3   3  307.80   15.96
  -4   3   3  329.50   12.41
  -4   3   3  324.57   12.36
  -4   3   3  327.22   12.34
   4   3  -3  312.20   12.41
   4   3  -3  323.47   12.41
   4   3  -3  315.92   12.38
   4  -3  -3  322.81   12.31
   4  -3  -3  315.02   12.24
   4  -3  -2  159.98   10.29
   4  -3  -2  145.79    9.91
  -4   3   2  158.50    9.96
  -4  -3   2  151.45    9.50
  -4   3   2  146.25    9.74
   4  -3  -2  145.25    9.10
  -4   3   2  157.21    9.91
   4  -3  -2  177.25    6.54
  -4   3   2  172.66    6.58
   4   3  -2  163.34    6.59
  -4   3   2  160.67    6.56
   4   3  -2  151.45    6.64
   4   3  -2  157.45    6.60
   4   3  -2  170.85    6.60
   4  -3  -2  162.94    6.50
   4  -3  -2  164.62    6.48
   4   3  -2  152.59    6.57
   4  -3  -1   44.12    4.89
  -4  -3   1   32.87    3.75
  -4   3   1   33.28    4.30
   4  -3  -1   36.97    4.78
  -4  -3   1   38.85    4.46
   4  -3  -1   29.56    3.94
  -4   3   1   28.76    3.95
  -4   3   1   34.97    4.49
   4  -3  -1   41.75    1.99
  -4   3   1   41.30    2.00
   4   3  -1   36.35    2.06
  -4   3   1   38.65    2.05
   4   3  -1   34.74    2.13
   4   3  -1   39.79    2.05
   4   3  -1   40.28    2.04
   4   3  -1   41.67    2.04
   4  -3  -1   41.09    1.97
   4  -3  -1   37.06    1.92
  -4  -3   0  178.13   10.05
   4  -3   0  178.32   10.99
  -4   3   0  168.02   10.30
  -4  -3   0  166.61   10.36
   4  -3   0  172.67   10.21
  -4   3   0  170.75   10.60
   4  -3   0  175.63    6.86
  -4   3   0  174.61    6.87
   4   3   0  165.99    6.79
   4   3   0  178.03    6.98
   4   3   0  173.38    7.09
  -4   3   0  173.23    6.97
   4  -3   0  183.47   10.69
   4   3   0  169.94    6.95
   4   3   0  176.19    6.92
   4  -3   0  177.02    6.87
   4  -3   0  167.95    6.82
  -4  -3  -1   93.15    7.01
   4  -3   1   90.03    7.48
  -4   3  -1   81.42    6.82
   4  -3   1   93.58    7.30
   4   3   1   87.21    3.84
  -4   3  -1   91.29    7.38
   4   3   1   94.64    4.05
  -4   3  -1   90.87    4.05
   4   3   1  106.20    4.23
   4  -3   1   96.12    3.92
  -4   3  -1   92.24    3.91
   4   3   1   87.59    3.78
   4  -3   1   87.94    7.16
   4  -3   1   88.00    3.85
   4   3   1   97.14    4.02
   4   3   1   98.12    3.99
   4   3   1   89.69    4.00
  -4  -3  -2  227.01   12.46
  -4   3  -2  193.39   11.73
   4  -3   2  230.52   12.48
   4  -3   2  211.98    8.08
  -4   3  -2  200.14    8.03
   4   3   2  214.35    8.24
  -4   3  -2  205.78    8.06
   4  -3   2  230.33   12.31
   4  -3   2  186.69    7.97
   4   3   2  205.79    8.20
   4   3   2  208.63    8.19
   4   3   2  213.46    8.15
   4  -3   2  207.22    8.09
  -4  -3  -3   75.49    7.07
   4  -3   3   69.56    7.25
  -4   3  -3   75.89    6.68
  -4   3  -3   80.46    6.77
   4  -3   3   68.86    6.93
  -4   3  -3   74.12    7.05
   4  -3   3   75.23    3.33
   4   3   3   69.88    5.25
  -4   3  -3   75.11    3.23
   4   3   3   74.27    3.49
  -4   3  -3   73.66    3.29
  -4   3  -3   76.49    3.49
  -4   3  -3   65.06    5.99
   4  -3   3   73.39    6.74
   4   3   3   79.36    3.53
   4   3   3   74.60    3.48
   4   3   3   73.78    3.40
   4  -3   3   72.42    3.39
  -4   3  -4   16.55    4.01
  -4  -3  -4   18.98    4.88
  -4   3  -4   14.85    3.63
   4  -3   4    9.91    4.05
  -4   3  -4   19.33    4.54
   4  -3   4   19.15    1.58
   4   3   4   20.82    3.20
  -4   3  -4   19.75    1.26
  -4   3  -4   18.79    1.31
  -4   3  -4   20.77    1.64
   4  -3   4   16.72    1.66
   4   3   4   17.42    1.71
   4   3   4   18.34    1.80
   4   3   4   17.15    1.63
   4  -3   4   21.59    4.36
  -4  -3  -4   13.52    2.78
  -4  -3  -5   31.51    4.53
  -4   3  -5   31.05    5.08
  -4   3  -5   34.03    5.14
  -4  -3  -5   43.25    6.44
   4  -3   5   43.03    6.43
  -4   3  -5   40.24    6.09
   4   3   5   33.64    4.26
   4  -3   5   33.08    2.23
  -4   3  -5   39.51    2.08
   4  -3   5   35.24    1.96
   4  -3   5   39.20    2.44
   4   3   5   37.25    2.56
   4   3   5   37.91    2.65
   4   3   5   35.43    2.37
  -4  -3  -6  288.58   15.13
  -4  -3  -6  261.36   16.34
  -4   3  -6  256.85   15.60
  -4   3  -6  258.54   15.29
   4  -3   6  266.37   16.50
  -4   3  -6  265.49   15.83
   4   3   6  279.87   14.77
  -4   3  -6  271.74   10.75
   4   3   6  279.71   10.79
   4  -3   6  279.32   10.90
   4   3   6  267.62   11.01
  -4  -3  -7  174.57   11.65
  -4  -3  -7  196.96   13.59
  -4   3  -7  155.79   11.96
  -4   3  -7  153.48   11.71
   4  -3   7  149.69   12.56
  -4   3  -7  157.39   11.97
  -4   3  -7  187.02    7.46
  -4   3  -7  177.76    7.48
   4   3   7  185.77   11.55
   4   3   7  189.88    7.49
   4   3   7  181.18    7.74
   4  -3   7  185.76    7.62
  -4   3  -8   68.68    3.32
  -4   3  -8   73.17    3.39
   4   3   8   68.48    6.85
  -4   3  -8   59.57    6.99
   4   3   8   67.15    3.87
   4  -3   8   62.19    3.70
   4  -3   9  202.02    8.36
  -4   3  -9  220.20    8.52
   4   3   9  214.67    8.73
   4  -3   9  201.64    8.59
   4   3   9  212.44    8.79
   4   3   9  220.27    8.55
  -4   3 -10   48.20    2.50
   4   3  10   48.33    2.95
   4   3  10   43.50    2.96
  -4  -3 -10   45.53    2.69
   4   3  10   50.85    2.57
  -4   3 -11   24.41    1.61
   4   3  11   23.72    1.92
   4   3  11   23.88    1.95
  -4  -3 -11   21.75    1.73
   4   3  11   24.65    1.80
   4   3  11   25.05    1.60
  -4  -3 -12   18.82    1.18
  -4   3 -12   15.24    1.16
   4   3  12   20.43    1.21
   4   3  12   18.14    1.45
   4   3  12   16.28    1.37
  -4  -3 -12   18.26    1.25
   4  -4 -11   18.66    1.19
   4  -4 -10   11.04    1.14
  -4   4  10    9.68    0.97
   4  -4 -10   11.18    1.27
  -4   4   9    3.25    0.93
   4  -4  -9    3.24    1.33
   4   4  -9    4.88    1.24
   4  -4  -9    4.38    1.18
   4   4  -9    3.98    1.16
   4  -4  -9    3.91    1.43
  -4   4   8   21.58    1.60
  -4   4   8   18.27    1.24
   4  -4  -8   20.97    1.96
  -4   4   8   19.52    1.83
   4   4  -8   21.17    1.84
   4  -4  -8   19.23    1.79
   4   4  -8   21.90    1.73
   4  -4  -8   22.15    1.98
  -4   4   7   13.78    1.19
  -4   4   7   12.22    1.54
  -4   4   7   13.10    1.86
   4   4  -7   13.44    1.82
   4  -4  -7   13.58    1.74
   4   4  -7   13.39    1.75
   4  -4  -7   12.97    1.60
   4  -4  -7   14.88    1.93
  -4   4   6   12.42    1.57
  -4   4   6   11.00    1.24
  -4   4   6   11.48    2.02
   4   4  -6   10.48    1.83
   4  -4  -6   12.33    1.77
   4   4  -6   10.32    1.70
   4  -4  -6   12.15    1.88
   4  -4  -6    9.34    1.90
   4  -4  -5   53.91    6.95
  -4   4   5   44.21    7.09
   4  -4  -5   46.28    6.21
  -4   4   5   48.19    2.53
  -4  -4   5   41.08    6.47
  -4   4   5   48.55    2.77
   4  -4  -5   53.51    3.06
  -4   4   5   46.06    3.02
   4   4  -5   46.24    2.93
   4  -4  -5   44.40    2.86
   4  -4  -5   52.40    2.92
   4  -4  -5   44.62    2.85
   4  -4  -4   10.66    4.73
  -4   4   4    9.43    4.92
   4  -4  -4    5.06    4.05
  -4  -4   4    4.32    4.98
   4  -4  -4    6.22    1.95
   4   4  -4    3.76    1.71
  -4   4   4    5.73    1.27
   4  -4  -4    3.99    1.67
   4  -4  -4    4.08    1.69
   4  -4  -4    3.97    1.83
   4  -4  -3    6.30    4.49
  -4  -4   3   17.28    4.47
  -4  -4   3   21.28    5.41
  -4   4   3   20.75    1.68
   4  -4  -3   15.42    2.13
  -4   4   3   16.22    2.19
   4   4  -3   19.09    2.01
   4  -4  -3   16.54    5.08
  -4   4   3   15.39    5.73
   4  -4  -3   17.01    2.07
   4  -4  -3   17.58    1.88
   4  -4  -2  236.55   15.07
  -4   4   2  240.04   14.34
  -4  -4   2  228.96   14.18
   4  -4  -2  203.90   13.46
  -4   4   2  258.84   14.46
  -4   4   2  262.66    9.94
   4  -4  -2  252.90    9.87
  -4   4   2  258.69    9.98
   4   4  -2  247.19    9.98
  -4   4   2  256.25    9.88
  -4   4   2  254.60   15.82
   4  -4  -2  240.64   14.61
   4   4  -2  219.78    9.76
   4  -4  -2  243.55    9.86
   4  -4  -2  254.39    9.77
  -4   4   1   42.86    5.68
   4  -4  -1   49.23    7.16
  -4  -4   1   33.39    5.64
   4  -4  -1   34.84    5.39
  -4   4   1   48.97    2.80
  -4   4   1   38.05    5.85
   4  -4  -1   47.31    2.85
  -4   4   1   51.90    3.08
   4   4  -1   49.73    2.93
  -4   4   1   49.84    2.71
   4  -4  -1   41.71    6.31
  -4   4   1   51.80    7.16
   4   4  -1   48.09    3.14
   4   4  -1   45.16    2.75
   4  -4  -1   47.09    2.57
  -4   4   0   24.32    4.64
   4  -4   0   26.24    5.84
  -4  -4   0   31.46    5.57
   4  -4   0   21.52    4.76
  -4   4   0   31.46    5.66
  -4   4   0   30.35    2.18
   4  -4   0   30.55    2.24
  -4   4   0   28.06    2.33
   4   4   0   26.27    2.24
  -4   4   0   29.65    2.15
   4  -4   0   24.46    5.62
  -4   4   0   24.63    5.65
   4   4   0   28.79    2.60
   4   4   0   25.42    2.13
  -4   4  -1   11.12    3.50
  -4  -4  -1   11.59    3.95
  -4   4  -1   12.09    3.68
  -4  -4  -1   11.26    5.02
   4  -4   1   14.10    4.45
  -4   4  -1   11.44    1.65
  -4   4  -1   12.45    4.66
   4   4   1   12.17    1.80
   4  -4   1   12.09    1.95
  -4   4  -1   14.47    2.07
   4   4   1   12.89    1.83
   4  -4   1   13.84    4.47
  -4   4  -1    7.78    4.30
   4  -4   1   12.93    2.10
   4   4   1   13.40    2.24
  -4  -4  -2   94.56    8.77
   4  -4   2   96.84    9.68
  -4   4  -2   77.79    7.94
  -4  -4  -2   93.59    9.37
   4  -4   2   90.56    8.74
  -4   4  -2   98.71    4.58
  -4   4  -2  107.35    9.36
   4  -4   2  102.52    4.62
  -4   4  -2  103.78    4.59
   4   4   2  100.44    4.71
  -4   4  -2   99.30    4.66
  -4   4  -2  101.16    8.59
   4  -4   2  100.15    8.99
   4   4   2   96.53    4.59
   4   4   2  105.21    4.83
   4  -4   2  106.71    4.72
  -4  -4  -3   75.55    8.09
   4  -4   3   73.54    8.86
  -4   4  -3   57.74    6.81
  -4  -4  -3   78.73    8.55
   4  -4   3   69.25    8.01
  -4   4  -3   74.99    3.71
  -4   4  -3   80.23    8.73
   4  -4   3   71.77    3.76
  -4   4  -3   76.55    3.72
   4   4   3   77.48    3.89
  -4   4  -3   77.33    3.81
   4  -4   3   85.60    8.32
   4   4   3   80.74    4.16
   4   4   3   80.88    4.06
   4   4   3   74.76    3.76
   4  -4   3   77.17    3.99
  -4   4  -4   -2.92    4.81
   4   4   4    4.39    1.89
   4  -4   4    3.28    1.70
  -4   4  -4    5.24    1.68
  -4   4  -4    1.92    1.61
  -4  -4  -4   -1.12    4.40
  -4   4  -4    5.85    3.41
  -4  -4  -4   -0.59    4.61
   4  -4   4    0.57    4.53
   4  -4   4    3.24    2.05
   4   4   4    0.83    2.22
   4   4   4    3.46    2.22
  -4   4  -5   82.60    7.98
  -4   4  -5   82.95    9.09
  -4   4  -5   88.07    4.00
   4   4   5   96.56    4.08
   4  -4   5   87.48    4.38
   4   4   5   86.50    4.49
   4   4   5   83.47    4.23
  -4   4  -5   89.74    4.17
  -4   4  -5   88.11    4.02
  -4  -4  -6  185.92    7.92
   4   4   6  219.89    8.19
   4  -4   6  205.68    8.27
   4   4   6  196.97    8.22
   4   4   6  208.52    8.34
  -4   4  -6  204.78    8.17
  -4   4  -6  200.53    8.11
  -4  -4  -7   76.77    3.44
   4   4   7   79.03    3.56
   4  -4   7   73.38    3.75
   4   4   7   75.59    3.97
  -4  -4  -7   71.66    3.32
   4   4   7   73.14    3.65
   4   4   7   74.98    3.89
  -4   4  -7   71.02    3.44
  -4   4  -7   75.53    3.48
  -4  -4  -8    8.87    1.37
   4   4   8    8.72    1.58
   4   4   8   10.89    1.34
   4  -4   8    7.43    1.66
  -4  -4  -8    9.75    1.30
   4   4   8   10.59    2.03
   4   4   8    8.82    1.87
  -4   4  -8    9.93    1.19
  -4  -4  -9    3.58    1.11
   4   4   9    2.92    1.19
  -4  -4  -9    2.65    0.98
   4   4   9    3.24    1.53
   4   4   9    2.16    1.39
  -4   4  -9    1.26    0.88
  -4  -4 -10    0.52    0.82
  -4  -4 -10    0.71    0.71
   4   4  10    0.40    1.16
   4   4  10    0.77    1.04
  -4   4 -10    1.63    0.78
  -4  -4 -11   21.63    1.11
   4   4  11   19.73    1.15
   4   5  -8   17.76    1.22
   4  -5  -8   19.69    1.18
  -4   5   8   19.77    1.19
   4  -5  -7    0.88    1.07
  -4   5   7    1.03    0.64
   4   5  -7    1.97    1.02
   4  -5  -7    0.12    0.85
   4  -5  -7    0.48    0.86
  -4   5   6   10.57    1.03
   4  -5  -6   13.52    1.48
  -4   5   6   13.09    1.44
   4   5  -6   11.06    1.40
   4  -5  -6   12.23    1.30
   4  -5  -6   11.29    1.32
   4  -5  -6   10.08    1.22
  -4   5   5   18.04    1.53
  -4   5   5   16.90    1.33
   4  -5  -5   20.10    1.72
  -4   5   5   21.44    1.78
   4   5  -5   17.85    1.69
   4  -5  -5   19.84    1.64
   4  -5  -5   20.98    1.71
   4  -5  -5   15.98    1.44
  -4   5   4   63.09    3.09
  -4   5   4   67.80    3.02
   4  -5  -4   65.06    3.19
  -4   5   4   61.12    3.28
   4   5  -4   64.05    3.26
   4  -5  -4   59.29    3.10
   4  -5  -4   67.12    3.20
  -4   5   3   10.19    1.40
  -4   5   3    8.52    1.48
   4  -5  -3    8.04    1.73
   4   5  -3   11.09    1.68
   4  -5  -3    9.30    1.57
   4  -5  -3    9.77    1.77
   4   5  -2   71.72    3.47
   4  -5  -2   70.37    3.40
  -4   5   2   70.73    3.50
   4  -5  -2   64.12    3.33
  -4   5   2   68.88    3.31
  -4   5   2   62.83    3.27
  -4   5   1  138.11    5.75
  -4   5   1  136.47    5.77
   4  -5  -1  134.92    5.76
  -4   5   1  135.31    5.93
   4   5  -1  137.45    5.88
   4   5   0   68.75    3.45
   4  -5   0   61.44    3.28
  -4   5   0   66.32    3.45
  -4   5   0   61.75    3.18
   4  -5   0   69.00    3.44
  -4   5  -1   34.99    2.31
   4  -5   1   33.90    2.30
  -4   5  -1   38.97    2.56
  -4   5  -1   33.69    2.12
   4  -5   1   36.77    2.57
  -4   5  -2   37.08    2.34
   4   5   2   38.51    2.77
   4  -5   2   38.43    2.61
   4  -5   2   36.16    2.28
  -4   5  -2   37.20    2.45
  -4   5  -3   78.61    3.47
   4  -5   3   73.96    3.56
   4   5   3   70.17    3.73
   4  -5   3   63.42    3.25
  -4   5  -3   75.64    3.50
  -4   5  -4   86.58    3.67
   4  -5   4   88.05    3.78
   4   5   4   87.28    3.97
  -4   5  -4   79.61    3.64
   4  -5   5   26.24    1.95
   4   5   5   27.60    2.14
   4  -5   6   67.08    3.05
   4   5   6   64.38    3.14
   4  -5   7   17.26    1.28
   4   5   7   21.73    1.53
   4   5   8   11.78    1.01
   4   6  -3    3.51    0.77
  -4   6   3    2.31    0.60
   4  -6  -2    5.81    0.88
   4   6  -2    4.10    0.86
  -4   6   2    3.29    0.70
  -4   6   1   10.26    1.01
   4  -6  -1    9.48    1.00
  -4   6   0   18.29    1.24
   4  -6   0   16.15    1.22
  -4   6   0   18.28    1.14
  -4   6  -1   21.51    1.26
   4  -6   1   20.99    1.29
  -4   6  -1   18.11    1.15
   4  -6   2    0.56    0.74
  -5   0  14    0.43    0.71
   5   0 -14    1.50    0.89
   5   0 -14    0.36    0.68
   5   0 -13   67.82    3.24
  -5   0  13   70.15    3.15
  -5   0  12  243.00    9.50
   5   0 -12  242.99    9.55
   5   0 -12  231.66    9.42
   5   0 -11   22.76    1.64
   5   0 -11   25.52    1.98
   5   0 -11   25.70    2.53
   5   0 -10   -0.46    3.39
  -5   0  10   -1.53    4.30
  -5   0  10    0.95    3.86
   5   0 -10    1.40    1.10
   5   0 -10    2.56    1.40
   5   0 -10    2.27    2.21
   5   0  -9  107.96    4.92
  -5   0   9  103.90    8.86
  -5   0   9   83.00    8.18
   5   0  -9  106.20    8.43
   5   0  -9  105.62    4.62
   5   0  -9  100.33    4.65
   5   0  -9  104.36    4.74
   5   0  -8  365.21   14.19
  -5   0   8  319.60   17.79
   5   0  -8  366.74   18.27
   5   0  -8  370.35   14.16
   5   0  -8  356.46   14.05
   5   0  -8  379.56   14.29
   5   0  -7   20.85    3.59
   5   0  -7   18.19    1.50
   5   0  -7   21.10    1.56
  -5   0   7   19.45    4.28
  -5   0   7   21.69    3.55
   5   0  -7   19.11    1.50
   5   0  -7   18.25    1.33
   5   0  -7   18.94    1.46
   5   0  -7   19.79    1.37
   5   0  -7   17.41    1.09
   5   0  -6  142.97    5.83
   5   0  -6  146.99    5.81
  -5   0   6  135.05    9.15
  -5   0   6  138.93    8.46
   5   0  -6  144.48    5.86
   5   0  -6  160.72    8.90
   5   0  -6  143.16    5.78
   5   0  -6  151.23    5.88
   5   0  -6  138.38    5.68
   5   0  -6  134.46    5.58
  -5   0   5  183.05   10.26
  -5   0   5  160.60    9.02
   5   0  -5  173.30    6.91
   5   0  -5  184.94    9.48
   5   0  -5  177.05    6.90
   5   0  -5  165.23    6.85
   5   0  -5  173.56    6.84
   5   0  -5  186.95   10.63
   5   0  -4  138.74    7.37
   5   0  -4  134.70    8.30
   5   0  -4  124.63    5.16
  -5   0   4  141.17    8.17
  -5   0   4  135.25    7.00
   5   0  -3 1064.04   38.34
  -5   0   3  897.89   37.41
  -5   0   3  948.65   38.98
   5   0  -3 1026.69   39.67
   5   0  -2   88.99    6.05
   5   0  -2   84.25    6.01
  -5   0   2   91.77    5.68
  -5   0   2   81.38    4.19
   5   0  -2   85.72    4.57
   5   0  -1 2380.93   86.37
   5   0  -1 2239.74   86.08
  -5   0   1 2208.05   85.14
   5   0  -1 2223.77   84.32
   5   0   0  104.85    6.44
   5   0   0  108.52    6.44
  -5   0   0   86.20    5.14
  -5   0   0   95.43    6.06
   5   0   0   97.48    5.04
   5   0   1   60.31    4.81
   5   0   1   63.89    4.92
  -5   0  -1   64.04    3.59
  -5   0  -1   70.83    4.86
   5   0   1   60.65    3.88
   5   0   2  226.87   11.65
   5   0   2  225.07   11.55
  -5   0  -2  235.01   11.05
   5   0   3  263.65   13.21
  -5   0  -3  244.19   12.55
  -5   0  -3  275.61   12.24
  -5   0  -4  120.64    6.60
   5   0   4  117.33    7.88
  -5   0  -4  112.84    7.36
   5   0   4  120.19    4.86
   5   0   4  119.85    4.84
   5   0   5  658.07   25.19
  -5   0  -5  677.06   28.90
   5   0   5  699.71   29.55
   5   0   5  702.46   25.22
   5   0   5  635.33   25.21
   5   0   5  701.69   25.22
   5   0   5  647.92   25.20
   5   0   5  682.18   25.20
   5   0   6    8.10    0.93
  -5   0  -6    5.70    2.45
   5   0   6    8.54    0.95
   5   0   6    8.65    2.85
  -5   0  -6    7.69    0.78
   5   0   6    7.14    0.94
   5   0   6    8.28    0.99
   5   0   6    6.28    0.92
   5   0   6    5.82    0.86
   5   0   7  194.35    7.84
  -5   0  -7  205.25   12.01
   5   0   7  194.13    7.88
   5   0   7  215.61   12.63
  -5   0  -7  189.22    7.71
   5   0   7  187.26    7.88
   5   0   7  196.09    7.88
   5   0   7  201.85    7.87
   5   0   7  202.77    7.87
   5   0   8   21.11    1.79
  -5   0  -8   27.62    5.46
  -5   0  -8   18.45    4.76
   5   0   8   19.58    2.13
   5   0   8   23.50    4.64
  -5   0  -8   21.85    1.50
   5   0   8   19.06    1.65
   5   0   8   22.87    2.20
   5   0   8   22.10    2.06
   5   0   8   20.23    1.99
  -5   0  -9   67.31    7.70
   5   0   9   67.01    3.42
  -5   0  -9   77.49    7.97
   5   0   9   73.30    3.71
   5   0   9   64.05    7.34
  -5   0  -9   68.51    3.23
   5   0   9   67.50    3.36
   5   0   9   64.68    3.71
   5   0  10   10.18    1.58
  -5   0 -10   12.40    4.61
   5   0  10    9.87    1.97
  -5   0 -10   17.97    5.12
   5   0  10    8.77    2.14
   5   0  10    8.46    1.30
  -5   0 -10    9.39    1.30
   5   0  10   10.82    3.87
   5   0  11    5.06    1.69
   5   0  11    3.86    1.94
  -5   0 -11    2.96    2.05
  -5   0 -11    5.06    1.13
   5   0  11    6.67    1.41
  -5   0 -12   18.88    1.43
   5   0  12   17.48    1.89
   5   0  12   20.86    1.60
  -5   0 -12   18.79    2.03
  -5   0 -13    0.17    0.76
   5   0  13    0.25    0.91
  -5   0 -13    0.75    1.22
   5   0  14    2.60    0.79
   5   0  14    2.84    0.63
  -5   0 -14    2.01    0.75
   5   0  14    1.48    0.58
   5  -1 -14    9.98    0.82
   5   1 -14    7.50    0.77
  -5  -1  14    7.91    0.73
  -5   1  14    8.33    0.77
   5   1 -13   13.74    1.48
   5  -1 -13   16.18    1.47
   5   1 -13   15.84    1.50
   5   1 -13   14.28    1.27
   5  -1 -13   15.41    1.27
   5  -1 -13   16.31    1.51
  -5  -1  13   17.26    1.23
  -5   1  13   14.73    1.31
   5  -1 -13   14.91    1.08
   5   1 -12  191.31    7.58
   5  -1 -12  186.13    7.58
   5   1 -12  189.15    7.57
   5  -1 -12  186.68    7.48
  -5  -1  12  198.06    7.52
  -5   1  12  184.68    7.52
   5  -1 -12  175.61    7.40
   5  -1 -11   69.84    3.34
   5  -1 -11   65.76    3.38
   5  -1 -11   70.34    3.67
   5   1 -11   71.93    3.68
   5  -1 -10   15.91    4.62
   5  -1 -10    7.07    2.13
   5   1 -10   11.24    2.32
   5  -1 -10    6.67    4.56
   5   1 -10   13.03    5.05
  -5  -1  10    2.98    3.92
  -5  -1  10   10.39    4.47
  -5   1  10    3.68    4.40
   5  -1 -10   10.22    1.51
   5  -1 -10    7.72    1.60
   5   1 -10   10.11    1.65
   5  -1 -10   11.42    1.63
   5  -1  -9   44.92    6.32
   5  -1  -9   35.59    6.41
   5  -1  -9   48.01    2.97
   5   1  -9   51.52    2.99
   5   1  -9   43.73    6.58
  -5  -1   9   33.70    6.20
  -5  -1   9   35.94    6.22
  -5   1   9   41.86    6.75
  -5   1   9   31.65    5.20
   5   1  -9   45.80    5.25
   5   1  -9   42.31    2.37
   5   1  -9   42.67    2.59
   5  -1  -9   44.83    2.58
   5  -1  -9   47.47    2.53
   5  -1  -8   19.16    4.53
   5   1  -8   24.04    3.68
   5  -1  -8   24.56    1.76
   5   1  -8   20.49    2.07
   5  -1  -8   24.15    5.24
   5  -1  -8   20.20    1.96
   5   1  -8   21.57    2.06
   5   1  -8   28.51    5.28
  -5  -1   8   20.32    4.89
  -5  -1   8   18.05    4.51
  -5   1   8   20.74    3.89
  -5   1   8   19.11    3.65
   5   1  -8   23.04    1.62
   5   1  -8   23.38    1.76
   5  -1  -8   24.24    1.76
   5  -1  -8   21.09    1.71
   5  -1  -7  249.68    9.83
   5   1  -7  238.82    9.84
   5  -1  -7  264.05    9.86
   5   1  -7  263.39    9.86
   5  -1  -7  282.67   14.96
   5   1  -7  267.00   14.57
  -5   1   7  227.34   14.02
  -5  -1   7  234.18   13.54
  -5   1   7  248.56   13.14
   5  -1  -7  240.25    9.81
  -5   1   7  225.63   13.10
   5  -1  -7  249.35   13.92
  -5   1   7  254.07   12.88
   5   1  -7  254.87   12.80
   5   1  -7  240.71    9.82
   5   1  -7  247.88    9.78
   5  -1  -7  250.59    9.80
   5  -1  -7  254.96    9.74
   5   1  -6  149.38    6.27
   5  -1  -6  155.64    6.26
   5  -1  -6  158.11    6.24
   5   1  -6  159.61    6.25
   5  -1  -6  196.63   10.87
   5   1  -6  179.62   10.45
  -5   1   6  141.64    9.80
  -5  -1   6  153.77   10.13
  -5  -1   6  147.29    9.31
  -5   1   6  125.53    8.45
  -5   1   6  142.31    9.34
   5  -1  -6  153.93    6.27
   5   1  -6  160.05    8.60
   5  -1  -6  171.35    9.97
   5   1  -6  145.63    6.32
   5   1  -6  155.25    6.30
   5   1  -6  150.26    6.17
   5  -1  -6  162.16    6.23
   5  -1  -6  153.77    6.18
   5   1  -5  442.78   17.02
   5  -1  -5  436.82   17.00
   5  -1  -5  451.02   17.00
   5   1  -5  461.32   17.01
   5  -1  -5  478.09   21.29
   5   1  -5  500.08   21.34
  -5   1   5  467.50   21.03
  -5  -1   5  478.85   21.24
  -5   1   5  405.23   19.18
   5   1  -5  438.92   17.08
  -5   1   5  444.84   20.60
   5  -1  -5  449.92   17.04
  -5  -1   5  444.78   20.14
   5  -1  -5  437.79   16.81
   5  -1  -5  508.61   20.94
   5   1  -5  481.08   19.26
   5   1  -5  453.12   17.09
   5   1  -5  456.49   17.08
   5  -1  -5  437.27   16.93
   5  -1  -5  462.78   16.96
  -5   1   4   33.43    3.89
  -5  -1   4   26.77    3.78
  -5   1   4   25.93    2.72
  -5   1   4   36.71    4.09
  -5  -1   4   33.57    3.49
   5   1  -4   27.83    2.57
   5  -1  -4   26.77    3.52
   5   1  -4   34.17    1.74
   5  -1  -4   32.33    4.05
   5   1  -4   27.68    3.69
   5  -1  -4   32.13    1.64
   5   1  -4   31.74    1.64
   5   1  -4   34.17    1.76
   5  -1  -4   32.02    1.60
  -5   1   3  181.59   10.35
   5  -1  -3  190.66    9.26
  -5   1   3  212.16   11.04
  -5  -1   3  186.78    9.78
   5  -1  -3  212.98   10.96
   5   1  -3  214.12   10.83
   5   1  -3  191.66    8.76
   5  -1  -3  215.36   10.66
   5  -1  -3  194.92    7.85
   5   1  -3  219.18    7.96
   5  -1  -3  202.65    7.83
  -5  -1   2 1863.13   72.86
  -5   1   2 1805.61   73.56
   5  -1  -2 1807.95   72.87
   5  -1  -2 1985.65   73.58
   5  -1  -2 2084.69   74.37
   5   1  -2 2090.33   74.27
  -5  -1   1    2.67    1.28
  -5   1   1    4.43    1.53
  -5   1   1    0.56    1.81
  -5   1   1    2.80    1.14
   5  -1  -1    2.10    1.50
   5   1  -1    4.83    1.87
   5  -1  -1    4.45    1.79
   5  -1  -1    6.90    2.24
   5   1  -1    2.23    1.68
  -5   1   0  672.43   27.85
  -5   1   0  612.80   25.93
  -5   1   0  600.05   26.05
   5  -1   0  674.67   27.03
   5   1   0  722.81   27.91
   5  -1   0  702.73   27.72
   5  -1   0  688.60   27.59
   5   1   0  719.44   27.63
  -5   1  -1  558.86   23.49
  -5   1  -1  525.68   21.94
  -5  -1  -1  532.53   21.83
   5  -1   1  494.98   22.24
   5  -1   1  553.15   22.79
   5  -1   1  574.54   23.40
   5   1   1  572.00   23.28
   5   1   1  574.55   23.53
   5  -1   1  543.88   23.33
  -5  -1  -2  228.29   10.33
  -5   1  -2  228.10   11.41
   5  -1   2  219.28   11.32
   5   1   2  228.46   11.49
  -5   1  -2  202.08   10.18
  -5  -1  -2  211.10   10.05
   5  -1   2  229.28   11.00
   5  -1   3  128.90    7.54
  -5   1  -3  119.41    7.88
  -5  -1  -3  127.15    6.82
  -5  -1  -3  113.71    6.18
  -5   1  -3  113.46    7.35
   5   1   3  141.40    8.10
   5  -1   3  125.12    7.78
   5   1   3  130.98    7.33
   5   1   3  121.39    4.93
   5  -1   3  118.73    4.91
   5   1   3  121.43    4.92
   5   1   3  123.51    4.92
   5   1   3  133.24    5.04
   5  -1   3  117.61    4.89
   5   1   4  421.17   16.68
  -5   1  -4  477.26   20.71
  -5  -1  -4  437.44   19.19
  -5   1  -4  443.07   19.76
   5   1   4  514.19   20.93
   5  -1   4  475.64   20.59
   5   1   4  487.74   20.22
   5   1   4  446.03   16.71
   5   1   4  438.68   16.71
   5  -1   4  449.08   16.71
   5  -1   4  440.21   16.69
   5   1   4  462.60   16.73
   5   1   4  436.87   16.69
   5  -1   4  429.90   16.68
   5   1   4  431.55   16.76
   5  -1   5  120.59    5.11
   5   1   5  129.09    5.12
  -5  -1  -5  131.69    8.48
   5   1   5  133.33    8.60
   5  -1   5  124.26    8.41
  -5   1  -5  120.41    8.39
  -5  -1  -5  126.68    7.70
  -5   1  -5  132.62    7.82
   5   1   5  136.88    8.45
   5   1   5  119.75    5.13
   5  -1   5  130.92    5.13
   5   1   5  122.15    5.14
   5  -1   5  127.27    5.11
   5   1   5  125.68    5.10
   5  -1   5  119.77    5.10
   5   1   5  123.42    5.18
  -5  -1  -6  115.35    8.53
   5  -1   6  116.25    4.87
   5   1   6  118.01    4.88
   5   1   6  139.86    9.02
   5  -1   6  117.64    8.41
  -5   1  -6   98.04    8.25
  -5  -1  -6  130.29    8.00
  -5   1  -6  114.80    7.35
   5   1   6  124.74    8.64
  -5   1  -6  112.87    4.75
   5  -1   6  117.28    4.87
   5   1   6  122.35    4.89
   5   1   6  112.68    4.90
   5  -1   6  114.88    4.84
   5   1   6  111.27    4.97
   5  -1   7  245.85    9.25
   5   1   7  225.37    9.23
  -5  -1  -7  234.27   13.94
  -5  -1  -7  248.03   13.18
  -5   1  -7  240.61   14.08
   5   1   7  241.73   13.83
   5   1   7  240.35    9.35
   5   1   7  251.88   14.01
   5  -1   7  238.32   13.72
  -5   1  -7  231.28    9.14
   5   1   7  234.10    9.28
   5  -1   7  229.02    9.29
   5   1   7  238.60    9.28
   5  -1   7  235.97    9.23
   5  -1   7  227.59    9.37
   5  -1   7  217.82    9.09
   5   1   7  240.99    9.42
  -5   1  -8   87.34    7.95
  -5  -1  -8   94.65    8.65
   5  -1   8   94.02    4.13
   5   1   8   96.19    4.18
  -5  -1  -8   75.69    7.29
  -5   1  -8   78.18    8.26
   5   1   8   95.15    8.23
   5  -1   8   89.72    4.31
   5   1   8   99.51    4.49
   5   1   8   97.43    8.36
   5  -1   8   88.45    7.96
  -5   1  -8   87.87    3.98
   5   1   8   90.23    4.20
   5  -1   8   94.53    4.38
   5   1   8   89.69    4.31
   5  -1   8   93.62    4.28
   5  -1   8   83.60    3.99
   5   1   8   87.17    4.56
   5  -1   9   24.86    1.85
   5   1   9   26.64    2.11
  -5   1  -9   18.22    4.82
  -5  -1  -9   18.90    5.36
  -5   1  -9   27.32    6.09
  -5  -1  -9   26.43    4.85
   5   1   9   23.52    4.99
   5  -1   9   23.68    2.30
   5   1   9   27.80    2.59
   5  -1   9   24.78    1.98
   5   1   9   26.62    2.74
  -5   1  -9   26.01    1.78
   5   1   9   24.23    1.99
   5   1   9   38.63    5.73
   5  -1   9   29.60    4.91
   5  -1  10  170.49    7.04
   5   1  10  165.95    7.13
   5   1  10  169.30    7.32
  -5   1 -10  173.51    6.90
  -5  -1 -10  160.44    6.89
   5   1  10  162.55    6.98
   5  -1  10  172.73    6.94
   5   1  10  170.78    7.02
  -5  -1 -11   24.99    2.36
  -5   1 -11   27.41    2.43
   5  -1  11   28.34    2.05
   5   1  11   26.59    2.55
  -5   1 -11   27.55    1.79
  -5  -1 -11   27.34    1.78
   5   1  11   26.15    1.82
   5  -1  11   29.59    1.84
   5   1  11   30.56    2.06
  -5  -1 -12   17.55    1.76
  -5   1 -12   18.59    1.81
   5  -1  12   19.56    1.48
   5   1  12   22.84    2.05
  -5  -1 -12   23.53    1.48
  -5   1 -12   18.62    1.45
   5   1  12   21.55    1.46
   5  -1  12   22.19    1.49
   5   1  12   21.89    1.60
   5   1  13    5.22    0.89
  -5  -1 -13    5.06    1.07
  -5   1 -13    7.01    1.12
   5  -1  13    5.25    0.85
   5   1  13    7.54    1.32
  -5   1 -13    6.47    0.86
  -5  -1 -13    3.83    1.01
  -5  -1 -13    3.92    0.83
   5  -1  13    5.74    0.86
   5   1  13    4.87    0.91
   5   2 -13   77.83    3.31
   5  -2 -13   85.55    3.31
   5  -2 -13   75.03    3.25
  -5  -2  12    1.45    0.72
   5  -2 -12    1.93    0.96
   5  -2 -12    2.75    1.02
   5   2 -12    2.53    1.00
   5  -2 -12    2.57    1.13
   5  -2 -12    3.53    1.07
   5  -2 -11   81.61    3.70
  -5   2  11   79.85    3.66
   5  -2 -11   81.53    3.75
   5  -2 -11   88.62    3.78
   5  -2 -11   78.08    3.75
   5   2 -11   82.49    3.80
   5  -2 -11   80.16    3.75
  -5  -2  11   80.23    3.54
  -5   2  11   83.77    3.68
   5  -2 -10   11.62    1.90
   5   2 -10   11.52    1.78
   5  -2 -10   12.59    1.79
  -5   2  10   11.29    1.80
   5  -2 -10   10.84    1.63
   5   2 -10   12.28    1.67
  -5  -2  10   12.37    1.25
  -5   2  10   10.83    1.57
   5  -2  -9   -0.97    3.84
   5   2  -9   -0.18    1.58
   5  -2  -9   -0.26    1.64
  -5   2   9    0.88    0.78
  -5  -2   9   -1.53    4.37
  -5  -2   9    0.50    3.82
   5  -2  -9    2.02    1.31
   5  -2  -9    0.81    1.38
   5   2  -9    1.87    1.62
   5  -2  -9    0.94    1.95
   5  -2  -8   70.33    7.55
   5   2  -8   71.68    7.13
   5   2  -8   75.09    3.59
   5  -2  -8   69.92    3.57
  -5  -2   8   57.71    7.35
  -5   2   8   70.27    3.25
  -5  -2   8   43.58    6.85
  -5   2   8   57.23    7.69
  -5   2   8   65.04    6.40
   5  -2  -8   71.88    3.36
   5  -2  -8   77.45    3.61
   5  -2  -8   76.93    3.72
   5  -2  -7   29.24    1.70
   5   2  -7   27.70    1.88
   5  -2  -7   29.86    5.04
   5   2  -7   25.90    4.22
   5   2  -7   26.56    1.94
   5  -2  -7   27.24    1.90
  -5  -2   7   20.90    5.18
  -5  -2   7   20.69    4.73
  -5   2   7   25.35    5.56
  -5   2   7   27.20    1.68
   5  -2  -7   26.16    1.63
   5  -2  -7   28.47    1.81
  -5   2   7   30.58    4.47
   5   2  -7   27.24    1.76
   5  -2  -7   27.82    1.95
   5  -2  -7   30.07    2.26
   5  -2  -6   10.24    3.22
   5  -2  -6    8.94    1.09
   5   2  -6   12.88    3.05
   5   2  -6   11.97    1.22
   5  -2  -6   10.38    1.53
  -5  -2   6   11.19    3.78
  -5   2   6    8.13    3.87
  -5   2   6    9.72    1.05
   5  -2  -6    9.76    1.01
  -5   2   6    8.46    2.81
   5  -2  -6   10.32    1.17
   5   2  -6    9.37    1.13
   5  -2  -6   10.02    1.28
   5   2  -6   12.35    1.41
   5   2  -6    8.82    1.11
   5  -2  -6   10.95    0.99
   5   2  -6   11.75    1.21
   5  -2  -5   10.51    0.94
   5   2  -5   10.92    1.01
  -5  -2   5   12.81    3.18
  -5   2   5   16.03    3.88
   5  -2  -5   14.95    1.08
  -5   2   5   11.77    1.05
  -5   2   5   17.09    3.30
   5  -2  -5   13.88    1.09
   5   2  -5   13.27    1.37
   5   2  -5   13.03    1.16
   5  -2  -5   11.88    1.03
   5   2  -5   12.14    1.02
   5   2  -5   11.80    1.29
   5  -2  -5   14.90    1.22
   5  -2  -5   14.30    2.83
   5   2  -5   14.91    3.10
   5   2  -5   11.90    0.98
   5  -2  -5    9.51    0.93
   5   2  -4   74.23    3.35
   5  -2  -4   86.58    6.29
   5   2  -4   85.70    6.00
   5   2  -4   80.00    3.36
   5  -2  -4   70.52    3.33
   5  -2  -4   68.00    5.34
  -5   2   4   90.49    6.86
   5  -2  -4   82.03    3.45
  -5   2   4   78.88    6.29
  -5   2   4   83.43    3.47
  -5  -2   4   68.89    5.94
   5  -2  -4   78.88    3.35
   5   2  -4   77.49    3.56
   5   2  -4   78.44    3.57
   5  -2  -4   78.95    3.37
   5   2  -4   80.72    3.34
   5   2  -4   80.48    3.51
   5  -2  -4   78.78    3.43
   5   2  -4   84.46    3.60
   5  -2  -4   78.66    3.25
   5  -2  -3  405.27   18.58
   5   2  -3  400.39   14.80
   5  -2  -3  419.69   18.18
   5   2  -3  396.65   17.72
   5  -2  -3  359.10   17.52
  -5   2   3  365.23   18.20
  -5   2   3  393.39   18.74
  -5  -2   3  390.08   18.12
  -5   2   3  388.14   14.87
   5  -2  -3  399.15   14.80
   5   2  -3  377.96   14.91
   5   2  -3  400.19   14.99
   5  -2  -3  389.53   14.78
   5   2  -3  378.05   14.75
   5   2  -3  405.21   14.88
   5   2  -3  392.32   14.97
   5  -2  -3  391.06   14.86
   5  -2  -3  381.68   14.71
   5  -2  -2  639.43   26.42
   5   2  -2  623.87   26.10
   5  -2  -2  621.31   26.63
  -5   2   2  585.25   25.99
  -5   2   2  588.49   26.44
  -5   2   2  602.36   27.22
   5  -2  -2  626.62   23.30
  -5   2   2  613.68   23.33
   5   2  -2  630.71   23.43
   5   2  -2  622.44   23.51
   5  -2  -2  639.43   27.01
   5   2  -2  626.98   23.46
   5  -2  -2  632.07   23.37
   5  -2  -2  615.83   23.24
   5  -2  -1   21.71    2.90
   5   2  -1   16.91    2.56
  -5   2   1   22.58    2.94
   5  -2  -1   21.55    3.13
  -5  -2   1   19.13    2.57
   5  -2  -1   18.47    2.28
  -5   2   1   14.22    2.55
  -5   2   1   25.13    3.67
   5   2  -1   23.59    1.47
   5   2  -1   21.99    1.37
   5  -2  -1   20.87    1.16
   5  -2  -1   19.91    1.24
   5  -2  -1   18.15    2.98
   5  -2  -1   20.81    1.21
  -5   2   1   19.64    1.21
   5  -2   0   44.43    3.99
   5   2   0   38.65    3.72
   5   2   0   36.74    3.83
   5  -2   0   41.86    3.86
  -5  -2   0   39.26    3.79
   5  -2   0   38.12    4.36
  -5   2   0   30.93    3.55
  -5   2   0   37.01    3.43
   5  -2   0   39.46    3.65
   5  -2   0   42.23    1.95
  -5   2   0   40.24    1.89
   5   2   0   42.09    2.15
   5  -2   0   44.69    4.47
   5   2   0   41.81    2.09
   5  -2   0   41.38    1.90
   5  -2   0   40.57    1.98
   5   2   1   68.02    5.15
   5  -2   1   59.96    4.91
   5  -2   1   75.86    6.07
  -5   2  -1   78.50    5.49
   5  -2   1   71.73    5.29
  -5   2  -1   88.57    6.46
  -5   2  -1   67.38    2.96
   5  -2   1   71.48    3.09
   5   2   1   73.48    3.05
   5   2   1   72.53    3.21
   5  -2   1   72.17    3.04
   5  -2   1   68.49    5.63
  -5  -2  -1   69.51    4.71
  -5  -2  -2  203.56   10.07
   5  -2   2  204.29   10.90
   5  -2   2  186.57   10.09
   5   2   2  202.95   10.43
   5  -2   2  204.23   11.54
  -5   2  -2  195.31   10.44
   5  -2   2  191.76   10.63
  -5   2  -2  212.24   11.44
   5   2   2  190.00    7.50
   5   2   2  192.12    9.32
   5  -2   2  190.31    7.52
   5   2   2  206.81    7.75
   5   2   2  183.96    7.41
   5  -2   2  194.38    7.54
   5   2   2  193.37    7.66
   5   2   2  195.08    7.53
   5   2   2  182.71    7.44
   5  -2   2  194.15    7.50
  -5  -2  -3   86.76    6.17
   5  -2   3   95.50    7.01
   5  -2   3   93.75    6.39
   5   2   3   87.87    6.28
  -5   2  -3   81.22    6.35
   5  -2   3   79.49    6.56
  -5   2  -3   92.73    7.10
   5  -2   3   90.78    3.80
   5   2   3  104.29    6.12
   5   2   3   88.90    3.79
   5   2   3   85.97    3.97
   5   2   3   88.59    3.75
   5  -2   3   87.34    3.69
   5   2   3   88.92    3.68
   5  -2   3   91.18    3.79
   5   2   3   93.89    3.95
   5   2   3   89.20    3.80
   5   2   3   88.63    3.70
  -5  -2  -4  243.68   12.42
   5  -2   4  227.45    8.71
   5   2   4  226.63    8.72
  -5   2  -4  203.63   12.07
   5  -2   4  210.28   12.65
  -5   2  -4  226.03   12.67
   5   2   4  227.03    8.70
   5   2   4  250.56   12.36
   5  -2   4  237.14   12.12
   5  -2   4  218.44    8.69
   5  -2   4  216.57    8.80
   5   2   4  243.49   11.96
   5   2   4  230.60    8.87
   5  -2   4  223.24    8.73
   5   2   4  218.65    8.70
   5   2   4  229.15    8.82
   5   2   4  238.03    8.99
   5   2   4  226.31    8.85
   5   2   4  220.12    8.72
   5  -2   5    2.57    0.64
   5   2   5    2.71    0.76
  -5  -2  -5    5.17    2.69
   5  -2   5    3.03    0.63
   5   2   5    0.75    2.30
   5  -2   5    7.74    2.47
   5   2   5    2.49    0.73
   5  -2   5    5.22    3.50
  -5   2  -5    0.45    3.03
  -5   2  -5    3.68    2.37
  -5   2  -5    2.51    2.95
   5   2   5    2.65    1.12
   5   2   5    1.07    2.13
   5   2   5    1.49    1.33
   5   2   5    3.58    0.99
   5  -2   5    2.59    0.90
   5  -2   5    3.24    0.76
   5   2   5    2.99    0.74
   5   2   5    3.90    1.08
   5  -2   6   27.17    1.54
   5   2   6   25.80    1.61
  -5  -2  -6   22.81    4.55
   5   2   6   26.21    4.11
   5  -2   6   28.17    4.00
  -5   2  -6   25.90    5.20
  -5   2  -6   26.58    4.51
   5   2   6   25.89    2.16
   5   2   6   19.54    4.05
  -5   2  -6   24.73    1.53
   5   2   6   25.01    1.79
   5   2   6   26.34    1.74
   5  -2   6   21.46    1.80
   5  -2   6   26.93    1.73
   5   2   6   24.52    2.09
   5  -2   6   26.67    2.18
   5   2   6   26.95    2.35
  -5  -2  -7  102.59    9.07
   5  -2   7  114.02    4.82
   5   2   7  106.98    4.86
   5   2   7  112.24    8.64
   5  -2   7  106.85    8.37
  -5   2  -7  124.40   10.08
  -5   2  -7  115.23    8.67
   5   2   7  128.08    9.23
  -5   2  -7  116.18    4.87
   5   2   7  123.68    5.31
   5  -2   7  117.83    5.00
   5  -2   7  118.45    5.35
   5   2   7  112.43    5.47
  -5   2  -8  299.32   16.69
  -5  -2  -8  376.72   18.62
   5  -2   8  342.47   12.64
   5   2   8  313.04   12.64
  -5   2  -8  300.98   17.93
   5   2   8  333.94   17.73
   5  -2   8  326.76   12.94
   5   2   8  339.77   13.08
  -5   2  -8  322.14   12.67
   5   2   8  334.35   12.83
   5   2   8  335.15   12.98
   5  -2   8  311.36   12.63
   5  -2   8  325.83   17.32
   5   2   8  321.33   17.27
  -5   2  -9  163.42    6.71
   5  -2   9  158.24    6.81
   5   2   9  158.80    7.14
  -5   2  -9  162.66    6.63
   5   2   9  162.80    6.76
   5   2   9  162.08    7.03
   5  -2   9  157.28    6.57
   5  -2   9  166.95    6.57
   5   2   9  159.66    6.60
  -5  -2 -10   14.08    1.75
  -5   2 -10   13.77    1.80
   5  -2  10   15.20    1.79
   5   2  10   13.50    2.57
   5   2  10   16.51    2.40
  -5   2 -10   16.24    1.42
   5   2  10   16.36    1.65
   5  -2  10   16.33    1.28
   5   2  10   16.55    1.54
   5  -2  11   39.13    2.06
  -5  -2 -11   42.73    2.32
   5  -2  11   43.33    2.24
  -5   2 -11   43.64    2.23
  -5  -2 -11   44.48    2.22
   5   2  11   40.16    2.84
   5   2  11   44.94    2.35
   5  -2  11   45.13    2.11
   5  -2  12   33.03    1.69
  -5  -2 -12   35.21    1.83
   5   2  12   38.15    2.26
  -5  -2 -12   33.87    2.00
   5   2  12   40.12    1.94
   5  -2  12   35.03    1.73
  -5   2 -12   41.34    1.89
  -5  -2 -12   39.46    1.89
  -5  -2 -13   16.77    0.99
  -5   2 -13   16.30    0.97
   5  -3 -12   30.59    1.52
   5   3 -12   26.83    1.53
   5  -3 -12   28.37    1.53
   5  -3 -11   32.32    1.79
   5   3 -11   32.14    1.77
   5  -3 -11   30.66    1.65
   5  -3 -11   27.82    1.80
  -5   3  10   11.47    1.43
   5  -3 -10   11.04    1.63
  -5   3  10    8.24    0.97
   5   3 -10   13.95    1.48
   5  -3 -10   11.33    1.33
   5  -3  -9   58.56    2.81
  -5   3   9   51.30    2.91
  -5   3   9   53.32    2.63
   5   3  -9   51.70    2.94
   5  -3  -9   56.84    2.86
   5  -3  -8   42.57    2.55
  -5   3   8   40.70    2.67
   5  -3  -8   42.02    2.49
  -5   3   8   36.47    2.17
  -5   3   7   17.35    4.78
  -5  -3   7   18.35    5.16
  -5  -3   7   19.63    5.26
  -5   3   7   21.59    1.75
  -5   3   7   22.74    5.77
   5  -3  -7   26.81    2.20
  -5   3   7   25.04    2.39
  -5   3   7   17.47    3.91
   5  -3  -7   21.91    2.02
   5  -3  -7   23.15    2.47
  -5  -3   6   -1.02    4.25
  -5   3   6   -3.25    4.62
  -5   3   6    1.22    1.14
   5  -3  -6    2.77    1.75
  -5   3   6    2.56    0.79
   5  -3  -6    3.05    1.49
   5   3  -6    3.15    1.57
   5  -3  -6    2.25    1.31
   5  -3  -6    1.81    1.90
   5  -3  -5   31.54    2.46
   5  -3  -5   33.39    1.97
  -5  -3   5   29.18    5.64
  -5   3   5   25.75    5.45
  -5   3   5   31.31    1.78
  -5   3   5   31.14    2.07
  -5   3   5   26.12    4.26
   5  -3  -5   36.32    2.43
   5   3  -5   30.96    1.96
   5   3  -5   30.65    2.27
   5  -3  -5   31.32    2.15
   5  -3  -5   31.45    5.74
   5  -3  -4   90.03    7.84
  -5   3   4  117.65    9.12
   5  -3  -4  105.56    4.50
  -5   3   4  103.97    4.72
  -5   3   4  104.48    8.24
  -5  -3   4   91.37    8.32
   5  -3  -4  115.57    4.80
  -5   3   4  115.13    4.91
   5   3  -4  106.24    4.68
   5   3  -4  103.39    4.73
  -5   3   4  107.50    4.57
   5   3  -4  111.79    4.88
   5  -3  -4  107.76    4.73
   5  -3  -4  110.51    4.83
   5  -3  -4  106.77    4.57
   5  -3  -3  373.78   19.03
  -5   3   3  362.33   19.02
  -5   3   3  358.57   18.98
   5  -3  -3  391.81   14.71
  -5   3   3  378.08   14.85
  -5  -3   3  359.69   19.03
  -5   3   3  388.87   14.81
   5   3  -3  384.85   14.92
  -5   3   3  394.03   14.77
   5   3  -3  381.24   14.79
   5   3  -3  384.51   14.86
   5  -3  -3  368.33   14.76
   5   3  -3  392.10   14.94
   5  -3  -3  384.22   14.83
   5  -3  -3  393.49   14.70
   5  -3  -2  296.00   15.91
  -5   3   2  292.30   15.24
  -5   3   2  254.65   14.89
  -5   3   2  309.00   16.21
  -5   3   2  289.89   11.56
  -5   3   2  306.17   11.51
   5   3  -2  283.44   11.50
   5   3  -2  283.49   11.47
  -5   3   2  297.34   11.52
   5   3  -2  298.98   11.68
   5   3  -2  302.08   11.55
   5   3  -2  292.83   11.64
   5  -3  -2  299.23   11.43
   5  -3  -2  311.61   11.54
  -5   3   1   67.97    5.97
   5  -3  -1   67.57    6.85
  -5   3   1   68.33    6.19
  -5  -3   1   67.23    6.09
   5  -3  -1   69.48    5.78
  -5   3   1   74.46    3.53
  -5   3   1   73.44    7.09
   5  -3  -1   74.00    3.48
  -5   3   1   80.87    3.49
  -5   3   1   78.40    3.50
   5   3  -1   71.38    3.46
   5   3  -1   75.09    3.36
   5   3  -1   75.96    3.63
   5   3  -1   79.37    3.46
   5   3  -1   75.56    3.61
   5   3  -1   75.92    3.47
   5  -3  -1   80.68    3.43
   5  -3  -1   74.00    3.46
  -5   3   0   35.55    5.34
   5   3   0   33.64    2.00
  -5   3   0   32.23    2.00
   5   3   0   37.55    2.22
   5  -3   0   34.31    2.08
  -5   3   0   34.04    1.95
  -5   3   0   29.31    4.18
   5  -3   0   29.74    5.05
  -5  -3   0   35.12    4.52
   5  -3   0   29.09    4.00
   5   3   0   33.76    2.15
   5   3   0   36.08    1.99
   5  -3   0   35.11    2.01
   5  -3   0   34.14    1.94
  -5   3  -1   39.24    4.80
  -5  -3  -1   38.31    4.66
   5  -3   1   42.10    6.10
  -5  -3  -1   53.56    5.70
   5  -3   1   45.53    5.15
   5  -3   1   47.03    2.50
  -5   3  -1   45.97    2.30
   5   3   1   49.07    2.47
   5   3   1   50.48    2.70
  -5   3  -1   46.26    2.52
   5  -3   1   44.71    2.36
   5   3   1   50.76    2.50
   5   3   1   43.99    2.43
   5   3   1   47.05    2.64
   5  -3   1   48.48    2.47
   5  -3   1   46.88    5.85
   5  -3   2   83.18    7.40
  -5  -3  -2   79.72    7.24
   5  -3   2   91.42    8.32
  -5   3  -2   67.24    6.48
   5  -3   2   76.40    7.07
  -5   3  -2   92.31    8.11
   5  -3   2   84.05    3.77
  -5   3  -2   82.80    3.58
   5   3   2   75.90    3.75
  -5   3  -2   81.25    3.81
   5   3   2   86.22    3.54
   5  -3   2   76.97    3.61
   5   3   2   82.12    3.81
   5   3   2   85.04    3.96
   5   3   2   83.84    3.71
   5  -3   2   82.11    3.78
  -5   3  -3   59.86    5.89
   5  -3   3   74.30    7.27
  -5  -3  -3   69.98    7.23
  -5   3  -3   58.54    6.23
  -5   3  -3   62.21    6.87
   5  -3   3   46.98    6.18
  -5   3  -3   63.44    7.31
  -5   3  -3   63.46    2.92
   5  -3   3   67.87    3.30
   5   3   3   59.76    3.21
   5   3   3   65.59    2.98
   5   3   3   64.66    3.44
   5   3   3   72.48    3.36
   5   3   3   65.80    3.19
  -5  -3  -4  178.65   12.42
  -5   3  -4  172.82   11.52
  -5   3  -4  187.83   12.17
   5  -3   4  176.16   12.20
  -5   3  -4  191.12   12.63
   5  -3   4  182.40    7.60
  -5   3  -4  177.95    7.35
   5   3   4  186.23    7.44
   5  -3   4  194.13    7.64
   5   3   4  180.27    7.79
   5   3   4  190.96    7.70
   5   3   4  187.29    7.52
   5  -3   5   14.92    4.91
  -5   3  -5   11.94    4.61
  -5  -3  -5   13.12    5.31
  -5   3  -5   16.07    3.93
  -5   3  -5   13.44    4.84
  -5   3  -5   18.83    1.37
   5  -3   5   18.10    1.83
   5   3   5   20.84    1.79
   5  -3   5   23.21    2.44
   5   3   5   20.12    2.55
   5   3   5   22.59    2.37
   5   3   5   18.12    1.99
   5  -3   6   18.66    5.83
  -5   3  -6   20.91    5.16
  -5  -3  -6   18.47    5.84
  -5   3  -6   16.12    3.94
  -5   3  -6   30.84    5.99
   5   3   6   18.06    2.61
  -5   3  -6   21.59    1.53
   5   3   6   23.52    1.92
   5  -3   6   18.53    1.84
   5  -3   6   21.88    2.52
   5   3   6   21.76    2.50
   5   3   6   18.60    2.15
  -5  -3  -7   51.15    7.69
  -5   3  -7   40.04    6.49
  -5   3  -7   46.69    6.10
  -5   3  -7   34.49    6.04
   5   3   7   58.64    3.02
   5  -3   7   57.11    3.43
   5   3   7   64.10    3.65
   5   3   7   55.20    3.47
   5   3   7   55.91    3.13
  -5   3  -7   52.89    2.71
   5   3   8   62.18    3.21
   5   3   8   61.44    3.73
   5  -3   8   64.29    3.55
   5   3   8   59.98    3.69
   5   3   8   58.00    3.28
  -5   3  -8   61.88    3.18
  -5   3  -8   63.89    3.00
   5  -3   9   76.98    3.68
   5   3   9   77.84    4.15
   5  -3   9   83.17    4.02
   5   3   9   85.24    4.06
   5   3   9   76.58    3.74
  -5   3  -9   81.46    3.68
  -5   3  -9   80.59    3.58
   5   3  10    6.17    1.68
   5   3  10    6.14    1.22
  -5  -3 -10    7.31    1.39
  -5   3 -10    8.10    1.03
   5   3  11   23.53    1.43
   5   3  11   21.47    1.67
  -5  -3 -11   19.04    1.41
  -5   3 -11   18.42    1.26
  -5  -3 -11   19.53    1.28
   5   3  12   33.22    1.41
  -5  -3 -12   21.81    1.30
  -5   4  10    6.29    0.75
   5  -4 -10    8.37    0.98
   5  -4 -10    7.94    0.84
   5  -4 -10    8.36    1.06
  -5   4   9    7.51    0.95
   5   4  -9    8.87    1.18
   5  -4  -9    9.92    1.12
   5  -4  -9    8.39    1.34
   5  -4  -9    8.77    1.18
  -5   4   8   49.93    2.49
   5  -4  -8   52.97    2.66
  -5   4   8   52.11    2.66
   5   4  -8   51.18    2.70
   5  -4  -8   50.61    2.58
   5  -4  -8   51.59    2.73
  -5   4   7   16.39    1.14
  -5   4   7   16.29    1.45
   5  -4  -7   16.39    1.93
  -5   4   7   21.14    1.95
   5   4  -7   18.20    1.72
   5  -4  -7   18.19    1.71
   5  -4  -7   18.20    1.90
  -5   4   6   14.45    1.55
  -5   4   6   13.17    1.19
   5  -4  -6   16.47    2.06
  -5   4   6   17.39    2.12
   5  -4  -6   16.26    1.71
   5  -4  -6   16.32    2.06
   5  -4  -6   15.28    1.64
   5   4  -6   14.57    1.72
  -5   4   5   64.01    3.08
  -5   4   5   65.00    3.36
   5   4  -5   66.57    3.39
   5   4  -5   70.23    3.50
   5  -4  -5   66.87    3.37
   5  -4  -5   66.16    3.33
   5  -4  -5   63.62    3.55
  -5   4   4   80.74    3.82
  -5   4   4   89.66    4.08
   5  -4  -4   86.10    4.20
  -5   4   4   81.62    4.24
   5   4  -4   87.18    4.13
   5  -4  -4   81.78    4.01
   5  -4  -4   87.98    4.05
   5  -4  -4   86.21    4.13
  -5   4   3   91.22    9.34
   5  -4  -3   90.53    8.89
   5  -4  -3   76.74    8.28
  -5   4   3   95.78    4.36
  -5  -4   3   90.50    8.79
   5  -4  -3  101.62    4.64
  -5   4   3  102.71    4.72
   5   4  -3   97.92    4.57
   5  -4  -3   98.89    4.47
   5  -4  -3   96.83    4.53
   5  -4  -3   96.37    4.55
  -5   4   2  136.93   11.36
   5  -4  -2  152.47   11.46
   5  -4  -2  132.52   10.87
  -5   4   2  130.89   10.27
   5  -4  -2  153.73    6.36
  -5   4   2  150.44    6.37
   5   4  -2  148.54    6.29
  -5   4   2  153.55    6.21
   5  -4  -2  135.27    6.11
   5   4  -2  130.04    6.24
   5  -4  -2  151.64    6.25
   5  -4  -2  150.86    6.21
  -5   4   1  410.19   22.41
   5  -4  -1  486.05   24.24
  -5   4   1  463.40   23.29
  -5   4   1  482.70   18.11
   5  -4  -1  481.28   18.05
  -5   4   1  483.31   18.09
  -5   4   1  482.36   18.07
   5   4  -1  474.92   18.10
  -5   4   1  478.81   24.34
   5  -4  -1  457.11   23.27
   5  -4  -1  463.12   17.93
   5   4  -1  431.31   18.05
   5  -4  -1  474.14   18.04
   5  -4   0  225.61   14.80
  -5   4   0  212.41   13.43
  -5  -4   0  198.73   13.35
  -5   4   0  209.67   13.98
  -5   4   0  225.73    9.19
   5  -4   0  240.83    9.20
  -5   4   0  222.86    9.15
   5   4   0  224.82    9.21
  -5   4   0  226.98    9.16
  -5   4   0  235.57   14.74
   5  -4   0  254.30   14.58
   5  -4   0  221.15    8.99
   5   4   0  232.32    9.26
   5   4   0  212.25    9.17
   5  -4   0  236.96    9.18
  -5   4  -1   11.16    3.93
  -5   4  -1    1.48    2.64
   5  -4   1    2.91    4.63
  -5  -4  -1   -0.51    3.92
   5  -4   1    5.22    3.44
  -5   4  -1    3.08    1.54
  -5   4  -1    6.16    4.62
   5   4   1    2.25    1.87
   5  -4   1    4.47    2.03
  -5   4  -1    4.55    1.79
   5   4   1    5.65    1.79
  -5   4  -1    2.41    1.50
   5  -4   1   10.55    5.24
  -5   4  -1    3.65    4.23
   5   4   1    3.87    2.06
  -5   4  -2   29.32    5.11
  -5   4  -2   50.96    5.98
  -5  -4  -2   34.75    6.19
   5  -4   2   45.42    6.41
  -5   4  -2   52.23    2.88
  -5   4  -2   40.83    6.70
   5   4   2   48.35    2.98
   5   4   2   48.18    3.12
   5   4   2   51.48    3.16
   5  -4   2   41.66    6.49
   5  -4   2   51.63    3.08
  -5   4  -2   48.05    2.84
   5  -4   3    8.47    4.50
  -5   4  -3    3.52    3.63
  -5  -4  -3    8.59    4.23
  -5   4  -3   11.59    3.66
  -5  -4  -3    8.26    4.97
   5  -4   3   11.64    4.66
   5   4   3    7.19    2.03
   5  -4   3    7.99    1.90
  -5   4  -3    7.73    1.69
   5   4   3    8.41    1.24
   5  -4   3    7.86    2.26
   5   4   3    6.44    2.10
  -5   4  -3    8.35    1.75
   5  -4   4   78.03    4.05
  -5   4  -4   77.83    3.83
   5   4   4   92.39    3.86
   5  -4   4   82.02    3.86
   5  -4   4   89.78    4.38
   5   4   4   85.19    4.39
   5   4   4   88.47    4.26
   5   4   4   84.95    4.29
  -5   4  -4   92.24    4.20
   5   4   5  126.31    5.22
   5  -4   5  122.72    5.59
   5   4   5  123.58    5.67
   5   4   5  119.96    5.51
   5   4   5  129.22    5.57
  -5   4  -5  119.08    5.41
   5   4   6  120.97    4.97
   5  -4   6  118.55    5.24
   5   4   6  119.85    5.31
   5   4   6  113.19    5.17
   5   4   6  109.33    5.14
  -5   4  -6  111.36    5.01
   5   4   7   31.75    1.98
   5  -4   7   28.97    2.31
   5   4   7   32.51    2.40
   5   4   7   29.80    2.25
   5   4   7   27.83    2.21
  -5   4  -7   29.18    1.96
  -5   4  -7   27.91    1.70
   5   4   8   45.54    2.21
   5  -4   8   42.09    2.40
   5   4   8   40.11    2.31
   5   4   8   38.80    2.31
  -5  -4  -8   35.79    1.93
   5   4   9    0.36    0.91
   5   4   9    1.05    1.05
  -5  -4  -9    1.07    0.78
   5   4  10    6.84    0.86
  -5   5   8    7.00    0.65
  -5   5   7   11.17    0.97
  -5   5   7   10.82    1.01
  -5   5   6   67.95    3.10
   5  -5  -6   86.05    3.34
  -5   5   6   84.47    3.34
   5  -5  -6   77.27    3.23
   5  -5  -6   72.93    3.18
  -5   5   5    8.70    0.98
   5  -5  -5    5.51    1.32
  -5   5   5    9.80    1.40
   5   5  -5    8.75    1.25
   5  -5  -5    7.44    1.10
   5  -5  -5    8.17    1.06
  -5   5   4    4.49    1.28
   5  -5  -4    4.63    1.45
   5   5  -4    4.76    1.23
  -5   5   4    5.16    0.95
   5  -5  -4    4.43    1.12
   5  -5  -4    4.64    1.37
   5  -5  -4    4.15    1.07
   5   5  -3   18.16    1.67
   5  -5  -3   20.57    1.87
  -5   5   3   16.05    1.85
  -5   5   3   16.64    1.41
  -5   5   3   18.07    1.59
   5  -5  -3   18.77    1.75
   5   5  -2  138.80    6.02
   5  -5  -2  148.55    6.02
  -5   5   2  145.22    6.07
  -5   5   2  143.03    5.95
  -5   5   2  143.99    5.94
   5  -5  -2  146.34    6.02
   5   5  -1   13.64    1.64
   5  -5  -1   12.69    1.81
  -5   5   1   15.19    1.81
  -5   5   1   14.51    1.61
  -5   5   1   15.73    1.52
   5  -5  -1   15.35    1.92
  -5   5   0   17.57    1.63
  -5   5   0   16.85    1.64
   5  -5   0   16.33    1.80
  -5   5   0   16.40    1.82
   5   5   0   14.09    1.76
   5   5   1   33.22    2.27
   5  -5   1   34.86    2.27
  -5   5  -1   33.05    2.22
  -5   5  -1   33.39    2.07
   5  -5   1   37.91    2.46
  -5   5  -2    5.57    1.26
   5  -5   2    3.47    1.42
  -5   5  -2    6.25    1.50
  -5   5  -2    5.70    1.22
   5  -5   2    5.61    1.65
  -5   5  -3   42.02    2.26
   5  -5   3   42.41    2.46
   5   5   3   40.43    2.52
  -5   5  -3   38.14    2.19
  -5   5  -4   38.72    2.12
   5  -5   4   42.19    2.34
   5   5   4   42.58    2.33
  -5   5  -4   35.25    1.95
   5  -5   5   21.28    1.71
   5   5   5   21.04    1.67
  -5   5  -5   19.87    1.42
   5  -5   6   37.62    2.00
   5   5   6   37.76    1.99
  -5   6   1   13.83    0.86
  -6   0  13   91.00    3.81
   6   0 -13   89.48    3.81
   6   0 -13   91.56    3.89
  -6   0  12    1.01    1.10
   6   0 -12    0.32    1.58
   6   0 -12    0.60    0.83
   6   0 -11   43.13    2.39
   6   0 -11   45.92    3.01
   6   0 -11   47.23    2.55
   6   0 -10    5.01    1.30
   6   0 -10    5.22    1.41
   6   0 -10    6.75    2.28
  -6   0   9   14.77    4.23
   6   0  -9   21.93    1.84
   6   0  -9   22.21    2.03
   6   0  -9   20.72    4.48
   6   0  -9   23.33    1.83
   6   0  -9   21.93    2.57
   6   0  -8    2.93    2.07
   6   0  -8    4.40    1.48
  -6   0   8    5.17    4.28
   6   0  -8    3.27    1.29
   6   0  -8    2.93    1.20
   6   0  -8    4.87    3.07
   6   0  -7  279.60   10.62
   6   0  -7  254.12   10.39
   6   0  -7  259.07   13.83
   6   0  -7  273.48   10.42
   6   0  -7  252.05   10.27
   6   0  -7  261.74   10.20
   6   0  -7  260.18   10.38
   6   0  -6  112.12    4.96
   6   0  -6  116.42    5.02
  -6   0   6  111.34    8.71
   6   0  -6  115.85    5.01
   6   0  -6  113.55    7.62
   6   0  -6  122.23    4.92
   6   0  -6  120.34    5.02
   6   0  -6  115.38    4.76
   6   0  -6  111.74    4.68
   6   0  -5    6.90    2.00
   6   0  -5    7.00    0.95
   6   0  -5    7.41    0.96
  -6   0   5    6.26    2.63
   6   0  -5    5.76    0.97
   6   0  -5    7.75    0.95
   6   0  -5    7.50    1.04
   6   0  -5    6.83    0.72
   6   0  -5    5.55    0.67
   6   0  -4  842.19   34.51
   6   0  -4  824.55   29.90
  -6   0   4  797.27   33.74
   6   0  -4  823.02   32.60
   6   0  -4  819.94   29.90
   6   0  -4  771.54   29.86
   6   0  -4  777.31   29.73
  -6   0   3  617.92   27.01
   6   0  -3  650.87   23.85
   6   0  -3  639.33   23.81
   6   0  -3  657.90   23.87
   6   0  -3  624.53   23.79
   6   0  -3  610.13   25.17
   6   0  -3  602.13   23.75
   6   0  -3  623.55   23.70
   6   0  -3  655.96   27.92
   6   0  -3  655.97   23.83
  -6   0   2  773.19   32.89
   6   0  -2  803.86   30.13
   6   0  -2  864.62   34.36
   6   0  -2  865.77   34.17
   6   0  -2  806.48   30.01
   6   0  -2  778.12   31.39
   6   0  -1  293.67   13.01
  -6   0   1  331.57   15.38
  -6   0   1  301.86   14.01
   6   0  -1  324.79   15.52
   6   0  -1  340.19   15.40
   6   0  -1  312.74   11.79
   6   0  -1  301.74   11.71
   6   0   0   43.54    3.23
  -6   0   0   57.18    4.71
  -6   0   0   44.36    3.48
   6   0   0   49.56    4.76
   6   0   0   62.90    5.04
   6   0   0   45.38    2.19
   6   0   0   45.55    2.13
   6   0   1  325.60   15.15
   6   0   1  311.80   15.19
   6   0   1  303.30   11.59
   6   0   1  298.20   11.54
  -6   0  -1  313.01   14.62
  -6   0  -2   10.21    2.24
  -6   0  -2   12.74    2.49
   6   0   2    9.90    2.68
   6   0   2   15.55    3.00
   6   0   2   10.39    0.87
   6   0   2    9.67    0.86
   6   0   2    9.26    0.90
   6   0   2    9.48    0.88
   6   0   3  101.45    4.02
  -6   0  -3   91.00    6.11
  -6   0  -3   86.99    6.46
   6   0   3   99.24    3.99
   6   0   3   94.50    7.13
   6   0   3   91.26    3.99
   6   0   3   91.36    4.04
   6   0   3   95.22    4.00
   6   0   3   94.22    3.96
   6   0   3   92.79    3.93
   6   0   4  384.00   14.13
  -6   0  -4  360.37   17.49
  -6   0  -4  357.78   16.51
   6   0   4  385.76   14.11
   6   0   4  412.23   18.78
   6   0   4  354.65   14.16
   6   0   4  365.38   14.12
   6   0   4  366.64   14.08
   6   0   4  356.10   14.06
   6   0   5    8.51    1.02
   6   0   5    8.11    1.11
   6   0   5   10.15    1.14
   6   0   5    9.57    0.98
   6   0   6   46.97    2.42
  -6   0  -6   43.02    5.35
   6   0   6   42.96    5.47
   6   0   6   42.59    2.56
   6   0   6   41.62    2.44
   6   0   6   43.72    2.59
   6   0   6   45.74    2.39
  -6   0  -7    5.58    3.53
   6   0   7    7.40    1.87
   6   0   7    8.92    1.61
   6   0   7   14.44    4.16
   6   0   7    8.03    1.92
   6   0   7    9.06    1.53
   6   0   7    7.61    1.86
   6   0   7   10.62    1.44
  -6   0  -8   80.08    8.10
   6   0   8   76.28    3.58
  -6   0  -8   64.84    7.32
   6   0   8   74.19    3.88
   6   0   8   75.60    7.70
  -6   0  -8   69.20    3.22
   6   0   8   66.63    3.58
   6   0   8   73.84    3.95
   6   0   8   70.94    3.89
   6   0   8   75.48    3.72
   6   0   9   27.09    2.03
  -6   0  -9   22.02    5.32
   6   0   9   25.02    2.61
   6   0   9   23.78    2.43
  -6   0  -9   24.16    1.56
   6   0   9   25.03    1.98
   6   0   9   18.84    4.58
   6   0  10    0.20    1.35
  -6   0 -10    1.26    0.91
   6   0  10    2.01    1.94
   6   0  10   -0.98    1.75
  -6   0 -11  114.31    4.74
   6   0  11  117.23    4.93
  -6   0 -11  112.47    5.09
   6   0  11  113.04    4.95
   6   0  12   62.51    2.79
  -6   0 -12   57.21    2.62
   6   0  12   59.05    2.75
  -6   0 -12   59.58    2.96
  -6   0 -13    1.66    0.93
   6   0  13    1.55    0.70
   6   0  13    0.92    0.88
   6   0  13    1.49    0.74
   6   1 -13   11.14    1.16
   6  -1 -13   12.48    1.13
   6  -1 -13   11.87    1.16
   6   1 -13   11.88    1.04
   6  -1 -13   11.96    0.98
  -6  -1  13   10.49    0.95
  -6   1  13   10.92    0.99
   6  -1 -13    9.08    0.81
   6  -1 -12   13.91    1.60
   6   1 -12   15.08    1.68
   6   1 -12   15.42    1.69
   6   1 -12   16.69    1.41
   6  -1 -12   16.72    1.37
   6  -1 -12   14.96    1.70
  -6  -1  12   15.51    1.30
  -6   1  12   16.95    1.44
   6  -1 -12   14.82    1.27
   6  -1 -11   73.66    3.34
   6   1 -11   71.77    3.59
   6  -1 -11   69.50    3.51
   6   1 -11   69.69    3.63
   6  -1 -11   69.11    3.32
   6  -1 -11   68.04    3.64
   6   1 -10    5.26    1.10
   6  -1 -10    5.16    1.37
   6  -1 -10    5.56    1.45
   6   1 -10    6.72    2.04
   6   1 -10    4.63    2.07
   6  -1 -10    4.34    2.04
   6  -1  -9   12.39    4.25
  -6  -1   9    8.89    4.66
  -6   1   9    8.00    4.75
   6  -1  -9   13.89    1.76
   6   1  -9   15.21    1.52
   6  -1  -9   16.80    1.82
   6  -1  -9   15.58    1.67
   6  -1  -9   20.68    5.35
   6   1  -9    4.84    4.78
   6   1  -9   13.45    2.26
   6  -1  -9   13.75    2.21
   6  -1  -8   31.47    6.20
   6   1  -8   27.05    5.64
   6   1  -8   31.44    2.55
   6  -1  -8   27.11    2.60
   6  -1  -8   29.97    2.14
  -6  -1   8   24.08    4.77
  -6   1   8   25.31    5.77
  -6   1   8   19.77    4.29
   6   1  -8   27.56    1.98
   6  -1  -8   36.65    2.33
   6  -1  -8   27.29    1.98
   6  -1  -8   28.13    5.05
   6  -1  -8   32.98    2.06
   6   1  -8   29.85    2.28
   6  -1  -7   80.75    3.60
   6   1  -7   72.61    3.67
   6  -1  -7   70.23    7.82
   6   1  -7   76.97    7.83
   6   1  -7   74.80    3.79
   6  -1  -7   79.74    3.83
  -6   1   7   72.30    7.78
  -6  -1   7   63.11    7.37
  -6  -1   7   64.50    6.40
   6  -1  -7   72.56    3.54
  -6   1   7   53.82    6.45
   6  -1  -7   80.09    7.27
   6   1  -7   78.24    3.60
   6  -1  -7   77.32    3.70
   6   1  -7   74.24    3.46
   6  -1  -7   76.24    3.45
   6  -1  -7   73.02    3.54
   6   1  -6   17.20    1.56
   6  -1  -6   16.76    1.38
   6  -1  -6   19.59    3.77
   6  -1  -6   13.40    4.20
   6   1  -6   18.16    4.24
   6   1  -6   19.09    1.68
   6  -1  -6   20.61    1.69
  -6  -1   6   21.70    4.73
  -6  -1   6   14.43    3.04
  -6   1   6   15.08    4.28
   6  -1  -6   15.83    1.40
  -6   1   6   15.90    4.01
   6   1  -6   14.68    1.42
   6   1  -6   16.78    1.54
   6   1  -6   16.71    1.27
   6  -1  -6   17.13    1.29
   6  -1  -6   17.06    1.74
   6   1  -6   16.39    1.68
   6  -1  -6   15.41    1.46
   6   1  -5  206.68    8.40
   6  -1  -5  209.31    8.38
   6  -1  -5  228.73   12.83
   6   1  -5  232.86   12.73
   6   1  -5  217.80    8.42
   6  -1  -5  207.94    8.42
  -6   1   5  194.09   11.98
  -6  -1   5  196.29   12.29
  -6  -1   5  180.73   10.80
   6   1  -5  208.90    8.47
  -6   1   5  228.58   12.70
   6  -1  -5  210.68    8.44
   6  -1  -5  226.71   12.12
   6   1  -5  210.66    8.49
   6  -1  -5  215.64    8.30
   6   1  -5  218.75    8.52
   6  -1  -5  219.47    8.45
   6   1  -5  215.53    8.42
   6  -1  -5  204.51    8.23
   6  -1  -5  214.82    8.33
   6   1  -4   77.21    3.49
   6  -1  -4   83.15    3.50
   6  -1  -4   72.68    5.66
   6  -1  -4   77.69    6.52
   6   1  -4   89.26    6.80
   6   1  -4   81.68    3.52
   6  -1  -4   81.05    3.51
  -6   1   4   80.15    6.46
  -6  -1   4   91.72    6.98
  -6  -1   4   68.95    5.33
   6  -1  -4   79.82    3.55
  -6   1   4   83.16    6.90
   6   1  -4   74.94    3.54
   6  -1  -4   78.62    3.29
   6  -1  -4   78.89    6.13
   6   1  -4   83.54    3.61
   6   1  -4   80.12    3.61
   6  -1  -4   76.69    3.41
   6  -1  -4   86.45    3.55
   6   1  -4   78.93    3.50
   6  -1  -4   81.34    3.45
   6  -1  -3  142.36    8.26
   6   1  -3  141.58    5.79
   6  -1  -3  135.98    5.77
   6   1  -3  150.96    5.85
   6  -1  -3  142.62    5.82
   6  -1  -3  149.53    9.14
   6   1  -3  146.30    8.99
  -6   1   3  138.38    8.63
  -6  -1   3  147.84    8.99
  -6   1   3  141.84    9.39
   6   1  -3  145.71    5.85
   6  -1  -3  148.06    5.88
   6  -1  -3  140.58    5.64
   6   1  -3  145.14    5.92
   6  -1  -3  155.21    5.88
   6  -1  -3  143.58    5.82
   6   1  -3  145.30    5.81
   6   1  -3  141.55    5.87
   6  -1  -3  140.62    5.78
   6   1  -2  405.91   15.87
   6  -1  -2  413.55   15.86
   6  -1  -2  427.98   18.59
   6   1  -2  436.65   15.94
   6  -1  -2  421.11   15.93
   6  -1  -2  441.13   19.70
   6   1  -2  430.13   19.48
  -6   1   2  396.38   18.54
  -6  -1   2  407.03   19.10
   6  -1  -2  406.27   15.77
   6  -1  -2  419.84   15.91
   6  -1  -2  425.16   15.91
   6   1  -2  418.52   15.89
   6   1  -2  439.64   15.98
   6  -1  -2  416.62   15.89
   6  -1  -1  213.29   10.51
   6   1  -1  204.71   11.34
   6  -1  -1  217.28   11.52
   6  -1  -1  205.28   11.15
   6   1  -1  209.74   11.17
  -6   1   1  203.93   10.14
  -6   1   1  207.75   11.51
   6  -1  -1  202.23    7.92
   6   1  -1  209.44    8.14
   6   1  -1  207.52    8.08
   6  -1  -1  200.53    8.02
   6   1  -1  204.81    8.01
   6  -1  -1  203.26    8.02
   6   1  -1  210.42    8.09
   6   1   0   53.42    4.78
   6  -1   0   47.71    4.62
   6  -1   0   55.27    4.78
   6   1   0   55.83    4.69
   6   1   0   45.66    2.27
  -6   1   0   45.55    4.61
   6  -1   0   44.53    2.14
   6   1   0   48.91    2.35
   6   1   0   46.14    2.29
   6  -1   0   51.77    2.27
   6   1   0   47.66    2.22
   6  -1   0   60.53    4.44
   6  -1   1   40.19    3.79
   6  -1   1   48.24    4.48
   6   1   1   46.20    4.35
   6   1   1   47.72    4.57
   6   1   1   39.76    1.87
   6  -1   1   38.08    4.08
  -6  -1  -1   35.93    3.18
  -6   1  -1   38.48    4.28
   6  -1   1   39.48    1.85
   6  -1   1   40.86    1.92
   6   1   1   35.20    1.98
   6   1   1   34.96    1.87
   6  -1   1   39.13    1.90
   6   1   1   33.94    1.85
   6   1   1   38.19    1.80
   6  -1   1   39.91    1.81
   6  -1   1   39.25    1.92
   6   1   1   33.96    1.94
   6  -1   2   95.71    4.05
   6   1   2  103.08    4.08
   6  -1   2  106.40    6.65
   6   1   2   96.27    7.17
   6   1   2   94.34    4.02
   6  -1   2   96.42    4.02
   6  -1   2  108.32    7.28
  -6  -1  -2   82.26    5.62
  -6  -1  -2   91.12    5.92
  -6   1  -2   95.27    6.85
   6  -1   2   97.15    4.04
   6   1   2   99.73    4.02
   6   1   2   92.22    4.06
   6   1   2   97.34    4.16
   6  -1   2   98.21    4.06
   6   1   2   99.76    4.05
   6   1   2   97.03    4.02
   6  -1   2   94.06    3.98
   6   1   2   99.27    4.15
   6  -1   3   94.38    3.95
   6   1   3   83.73    3.90
   6   1   3  100.08    7.23
   6   1   3   93.79    3.93
   6  -1   3   93.03    3.93
   6  -1   3   98.91    7.18
  -6   1  -3   92.69    7.15
  -6  -1  -3   75.54    5.57
  -6   1  -3   82.06    6.48
   6  -1   3   99.84    3.96
   6   1   3   93.63    3.93
   6   1   3   95.52    3.95
   6   1   3   91.15    4.02
   6  -1   3   95.10    3.95
   6   1   3   90.27    3.94
   6   1   3   93.78    3.95
   6   1   3   93.80    3.93
   6  -1   3   91.22    3.92
   6   1   3  102.57    4.08
   6  -1   4   19.67    1.29
   6   1   4   18.36    1.33
   6   1   4   17.33    3.54
   6  -1   4   22.09    3.69
   6   1   4   20.73    1.32
   6  -1   4   21.89    1.34
  -6   1  -4   18.34    3.84
  -6  -1  -4   18.57    2.80
  -6   1  -4   15.79    2.95
   6   1   4   18.53    1.33
   6   1   4   18.47    1.29
   6   1   4   18.70    1.36
   6   1   4   19.58    1.37
   6  -1   4   17.94    1.34
   6  -1   4   20.41    1.34
   6   1   4   19.55    1.32
   6   1   4   20.66    1.37
   6   1   4   20.56    1.43
   6  -1   4   19.59    1.34
  -6  -1  -5  126.28    9.07
   6  -1   5  134.94    5.28
   6   1   5  117.59    5.23
   6   1   5  126.01    5.26
   6   1   5  138.94    9.38
   6  -1   5  129.73    9.06
  -6   1  -5  124.69    9.16
  -6  -1  -5  119.76    7.83
  -6   1  -5  122.60    8.11
   6   1   5  125.20    5.33
   6   1   5  125.57    5.20
   6   1   5  126.61    5.35
   6  -1   5  122.31    5.30
   6   1   5  127.72    5.34
   6  -1   5  130.73    5.31
   6   1   5  126.85    5.29
   6   1   5  125.10    5.42
   6  -1   5  129.97    5.33
   6  -1   6  259.82    9.96
   6   1   6  256.52    9.96
  -6  -1  -6  282.99   15.02
  -6   1  -6  245.48   14.62
  -6  -1  -6  244.68   13.29
   6   1   6  253.01   14.34
   6   1   6  245.38   10.05
   6   1   6  254.55   14.72
   6  -1   6  269.66   14.74
   6   1   6  250.94    9.87
   6  -1   6  253.09   10.00
   6   1   6  246.92   10.00
   6  -1   6  246.45   10.01
   6  -1   6  249.02   10.05
   6   1   6  260.05   10.14
   6  -1   7  333.65   12.88
   6   1   7  338.20   12.89
  -6  -1  -7  360.90   18.42
  -6   1  -7  335.85   18.20
   6   1   7  334.18   17.80
   6  -1   7  332.61   12.99
   6   1   7  355.10   18.32
   6  -1   7  350.79   18.16
   6   1   7  316.80   12.71
   6   1   7  319.46   12.94
   6  -1   7  331.45   12.95
   6   1   7  337.93   12.91
   6  -1   7  324.01   12.93
   6   1   7  332.64   13.06
  -6   1  -8   14.09    5.31
   6  -1   8    9.36    2.19
   6   1   8    9.84    2.31
   6   1   8   12.39    2.42
   6  -1   8   10.87    1.42
   6   1   8    9.79    1.63
  -6   1  -8   15.60    5.03
  -6  -1  -8   11.74    4.85
  -6  -1  -8   11.56    1.11
  -6   1  -8   11.32    1.11
   6   1   8   12.57    1.36
   6   1   8   10.14    1.65
   6  -1   8   10.81    2.18
   6   1   8   10.11    2.12
   6  -1   8   11.53    2.02
   6   1   8    3.26    3.30
   6  -1   8   12.56    3.79
   6  -1   9   39.74    5.78
   6  -1   9   45.22    3.04
   6   1   9   50.03    3.20
   6   1   9   47.81    3.39
  -6  -1  -9   48.66    2.44
  -6   1  -9   49.95    2.45
   6   1   9   48.22    2.84
   6  -1   9   49.36    2.62
   6   1   9   47.97    2.78
   6   1  10   71.66    3.59
   6  -1  10   67.05    3.49
   6   1  10   67.25    3.75
  -6  -1 -10   67.61    3.07
  -6   1 -10   63.09    3.04
   6   1  10   61.61    3.32
   6  -1  10   70.24    3.24
   6   1  10   69.59    3.36
  -6  -1 -11    3.22    1.58
  -6   1 -11    3.58    1.62
   6   1  11    2.77    1.19
   6  -1  11    3.46    0.97
   6  -1  11    2.53    1.42
   6   1  11    5.26    1.76
   6   1  11    3.82    1.64
  -6   1 -11    3.37    0.86
  -6  -1 -11    3.74    0.85
   6   1  11    2.27    1.09
   6  -1  11    4.00    0.96
   6   1  11    4.72    1.24
   6   1  12   11.45    1.49
   6  -1  12   11.95    1.18
  -6   1 -12   11.64    0.98
  -6  -1 -12   10.72    0.98
  -6  -1 -12   10.24    1.35
  -6   1 -12   11.61    1.41
   6   1  12   13.37    1.16
   6  -1  12   11.48    1.06
   6  -1  12   14.89    1.12
   6   1  12   12.59    1.18
   6   1  12   13.23    1.44
   6  -1  13   33.04    1.74
   6   1  13   39.29    1.76
  -6  -1 -13   43.22    1.85
  -6   1 -13   39.90    1.84
   6  -1  13   42.37    1.79
   6   1  13   43.18    1.83
   6   1  13   45.05    1.92
  -6  -1 -13   34.55    1.80
   6   2 -13    1.95    0.60
   6  -2 -12   21.94    1.42
   6   2 -12   26.32    1.56
   6  -2 -12   25.02    1.46
   6  -2 -12   26.61    1.51
  -6   2  11   15.31    1.50
  -6  -2  11   14.92    1.19
   6  -2 -11   19.16    1.47
   6  -2 -11   19.67    1.60
   6   2 -11   17.44    1.56
   6  -2 -11   16.49    1.40
   6  -2 -11   16.38    1.55
   6  -2 -10   52.69    2.83
  -6   2  10   52.64    2.84
   6  -2 -10   52.41    2.87
   6  -2 -10   60.59    2.93
   6  -2 -10   51.35    2.86
   6  -2 -10   54.42    2.68
  -6  -2  10   48.47    2.52
   6  -2  -9   59.74    3.25
  -6   2   9   61.33    3.25
   6  -2  -9   53.09    3.13
   6   2  -9   55.83    3.08
   6  -2  -9   57.14    2.93
   6   2  -9   59.77    3.14
   6  -2  -9   59.64    3.18
   6  -2  -8   10.11    4.41
   6   2  -8   12.06    1.94
   6  -2  -8   11.53    1.93
   6  -2  -8    8.44    4.09
   6   2  -8    8.74    3.69
  -6  -2   8    3.15    4.52
  -6   2   8    9.51    1.01
  -6  -2   8    7.91    4.36
  -6   2   8    8.74    5.05
   6   2  -8   11.19    1.30
   6   2  -8   13.37    1.80
   6  -2  -8   13.20    1.55
   6  -2  -8   13.03    2.06
   6   2  -8   11.10    1.84
   6  -2  -8    8.69    1.96
   6  -2  -7  146.02    5.74
   6   2  -7  133.87    5.81
   6  -2  -7  137.37   10.11
   6   2  -7  128.02    9.56
   6   2  -7  146.45    5.93
   6  -2  -7  131.31    5.88
  -6   2   7  112.74   10.32
  -6  -2   7  106.31    9.26
  -6   2   7  129.33    5.60
   6  -2  -7  137.21    5.75
  -6   2   7  112.68    9.00
   6  -2  -7  141.85    5.65
  -6   2   7  137.85    9.45
   6   2  -7  135.54    5.85
   6  -2  -7  136.97    5.93
   6   2  -7  136.84    5.84
   6   2  -7  147.28    6.01
   6  -2  -7  138.35    5.81
   6  -2  -7  144.43    6.01
   6  -2  -6  270.83   10.27
   6   2  -6  255.42   10.29
   6   2  -6  274.93   10.38
   6  -2  -6  256.36   10.33
   6  -2  -6  253.28   14.66
   6   2  -6  257.32   14.29
  -6  -2   6  230.45   15.05
  -6   2   6  235.71   15.16
  -6   2   6  226.75   14.10
  -6   2   6  254.60   10.20
   6  -2  -6  256.03   10.31
  -6  -2   6  212.35   13.78
   6  -2  -6  271.76   10.19
   6   2  -6  250.66   10.41
   6  -2  -6  263.04   10.35
   6   2  -6  263.14   10.28
   6   2  -6  274.32   10.46
   6  -2  -6  261.05   10.27
   6  -2  -6  274.44   10.46
   6   2  -5   62.11    3.02
   6  -2  -5   64.21    2.94
   6  -2  -5   68.72    6.68
   6   2  -5   68.65    3.14
   6  -2  -5   64.16    3.09
   6  -2  -5   69.66    6.49
   6   2  -5   65.55    6.09
  -6  -2   5   56.16    7.14
  -6   2   5   49.39    6.31
   6  -2  -5   63.47    3.06
  -6   2   5   61.95    2.97
  -6   2   5   66.48    6.74
  -6  -2   5   51.78    5.72
   6  -2  -5   66.70    3.01
   6   2  -5   64.89    3.33
   6   2  -5   62.52    3.19
   6  -2  -5   66.33    3.11
   6   2  -5   62.25    3.02
   6   2  -5   63.80    3.17
   6  -2  -5   65.61    3.01
   6  -2  -5   67.51    3.32
   6   2  -4 1177.80   44.57
   6  -2  -4 1188.27   44.56
   6  -2  -4 1250.30   49.33
   6   2  -4 1274.09   44.64
   6  -2  -4 1102.17   44.56
   6   2  -4 1242.91   48.78
   6  -2  -4 1252.73   49.15
  -6   2   4 1144.10   49.19
  -6   2   4 1093.42   49.17
   6  -2  -4 1211.90   44.67
  -6   2   4 1173.37   44.61
  -6  -2   4 1086.45   48.18
   6  -2  -4 1232.63   44.54
   6   2  -4 1186.64   44.78
   6   2  -4 1219.16   44.81
   6  -2  -4 1200.02   44.59
   6   2  -4 1181.44   44.55
   6  -2  -4 1166.78   44.52
   6   2  -4 1218.30   44.66
   6   2  -4 1299.81   44.85
   6   2  -3  531.53   20.00
   6  -2  -3  514.85   19.96
   6  -2  -3  580.01   24.57
   6  -2  -3  588.04   24.35
   6   2  -3  557.18   23.79
   6  -2  -3  470.40   22.85
  -6   2   3  522.91   23.98
  -6   2   3  491.68   24.38
   6  -2  -3  538.16   20.11
  -6  -2   3  478.93   23.09
  -6   2   3  510.39   20.05
   6  -2  -3  556.44   20.00
   6   2  -3  549.68   20.19
   6   2  -3  544.02   20.26
   6  -2  -3  547.18   20.02
   6   2  -3  514.64   19.96
   6   2  -3  525.13   20.06
   6   2  -3  533.52   20.24
   6  -2  -3  519.16   19.86
   6  -2  -2   27.81    3.96
   6   2  -2   29.47    1.50
   6  -2  -2   23.66    1.37
   6  -2  -2   27.43    3.68
   6   2  -2   25.80    3.55
   6  -2  -2   22.09    3.40
  -6  -2   2   18.21    2.96
  -6   2   2   27.67    3.58
  -6   2   2   21.67    4.13
   6  -2  -2   26.05    1.50
  -6   2   2   26.48    1.54
  -6   2   2   23.01    1.46
   6   2  -2   26.81    1.68
   6   2  -2   26.04    1.73
   6  -2  -2   24.50    1.43
   6   2  -2   25.10    1.43
   6   2  -2   24.79    1.48
   6   2  -2   28.99    1.78
   6  -2  -2   26.09    1.60
   6  -2  -2   24.89    1.34
   6   2  -1  210.05    8.23
   6  -2  -1  204.58    8.20
   6  -2  -1  221.20   11.96
   6   2  -1  213.75   11.30
   6  -2  -1  200.55   11.29
  -6   2   1  201.22   10.82
  -6   2   1  200.86   10.66
   6  -2  -1  210.93   11.76
   6  -2  -1  214.68    8.29
  -6   2   1  213.40    8.24
  -6   2   1  209.37    8.31
   6   2  -1  222.06    8.56
   6   2  -1  211.02    8.37
   6  -2  -1  193.43    8.21
   6  -2  -1  212.88    8.25
   6   2  -1  211.14    8.22
   6   2  -1  215.28    8.23
   6   2  -1  231.70    8.51
   6  -2  -1  212.83    8.20
   6  -2  -1  219.98    8.38
   6  -2   0   23.25    3.76
   6   2   0   24.00    1.32
   6  -2   0   23.22    1.29
   6   2   0   23.63    3.61
   6  -2   0   20.09    3.18
   6   2   0   28.30    3.39
   6  -2   0   20.65    3.18
  -6   2   0   17.76    2.74
  -6   2   0   19.42    4.00
   6  -2   0   22.77    1.40
  -6   2   0   24.36    1.31
   6  -2   0   21.56    1.30
   6   2   0   22.86    1.43
   6  -2   0   22.46    1.33
   6   2   0   22.17    1.30
   6  -2   0   23.17    1.45
   6   2   0   23.52    1.59
   6  -2   0   22.66    1.30
   6   2   1  281.11   11.03
   6  -2   1  275.50   11.01
   6  -2   1  290.67   14.83
   6   2   1  296.46   14.71
   6  -2   1  296.39   14.55
  -6   2  -1  258.35   13.59
   6  -2   1  268.59   13.82
  -6   2  -1  300.15   15.65
   6  -2   1  295.45   11.14
   6  -2   1  298.15   11.12
   6   2   1  279.82   11.10
   6  -2   1  295.32   11.07
   6   2   1  284.94   11.03
   6  -2   1  295.90   11.08
   6  -2   1  295.78   11.18
   6   2   1  278.94   11.02
   6   2   1  305.28   11.30
   6  -2   2   32.19    4.37
  -6  -2  -2   30.61    3.48
   6   2   2   26.59    1.48
   6  -2   2   24.80    1.44
   6   2   2   27.89    3.92
   6  -2   2   24.31    3.57
   6  -2   2   28.11    3.73
  -6   2  -2   25.84    3.37
  -6   2  -2   27.73    4.41
   6   2   2   25.73    1.50
   6   2   2   29.97    1.88
   6   2   2   25.65    1.53
   6   2   2   27.58    1.53
   6  -2   2   28.76    1.52
   6   2   2   28.23    1.50
   6  -2   2   26.38    1.60
   6   2   2   27.53    1.52
   6   2   2   29.82    1.89
  -6  -2  -3   53.41    5.21
   6  -2   3   71.91    6.37
   6   2   3   58.43    2.73
   6  -2   3   61.65    5.68
   6  -2   3   59.70    2.73
   6   2   3   60.83    5.62
  -6   2  -3   45.66    4.90
   6  -2   3   48.95    5.58
  -6   2  -3   75.35    6.67
   6  -2   3   61.85    2.97
   6   2   3   63.01    2.85
   6   2   3   64.01    3.12
   6   2   3   60.86    2.76
   6   2   3   59.39    2.84
   6  -2   3   63.47    2.78
   6   2   3   60.41    2.74
   6  -2   3   63.17    2.93
   6   2   3   61.09    2.81
   6  -2   4  186.01    7.26
   6   2   4  173.85    7.25
  -6  -2  -4  187.35   11.09
  -6   2  -4  161.60   10.39
  -6   2  -4  175.05   11.32
   6   2   4  187.31    7.26
   6   2   4  200.49   11.42
   6  -2   4  180.28    7.23
   6  -2   4  184.44   11.00
   6   2   4  170.98   10.11
   6  -2   4  176.46    7.44
   6   2   4  189.81    7.42
   6   2   4  186.56    7.28
   6   2   4  190.30    7.39
   6  -2   4  177.75    7.27
   6  -2   4  183.35    7.45
   6   2   4  185.75    7.36
   6  -2   5  161.86    6.45
   6   2   5  164.72    6.49
  -6  -2  -5  188.64   11.05
  -6   2  -5  130.91    9.61
  -6   2  -5  153.83   10.77
   6  -2   5  165.09    6.44
   6   2   5  147.57   10.10
   6  -2   5  155.24   10.19
   6   2   5  156.56    6.45
   6   2   5  177.75   10.26
   6   2   5  164.88    6.71
   6  -2   5  153.10    6.49
   6   2   5  156.06    6.49
   6   2   5  165.99    6.62
   6  -2   5  166.70    6.68
   6  -2   5  158.21    6.74
   6   2   5  163.50    6.64
   6   2   5  149.06    6.36
   6  -2   6  547.76   19.79
   6   2   6  511.25   19.77
  -6  -2  -6  571.09   25.29
  -6   2  -6  457.34   23.93
  -6   2  -6  490.34   24.36
   6   2   6  530.43   19.77
   6   2   6  552.42   24.82
   6  -2   6  528.44   24.59
   6  -2   6  520.19   19.74
   6   2   6  536.00   19.96
   6   2   6  474.89   19.66
   6   2   6  528.90   19.93
   6  -2   6  521.31   19.82
   6   2   6  534.49   19.80
   6  -2   6  523.11   19.89
   6   2   6  528.68   20.01
   6   2   6  559.11   24.63
   6  -2   7  308.24   11.45
   6   2   7  291.81   11.44
  -6  -2  -7  323.27   16.98
  -6   2  -7  245.96   15.37
   6   2   7  276.18   15.92
   6  -2   7  314.16   11.79
   6   2   7  297.09   11.70
   6   2   7  268.92   11.35
   6   2   7  293.21   11.66
   6  -2   7  299.03   11.53
   6  -2   7  298.04   11.57
   6   2   7  292.35   11.49
   6  -2   7  301.83   16.13
   6   2   7  293.26   11.43
   6  -2   7  300.43   11.41
   6   2   7  250.66   15.55
   6   2   8  463.30   17.82
   6  -2   8  475.01   17.82
   6   2   8  471.37   18.08
   6  -2   8  490.14   18.14
  -6   2  -8  435.48   17.77
   6  -2   8  456.60   17.90
   6  -2   8  489.87   17.86
   6   2   8  480.78   17.86
   6   2   9   19.96    1.62
   6  -2   9   17.19    1.35
  -6   2  -9   17.79    1.93
   6  -2   9   17.74    2.20
   6   2   9   21.28    2.38
  -6   2  -9   17.77    1.33
   6   2   9   21.41    1.92
   6  -2   9   19.32    1.83
   6  -2   9   22.20    1.44
   6   2   9   20.56    1.67
   6  -2  10   63.55    2.96
  -6  -2 -10   69.14    3.19
   6  -2  10   68.97    3.27
   6   2  10   72.47    3.54
  -6   2 -10   66.45    2.98
  -6  -2 -10   62.59    2.97
   6   2  10   69.99    3.27
   6  -2  10   68.94    2.99
   6  -2  11   52.43    2.53
  -6  -2 -11   58.93    2.69
   6   2  11   61.96    2.94
  -6  -2 -11   60.19    2.60
  -6   2 -11   55.76    2.56
   6  -2  11   57.55    2.67
   6   2  11   66.18    2.85
   6  -2  11   62.47    2.58
  -6  -2 -12   19.03    1.27
   6   2  12   18.91    1.35
  -6  -2 -12   16.90    0.98
   6   3 -11   32.86    1.80
   6  -3 -11   35.47    1.68
   6  -3 -11   32.90    1.79
   6  -3 -11   35.56    1.83
   6  -3 -10    4.15    1.00
   6  -3 -10    3.08    1.28
  -6   3  10    3.47    1.16
  -6   3   9    7.45    0.91
   6  -3  -9    7.38    1.25
   6  -3  -9    7.43    1.71
  -6   3   9    6.33    1.54
   6  -3  -8   35.06    2.28
  -6   3   8   39.03    2.54
  -6   3   8   36.27    2.03
   6   3  -8   40.90    2.47
   6  -3  -8   38.93    2.28
   6  -3  -7   47.88    2.64
   6   3  -7   44.87    2.74
   6  -3  -7   44.42    2.51
  -6   3   7   41.55    2.32
   6  -3  -6    3.97    4.34
  -6  -3   6    0.54    4.42
  -6  -3   6    3.80    4.02
  -6   3   6    2.39    1.14
  -6   3   6   -0.53    4.22
   6  -3  -6    1.73    1.65
  -6   3   6    2.23    2.00
   6   3  -6    3.48    1.24
   6   3  -6    2.62    1.07
   6  -3  -6    3.48    1.37
   6   3  -6    3.34    1.59
   6  -3  -6    2.58    2.09
   6  -3  -5  494.02   22.76
  -6   3   5  418.65   22.04
  -6   3   5  413.93   16.71
  -6   3   5  343.64   20.55
   6  -3  -5  433.37   16.81
  -6   3   5  435.87   16.94
  -6  -3   5  372.22   21.11
   6  -3  -5  469.00   16.94
  -6   3   5  471.90   17.07
   6   3  -5  421.96   16.82
   6   3  -5  421.86   17.00
   6   3  -5  464.98   17.06
   6  -3  -5  442.18   16.89
   6  -3  -5  479.96   17.11
   6  -3  -5  450.02   16.72
   6  -3  -4   51.14    3.01
   6  -3  -4   47.44    2.46
  -6  -3   4   41.02    5.85
  -6   3   4   43.58    6.03
   6  -3  -4   49.98    2.40
  -6   3   4   47.16    2.60
  -6   3   4   47.76    6.20
   6  -3  -4   49.04    2.81
  -6   3   4   44.46    2.91
   6   3  -4   42.88    2.55
  -6   3   4   42.46    2.29
   6   3  -4   42.34    2.63
   6   3  -4   45.95    2.66
   6  -3  -4   43.18    2.45
   6  -3  -4   36.99    6.29
   6  -3  -3  253.83   14.55
   6  -3  -3  216.66   13.47
  -6   3   3  220.31   13.54
  -6   3   3  231.34   14.14
   6  -3  -3  252.28    9.48
  -6   3   3  235.88    9.57
  -6  -3   3  201.68   13.13
   6  -3  -3  257.99    9.57
  -6   3   3  245.27    9.58
   6   3  -3  225.04    9.41
  -6   3   3  228.70    9.39
   6   3  -3  221.63    9.52
   6   3  -3  244.15    9.70
   6   3  -3  248.36    9.56
   6  -3  -3  229.47    9.37
   6   3  -3  249.11    9.84
   6  -3  -3  244.51    9.40
   6  -3  -3  251.34    9.67
   6  -3  -2  151.60   10.71
   6  -3  -2  130.33   10.04
  -6   3   2  126.75   10.25
  -6  -3   2  109.77    9.14
  -6   3   2  147.34    6.17
   6  -3  -2  148.69    6.21
  -6   3   2  150.13    6.16
   6   3  -2  138.51    6.00
  -6   3   2  144.53    6.03
   6   3  -2  138.84    6.07
   6   3  -2  150.11    6.30
   6   3  -2  143.96    6.08
   6   3  -2  154.19    6.44
   6  -3  -2  151.57    6.02
   6  -3  -2  148.49    6.26
  -6   3   1   21.87    3.65
   6  -3  -1   23.42    5.14
  -6   3   1   27.65    2.00
  -6   3   1   28.87    5.43
  -6   3   1   27.71    2.09
   6   3  -1   29.19    1.88
   6   3  -1   30.77    1.94
  -6   3   1   28.23    1.88
   6   3  -1   29.08    2.22
   6  -3  -1   28.19    5.42
   6  -3  -1   29.63    2.28
   6   3  -1   28.38    2.58
   6  -3  -1   29.84    2.05
  -6   3   0   21.89    3.96
   6  -3   0   32.61    5.55
  -6   3   0   26.79    5.46
   6   3   0   35.00    2.15
  -6   3   0   37.66    2.19
   6   3   0   31.97    1.94
   6   3   0   38.55    2.44
  -6   3   0   36.88    2.16
   6  -3   0   35.10    5.86
   6  -3   0   37.91    2.45
   6   3   0   35.96    2.72
   6   3   0   36.91    2.12
   6  -3   0   33.89    2.23
  -6   3  -1   10.45    3.02
   6  -3   1    9.98    4.48
  -6  -3  -1   14.34    3.77
   6   3   1   17.79    2.22
  -6   3  -1   16.94    1.53
   6  -3   1   16.01    2.04
   6   3   1   13.94    1.55
  -6   3  -1   15.65    1.66
   6   3   1   15.31    1.81
   6  -3   1   14.21    1.77
   6   3   1   15.45    1.52
   6  -3   1   17.10    1.85
   6  -3   1   21.65    5.01
   6  -3   2   18.37    3.98
  -6   3  -2   17.74    4.89
  -6  -3  -2   28.56    4.93
  -6   3  -2   25.42    4.04
  -6   3  -2   24.34    5.52
  -6   3  -2   26.18    1.69
   6  -3   2   26.23    2.35
   6   3   2   23.72    1.93
  -6   3  -2   28.68    2.07
   6   3   2   25.17    1.57
   6  -3   2   29.14    2.27
   6   3   2   24.81    2.07
   6   3   2   24.18    1.88
   6   3   2   28.11    2.63
  -6  -3  -3  157.48   11.56
  -6   3  -3  152.32   10.81
  -6   3  -3  166.49   11.98
   6  -3   3  144.97   11.08
  -6   3  -3  183.81   12.60
   6  -3   3  182.07    7.61
  -6   3  -3  186.96    7.58
   6   3   3  180.84    7.27
   6  -3   3  186.53    7.55
   6   3   3  183.33    7.50
   6   3   3  193.30    7.78
   6   3   3  176.96    7.36
  -6  -3  -4  153.66   11.65
  -6   3  -4  138.70   10.52
  -6   3  -4  148.70   11.63
   6  -3   4  143.66   11.42
   6  -3   4  174.07    7.23
   6   3   4  170.85    7.00
   6   3   4  182.73    7.26
   6   3   4  184.32    7.52
   6   3   4  168.97    7.01
  -6   3  -4  143.07   11.74
  -6   3  -5   45.89    6.85
  -6   3  -5   43.27    5.42
  -6   3  -5   32.63    6.24
   6   3   5   48.65    2.65
   6  -3   5   47.01    2.78
   6   3   5   47.43    3.43
   6   3   5   44.76    3.02
   6   3   5   42.85    2.66
   6   3   6   35.85    2.33
   6  -3   6   33.10    2.40
   6  -3   6   36.77    2.89
   6   3   6   37.46    3.05
   6   3   6   32.60    2.70
   6   3   6   32.47    2.36
   6   3   7  374.17   13.89
   6  -3   7  333.60   13.68
   6  -3   7  368.22   14.02
   6   3   7  372.16   14.13
   6   3   7  363.63   14.00
  -6   3  -7  347.32   13.93
   6   3   8  113.11    4.90
   6  -3   8  112.99    5.16
   6   3   8  110.43    5.23
   6   3   8  108.42    5.07
  -6   3  -8  111.92    4.88
   6  -3   9   17.96    1.68
   6   3   9   20.79    2.17
   6   3   9   21.39    2.02
  -6   3  -9   20.83    1.64
   6  -3  10   17.58    1.30
   6   3  10   21.48    1.81
  -6  -3 -10   16.00    1.38
   6   3  10   21.42    1.69
  -6  -3 -10   17.95    1.17
   6   3  11   10.30    1.10
  -6  -3 -11    8.31    0.88
   6   3  11   11.25    1.18
   6   3  11   13.07    1.01
   6  -4 -10    2.25    0.59
   6  -4  -9    4.26    0.91
  -6   4   9    3.22    0.86
  -6   4   9    3.59    0.70
   6  -4  -9    4.69    1.05
   6  -4  -8    5.03    1.10
  -6   4   8    6.25    0.90
   6  -4  -8    6.44    1.36
   6  -4  -8    8.09    1.20
  -6   4   8    6.76    1.24
  -6   4   7   19.12    1.40
   6  -4  -7   20.08    1.71
  -6   4   7   18.01    1.74
   6   4  -7   16.23    1.58
   6  -4  -7   16.43    1.40
   6  -4  -7   19.25    1.81
  -6   4   6    4.17    1.13
   6  -4  -6    2.79    1.53
  -6   4   6    2.84    0.73
   6  -4  -6    4.32    1.22
   6   4  -6    4.25    1.46
   6  -4  -6    3.86    1.72
  -6   4   5   36.66    2.30
  -6   4   5   35.54    1.95
   6  -4  -5   42.76    2.58
  -6   4   5   39.08    2.64
   6  -4  -5   36.95    2.19
   6  -4  -5   43.03    2.67
  -6   4   4   89.45    4.00
  -6   4   4   92.33    4.25
  -6   4   4   92.37    4.37
   6   4  -4   95.72    4.20
   6  -4  -4   87.86    4.07
   6  -4  -4   94.25    4.12
   6  -4  -4   97.05    4.39
   6   4  -3    4.18    1.51
  -6   4   3    3.62    1.08
  -6   4   3    4.47    2.00
  -6   4   3    3.77    1.49
   6  -4  -3    3.10    1.62
   6  -4  -3    5.37    1.86
   6   4  -2   37.54    2.41
  -6   4   2   38.06    2.29
   6  -4  -2   37.59    2.89
  -6   4   2   37.07    2.74
   6  -4  -2   37.42    1.99
  -6   4   2   37.38    2.51
   6  -4  -2   37.99    2.69
   6  -4  -2   38.94    2.59
   6   4  -1   83.71    4.20
  -6   4   1   88.52    4.13
   6  -4  -1   90.40    4.26
   6   4  -1   85.31    4.49
   6  -4  -1   95.60    4.29
   6  -4  -1   91.37    4.48
  -6   4   1   95.98    4.37
   6   4   0   73.32    3.61
  -6   4   0   69.90    3.53
   6  -4   0   72.02    3.82
  -6   4   0   75.90    3.67
   6   4   0   66.74    3.82
   6  -4   0   65.99    3.54
   6  -4   0   71.52    3.71
   6   4   1   36.90    2.51
  -6   4  -1   38.25    2.49
   6  -4   1   40.35    2.88
  -6   4  -1   40.42    2.55
  -6   4  -1   38.63    2.58
   6   4   1   36.41    2.85
   6   4   1   40.22    2.64
   6  -4   1   40.07    2.85
  -6   4  -2   31.89    2.42
   6  -4   2   30.61    2.65
  -6   4  -2   34.25    2.26
   6  -4   2   37.52    2.73
   6   4   2   31.58    2.80
   6   4   2   33.86    2.50
  -6   4  -2   35.37    2.46
   6  -4   3   29.16    2.57
  -6   4  -3   31.92    2.03
  -6   4  -3   30.13    2.27
   6   4   3   30.72    2.68
   6   4   3   32.35    2.45
   6  -4   4   67.92    3.24
   6   4   4   62.19    3.57
   6  -4   4   65.27    3.64
   6   4   4   60.94    3.29
  -6   4  -4   64.03    3.39
   6   4   5    7.68    1.97
   6  -4   5   10.28    2.11
   6   4   5    9.24    1.98
   6   4   5    9.06    1.67
  -6   4  -5    8.71    1.62
   6   4   6   57.05    2.65
   6  -4   6   51.46    3.02
   6   4   6   51.85    3.00
   6   4   6   44.85    2.92
  -6   4  -6   54.79    2.78
   6   4   7   81.75    3.27
   6  -4   7   79.32    3.48
   6   4   7   77.01    3.45
   6   4   7   74.20    3.40
  -6   4  -7   72.59    3.24
   6  -4   8   10.23    1.15
   6   4   8    9.87    1.32
   6   4   8   11.86    1.13
   6  -4   8   11.19    1.39
   6   4   8   10.51    1.40
   6  -4   8    6.43    0.85
   6   4   9   17.57    1.15
  -6   5   7    6.94    0.63
  -6   5   6   96.24    4.02
  -6   5   6  104.87    4.05
  -6   5   5    0.22    0.62
   6  -5  -5    0.64    1.04
  -6   5   5   -0.56    0.83
   6  -5  -5    0.25    0.81
  -6   5   4    4.04    0.79
   6  -5  -4    3.05    0.89
   6  -5  -4    3.43    1.22
  -6   5   4    4.33    1.19
   6  -5  -3   88.19    3.80
  -6   5   3   86.22    3.76
  -6   5   3   80.47    3.60
   6  -5  -3   89.12    3.70
   6   5  -2   95.89    4.27
   6  -5  -2  107.76    4.38
  -6   5   2  103.01    4.31
  -6   5   2   98.06    4.21
  -6   5   2  100.51    4.29
   6  -5  -2  100.93    4.30
  -6   5   1    1.80    1.03
   6   5  -1    1.97    1.19
   6  -5  -1    2.00    1.37
  -6   5   1    2.80    1.30
  -6   5   1    3.00    1.17
   6  -5  -1    1.75    1.37
  -6   5   0    3.86    1.15
   6  -5   0    7.16    1.45
  -6   5   0    4.93    1.34
  -6   5   0    4.41    1.19
   6  -5   0    6.10    1.42
  -6   5  -1   34.84    2.01
   6  -5   1   33.25    2.14
  -6   5  -1   34.36    2.00
  -6   5  -1   35.48    2.00
   6  -5   2   27.60    1.90
  -6   5  -2   27.25    1.70
   6  -5   3   39.28    2.24
  -6   5  -3   38.88    2.09
   6  -5   4    4.08    1.30
  -6   5  -4    6.42    1.04
   6  -5   5   38.62    2.07
  -6   5  -5   40.22    1.91
   6  -5   6  101.19    4.07
  -7   0  13   89.32    3.93
   7   0 -13  112.38    4.04
  -7   0  12  103.42    4.24
   7   0 -12  109.14    4.26
   7   0 -12  117.71    4.40
   7   0 -11    0.59    1.65
   7   0 -11    0.92    0.97
   7   0 -10   15.12    1.52
   7   0 -10   18.63    2.34
   7   0 -10   14.88    1.59
   7   0  -9   33.51    2.39
   7   0  -9   33.60    2.24
   7   0  -9   31.45    2.03
   7   0  -9   33.40    2.86
   7   0  -8   38.33    2.43
   7   0  -8   36.12    2.31
   7   0  -8   32.96    2.05
   7   0  -8   33.17    2.99
   7   0  -7   65.50    3.81
  -7   0   7   45.89    6.94
   7   0  -7   69.50    3.47
  -7   0   7   51.63    6.99
   7   0  -7   68.35    3.24
   7   0  -7   64.65    3.40
   7   0  -7   65.70    3.10
   7   0  -7   61.95    3.37
   7   0  -6  445.97   15.94
  -7   0   6  374.10   20.36
   7   0  -6  419.14   15.90
   7   0  -6  418.61   15.77
   7   0  -6  417.62   15.90
   7   0  -6  376.64   15.52
   7   0  -6  411.77   15.83
   7   0  -6  408.90   19.02
   7   0  -5    0.10    1.57
   7   0  -5    2.01    1.17
   7   0  -5    0.78    1.18
   7   0  -5    1.90    0.94
  -7   0   5    2.65    3.17
   7   0  -5    1.54    0.77
  -7   0   4   12.27    3.47
   7   0  -4   14.63    1.37
   7   0  -4   11.13    1.47
   7   0  -4   14.71    1.26
   7   0  -4   11.40    1.26
   7   0  -4   11.86    1.03
  -7   0   3    5.60    2.46
  -7   0   3    7.00    3.18
   7   0  -3    8.20    1.07
   7   0  -3    7.16    1.10
   7   0  -3    3.47    2.95
   7   0  -3    7.70    1.12
   7   0  -3    8.10    1.01
   7   0  -3    7.03    0.83
   7   0  -3    8.27    1.05
   7   0  -2   68.93    3.20
  -7   0   2   67.44    5.58
  -7   0   2   63.38    6.12
   7   0  -2   72.44    3.25
   7   0  -2   77.41    6.67
   7   0  -2   69.49    3.29
   7   0  -2   71.74    3.23
   7   0  -2   73.76    3.25
   7   0  -2   71.59    3.12
   7   0  -2   70.09    3.13
   7   0  -1  174.55    6.94
  -7   0   1  161.49    9.13
  -7   0   1  170.64   10.50
   7   0  -1  177.94    6.97
   7   0  -1  168.85    6.86
   7   0  -1  172.05    6.99
   7   0  -1  168.27    6.97
   7   0  -1  178.68    6.98
   7   0  -1  199.41   11.26
   7   0  -1  201.36   11.12
   7   0   0  523.20   22.72
   7   0   0  512.80   22.43
   7   0   0  454.74   17.74
  -7   0   0  498.56   22.05
   7   0   0  471.54   17.83
   7   0   0  482.64   17.88
   7   0   0  463.83   17.86
   7   0   0  464.04   17.85
   7   0   0  466.53   17.76
   7   0   0  477.74   17.82
  -7   0  -1    8.91    2.54
   7   0   1    5.00    0.70
   7   0   1    5.31    0.85
   7   0   1    6.18    0.91
   7   0   1    5.77    0.90
   7   0   1    4.76    0.77
   7   0   1    9.37    2.98
   7   0   1    7.28    2.88
   7   0   1    5.15    0.84
   7   0   2  177.42   10.82
   7   0   2  168.33    6.66
  -7   0  -2  152.29    9.56
  -7   0  -2  172.36    9.90
   7   0   2  158.01    6.59
   7   0   2  171.77    6.65
   7   0   2  168.53    6.68
   7   0   2  162.01    6.58
   7   0   3  664.29   26.38
   7   0   3  708.87   26.38
   7   0   3  761.06   31.86
  -7   0  -3  660.17   30.02
  -7   0  -3  669.13   29.66
   7   0   3  699.56   26.36
   7   0   3  720.72   26.43
   7   0   3  717.98   26.39
   7   0   3  735.41   26.43
   7   0   3  674.64   26.30
   7   0   4  319.76   13.03
  -7   0  -4  305.54   16.57
   7   0   4  331.74   13.05
   7   0   4  342.61   13.04
   7   0   4  349.41   13.10
   7   0   4  355.52   13.10
   7   0   4  340.59   13.09
   7   0   4  325.66   12.96
   7   0   5  607.16   22.91
  -7   0  -5  561.39   27.04
   7   0   5  617.94   22.94
   7   0   5  601.71   22.91
   7   0   5  599.22   22.97
   7   0   5  619.03   22.89
   7   0   5  654.36   28.79
   7   0   5  582.15   22.84
   7   0   6  710.22   25.64
   7   0   6  688.65   25.59
   7   0   6  738.19   31.94
  -7   0  -6  684.34   30.43
   7   0   6  684.60   25.66
   7   0   6  634.38   25.69
   7   0   6  681.76   25.66
   7   0   6  652.55   25.54
  -7   0  -7  182.29   13.02
   7   0   7  206.86    8.09
  -7   0  -7  168.94   12.22
   7   0   7  200.59    8.07
   7   0   7  183.02   12.82
   7   0   7  198.24    8.22
   7   0   7  197.41    8.24
   7   0   7  191.08    8.06
   7   0   8   -0.57    3.15
   7   0   8   -0.93    1.36
   7   0   8    0.71    2.20
   7   0   8    2.02    1.84
  -7   0  -8   -0.49    3.95
   7   0   8    2.16    2.33
   7   0   8    0.16    1.42
   7   0   9   37.23    2.39
   7   0   9   36.57    2.80
   7   0   9   33.90    2.31
   7   0   9   35.64    2.25
   7   0  10    0.08    1.14
   7   0  10    1.17    1.22
   7   0  10    0.91    1.16
   7   0  10    1.03    1.62
   7   0  11    0.37    1.00
  -7   0 -11    0.22    1.40
   7   0  11    1.16    1.02
   7   0  11    1.13    1.28
   7   0  12   13.46    1.11
  -7   0 -12   13.55    1.31
   7   0  12   15.19    1.11
   7  -1 -13   28.81    1.38
  -7  -1  12    1.57    0.79
  -7   1  12    1.17    0.86
  -7   1  12    1.55    0.92
   7  -1 -12    0.86    0.80
   7   1 -12    2.88    1.13
   7  -1 -12    2.35    1.11
   7  -1 -12    3.10    1.12
   7   1 -12    1.74    1.05
   7  -1 -11   -0.57    0.96
   7   1 -11    1.91    1.49
   7  -1 -11    0.57    1.46
   7   1 -11    1.70    1.14
   7  -1 -11    1.54    1.51
   7   1 -11    0.30    1.44
   7   1 -10   17.42    1.44
   7  -1 -10   16.41    1.65
   7   1 -10   17.05    2.14
   7  -1 -10   18.29    2.16
   7   1 -10   16.79    1.76
   7  -1 -10   15.95    1.45
   7  -1 -10   16.41    2.17
   7   1 -10   13.37    2.10
   7   1  -9    4.05    1.25
   7  -1  -9    1.90    1.33
   7  -1  -9    3.43    1.25
   7   1  -9    3.55    1.54
   7  -1  -9    3.36    2.07
   7   1  -9    6.32    2.10
   7   1  -9    5.04    2.03
   7  -1  -9    4.66    2.05
   7  -1  -8   45.45    5.96
   7  -1  -8   52.98    2.80
   7   1  -8   53.94    2.98
  -7  -1   8   35.88    6.35
  -7   1   8   35.36    6.46
  -7   1   8   33.12    5.58
   7   1  -8   50.49    6.84
   7  -1  -8   40.52    6.85
   7   1  -8   50.31    3.44
   7  -1  -8   48.83    3.35
   7   1  -8   51.49    2.80
   7  -1  -8   51.29    2.94
   7  -1  -8   53.21    3.42
   7   1  -8   46.33    3.27
   7   1  -8   53.83    2.96
   7  -1  -8   51.92    2.63
   7  -1  -8   48.39    2.75
   7   1  -7   44.77    2.73
   7  -1  -7   46.88    2.55
  -7  -1   7   33.89    6.30
  -7   1   7   36.24    6.50
   7  -1  -7   46.29    2.63
  -7   1   7   44.88    6.25
   7  -1  -7   37.65    6.53
   7   1  -7   47.95    7.48
   7   1  -7   42.76    3.04
   7  -1  -7   38.64    2.99
   7   1  -7   41.57    2.64
   7   1  -7   47.35    2.67
   7  -1  -7   44.25    2.74
   7  -1  -7   40.61    3.01
   7   1  -7   43.92    3.07
   7  -1  -7   43.91    2.34
   7  -1  -7   45.40    2.67
   7   1  -6  169.84    6.96
   7  -1  -6  176.44    6.91
  -7   1   6  137.96   10.86
  -7  -1   6  134.29   11.04
  -7   1   6  153.89   11.13
   7  -1  -6  167.73    6.93
   7   1  -6  183.25    7.10
   7  -1  -6  168.14    7.06
   7  -1  -6  197.02   12.33
   7   1  -6  186.69   11.95
   7   1  -6  173.08    6.99
   7  -1  -6  156.48    6.66
   7   1  -6  167.77    6.99
   7  -1  -6  169.32    7.08
   7   1  -6  174.23    7.05
   7  -1  -6  149.01    6.58
   7  -1  -6  164.67    6.85
   7   1  -5   81.88    3.94
   7  -1  -5   85.54    3.84
   7  -1  -5   81.58    6.38
  -7   1   5   61.93    6.82
  -7  -1   5   76.81    7.92
   7   1  -5   81.79    4.01
  -7   1   5   72.10    7.58
   7  -1  -5   79.78    3.91
   7   1  -5   86.68    4.07
   7  -1  -5   86.87    4.09
   7  -1  -5   93.21    8.19
   7   1  -5   89.72    8.01
   7   1  -5   88.31    4.02
   7   1  -5   78.81    3.96
   7  -1  -5   81.95    3.68
   7  -1  -5   89.29    4.03
   7  -1  -5   86.83    4.07
   7   1  -5   85.70    4.03
   7   1  -5   87.18    3.83
   7  -1  -5   86.21    3.89
   7   1  -4   71.27    3.67
   7  -1  -4   80.83    3.64
   7  -1  -4   75.21    5.92
   7   1  -4   85.79    3.85
   7  -1  -4   85.87    3.83
   7   1  -4   87.72    7.52
   7  -1  -4   80.02    7.53
  -7   1   4   64.41    6.64
  -7  -1   4   63.75    6.89
   7   1  -4   73.38    3.69
  -7   1   4   76.00    7.47
   7  -1  -4   82.13    3.75
   7   1  -4   84.23    3.80
   7  -1  -4   79.98    3.54
   7   1  -4   76.57    3.83
   7  -1  -4   81.69    3.77
   7  -1  -4   79.11    3.80
   7   1  -4   84.29    3.76
   7   1  -4   79.54    3.52
   7  -1  -4   85.14    3.69
   7  -1  -3   15.29    2.72
   7   1  -3   16.67    1.36
   7  -1  -3   12.97    1.21
   7   1  -3   14.78    1.45
   7  -1  -3   13.01    1.43
   7  -1  -3   15.36    3.88
   7   1  -3   13.22    3.60
  -7  -1   3   12.13    3.51
  -7   1   3   13.78    3.08
   7   1  -3   16.59    1.37
   7  -1  -3   17.01    1.41
   7  -1  -3   16.02    1.05
   7   1  -3   15.62    1.44
   7   1  -3   14.73    1.47
   7  -1  -3   15.35    1.17
   7  -1  -3   16.58    1.40
   7  -1  -3   16.61    1.46
   7   1  -3   16.38    1.47
   7   1  -3   17.33    1.51
   7  -1  -3   14.23    1.38
   7   1  -2  114.42    4.87
   7  -1  -2  117.99    4.86
   7  -1  -2  112.23    7.23
   7  -1  -2  115.91    8.55
   7   1  -2  119.77    8.44
  -7   1   2  103.09    7.23
  -7  -1   2  101.71    7.66
  -7   1   2  127.88    9.03
   7   1  -2  115.14    4.89
   7  -1  -2  113.16    4.72
   7  -1  -2  119.31    4.93
   7  -1  -2  116.84    4.86
   7  -1  -2  121.70    4.94
   7   1  -2  121.63    4.92
   7  -1  -2  117.38    4.90
   7   1  -2  114.82    4.98
   7  -1  -1    6.71    2.05
   7  -1  -1    9.11    0.96
   7   1  -1    6.45    2.57
   7  -1  -1   10.54    2.72
   7  -1  -1   10.25    3.12
   7   1  -1   13.19    3.16
   7   1  -1    7.88    0.96
  -7  -1   1    9.34    2.30
   7   1  -1    8.90    0.92
  -7   1   1    7.40    3.26
   7  -1  -1    9.01    0.81
   7   1  -1    8.38    1.04
   7   1  -1    9.72    1.20
   7  -1  -1    7.61    0.93
   7   1  -1    8.66    1.05
   7  -1  -1    7.48    0.92
   7  -1  -1    7.97    0.97
   7   1  -1    9.03    0.99
   7  -1  -1    8.09    1.03
   7   1   0  115.22    4.62
   7  -1   0  103.42    4.56
   7  -1   0  107.18    7.00
   7  -1   0  113.56    8.13
   7   1   0  122.71    8.20
   7   1   0  116.46    8.38
   7  -1   0  119.01    8.29
  -7  -1   0  104.16    6.79
  -7  -1   0   96.89    7.29
  -7   1   0  112.97    8.31
   7   1   0  106.56    4.52
   7  -1   0  106.86    4.52
   7  -1   0  109.65    4.62
   7   1   0  116.50    4.78
   7  -1   0  108.78    4.53
   7   1   0  113.58    4.70
   7  -1   0  114.45    4.64
   7   1   0  114.42    4.63
   7   1   0  105.45    4.44
   7   1   0  107.57    4.67
   7  -1   0  111.61    4.66
   7  -1   1   69.85    6.42
   7   1   1   75.53    6.48
   7   1   1   74.06    6.68
   7  -1   1   80.11    6.65
   7  -1   1   71.58    3.12
   7   1   1   77.47    3.38
  -7  -1  -1   65.18    5.60
  -7   1  -1   65.10    6.34
   7  -1   1   70.43    3.18
   7   1   1   75.25    3.12
   7  -1   1   71.83    3.28
   7   1   1   73.19    3.39
   7   1   1   70.83    3.32
   7   1   1   67.75    3.18
   7  -1   1   77.17    3.30
   7   1   1   71.34    3.27
   7   1   1   73.85    3.17
   7   1   1   75.18    3.26
   7  -1   1   72.63    3.24
   7  -1   1   73.35    5.63
   7  -1   2  221.64    8.73
   7   1   2  231.04    8.92
  -7  -1  -2  202.45   11.28
  -7   1  -2  241.86   13.03
   7  -1   2  215.89    8.77
   7   1   2  222.41    8.74
   7   1   2  223.08    8.87
   7  -1   2  231.68    8.89
   7   1   2  228.47    8.94
   7   1   2  217.98    8.82
   7   1   2  229.37    8.84
   7   1   2  228.35    8.78
   7  -1   2  224.16    8.85
   7   1   2  220.48   12.98
   7   1   2  222.23    8.81
   7  -1   2  222.12    8.79
   7  -1   2  224.61   12.99
   7   1   3    8.18    1.16
   7   1   3    4.19    3.13
   7  -1   3    8.28    2.90
   7   1   3   10.21    1.15
   7  -1   3    8.36    1.02
  -7   1  -3    3.53    3.33
  -7   1  -3    8.09    2.95
   7   1   3    8.73    1.16
   7   1   3    9.06    1.33
   7   1   3   10.92    1.22
   7   1   3    9.73    1.24
   7  -1   3    7.00    1.30
   7   1   3    9.46    1.29
   7   1   3   10.10    1.20
   7   1   3   10.71    1.25
   7  -1   3    9.21    1.13
   7  -1   4  676.96   25.11
   7   1   4  647.65   25.09
   7  -1   4  671.11   25.07
   7   1   4  714.74   30.72
   7  -1   4  692.49   30.51
   7   1   4  684.79   25.09
  -7   1  -4  652.87   30.04
  -7   1  -4  584.63   28.73
   7   1   4  659.98   25.10
   7   1   4  672.19   25.09
   7   1   4  642.53   25.11
   7   1   4  644.61   25.14
   7  -1   4  660.33   25.15
   7  -1   4  663.51   25.12
   7   1   4  675.54   25.11
   7   1   4  669.69   25.12
   7  -1   4  653.81   25.09
   7   1   4  691.26   25.22
   7  -1   5   87.20    3.84
   7   1   5   87.56    3.92
  -7  -1  -5   92.22    8.10
  -7   1  -5   65.69    7.61
   7   1   5   84.75    4.09
   7   1   5   82.87    3.84
   7  -1   5   86.35    3.79
   7   1   5   84.37    7.79
   7  -1   5   85.99    7.78
   7   1   5   85.76    3.85
   7   1   5   80.65    4.01
   7   1   5   81.57    3.70
   7  -1   5   83.99    4.12
   7   1   5   82.19    4.07
   7  -1   5   81.05    4.02
   7   1   5   81.04    4.03
   7  -1   5   83.62    4.08
   7   1   5   81.51    4.12
   7  -1   6  148.44    6.06
  -7  -1  -6  139.65   10.77
   7   1   6  151.04    6.13
  -7   1  -6  146.52   10.86
   7   1   6  145.83    6.32
   7   1   6  142.80    6.10
   7  -1   6  151.08    6.04
   7   1   6  153.91   10.91
   7  -1   6  143.96   10.51
   7   1   6  140.01    6.03
   7  -1   6  145.04    6.30
   7   1   6  146.30    6.23
   7   1   6  139.09    6.24
   7   1   6  140.38    5.99
   7  -1   6  149.58    6.31
   7   1   6  133.43    6.38
   7  -1   6  141.76    6.35
   7  -1   7  149.68    6.22
  -7  -1  -7  146.79   11.37
   7   1   7  144.22    6.26
  -7   1  -7  147.29   11.17
   7  -1   7  147.67    6.56
   7   1   7  157.13    6.58
   7   1   7  137.58    6.09
   7   1   7  144.25    6.25
   7  -1   7  145.12    6.47
   7   1   7  154.93    6.43
   7  -1   7  151.32    6.46
   7   1   7  151.18    6.23
   7  -1   7  149.96    6.20
   7   1   7  154.75   11.18
   7  -1   7  138.41   10.66
   7   1   8  129.52    5.60
   7  -1   8  128.91    5.50
   7  -1   8  132.44    5.90
   7   1   8  123.83    5.94
   7   1   8  124.22    5.40
   7   1   8  125.90    5.74
   7   1   8  122.98    5.64
   7  -1   8  134.75    5.82
   7   1   8  130.70    5.76
   7  -1   8  135.24    5.79
   7  -1   8  138.79    5.57
   7   1   8  134.31    5.60
   7   1   9    4.64    1.43
   7  -1   9    4.90    1.17
   7   1   9    5.16    1.80
   7   1   9    4.96    1.57
   7  -1   9    5.81    1.22
   7   1   9    5.27    1.41
   7  -1   9    4.84    1.97
   7   1   9    5.04    2.03
   7   1   9    4.73    2.16
   7   1  10    3.35    1.20
   7  -1  10    2.79    1.01
   7  -1  10    2.19    1.63
   7   1  10    2.36    1.70
   7   1  10   -0.23    1.79
   7   1  10    2.91    1.57
   7   1  10    1.69    1.20
   7  -1  10    2.61    1.02
   7   1  10    0.86    1.18
   7  -1  11    3.53    1.02
   7  -1  11    5.21    0.96
   7   1  11    4.89    1.11
  -7  -1 -11    3.72    1.31
  -7   1 -11    3.16    1.31
   7   1  11    4.83    1.00
   7  -1  11    5.29    0.95
   7  -1  11    3.04    1.23
   7   1  11    4.02    1.43
   7   1  12   26.46    1.44
   7  -1  12   27.30    1.43
  -7  -1 -12   26.65    1.54
  -7   1 -12   26.70    1.55
   7  -1  12   32.17    1.48
   7   1  12   32.36    1.51
   7  -2 -12   19.84    1.18
   7  -2 -11    1.58    0.91
  -7  -2  11    0.50    0.60
   7  -2 -11    0.79    0.95
   7   2 -11    1.50    0.99
  -7   2  11    1.12    1.00
  -7   2  10   19.08    1.77
   7  -2 -10   21.78    1.66
   7  -2 -10   20.19    1.64
   7  -2 -10   16.88    1.63
   7   2 -10   20.76    1.66
  -7  -2  10   17.24    1.26
   7  -2  -9   11.97    1.75
   7  -2  -9   11.65    1.32
   7   2  -9   14.47    1.64
   7  -2  -9   13.36    1.83
   7  -2  -9   11.85    1.78
   7   2  -9    9.80    1.18
   7  -2  -9   12.64    1.62
   7   2  -8   41.90    2.66
   7  -2  -8   35.44    2.57
   7   2  -8   37.94    2.27
   7  -2  -8   37.54    2.63
   7   2  -8   40.78    2.55
   7  -2  -8   38.41    2.19
   7  -2  -8   36.29    2.68
   7  -2  -7  126.15    5.19
   7   2  -7  119.56    5.27
   7   2  -7  136.59    5.49
   7  -2  -7  117.27    5.43
  -7  -2   7  121.32   10.18
   7  -2  -7  117.44    5.23
   7   2  -7  113.61    5.32
   7  -2  -7  132.50    5.60
   7  -2  -7  122.11    5.45
   7   2  -7  119.71    5.34
   7   2  -7  122.74    5.44
   7  -2  -7  121.24    5.12
   7  -2  -7  127.35    5.50
   7  -2  -6    8.54    3.77
   7   2  -6    5.08    1.77
   7  -2  -6   10.47    1.94
   7   2  -6    8.16    1.49
   7  -2  -6    7.22    1.13
   7  -2  -6    6.52    3.82
   7   2  -6    7.85    3.47
  -7  -2   6    4.76    4.86
  -7   2   6    5.61    4.27
  -7   2   6    7.35    1.03
  -7   2   6    6.64    4.05
   7  -2  -6    8.19    1.26
   7  -2  -6    9.17    1.45
   7   2  -6    6.88    1.46
   7  -2  -6    8.02    1.75
   7   2  -6    8.60    1.78
   7  -2  -6    9.89    1.23
   7   2  -6    5.45    1.60
   7  -2  -6    6.66    1.87
   7  -2  -6    8.08    2.06
   7  -2  -5   11.87    4.09
   7   2  -5    7.63    1.46
   7  -2  -5    7.81    1.09
   7  -2  -5   13.68    4.09
   7   2  -5   10.23    3.74
  -7  -2   5    1.03    4.31
  -7   2   5   13.91    4.58
  -7   2   5    7.49    1.05
  -7   2   5    4.47    3.86
   7  -2  -5    8.54    1.33
   7  -2  -5    9.94    1.51
   7   2  -5    8.80    1.53
   7  -2  -5    8.84    1.67
   7   2  -5    6.60    1.77
   7  -2  -5    8.27    1.67
   7   2  -5    9.74    1.65
   7   2  -5    7.74    1.50
   7  -2  -5    8.48    2.09
   7   2  -4  320.32   12.40
   7  -2  -4  310.44   12.33
   7  -2  -4  328.30   16.67
   7  -2  -4  311.11   16.81
   7   2  -4  330.64   16.66
  -7  -2   4  288.63   17.09
  -7   2   4  280.50   16.41
  -7   2   4  306.68   17.37
   7  -2  -4  320.08   12.50
  -7   2   4  308.16   12.35
   7  -2  -4  325.99   12.36
  -7   2   4  337.49   12.55
   7   2  -4  314.47   12.63
   7   2  -4  321.71   12.66
   7  -2  -4  343.94   12.57
   7  -2  -4  308.96   12.42
   7   2  -4  322.70   12.38
   7   2  -4  320.97   12.42
   7  -2  -4  314.44   12.57
   7  -2  -3   47.38    5.63
   7   2  -3   54.52    5.56
  -7  -2   3   48.66    6.22
  -7   2   3   47.64    5.40
   7  -2  -3   49.72    2.61
  -7   2   3   53.22    6.64
  -7   2   3   49.19    2.49
   7  -2  -3   49.41    2.57
  -7   2   3   47.71    2.66
   7   2  -3   48.50    2.75
   7   2  -3   48.12    2.83
   7  -2  -3   46.44    2.60
   7  -2  -3   50.40    2.61
   7   2  -3   48.95    2.52
   7   2  -3   47.03    2.44
   7  -2  -3   45.51    5.66
   7   2  -3   47.25    2.47
   7  -2  -3   46.23    2.37
   7  -2  -2  121.55    8.70
   7   2  -2  115.01    8.28
   7  -2  -2  117.58    5.20
  -7   2   2  114.32    9.50
   7   2  -2  116.05    5.14
   7   2  -2  127.57    5.30
  -7   2   2  108.54    4.83
   7  -2  -2  121.90    4.99
   7   2  -2  116.29    4.94
   7  -2  -2  114.95    4.86
   7  -2  -2  121.84    8.70
   7  -2  -2  117.60    4.99
   7   2  -2  115.14    4.91
   7   2  -2  116.79    4.85
   7  -2  -2  124.20    5.04
  -7   2   2  121.33    4.96
   7  -2  -1   83.57    7.03
   7   2  -1   75.96    6.59
   7  -2  -1   79.31    3.49
   7  -2  -1   83.88    3.93
   7  -2  -1   88.58    3.75
  -7   2   1   82.61    3.59
  -7   2   1   78.40    3.58
   7   2  -1   89.07    4.01
   7   2  -1   82.22    3.77
   7  -2  -1   76.63    3.53
   7  -2  -1   79.49    3.52
   7  -2  -1   76.76    3.61
   7   2  -1   87.07    3.61
   7   2  -1   80.42    3.61
   7  -2  -1   82.66    3.54
   7  -2  -1   74.20    6.91
   7  -2   0   25.87    4.18
   7  -2   0   28.65    1.72
   7  -2   0   29.07    2.14
  -7   2   0   33.15    5.65
   7  -2   0   29.01    2.02
  -7   2   0   29.44    1.61
   7  -2   0   31.13    1.70
  -7   2   0   29.08    1.79
   7   2   0   29.60    1.93
   7  -2   0   26.71    1.75
   7   2   0   28.63    1.73
   7  -2   0   23.39    4.20
   7   2   0   29.48    1.73
   7  -2   0   29.07    1.61
   7   2   1   57.74    5.87
   7  -2   1   53.13    5.58
   7  -2   1   66.47    3.05
   7  -2   1   64.53    3.31
  -7   2  -1   66.14    7.12
   7  -2   1   68.24    3.24
   7  -2   1   64.13    2.99
   7   2   1   68.90    3.41
   7   2   1   61.83    3.09
   7  -2   1   65.00    3.03
   7   2   1   62.27    2.96
   7  -2   1   61.76    2.87
   7  -2   1   76.60    6.86
   7   2   1   63.95    2.95
   7   2   2   24.29    4.20
   7  -2   2   25.73    3.97
   7  -2   2   26.72    1.91
  -7   2  -2   22.00    4.99
   7  -2   2   26.38    2.17
   7  -2   2   27.57    1.72
   7   2   2   29.92    2.21
   7   2   2   28.51    1.83
   7   2   2   28.98    1.71
   7  -2   2   26.40    1.83
   7   2   2   25.60    1.79
   7  -2   2   23.43    4.38
   7  -2   2   26.47    1.56
   7   2   2   26.49    1.69
   7  -2   3  137.92    5.63
   7   2   3  137.96    5.68
   7   2   3  130.41    9.45
   7  -2   3  135.44    9.42
  -7   2  -3  122.40   10.14
  -7   2  -3  134.19   10.24
   7   2   3  147.85    5.83
   7   2   3  138.98    6.07
   7   2   3  130.29    5.69
   7   2   3  138.23    5.76
   7  -2   3  141.35    5.78
   7   2   3  131.80    5.74
   7  -2   3  144.70    5.92
   7   2   3  140.39    5.68
  -7  -2  -4   40.84    5.19
   7   2   4   42.26    5.34
   7   2   4   46.36    2.47
   7  -2   4   47.48    2.37
   7  -2   4   45.67    5.32
  -7   2  -4   38.76    6.49
  -7   2  -4   37.51    5.80
   7   2   4   51.89    2.84
   7   2   4   50.08    2.48
   7   2   4   46.59    2.64
   7   2   4   47.77    2.67
   7  -2   4   51.76    3.06
   7  -2   4   48.96    2.69
   7  -2   4   46.22    3.18
   7   2   4   45.89    2.58
  -7  -2  -5   85.27    7.75
  -7   2  -5   79.70    8.48
  -7   2  -5   81.10    8.01
   7   2   5   88.99    3.98
   7  -2   5   73.26    7.08
   7  -2   5   89.95    3.90
   7   2   5   88.92    7.92
   7  -2   5   88.87    4.46
   7   2   5   89.69    4.16
   7  -2   5   89.27    4.18
   7   2   5   89.76    4.24
   7   2   5   89.50    4.10
   7  -2   5   90.02    4.38
   7   2   5   91.44    4.31
   7  -2   6  146.15    5.87
   7   2   6  136.10    5.91
  -7  -2  -6  123.26   10.07
   7   2   6  151.45    6.26
   7   2   6  143.92    5.87
   7   2   6  125.52    9.72
   7  -2   6  108.57    9.26
   7  -2   6  140.24    5.82
  -7   2  -6  127.27   10.80
   7   2   6  148.81    6.17
   7  -2   6  143.29    6.07
   7   2   6  138.38    5.99
   7  -2   6  141.38    6.20
   7  -2   6  141.45    6.31
   7   2   6  145.67    6.08
   7   2   7   31.18    2.01
   7  -2   7   30.70    1.80
   7   2   7   29.51    2.35
   7   2   7   30.46    2.35
   7  -2   7   25.68    2.28
   7  -2   7   25.56    2.50
   7   2   7   29.33    2.25
   7  -2   7   31.18    1.84
   7   2   7   30.60    2.03
   7   2   8  101.92    4.40
   7  -2   8  101.20    4.33
   7   2   8  100.33    4.67
   7   2   8  100.23    4.67
   7  -2   8  109.79    4.67
   7  -2   8  105.09    4.37
   7   2   8  103.66    4.44
   7  -2   8   99.66    4.85
   7   2   9   18.33    1.95
   7  -2   9   19.76    1.32
   7  -2   9   18.27    1.28
   7   2   9   15.05    2.28
   7  -2   9   20.17    1.99
   7   2  10   59.03    3.06
   7  -2  10   62.29    2.85
   7  -2  10   55.46    2.54
  -7  -2 -10   58.19    2.69
   7   2  10   60.58    2.88
   7  -2  11    4.52    0.84
   7   2  11    5.50    1.19
   7  -3 -11   11.72    0.91
  -7   3  10    9.35    1.06
   7   3 -10    7.88    1.05
   7  -3 -10    9.00    1.13
  -7   3   9   26.54    1.81
   7   3  -9   27.03    1.78
   7  -3  -9   24.16    1.91
   7  -3  -9   27.88    1.84
  -7   3   8    2.00    0.76
   7  -3  -8    2.80    1.35
   7   3  -8    3.29    1.35
   7  -3  -8    1.81    1.58
   7  -3  -7   12.89    1.64
   7   3  -7   11.88    1.25
  -7   3   7   14.81    2.03
   7   3  -7   10.46    1.69
  -7   3   7   10.87    1.12
   7   3  -6  121.32    5.48
   7  -3  -6  139.88    5.61
   7  -3  -6  142.94    5.51
  -7   3   6  145.40    5.75
   7   3  -6  122.72    5.54
  -7   3   6  117.51    5.34
   7  -3  -6  122.21    5.28
  -7   3   5    7.41    1.29
   7  -3  -5    9.95    1.18
   7  -3  -5    7.73    1.76
  -7   3   5    9.15    2.15
   7  -3  -5    9.76    1.66
   7   3  -5    7.25    1.48
   7   3  -5    7.68    1.58
   7  -3  -5    5.40    2.26
   7  -3  -4   50.53    3.39
  -7   3   4   49.40    2.43
   7  -3  -4   53.00    2.67
  -7   3   4   49.28    2.72
  -7   3   4   46.45    6.24
   7  -3  -4   54.05    3.08
  -7   3   4   55.67    3.18
   7   3  -4   50.51    2.94
   7  -3  -4   48.87    2.76
   7   3  -4   52.61    2.85
   7  -3  -4   45.78    6.64
   7   3  -3  354.90   14.05
   7  -3  -3  356.88   13.55
   7  -3  -3  373.34   13.94
  -7   3   3  295.57   18.36
   7  -3  -3  358.23   13.72
  -7   3   3  355.50   13.78
   7  -3  -3  384.30   13.83
  -7   3   3  368.27   13.76
  -7   3   3  334.67   13.57
   7   3  -3  353.82   13.81
   7   3  -3  350.20   13.96
   7  -3  -3  331.71   13.62
   7   3  -3  347.80   13.70
   7  -3  -3  369.65   19.00
  -7   3   2   95.48    9.36
   7  -3  -2  103.32    4.59
  -7   3   2  103.21    4.68
   7  -3  -2  109.31    4.84
  -7   3   2  109.00    4.74
  -7   3   2   96.91    4.47
   7   3  -2   99.80    4.65
   7   3  -2  101.54    4.90
   7  -3  -2  109.90    9.35
   7  -3  -2  105.36    4.97
   7   3  -2  105.05    5.22
   7  -3  -2  107.24    4.55
  -7   3   1   61.69    3.14
  -7   3   1   50.46    7.20
   7  -3  -1   61.55    3.34
  -7   3   1   56.57    3.13
   7  -3  -1   48.10    6.67
   7  -3  -1   58.67    3.50
   7   3  -1   60.63    3.72
   7  -3  -1   55.64    3.05
   7   3  -1   57.51    3.02
  -7   3   1   60.23    2.97
   7   3  -1   57.11    3.34
   7   3   0   16.07    2.72
  -7   3   0   21.44    1.91
   7   3   0   20.79    1.70
  -7   3   0   21.44    1.80
   7   3   0   20.89    1.71
   7   3   0   22.92    2.20
   7  -3   0   20.92    5.37
   7  -3   0   21.22    2.07
   7  -3   0   21.55    2.41
  -7   3  -1    2.81    4.51
   7   3   1    7.93    2.57
  -7   3  -1    7.64    1.37
  -7   3  -1    8.73    1.49
   7   3   1    6.47    1.87
   7  -3   1   10.30    4.55
   7  -3   1    6.03    1.93
  -7   3  -2    8.71    4.97
  -7   3  -2   17.50    5.30
   7   3   2   15.14    2.68
   7  -3   2   18.81    2.40
   7  -3   2   16.48    1.26
  -7   3  -2   15.57    1.79
   7  -3   2   16.47    2.11
   7  -3   2   12.35    4.84
  -7   3  -3   81.08    9.09
  -7   3  -3   85.60    9.08
   7  -3   3  108.21    5.02
   7   3   3  104.25    4.53
   7  -3   3  106.70    4.93
   7   3   3  101.63    4.70
   7   3   3  103.58    5.31
   7  -3   3  107.97    4.51
  -7   3  -3  110.71    4.84
   7   3   4  244.24    9.57
   7  -3   4  236.48    9.76
   7  -3   4  249.37    9.82
   7   3   4  239.00    9.63
   7   3   4  236.43   10.01
   7  -3   4  239.41    9.53
  -7   3  -4  246.80    9.78
   7   3   5  147.35    6.15
   7  -3   5  144.92    6.32
   7  -3   5  153.80    6.47
   7   3   5  146.47    6.29
   7   3   5  145.61    6.66
   7   3   6   93.27    4.11
   7  -3   6   86.62    4.10
   7   3   6   86.96    4.20
   7   3   6   88.80    4.61
  -7   3  -6   85.75    4.20
   7   3   7  189.61    7.45
   7  -3   7  176.19    7.31
   7  -3   7  183.41    7.63
   7   3   7  180.25    7.44
   7   3   7  186.80    7.70
  -7   3  -7  184.88    7.50
   7  -3   8    0.23    1.42
   7   3   8   -1.48    1.78
   7   3   8    0.53    1.18
   7  -3   8   -2.47    1.68
   7   3   8    0.08    1.47
  -7   3  -8    0.49    1.22
   7  -3   9    8.74    1.25
   7   3   9    8.06    1.53
   7   3   9    9.04    1.17
  -7  -3  -9    6.46    1.02
  -7   3  -9    8.44    1.17
   7  -3  10    5.59    0.82
   7   3  10    7.84    0.93
   7   3  10    6.27    1.07
  -7   4   8    5.55    0.96
   7  -4  -8    3.96    1.03
  -7   4   8    3.10    0.62
   7  -4  -7   11.64    1.43
  -7   4   7   11.33    1.02
   7  -4  -6   33.60    1.95
  -7   4   6   29.79    1.97
   7  -4  -6   27.59    2.04
  -7   4   6   27.70    1.67
   7  -4  -5   15.91    1.70
  -7   4   5   14.94    1.72
   7  -4  -5   16.71    1.82
  -7   4   5   14.49    1.39
   7  -4  -4   47.91    2.72
  -7   4   4   45.12    2.70
   7  -4  -4   47.57    2.76
  -7   4   4   40.73    2.11
  -7   4   4   44.56    2.38
   7  -4  -3   27.68    2.25
  -7   4   3   26.62    1.68
  -7   4   3   27.22    1.91
   7  -4  -3   24.02    2.28
  -7   4   2   29.83    1.90
  -7   4   2   35.26    2.39
   7  -4  -2   30.49    1.79
  -7   4   2   33.18    2.18
   7  -4  -2   30.67    2.40
   7  -4  -2   33.84    2.22
  -7   4   1   35.44    2.16
   7  -4  -1   39.08    2.67
  -7   4   1   38.86    2.41
   7  -4  -1   35.28    1.99
  -7   4   1   34.28    2.33
   7  -4  -1   36.28    2.45
   7  -4  -1   32.93    2.50
   7   4  -1   34.93    2.73
  -7   4   0   14.81    1.57
   7  -4   0   14.74    1.98
   7   4   0   13.28    2.23
   7  -4   0   11.76    2.22
  -7   4   0   15.62    1.78
  -7   4  -1   68.88    3.42
   7  -4   1   70.81    3.67
  -7   4  -1   70.57    3.30
   7  -4   1   72.49    3.59
   7   4   1   66.09    3.78
  -7   4  -2   15.20    1.64
   7   4   2   12.44    2.25
   7  -4   2   16.24    2.14
  -7   4  -2   14.93    1.82
   7  -4   2   17.26    2.19
  -7   4  -3   54.12    2.99
   7  -4   3   53.65    3.15
   7  -4   3   55.65    3.00
   7  -4   3   63.44    3.23
   7   4   3   53.58    3.27
  -7   4  -3   58.62    3.02
  -7   4  -4   50.31    2.70
   7  -4   4   47.87    2.60
   7   4   4   48.48    2.94
  -7   4  -5  229.70    8.64
   7  -4   5  205.18    8.44
   7   4   5  211.59    8.70
  -7   4  -5  233.28    8.68
  -7   4  -6   99.12    4.33
  -7   4  -6   99.86    4.28
   7   4   6   99.99    4.43
   7  -4   6  111.15    4.51
  -7   4  -7    6.11    1.01
   7  -4   7    8.70    1.37
   7   4   7    5.80    1.22
   7   4   8    5.72    0.92
  -7   5   5   52.50    2.28
  -7   5   5   55.47    2.31
  -7   5   4    2.93    0.75
  -7   5   4    2.68    0.85
   7  -5  -3   75.67    2.97
  -7   5   3   71.26    2.88
  -7   5   2   19.38    1.26
   7  -5  -2   24.03    1.58
  -7   5   2   22.13    1.43
  -7   5   1   21.59    1.47
  -7   5   1   23.05    1.40
   7  -5  -1   27.19    1.65
  -7   5   1   23.51    1.45
  -7   5   0   17.42    1.31
  -7   5   0   16.26    1.23
   7  -5   0   17.41    1.42
   7  -5   0   16.53    1.45
  -7   5   0   16.93    1.24
  -7   5  -1   39.34    1.99
  -7   5  -1   39.43    2.00
   7  -5   1   36.88    1.90
   7  -5   1   44.24    2.13
  -7   5  -2    9.53    1.05
  -7   5  -2    9.84    1.00
   7  -5   2    9.06    1.24
   7  -5   3   50.74    2.14
  -7   5  -4   81.33    3.34
   8   0 -12    1.68    0.66
  -8   0  12    0.87    0.68
   8   0 -11   -0.31    0.90
   8   0 -11    0.41    1.30
   8   0 -11    0.13    0.90
   8   0 -10    5.43    1.25
   8   0 -10    4.38    1.76
   8   0 -10    6.04    1.21
   8   0  -9   21.43    1.82
   8   0  -9   22.67    2.48
   8   0  -9   21.13    1.91
   8   0  -8    0.84    1.49
   8   0  -8    0.06    2.34
   8   0  -8    0.27    1.44
  -8   0   7   97.05    9.61
   8   0  -7  124.62    6.01
   8   0  -7  128.20    5.52
   8   0  -7  133.74    5.77
   8   0  -7  135.36    5.68
  -8   0   7   98.18    9.39
   8   0  -6   39.55    2.37
   8   0  -6   41.09    2.66
   8   0  -6   38.37    3.18
   8   0  -6   38.12    2.50
  -8   0   6   24.82    5.69
  -8   0   6   28.87    6.09
   8   0  -5   82.09    4.15
   8   0  -5   79.37    3.67
   8   0  -5   80.17    3.76
   8   0  -5   69.36    3.44
  -8   0   4    5.82    4.42
   8   0  -4    6.49    1.48
   8   0  -4    9.47    1.52
   8   0  -4   10.06    1.77
   8   0  -4    6.12    1.27
  -8   0   4   14.08    3.94
   8   0  -4    7.45    1.34
   8   0  -3  156.76    6.57
  -8   0   3  141.13    9.74
   8   0  -3  162.13    6.58
   8   0  -3  160.03    6.67
   8   0  -3  155.08    6.40
   8   0  -3  159.26    6.72
  -8   0   3  149.23   11.11
   8   0  -3  155.14    6.62
   8   0  -2  276.29   15.55
   8   0  -2  256.53   10.34
  -8   0   2  253.87   15.22
   8   0  -2  256.75   10.48
   8   0  -2  266.67   10.56
   8   0  -2  274.52   10.52
   8   0  -2  267.94   10.53
   8   0  -2  262.84   10.25
   8   0  -2  274.10   10.47
  -8   0   1    2.80    3.25
   8   0  -1    1.67    1.11
   8   0  -1    0.12    0.85
   8   0  -1    0.68    1.19
   8   0  -1    0.05    1.06
   8   0  -1   -0.85    1.52
   8   0  -1   -0.61    0.85
   8   0  -1    0.51    2.82
   8   0  -1    0.29    1.06
   8   0  -1   -0.97    3.41
   8   0   0   87.04    7.86
   8   0   0   77.20    3.54
  -8   0   0   70.68    6.85
   8   0   0   78.65    3.64
   8   0   0   77.30    3.71
   8   0   0   84.33    3.76
   8   0   0   80.63    3.83
   8   0   0   81.25    3.59
   8   0   0   81.09    3.71
  -8   0  -1   -0.38    2.33
  -8   0  -1    0.42    2.84
   8   0   1    1.36    1.01
   8   0   1    0.11    0.81
   8   0   1   -0.04    0.85
   8   0   1    0.58    1.03
   8   0   1    0.05    1.08
   8   0   1   -0.25    1.49
   8   0   1    0.96    1.17
   8   0   1   -2.05    3.13
   8   0   1   -1.46    3.68
   8   0   1   -0.10    1.13
   8   0   2   93.30    4.08
   8   0   2   97.80    8.33
  -8   0  -2   74.25    6.72
  -8   0  -2   79.47    6.99
   8   0   2   86.65    3.93
   8   0   2   91.87    4.01
   8   0   2   84.57    3.93
   8   0   2   91.63    4.30
   8   0   2   97.15    4.17
   8   0   2   88.31    3.91
  -8   0  -3  341.35   18.41
   8   0   3  389.37   14.68
   8   0   3  393.80   14.71
   8   0   3  433.45   20.71
   8   0   3  383.89   14.81
   8   0   3  379.09   14.75
   8   0   3  362.44   14.58
  -8   0  -4   47.15    5.84
   8   0   4   58.28    3.12
   8   0   4   56.24    2.94
   8   0   4   58.59    3.06
   8   0   4   57.28    3.32
   8   0   4   54.12    3.38
   8   0   4   55.14    2.91
  -8   0  -5    1.75    3.43
   8   0   5    1.99    2.02
   8   0   5    1.75    1.42
   8   0   5    6.88    3.68
   8   0   5    2.13    1.43
   8   0   5    2.47    1.51
   8   0   5    3.73    2.09
   8   0   5    2.27    2.14
   8   0   5    3.04    1.42
   8   0   6  423.85   15.65
  -8   0  -6  402.60   21.21
  -8   0  -6  348.67   19.56
   8   0   6  409.78   15.70
   8   0   6  404.18   15.62
   8   0   6  382.20   15.47
   8   0   6  403.38   15.70
   8   0   6  409.24   15.57
   8   0   6  394.49   21.26
   8   0   7  129.00    5.39
   8   0   7  114.84    5.62
   8   0   7  118.50    5.64
   8   0   7  122.04    5.37
   8   0   7  128.04    5.42
   8   0   8    1.30    1.38
   8   0   8    1.82    1.44
   8   0   8    2.70    2.11
   8   0   8    1.68    1.35
   8   0   9  167.52    7.00
   8   0   9  187.65    7.13
   8   0   9  172.21    7.05
   8   0   9  172.58    7.19
   8   0  10    0.07    0.95
   8   0  10    1.22    0.99
   8   0  10    1.51    1.34
   8   0  11   13.88    1.10
   8   0  11   16.11    1.30
   8   0  12    1.62    0.52
   8   1 -12    9.32    0.78
  -8   1  12    8.45    0.73
   8  -1 -11   20.71    1.38
  -8   1  11   13.95    1.36
   8  -1 -11   18.39    1.48
   8   1 -11   18.25    1.43
   8   1 -11   20.29    1.35
  -8  -1  11   17.56    1.26
  -8   1  11   16.34    1.30
   8   1 -10    2.90    1.48
   8   1 -10    2.13    1.11
   8  -1 -10    1.37    1.44
   8   1 -10    2.54    1.46
   8  -1 -10    1.00    1.51
   8   1 -10    1.06    0.94
   8  -1 -10    2.56    1.12
   8   1  -9    5.50    1.40
   8  -1  -9    3.76    1.86
   8   1  -9    3.55    1.76
   8   1  -9    5.35    1.92
   8  -1  -9    2.24    1.71
   8   1  -9    2.72    1.17
   8  -1  -9    1.62    1.30
   8   1  -8  147.10    6.28
   8  -1  -8  138.89    6.24
   8   1  -8  134.64    6.05
   8  -1  -8  148.37    6.18
   8  -1  -8  142.83    6.21
   8   1  -8  133.91    6.14
   8   1  -8  133.62    5.95
   8  -1  -8  147.66    6.01
   8   1  -8  150.24    6.08
   8  -1  -7    7.74    1.55
   8   1  -7    7.60    2.31
   8  -1  -7    6.32    2.21
   8  -1  -7    8.34    1.39
   8   1  -7    7.08    1.63
   8   1  -7    7.75    1.52
   8   1  -7    8.76    1.50
   8  -1  -7    7.76    2.23
   8   1  -7    7.96    2.17
   8  -1  -7    6.72    1.65
   8   1  -6   28.18    2.14
   8  -1  -6   31.27    1.99
  -8  -1   6   28.80    5.75
  -8   1   6   16.53    5.05
   8  -1  -6   23.79    2.09
  -8   1   6   23.30    5.48
   8   1  -6   28.29    2.76
   8  -1  -6   22.45    2.71
   8  -1  -6   27.48    6.08
   8   1  -6   23.59    5.55
   8   1  -6   25.66    2.12
   8  -1  -6   25.49    1.64
   8   1  -6   25.13    2.16
   8  -1  -6   24.91    2.31
   8  -1  -6   24.67    2.69
   8   1  -6   24.71    2.63
   8   1  -6   25.86    1.92
   8  -1  -6   25.84    2.25
   8   1  -5  290.68   10.96
   8  -1  -5  279.24   10.87
  -8  -1   5  215.81   14.84
  -8   1   5  213.46   14.62
  -8   1   5  203.62   15.25
   8  -1  -5  272.46   10.98
   8   1  -5  291.95   11.10
   8  -1  -5  270.74   16.24
   8   1  -5  283.71   16.57
   8   1  -5  284.67   11.00
   8  -1  -5  264.17   10.72
   8   1  -5  276.63   11.08
   8  -1  -5  281.50   11.06
   8  -1  -5  278.16   11.02
   8   1  -5  273.95   10.97
   8   1  -5  274.17   10.72
   8  -1  -5  266.51   10.88
   8   1  -4  185.61    7.41
   8  -1  -4  186.54    7.35
   8  -1  -4  177.73   12.23
   8   1  -4  192.01   12.28
  -8   1   4  130.65   10.39
  -8  -1   4  150.01   11.19
   8   1  -4  167.87    7.38
  -8   1   4  162.30   12.09
   8  -1  -4  179.02    7.45
   8   1  -4  176.36    7.46
   8  -1  -4  175.49    7.21
   8   1  -4  183.11    7.56
   8  -1  -4  182.89    7.49
   8  -1  -4  182.79    7.52
   8   1  -4  182.81    7.66
   8   1  -4  173.59    7.10
   8  -1  -4  183.57    7.41
   8  -1  -3    5.56    3.99
   8   1  -3    8.86    3.82
   8   1  -3    6.38    1.43
   8  -1  -3    4.98    1.18
  -8  -1   3    3.34    3.22
   8   1  -3    4.28    1.37
   8  -1  -3    5.13    1.43
   8   1  -3    6.50    1.83
   8  -1  -3    3.03    1.38
   8   1  -3    4.07    1.41
   8  -1  -3    3.70    1.00
   8  -1  -3    4.15    1.76
   8   1  -3    6.05    1.81
   8  -1  -3    5.16    1.69
   8   1  -2   37.37    2.32
   8  -1  -2   39.71    2.16
   8  -1  -2   45.97    6.15
   8   1  -2   30.81    5.17
  -8  -1   2   27.78    4.35
   8   1  -2   32.05    2.08
  -8   1   2   28.64    5.70
   8  -1  -2   31.85    1.93
   8   1  -2   37.25    2.43
   8  -1  -2   35.74    2.23
   8  -1  -2   34.89    2.05
   8  -1  -2   37.48    2.54
   8   1  -2   35.70    2.43
   8  -1  -2   34.67    2.47
   8   1  -2   38.82    2.51
   8  -1  -1   19.87    4.90
   8   1  -1   20.79    4.76
   8  -1  -1   25.45    2.21
   8   1  -1   28.70    2.17
   8   1  -1   24.00    1.71
   8  -1  -1   25.80    2.00
  -8  -1   1   26.41    4.89
  -8   1   1   19.32    5.09
   8  -1  -1   29.85    1.73
   8   1  -1   26.47    2.12
   8   1  -1   27.93    2.00
   8  -1  -1   23.10    1.75
   8  -1  -1   28.58    1.76
   8  -1  -1   25.50    2.20
   8   1  -1   27.42    2.15
   8   1  -1   28.66    1.91
   8  -1  -1   25.65    1.75
   8  -1   0    9.69    2.70
  -8  -1   0    3.31    2.93
  -8   1   0    3.47    3.83
   8   1   0    9.03    1.10
   8   1   0    7.88    1.63
   8  -1   0    7.65    1.36
   8   1   0    7.87    1.59
   8  -1   0    8.12    1.14
   8   1   0    8.03    1.47
   8  -1   0    9.68    1.19
   8  -1   0    9.62    1.78
   8   1   0    7.84    1.62
   8   1   0    8.54    1.00
   8   1   0    5.58    3.38
   8  -1   0    7.99    3.14
   8   1   0   11.00    1.39
   8  -1   0    7.74    1.16
   8  -1   0    9.65    4.15
   8   1   0   10.36    4.10
   8   1   1   14.83    4.15
   8  -1   1   14.11    3.69
   8   1   1   17.64    1.99
  -8  -1  -1   19.65    3.58
  -8   1  -1   14.99    4.46
   8  -1   1   21.90    1.64
   8   1   1   21.31    1.90
   8   1   1   19.10    1.76
   8  -1   1   18.68    2.03
   8   1   1   16.83    1.93
   8   1   1   19.35    1.48
   8   1   1   21.36    1.68
   8  -1   1   19.16    1.50
   8   1   2  100.53    4.27
   8  -1   2   95.44    4.14
   8   1   2   97.00    8.35
   8  -1   2   89.19    8.13
  -8   1  -2   77.01    7.95
  -8   1  -2   85.90    7.85
   8   1   2   95.66    4.08
   8  -1   2   96.09    4.25
   8   1   2   93.36    4.34
   8   1   2   93.49    4.28
   8  -1   2   90.50    4.43
   8  -1   2   93.67    4.45
   8   1   2   93.31    4.40
   8   1   2   90.10    4.13
   8  -1   2   87.89    4.07
   8   1   2   89.87    4.37
   8   1   3   12.21    4.05
   8  -1   3   14.20    3.74
   8  -1   3   12.72    1.35
   8   1   3   12.71    1.60
  -8   1  -3   16.69    4.87
  -8   1  -3   13.51    4.11
   8   1   3   11.65    1.64
   8   1   3   11.32    2.08
   8  -1   3   15.01    1.64
   8   1   3   12.45    1.67
   8   1   3   14.30    1.64
   8  -1   3   10.70    2.00
   8   1   3   12.56    1.96
   8   1   3   13.00    1.72
   8  -1   3   13.03    1.70
  -8  -1  -4   80.33    8.17
   8   1   4  100.77    4.38
   8  -1   4  101.55    4.27
   8   1   4   93.70    8.73
   8  -1   4  101.20    8.68
  -8   1  -4   64.91    7.85
  -8   1  -4   76.71    7.32
   8   1   4   93.79    4.43
   8  -1   4  100.64    4.41
   8   1   4   87.28    4.26
   8   1   4   94.14    4.37
   8   1   4   89.12    4.39
   8  -1   4   95.48    4.59
   8   1   4   98.23    4.58
   8   1   4   97.97    4.53
   8  -1   4   92.65    4.42
   8   1   4   96.86    4.59
  -8  -1  -5   34.70    5.65
  -8   1  -5   23.05    5.26
   8   1   5   30.71    2.53
   8   1   5   31.07    5.39
   8  -1   5   29.29    4.95
   8   1   5   28.86    2.13
   8  -1   5   30.25    2.01
   8   1   5   28.16    2.11
   8  -1   5   29.69    2.27
   8  -1   5   30.51    2.67
   8   1   5   29.77    2.55
   8   1   5   27.76    2.34
   8  -1   5   29.87    2.78
   8   1   5   29.06    2.63
   8   1   5   29.72    2.72
   8  -1   6   29.82    2.03
   8   1   6   27.44    2.16
  -8  -1  -6   23.88    5.43
  -8   1  -6   29.87    6.03
   8   1   6   27.00    2.60
   8   1   6   28.25    2.69
   8   1   6   29.86    2.09
   8   1   6   31.19    2.47
   8  -1   6   32.79    2.69
   8   1   6   29.06    2.65
   8  -1   6   32.31    2.76
   8   1   6   26.65    5.09
   8  -1   6   21.07    4.53
   8   1   6   30.99    2.17
   8  -1   6   30.88    2.01
   8   1   7  149.42    6.15
   8  -1   7  154.52    6.11
   8   1   7  148.33    6.38
   8   1   7  143.92    6.38
   8   1   7  135.11    6.00
   8   1   7  137.71    6.32
   8  -1   7  150.18    6.38
   8   1   7  144.89    6.34
   8  -1   7  146.76    6.40
   8  -1   7  151.27    6.15
   8   1   7  142.37    6.15
   8   1   8   18.96    2.26
   8  -1   8   26.20    2.46
   8   1   8   22.59    2.38
   8  -1   8   22.27    1.75
   8   1   8   25.26    1.94
   8  -1   8   24.01    1.97
   8  -1   8   20.96    2.30
   8   1   8   23.92    2.22
   8  -1   8   26.26    2.35
   8   1   8   24.94    1.82
   8  -1   8   25.15    1.74
   8  -1   9   11.33    1.48
   8  -1   9   15.58    1.35
   8   1   9   15.98    1.52
   8  -1   9   13.58    1.84
   8   1   9   13.44    1.81
   8   1   9   13.86    1.41
   8  -1   9   14.15    1.31
   8  -1  10    6.18    1.08
   8  -1  10    5.65    1.34
  -8  -1 -10    4.54    1.25
  -8   1 -10    4.04    1.30
   8   1  10    5.23    1.02
   8  -1  10    4.27    0.92
   8  -1  11    3.41    0.77
   8  -1  11    5.03    0.93
  -8  -1 -11    4.37    0.93
  -8   1 -11    3.99    0.92
   8   1  11    4.47    0.76
   8  -1  11    4.30    0.71
   8   2 -11    2.77    0.70
  -8   2  11    3.92    0.73
   8  -2 -11    1.96    0.75
   8  -2 -10    5.50    0.97
   8   2 -10    7.01    1.07
   8  -2 -10    6.49    1.12
   8  -2  -9   13.75    1.51
   8   2  -9   13.25    1.26
  -8   2   8   66.75    3.22
   8  -2  -8   64.53    3.20
   8  -2  -8   61.61    3.14
   8   2  -8   65.10    3.07
   8  -2  -8   59.87    3.16
   8  -2  -7    8.40    1.90
   8  -2  -7    7.82    1.26
  -8   2   7    7.05    1.88
   8   2  -7    7.53    1.45
   8  -2  -7    8.21    1.66
   8  -2  -7   11.59    1.83
   8   2  -7    8.59    1.50
   8  -2  -7    7.37    1.09
   8   2  -7    7.49    1.50
   8  -2  -6  146.33    6.17
   8  -2  -6  133.50    5.96
  -8   2   6  149.03    6.14
   8   2  -6  137.10    6.10
   8  -2  -6  143.17    6.10
   8  -2  -6  144.46    6.08
   8   2  -6  133.87    5.94
   8   2  -6  138.89    5.96
   8  -2  -6  142.91    5.85
   8   2  -6  145.52    5.98
   8  -2  -5   10.54    1.22
   8   2  -5   10.90    1.66
  -8  -2   5   11.61    4.90
  -8   2   5    8.81    1.01
  -8   2   5    9.87    4.56
   8  -2  -5   10.79    1.50
  -8   2   5   10.06    2.06
   8   2  -5   10.11    1.67
   8  -2  -5    9.92    1.84
   8  -2  -5   12.92    1.95
   8   2  -5   10.64    1.79
   8   2  -5   10.64    1.50
   8  -2  -5   11.84    2.19
   8   2  -4  299.27   11.84
   8  -2  -4  312.38   11.82
   8  -2  -4  293.82   15.78
   8  -2  -4  298.10   16.60
   8   2  -4  285.29   16.15
  -8  -2   4  248.25   16.13
  -8   2   4  282.88   17.09
   8  -2  -4  312.15   11.97
  -8   2   4  281.74   11.70
   8  -2  -4  295.23   11.75
  -8   2   4  314.44   11.93
   8   2  -4  320.99   12.09
   8   2  -4  306.12   12.14
   8  -2  -4  324.46   12.00
   8  -2  -4  306.97   11.91
   8   2  -4  298.69   11.83
   8   2  -4  292.91   11.74
   8  -2  -4  313.33   12.11
   8   2  -3  165.26    6.76
   8  -2  -3  164.43    6.65
   8  -2  -3  153.47   10.43
   8   2  -3  166.16   10.97
   8  -2  -3  144.38   10.87
  -8  -2   3  133.61   10.78
  -8   2   3  128.86   11.19
   8  -2  -3  157.75    6.83
  -8   2   3  160.05    6.66
   8  -2  -3  176.33    6.73
  -8   2   3  167.69    6.79
   8   2  -3  166.78    6.95
   8   2  -3  166.10    7.06
   8  -2  -3  164.93    6.81
   8  -2  -3  160.84    6.83
   8   2  -3  160.49    6.76
   8   2  -3  160.74    7.21
   8  -2  -2   29.42    4.60
   8   2  -2   26.27    1.92
   8  -2  -2   24.35    1.63
   8  -2  -2   32.39    5.14
   8   2  -2   23.63    4.50
  -8  -2   2   16.14    4.38
  -8   2   2   19.19    1.62
   8  -2  -2   29.67    2.05
   8  -2  -2   23.46    2.08
  -8   2   2   26.43    1.99
   8   2  -2   29.50    2.29
   8   2  -2   24.24    2.24
   8  -2  -2   24.39    1.55
   8  -2  -2   23.74    1.85
   8  -2  -2   25.25    2.13
   8   2  -2   26.57    1.99
   8   2  -2   30.27    2.80
   8  -2  -1   52.49    6.33
   8  -2  -1   53.47    3.30
   8   2  -1   49.89    3.44
  -8   2   1   57.90    7.54
   8  -2  -1   55.93    2.89
  -8   2   1   49.65    2.62
  -8   2   1   48.73    2.53
   8   2  -1   51.10    2.94
   8  -2  -1   54.60    2.57
   8  -2  -1   45.57    2.89
   8   2  -1   48.21    2.82
   8   2  -1   52.39    2.72
   8  -2  -1   58.58    6.24
   8  -2  -1   51.65    2.54
   8   2   0    6.37    1.35
   8  -2   0    6.30    0.95
   8  -2   0    5.06    1.29
   8  -2   0    5.10    2.21
  -8   2   0   -0.55    4.50
   8   2   0    6.23    2.34
   8  -2   0    7.44    1.81
   8   2   0    5.96    1.52
   8  -2   0    6.07    1.02
  -8   2   0    6.07    1.14
   8   2   0    6.38    1.81
   8  -2   0    7.15    1.66
   8   2   0    6.20    1.49
   8  -2   0    7.85    3.53
   8   2   1    3.30    2.99
   8  -2   1    9.17    2.95
   8   2   1    7.40    1.37
   8  -2   1    6.26    0.99
   8  -2   1    5.49    1.56
  -8   2  -1    5.47    4.48
   8   2   1    7.21    2.39
   8  -2   1    6.15    1.91
   8   2   1    6.60    1.47
   8  -2   1    8.87    1.18
   8   2   1    6.38    1.91
   8   2   1    5.23    1.60
   8  -2   1    6.29    1.71
   8  -2   1    7.16    3.87
   8  -2   2  356.16   13.77
   8   2   2  363.47   13.82
   8   2   2  331.46   18.40
   8  -2   2  340.10   18.33
  -8   2  -2  304.97   18.85
  -8   2  -2  374.69   19.63
   8  -2   2  360.91   14.01
   8  -2   2  371.86   13.91
   8   2   2  358.98   14.15
   8   2   2  360.16   13.91
   8  -2   2  348.73   13.87
   8   2   2  350.86   13.82
   8  -2   2  357.03   13.87
   8   2   2  372.52   14.22
   8   2   3  322.94   12.22
   8  -2   3  317.57   12.16
  -8   2  -3  280.22   17.47
  -8   2  -3  294.86   17.31
   8   2   3  277.14   16.50
   8  -2   3  320.28   17.00
   8  -2   3  319.01   12.30
   8   2   3  329.73   12.55
   8   2   3  294.63   12.20
   8   2   3  299.57   12.23
   8  -2   3  317.34   12.52
   8  -2   3  310.10   12.27
   8   2   3  323.32   12.26
   8  -2   3  317.07   12.32
   8   2   3  332.03   12.63
   8   2   4   36.23    2.19
   8  -2   4   34.03    1.98
  -8   2  -4   23.02    5.79
  -8   2  -4   33.48    5.58
   8  -2   4   40.00    2.28
   8   2   4   36.58    2.19
   8  -2   4   38.51    2.80
   8   2   4   37.30    3.11
   8  -2   4   34.27    2.51
   8   2   4   36.01    2.47
   8   2   4   35.18    2.34
   8  -2   4   37.44    2.92
   8   2   4   28.61    4.84
   8  -2   5   93.33    4.52
   8   2   5   97.28    4.78
   8   2   5   93.06    4.32
   8  -2   5   93.79    4.32
   8   2   5   87.69    4.20
   8  -2   5   90.69    4.56
   8   2   5   87.48    4.08
   8  -2   5   91.91    4.00
   8  -2   5   95.08    4.28
   8  -2   6   47.81    3.23
   8   2   6   55.47    3.44
   8  -2   6   54.61    2.80
   8   2   6   48.27    2.90
   8  -2   6   46.36    2.81
   8   2   6   51.15    2.80
   8  -2   6   51.27    3.16
   8  -2   6   48.88    2.45
   8   2   6   48.83    2.59
   8  -2   7   46.41    2.25
   8  -2   7   47.95    2.96
   8   2   7   41.19    3.17
   8  -2   7   44.98    2.53
   8   2   7   46.49    2.69
   8  -2   7   44.79    2.85
   8   2   7   44.14    2.37
   8  -2   8   39.60    2.52
   8   2   8   39.57    2.65
   8  -2   8   37.67    2.23
   8   2   8   39.81    2.38
   8  -2   8   38.58    2.39
   8  -2   8   36.70    1.91
   8  -2   9   27.61    1.87
   8   2   9   28.64    2.08
   8  -2   9   25.04    1.68
  -8  -2  -9   25.79    1.58
   8  -2   9   22.14    1.37
   8  -2  10   38.46    1.87
   8   2  10   35.39    1.96
  -8   2 -10   32.11    1.83
   8  -3 -10   14.69    0.96
   8   3  -9    7.10    0.94
   8  -3  -9    7.19    1.08
   8  -3  -9    6.64    1.00
  -8   3   8    9.67    1.32
   8  -3  -8    8.97    1.25
   8   3  -8    7.45    1.16
   8  -3  -8    9.20    1.39
  -8   3   7   24.00    1.44
  -8   3   7   32.58    2.05
   8   3  -7   28.01    1.68
   8  -3  -7   30.16    1.91
   8   3  -7   27.13    1.79
   8  -3  -7   29.45    2.14
   8   3  -6   17.29    1.57
   8  -3  -6   19.54    1.70
  -8   3   6   21.67    1.87
   8   3  -6   21.94    1.69
  -8   3   6   16.90    1.29
   8  -3  -6   18.76    1.35
  -8   3   5  166.95    7.10
   8  -3  -5  171.16    7.15
   8  -3  -5  190.72    7.24
  -8   3   5  202.20    7.38
   8   3  -5  175.04    7.36
   8  -3  -5  177.29    7.24
   8   3  -5  167.37    7.16
   8  -3  -5  186.85    7.49
   8   3  -4  123.01    5.41
   8  -3  -4  128.03    5.33
  -8   3   4  132.69    5.39
   8  -3  -4  117.83    5.17
  -8   3   4  112.28    5.10
   8  -3  -4  125.13    5.62
  -8   3   3   45.93    2.40
   8   3  -3   55.07    3.00
   8  -3  -3   55.26    3.07
  -8   3   3   52.88    2.96
   8  -3  -3   54.41    2.74
  -8   3   3   51.97    2.70
   8  -3  -3   50.44    3.29
  -8   3   2   54.34    2.71
   8   3  -2   56.86    3.08
   8   3  -2   58.78    3.30
   8  -3  -2   60.50    3.27
  -8   3   2   59.32    3.09
   8  -3  -2   55.86    2.94
  -8   3   2   59.01    2.94
   8  -3  -2   51.68    3.51
   8   3  -2   54.96    3.71
   8   3  -1   11.32    1.65
  -8   3   1   13.88    1.40
   8   3  -1   12.55    1.97
   8   3  -1   10.12    2.68
   8  -3  -1   10.95    2.16
  -8   3   1   12.78    1.76
   8  -3  -1   15.82    1.59
  -8   3   1   13.41    1.57
   8  -3  -1   13.44    2.32
  -8   3   0   32.57    2.08
   8   3   0   29.95    2.11
   8   3   0   33.84    2.69
   8  -3   0   34.24    2.75
  -8   3   0   37.32    2.12
  -8   3   0   33.10    2.24
   8  -3   0   32.77    2.36
   8   3   0   32.00    3.08
   8  -3   1   39.97    3.03
   8  -3   1   42.35    2.70
   8   3   1   43.58    3.34
  -8   3  -1   42.15    2.49
   8  -3   2   41.59    2.72
   8   3   2   43.36    3.27
   8  -3   2   39.46    2.10
  -8   3  -2   44.88    2.57
   8  -3   3  117.15    5.22
   8   3   3  108.37    5.46
   8  -3   3  111.86    5.11
   8  -3   3  107.47    4.68
  -8   3  -3  116.61    5.03
   8  -3   4   30.07    2.47
   8   3   4   35.53    2.92
   8  -3   4   28.04    2.57
   8  -3   4   33.87    1.90
  -8   3  -4   33.66    2.31
   8  -3   5   25.02    2.20
   8  -3   5   26.38    2.38
   8   3   5   25.69    2.61
   8  -3   5   27.14    1.67
  -8   3  -5   28.00    2.11
   8   3   6  113.91    4.63
   8  -3   6  104.24    4.65
   8  -3   6  104.80    4.82
   8   3   6  110.38    4.97
   8  -3   6  106.13    4.55
   8   3   7   16.75    1.45
   8  -3   7   14.44    1.47
   8   3   7   15.42    1.91
   8  -3   7   19.02    1.73
   8  -3   7   13.60    1.23
  -8   3  -7   13.78    1.55
   8  -3   8   21.77    1.58
   8   3   8   21.33    1.45
   8   3   8   20.13    1.72
   8  -3   8   20.31    1.33
  -8   3  -8   20.87    1.50
   8  -3   9    2.67    0.67
  -8   3  -9    2.94    0.79
   8  -3   9    2.50    0.78
   8   3   9    4.09    1.06
   8  -4  -7   89.28    3.86
  -8   4   7   99.67    3.84
  -8   4   6   47.34    2.16
   8  -4  -6   47.15    2.23
   8  -4  -5    6.13    1.21
  -8   4   5    6.12    1.22
   8  -4  -5    6.25    1.34
  -8   4   5    4.12    0.88
   8  -4  -4    6.95    1.34
  -8   4   4    7.11    1.32
   8  -4  -4    5.95    1.48
  -8   4   4    5.71    1.03
   8  -4  -3   28.30    1.99
  -8   4   3   25.34    1.79
   8  -4  -3   25.05    1.95
   8  -4  -3   23.42    1.41
  -8   4   3   28.07    1.68
  -8   4   3   21.61    1.37
   8  -4  -2   18.59    1.27
  -8   4   2   17.83    1.50
  -8   4   2   16.49    1.26
   8  -4  -2   19.65    1.85
  -8   4   2   17.13    1.58
  -8   4   1    2.17    1.12
   8  -4  -1    0.40    0.83
  -8   4   1    2.61    1.25
  -8   4   1    0.51    0.93
  -8   4   0   10.54    1.42
   8  -4   0    9.55    1.14
   8   4   0   12.11    1.92
  -8   4   0    9.43    1.28
  -8   4   0    9.41    1.24
  -8   4  -1   10.06    1.31
   8   4   1   11.47    1.87
   8  -4   1    9.55    1.78
  -8   4  -1   10.04    1.44
   8  -4   1   11.47    1.64
   8  -4   2   83.38    3.66
   8   4   2   76.48    3.75
   8  -4   2   73.10    3.58
  -8   4  -2   74.60    3.49
   8   4   3    1.07    1.58
  -8   4  -3    3.12    1.16
   8  -4   3    4.03    1.39
   8  -4   3    4.02    1.54
  -8   4  -4   29.56    1.81
   8  -4   4   28.83    2.00
   8   4   4   30.62    2.09
  -8   4  -4   28.48    1.82
   8  -4   4   27.89    1.78
   8  -4   5   39.65    2.12
   8   4   5   35.69    2.07
  -8   4  -5   35.64    1.91
  -8   4  -6   37.91    1.84
   8   4   6   34.97    1.94
  -8   4  -6   36.81    1.87
  -8   4  -7   20.35    1.14
  -8   5   3   10.78    0.74
  -8   5   2   13.16    0.89
  -8   5   0    5.40    0.66
  -8   5   0    4.89    0.74
  -8   5  -1    5.03    0.66
  -8   5  -1    4.70    0.69
  -8   5  -2    9.97    0.78
  -9   0  11    1.30    0.67
   9   0 -11    1.06    0.67
   9   0 -10   10.96    1.20
   9   0  -9   44.28    2.44
   9   0  -8   39.93    2.37
   9   0  -8   33.75    2.31
   9   0  -7  179.42    7.20
   9   0  -7  164.75    7.25
   9   0  -6   30.55    2.24
   9   0  -6   29.27    1.99
   9   0  -5   84.85    4.07
   9   0  -5   82.59    3.94
   9   0  -5   81.52    4.11
   9   0  -4    4.08    1.77
   9   0  -4    5.35    1.32
  -9   0   4    5.03    4.50
   9   0  -4    5.33    1.65
   9   0  -4    5.08    1.59
   9   0  -3   42.51    2.71
  -9   0   3   31.92    6.28
   9   0  -3   41.89    3.20
   9   0  -3   44.25    2.61
   9   0  -3   41.63    2.54
   9   0  -3   41.33    2.83
   9   0  -2   27.79    2.25
  -9   0   2   25.16    5.74
   9   0  -2   29.13    2.40
   9   0  -2   31.11    2.18
   9   0  -2   26.24    2.76
   9   0  -2   35.00    2.24
  -9   0   1    6.74    4.12
   9   0  -1    9.56    1.64
   9   0  -1    8.02    1.46
   9   0  -1    9.91    1.76
   9   0  -1    8.09    1.56
   9   0  -1    7.13    2.30
   9   0  -1    9.54    1.52
   9   0  -1    8.36    1.60
   9   0   0   14.53    1.72
  -9   0   0   13.77    4.64
   9   0   0   14.89    1.72
   9   0   0   14.11    1.56
   9   0   0   13.42    1.71
   9   0   0   13.34    1.71
   9   0   0   15.08    2.33
   9   0   0   13.77    1.75
   9   0   0   17.16    4.50
   9   0   0   12.98    5.12
   9   0   1   78.08    7.84
   9   0   1   72.59    3.53
  -9   0  -1   62.43    7.06
   9   0   1   81.63    3.71
   9   0   1   75.26    3.45
   9   0   1   76.63    3.70
   9   0   1   76.34    3.79
   9   0   1   81.24    4.08
   9   0   1   76.25    3.80
   9   0   1   78.05    3.72
   9   0   2    2.40    1.26
   9   0   2    1.14    1.52
   9   0   2    2.06    1.34
   9   0   2    0.96    1.26
   9   0   2    0.49    2.16
   9   0   2   -0.15    1.86
   9   0   2   -3.46    3.52
   9   0   2   -0.21    1.33
   9   0   3   58.54    3.09
   9   0   3   58.28    2.87
   9   0   3   52.06    3.13
   9   0   3   58.40    3.54
   9   0   3   61.13    3.45
   9   0   3   61.49    7.06
   9   0   4    1.51    1.07
   9   0   4    0.23    1.53
   9   0   4   -1.61    1.84
   9   0   4   -0.11    2.19
   9   0   4   -1.96    2.11
   9   0   4    1.16    3.21
   9   0   4    1.00    1.43
   9   0   5  174.02    7.11
   9   0   5  164.42    7.11
   9   0   5  166.38    7.26
   9   0   5  168.41    7.21
   9   0   5  174.54    7.05
   9   0   6   89.04    4.10
   9   0   6   83.66    4.25
   9   0   6   88.90    4.42
   9   0   6   81.80    4.37
   9   0   6   89.96    4.05
   9   0   7    4.40    1.45
   9   0   7    4.51    1.84
   9   0   7    5.00    1.91
   9   0   7    6.19    1.36
   9   0   8   12.04    1.40
   9   0   8   13.21    1.84
   9   0   8   11.79    1.36
   9   0   8   12.07    1.84
   9   0   9    8.39    1.10
   9   0  10    2.56    1.00
  -9   0 -10    2.53    1.01
   9   0  10    2.98    0.77
   9  -1 -11    2.43    0.66
   9  -1 -10    7.42    1.15
   9   1 -10    6.22    1.08
  -9   1  10    4.98    1.07
   9   1 -10    5.60    0.92
   9  -1 -10    6.41    1.05
   9  -1  -9    7.99    1.44
   9   1  -9   10.75    1.49
  -9   1   9    7.57    1.44
   9   1  -9    8.21    1.22
   9  -1  -9    8.28    1.29
   9   1  -8  121.28    5.44
   9  -1  -8  131.02    5.53
   9   1  -8  122.74    5.47
   9  -1  -8  137.58    5.39
   9   1  -8  126.93    5.41
   9   1  -7   16.02    1.81
   9  -1  -7   15.44    1.51
   9   1  -7   15.27    1.81
   9  -1  -7   16.33    2.22
   9   1  -7   13.61    2.11
   9  -1  -7   14.13    1.63
   9  -1  -6    6.39    1.58
   9  -1  -6    5.20    1.58
   9   1  -6    9.36    1.74
   9  -1  -6    7.28    1.79
   9   1  -6    7.85    1.52
   9  -1  -6    6.57    1.02
   9  -1  -6    5.16    2.20
   9   1  -6    4.74    2.12
   9   1  -6    8.55    1.58
   9  -1  -6    5.42    1.28
   9  -1  -5   16.88    1.97
   9  -1  -5   17.18    2.13
   9   1  -5   17.00    2.11
   9  -1  -5   17.12    2.11
   9   1  -5   16.99    1.96
   9  -1  -5   17.89    1.44
   9  -1  -5   19.72    2.51
   9   1  -5   17.41    2.45
   9   1  -5   17.60    1.96
   9  -1  -5   21.87    1.77
   9  -1  -4  118.41   10.21
   9   1  -4  112.02    9.77
   9   1  -4  123.85    5.34
   9  -1  -4  114.97    5.35
   9  -1  -4  114.87    5.33
   9   1  -4  130.33    5.45
   9  -1  -4  119.41    5.10
   9  -1  -4  117.83    5.43
   9  -1  -4  116.56    5.52
   9   1  -4  116.07    5.48
   9   1  -4  118.25    5.31
   9  -1  -4  127.88    5.28
   9  -1  -3   26.34    5.77
   9   1  -3   29.82    5.89
   9   1  -3   25.10    2.12
  -9  -1   3   20.17    5.53
  -9   1   3   22.03    5.63
   9  -1  -3   25.18    2.42
   9   1  -3   27.53    2.28
   9  -1  -3   25.39    1.84
   9  -1  -3   27.82    2.26
   9  -1  -3   26.08    2.71
   9   1  -3   25.65    2.63
   9   1  -3   33.14    2.30
   9  -1  -3   28.13    1.95
   9   1  -2   32.75    5.97
   9  -1  -2   25.66    5.82
   9   1  -2   23.19    1.93
   9  -1  -2   22.29    2.12
  -9  -1   2   21.83    5.26
  -9   1   2   26.37    5.92
   9   1  -2   23.25    2.42
   9   1  -2   26.53    2.39
   9  -1  -2   23.36    2.12
   9  -1  -2   26.61    1.86
   9  -1  -2   25.02    2.63
   9   1  -2   23.43    2.54
   9   1  -2   26.79    2.12
   9  -1  -2   27.25    1.88
   9   1  -1   57.53    7.25
   9  -1  -1   52.66    7.34
   9   1  -1   55.53    3.30
   9   1  -1   52.79    3.22
   9  -1  -1   51.17    2.90
   9  -1  -1   58.35    2.89
   9   1  -1   51.58    2.80
   9  -1  -1   52.26    3.03
  -9  -1   1   44.92    6.42
  -9   1   1   48.43    7.14
   9  -1  -1   53.22    3.29
   9   1  -1   58.81    3.26
   9  -1  -1   52.71    3.12
   9   1  -1   50.53    2.96
   9  -1  -1   54.88    2.86
   9   1   0   44.54    3.01
   9   1   0   42.67    2.39
   9  -1   0   40.72    2.68
  -9  -1   0   39.34    5.62
  -9   1   0   38.65    6.57
   9   1   0   39.65    2.92
   9  -1   0   39.84    2.43
   9   1   0   47.05    2.80
   9  -1   0   47.87    2.58
   9  -1   0   46.80    3.01
   9   1   0   45.36    2.93
   9  -1   0   46.25    2.89
   9   1   0   50.25    2.70
   9  -1   0   47.56    2.54
  -9   1  -1    8.43    4.34
  -9   1  -1    0.52    4.30
   9  -1   1    8.53    1.65
   9   1   1    6.92    2.10
   9   1   1    9.71    1.76
   9  -1   1    9.91    1.47
   9   1   1    9.17    1.95
   9  -1   1    9.07    2.14
   9  -1   1    7.60    2.10
   9   1   1    9.87    2.16
   9   1   1    8.47    1.51
   9   1   1    9.50    3.95
   9  -1   1    8.28    3.55
   9   1   1    7.62    1.58
   9  -1   1    8.91    1.35
   9   1   2  171.34    7.20
   9  -1   2  178.27    7.13
   9   1   2  166.38   11.95
   9  -1   2  192.42   12.47
  -9   1  -2  144.86   11.46
  -9   1  -2  153.32   11.55
   9  -1   2  178.88    7.25
   9   1   2  173.39    7.30
   9   1   2  172.94    7.23
   9  -1   2  179.64    7.35
   9  -1   2  175.04    7.35
   9   1   2  180.53    7.32
   9   1   2  166.50    7.08
   9   1   2  163.26    7.32
  -9  -1  -3   89.64    8.30
   9   1   3  108.52    4.54
   9  -1   3  103.95    4.46
   9   1   3   97.79    8.87
   9  -1   3   89.81    8.54
  -9   1  -3   74.15    8.26
  -9   1  -3   72.98    7.64
   9  -1   3  103.67    4.53
   9   1   3   90.57    4.47
   9   1   3   99.15    4.55
   9   1   3   96.10    4.75
   9  -1   3   94.57    4.84
   9  -1   3   99.73    4.83
   9   1   3  101.52    4.77
   9   1   3   99.48    4.56
   9  -1   3   95.86    4.62
   9   1   3   99.22    4.41
   9  -1   4  250.25   15.99
   9  -1   4  287.07   11.25
   9   1   4  279.24   11.08
   9   1   4  269.57   11.22
   9  -1   4  298.64   11.22
   9   1   4  278.78   11.14
   9   1   4  273.11   11.15
   9  -1   4  281.57   11.25
   9   1   4  279.56   11.21
   9   1   4  290.93   11.14
   9  -1   4  286.23   11.11
   9  -1   5   22.66    2.49
   9   1   5   25.61    2.20
   9   1   5   24.43    2.48
   9  -1   5   25.78    2.04
   9   1   5   25.11    2.07
   9  -1   5   22.79    2.50
   9   1   5   25.64    2.42
   9   1   5   25.27    2.03
   9  -1   5   24.93    1.77
   9  -1   6   98.97    4.70
   9   1   6  105.14    4.63
   9   1   6   95.74    4.69
   9   1   6  100.73    4.44
   9  -1   6  101.91    4.70
   9   1   6   99.48    4.69
   9  -1   6   98.80    4.78
   9   1   6  104.00    4.52
   9  -1   6  100.25    4.39
   9   1   7   61.08    2.89
   9  -1   7   55.70    3.22
   9   1   7   57.37    3.17
   9  -1   7   59.26    3.17
   9   1   7   56.70    3.13
   9  -1   7   55.61    3.22
   9  -1   7   60.75    2.85
   9  -1   8   11.66    1.38
   9   1   8    7.44    1.61
   9  -1   8   11.24    1.19
   9   1   8   11.54    1.30
   9   1   9    7.30    0.98
   9  -1   9    6.73    0.93
   9  -1   9    7.39    1.07
   9  -1   9    5.03    1.31
   9  -1  10   36.81    1.73
   9  -1  10   41.01    1.85
  -9  -1 -10   34.40    1.76
  -9   1 -10   31.15    1.76
   9   1  10   34.56    1.70
   9  -1  10   40.53    1.71
  -9   2  10    4.07    0.72
   9   2  -9   21.32    1.40
   9  -2  -9   29.42    1.65
  -9   2   9   29.78    1.61
   9  -2  -9   24.15    1.41
   9   2  -8   27.57    1.78
   9  -2  -8   30.55    1.89
   9  -2  -8   28.26    1.79
  -9   2   8   30.01    1.90
   9  -2  -7   11.29    1.64
   9  -2  -7   11.25    1.25
  -9   2   7    9.30    1.58
   9  -2  -7   11.46    1.51
   9   2  -7   10.54    1.39
   9  -2  -7    9.00    1.50
   9  -2  -7   11.72    1.10
   9  -2  -6   34.90    2.43
   9  -2  -6   36.46    2.14
  -9   2   6   31.96    2.26
   9   2  -6   35.18    2.32
   9  -2  -6   31.61    2.26
   9  -2  -6   33.85    2.32
   9  -2  -6   38.49    1.95
   9   2  -6   35.01    2.11
   9   2  -5   11.60    1.53
   9  -2  -5    9.19    2.00
   9  -2  -5    8.48    1.43
  -9   2   5   11.15    1.77
   9   2  -5    9.35    1.70
   9  -2  -5    6.52    1.62
   9  -2  -5   10.32    1.83
   9  -2  -5   10.75    1.18
   9   2  -4   10.82    1.58
   9  -2  -4    9.12    2.24
   9  -2  -4   10.60    1.58
  -9   2   4    8.93    1.68
   9   2  -4   13.23    1.88
   9  -2  -4   10.59    1.70
   9   2  -4    8.86    1.77
   9  -2  -4   12.39    1.95
   9   2  -4    8.58    1.70
   9  -2  -4   10.37    1.19
   9  -2  -3   15.51    2.42
   9  -2  -3   16.51    1.77
  -9   2   3   15.07    1.29
  -9   2   3   15.58    1.80
   9  -2  -3   15.12    1.69
   9   2  -3   15.15    2.01
   9   2  -3   15.72    2.03
   9  -2  -3   15.41    2.06
   9   2  -3   15.86    1.90
   9   2  -3   18.11    1.75
   9  -2  -3   17.91    1.41
   9   2  -2   28.70    2.96
   9  -2  -2   29.55    2.15
  -9   2   2   26.63    1.77
   9  -2  -2   26.65    2.20
  -9   2   2   29.20    1.99
   9   2  -2   28.40    2.39
   9  -2  -2   26.44    1.67
   9  -2  -2   29.37    2.41
   9   2  -2   28.36    2.18
   9   2  -2   29.00    2.08
   9  -2  -2   28.94    1.80
  -9   2   1   14.36    1.48
   9  -2  -1   16.99    1.89
   9   2  -1   17.95    2.04
   9  -2  -1   17.44    1.38
   9   2  -1   17.21    1.67
   9  -2  -1   18.20    1.43
   9  -2  -1   16.94    2.09
   9   2  -1   17.26    1.96
   9   2  -1   17.25    2.60
   9  -2  -1   18.73    2.06
   9  -2   0   33.68    2.48
   9   2   0   34.28    2.97
   9  -2   0   33.69    2.44
   9   2   0   31.31    2.37
   9   2   0   36.36    2.19
   9  -2   0   33.07    1.95
  -9   2   0   32.78    1.94
   9   2   0   34.58    2.72
   9   2   0   34.79    2.45
   9  -2   0   33.92    2.00
   9   2   1   94.03    4.72
   9  -2   1   95.58    4.67
   9  -2   1   89.66    4.32
   9   2   1   90.47    4.23
   9   2   1   87.62    4.14
   9  -2   1   89.01    4.00
  -9   2  -1   91.30    4.09
   9   2   1   95.77    4.59
   9   2   1   90.35    4.31
   9  -2   1   99.39    4.15
   9   2   2   66.54    3.78
   9  -2   2   61.22    3.24
   9   2   2   60.79    3.16
   9   2   2   60.44    3.01
   9  -2   2   61.62    2.87
   9  -2   2   61.66    3.01
  -9   2  -2   56.54    3.00
   9   2   2   56.15    3.46
   9   2   2   54.38    3.03
   9   2   3   65.83    3.76
   9  -2   3   58.71    3.28
   9   2   3   61.30    3.24
   9  -2   3   63.28    3.64
   9  -2   3   61.78    3.32
   9   2   3   65.99    3.10
   9  -2   3   61.15    2.93
   9  -2   3   67.54    3.15
   9   2   3   58.94    3.12
   9   2   4   82.26    4.23
   9  -2   4   74.91    3.89
   9  -2   4   76.39    3.81
   9   2   4   79.33    3.77
   9  -2   4   82.76    4.10
   9  -2   4   77.71    3.51
   9   2   4   78.65    3.63
   9  -2   4   85.37    3.75
   9   2   5   38.15    2.84
   9  -2   5   35.64    2.13
   9  -2   5   33.27    2.29
   9  -2   5   38.11    2.69
   9   2   5   35.50    2.08
   9  -2   5   34.00    1.89
   9  -2   6    3.09    1.15
   9  -2   6    2.57    0.83
   9  -2   6    2.21    1.41
   9  -2   6    2.78    1.74
   9   2   6    3.26    1.95
   9   2   7   42.96    2.54
   9  -2   7   39.06    2.19
   9  -2   7   41.14    2.42
   9  -2   7   39.73    1.95
   9  -2   8    2.02    0.64
   9  -2   8    2.90    0.97
   9  -2   8    1.36    1.21
   9   2   8    0.93    1.32
   9  -2   9    7.72    0.90
  -9   2  -9    6.03    0.95
   9  -2   9    8.37    1.04
   9   2   9    6.10    1.02
   9  -3  -8    1.77    0.85
  -9   3   8    1.45    0.79
  -9   3   7   21.35    1.43
   9  -3  -7   21.11    1.53
   9   3  -6    1.92    1.01
  -9   3   6    1.60    1.20
   9  -3  -6    2.37    0.81
   9  -3  -6    1.44    1.37
  -9   3   5    3.28    0.77
   9  -3  -5    1.62    0.89
  -9   3   5    3.29    1.29
   9   3  -5    2.36    1.16
   9   3  -4   37.25    2.35
  -9   3   4   40.88    2.28
  -9   3   4   36.30    1.97
   9  -3  -4   38.69    2.11
   9  -3  -4   39.83    2.61
   9   3  -3    4.82    1.52
   9  -3  -3    4.63    1.58
  -9   3   3    6.81    1.42
  -9   3   3    5.32    1.04
   9  -3  -3    6.77    1.19
   9  -3  -3    5.73    1.92
   9   3  -2    2.41    1.55
   9  -3  -2    2.18    1.68
  -9   3   2    1.04    1.25
  -9   3   2    2.08    1.03
   9  -3  -2    3.24    1.15
  -9   3   1    8.47    1.04
   9   3  -1   10.63    1.81
   9   3  -1    7.68    2.28
   9  -3  -1   10.71    1.90
  -9   3   1    8.37    1.28
   9  -3  -1    9.60    1.40
  -9   3   0   11.47    1.24
   9   3   0   14.27    2.38
   9  -3   0   14.69    1.99
   9  -3   0   15.20    1.53
  -9   3   0   14.79    1.44
  -9   3  -1   48.43    2.70
   9  -3   1   50.22    3.16
   9   3   1   53.62    3.36
  -9   3  -1   54.68    2.65
   9  -3   2   28.02    2.47
   9   3   2   27.79    2.63
  -9   3  -2   32.11    1.97
   9  -3   3   39.73    2.61
   9   3   3   41.27    2.86
  -9   3  -3   42.10    2.28
   9  -3   3   39.32    2.01
   9  -3   4  127.01    5.28
   9  -3   4  117.72    5.20
   9  -3   4  121.44    4.98
  -9   3  -4  124.26    5.19
   9  -3   5   46.46    2.51
   9  -3   5   43.50    2.55
   9  -3   5   45.66    2.17
  -9   3  -5   44.69    2.40
   9  -3   6   58.75    2.66
  -9   3  -6   64.63    2.88
   9  -3   6   59.54    2.82
   9  -3   7    2.82    0.72
   9  -3   7    2.78    1.04
   9  -3   7    3.51    0.81
  -9   3  -8    3.65    0.69
  -9   4   4   21.06    1.23
  -9   4   4   17.35    1.14
   9  -4  -3   32.19    1.78
  -9   4   3   32.35    1.61
  -9   4   3   29.65    1.64
   9  -4  -2    3.98    1.18
  -9   4   2    4.01    0.79
  -9   4   2    2.21    0.87
   9  -4  -2    2.00    0.73
   9  -4  -1   12.25    1.45
  -9   4   1   12.26    1.00
   9  -4  -1   13.59    1.09
  -9   4   1   14.35    1.19
  -9   4   0    0.11    0.74
   9  -4   0    0.77    1.25
  -9   4   0    0.84    0.91
   9  -4   0    0.80    0.80
  -9   4  -1    4.14    0.90
   9   4   1    4.81    1.40
   9  -4   1    5.28    1.30
  -9   4  -1    4.36    1.04
   9  -4   1    4.55    0.90
  -9   4  -2   69.95    3.04
   9   4   2   64.33    3.24
   9  -4   2   73.46    3.15
   9  -4   2   69.84    3.05
  -9   4  -2   71.66    3.12
  -9   4  -3   47.34    2.20
   9   4   3   45.62    2.35
   9  -4   3   44.85    2.19
   9  -4   3   46.49    2.18
  -9   4  -4   54.34    2.37
   9   4   4   51.81    2.48
   9  -4   4   51.91    2.36
  -9   4  -5   34.89    1.64
   9  -4   5   35.63    1.62
  -9   4  -5   32.26    1.62
  10   0 -10    0.57    0.61
  10   0  -9    4.82    1.01
  10   0  -8    1.82    1.10
  10   0  -8    0.53    1.05
  10   0  -7   -0.05    1.35
  10   0  -7    1.59    1.14
  10   0  -6   17.11    1.51
  10   0  -6   20.36    1.74
  10   0  -5   24.92    1.85
  10   0  -5   25.56    2.20
  10   0  -5   25.74    2.16
  10   0  -5   27.86    2.08
  10   0  -4   32.65    2.12
  10   0  -4   32.31    2.54
  10   0  -4   28.47    2.35
  10   0  -4   35.88    2.26
  10   0  -3   60.44    3.12
  10   0  -3   56.45    3.33
  10   0  -3   61.83    3.30
  10   0  -3   62.74    3.25
  10   0  -2   29.39    2.12
  10   0  -2   27.24    2.37
  10   0  -2   27.46    2.23
  10   0  -2   28.63    2.78
  10   0  -2   31.80    2.21
  10   0  -1   14.87    1.98
  10   0  -1   15.60    1.72
  10   0  -1   15.44    1.81
  10   0  -1   15.05    2.43
  10   0  -1   13.70    1.78
  10   0   0    4.09    1.50
  10   0   0    2.81    1.58
  10   0   0    2.94    1.42
  10   0   0    3.39    2.33
  10   0   0    4.42    1.48
  10   0   1  292.29   12.44
  10   0   1  341.07   12.68
  10   0   1  326.65   12.73
  10   0   1  312.67   12.46
  10   0   1  347.40   12.62
  10   0   1  316.74   12.46
  10   0   2    9.06    1.39
  10   0   2    7.08    2.28
  10   0   2    8.60    1.85
  10   0   2    9.47    1.62
  10   0   3    6.44    2.28
  10   0   3    5.12    1.84
  10   0   3    4.84    1.39
  10   0   4  104.56    4.77
  10   0   4  107.67    4.87
  10   0   4  100.11    4.94
  10   0   4  112.18    4.74
  10   0   5   66.06    3.26
  10   0   5   59.03    3.24
  10   0   5   67.53    3.52
  10   0   5   67.34    3.46
  10   0   5   65.21    3.15
  10   0   6  147.78    6.05
  10   0   6  147.27    6.06
  10   0   6  145.57    6.17
  10   0   6  145.18    6.02
  10   0   7    5.98    1.18
  10   0   7    8.60    1.43
  10   0   7    6.55    1.53
  10   0   7    5.59    1.10
  10   0   8   11.76    1.11
  10   0   8   13.26    1.33
  10   0   8    9.53    1.07
  10   0   9    0.29    0.65
  10  -1  -9    7.19    0.98
 -10   1   9    4.93    0.87
  10   1  -9    6.87    0.93
  10  -1  -8   24.79    1.68
  10   1  -8   22.24    1.59
 -10   1   8   19.78    1.50
  10   1  -8   20.33    1.56
 -10   1   7    0.09    1.17
  10   1  -7   -0.19    1.14
  10  -1  -7    0.49    1.26
  10  -1  -7    0.74    1.47
  10   1  -7    0.28    1.36
  10  -1  -7    0.15    0.91
  10   1  -7   -0.41    1.11
  10  -1  -6   25.56    1.90
 -10   1   6   21.73    1.80
  10   1  -6   23.24    1.95
  10  -1  -6   24.06    1.96
  10  -1  -6   22.11    2.15
  10   1  -6   23.47    2.05
  10  -1  -6   25.60    1.68
  10   1  -6   28.54    1.86
  10  -1  -5   11.38    1.62
  10   1  -5   14.10    1.81
  10  -1  -5   10.67    1.70
  10   1  -5   12.07    1.58
  10  -1  -5   13.70    1.20
 -10   1   5   10.16    1.56
  10  -1  -5   12.67    2.02
  10   1  -5   11.31    2.01
  10   1  -5   13.98    1.60
  10  -1  -5   14.28    1.42
  10  -1  -4    8.50    1.69
  10   1  -4    6.48    1.59
  10  -1  -4    7.54    1.14
 -10   1   4    7.49    1.41
  10  -1  -4    7.05    1.93
  10   1  -4    8.43    1.97
  10   1  -4    8.50    1.65
  10  -1  -4    8.28    1.35
  10   1  -3   49.08    2.88
  10  -1  -3   44.21    2.53
  10   1  -3   48.96    3.07
  10  -1  -3   47.25    2.80
  10  -1  -3   52.29    3.13
  10   1  -3   49.47    3.02
  10   1  -3   52.67    2.88
  10  -1  -3   49.13    2.68
  10   1  -2    3.20    1.76
  10  -1  -2    4.29    1.55
  10  -1  -2    2.99    1.14
  10   1  -2    4.67    1.60
  10  -1  -2    5.12    1.28
  10  -1  -2    3.17    2.05
  10   1  -2    6.00    1.98
  10   1  -2    3.88    1.35
  10  -1  -2    5.17    1.69
  10   1  -1   22.11    2.31
  10  -1  -1   25.58    2.18
  10   1  -1   26.54    2.34
  10  -1  -1   24.77    1.86
  10  -1  -1   23.33    2.49
  10   1  -1   24.05    2.46
  10  -1  -1   23.56    2.21
  10   1  -1   24.85    2.02
  10  -1  -1   24.66    1.86
  10  -1   0    7.42    1.70
  10   1   0    4.31    1.91
  10   1   0    7.41    1.73
  10  -1   0    7.47    1.37
  10   1   0    3.67    1.75
  10  -1   0    7.53    2.17
  10  -1   0    7.71    1.97
  10   1   0    6.23    2.13
  10   1   0    7.63    1.65
  10  -1   0    7.65    1.32
  10   1   1   40.13    2.83
  10   1   1   43.13    2.80
  10   1   1   44.14    2.73
  10  -1   1   44.90    2.53
  10  -1   1   42.48    2.66
  10  -1   1   39.67    2.90
  10  -1   1   42.74    3.01
  10   1   1   45.57    3.00
  10   1   1   44.26    2.65
  10  -1   1   46.55    2.49
  10   1   2  115.21    5.30
  10  -1   2  117.28    5.21
  10   1   2  112.22    5.24
  10   1   2  117.63    5.30
  10  -1   2  117.68    5.22
  10  -1   2  118.48    5.38
  10  -1   2  120.16    5.45
  10   1   2  121.17    5.42
  10   1   2  129.34    5.25
  10  -1   2  127.00    5.19
  10  -1   3   20.58    1.83
  10  -1   3   21.13    1.99
  10   1   3   22.49    1.99
  10  -1   3   22.89    1.87
  10  -1   3   21.73    2.44
  10  -1   3   22.87    2.31
  10   1   3   19.46    2.19
  10   1   3   23.68    1.93
  10  -1   3   24.40    1.72
  10  -1   4   39.23    2.34
  10   1   4   44.08    2.48
  10  -1   4   45.28    2.51
  10  -1   4   40.76    2.58
  10  -1   4   42.25    2.81
  10   1   4   39.82    2.68
  10  -1   4   42.74    2.84
  10   1   4   44.16    2.49
  10  -1   4   46.56    2.36
  10  -1   5   16.40    1.65
  10   1   5   16.91    1.60
  10  -1   5   13.49    1.86
  10   1   5   13.04    1.91
  10   1   5   15.60    1.60
  10  -1   5   15.92    1.42
  10  -1   5   14.65    1.89
  10  -1   6   10.21    1.18
  10  -1   6   11.11    1.67
  10   1   6    9.72    1.30
  10  -1   6   10.98    1.70
  10   1   6    9.88    1.62
  10  -1   7    2.98    1.27
  10  -1   7    2.34    1.28
  10   1   7    0.47    1.25
  10   1   7    1.17    0.95
  10  -1   7    1.64    0.87
  10  -1   8   11.81    1.23
  10   1   8   10.87    1.00
  10  -1   8   10.63    0.97
  10  -1   8   11.82    1.09
  10   1   9    9.03    0.73
  10  -1   9    9.33    0.70
  10  -1   9    9.37    0.81
 -10   2   8    2.14    0.77
  10  -2  -8    1.67    0.83
  10   2  -8    1.28    0.77
  10  -2  -7    0.69    0.99
  10   2  -7    2.72    1.04
  10  -2  -7    1.83    0.83
 -10   2   7    2.47    0.98
  10  -2  -6   -0.07    0.91
 -10   2   6   -0.55    1.08
  10  -2  -6    0.71    1.10
  10   2  -6   -0.93    1.15
  10  -2  -6    0.50    1.04
  10  -2  -6    0.19    0.77
  10  -2  -5   31.78    1.93
 -10   2   5   29.24    1.85
  10   2  -5   32.56    2.12
  10  -2  -5   29.77    1.95
  10  -2  -5   30.00    1.68
  10  -2  -4   27.59    1.95
 -10   2   4   27.96    1.82
  10   2  -4   30.13    2.11
  10   2  -4   27.85    2.20
  10  -2  -4   30.19    2.01
  10  -2  -4   30.37    1.69
  10  -2  -3    6.31    1.44
  10  -2  -3    6.95    1.59
  10  -2  -3    7.99    1.02
  10   2  -3    8.19    1.56
  10   2  -3    5.02    1.74
 -10   2   2    8.12    0.97
  10  -2  -2    9.30    1.52
  10   2  -2    8.86    1.69
  10  -2  -2   10.56    1.72
  10  -2  -2    9.90    1.84
  10   2  -2   10.48    1.42
  10  -2  -2    8.86    1.09
 -10   2   1    2.23    0.89
  10   2  -1    2.95    2.08
  10   2  -1    1.89    1.43
  10  -2  -1    0.65    0.84
  10   2  -1    3.46    1.83
  10  -2  -1   -0.08    1.56
  10  -2  -1    0.36    1.73
  10   2  -1    0.55    1.21
  10  -2  -1    2.01    0.88
  10   2   0   66.27    3.77
 -10   2   0   60.78    3.10
  10   2   0   71.21    3.70
  10   2   0   71.56    3.46
  10  -2   0   71.53    3.17
  10  -2   0   67.37    3.59
  10  -2   0   68.25    3.39
  10   2   0   74.21    3.28
  10  -2   0   69.29    3.13
  10  -2   1    5.11    1.47
  10   2   1    4.87    2.03
  10   2   1    2.86    1.43
  10  -2   1    3.93    1.03
 -10   2  -1    2.92    0.92
  10   2   1    2.51    1.72
  10  -2   1    3.81    1.60
  10  -2   1    3.65    1.87
  10   2   1    3.23    1.28
  10  -2   1    3.88    0.92
  10   2   2  128.84    5.78
  10  -2   2  132.73    5.62
 -10   2  -2  123.02    5.41
  10   2   2  129.04    5.51
  10  -2   2  135.48    5.48
  10  -2   2  134.25    5.79
  10  -2   2  131.99    5.54
  10   2   2  132.90    5.44
  10  -2   2  137.56    5.40
  10   2   3   27.81    2.46
  10  -2   3   29.83    2.08
  10  -2   3   30.08    2.16
 -10   2  -3   31.86    1.90
  10  -2   3   32.07    1.91
  10  -2   3   33.10    2.10
  10  -2   3   31.06    1.72
  10   2   4   67.25    3.41
  10  -2   4   68.95    3.22
  10  -2   4   64.18    3.29
 -10   2  -4   65.39    3.13
  10  -2   4   71.05    3.13
  10  -2   4   67.86    3.16
  10  -2   4   67.46    3.44
  10  -2   4   65.51    2.95
  10  -2   5    5.35    1.15
  10  -2   5    6.61    1.10
 -10   2  -5    4.26    1.14
  10  -2   5    3.88    1.43
  10   2   5    5.28    1.53
  10  -2   5    6.20    1.22
  10  -2   5    6.44    1.59
  10  -2   5    5.88    0.82
  10   2   6   11.12    1.49
  10  -2   6   13.49    1.42
  10  -2   6   14.09    1.52
  10  -2   6   10.45    0.89
  10  -2   6   12.07    1.17
 -10   2  -6   11.17    1.20
  10  -2   7   71.15    2.94
  10  -2   7   70.83    3.00
  10  -2   7   69.95    2.97
 -10   2  -8    4.97    0.75
  10  -2   8    5.73    0.71
  10   3  -5    9.45    1.15
 -10   3   5   10.09    0.97
  10  -3  -5   10.04    0.95
  10   3  -4   23.31    1.67
 -10   3   4   25.01    1.41
  10  -3  -4   24.64    1.48
  10  -3  -3   21.02    1.41
  10   3  -3   20.88    1.65
  10   3  -2   13.65    1.51
  10  -3  -2   12.21    1.24
 -10   3   2   12.06    1.09
  10  -3  -2   15.55    1.62
  10  -3  -1   26.77    1.70
 -10   3   1   22.37    1.50
  10  -3  -1   25.97    1.93
 -10   3   0    1.67    0.92
  10  -3   0    1.87    1.06
 -10   3   0    2.08    0.74
 -10   3  -1   70.04    3.13
 -10   3  -1   63.24    2.99
 -10   3  -2   30.18    1.74
  10  -3   2   33.32    1.94
 -10   3  -2   32.14    1.82
  10  -3   2   35.45    2.13
 -10   3  -3    3.40    0.90
  10  -3   3    2.86    1.31
 -10   3  -3    2.81    1.00
  10  -3   4    0.38    0.60
 -10   3  -4    0.43    0.84
  10  -3   4    0.33    1.02
  10  -3   4    0.72    1.11
 -10   3  -4    0.90    0.89
  10  -3   4    1.66    0.93
 -10   3  -5   14.38    1.10
  10  -3   5   12.31    1.07
  10  -3   5   12.18    1.14
 -10   3  -5   13.28    1.07
  10  -3   5   11.78    0.83
  10  -3   5   13.63    1.16
  10   3   5   11.23    1.31
 -10   3  -6    7.58    0.80
 -10   3  -6    8.97    0.86
  10  -3   6   10.16    0.79
  10   3   6    9.22    1.00
 -10   4   1    1.61    0.57
  10  -4   0    8.86    0.88
 -10   4   0    7.61    0.75
 -10   4  -1    5.51    0.68
  10  -4   1    5.08    0.62
 -10   4  -2    7.31    0.70
  11   0  -8   33.60    1.72
  11   0  -7    4.63    0.95
  11   0  -6   16.60    1.37
  11   0  -6   14.99    1.46
  11   0  -5   70.63    3.30
  11   0  -5   69.11    3.47
  11   0  -4    0.29    1.15
  11   0  -4    2.72    1.46
  11   0  -4    2.40    1.04
  11   0  -4    2.57    1.29
  11   0  -3   28.48    1.89
  11   0  -3   29.21    1.91
  11   0  -3   26.65    2.08
  11   0  -3   26.32    1.95
  11   0  -2    2.18    1.46
  11   0  -2    5.17    1.31
  11   0  -2    2.21    1.30
  11   0  -2    3.06    1.32
  11   0  -1    2.51    1.33
  11   0  -1    2.51    1.29
  11   0  -1    0.27    1.75
  11   0  -1    1.71    1.23
  11   0   0   31.43    2.51
  11   0   0   32.57    2.08
  11   0   0   28.42    2.10
  11   0   1    0.72    1.83
  11   0   1    2.56    1.27
  11   0   1    1.71    1.39
  11   0   2   30.88    2.43
  11   0   2   35.66    2.14
  11   0   3   29.22    2.34
  11   0   3   35.99    2.04
  11   0   4    2.64    1.58
  11   0   4    3.42    1.12
  11   0   4    2.26    1.30
  11   0   5   63.43    2.99
  11   0   5   68.49    2.98
  11   0   5   61.95    3.07
  11   0   6   77.83    3.54
  11   0   6   82.16    3.62
  11   0   7   19.89    1.20
  11  -1  -8    5.03    0.71
  11   1  -8    4.42    0.73
  11  -1  -7    9.99    1.09
  11   1  -7    9.37    1.11
  11  -1  -7    9.73    1.06
  11   1  -6   56.57    2.89
  11  -1  -6   53.65    2.80
  11  -1  -6   66.16    2.76
  11   1  -6   66.03    2.80
  11  -1  -6   62.61    2.82
  11   1  -6   58.62    2.77
  11   1  -5   43.84    2.30
  11  -1  -5   38.70    2.27
  11  -1  -5   44.59    2.19
  11   1  -5   45.51    2.28
  11  -1  -5   42.70    2.38
  11   1  -5   43.20    2.34
  11   1  -4   15.54    1.50
  11  -1  -4   11.82    1.13
  11   1  -4   13.51    1.63
  11  -1  -4   14.86    1.66
  11   1  -4   14.38    1.64
  11   1  -4   15.80    1.49
  11  -1  -4   15.92    1.34
  11   1  -3    1.92    1.26
  11  -1  -3    0.51    0.90
  11   1  -3    2.25    1.47
  11  -1  -3    3.13    1.34
  11  -1  -3    2.33    1.54
  11   1  -3   -0.49    1.50
  11   1  -3    1.52    1.19
  11  -1  -3    2.05    1.02
  11  -1  -2    8.55    1.16
  11   1  -2    8.28    1.64
  11  -1  -2    7.35    1.45
  11  -1  -2    5.52    1.67
  11   1  -2    5.92    1.71
  11   1  -2    9.76    1.46
  11  -1  -2    9.36    1.23
  11  -1  -1    3.48    1.08
  11   1  -1    1.29    1.50
  11  -1  -1    3.86    1.39
  11  -1  -1    4.28    1.71
  11   1  -1    1.34    1.64
  11   1  -1    4.30    1.35
  11  -1  -1    4.13    1.13
  11   1   0   21.62    1.91
  11   1   0   23.61    1.89
  11  -1   0   25.84    1.72
  11  -1   0   22.81    1.85
  11  -1   0   21.32    2.06
  11   1   0   23.59    2.02
  11   1   0   22.10    1.82
  11  -1   0   24.85    1.68
  11   1   1   53.47    2.82
  11  -1   1   51.02    2.70
  11  -1   1   49.17    2.70
  11  -1   1   48.18    2.80
  11  -1   1   55.17    2.97
  11   1   1   53.44    2.91
  11   1   1   57.92    2.76
  11  -1   1   59.21    2.71
  11   1   2   25.41    1.91
  11  -1   2   26.79    1.78
  11  -1   2   22.63    1.73
  11  -1   2   24.46    2.00
  11  -1   2   27.32    2.11
  11   1   2   24.48    2.05
  11   1   2   27.39    1.84
  11  -1   2   28.56    1.70
  11  -1   3   22.82    1.87
  11   1   3   19.42    1.81
  11  -1   3   22.50    1.84
  11   1   3   22.72    1.58
  11  -1   3   22.63    1.49
  11   1   3   20.16    1.63
  11  -1   3   18.58    1.50
  11  -1   4    7.20    1.46
  11   1   4    7.52    1.43
  11  -1   4    7.99    1.50
  11   1   4    8.17    1.14
  11  -1   4    9.12    1.07
  11   1   4    6.78    1.18
  11  -1   4    7.97    1.21
 -11   1  -4    5.53    0.96
  11  -1   5   27.84    1.66
  11   1   5   25.31    1.57
  11  -1   5   26.44    1.52
  11  -1   5   25.75    1.75
  11   1   5   27.63    1.73
  11  -1   5   26.62    1.83
 -11   1  -6   20.97    1.38
  11  -1   6   25.95    1.50
  11   1   6   24.92    1.43
  11  -1   6   26.22    1.39
  11  -1   6   25.87    1.54
  11   1   6   26.16    1.52
  11   1   7    9.55    0.75
  11  -1   7    8.72    0.72
  11   2  -6    5.06    0.91
  11   2  -5   62.04    2.84
  11  -2  -5   59.82    2.72
  11   2  -4   94.15    4.01
  11  -2  -4  101.19    3.92
  11  -2  -4   82.95    3.70
  11  -2  -4   90.16    3.67
  11   2  -3    2.66    1.15
  11  -2  -3    1.67    1.00
  11  -2  -3    1.84    1.01
  11  -2  -3    1.90    0.75
  11   2  -2   12.78    1.40
  11   2  -2   12.70    1.57
  11  -2  -2   10.65    1.32
  11  -2  -2   10.22    1.25
  11  -2  -2   11.54    0.99
  11   2  -1    8.31    1.29
  11   2  -1    8.46    1.51
  11  -2  -1    8.28    1.23
  11  -2  -1    5.93    0.91
  11   2   0   27.99    1.79
  11   2   0   27.51    1.97
  11  -2   0   23.89    1.49
  11  -2   0   27.52    1.82
  11  -2   0   30.66    1.93
  11  -2   0   25.70    1.71
  11  -2   0   27.95    1.51
  11  -2   1   10.05    1.04
  11  -2   1   12.78    1.36
 -11   2  -1    9.36    0.94
  11  -2   1   11.69    1.57
  11  -2   1   11.47    1.24
  11  -2   1   10.56    0.98
  11  -2   2   37.39    1.88
  11  -2   2   36.05    2.02
 -11   2  -2   32.20    1.81
  11  -2   2   36.86    1.91
  11  -2   2   40.01    2.19
  11  -2   2   37.61    1.78
  11  -2   3    2.96    0.85
 -11   2  -3    3.09    0.81
 -11   2  -3    2.90    0.85
  11  -2   3    2.99    0.98
  11  -2   3    3.55    0.70
  11  -2   3    2.54    0.95
  11  -2   3    4.93    1.31
 -11   2  -4   13.21    1.08
  11  -2   4   16.73    1.15
  11  -2   5   28.95    1.60
 -11   2  -5   24.60    1.42
  11  -2   5   28.91    1.47
  11  -2   6    2.71    0.61
 -11   2  -6    2.76    0.59
  11  -3  -3    5.78    0.73
  11  -3  -2    0.12    0.68
  11  -3  -1    7.82    0.90
  11  -3  -1    5.66    0.96
 -11   3   0    5.91    0.67
  11  -3   0    7.65    0.91
  11  -3   0    7.08    1.01
 -11   3  -1    1.20    0.61
  11  -3   1   -0.30    0.74
  11  -3   1    1.42    0.90
 -11   3  -2    3.66    0.63
  11  -3   3   35.52    1.65
  12   0  -6    2.68    0.59
  12   0  -5   32.92    1.53
  12   0  -5   23.66    1.51
  12   0  -4    9.62    1.04
  12   0  -4    8.00    0.95
  12   0  -3    0.44    0.87
  12   0  -3    0.18    0.86
  12   0  -2   -0.38    0.95
  12   0  -2    1.68    0.93
  12   0  -1   38.26    1.96
  12   0  -1   32.30    1.91
  12   0   0   72.64    3.13
  12   0   0   66.02    3.12
  12   0   1    7.57    1.08
  12   0   1    6.74    1.12
  12   0   2  122.85    4.81
  12   0   2  112.02    4.81
  12   0   3   10.94    1.11
  12   0   4   50.11    2.32
  12   0   4   53.37    2.31
  12   0   4   50.61    2.35
  12   0   5   38.03    1.71
  12   0   5   37.39    1.72
  12   1  -5    6.06    0.70
  12   1  -5    6.38    0.88
  12   1  -4   20.60    1.45
  12  -1  -4   21.67    1.38
  12  -1  -4   26.31    1.33
  12   1  -4   25.03    1.35
  12   1  -3   19.89    1.34
  12  -1  -3   13.82    1.05
  12   1  -3   16.13    1.37
  12  -1  -3   17.33    1.27
  12  -1  -3   18.06    1.32
  12   1  -3   15.97    1.29
  12  -1  -3   20.52    1.19
  12   1  -3   22.02    1.27
  12  -1  -2    0.17    0.70
  12  -1  -2    0.20    0.89
  12  -1  -2    1.17    1.01
  12   1  -2   -0.35    0.99
  12  -1  -2    0.11    0.78
  12   1  -2    0.19    0.87
  12  -1  -1    9.36    1.00
  12  -1  -1   10.07    1.10
  12  -1  -1   10.13    1.24
  12   1  -1    8.05    1.20
  12   1  -1   10.03    1.10
  12  -1  -1    9.17    1.01
  12  -1   0   50.12    2.46
  12   1   0   49.50    2.42
  12   1   0   55.03    2.40
  12  -1   0   54.13    2.37
  12   1   0   49.26    2.44
  12  -1   0   46.27    2.34
  12  -1   1    4.79    1.10
  12   1   1    3.68    1.06
  12   1   1    4.11    0.92
  12  -1   1    4.43    0.87
  12   1   1    6.05    1.03
  12  -1   1    4.64    0.92
  12  -1   2   20.58    1.44
  12   1   2   20.72    1.40
  12   1   2   21.35    1.34
  12  -1   2   22.84    1.31
  12   1   2   19.30    1.37
  12  -1   2   20.53    1.35
  12  -1   3   97.61    4.02
  12   1   3   92.73    3.99
  12   1   3  104.14    4.00
  12  -1   3  106.81    4.01
  12   1   3   92.91    3.99
  12  -1   3  100.45    4.04
  12   1   4   12.94    0.94
  12  -1   4   13.05    0.91
  12  -1   4   15.63    1.02
  12  -2  -3    7.25    0.75
  12  -2  -1    1.42    0.71
  12  -2   0    0.71    0.69
  12  -2   1   35.60    1.68
   0   0   0    0.00    0.00


TITL TX3757 in P2(1)/m
REM P2(1)/m (#11 in standard setting)
CELL 1.54184  10.279928   5.204566  12.436210  90.0000  91.2895  90.0000
ZERR    3.00   0.000151   0.000078   0.000168   0.0000   0.0013   0.0000
LATT  1
SYMM -x, y+1/2,-z
SFAC C H N O
UNIT 33.00 30.00 3.00 3.00
TREF
HKLF 4
END
_computing_structure_solution     'SHELXT 2018/2 (Sheldrick, 2018)'
;
_shelx_hkl_checksum              6767
_olex2_submission_special_instructions 'No special instructions were received'
_oxdiff_exptl_absorpt_empirical_details
;
Empirical correction (ABSPACK) includes:
- Absorption correction using spherical harmonics
- Frame scaling
;
_oxdiff_exptl_absorpt_empirical_full_max 1.306
_oxdiff_exptl_absorpt_empirical_full_min 0.811
loop_
_space_group_symop_operation_xyz
'x, y, z'
'-x, y+1/2, -z'
loop_
_atom_site_label
_atom_site_type_symbol
_atom_site_fract_x
_atom_site_fract_y
_atom_site_fract_z
_atom_site_U_iso_or_equiv
_atom_site_adp_type
_atom_site_occupancy
_atom_site_site_symmetry_order
_atom_site_calc_flag
_atom_site_refinement_flags_posn
_atom_site_refinement_flags_adp
_atom_site_refinement_flags_occupancy
_atom_site_disorder_assembly
_atom_site_disorder_group
O1 O 0.65708(12) 0.3718(2) 0.30398(9) 0.0271(3) Uani 1 1 d . . . . .
O3 O 0.57386(14) 0.7265(3) 0.44110(10) 0.0328(3) Uani 1 1 d . . . . .
O2 O 0.58181(14) -0.0657(3) 0.09644(10) 0.0362(3) Uani 1 1 d . . . . .
O4 O 0.71561(13) 0.5971(3) 0.57018(10) 0.0371(4) Uani 1 1 d . . . . .
N1 N 0.57369(16) 0.3687(3) 0.10135(12) 0.0330(4) Uani 1 1 d . . . . .
H1A H 0.532887 0.379525 0.040392 0.040 Uiso 1 1 calc R . . . .
H1B H 0.593516 0.505880 0.136597 0.040 Uiso 1 1 calc R . . . .
C7 C 0.65804(17) 0.5835(4) 0.47250(13) 0.0275(4) Uani 1 1 d . . . . .
C6 C 0.60587(17) 0.1415(3) 0.14081(13) 0.0265(4) Uani 1 1 d . . . . .
C1 C 0.67948(17) 0.1361(4) 0.24802(13) 0.0268(4) Uani 1 1 d . . . . .
H1 H 0.645183 -0.005314 0.291009 0.032 Uiso 1 1 calc R . . . .
C5 C 0.71109(17) 0.3573(4) 0.41042(13) 0.0275(4) Uani 1 1 d . . . . .
H5 H 0.678621 0.199696 0.443575 0.033 Uiso 1 1 calc R . . . .
C4 C 0.85871(18) 0.3381(4) 0.40700(15) 0.0331(4) Uani 1 1 d . . . . .
H4A H 0.895018 0.327949 0.479542 0.040 Uiso 1 1 calc R . . . .
H4B H 0.893872 0.489493 0.372663 0.040 Uiso 1 1 calc R . . . .
C9 C 0.74162(19) 0.8171(4) 0.74004(14) 0.0354(5) Uani 1 1 d . . . . .
C10 C 0.7332(2) 0.6575(5) 0.82872(17) 0.0405(5) Uani 1 1 d . . . . .
H10 H 0.676522 0.518195 0.826969 0.049 Uiso 1 1 calc R . . . .
C3 C 0.89521(19) 0.0970(4) 0.34358(17) 0.0373(5) Uani 1 1 d . . . . .
H3A H 0.988434 0.094479 0.333153 0.045 Uiso 1 1 calc R . . . .
H3B H 0.872349 -0.054864 0.384220 0.045 Uiso 1 1 calc R . . . .
C2 C 0.82416(19) 0.0922(4) 0.23408(16) 0.0359(4) Uani 1 1 d . . . . .
H2A H 0.859039 0.225120 0.188246 0.043 Uiso 1 1 calc R . . . .
H2B H 0.837882 -0.072475 0.199644 0.043 Uiso 1 1 calc R . . . .
C11 C 0.8092(2) 0.7053(5) 0.92030(17) 0.0467(6) Uani 1 1 d . . . . .
H11 H 0.802789 0.598486 0.979907 0.056 Uiso 1 1 calc R . . . .
C12 C 0.8931(2) 0.9078(6) 0.92316(17) 0.0472(6) Uani 1 1 d . . . . .
H12 H 0.943979 0.938450 0.984612 0.057 Uiso 1 1 calc R . . . .
C14 C 0.8269(2) 1.0227(5) 0.74445(19) 0.0463(5) Uani 1 1 d . . . . .
H14 H 0.833067 1.131837 0.685558 0.056 Uiso 1 1 calc R . . . .
C8 C 0.6548(2) 0.7809(6) 0.64306(18) 0.0542(7) Uani 1 1 d . . . . .
H8A H 0.570725 0.716583 0.664574 0.065 Uiso 1 1 calc R . . . .
H8B H 0.641569 0.944019 0.606727 0.065 Uiso 1 1 calc R . . . .
C13 C 0.9029(2) 1.0674(5) 0.8354(2) 0.0522(6) Uani 1 1 d . . . . .
H13 H 0.960577 1.205007 0.837382 0.063 Uiso 1 1 calc R . . . .
loop_
_atom_site_aniso_label
_atom_site_aniso_U_11
_atom_site_aniso_U_22
_atom_site_aniso_U_33
_atom_site_aniso_U_23
_atom_site_aniso_U_13
_atom_site_aniso_U_12
O1 0.0345(6) 0.0256(6) 0.0209(5) -0.0020(5) -0.0056(4) 0.0020(5)
O3 0.0409(7) 0.0314(7) 0.0260(6) -0.0008(5) -0.0040(5) 0.0032(6)
O2 0.0564(9) 0.0222(7) 0.0294(7) -0.0037(5) -0.0124(6) 0.0002(6)
O4 0.0386(7) 0.0483(9) 0.0240(6) -0.0094(6) -0.0071(5) 0.0105(7)
N1 0.0515(9) 0.0223(8) 0.0247(7) -0.0009(6) -0.0119(7) -0.0010(7)
C7 0.0301(8) 0.0311(10) 0.0213(7) -0.0010(7) -0.0029(6) -0.0048(8)
C6 0.0331(8) 0.0230(8) 0.0231(8) -0.0006(7) -0.0020(6) -0.0017(8)
C1 0.0369(9) 0.0205(8) 0.0227(7) -0.0012(7) -0.0042(7) -0.0005(8)
C5 0.0353(9) 0.0260(9) 0.0210(7) 0.0002(7) -0.0054(6) -0.0025(8)
C4 0.0354(9) 0.0317(10) 0.0317(9) -0.0046(8) -0.0087(7) 0.0016(8)
C9 0.0351(10) 0.0459(12) 0.0250(8) -0.0099(8) -0.0017(7) 0.0109(9)
C10 0.0393(10) 0.0404(11) 0.0419(11) 0.0000(10) 0.0001(8) -0.0023(9)
C3 0.0339(9) 0.0355(11) 0.0420(10) -0.0071(9) -0.0097(8) 0.0068(8)
C2 0.0385(10) 0.0347(11) 0.0342(9) -0.0095(8) -0.0022(8) 0.0054(8)
C11 0.0482(12) 0.0613(16) 0.0307(10) 0.0083(10) -0.0012(8) 0.0054(11)
C12 0.0459(12) 0.0613(15) 0.0338(10) -0.0125(11) -0.0112(9) 0.0062(11)
C14 0.0535(13) 0.0478(13) 0.0379(11) 0.0090(9) 0.0042(10) 0.0041(11)
C8 0.0485(13) 0.0804(19) 0.0332(10) -0.0230(11) -0.0103(9) 0.0265(12)
C13 0.0472(12) 0.0489(14) 0.0600(14) -0.0062(12) -0.0049(11) -0.0089(11)
loop_
_atom_type_symbol
_atom_type_description
_atom_type_scat_dispersion_real
_atom_type_scat_dispersion_imag
_atom_type_scat_source
C C 0.0181 0.0091 'International Tables Vol C Tables 4.2.6.8 and 6.1.1.4'
H H 0.0000 0.0000 'International Tables Vol C Tables 4.2.6.8 and 6.1.1.4'
N N 0.0311 0.0180 'International Tables Vol C Tables 4.2.6.8 and 6.1.1.4'
O O 0.0492 0.0322 'International Tables Vol C Tables 4.2.6.8 and 6.1.1.4'
loop_
_geom_angle_atom_site_label_1
_geom_angle_atom_site_label_2
_geom_angle_atom_site_label_3
_geom_angle
_geom_angle_site_symmetry_1
_geom_angle_site_symmetry_3
_geom_angle_publ_flag
C5 O1 C1 110.01(13) . . ?
C7 O4 C8 114.11(14) . . ?
O3 C7 O4 124.21(17) . . ?
O3 C7 C5 125.52(15) . . ?
O4 C7 C5 110.23(14) . . ?
O2 C6 N1 124.81(15) . . ?
O2 C6 C1 117.86(16) . . ?
N1 C6 C1 117.33(15) . . ?
O1 C1 C6 109.18(14) . . ?
O1 C1 C2 110.67(14) . . ?
C6 C1 C2 111.88(14) . . ?
O1 C5 C7 107.13(14) . . ?
O1 C5 C4 110.18(14) . . ?
C7 C5 C4 115.82(14) . . ?
C5 C4 C3 108.89(15) . . ?
C10 C9 C8 121.3(2) . . ?
C14 C9 C10 118.90(19) . . ?
C14 C9 C8 119.7(2) . . ?
C9 C10 C11 120.1(2) . . ?
C2 C3 C4 110.70(15) . . ?
C1 C2 C3 110.18(15) . . ?
C12 C11 C10 120.3(2) . . ?
C11 C12 C13 120.2(2) . . ?
C13 C14 C9 120.6(2) . . ?
O4 C8 C9 108.99(16) . . ?
C12 C13 C14 119.9(2) . . ?
loop_
_geom_bond_atom_site_label_1
_geom_bond_atom_site_label_2
_geom_bond_distance
_geom_bond_site_symmetry_2
_geom_bond_publ_flag
O1 C1 1.432(2) . ?
O1 C5 1.4259(18) . ?
O3 C7 1.200(2) . ?
O2 C6 1.234(2) . ?
O4 C7 1.341(2) . ?
O4 C8 1.467(3) . ?
N1 C6 1.319(2) . ?
C7 C5 1.516(2) . ?
C6 C1 1.518(2) . ?
C1 C2 1.519(3) . ?
C5 C4 1.522(3) . ?
C4 C3 1.533(3) . ?
C9 C10 1.385(3) . ?
C9 C14 1.384(3) . ?
C9 C8 1.496(3) . ?
C10 C11 1.389(3) . ?
C3 C2 1.531(3) . ?
C11 C12 1.362(4) . ?
C12 C13 1.377(4) . ?
C14 C13 1.379(3) . ?
