#------------------------------------------------------------------------------
#$Date: 2020-12-05 02:40:14 +0200 (Sat, 05 Dec 2020) $
#$Revision: 259550 $
#$URL: file:///home/coder/svn-repositories/cod/cif/4/51/82/4518290.cif $
#------------------------------------------------------------------------------
#
# This file is available in the Crystallography Open Database (COD),
# http://www.crystallography.net/
#
# All data on this site have been placed in the public domain by the
# contributors.
#
data_4518290
loop_
_publ_author_name
'Maranda-Niedba\/la, Agnieszka'
'Krzy\.zewska, Klaudyna'
'Kotwica, Kamil'
'Sk\'orka, \/Lukasz'
'Drapa\/la, Jakub'
'Jarzembska, Katarzyna N.'
'Zag\'orska, Ma\/lgorzata'
'Pro\'n, Adam'
'Nowakowski, Robert'
_publ_section_title
;
 9,10-Anthraquinones Disubstituted with Linear Alkoxy Groups:
 Spectroscopy, Electrochemistry, and Peculiarities of Their 2D and 3D
 Supramolecular Organizations.
;
_journal_name_full
'Langmuir : the ACS journal of surfaces and colloids'
_journal_paper_doi               10.1021/acs.langmuir.0c02586
_journal_year                    2020
_chemical_formula_moiety         'C30 H40 O4'
_chemical_formula_sum            'C30 H40 O4'
_chemical_formula_weight         464.62
_space_group_crystal_system      triclinic
_space_group_IT_number           2
_space_group_name_Hall           '-P 1'
_space_group_name_H-M_alt        'P -1'
_atom_sites_solution_hydrogens   geom
_atom_sites_solution_primary     dual
_audit_creation_date             2019-11-06
_audit_creation_method
;
Olex2 1.2
(compiled 2018.05.29 svn.r3508 for OlexSys, GUI svn.r5506)
;
_cell_angle_alpha                81.744(4)
_cell_angle_beta                 93.137(3)
_cell_angle_gamma                90.740(3)
_cell_formula_units_Z            1
_cell_length_a                   16.9493(6)
_cell_length_b                   8.1949(4)
_cell_length_c                   4.6048(2)
_cell_measurement_reflns_used    9673
_cell_measurement_temperature    94.9(2)
_cell_measurement_theta_max      76.0600
_cell_measurement_theta_min      5.1650
_cell_volume                     632.01(5)
_computing_cell_refinement       'CrysAlisPro 1.171.40.55a (Rigaku OD, 2019)'
_computing_data_collection       'CrysAlisPro 1.171.40.55a (Rigaku OD, 2019)'
_computing_data_reduction        'CrysAlisPro 1.171.40.55a (Rigaku OD, 2019)'
_computing_molecular_graphics    'Olex2 (Dolomanov et al., 2009)'
_computing_publication_material  'Olex2 (Dolomanov et al., 2009)'
_computing_structure_refinement  'ShelXL (Sheldrick, 2015)'
_computing_structure_solution    'ShelXT (Sheldrick, 2015)'
_diffrn_ambient_environment      N~2~
_diffrn_ambient_temperature      94.9(2)
_diffrn_detector                 'CCD plate'
_diffrn_detector_area_resol_mean 5.2687
_diffrn_detector_type            Atlas
_diffrn_measured_fraction_theta_full 0.988
_diffrn_measured_fraction_theta_max 0.959
_diffrn_measurement_details
;
List of Runs (angles in degrees, time in seconds):

  # Type    Start    End  Width  t~exp~   \w     \q     \k     \f   Frames
--------------------------------------------------------------------------
  1  \w   -113.00 -54.00   1.00    1.00    --  -42.68-152.00  73.00   59
  2  \w    -26.00  68.00   1.00    1.00    --   42.68 -57.00-180.00   94
  3  \w    -26.00  68.00   1.00    1.00    --   42.68 -57.00 -60.00   94
  4  \w     32.00  81.00   1.00    1.00    --   42.68 -99.00-150.00   49
  5  \w     17.00 113.00   1.00    1.00    --   42.68  57.00  90.00   96
  6  \w     79.00 149.00   1.00    1.00    --  109.50  77.00 -90.00   70
  7  \w     30.00 106.00   1.00    1.00    --  109.50 -94.00-120.00   76
  8  \w     30.00 106.00   1.00    1.00    --  109.50 -94.00 120.00   76
  9  \w     30.00 106.00   1.00    1.00    --  109.50 -94.00 -30.00   76
 10  \w     40.00 133.00   1.00    1.00    --  109.50 -45.00 -30.00   93
 11  \w     54.00 112.00   1.00    1.00    --  109.50-125.00  90.00   58
 12  \w     30.00 106.00   1.00    1.00    --  109.50 -94.00 150.00   76
 13  \w     86.00 149.00   1.00    1.00    --  109.50  30.00  90.00   63
 14  \w     40.00 133.00   1.00    1.00    --  109.50 -45.00-150.00   93
 15  \w     37.00 132.00   1.00    1.00    --  109.50 -30.00  90.00   95
 16  \w     86.00 149.00   1.00    1.00    --  109.50  30.00  30.00   63
 17  \w     31.00 149.00   1.00    1.00    --  109.50 -15.00-180.00  118
 18  \w     12.00 115.00   1.00    1.00    --   42.68  77.00  90.00  103
 19  \w    -26.00  68.00   1.00    1.00    --   42.68 -57.00  60.00   94
 20  \w     21.00 113.00   1.00    1.00    --   42.68  38.00 -90.00   92
 21  \w     12.00 115.00   1.00    1.00    --   42.68  77.00-180.00  103
 22  \w     17.00 113.00   1.00    1.00    --   42.68  57.00   0.00   96
 23  \w     79.00 149.00   1.00    1.00    --  109.50  77.00 150.00   70
 24  \w     79.00 149.00   1.00    1.00    --  109.50  77.00 120.00   70
 25  \w     86.00 149.00   1.00    1.00    --  109.50  45.00-150.00   63
 26  \w     83.00 149.00   1.00    1.00    --  109.50  61.00  30.00   66
 27  \w     86.00 149.00   1.00    1.00    --  109.50  45.00 120.00   63
 28  \w     83.00 149.00   1.00    1.00    --  109.50  61.00-120.00   66
 29  \w     83.00 149.00   1.00    1.00    --  109.50  61.00-150.00   66
 30  \w     79.00 149.00   1.00    1.00    --  109.50  77.00 -30.00   70
 31  \w     79.00 149.00   1.00    1.00    --  109.50  77.00  60.00   70
 32  \w     86.00 149.00   1.00    1.00    --  109.50  45.00 -30.00   63
 33  \w   -113.00 -17.00   1.00    1.00    --  -42.68 -57.00-120.00   96
 34  \w     12.00 115.00   1.00    1.00    --   42.68  77.00   0.00  103
 35  \w     17.00 113.00   1.00    1.00    --   42.68  57.00 -30.00   96
 36  \w     12.00 115.00   1.00    1.00    --   42.68  77.00  30.00  103
 37  \w     12.00 115.00   1.00    1.00    --   42.68  77.00 -90.00  103
 38  \w     79.00 149.00   1.00    1.00    --  109.50  77.00   0.00   70
 39  \w     79.00 149.00   1.00    1.00    --  109.50  77.00-120.00   70
 40  \w     83.00 149.00   1.00    1.00    --  109.50  61.00 -90.00   66
 41  \w     79.00 149.00   1.00    1.00    --  109.50  77.00-150.00   70
 42  \w     79.00 149.00   1.00    1.00    --  109.50  77.00 -60.00   70
 43  \w     83.00 149.00   1.00    1.00    --  109.50  61.00 150.00   66
 44  \w     79.00 149.00   1.00    1.00    --  109.50  77.00  30.00   70
 45  \w     83.00 149.00   1.00    1.00    --  109.50  61.00 120.00   66
 46  \w     83.00 149.00   1.00    1.00    --  109.50  61.00   0.00   66
 47  \w     83.00 149.00   1.00    1.00    --  109.50  61.00-180.00   66
 48  \w    -42.00 128.00   1.00    1.00    --   42.68   0.00 -60.00  170
 49  \w    -42.00 128.00   1.00    1.00    --   42.68   0.00 -90.00  170
 50  \w    -42.00 128.00   1.00    1.00    --   42.68   0.00-180.00  170
 51  \w    -42.00 128.00   1.00    1.00    --   42.68   0.00-120.00  170
 52  \w    -42.00 128.00   1.00    1.00    --   42.68   0.00-150.00  170
 53  \w     83.00 149.00   1.00    1.00    --  109.50  61.00  90.00   66
 54  \w     83.00 149.00   1.00    1.00    --  109.50  61.00 -60.00   66
 55  \w     79.00 149.00   1.00    1.00    --  109.50  77.00-180.00   70
 56  \w     86.00 149.00   1.00    1.00    --  109.50  45.00  90.00   63
 57  \w     86.00 149.00   1.00    1.00    --  109.50  45.00 -90.00   63
 58  \w     83.00 149.00   1.00    1.00    --  109.50  61.00  60.00   66
 59  \w     30.00 106.00   1.00    1.00    --  109.50 -94.00   0.00   76
;
_diffrn_measurement_device       'four-circle diffractometer'
_diffrn_measurement_device_type
'SuperNova, Single source at offset/far, Atlas'
_diffrn_measurement_method       '\w scans'
_diffrn_orient_matrix_type
'CrysAlisPro convention (1999,Acta A55,543-557)'
_diffrn_orient_matrix_UB_11      0.0105518470
_diffrn_orient_matrix_UB_12      0.0880374994
_diffrn_orient_matrix_UB_13      0.2736372803
_diffrn_orient_matrix_UB_21      -0.0899095773
_diffrn_orient_matrix_UB_22      0.0270114867
_diffrn_orient_matrix_UB_23      -0.0073733146
_diffrn_orient_matrix_UB_31      -0.0095586064
_diffrn_orient_matrix_UB_32      -0.1661473578
_diffrn_orient_matrix_UB_33      0.1991918644
_diffrn_radiation_monochromator  mirror
_diffrn_radiation_probe          x-ray
_diffrn_radiation_type           CuK\a
_diffrn_radiation_wavelength     1.54184
_diffrn_reflns_av_R_equivalents  0.0701
_diffrn_reflns_av_unetI/netI     0.0391
_diffrn_reflns_Laue_measured_fraction_full 0.988
_diffrn_reflns_Laue_measured_fraction_max 0.959
_diffrn_reflns_limit_h_max       21
_diffrn_reflns_limit_h_min       -21
_diffrn_reflns_limit_k_max       10
_diffrn_reflns_limit_k_min       -10
_diffrn_reflns_limit_l_max       5
_diffrn_reflns_limit_l_min       -5
_diffrn_reflns_number            18326
_diffrn_reflns_point_group_measured_fraction_full 0.988
_diffrn_reflns_point_group_measured_fraction_max 0.959
_diffrn_reflns_theta_full        67.684
_diffrn_reflns_theta_max         77.380
_diffrn_reflns_theta_min         2.611
_diffrn_source                   'micro-focus sealed X-ray tube'
_diffrn_source_type              'SuperNova (Cu) X-ray Source'
_exptl_absorpt_coefficient_mu    0.623
_exptl_absorpt_correction_T_max  1.000
_exptl_absorpt_correction_T_min  0.336
_exptl_absorpt_correction_type   gaussian
_exptl_absorpt_process_details
;
CrysAlisPro 1.171.40.55a (Rigaku Oxford Diffraction, 2019)
Numerical absorption correction based on gaussian integration over
			a multifaceted crystal model
Empirical absorption correction using spherical harmonics,
 implemented in SCALE3 ABSPACK scaling algorithm.
;
_exptl_crystal_colour            'clear yellow'
_exptl_crystal_colour_lustre     clear
_exptl_crystal_colour_primary    yellow
_exptl_crystal_density_diffrn    1.221
_exptl_crystal_description       plate
_exptl_crystal_F_000             252
_exptl_crystal_size_max          0.554
_exptl_crystal_size_mid          0.163
_exptl_crystal_size_min          0.054
_refine_diff_density_max         0.311
_refine_diff_density_min         -0.393
_refine_diff_density_rms         0.088
_refine_ls_extinction_method     none
_refine_ls_goodness_of_fit_ref   1.113
_refine_ls_hydrogen_treatment    constr
_refine_ls_matrix_type           full
_refine_ls_number_parameters     155
_refine_ls_number_reflns         2579
_refine_ls_number_restraints     0
_refine_ls_restrained_S_all      1.113
_refine_ls_R_factor_all          0.0607
_refine_ls_R_factor_gt           0.0506
_refine_ls_shift/su_max          0.000
_refine_ls_shift/su_mean         0.000
_refine_ls_structure_factor_coef Fsqd
_refine_ls_weighting_details
'w=1/[\s^2^(Fo^2^)+(0.0979P)^2^+0.1281P] where P=(Fo^2^+2Fc^2^)/3'
_refine_ls_weighting_scheme      calc
_refine_ls_wR_factor_gt          0.1403
_refine_ls_wR_factor_ref         0.1608
_reflns_Friedel_coverage         0.000
_reflns_number_gt                2176
_reflns_number_total             2579
_reflns_threshold_expression     'I > 2\s(I)'
_cod_data_source_file            2019_10_31_JD_AntOC8_95K_01_CCDC2004143.cif
_cod_data_source_block           2019_10_31_jd_antoc8_95k_01
_cod_database_code               4518290
_shelx_shelxl_version_number     2018/3
_chemical_oxdiff_formula         'C30 H40 O4'
_shelx_space_group_comment
;
The symmetry employed for this shelxl refinement is uniquely defined
by the following loop, which should always be used as a source of
symmetry information in preference to the above space-group names.
They are only intended as comments.
;
_reflns_odcompleteness_completeness 98.79
_reflns_odcompleteness_iscentric 1
_reflns_odcompleteness_theta     69.95
_olex2_refinement_description
;
1. Fixed Uiso
 At 1.2 times of:
  All C(H) groups, All C(H,H) groups
 At 1.5 times of:
  All C(H,H,H) groups
2.a Secondary CH2 refined with riding coordinates:
 C10(H10A,H10B), C8(H8A,H8B), C9(H9A,H9B), C11(H11A,H11B), C13(H13A,H13B),
 C12(H12A,H12B), C14(H14A,H14B)
2.b Aromatic/amide H refined with riding coordinates:
 C3(H3), C5(H5), C6(H6)
2.c Idealised Me refined as rotating group:
 C15(H15A,H15B,H15C)
;
_shelx_res_file
;
TITL 2019_10_31_jd_antoc8_95k_01_a.res in P-1
    2019_10_31_jd_antoc8_95k_01.res
    created by SHELXL-2018/3 at 22:26:29 on 06-Nov-2019
REM Old TITL 2019_10_31_JD_AntOC8_95K_01 in P-1
REM SHELXT solution in P-1: R1 0.144, Rweak 0.003, Alpha 0.026
REM <I/s> 0.000 for 0 systematic absences, Orientation as input
REM Formula found by SHELXT: C15 O2
CELL 1.54184 16.9493 8.1949 4.6048 81.744 93.137 90.74
ZERR 1 0.0006 0.0004 0.0002 0.004 0.003 0.003
LATT 1
SFAC C H O
UNIT 30 40 4

L.S. 15
PLAN  20
BOND
list 4
fmap 2 53
ACTA
OMIT 7 -9 1
OMIT 7 -7 2
OMIT -14 8 1
OMIT -8 9 0
REM <olex2.extras>
REM <HklSrc "%.\\2019_10_31_JD_AntOC8_95K_01.hkl">
REM </olex2.extras>

WGHT    0.097900    0.128100
FVAR       1.03318
O2    3    0.183275    0.285493    0.680346    11.00000    0.02086    0.01520 =
         0.02335   -0.00904   -0.00143   -0.00310
O1    3   -0.051640    0.313280   -0.072489    11.00000    0.02284    0.01516 =
         0.02671   -0.00843   -0.00069    0.00124
C7    1    0.067568   -0.045113    0.199453    11.00000    0.01520    0.01515 =
         0.01459   -0.00436    0.00389   -0.00281
C3    1    0.076493    0.232458    0.330056    11.00000    0.01784    0.01441 =
         0.01741   -0.00569    0.00530   -0.00219
AFIX  43
H3    2    0.057400    0.339567    0.310876    11.00000   -1.20000
AFIX   0
C1    1   -0.028711    0.170177   -0.036868    11.00000    0.01667    0.01466 =
         0.01740   -0.00565    0.00601   -0.00249
C4    1    0.141661    0.184929    0.518174    11.00000    0.01792    0.01685 =
         0.01714   -0.00665    0.00559   -0.00646
C2    1    0.039888    0.116572    0.169410    11.00000    0.01583    0.01503 =
         0.01532   -0.00471    0.00545   -0.00384
C5    1    0.169562    0.022881    0.549185    11.00000    0.01804    0.01666 =
         0.01908   -0.00403    0.00125   -0.00162
AFIX  43
H5    2    0.212964   -0.008559    0.676363    11.00000   -1.20000
AFIX   0
C6    1    0.132780   -0.090216    0.391410    11.00000    0.01938    0.01607 =
         0.01888   -0.00480    0.00345   -0.00067
AFIX  43
H6    2    0.151627   -0.197598    0.413169    11.00000   -1.20000
AFIX   0
C10   1    0.292191    0.576980    0.680367    11.00000    0.01778    0.01843 =
         0.01772   -0.00693    0.00202   -0.00300
AFIX  23
H10A  2    0.310207    0.477608    0.613266    11.00000   -1.20000
H10B  2    0.278710    0.656437    0.508133    11.00000   -1.20000
AFIX   0
C8    1    0.154597    0.450400    0.682471    11.00000    0.01820    0.01378 =
         0.02009   -0.00654    0.00141   -0.00189
AFIX  23
H8A   2    0.104878    0.447377    0.777939    11.00000   -1.20000
H8B   2    0.146667    0.507479    0.483563    11.00000   -1.20000
AFIX   0
C9    1    0.217956    0.536239    0.852544    11.00000    0.01809    0.01818 =
         0.01785   -0.00835    0.00283   -0.00383
AFIX  23
H9A   2    0.232366    0.465854    1.035096    11.00000   -1.20000
H9B   2    0.196563    0.637472    0.901486    11.00000   -1.20000
AFIX   0
C11   1    0.359500    0.646793    0.859953    11.00000    0.01899    0.02119 =
         0.01865   -0.00833    0.00260   -0.00418
AFIX  23
H11A  2    0.374964    0.565103    1.026633    11.00000   -1.20000
H11B  2    0.340780    0.743017    0.935514    11.00000   -1.20000
AFIX   0
C13   1    0.501607    0.754929    0.861689    11.00000    0.01875    0.02039 =
         0.02097   -0.00694    0.00319   -0.00334
AFIX  23
H13A  2    0.516993    0.667812    1.019512    11.00000   -1.20000
H13B  2    0.485115    0.848604    0.950096    11.00000   -1.20000
AFIX   0
C12   1    0.431760    0.695231    0.681405    11.00000    0.01877    0.02017 =
         0.01978   -0.00589    0.00306   -0.00401
AFIX  23
H12A  2    0.448143    0.600769    0.594968    11.00000   -1.20000
H12B  2    0.416890    0.781874    0.522044    11.00000   -1.20000
AFIX   0
C14   1    0.573255    0.805153    0.680966    11.00000    0.01908    0.02574 =
         0.02546   -0.00605    0.00492   -0.00394
AFIX  23
H14A  2    0.589652    0.711751    0.591603    11.00000   -1.20000
H14B  2    0.558066    0.892888    0.523986    11.00000   -1.20000
AFIX   0
C15   1    0.642952    0.863605    0.863632    11.00000    0.01856    0.03078 =
         0.03480   -0.00500    0.00456   -0.00556
AFIX 137
H15A  2    0.686380    0.892102    0.740393    11.00000   -1.50000
H15B  2    0.658649    0.776976    1.018420    11.00000   -1.50000
H15C  2    0.627711    0.958538    0.947093    11.00000   -1.50000
AFIX   0
HKLF 4




REM  2019_10_31_jd_antoc8_95k_01_a.res in P-1
REM wR2 = 0.1608, GooF = S = 1.113, Restrained GooF = 1.113 for all data
REM R1 = 0.0506 for 2176 Fo > 4sig(Fo) and 0.0607 for all 2579 data
REM 155 parameters refined using 0 restraints

END

WGHT      0.0979      0.1281

REM Highest difference peak  0.311,  deepest hole -0.393,  1-sigma level  0.088
Q1    1  -0.1027  0.4014 -0.2583  11.00000  0.05    0.26
Q2    1   0.1567 -0.2408  0.4449  11.00000  0.05    0.25
Q3    1   0.5170  0.8958  0.5022  11.00000  0.05    0.24
Q4    1   0.6255  0.7646  1.2009  11.00000  0.05    0.24
Q5    1   0.0628  0.2131  0.1353  11.00000  0.05    0.24
Q6    1   0.2397  0.2584  0.9047  11.00000  0.05    0.24
Q7    1   0.1361  0.6400  0.4785  11.00000  0.05    0.23
Q8    1   0.1026  0.4929  0.4816  11.00000  0.05    0.23
Q9    1   0.0180  0.1533 -0.0013  11.00000  0.05    0.23
Q10   1   0.5258  0.5773  0.9884  11.00000  0.05    0.23
Q11   1   0.1446  0.2033  0.8884  11.00000  0.05    0.23
Q12   1   0.5180  0.6376  1.1502  11.00000  0.05    0.23
Q13   1   0.2783 -0.1442  0.6241  11.00000  0.05    0.22
Q14   1   0.3778  0.5228  1.1347  11.00000  0.05    0.22
Q15   1   0.7001  0.7565  0.9988  11.00000  0.05    0.22
Q16   1  -0.0432  0.0989 -0.0999  11.00000  0.05    0.22
Q17   1   0.1758  0.2286  1.0455  11.00000  0.05    0.22
Q18   1   0.2125  0.0011  0.7629  11.00000  0.05    0.22
Q19   1   0.1449  0.5878  0.3955  11.00000  0.05    0.21
Q20   1   0.3234  0.6144  0.7542  11.00000  0.05    0.21
;
_shelx_res_checksum              85951
_shelx_hkl_file
;
   0   0  -1    0.95    1.41
   0   0   1    0.84    0.61
   0   0   1   -0.04    0.62
   0   0   1    0.23    0.64
   0   0   1    0.16    0.70
   0   0   1    0.37    0.70
   0   0  -1    0.79    0.24
   0   0   1    0.19    0.66
   0   0  -1    0.38    0.97
   0   0  -1    1.87    2.19
   0   0  -2   66.45    7.03
   0   0   2   75.34    4.29
   0   0   2   65.86    4.62
   0   0   2   63.72    4.45
   0   0   2   66.84    4.67
   0   0   2   68.83    4.64
   0   0   2   68.82    4.55
   0   0  -2   63.45    7.04
   0   0  -2   63.95    1.67
   0   0  -2   72.01    6.07
   0   0  -2   66.82    8.44
   0   0  -3   19.85    5.27
   0   0   3   23.45    3.20
   0   0   3   25.22    3.36
   0   0   3   24.87    3.30
   0   0   3   25.04    3.27
   0   0  -3   25.39    7.17
   0   0  -3   24.02    5.82
   0   0  -3   20.36    4.17
   0   0   4  112.14    9.04
   0   0  -4   90.30   12.43
   0   0   4  104.14    8.55
   0   0   4   -1.26    6.70
   0   0   4   -2.48    3.78
   0   0   4  124.24    8.90
   0   0  -4   97.50   13.07
   0   0   4  108.26    8.26
   0   0  -4  116.27   16.07
   0   0  -5   71.31    6.25
   0   0  -5   96.95    9.59
   0   0   5   95.51    6.06
   0   0  -5   85.81   11.78
   0   1  -5   14.83    2.77
   0  -1   5   20.84    2.73
   0  -1   5   26.25    5.54
   0  -1   5   17.92    2.53
   0   1  -5   11.88    4.74
   0  -1   4    1.90    1.75
   0  -1   4    2.10    1.53
   0   1  -3  308.17   19.42
   0   1  -3  301.55   15.49
   0   1  -3  317.64   21.46
   0   1  -3  343.21   24.85
   0  -1   2  290.98    3.89
   0   1  -2  285.20   14.16
   0  -1   2  276.24    7.63
   0  -1   2  274.69    7.94
   0  -1   2  291.62    7.72
   0  -1   2  288.12    7.83
   0  -1   2  284.43    7.71
   0   1  -2  286.21    4.66
   0   1  -2  252.65   10.98
   0   1  -2  273.02   16.90
   0   1  -1  321.79   10.00
   0  -1   1  337.52    3.21
   0  -1   1  296.23    5.17
   0  -1   1  294.52    5.22
   0  -1   1  301.49    5.19
   0  -1   1  293.04    5.30
   0  -1   1  283.31    5.12
   0   1  -1  332.29    4.12
   0   1  -1  288.38    7.99
   0  -1   0   19.54    0.97
   0  -1   0   22.76    0.96
   0   1   0   20.55    0.92
   0   1   0   21.69    0.96
   0   1   0   21.12    0.93
   0   1   0   19.64    0.91
   0   1   0   21.47    0.97
   0   1   0   22.23    1.41
   0  -1  -1 1440.40   21.09
   0   1   1 1554.62   16.05
   0   1   1 1499.88   17.01
   0   1   1 1459.61   16.73
   0   1   1 1472.66   16.49
   0   1   1 1426.38   16.41
   0  -1  -1 1482.57   19.71
   0   1   1 1466.33   16.81
   0  -1  -1 1506.91   19.13
   0  -1  -1 1518.53   24.20
   0  -1  -2    6.99    3.17
   0   1   2    9.10    1.94
   0   1   2    7.20    2.04
   0   1   2    7.40    2.07
   0   1   2    6.94    2.08
   0   1   2    7.16    1.93
   0   1   2    7.66    2.14
   0  -1  -2    7.49    4.01
   0  -1  -2    7.99    2.55
   0  -1  -2    7.19    2.98
   0  -1  -3   29.46    6.06
   0   1   3   34.45    4.02
   0   1   3   34.18    4.48
   0   1   3   33.48    4.13
   0   1   3   31.33    4.13
   0   1   3   28.80    3.93
   0   1   3   32.54    4.22
   0  -1  -3   30.40    6.18
   0  -1  -3   33.48    5.26
   0  -1  -3   32.55    7.65
   0  -1  -4   42.37    8.24
   0   1   4   42.50    5.60
   0   1   4   47.06    6.49
   0  -1  -4   34.69    6.07
   0  -1  -4   40.73    9.45
   0   1   4   41.24    5.58
   0  -1  -4   47.28    8.35
   0  -1  -5  488.21   16.46
   0  -1  -5  676.13   26.89
   0   1   5  574.80   14.85
   0  -1  -5  546.15   32.07
   0  -1  -5  659.20   31.86
   0  -2   5   29.39    3.12
   0  -2   5   37.37    3.15
   0   2  -5   23.14    5.34
   0  -2   4   35.51    5.17
   0  -2   4   35.15    4.49
   0   2  -3  220.25   16.64
   0  -2   3  268.14   13.74
   0  -2   3  231.06   10.88
   0   2  -3  211.43   20.60
   0   2  -3  202.08   18.22
   0   2  -2   32.36    5.33
   0   2  -2   37.94    7.19
   0   2  -2   28.91    4.19
   0   2  -2   36.37    2.07
   0  -2   1   26.58    4.21
   0  -2   1   50.35    6.11
   0  -2   1   29.66    2.65
   0   2  -1   42.84    1.13
   0  -2   1   42.58    1.72
   0   2   0  856.64    9.07
   0  -2   0  703.06    8.21
   0  -2   0  736.54    7.53
   0   2   0  597.13    4.75
   0   2   0  733.82    7.16
   0   2   0  751.04    7.33
   0   2   0  718.38    7.08
   0   2   0  732.59    7.24
   0   2   0  727.79   11.25
   0   2   1  100.26    7.25
   0   2   1   97.38    4.59
   0  -2  -1   98.32    5.92
   0   2   1   98.97    4.96
   0   2   1   94.38    4.85
   0   2   1  105.25    5.15
   0   2   1   97.92    4.90
   0   2   1   95.79    4.81
   0  -2  -1  109.80    4.71
   0  -2  -1  122.41    5.88
   0  -2  -1  116.28    7.10
   0  -2  -2  154.16   10.27
   0   2   2  172.51    8.20
   0   2   2  165.19    8.07
   0   2   2  163.16    8.07
   0   2   2  162.96    8.20
   0   2   2  161.50    8.04
   0   2   2  169.75    8.48
   0  -2  -2  170.85    9.19
   0  -2  -2  172.92   12.02
   0  -2  -2  165.11    9.38
   0  -2  -3   97.60   10.49
   0   2   3   85.29    6.85
   0   2   3  103.02    8.10
   0   2   3   95.36    7.53
   0   2   3   94.73    7.42
   0   2   3   91.63    7.36
   0   2   3   89.07    7.24
   0  -2  -3   90.63   11.58
   0  -2  -3   82.02    8.93
   0  -2  -3   97.42    8.67
   0   2   4    6.20    2.31
   0  -2  -4    3.68    2.81
   0  -2  -4   11.26    3.03
   0   2   4    7.97    3.12
   0  -2  -4    7.74    3.11
   0   2   4   -1.64    6.10
   0   2   4   14.80    4.70
   0   2   4   14.06    3.02
   0   2   4   16.49    3.38
   0   2   4   12.82    3.02
   0   2   4   14.83    3.19
   0  -2  -4   12.90    6.75
   0   2   4   12.37    2.47
   0   2   4    7.88    3.06
   0  -2  -4    8.45    4.59
   0   2   5  146.09    8.89
   0  -2  -5  135.79    8.45
   0  -2  -5  172.39   13.93
   0   2   5  133.41    6.91
   0  -2  -5  148.49   15.40
   0  -2  -5  182.35   16.36
   0  -3   5   -0.36    0.62
   0  -3   5    0.17    0.54
   0  -3   4   -0.08    0.66
   0  -3   4   -0.59    1.50
   0  -3   4    0.54    1.21
   0  -3   3    0.41    2.26
   0  -3   3    4.68    1.39
   0  -3   3    4.21    2.19
   0  -3   3    3.66    1.77
   0   3  -3    2.80    2.64
   0   3  -3    9.27    4.72
   0   3  -2   85.87    8.99
   0   3  -2  100.10   12.16
   0   3  -2   93.22    7.73
   0   3  -2   97.93    4.10
   0  -3   1    1.20    1.95
   0  -3   1    1.51    0.93
   0   3  -1    4.25    0.57
   0  -3   1    3.14    0.72
   0   3   0   13.43    1.10
   0   3   0   15.78    1.69
   0  -3   0   18.89    1.56
   0   3   0   16.76    1.23
   0  -3   0   14.57    1.07
   0   3   0   15.76    1.23
   0   3   0   16.24    1.22
   0   3   0   16.59    1.22
   0   3   0   16.21    2.39
   0  -3  -1   13.12    2.44
   0   3   1   12.53    2.97
   0   3   1   11.07    2.01
   0  -3  -1   12.70    1.78
   0   3   1   13.26    2.20
   0   3   1   14.60    2.26
   0   3   1   14.24    2.26
   0   3   1   13.45    2.29
   0   3   1   14.59    2.25
   0  -3  -1   11.25    2.96
   0  -3  -1   11.92    1.51
   0  -3  -2  342.18   15.06
   0   3   2  340.42   12.82
   0   3   2  338.22   12.76
   0   3   2  346.70   12.51
   0   3   2  327.95   12.34
   0   3   2  335.22   12.33
   0   3   2  332.92   12.20
   0  -3  -2  337.85   11.52
   0  -3  -2  323.52   16.35
   0   3   3    3.67    1.88
   0   3   3    5.55    2.93
   0  -3  -3    1.32    1.88
   0  -3  -3    3.17    1.52
   0   3   3    2.88    1.25
   0   3   3    2.65    1.57
   0   3   3    2.94    1.40
   0   3   3    4.06    1.83
   0   3   3    3.64    1.79
   0  -3  -3    6.67    3.52
   0  -3  -3    4.44    2.36
   0   3   4    5.70    2.92
   0   3   4    5.58    2.29
   0  -3  -4    2.34    2.09
   0  -3  -4   11.67    3.16
   0   3   4   11.91    4.64
   0   3   4    5.72    2.00
   0   3   4    6.73    2.34
   0   3   4    7.58    2.91
   0  -3  -4    1.26    3.89
   0  -3  -4    8.41    5.38
   0  -3  -5   -2.09    3.01
   0  -3  -5    0.36    1.01
   0  -3  -5   -1.40    1.92
   0   3   5    0.03    1.24
   0   3   5    0.47    1.08
   0  -3  -5   -2.28    3.25
   0  -3  -5   -2.72    2.60
   0  -4   4    0.06    0.76
   0  -4   4    0.56    1.31
   0  -4   4    0.54    0.86
   0  -4   3    5.57    1.57
   0  -4   3    3.54    1.96
   0  -4   3    4.91    1.76
   0   4  -3    9.07    6.12
   0   4  -3    9.60    5.79
   0  -4   2   10.48    4.40
   0   4  -2    7.61    3.35
   0   4  -2    1.62    3.12
   0  -4   1  644.18   15.86
   0  -4   1  654.95   24.48
   0   4  -1  602.72   17.98
   0  -4   0   90.51    3.99
   0  -4   0   91.37    6.65
   0   4   0   74.22    4.49
   0   4   0   79.32    5.91
   0   4   1   43.73    5.56
   0   4   1   38.88    3.94
   0  -4  -1   45.17    3.34
   0   4   1   40.50    3.60
   0   4   1   41.06    3.61
   0   4   1   40.01    3.55
   0   4   1   41.81    3.63
   0  -4  -2   28.81    4.39
   0   4   2   27.07    4.16
   0  -4  -2   29.94    3.40
   0   4   2   30.58    4.17
   0   4   2   30.01    3.94
   0   4   2   29.51    3.96
   0   4   2   29.48    3.95
   0   4   2   30.15    3.97
   0  -4  -2   31.44    5.20
   0   4   3  114.19    9.56
   0  -4  -3  143.27    9.75
   0  -4  -3  117.06    8.93
   0  -4  -3  122.43   10.90
   0   4   3  116.46   10.87
   0  -4  -3  111.82    7.43
   0   4   3  171.49   14.01
   0  -4  -3  103.83    7.45
   0   4   3  114.41    8.81
   0   4   3  103.65    8.70
   0  -4  -3  151.30    7.65
   0   4   3  110.83    8.72
   0   4   3  114.55    8.92
   0   4   3  111.55    8.79
   0  -4  -3  146.11   15.22
   0   4   3  112.82    8.84
   0  -4  -3  125.41    6.17
   0   4   3  111.11    9.75
   0  -4  -3  115.81   12.01
   0  -4  -3  134.98   14.33
   0   4   4    7.72    1.88
   0   4   4   11.76    4.07
   0  -4  -4   11.31    3.17
   0   4   4   10.94    2.82
   0  -4  -4   14.19    3.21
   0  -4  -4   10.94    2.09
   0  -4  -4    9.75    4.73
   0   4   4    9.46    2.88
   0  -4  -4    5.11    4.63
   0   4   4   11.10    3.47
   0   4   4    5.77    2.34
   0  -4  -4    2.32    4.13
   0  -4  -5   88.57    8.69
   0  -4  -5   65.30    5.03
   0   4   5   74.94    6.49
   0  -4  -5   54.26    7.11
   0   4   5   70.19    4.28
   0  -4  -5   79.09    8.73
   0   4   5   68.37    5.67
   0  -5   4  145.92    7.56
   0  -5   4  144.16    5.62
   0  -5   3    6.10    2.31
   0  -5   3    6.98    1.86
   0  -5   3    7.45    1.79
   0  -5   2   55.23    4.59
   0  -5   2   59.01    4.31
   0  -5   2   54.71    4.55
   0  -5   2   52.96    5.72
   0  -5   2   52.98    4.19
   0   5  -2   46.19    8.91
   0   5  -2   50.70   10.21
   0  -5   1  208.25   10.33
   0  -5   1  217.82   16.41
   0  -5   0   76.92    7.47
   0  -5   0   79.77    4.62
   0   5   0   75.18    4.49
   0   5   1    0.76    1.08
   0  -5  -1    0.95    0.83
   0   5   1    0.58    0.66
   0  -5  -1    0.09    0.56
   0   5   1   -0.24    0.56
   0   5   1    0.07    0.66
   0   5   1    0.96    0.87
   0   5   2    5.85    2.20
   0  -5  -2    5.51    1.55
   0   5   2    5.99    1.64
   0   5   2    6.96    1.97
   0   5   2    6.25    1.75
   0  -5  -2    7.39    2.92
   0   5   2    6.67    1.90
   0  -5  -3   38.98    5.83
   0   5   3   39.76    6.69
   0   5   3   35.56    5.75
   0  -5  -3   52.83    5.95
   0   5   3   39.01    4.25
   0  -5  -3   42.96    5.23
   0  -5  -3   39.10    4.67
   0  -5  -3   33.85    4.26
   0   5   3   57.39    8.46
   0  -5  -3   37.15    6.59
   0   5   3   37.12    5.66
   0   5   3   41.61    5.43
   0   5   3   39.70    5.35
   0   5   3   36.30    5.05
   0   5   3   39.77    5.32
   0  -5  -3   38.09    7.31
   0   5   3   33.81    5.61
   0  -5  -3   42.82    3.88
   0  -5  -3   31.69    6.17
   0   5   3   39.21    5.63
   0  -5  -3   45.50    8.52
   0   5   4    3.85    1.55
   0   5   4    5.53    2.72
   0  -5  -4    5.15    2.04
   0  -5  -4    4.55    2.11
   0  -5  -4    2.17    2.85
   0  -5  -4    5.20    1.61
   0   5   4    2.72    1.96
   0   5   4    2.41    1.86
   0  -5  -4    1.02    3.12
   0  -5  -4    6.42    4.40
   0   5   4    3.13    1.87
   0  -5  -5   12.61    2.76
   0   5   5   11.53    2.40
   0  -5  -5   12.01    1.98
   0   5   5   14.51    1.94
   0   5   5   12.55    2.23
   0  -5  -5    7.40    2.22
   0  -5  -5   12.37    3.12
   0  -6   4  281.75    7.59
   0  -6   3   17.58    2.48
   0  -6   3   19.88    3.17
   0  -6   3   17.99    2.26
   0  -6   2    1.04    0.99
   0  -6   2    0.41    0.76
   0  -6   2    0.25    0.86
   0  -6   2    1.32    1.04
   0  -6   2    0.59    0.78
   0  -6   1   59.17    4.97
   0  -6   1   62.80    5.19
   0  -6   1   71.05    5.14
   0   6  -1   77.64    5.45
   0  -6   0   21.96    4.88
   0  -6   0   26.65    3.09
   0  -6   0   25.20    3.21
   0  -6   0   20.35    2.83
   0   6   0   21.78    3.89
   0   6   0   25.32    2.86
   0  -6  -1   27.48    3.03
   0  -6  -1   29.63    3.35
   0  -6  -1   32.07    3.35
   0  -6  -1   24.92    3.41
   0   6   1   24.91    4.43
   0  -6  -1   25.54    3.49
   0   6   1   26.43    3.37
   0   6   2  572.01   16.76
   0   6   2  696.25   26.62
   0   6   2  589.27   23.14
   0  -6  -2  667.26   18.51
   0  -6  -2  729.88   17.54
   0  -6  -2  595.96   17.83
   0   6   2  620.86   17.74
   0   6   2  609.80   17.69
   0  -6  -2  580.56   16.18
   0   6   2  605.32   17.95
   0   6   2  599.82   17.55
   0  -6  -2  592.97   23.78
   0  -6  -3   30.81    4.34
   0  -6  -3   44.20    5.27
   0   6   3   30.57    6.14
   0  -6  -3   27.61    5.02
   0  -6  -3   34.65    4.41
   0   6   3   27.59    5.07
   0   6   3   33.04    5.44
   0  -6  -3   35.19    6.34
   0  -6  -3   28.77    6.03
   0   6   3   31.74    5.22
   0  -6  -4  108.05    7.25
   0   6   4   89.29    8.72
   0   6   4   88.26    5.83
   0  -6  -4   86.27    5.55
   0  -6  -4  113.26    9.03
   0   6   4   86.00    7.38
   0   6   4   89.67    7.46
   0   6   4   84.72    7.48
   0  -6  -4   84.29    8.81
   0  -6  -4   88.52    9.16
   0  -6  -5    0.74    0.61
   0   6   5    0.53    0.62
   0  -6  -5    1.61    0.89
   0   6   5    1.03    0.52
   0  -7   3    0.45    0.61
   0  -7   2   67.00    4.37
   0  -7   2   55.84    4.81
   0  -7   2   58.10    4.70
   0  -7   1   51.54    4.53
   0  -7   1   50.26    4.82
   0  -7   0   40.95    8.00
   0  -7   0   53.47    4.99
   0  -7   0   54.97    4.70
   0   7   0   43.00    6.06
   0  -7  -1   92.86    5.76
   0  -7  -1  102.52   10.50
   0  -7  -1   96.85    6.40
   0  -7  -1   97.18    6.42
   0  -7  -1  106.02    6.74
   0   7   1  107.59   10.18
   0   7   1   93.81    6.62
   0  -7  -2   15.67    3.06
   0   7   2    9.35    3.22
   0  -7  -2   15.29    3.07
   0   7   3  164.42   12.47
   0  -7  -3  164.60    9.19
   0  -7  -3  161.05    8.76
   0   7   3  150.33   11.22
   0   7   3  156.56   10.79
   0  -7  -3  123.04   10.59
   0   7   3  151.57   10.00
   0   7   4    0.21    1.28
   0   7   4    0.82    0.72
   0  -7  -4    2.96    1.26
   0   7   4   -1.78    0.76
   0  -7  -4    1.96    0.87
   0   7   4    1.38    1.24
   0   7   4    0.55    1.07
   0  -7  -4    2.08    1.53
   0   7   4    3.17    1.37
   0  -8   2   33.72    3.01
   0  -8   1   15.74    2.39
   0  -8   1   14.65    2.57
   0  -8   0   98.29    6.08
   0  -8   0   96.86    6.62
   0  -8  -1  113.36    6.04
   0  -8  -1  121.17    6.33
   0  -8  -1  129.04    7.21
   0  -8  -2   28.67    3.43
   0   8   2   29.81    4.75
   0   8   3   95.37    6.29
   0   8   3  102.25    8.04
   0  -8  -3  107.25    6.04
   0   8   3  104.36    8.33
   0   8   3  100.06    7.55
   0   8   4   74.33    3.67
   0  -8  -4   74.10    3.37
   0   8   4   68.89    4.37
   0   8   4   70.91    4.39
   0  -9   1   10.14    1.72
   0  -9   0   26.61    2.68
   0  -9   0   27.82    3.06
   0  -9  -1   15.55    2.17
   0   9   2  202.50    8.12
   0   9   2  194.67   10.84
   0   9   2  207.35    9.37
   0   9   3   96.99    4.78
   0   9   3  105.47    4.87
   0  -9  -3  107.82    4.33
   0   9   3  106.12    6.35
   0   9   3  107.75    5.56
   0  10   2   49.90    2.85
   0  10   2   22.86    1.87
  -1  10   2  103.72    3.98
  -1  10   2   48.87    2.74
  -1   9   3   36.22    2.83
  -1   9   3   37.99    3.02
   1  -9  -3   41.01    2.67
  -1   9   3   39.61    3.87
  -1   9   3   37.50    3.17
  -1   9   2    5.13    1.42
   1  -9  -2    6.65    1.30
  -1   9   2    1.27    1.61
  -1   9   2    6.42    1.71
   1  -9  -1   86.05    4.91
   1  -9   0    8.34    1.77
   1  -9   1    3.61    1.80
   1  -9   1    1.55    0.78
  -1   8   4    0.33    0.48
   1  -8  -4    0.14    0.48
  -1   8   4    0.44    0.81
  -1   8   4    0.23    0.64
  -1   8   3   12.12    2.36
   1  -8  -3   14.94    2.29
  -1   8   3   15.30    3.43
  -1   8   3   16.03    3.11
   1  -8  -2   47.89    4.31
  -1   8   2   56.44    6.13
   1  -8  -1    0.08    0.77
   1  -8  -1   -0.15    0.76
   1  -8  -1   -0.22    0.58
   1  -8   0   -0.33    0.81
   1  -8   0   -0.26    1.15
   1  -8   1  247.25   10.01
   1  -8   1  248.22    8.90
  -1   7   4    1.96    0.78
  -1   7   4    1.49    0.87
   1  -7  -4    4.80    1.62
  -1   7   4    2.47    1.51
   1  -7  -4    3.59    1.08
  -1   7   4    2.52    1.66
  -1   7   4    2.86    1.16
   1  -7  -4    1.31    1.39
  -1   7   4    3.11    1.54
   1  -7  -3   38.35    4.54
  -1   7   3   36.75    5.91
   1  -7  -3   35.54    4.08
  -1   7   3   29.37    5.10
  -1   7   3   32.67    5.06
   1  -7  -3   17.28    4.51
   1  -7  -3   20.82    4.88
   1  -7  -2  433.33   14.55
   1  -7  -2  418.94   15.29
  -1   7   2  434.56   18.37
   1  -7  -1   17.06    4.62
   1  -7  -1   19.73    2.73
   1  -7  -1   21.48    3.06
   1  -7  -1   18.20    2.81
   1  -7  -1   22.72    3.33
  -1   7   1   19.11    4.28
  -1   7   1   16.68    2.74
   1  -7   0    3.62    1.63
   1  -7   0    0.24    2.21
   1  -7   0    5.49    1.58
   1  -7   0    5.67    1.74
  -1   7   0    7.76    3.15
  -1   7   0    8.87    2.13
   1  -7   1   47.18    4.67
   1  -7   1   51.03    4.43
   1  -7   2   50.95    3.75
   1  -7   2   44.64    4.17
   1  -7   3   -0.43    0.47
   1  -6  -5    3.53    1.06
   1  -6  -5    1.61    0.75
  -1   6   5    1.97    1.01
   1  -6  -5    0.80    0.81
  -1   6   5    3.83    0.92
  -1   6   4   -0.34    1.14
  -1   6   4    1.07    0.89
   1  -6  -4    0.20    1.09
  -1   6   4   -4.88    2.48
   1  -6  -4    1.58    0.90
   1  -6  -4    0.04    1.93
  -1   6   4    1.37    1.71
  -1   6   4    0.84    1.16
   1  -6  -4    2.19    2.30
  -1   6   4    2.89    1.85
   1  -6  -4    2.52    2.19
  -1   6   3  156.75   12.87
   1  -6  -3  193.47   10.48
   1  -6  -3  169.45    9.38
   1  -6  -3  189.65   12.61
  -1   6   3  146.91   11.28
   1  -6  -3  173.29   14.23
   1  -6  -3  146.20   13.68
  -1   6   3  166.80   11.43
  -1   6   3  154.00   11.08
  -1   6   2  761.83   26.37
  -1   6   2  781.77   27.47
  -1   6   2  794.80   19.19
   1  -6  -2  819.86   20.60
   1  -6  -2  735.20   19.28
   1  -6  -2  865.17   18.95
  -1   6   2  776.14   19.71
  -1   6   2  758.63   19.26
  -1   6   2  772.39   19.35
  -1   6   2  774.27   19.22
   1  -6  -2  716.13   17.64
   1  -6  -2  669.47   27.57
   1  -6  -2  702.78   26.76
   1  -6  -1   24.11    2.82
   1  -6  -1   24.07    3.16
   1  -6  -1   25.24    3.08
   1  -6  -1   27.92    3.22
  -1   6   1   26.70    3.29
  -1   6   1   19.67    3.81
   1  -6  -1   22.56    3.36
   1  -6   0    0.80    0.77
   1  -6   0    2.23    2.06
   1  -6   0    1.62    1.03
   1  -6   0    1.17    0.96
  -1   6   0    0.78    1.06
  -1   6   0    1.44    0.77
   1  -6   1   28.95    3.25
   1  -6   1   29.92    3.58
   1  -6   1   31.76    3.73
  -1   6  -1   35.65    3.73
   1  -6   2   63.46    6.01
   1  -6   2   69.79    5.41
   1  -6   2   69.50    4.67
   1  -6   2   66.71    5.32
   1  -6   3    0.39    0.66
   1  -6   3   -0.31    0.89
   1  -6   3   -0.37    0.71
   1  -6   4   61.97    3.49
   1  -5  -5  103.25    7.47
   1  -5  -5   87.55    4.97
  -1   5   5   86.47    6.07
  -1   5   5   91.46    4.84
   1  -5  -5   90.02    7.72
   1  -5  -5   72.57    6.87
   1  -5  -4   55.97    5.69
   1  -5  -4   37.94    4.77
  -1   5   4   33.68    5.87
  -1   5   4   29.83    3.53
   1  -5  -4   38.76    6.66
   1  -5  -4   37.96    3.86
  -1   5   4   31.03    4.73
  -1   5   4   31.11    4.57
   1  -5  -4   25.39    6.51
   1  -5  -4   30.96    7.29
  -1   5   4   34.27    5.29
  -1   5   3   28.54    3.52
  -1   5   3   26.60    5.05
   1  -5  -3   42.14    5.27
  -1   5   3   33.76    6.10
   1  -5  -3   25.24    4.71
   1  -5  -3   31.33    4.42
   1  -5  -3   26.10    3.75
   1  -5  -3   29.28    5.93
   1  -5  -3   25.98    3.68
  -1   5   3   27.07    4.23
  -1   5   3   30.30    4.48
  -1   5   3   27.57    4.33
  -1   5   3   30.54    4.44
   1  -5  -3   27.58    4.06
  -1   5   3   25.71    4.78
  -1   5   3   25.23    4.82
   1  -5  -3   26.84    2.92
  -1   5   3   25.58    4.57
   1  -5  -3   31.90    7.12
   1  -5  -3   29.63    5.94
   1  -5  -3   23.49    5.51
  -1   5   2   -0.03    1.69
   1  -5  -2    0.06    0.67
  -1   5   2   -0.08    1.15
  -1   5   2    0.28    0.82
  -1   5   2   -0.01    0.92
   1  -5  -2   -1.44    1.06
   1  -5  -2   -1.03    2.33
  -1   5   2    0.26    0.92
  -1   5   1   10.80    2.69
  -1   5   1    9.78    3.80
   1  -5  -1   13.77    2.01
  -1   5   1   11.86    1.90
  -1   5   1   16.09    2.17
   1  -5  -1   12.72    1.84
  -1   5   1   11.91    1.95
  -1   5   1   12.40    1.94
   1  -5   0   26.72    4.61
   1  -5   0   24.67    2.68
  -1   5   0   26.83    2.64
  -1   5   0   20.66    3.11
  -1   5   0   21.60    3.95
   1  -5   1  158.06    9.48
   1  -5   1  174.74   14.72
  -1   5  -1  232.75    9.31
  -1   5  -1  242.85    8.60
   1  -5   2   46.56    4.20
   1  -5   2   40.11    5.07
   1  -5   2   45.35    4.20
   1  -5   2   47.02    3.81
   1  -5   2   41.36    3.69
  -1   5  -2   35.53    8.93
   1  -5   3  227.28   12.22
   1  -5   3  218.69    8.72
   1  -5   4   32.19    3.69
   1  -5   4   34.95    2.70
   1  -4  -5   19.54    4.29
  -1   4   5   17.55    3.19
   1  -4  -5   16.70    2.58
  -1   4   5   15.75    2.19
   1  -4  -5   12.28    3.84
   1  -4  -5   24.96    5.14
   1  -4  -4    1.95    1.64
  -1   4   4    2.68    2.50
  -1   4   4    2.22    1.01
   1  -4  -4    3.25    2.30
   1  -4  -4    3.01    1.78
   1  -4  -4    2.54    1.01
   1  -4  -4    1.40    2.93
  -1   4   4    0.13    1.14
  -1   4   4   -1.30    1.80
   1  -4  -4   -0.74    2.81
   1  -4  -4    1.82    3.35
  -1   4   4    1.32    1.70
   1  -4  -3   29.44    5.39
   1  -4  -3   30.46    4.46
  -1   4   3   31.47    5.82
  -1   4   3   28.29    3.28
  -1   4   3   32.56    5.23
   1  -4  -3   37.47    4.98
   1  -4  -3   27.08    3.70
  -1   4   3   37.40    6.54
   1  -4  -3   30.31    6.35
   1  -4  -3   28.77    3.73
  -1   4   3   29.09    4.44
  -1   4   3   26.39    4.12
  -1   4   3   25.06    4.45
  -1   4   3   26.10    4.10
  -1   4   3   27.16    4.21
  -1   4   3   22.84    4.07
  -1   4   3   29.25    5.03
   1  -4  -3   39.76    7.95
   1  -4  -3   31.49    6.48
   1  -4  -3   44.05    8.63
   1  -4  -2    0.32    1.40
  -1   4   2    0.70    1.34
   1  -4  -2    0.23    0.80
  -1   4   2    0.28    0.93
  -1   4   2    0.33    1.15
  -1   4   2    0.01    1.05
  -1   4   2    1.26    1.09
   1  -4  -2    1.32    2.14
  -1   4   1   58.49    6.54
  -1   4   1   62.20    5.04
   1  -4  -1   72.46    4.11
  -1   4   1   60.95    4.10
  -1   4   1   63.47    4.24
  -1   4   1   65.89    4.35
  -1   4   1   66.66    4.31
  -1   4   0   17.53    1.91
  -1   4   0   14.97    2.18
   1  -4   0   18.64    1.91
   1  -4   0   21.89    3.48
   1  -4   0   18.16    1.17
  -1   4   0   21.48    1.34
  -1   4   0   22.46    1.37
  -1   4   0   21.64    1.35
  -1   4   0   18.21    3.12
   1  -4   1   20.03    4.71
   1  -4   1   23.29    3.20
  -1   4  -1   32.77    2.78
  -1   4  -1   28.43    4.33
   1  -4   2   98.28   12.20
  -1   4  -2   59.81    8.24
  -1   4  -2   82.69    4.56
  -1   4  -2   67.81   11.49
  -1   4  -2   51.47    7.29
  -1   4  -2   68.55    7.69
   1  -4   3   18.47    3.87
   1  -4   3   20.29    2.71
   1  -4   3   13.51    2.66
  -1   4  -3   10.66    5.86
  -1   4  -3   11.24    6.29
   1  -4   4    0.45    1.37
   1  -4   4   -0.25    0.92
   1  -3  -5   11.04    3.74
  -1   3   5    9.70    2.59
   1  -3  -5   10.40    2.28
   1  -3  -5    2.80    2.22
   1  -3  -5   12.25    4.76
   1  -3  -5   17.19    4.87
  -1   3   4   -0.38    1.19
   1  -3  -4    1.11    1.42
   1  -3  -4    1.07    1.76
  -1   3   4    1.20    2.27
   1  -3  -4   -1.99    4.03
  -1   3   4    1.45    1.43
  -1   3   4   -0.97    1.84
   1  -3  -4   -6.64    4.72
  -1   3   4   -1.14    2.04
   1  -3  -4   -0.34    3.47
  -1   3   3  102.54    5.44
  -1   3   3  102.61    8.24
   1  -3  -3  106.09   10.42
   1  -3  -3   83.15    6.32
  -1   3   3  101.64    7.82
  -1   3   3  102.75    7.90
  -1   3   3  105.59    8.00
  -1   3   3  100.89    7.77
   1  -3  -3   96.70    8.76
   1  -3  -3  110.42   12.24
   1  -3  -2    2.27    1.90
  -1   3   2    2.40    1.72
   1  -3  -2    0.65    0.79
  -1   3   2    0.79    1.05
  -1   3   2    0.45    1.09
  -1   3   2    1.13    1.08
  -1   3   2   -0.08    1.04
  -1   3   2    0.96    1.25
   1  -3  -2   -0.12    0.83
   1  -3  -2    4.05    2.83
   1  -3  -1    2.21    1.60
  -1   3   1    1.37    1.33
  -1   3   1   -1.14    2.06
   1  -3  -1    0.07    0.27
   1  -3  -1    0.69    0.80
  -1   3   1    1.11    1.04
  -1   3   1    1.37    1.21
  -1   3   1    1.19    1.15
   1  -3  -1    0.46    0.74
  -1   3   1    1.65    1.15
   1  -3  -1    2.20    2.58
  -1   3   0  465.06    8.97
   1  -3   0  523.50    8.33
   1  -3   0  469.74    5.84
  -1   3   0  519.10    6.35
  -1   3   0  519.53    6.40
  -1   3   0  493.54    6.20
  -1   3   0  454.92   12.97
   1  -3   1  316.92    9.93
   1  -3   1  324.36   14.87
  -1   3  -2   87.71    9.16
  -1   3  -2   86.76    7.92
  -1   3  -2  105.33    4.42
  -1   3  -2   92.59   11.79
   1  -3   3    5.05    2.34
   1  -3   3    3.25    3.77
   1  -3   3    5.27    1.46
   1  -3   3    5.36    2.01
  -1   3  -3    0.30    5.29
  -1   3  -3    0.71    2.26
   1  -3   4   18.01    3.86
   1  -3   4   16.06    2.92
   1  -3   5    1.92    0.90
   1  -3   5    1.83    0.71
  -1   2   5    5.68    2.24
   1  -2  -5    3.90    1.57
   1  -2  -5   11.00    3.96
  -1   2   5    4.12    1.26
   1  -2  -5    6.86    4.06
   1  -2  -5    8.94    5.46
   1  -2  -4  129.11    8.97
  -1   2   4   96.00    9.42
  -1   2   4   79.72    7.42
   1  -2  -4   87.00    8.66
   1  -2  -4   97.93   11.81
  -1   2   4  144.25   12.02
  -1   2   4   94.35    7.64
   1  -2  -4   92.43    7.70
  -1   2   4   95.48    7.47
  -1   2   4   97.05    7.63
  -1   2   4   96.61    7.54
   1  -2  -4  114.55   16.29
  -1   2   4   95.00    7.04
   1  -2  -4   84.05   12.52
  -1   2   4   93.40    8.58
  -1   2   3  491.63   16.56
   1  -2  -3  480.74   22.50
  -1   2   3  486.67   16.20
  -1   2   3  497.10   16.22
  -1   2   3  509.18   16.30
  -1   2   3  498.90   16.30
   1  -2  -3  537.11   19.43
   1  -2  -3  498.34   26.32
   1  -2  -3  497.72   21.72
  -1   2   2  217.15    9.31
   1  -2  -2  206.87   11.58
  -1   2   2  213.31    9.16
  -1   2   2  214.67    8.97
  -1   2   2  206.38    8.70
  -1   2   2  214.55    8.86
  -1   2   2  210.98    8.74
   1  -2  -2  230.35   10.44
   1  -2  -2  204.45   13.07
   1  -2  -2  209.99   10.88
  -1   2   1  114.37    5.21
   1  -2  -1  109.20    6.00
  -1   2   1  110.01    7.59
   1  -2  -1  103.59    4.15
  -1   2   1  120.61    5.38
  -1   2   1  121.28    5.21
  -1   2   1  119.33    5.16
  -1   2   1  118.62    5.15
  -1   2   1  112.88    5.06
   1  -2  -1  123.89    7.26
   1  -2  -1  108.44    5.06
  -1   2   0 2044.65   14.57
  -1   2   0 1964.47   21.12
  -1   2  -1  360.25    3.91
   1  -2   1  243.15    7.91
   1  -2   1  254.25   11.92
   1  -2   1  316.65    4.69
   1  -2   1  308.35    4.71
   1  -2   1  320.01    4.58
   1  -2   1  300.84    4.67
  -1   2  -1  372.55    6.16
   1  -2   1  297.82    4.61
  -1   2  -2   35.69    5.83
  -1   2  -2   24.08    3.94
  -1   2  -2   37.39    2.27
  -1   2  -2   32.56    7.00
  -1   2  -3  264.20   18.78
   1  -2   3  326.11   15.91
   1  -2   3  314.18   13.01
  -1   2  -3  255.03   15.35
  -1   2  -3  259.26   21.05
  -1   2  -3  324.61   25.42
   1  -2   4    1.23    1.56
   1  -2   4    0.88    1.59
   1  -2   5   48.52    4.06
   1  -2   5   56.72    3.89
   1  -1  -5   42.02    4.69
   1  -1  -5   60.77    7.98
  -1   1   5   44.82    4.06
   1  -1  -5   47.65    9.64
   1  -1  -5   44.20    8.27
  -1   1   4  204.90   13.16
   1  -1  -4  201.34   13.51
   1  -1  -4  211.30   17.70
  -1   1   4   -0.49    3.14
  -1   1   4    4.22    5.46
  -1   1   4  233.44   11.88
   1  -1  -4  192.51   17.02
   1  -1  -4  218.24   20.89
  -1   1   4  209.33   12.24
  -1   1   3   54.05    5.13
   1  -1  -3   53.71    7.98
  -1   1   3   54.60    5.10
  -1   1   3   54.12    5.04
  -1   1   3   57.46    5.26
  -1   1   3   57.68    5.13
   1  -1  -3   47.83    5.87
   1  -1  -3   55.01    8.14
   1  -1  -3   53.35    9.30
   1  -1  -2   10.41    3.29
  -1   1   2    8.93    1.95
  -1   1   2    7.96    1.94
  -1   1   2    7.26    1.88
  -1   1   2    7.91    2.04
  -1   1   2    8.75    1.93
  -1   1   2    8.81    2.01
   1  -1  -2   11.50    2.68
   1  -1  -2    9.11    4.43
   1  -1  -2    8.33    2.92
  -1   1   1 3151.12   23.92
  -1   1   1 3311.25   38.20
   1  -1  -1 3345.87   31.43
   1  -1  -1 3375.40   26.22
   1  -1  -1 3235.76   30.43
   1  -1  -1 3225.13   35.51
   1  -1   0 1281.22    8.41
  -1   1   0 1134.26    7.14
   1  -1   0 1256.46   11.25
  -1   1   0 1175.79   13.29
   1  -1   1 5410.82   48.39
   1  -1   1 2252.77   39.43
  -1   1  -2  165.60   11.09
   1  -1   2  170.26    6.66
   1  -1   2  181.71    6.85
   1  -1   2  175.46    6.64
   1  -1   2  175.91    6.74
   1  -1   2  172.68    6.86
  -1   1  -2  169.84    9.60
  -1   1  -2  183.64    4.34
  -1   1  -2  182.68   14.12
  -1   1  -3  103.99   11.65
  -1   1  -3   95.29    9.23
  -1   1  -3  102.54   12.34
  -1   1  -3  105.85   14.08
   1  -1   4   56.52    6.59
   1  -1   4   62.40    6.31
   1  -1   5   81.93    5.46
   1  -1   5  103.58   11.18
   1  -1   5   99.78    5.85
  -1   1  -5   85.37   11.27
   1   0  -5   40.90    4.45
   1   0  -5   62.22    7.34
  -1   0   5   53.75    4.43
   1   0  -5   49.76    8.84
   1   0  -4    0.28    1.39
  -1   0   4    0.40    1.14
   1   0  -4   -3.57    2.51
  -1   0   4    3.37    1.71
  -1   0   4    4.66    5.14
  -1   0   4    0.15    3.52
  -1   0   4    2.50    1.60
   1   0  -4    6.49    3.81
   1   0  -3    8.39    3.34
  -1   0   3   11.06    2.19
  -1   0   3    9.50    1.94
  -1   0   3   12.61    2.17
  -1   0   3   12.16    2.22
   1   0  -3    9.87    5.09
   1   0  -3    7.87    2.51
   1   0  -3    6.87    3.60
  -1   0   2  376.03   10.05
   1   0  -2  379.68   15.67
  -1   0   2  376.22    3.99
  -1   0   2  362.95    9.54
  -1   0   2  350.71    9.46
  -1   0   2  346.19    9.52
  -1   0   2  363.36    9.53
  -1   0   2  360.11   10.02
   1   0  -2  346.43   16.21
   1   0  -2  378.13   18.91
   1   0  -2  332.43   11.97
  -1   0   1  660.04    9.39
  -1   0   1  651.51    4.56
   1   0  -1  598.06   12.85
  -1   0   1  627.40    8.62
  -1   0   1  638.05    9.01
  -1   0   1  617.60    8.66
  -1   0   1  613.85    8.69
  -1   0   1  622.11    8.61
   1   0  -1  630.97   16.16
   1   0  -1  596.16   14.13
   1   0  -1  575.37   10.28
   1   0   0 1038.47    7.05
  -1   0   0  815.20    6.90
  -1   0  -1  373.11   10.91
   1   0   1  380.78    8.10
   1   0   1  380.98    8.25
   1   0   1  388.65    8.14
   1   0   1  383.51    8.02
  -1   0  -1  366.37    9.58
  -1   0  -1  366.14   12.31
  -1   0  -1  372.03    4.47
   1   0   1  375.05    8.12
  -1   0  -2   25.06    4.66
   1   0   2   25.16    2.45
   1   0   2   24.53    3.01
   1   0   2   24.09    2.97
   1   0   2   24.31    3.05
   1   0   2   24.62    3.08
  -1   0  -2   24.71    3.89
  -1   0  -2   23.07    5.94
  -1   0  -2   26.01    1.49
  -1   0  -2   16.26    4.23
   1   0   2   21.74    2.92
  -1   0  -3    2.45    3.17
   1   0   3    2.33    1.85
   1   0   3    1.90    1.61
   1   0   3    1.05    1.59
   1   0   3    1.01    1.49
  -1   0  -3    1.31    3.15
   1   0   3    0.64    1.62
  -1   0  -3    1.33    1.99
  -1   0  -3   -0.22    3.22
  -1   0  -4   49.74    9.47
   1   0   4   64.54    6.88
   1   0   4   85.00   15.90
   1   0   4   68.15    6.89
   1   0   4   71.86    7.02
   1   0   4   60.59    6.23
  -1   0  -4   60.56   10.11
  -1   0  -4   55.05   11.29
  -1   0  -5    2.10    1.42
  -1   0  -5    5.99    2.79
   1   0   5    4.08    4.93
   1   0   5    2.63    1.32
  -1   0  -5    1.89    3.92
  -1  -1   5    4.34    3.04
  -1  -1   5    1.90    1.03
  -1  -1   5    0.74    0.75
  -1  -1   4   29.22    3.17
  -1  -1   4   25.14    4.37
  -1  -1   4   30.02    4.23
   1   1  -3  488.20   23.76
   1   1  -3  491.81   29.31
   1   1  -3  435.21   25.24
  -1  -1   2    3.61    0.59
   1   1  -2    2.61    2.29
  -1  -1   2    3.14    0.88
  -1  -1   2    2.93    0.98
  -1  -1   2    2.32    0.81
  -1  -1   2    2.44    0.80
   1   1  -2   -1.19    3.14
   1   1  -2    3.08    2.60
   1   1  -2    2.57    1.57
   1   1  -1  177.85    7.16
  -1  -1   1  196.40    3.04
  -1  -1   1  186.02    3.39
  -1  -1   1  184.36    3.36
  -1  -1   1  186.83    3.33
  -1  -1   1  188.40    3.34
   1   1  -1  185.14    5.81
   1   1  -1  180.34    9.23
  -1  -1   0  124.87    2.37
   1   1   0  106.89    2.32
   1   1   0   97.03    2.54
  -1  -1   0  101.54    2.22
   1   1   0  114.91    2.78
   1   1   0  114.36    2.65
   1   1   0  118.67    2.78
   1   1   0  115.33    2.67
  -1  -1  -1   39.31    3.83
   1   1   1   42.30    2.59
   1   1   1   37.79    2.96
   1   1   1   40.39    3.08
   1   1   1   36.87    2.97
   1   1   1   38.75    2.95
  -1  -1  -1   39.52    3.21
  -1  -1  -1   39.20    1.62
   1   1   1   37.20    2.98
  -1  -1  -1   38.81    4.08
  -1  -1  -1   36.44    3.42
   1   1   2  109.55    5.65
  -1  -1  -2  112.16    9.19
   1   1   2  101.85    6.26
   1   1   2  105.04    6.54
   1   1   2  105.79    6.53
   1   1   2  104.98    6.52
   1   1   2  106.93    6.42
  -1  -1  -2  109.46    7.87
  -1  -1  -2  117.24   10.71
  -1  -1  -2  101.99    8.13
   1   1   3   15.89    2.69
  -1  -1  -3   14.68    4.72
   1   1   3   19.04    3.39
   1   1   3   16.03    3.11
   1   1   3   15.55    3.00
   1   1   3   16.34    3.10
   1   1   3   16.42    3.25
  -1  -1  -3   17.82    4.85
  -1  -1  -3   17.16    4.08
  -1  -1  -3   15.58    5.62
   1   1   4    7.34    3.72
   1   1   4    1.47    6.59
   1   1   4    2.08    2.19
  -1  -1  -4    0.38    2.06
  -1  -1  -4    2.36    1.93
  -1  -1  -4    3.57    4.07
   1   1   4    3.85    2.04
  -1  -1  -4    5.72    3.40
  -1  -1  -4   -0.45    3.58
   1   1   4    1.39    1.49
  -1  -1  -4    2.54    2.92
  -1  -1  -5  359.98   14.68
  -1  -1  -5  498.47   23.77
   1   1   5  431.22   13.36
  -1  -1  -5  401.88   27.35
  -1  -1  -5  485.97   27.74
  -1  -2   5    8.22    1.73
  -1  -2   5    9.95    1.68
  -1  -2   4   -0.53    0.67
  -1  -2   4    0.45    1.23
  -1  -2   4    0.60    1.39
   1   2  -3   17.30    5.16
  -1  -2   3   14.01    3.56
  -1  -2   3    1.39    2.61
  -1  -2   3   18.77    2.53
  -1  -2   3   14.91    2.83
   1   2  -3   12.75    4.38
   1   2  -3   16.99    6.46
   1   2  -2   71.36    7.41
   1   2  -2   70.88    9.32
   1   2  -2   71.80    5.75
   1   2  -2   74.97    9.08
  -1  -2   1  127.90    4.92
  -1  -2   1  150.02    8.75
   1   2  -1  212.91    8.40
   1   2  -1  205.75    2.30
  -1  -2   1  205.86    3.91
   1   2  -1  179.58    6.33
  -1  -2   0  147.58    3.79
   1   2   0  127.51    3.16
   1   2   0  115.16    3.03
  -1  -2   0  152.69    3.48
   1   2   0  141.28    3.73
   1   2   0  143.16    3.73
   1   2   0  144.24    3.82
   1   2   0  146.28    3.83
   1   2   0  133.58    3.68
   1   2   0  147.91    4.27
   1   2   1  147.37    5.49
   1   2   1  137.04    3.93
  -1  -2  -1  156.89    7.35
   1   2   1  145.38    6.37
   1   2   1  154.77    6.50
   1   2   1  158.21    6.44
   1   2   1  152.03    6.42
  -1  -2  -1  144.50    4.72
  -1  -2  -1  146.32    7.64
  -1  -2  -1  159.05    6.94
   1   2   1  155.28    6.54
  -1  -2  -2  407.62   16.85
   1   2   2  421.56   12.67
   1   2   2  415.18   13.35
   1   2   2  422.15   13.55
   1   2   2  416.23   13.29
   1   2   2  413.05   13.53
   1   2   2  428.28   13.81
  -1  -2  -2  389.82   18.22
  -1  -2  -2  419.85   15.23
  -1  -2  -2  409.64   14.31
  -1  -2  -3   40.63    6.93
   1   2   3   43.30    4.81
   1   2   3   38.86    5.10
   1   2   3   43.52    5.31
   1   2   3   40.73    5.17
   1   2   3   39.40    5.00
   1   2   3   42.18    5.47
  -1  -2  -3   43.58    8.16
  -1  -2  -3   43.47    6.11
  -1  -2  -3   41.07    6.28
   1   2   4   17.74    4.37
   1   2   4   18.59    3.85
  -1  -2  -4   19.78    4.72
  -1  -2  -4   21.71    4.21
  -1  -2  -4   16.23    5.50
   1   2   4    4.91    3.09
   1   2   4   20.84    5.27
   1   2   4   -3.31    6.85
   1   2   4   21.96    3.93
   1   2   4   22.64    4.04
   1   2   4   25.55    4.24
   1   2   4   23.32    4.13
  -1  -2  -4   21.60    4.91
   1   2   4   17.90    4.07
  -1  -2  -4   10.10    4.59
   1   2   5  132.77    8.40
  -1  -2  -5  116.67    8.16
  -1  -2  -5  147.22   13.15
   1   2   5  123.74    6.96
  -1  -2  -5  161.42   15.46
  -1  -2  -5  126.20   13.81
  -1  -3   5    0.06    0.54
  -1  -3   5    0.71    0.64
  -1  -3   4   19.03    3.74
  -1  -3   4   18.52    2.51
  -1  -3   4   20.55    3.16
  -1  -3   3    2.93    3.55
  -1  -3   3   15.85    2.43
  -1  -3   3   12.88    3.37
  -1  -3   3   13.35    2.66
   1   3  -3   14.40    6.01
   1   3  -3   15.73    6.19
  -1  -3   2   15.81    7.29
   1   3  -2   30.78    5.39
   1   3  -2   27.69    6.61
  -1  -3   1  163.84   10.23
  -1  -3   1  141.91    9.78
  -1  -3   1  135.38    5.94
   1   3  -1  194.64    3.70
  -1  -3   1  176.53    4.83
  -1  -3   0  366.77    7.70
   1   3   0  319.53    5.47
   1   3   0  420.12    8.43
  -1  -3   0  463.46    7.35
   1   3   0  309.45    4.53
   1   3   0  363.46    6.36
   1   3   0  366.97    6.48
   1   3   0  359.02    6.37
   1   3   0  389.33    6.86
   1   3   0  351.31    6.29
   1   3   0  367.99    9.17
   1   3   1   34.71    3.16
   1   3   1   35.19    1.83
  -1  -3  -1   37.98    3.67
   1   3   1   33.83    4.23
  -1  -3  -1   32.16    2.82
   1   3   1   37.00    3.56
   1   3   1   38.24    3.69
   1   3   1   37.63    3.61
   1   3   1   37.10    3.62
   1   3   1   33.51    3.43
  -1  -3  -1   37.31    4.02
  -1  -3  -1   36.16    2.12
   1   3   2  809.38   19.45
  -1  -3  -2  805.64   23.28
   1   3   2  789.99   19.62
   1   3   2  764.55   19.70
   1   3   2  789.85   19.57
   1   3   2  792.67   19.83
   1   3   2  802.29   20.29
  -1  -3  -2  894.46   22.41
  -1  -3  -2  850.84   25.48
  -1  -3  -2  737.11   16.00
   1   3   3   27.10    5.09
   1   3   3   32.46    4.69
  -1  -3  -3   27.54    4.54
  -1  -3  -3   32.44    6.02
  -1  -3  -3   35.04    5.00
   1   3   3    2.50    2.68
   1   3   3   36.81    6.57
   1   3   3   30.45    4.73
   1   3   3   30.05    4.64
   1   3   3   30.07    4.69
   1   3   3   30.26    4.65
   1   3   3   31.08    4.90
  -1  -3  -3   30.38    6.47
  -1  -3  -3   33.88    5.54
   1   3   3   33.53    5.42
   1   3   4   27.71    6.33
   1   3   4   20.60    4.85
  -1  -3  -4   18.28    4.44
   1   3   4   20.26    4.00
  -1  -3  -4   24.91    4.44
   1   3   4   24.28    4.79
  -1  -3  -4   18.60    7.54
  -1  -3  -4   13.10    6.39
   1   3   4   22.69    3.74
  -1  -3  -5    3.74    1.55
  -1  -3  -5    7.87    1.80
  -1  -3  -5    2.46    1.98
   1   3   5    3.95    1.91
  -1  -3  -5    5.14    3.17
   1   3   5    4.18    1.15
  -1  -3  -5    5.99    3.99
   1   3   5    6.04    2.06
  -1  -3  -5    1.02    2.37
  -1  -4   4   17.32    3.28
  -1  -4   4   21.02    2.41
  -1  -4   4   17.89    2.54
  -1  -4   3   21.61    4.04
  -1  -4   3   21.55    2.94
  -1  -4   3   17.07    2.79
   1   4  -3   15.68    6.55
   1   4  -3   21.82    7.00
  -1  -4   2   -0.09    1.72
   1   4  -2   -0.42    2.38
   1   4  -2    0.50    3.37
  -1  -4   1  516.11   13.62
  -1  -4   1  474.12   21.09
  -1  -4   1  534.07   10.35
   1   4  -1  485.75   14.82
   1   4   0   91.94    4.96
   1   4   0   78.04    2.86
   1   4   0   89.06    5.68
   1   4   1   90.50    7.39
   1   4   1  114.01    6.67
  -1  -4  -1   98.32    5.03
   1   4   1   95.33    5.82
   1   4   1   99.66    5.91
   1   4   1  100.93    6.17
   1   4   1  100.89    5.91
   1   4   1   96.02    5.81
  -1  -4  -2    0.95    1.11
   1   4   2    0.79    1.29
  -1  -4  -2    0.61    1.06
   1   4   2   -0.72    1.11
   1   4   2   -0.24    1.18
   1   4   2   -0.33    1.45
   1   4   2   -0.42    1.14
  -1  -4  -2    0.54    1.88
   1   4   2    0.07    1.16
  -1  -4  -3   66.85    6.88
   1   4   3   70.42    7.08
   1   4   3   64.56    7.13
  -1  -4  -3   74.89    7.30
  -1  -4  -3   57.83    7.63
   1   4   3   64.72    8.37
  -1  -4  -3   64.37    5.79
  -1  -4  -3   54.51    5.56
   1   4   3   87.31   10.45
  -1  -4  -3   81.16    5.88
   1   4   3   61.53    6.85
   1   4   3   64.51    6.92
   1   4   3   58.68    6.70
   1   4   3   63.94    6.91
   1   4   3   60.75    6.77
   1   4   3   66.85    7.37
  -1  -4  -3   72.74    4.90
   1   4   3   62.25    6.74
   1   4   3   64.69    7.60
  -1  -4  -3   86.12   11.57
  -1  -4  -3   62.38    8.61
  -1  -4  -3   83.08   11.56
  -1  -4  -4    1.64    1.53
   1   4   4    1.69    2.85
  -1  -4  -4    0.66    1.59
   1   4   4    1.99    2.01
   1   4   4   -0.45    2.45
  -1  -4  -4    0.26    0.71
  -1  -4  -4    4.40    3.89
   1   4   4    2.60    1.97
  -1  -4  -4    2.55    3.23
   1   4   4    1.34    2.02
  -1  -4  -4    1.95    2.69
   1   4   4    1.40    1.75
  -1  -4  -5   27.26    5.05
   1   4   5   27.40    3.93
  -1  -4  -5   22.17    3.09
  -1  -4  -5   15.69    3.98
   1   4   5   23.22    3.41
  -1  -4  -5   27.81    5.24
  -1  -5   4  171.82    5.94
  -1  -5   4  182.41    8.50
  -1  -5   4  197.85    6.68
  -1  -5   3   56.14    4.61
  -1  -5   3   48.14    5.57
  -1  -5   3   51.77    4.36
  -1  -5   2    3.22    1.65
  -1  -5   2    4.79    1.54
  -1  -5   2    4.09    1.33
   1   5  -2    1.77    1.11
  -1  -5   2    5.11    1.57
  -1  -5   2    2.66    1.26
   1   5  -2    5.75    3.49
  -1  -5   1   24.58    5.98
   1   5  -1   31.81    3.48
  -1  -5   0  114.59    5.25
  -1  -5   0  122.77    9.37
   1   5   0   97.21    6.27
   1   5   1    0.37    0.99
  -1  -5  -1    0.09    0.69
   1   5   1   -0.33    0.72
   1   5   1   -1.65    0.96
   1   5   1   -1.99    1.02
   1   5   1   -2.05    1.05
   1   5   2    4.97    1.96
  -1  -5  -2    5.79    1.72
  -1  -5  -2    5.57    1.62
   1   5   2    7.78    2.25
   1   5   2    5.56    2.01
   1   5   2    8.45    2.42
   1   5   2    6.23    2.06
  -1  -5  -2    5.13    2.28
  -1  -5  -3   53.54    6.18
   1   5   3   44.05    6.50
  -1  -5  -3   40.52    5.98
  -1  -5  -3   38.60    5.04
   1   5   3   45.15    7.30
   1   5   3   61.06    8.71
  -1  -5  -3   44.58    5.02
  -1  -5  -3   40.74    4.74
  -1  -5  -3   48.84    7.98
   1   5   3   42.57    5.70
   1   5   3   42.37    5.99
   1   5   3   43.92    5.84
   1   5   3   48.03    6.03
   1   5   3   44.89    5.78
   1   5   3   46.28    6.71
   1   5   3   39.61    5.65
  -1  -5  -3   56.38    8.85
  -1  -5  -3   49.67    4.19
  -1  -5  -3   47.67    8.06
   1   5   4   43.02    4.25
   1   5   4   53.27    7.65
  -1  -5  -4   71.17    6.62
  -1  -5  -4   54.39    5.83
  -1  -5  -4   56.82    8.59
  -1  -5  -4   48.05    4.46
   1   5   4   46.09    5.55
  -1  -5  -4   59.42    8.89
   1   5   4   48.09    6.37
  -1  -5  -4   30.99    6.54
   1   5   4   46.68    5.58
  -1  -5  -5   18.17    3.27
   1   5   5   14.51    2.72
  -1  -5  -5   15.01    2.20
  -1  -5  -5   14.34    3.05
   1   5   5   13.54    2.32
  -1  -6   4  300.76    7.90
  -1  -6   3   12.43    2.00
  -1  -6   3   12.77    2.17
  -1  -6   3   11.49    2.41
  -1  -6   2    5.07    1.45
  -1  -6   2    4.78    1.68
  -1  -6   2    3.82    1.78
  -1  -6   2    4.44    1.35
  -1  -6   2    5.16    1.69
  -1  -6   2    1.28    1.79
  -1  -6   1   97.17    6.26
  -1  -6   1  110.25    6.40
  -1  -6   1  103.13    6.82
   1   6  -1   88.92    7.21
  -1  -6   0   29.04    3.30
  -1  -6   0   30.12    5.59
  -1  -6   0   27.89    3.14
  -1  -6   0   33.04    3.70
   1   6   0   27.56    3.03
   1   6   0   26.29    4.09
  -1  -6  -1   99.41    5.84
  -1  -6  -1   88.18    5.38
  -1  -6  -1   80.26    6.13
  -1  -6  -1   90.56    5.85
  -1  -6  -1   80.09    6.08
   1   6   1   80.21    7.67
   1   6   2  107.65   10.01
   1   6   2  118.79   11.34
  -1  -6  -2  118.16    7.77
  -1  -6  -2  110.16    7.89
  -1  -6  -2  117.69    7.16
  -1  -6  -2   93.94    6.71
   1   6   2  106.24    7.73
   1   6   2  102.80    7.67
   1   6   2  109.37    7.77
   1   6   2  110.94    7.80
   1   6   2  111.91    9.78
  -1  -6  -2  122.71    6.60
  -1  -6  -3    1.17    1.20
  -1  -6  -3    2.11    1.71
   1   6   3    2.14    2.61
  -1  -6  -3    1.62    1.54
   1   6   3    0.98    2.12
   1   6   3    2.69    2.43
  -1  -6  -3    0.23    0.70
  -1  -6  -3    1.55    1.40
   1   6   3    0.78    1.88
  -1  -6  -4  301.41   12.09
   1   6   4  276.54   15.40
   1   6   4  264.33   10.01
  -1  -6  -4  263.82    9.82
  -1  -6  -4  309.16   14.81
   1   6   4  267.27   12.80
   1   6   4  269.28   12.61
   1   6   4  252.70   12.97
  -1  -6  -4  298.31   15.84
   1   6   5    0.70    0.74
  -1  -6  -5    0.39    0.47
  -1  -7   3    1.50    0.76
  -1  -7   2   90.74    5.79
  -1  -7   2   94.25    5.23
  -1  -7   2   84.19    5.82
  -1  -7   1    9.07    2.06
  -1  -7   1    9.72    2.25
  -1  -7   1   12.80    2.59
  -1  -7   0    0.09    2.43
  -1  -7   0    1.78    1.16
  -1  -7   0    1.99    1.16
   1   7   0    5.70    2.66
  -1  -7  -1 1254.42   23.59
  -1  -7  -1 1206.23   20.90
  -1  -7  -1 1308.37   23.28
  -1  -7  -1 1297.22   23.55
   1   7   1 1221.09   33.62
   1   7   1 1293.60   24.83
  -1  -7  -2  333.79   13.25
  -1  -7  -2  342.03   13.55
   1   7   2  373.60   20.12
   1   7   3   46.07    6.93
  -1  -7  -3   52.74    5.19
  -1  -7  -3   52.47    5.05
   1   7   3   51.75    6.68
   1   7   3   52.64    6.33
   1   7   3   45.02    5.73
   1   7   4   66.01    4.44
  -1  -7  -4   75.45    5.14
   1   7   4   80.34    7.11
  -1  -7  -4   75.71    4.55
   1   7   4   68.56    5.70
   1   7   4   70.43    5.72
   1   7   4   66.26    5.33
  -1  -8   2  115.18    5.42
  -1  -8   1   37.75    3.57
  -1  -8   1   34.14    3.72
  -1  -8   0  157.57    8.34
  -1  -8   0  160.34    7.75
  -1  -8  -1   42.38    4.23
  -1  -8  -1   42.52    3.84
  -1  -8  -1   40.73    3.69
  -1  -8  -2   28.12    3.41
   1   8   2   21.56    4.56
   1   8   2   25.77    4.64
   1   8   3  144.95    9.91
  -1  -8  -3  136.25    7.49
  -1  -8  -3  151.35    7.25
   1   8   3  137.05    9.55
   1   8   3  143.50    9.09
   1   8   4    5.48    1.03
   1   8   4    3.82    1.16
  -1  -8  -4    6.01    1.01
   1   8   4    4.33    1.21
   1   8   4    5.02    1.28
  -1  -9   1   11.65    1.87
  -1  -9   0    6.92    1.64
  -1  -9   0    6.78    1.42
  -1  -9  -1    6.73    1.52
   1   9   2   44.41    3.89
  -1  -9  -2   50.92    3.42
   1   9   2   40.66    5.27
   1   9   2   46.07    4.63
   1   9   3   37.28    2.95
   1   9   3   40.99    3.09
  -1  -9  -3   42.60    2.71
   1   9   3   41.70    4.00
   1   9   3   41.02    3.56
  -1 -10   0    0.75    0.51
   1  10   1    2.52    0.82
   1  10   2    9.64    1.31
  -2  10   2   14.59    1.55
  -2   9   3    0.64    0.63
  -2   9   3   -0.01    0.59
   2  -9  -3   -0.02    0.42
  -2   9   3    1.06    1.14
  -2   9   3    1.32    0.69
  -2   9   2    9.05    1.65
   2  -9  -2   10.66    1.57
  -2   9   2   11.14    2.67
   2  -9  -1    0.37    0.56
  -2   9   1    0.10    1.09
   2  -9   0    9.11    1.75
   2  -9   0   -0.46    1.64
   2  -9   1    1.73    1.57
  -2   8   4    3.46    0.88
  -2   8   4    2.46    0.55
   2  -8  -4    2.50    0.69
  -2   8   4    3.30    1.19
  -2   8   4    3.19    1.05
  -2   8   3   12.43    2.32
  -2   8   3   11.32    2.27
   2  -8  -3   14.18    2.19
  -2   8   3   13.83    3.14
  -2   8   3    9.02    1.86
  -2   8   3   14.07    2.87
  -2   8   2   30.76    3.87
   2  -8  -2   30.26    3.33
  -2   8   2   31.82    5.31
  -2   8   2   38.92    5.06
   2  -8  -1   72.56    5.30
   2  -8   0    1.55    1.02
   2  -8   0    0.27    0.82
   2  -8   1  125.22    7.07
   2  -8   1  129.52    6.34
   2  -7  -4    5.41    1.56
  -2   7   4    4.52    1.51
  -2   7   4    5.56    1.24
  -2   7   4    5.95    1.48
   2  -7  -4    4.70    1.17
   2  -7  -4    1.49    0.90
  -2   7   4    2.98    1.39
   2  -7  -4    4.93    2.46
  -2   7   4    3.35    1.43
   2  -7  -4    8.14    2.88
   2  -7  -3   10.09    2.66
  -2   7   3    9.12    3.27
  -2   7   3   10.44    2.49
   2  -7  -3    8.41    2.09
  -2   7   3    8.54    3.01
   2  -7  -3    8.86    3.61
  -2   7   3    7.14    2.67
   2  -7  -3    3.20    2.17
   2  -7  -2  699.38   17.94
   2  -7  -2  650.97   19.21
   2  -7  -2  636.26   29.57
   2  -7  -1   38.93    3.78
   2  -7  -1   37.83    4.03
   2  -7  -1   37.97    3.83
   2  -7  -1   36.06    6.47
   2  -7  -1   42.12    4.51
  -2   7   1   34.17    5.67
  -2   7   1   43.01    4.30
  -2   7   1   47.00    4.57
   2  -7   0   21.03    3.73
   2  -7   0   29.18    6.91
   2  -7   0   30.36    3.77
   2  -7   0   30.56    3.48
  -2   7   0   30.22    3.70
   2  -7   1   15.83    2.83
   2  -7   1   13.40    2.31
   2  -7   2   -2.69    2.76
   2  -7   2   17.28    2.62
   2  -6  -5    3.60    1.13
  -2   6   5    4.32    1.14
   2  -6  -5    3.40    0.93
  -2   6   5    5.08    1.02
   2  -6  -5    3.12    1.33
  -2   6   4   14.72    3.31
   2  -6  -4   14.73    2.71
  -2   6   4   15.78    2.46
  -2   6   4   15.24    2.22
   2  -6  -4   19.17    3.96
   2  -6  -4   18.63    2.53
  -2   6   4   14.87    3.20
   2  -6  -4   16.95    4.56
  -2   6   4   17.70    3.44
   2  -6  -4   19.15    4.71
  -2   6   4   15.43    3.10
   2  -6  -3   56.89    5.69
  -2   6   3   53.19    7.37
   2  -6  -3   52.57    5.16
   2  -6  -3   50.84    6.64
  -2   6   3   41.29    6.05
  -2   6   3   47.00    6.21
   2  -6  -3   56.71    8.27
  -2   6   3   52.40    6.22
   2  -6  -3   46.60    7.88
   2  -6  -2  460.97   15.56
  -2   6   2  478.92   21.21
  -2   6   2  490.94   14.94
   2  -6  -2  552.36   15.28
   2  -6  -2  424.69   14.33
  -2   6   2  455.69   14.28
   2  -6  -2  434.30   13.34
  -2   6   2  467.28   14.52
  -2   6   2  473.68   14.53
  -2   6   2  494.46   15.24
  -2   6   2  430.80   17.77
   2  -6  -2  405.44   22.21
   2  -6  -2  389.02   20.58
   2  -6  -1   27.67    3.31
   2  -6  -1   30.10    3.15
   2  -6  -1   39.90    3.94
   2  -6  -1   31.28    3.40
  -2   6   1   30.67    4.90
  -2   6   1   32.74    3.59
   2  -6  -1   27.85    3.79
   2  -6  -1   14.94    4.37
   2  -6  -1   24.38    5.70
   2  -6   0    6.76    2.95
   2  -6   0    3.20    1.30
   2  -6   0    3.40    1.15
   2  -6   0    3.42    1.20
  -2   6   0    3.62    1.06
  -2   6   0    1.97    1.40
   2  -6   1   21.37    6.32
   2  -6   1   34.33    3.53
   2  -6   1   33.30    3.82
   2  -6   1   16.49    3.88
   2  -6   1   31.05    3.68
  -2   6  -1   32.60    3.62
  -2   6  -1   27.65    5.24
   2  -6   2   47.50    3.87
   2  -6   2   43.84    4.31
   2  -6   2   50.79    4.65
   2  -6   2   43.07    5.02
   2  -6   3   45.54    4.73
   2  -6   4    1.42    0.54
   2  -5  -5   95.98    5.05
  -2   5   5   98.25    6.28
   2  -5  -5  113.13    7.75
  -2   5   5  109.23    5.25
   2  -5  -5  103.54    8.37
   2  -5  -5   87.34    7.83
  -2   5   4    5.77    2.87
   2  -5  -4    5.73    2.32
  -2   5   4    4.48    1.57
   2  -5  -4    5.96    3.38
   2  -5  -4    8.45    1.86
  -2   5   4    2.98    2.22
  -2   5   4    4.37    2.41
  -2   5   4    4.67    2.29
   2  -5  -4    4.13    3.47
   2  -5  -4    6.04    4.25
   2  -5  -3   33.40    4.73
  -2   5   3   17.03    2.64
  -2   5   3   18.36    4.37
   2  -5  -3   23.50    3.80
  -2   5   3   18.12    4.30
   2  -5  -3   21.67    3.20
   2  -5  -3   20.55    3.24
   2  -5  -3   20.75    5.00
  -2   5   3   20.49    3.59
  -2   5   3   18.59    4.43
   2  -5  -3   22.39    3.67
  -2   5   3   18.91    3.51
  -2   5   3   17.47    3.38
  -2   5   3   22.26    3.67
   2  -5  -3   21.90    5.76
  -2   5   3   14.85    3.50
   2  -5  -3   21.10    5.64
  -2   5   3   17.98    3.89
   2  -5  -3   21.69    5.27
   2  -5  -2    3.09    1.43
   2  -5  -2    2.20    1.18
  -2   5   2    1.07    0.82
  -2   5   2    1.84    1.33
  -2   5   2    2.92    2.69
   2  -5  -2    0.31    1.05
   2  -5  -2    0.84    0.65
  -2   5   2    1.86    1.13
  -2   5   2    1.63    1.09
   2  -5  -2    0.64    0.67
  -2   5   2    2.22    1.33
  -2   5   2    1.23    0.97
   2  -5  -2    1.15    1.88
  -2   5   1   78.09    8.86
  -2   5   1   77.75    4.99
  -2   5   1   78.74    6.78
   2  -5  -1   82.20    4.90
  -2   5   1   90.64    5.12
  -2   5   1   85.70    4.74
  -2   5   1   79.85    4.54
   2  -5  -1   81.74    4.43
  -2   5   1   88.23    4.80
   2  -5   0   14.94    2.26
   2  -5   0   14.33    3.49
  -2   5   0   15.02    2.72
  -2   5   0   17.07    2.06
  -2   5   0   17.01    4.31
   2  -5   1    0.22    1.16
   2  -5   1    1.59    2.63
  -2   5  -1    0.68    1.52
  -2   5  -1    1.85    0.99
   2  -5   2   36.14    4.84
   2  -5   2   35.02    3.22
   2  -5   2   34.87    3.66
   2  -5   2   31.89    3.55
  -2   5  -2   22.28    7.65
   2  -5   3  523.16   13.14
   2  -5   3  542.15   13.48
   2  -5   4    3.39    1.34
   2  -5   4    3.38    0.89
  -2   4   5   -0.70    2.08
   2  -4  -5   -1.04    2.21
   2  -4  -5   -0.27    1.14
  -2   4   5    0.98    1.44
   2  -4  -5    0.83    0.84
   2  -4  -5   -0.53    1.96
   2  -4  -5    1.16    2.26
  -2   4   5   -0.43    0.82
   2  -4  -4   13.83    4.91
   2  -4  -4   31.77    4.39
   2  -4  -4   19.50    3.72
  -2   4   4   20.27    4.59
  -2   4   4   18.50    2.74
   2  -4  -4   20.46    5.83
   2  -4  -4   25.65    3.02
  -2   4   4   21.94    4.07
   2  -4  -4   15.15    6.64
   2  -4  -4   21.01    6.73
  -2   4   4   17.87    3.97
  -2   4   4   20.05    3.76
  -2   4   3    0.80    1.64
   2  -4  -3    0.72    1.64
   2  -4  -3   -1.04    1.26
  -2   4   3    0.91    0.71
   2  -4  -3    0.96    1.28
   2  -4  -3   -2.86    2.04
  -2   4   3   -0.49    1.42
   2  -4  -3    0.51    1.88
   2  -4  -3   -0.19    0.96
   2  -4  -3    0.08    0.84
  -2   4   3    0.05    0.94
   2  -4  -3   -0.06    0.88
  -2   4   3    0.31    0.84
  -2   4   3   -0.09    1.17
  -2   4   3    1.96    2.14
  -2   4   3    0.82    2.22
   2  -4  -3   -1.02    3.15
  -2   4   3   -0.22    0.98
   2  -4  -3   -1.91    3.55
   2  -4  -3   -1.33    2.96
  -2   4   3    0.55    1.41
  -2   4   2   -0.14    0.83
   2  -4  -2    0.82    1.31
  -2   4   2   -2.07    2.76
  -2   4   2    0.76    1.33
   2  -4  -2    0.40    0.72
  -2   4   2   -0.15    0.92
  -2   4   2    0.44    0.98
  -2   4   2    0.07    0.85
   2  -4  -2    0.26    0.74
   2  -4  -2    1.20    2.01
  -2   4   2    0.45    0.89
  -2   4   1   86.30    4.67
  -2   4   1   82.72    5.92
  -2   4   1   79.15    8.22
   2  -4  -1  111.59    5.01
  -2   4   1   96.44    5.09
  -2   4   1   95.02    4.94
  -2   4   1   98.11    4.98
   2  -4  -1   91.04    4.57
  -2   4   1   93.09    4.88
   2  -4  -1   74.33    5.23
  -2   4   0  151.92    6.69
  -2   4   0  165.16    5.52
   2  -4   0  192.17    6.48
   2  -4   0  190.88    9.87
  -2   4   0  198.46    4.27
  -2   4   0  194.91    4.25
   2  -4   0  169.65    3.76
   2  -4   0  173.13    3.83
  -2   4   0  193.06    4.19
  -2   4   0  165.41    9.85
   2  -4   1  116.75   10.72
   2  -4   1  115.20    7.36
  -2   4  -1  178.97    4.58
  -2   4  -1  154.48    6.06
  -2   4  -1  143.15   10.40
  -2   4  -1  170.67    6.30
  -2   4  -2  240.65   16.90
  -2   4  -2  227.97   14.72
  -2   4  -2  258.18    8.30
  -2   4  -3    2.61    4.52
   2  -4   3   16.92    3.85
   2  -4   3   16.79    2.46
   2  -4   3   15.85    2.83
  -2   4  -3    0.79    4.02
   2  -4   4   18.20    3.41
   2  -4   4   16.19    2.41
   2  -3  -5  264.81   15.46
   2  -3  -5  208.11    8.98
  -2   3   5  220.89   10.94
   2  -3  -5  210.37   16.64
   2  -3  -5  269.91   17.47
  -2   3   5  227.11    7.89
   2  -3  -4   42.97    5.66
  -2   3   4   44.51    6.64
   2  -3  -4   74.18    6.61
   2  -3  -4   49.12    8.93
  -2   3   4   43.43    5.25
   2  -3  -4   56.72   10.77
   2  -3  -4   58.41   11.99
  -2   3   4   46.40    5.28
  -2   3   4   48.40    6.31
   2  -3  -3   77.49    8.88
  -2   3   3   78.71    4.61
  -2   3   3   70.91    6.94
  -2   3   3   72.53    7.93
   2  -3  -3   72.96    5.69
  -2   3   3   76.35    6.54
  -2   3   3   76.15    6.47
  -2   3   3   81.41    6.81
  -2   3   3   75.11    6.47
   2  -3  -3   69.46    9.80
   2  -3  -3  103.27   12.88
   2  -3  -3   70.58    7.62
  -2   3   2  111.32    7.54
   2  -3  -2  108.54    8.37
  -2   3   2   98.89   10.91
   2  -3  -2  102.19    5.51
  -2   3   2  109.60    6.59
  -2   3   2  109.20    6.63
  -2   3   2  111.57    6.63
  -2   3   2  113.61    6.72
   2  -3  -2   83.77    6.70
   2  -3  -2  110.74    9.94
  -2   3   1 3171.77   32.15
  -2   3   1 3228.25   45.04
   2  -3  -1 3488.26   25.09
  -2   3   1 3326.33   27.32
  -2   3   1 3373.17   27.93
  -2   3   1 3329.72   27.51
  -2   3   1 3385.57   27.62
   2  -3  -1 3017.08   38.45
   2  -3  -1 2895.67   28.08
  -2   3   0  128.53    5.00
  -2   3   0  120.02    4.03
   2  -3   0  139.62    4.51
  -2   3   0  132.76    3.25
  -2   3   0  137.49    3.32
  -2   3   0  132.80    3.28
   2  -3   0  123.33    3.06
  -2   3   0  126.83    7.34
   2  -3   1  369.06   16.35
   2  -3   1  329.04   10.65
  -2   3  -1  454.47    7.85
  -2   3  -1  464.97    6.24
  -2   3  -1  527.93    9.25
  -2   3  -1  420.27   15.71
  -2   3  -2   49.26    7.27
  -2   3  -2   45.98    6.18
  -2   3  -2   54.65    3.34
  -2   3  -3   -0.17    2.55
   2  -3   3    1.33    1.73
   2  -3   3   -0.70    1.31
  -2   3  -3   -2.14    2.89
  -2   3  -3    1.43    4.71
   2  -3   4   28.34    4.65
   2  -3   4   25.95    3.54
   2  -3   5   25.97    2.57
   2  -3   5   28.43    2.16
   2  -2  -5   90.46    9.45
   2  -2  -5   69.14    5.48
  -2   2   5   65.06    5.99
   2  -2  -5   82.64   12.00
   2  -2  -5   82.59   10.63
   2  -2  -4   99.74    8.70
  -2   2   4  102.53    9.68
   2  -2  -4  100.97   11.55
   2  -2  -4  135.12   14.94
  -2   2   4  111.39    7.85
  -2   2   4  116.29    7.90
  -2   2   4  115.23    8.04
  -2   2   4  122.38    8.07
  -2   2   4  120.80    8.10
   2  -2  -4  116.70    8.13
  -2   2   4  117.84    7.95
   2  -2  -4   90.64   11.03
   2  -2  -4  114.84   14.64
   2  -2  -4  136.19   16.85
  -2   2   4  116.93    7.70
  -2   2   4  108.34    9.01
   2  -2  -3  614.27   24.85
  -2   2   3  570.93   18.09
  -2   2   3  596.41   17.06
  -2   2   3  609.88   17.22
  -2   2   3  610.96   17.32
  -2   2   3  603.13   17.07
   2  -2  -3  572.66   28.36
   2  -2  -3  615.08   24.51
   2  -2  -2    1.53    1.87
  -2   2   2    1.11    1.35
  -2   2   2    1.52    2.08
   2  -2  -2    0.31    0.66
  -2   2   2    0.10    1.15
  -2   2   2    0.68    0.99
  -2   2   2    0.95    1.02
   2  -2  -2    0.06    1.40
   2  -2  -2    0.08    1.22
   2  -2  -2    0.45    2.87
  -2   2   2   -0.12    1.08
   2  -2  -1  444.05    4.45
  -2   2   1  473.24   16.03
  -2   2   1  493.86   11.14
   2  -2  -1  479.39   12.07
   2  -2  -1  465.76    8.25
  -2   2   1  465.45    9.48
  -2   2   1  470.00    9.51
  -2   2   1  451.11    9.26
  -2   2   1  476.04    9.50
   2  -2  -1  474.27   11.35
   2  -2  -1  498.36   14.62
  -2   2   0 5338.80   40.50
  -2   2  -1   15.05    0.97
   2  -2   1   19.93    4.57
   2  -2   1    8.38    1.84
   2  -2   1    8.03    2.91
   2  -2   1   13.28    1.39
   2  -2   1   12.46    1.34
   2  -2   1   12.49    1.36
   2  -2   1   11.98    1.37
  -2   2  -1   12.11    1.40
  -2   2  -1   15.25    1.37
  -2   2  -2  480.64   20.51
  -2   2  -2  492.23   25.21
  -2   2  -2  538.29    9.07
  -2   2  -2  461.66   17.70
  -2   2  -3    4.03    2.91
   2  -2   3   10.58    9.87
   2  -2   3    7.32    2.64
   2  -2   3   10.02    2.67
  -2   2  -3    7.09    3.15
  -2   2  -3    9.99    4.72
  -2   2  -3   13.09    5.62
   2  -2   4  160.83   11.23
   2  -2   4  153.66    9.32
  -2   2  -5    3.17    1.51
   2  -2   5    6.62    1.64
   2  -2   5    7.03    1.54
  -2   2  -5    4.41    3.20
   2  -1  -5    3.07    2.49
  -2   1   5    0.66    0.63
   2  -1  -5   -0.99    3.26
   2  -1  -5    0.49    3.99
  -2   1   4    2.69    2.41
   2  -1  -4   -1.71    3.41
   2  -1  -4    6.60    2.69
  -2   1   4   11.27    8.93
  -2   1   4    1.42    1.42
  -2   1   4    0.04    1.27
   2  -1  -4    1.37    3.42
  -2   1   4   -0.08    0.74
   2  -1  -4    0.80    3.95
   2  -1  -4    0.38    3.31
   2  -1  -3    4.23    2.95
  -2   1   3    2.39    1.32
  -2   1   3    1.15    2.96
  -2   1   3    2.33    1.20
  -2   1   3    3.00    1.52
  -2   1   3    3.38    1.29
   2  -1  -3    0.70    3.52
   2  -1  -3    1.14    2.16
   2  -1  -3    2.96    1.65
  -2   1   3    3.03    1.44
   2  -1  -2   43.40    5.46
  -2   1   2   35.61    1.98
  -2   1   2   32.41    3.49
  -2   1   2   35.63    3.31
  -2   1   2   34.92    3.37
  -2   1   2   34.79    3.28
  -2   1   2   32.08    3.13
   2  -1  -2   35.47    6.30
   2  -1  -2   40.52    4.13
   2  -1  -2   36.38    5.34
  -2   1   1  855.73   19.89
  -2   1   1  867.44    8.36
   2  -1  -1  900.26   15.98
  -2   1   1  855.56   12.97
  -2   1   1  867.22   11.48
  -2   1   1  856.32   11.47
  -2   1   1  860.15   11.39
  -2   1   1  857.68   11.45
   2  -1  -1  885.35   18.73
   2  -1  -1  865.00   16.64
  -2   1   0 2320.63   21.06
  -2   1  -1   10.27    0.79
   2  -1   1    6.79    2.57
   2  -1   1    9.22    1.47
   2  -1   1    9.52    1.39
   2  -1   1    9.32    1.36
  -2   1  -1    8.75    1.34
   2  -1   1   12.07    1.58
  -2   1  -1   11.12    1.02
  -2   1  -1    7.59    1.91
  -2   1  -2 1131.31   29.73
   2  -1   2 1161.54   18.64
   2  -1   2 1144.15   18.89
   2  -1   2 1118.86   18.51
   2  -1   2 1118.03   19.26
  -2   1  -2 1065.78   24.98
   2  -1   2 1157.33   19.03
  -2   1  -2 1192.66   12.20
  -2   1  -2 1094.58   34.66
  -2   1  -3   -0.14    2.06
  -2   1  -3    0.67    1.82
  -2   1  -3    0.73    2.36
  -2   1  -3    1.09    3.71
   2  -1   4   -0.27    1.42
   2  -1   4   -1.04    1.65
   2  -1   4    0.16    6.16
   2  -1   5   88.37   11.02
   2  -1   5   96.53    5.93
   2  -1   5  107.92    6.11
  -2   0   5   -0.30    2.50
   2   0  -5   -1.51    1.73
  -2   0   5    0.84    0.74
   2   0  -5    3.16    2.96
   2   0  -5   -3.85    4.91
   2   0  -4    4.93    3.07
  -2   0   4   -0.32    1.67
   2   0  -4   -2.17    1.94
  -2   0   4    0.29    1.06
   2   0  -4   -0.98    3.86
   2   0  -4    3.11    3.42
   2   0  -3   18.66    5.09
  -2   0   3    0.30    2.70
  -2   0   3   15.71    2.41
   2   0  -3   16.55    2.47
  -2   0   3   15.04    2.34
  -2   0   3   15.57    2.33
  -2   0   3   16.46    2.41
   2   0  -3   14.81    5.18
   2   0  -3   18.14    6.35
   2   0  -3   18.60    3.40
   2   0  -2  136.65    9.45
  -2   0   2  134.23    5.51
  -2   0   2  136.74    5.50
  -2   0   2  130.06    5.35
  -2   0   2  136.05    5.57
   2   0  -2  135.08   11.49
   2   0  -2  127.91   10.04
   2   0  -2  127.70    6.93
  -2   0   1 1567.69   26.15
   2   0  -1 1440.16   19.38
  -2   0   1 1574.64   15.63
  -2   0   1 1521.34   12.37
  -2   0   1 1516.46   12.40
  -2   0   1 1525.23   12.51
  -2   0   1 1540.29   12.69
   2   0  -1 1583.81   25.59
   2   0  -1 1468.23   14.42
   2   0  -1 1551.88   23.68
   2   0   0  523.07    4.91
  -2   0   0  447.72    3.88
  -2   0   0  521.50    3.98
   2   0   0  418.54    6.28
  -2   0   0  475.96    4.42
   2   0   0  478.51    4.28
   2   0   0  473.45    4.37
  -2   0   0  470.04    4.43
  -2   0   0  492.79    7.18
  -2   0   0  486.54    4.37
   2   0   0  488.18    6.19
   2   0   1  512.44    9.46
   2   0   1  510.73    6.51
  -2   0  -1  487.01   12.96
   2   0   1  528.07   10.00
   2   0   1  517.38    9.95
   2   0   1  514.07   10.40
   2   0   1  517.75   10.13
  -2   0  -1  478.95   14.24
  -2   0  -1  490.93   12.02
  -2   0  -1  507.09    6.09
   2   0   2   27.06    2.35
  -2   0  -2   23.12    4.66
   2   0   2   20.38    2.90
   2   0   2   21.47    3.01
   2   0   2   23.59    3.03
   2   0   2   24.40    3.17
   2   0   2   24.95    3.22
  -2   0  -2   26.78    1.77
  -2   0  -2   19.77    5.40
  -2   0  -2   18.74    3.56
  -2   0  -3   19.04    5.48
   2   0   3   21.08    3.52
   2   0   3   22.17    3.45
   2   0   3   22.68    3.62
   2   0   3   22.71    3.72
   2   0   3   19.99    3.42
  -2   0  -3   20.30    6.68
  -2   0  -3   13.44    4.05
  -2   0  -3   18.17    5.44
   2   0   4    0.07    1.20
   2   0   4   -1.38    1.52
   2   0   4   -0.39    1.52
   2   0   4   -1.07    1.53
  -2   0  -5   22.22    3.90
  -2   0  -5   31.88    6.09
   2   0   5   28.64    7.48
   2   0   5   31.87    3.68
  -2   0  -5   33.05    7.99
  -2  -1   5    8.41    1.66
  -2  -1   5    7.81    1.66
  -2  -1   4   28.95    3.35
  -2  -1   4   22.59    3.92
  -2  -1   4   25.13    3.81
   2   1  -3  209.40   15.14
   2   1  -3  216.83   17.85
   2   1  -3  209.21   18.99
   2   1  -2  454.29   16.91
  -2  -1   2  472.27    6.79
  -2  -1   2  477.16    8.46
  -2  -1   2  475.64    8.21
  -2  -1   2  485.25    8.18
   2   1  -2  479.91    8.46
  -2  -1   2  484.53    8.27
   2   1  -2  484.09   20.63
   2   1  -2  459.92   21.51
  -2  -1   1 1629.16   32.51
  -2  -1   1 2077.36   28.25
   2   1  -1 3233.25   28.42
   2   1  -1 3596.09   38.73
   2   1  -1 3226.22   37.62
   2   1  -1 3132.83   19.75
  -2  -1   0  209.89    3.26
   2   1   0  195.99    3.60
   2   1   0  170.34    4.26
  -2  -1   0  180.59    3.77
   2   1   0  210.80    4.35
   2   1   0  195.79    4.00
   2   1   0  193.77    3.88
  -2  -1   0  218.96    3.57
   2   1   0  182.26    3.64
  -2  -1   0  206.64    4.20
  -2  -1  -1   58.89    4.55
   2   1   1   59.95    3.03
   2   1   1   63.32    2.97
   2   1   1   60.33    4.04
   2   1   1   63.16    4.04
   2   1   1   62.04    3.92
   2   1   1   64.48    4.03
  -2  -1  -1   67.93    2.43
  -2  -1  -1   60.84    5.05
  -2  -1  -1   58.82    4.41
   2   1   1   58.64    3.89
  -2  -1  -2  299.72   14.69
   2   1   2  306.70    9.26
   2   1   2  313.73   11.55
   2   1   2  320.36   11.87
   2   1   2  324.80   11.51
   2   1   2  317.29   11.57
  -2  -1  -2  284.82   13.20
  -2  -1  -2  325.78    6.11
   2   1   2  303.02   11.58
  -2  -1  -2  297.25   13.25
  -2  -1  -2  289.33   16.37
  -2  -1  -3   60.29    8.78
   2   1   3   71.32    6.55
   2   1   3   73.78    6.89
   2   1   3   65.89    6.37
   2   1   3   70.47    6.63
   2   1   3   66.85    6.35
  -2  -1  -3   66.53    7.95
  -2  -1  -3   59.23    9.89
  -2  -1  -3   58.03    8.30
   2   1   4   10.74    3.65
   2   1   4   -0.21    7.68
   2   1   4    8.51    5.10
  -2  -1  -4   13.60    5.26
   2   1   4   10.32    3.52
   2   1   4    8.74    2.86
  -2  -1  -4   10.45    3.92
  -2  -1  -4   10.33    3.00
  -2  -1  -4   11.24    3.30
  -2  -1  -4   14.01    6.08
   2   1   4   11.40    3.23
  -2  -1  -5  351.82   20.28
   2   1   5  340.65   12.12
  -2  -1  -5  338.61   23.48
  -2  -2   5   -0.48    0.60
  -2  -2   5   -0.09    0.70
  -2  -2   4   42.33    5.73
  -2  -2   4   52.19    4.36
  -2  -2   4   49.81    4.96
   2   2  -3   18.71    4.80
  -2  -2   3   16.33    3.51
  -2  -2   3   14.45    2.31
  -2  -2   3   13.22    2.57
   2   2  -3    9.99    5.36
   2   2  -3   17.54    5.19
  -2  -2   2  192.65    4.40
   2   2  -2  162.58   10.48
   2   2  -2  162.61   13.01
   2   2  -2  190.24   14.78
   2   2  -2  172.97    8.06
  -2  -2   1    2.80    2.23
  -2  -2   1    5.69    2.39
  -2  -2   1    4.23    0.85
  -2  -2   1    7.78    0.87
   2   2  -1    6.55    1.64
   2   2  -1    6.35    1.20
   2   2   0   28.51    1.62
  -2  -2   0   32.98    1.84
   2   2   0   23.06    1.78
  -2  -2   0   28.20    1.60
   2   2   0   30.89    2.10
   2   2   0   32.00    2.22
   2   2   0   30.80    2.09
   2   2   0   30.70    2.13
   2   2   0   30.21    2.10
  -2  -2  -1  214.16    8.65
   2   2   1  214.99    5.46
   2   2   1  230.33    6.68
   2   2   1  241.93    8.49
   2   2   1  220.84    8.01
   2   2   1  226.79    8.42
   2   2   1  233.00    8.39
  -2  -2  -1  237.65    5.07
   2   2   1  231.25    8.41
  -2  -2  -1  248.08    9.27
  -2  -2  -1  240.31    8.97
  -2  -2  -2  528.57   19.50
   2   2   2  571.53   14.42
   2   2   2  576.40   16.68
   2   2   2  558.46   16.50
   2   2   2  572.25   16.50
   2   2   2  575.98   16.39
  -2  -2  -2  566.63   21.36
   2   2   2  548.74   16.44
  -2  -2  -2  538.11   18.09
  -2  -2  -2  556.90   16.19
   2   2   3   50.72    5.12
  -2  -2  -3   49.71    7.90
   2   2   3   42.63    5.46
   2   2   3   43.42    5.53
   2   2   3   45.47    5.58
   2   2   3   44.48    5.57
   2   2   3   45.61    5.73
  -2  -2  -3   44.38    6.50
  -2  -2  -3   47.54    8.48
  -2  -2  -3   52.17    6.99
  -2  -2  -4   14.65    3.83
  -2  -2  -4   10.19    3.73
   2   2   4   12.37    3.48
   2   2   4   16.35    4.42
   2   2   4   -2.31    8.93
   2   2   4   15.81    8.34
   2   2   4   19.92    5.67
   2   2   4   17.62    3.64
   2   2   4   15.24    3.46
   2   2   4   15.85    3.53
  -2  -2  -4   15.53    5.80
   2   2   4   12.58    3.45
   2   2   4   17.19    3.67
   2   2   5   70.46    6.01
  -2  -2  -5   63.55    6.14
  -2  -2  -5   75.39    9.69
   2   2   5   67.95    5.38
  -2  -2  -5   81.60   11.36
  -2  -2  -5   57.27    9.04
  -2  -3   5    5.69    1.27
  -2  -3   5    5.12    1.00
  -2  -3   4   36.90    3.58
  -2  -3   4   36.51    4.96
  -2  -3   4   37.20    4.06
  -2  -3   3    1.34    0.96
  -2  -3   3   -1.15    1.20
  -2  -3   3   -0.16    0.84
   2   3  -3   -0.34    3.14
   2   3  -3   -3.12    2.60
  -2  -3   2  104.41   10.88
   2   3  -2   82.40    7.84
   2   3  -2   95.06   11.42
   2   3  -2   92.52   10.48
  -2  -3   1   33.79    2.70
   2   3  -1   42.01    4.60
  -2  -3   1   30.88    4.83
   2   3  -1   37.31    3.81
  -2  -3   1   46.62    2.58
   2   3   0  132.50    3.81
  -2  -3   0  144.80    4.88
  -2  -3   0  157.15    4.25
   2   3   0  143.59    4.71
   2   3   0  140.09    4.68
   2   3   0  138.47    4.64
   2   3   0  148.44    4.86
   2   3   0  145.02    4.69
   2   3   0  139.06    4.71
   2   3   1   16.39    2.23
  -2  -3  -1   20.08    2.79
   2   3   1   17.55    1.56
   2   3   1   18.35    2.72
   2   3   1   18.42    2.64
   2   3   1   19.07    2.82
   2   3   1   17.12    2.65
  -2  -3  -1   16.59    2.67
  -2  -3  -1   17.70    2.71
   2   3   1   19.21    2.76
  -2  -3  -2  474.29   18.09
   2   3   2  486.26   15.06
   2   3   2  455.51   15.46
   2   3   2  462.03   15.99
   2   3   2  431.87   15.27
   2   3   2  462.38   15.63
   2   3   2  466.41   16.04
  -2  -3  -2  515.88   17.60
  -2  -3  -2  479.04   18.72
  -2  -3  -3   43.39    5.78
   2   3   3   37.84    5.44
   2   3   3   46.43    5.48
  -2  -3  -3   43.70    7.10
   2   3   3   42.40    6.53
  -2  -3  -3   56.29    6.64
   2   3   3   59.23    8.53
   2   3   3   42.67    5.60
   2   3   3   41.17    5.53
   2   3   3   41.98    5.62
   2   3   3   42.23    5.79
   2   3   3   40.84    5.51
   2   3   3   43.95    6.16
  -2  -3  -3   39.00    6.89
  -2  -3  -3   51.09    6.82
   2   3   4   -0.59    8.41
   2   3   4    4.27    3.79
  -2  -3  -4    4.03    2.35
   2   3   4    1.28    2.01
   2   3   4    3.30    2.14
  -2  -3  -4    1.53    1.51
  -2  -3  -4    0.86    3.72
   2   3   4    1.42    1.75
  -2  -3  -4   -0.64    3.28
   2   3   4    4.97    1.98
   2   3   5    5.59    1.91
  -2  -3  -5    6.07    1.68
  -2  -3  -5    3.80    1.60
  -2  -3  -5    4.56    3.09
   2   3   5    3.06    1.18
   2   3   5    4.27    1.59
  -2  -3  -5    2.12    3.00
  -2  -3  -5    4.98    3.13
  -2  -4   4   10.90    2.52
  -2  -4   4   11.68    1.88
  -2  -4   4   12.11    2.10
  -2  -4   3   23.47    3.05
  -2  -4   3   17.11    3.54
  -2  -4   3   18.41    2.89
   2   4  -3   16.15    6.67
   2   4  -3   27.97    8.18
   2   4  -2    1.98    2.06
  -2  -4   2    0.53    0.85
   2   4  -2   -0.12    1.94
   2   4  -2    1.14    2.54
   2   4  -1   37.84    3.54
  -2  -4   1   46.52    6.83
  -2  -4   1   33.56    3.23
  -2  -4   1   40.49    2.93
  -2  -4   0    1.53    0.68
   2   4   0    2.32    0.59
  -2  -4   0    1.78    0.88
   2   4   0    2.39    1.03
   2   4   1   -0.11    1.03
  -2  -4  -1   -0.04    0.57
   2   4   1    0.03    0.93
   2   4   1    0.31    0.85
   2   4   1   -0.16    0.98
   2   4   1   -0.68    1.04
   2   4   1   -0.27    0.92
   2   4   2   22.49    3.76
  -2  -4  -2   26.06    4.12
  -2  -4  -2   19.87    3.05
   2   4   2   17.85    3.34
   2   4   2   19.75    3.72
   2   4   2   20.46    3.63
   2   4   2   21.81    3.90
   2   4   2   22.06    3.80
  -2  -4  -2   20.89    4.10
   2   4   3   10.07    2.97
   2   4   3    6.63    2.70
  -2  -4  -3    7.73    3.04
  -2  -4  -3    8.26    2.63
   2   4   3   12.06    3.50
  -2  -4  -3    9.94    3.14
   2   4   3  -11.80    6.89
  -2  -4  -3    7.79    2.21
  -2  -4  -3    7.45    2.37
   2   4   3    9.45    3.93
   2   4   3    6.63    2.43
   2   4   3   10.29    3.08
  -2  -4  -3    8.55    2.00
   2   4   3   10.44    2.97
   2   4   3    9.26    2.91
   2   4   3   10.80    3.12
   2   4   3    7.39    2.64
  -2  -4  -3    8.64    1.94
  -2  -4  -3   11.48    5.27
  -2  -4  -3    5.96    2.75
   2   4   3    8.24    3.05
   2   4   3    8.59    2.60
   2   4   3   10.13    3.03
  -2  -4  -3   10.20    3.77
  -2  -4  -4    9.87    2.22
   2   4   4    7.58    4.29
   2   4   4    9.00    3.92
  -2  -4  -4    7.58    2.73
  -2  -4  -4   10.26    2.96
   2   4   4    8.80    2.68
  -2  -4  -4    8.61    1.79
  -2  -4  -4    2.74    3.68
  -2  -4  -4    2.09    3.54
   2   4   4    8.15    2.63
   2   4   4    5.00    2.85
  -2  -4  -5    0.14    2.12
  -2  -4  -5    1.95    1.20
   2   4   5   -0.82    1.60
  -2  -4  -5   -0.45    0.79
  -2  -4  -5    0.19    1.83
   2   4   5    0.69    1.24
  -2  -4  -5   -0.70    1.48
  -2  -5   4   40.91    3.04
  -2  -5   4   35.90    3.80
  -2  -5   4   43.58    3.18
  -2  -5   3   45.15    4.19
  -2  -5   3   46.93    5.36
  -2  -5   3   45.46    4.07
  -2  -5   2   -0.13    0.76
  -2  -5   2   -4.10    2.82
  -2  -5   2    1.41    1.06
  -2  -5   2   -0.46    1.04
  -2  -5   2   -0.52    1.23
   2   5  -2   -1.66    1.15
  -2  -5   2    0.00    0.81
   2   5  -2    4.31    2.94
  -2  -5   1   -0.01    2.32
   2   5  -1   -1.74    0.98
  -2  -5   0  114.87    8.88
  -2  -5   0  120.21    5.24
   2   5   0  101.61    6.47
   2   5   1    6.21    2.03
  -2  -5  -1    5.67    1.38
   2   5   1    6.75    1.78
   2   5   1    4.19    1.38
   2   5   1    5.87    1.62
   2   5   1    6.40    1.82
   2   5   2    5.33    2.26
  -2  -5  -2   11.26    2.57
  -2  -5  -2   12.64    2.97
  -2  -5  -2   10.07    2.58
  -2  -5  -2    8.75    2.02
   2   5   2    6.71    2.00
   2   5   2    7.53    2.12
   2   5   2    8.19    2.60
  -2  -5  -2    9.36    2.06
   2   5   2    8.99    2.47
  -2  -5  -2    9.60    1.79
   2   5   2    8.38    2.40
   2   5   3   86.32    8.98
  -2  -5  -3   82.49    8.42
   2   5   3   89.95   10.27
  -2  -5  -3  105.13    8.63
  -2  -5  -3   90.43    7.74
  -2  -5  -3   97.51   11.09
  -2  -5  -3   83.31    7.02
   2   5   3  130.58   13.16
  -2  -5  -3   86.16    7.15
   2   5   3   91.00    8.43
   2   5   3   90.34    8.62
  -2  -5  -3  110.39    7.20
   2   5   3   79.00    7.93
   2   5   3   83.93    8.14
   2   5   3   87.46    8.25
  -2  -5  -3  101.14   11.59
   2   5   3   90.33    9.30
  -2  -5  -3   95.09    5.93
   2   5   3   91.83    8.62
   2   5   4   70.00    5.34
  -2  -5  -4   72.89    6.66
   2   5   4   76.09    6.60
   2   5   4   73.66    8.97
  -2  -5  -4   77.08    9.66
  -2  -5  -4   77.09    5.71
   2   5   4   74.04    6.81
  -2  -5  -4   83.50    4.94
   2   5   4   80.12    8.41
   2   5   4   68.29    6.75
  -2  -5  -4   82.04   10.02
  -2  -5  -5   76.54    6.10
   2   5   5   58.53    5.25
  -2  -5  -5   70.90    4.51
   2   5   5   62.13    4.81
  -2  -5  -5   54.49    5.36
  -2  -6   4   58.15    2.69
  -2  -6   4   64.80    3.66
  -2  -6   3  469.64   11.62
  -2  -6   3  454.90   12.42
  -2  -6   3  456.60   14.39
  -2  -6   2   -0.29    0.80
  -2  -6   2   -0.30    0.86
  -2  -6   2    0.09    1.02
  -2  -6   2   -0.13    0.70
  -2  -6   2   -0.38    0.78
  -2  -6   2    0.07    1.47
   2   6  -1   16.92    3.22
  -2  -6   1   19.83    2.61
  -2  -6   1   14.96    2.61
  -2  -6   1   15.99    2.51
  -2  -6   1   16.14    2.72
  -2  -6   1   13.72    5.64
  -2  -6   0   20.99    4.61
  -2  -6   0   28.68    3.20
  -2  -6   0   24.18    2.93
  -2  -6   0   20.41    2.76
  -2  -6   0   25.58    3.37
   2   6   0   20.84    3.68
   2   6   0   27.85    3.16
  -2  -6  -1   69.99    4.90
  -2  -6  -1   72.40    5.31
  -2  -6  -1   74.39    4.99
  -2  -6  -1   61.52    5.51
  -2  -6  -1   68.90    5.56
   2   6   1   61.44    6.69
  -2  -6  -2  671.25   18.28
   2   6   2  595.62   23.53
  -2  -6  -2  572.37   18.16
  -2  -6  -2  658.47   16.97
   2   6   2  572.36   18.41
   2   6   2  571.58   18.51
   2   6   2  542.10   18.15
   2   6   2  560.84   18.22
  -2  -6  -2  660.95   15.41
   2   6   2  594.89   23.12
  -2  -6  -3  426.09   15.44
   2   6   3  391.42   21.25
  -2  -6  -3  386.95   14.92
   2   6   3  400.97   18.66
   2   6   3  381.84   17.72
  -2  -6  -3  414.00   12.28
   2   6   3  387.08   18.90
  -2  -6  -3  363.40   18.62
  -2  -6  -4    2.52    1.46
   2   6   4    2.50    2.36
   2   6   4    2.26    1.23
  -2  -6  -4    4.07    1.67
  -2  -6  -4    4.22    2.15
  -2  -6  -4    2.21    1.00
   2   6   4    3.21    1.85
   2   6   4    4.50    1.93
  -2  -6  -4    0.85    1.24
   2   6   4    3.38    1.88
  -2  -6  -5   13.22    1.60
   2   6   5   16.72    2.26
  -2  -7   3   -1.16    0.53
  -2  -7   3   83.03    4.65
  -2  -7   2  121.08    5.94
  -2  -7   2  106.31    6.18
  -2  -7   2   99.60    6.29
  -2  -7   2  110.71    5.75
  -2  -7   2   86.75    5.68
  -2  -7   1    1.26    1.31
  -2  -7   1    1.16    1.16
  -2  -7   1    1.13    1.07
  -2  -7   0   34.17    3.78
  -2  -7   0   35.45    4.08
  -2  -7   0   22.40    5.81
   2   7   0   35.13    5.35
  -2  -7  -1 1235.76   35.77
  -2  -7  -1 1236.04   22.15
  -2  -7  -1 1181.09   22.55
  -2  -7  -1 1103.90   22.78
  -2  -7  -1 1132.22   20.17
   2   7   1 1195.81   33.41
   2   7   1 1157.46   24.22
  -2  -7  -2  237.72   11.49
   2   7   2  263.32   17.36
  -2  -7  -2  253.16   11.45
  -2  -7  -3   14.66    2.73
   2   7   3   15.16    4.63
  -2  -7  -3   15.47    2.94
   2   7   3   13.81    3.86
   2   7   3    9.99    2.96
   2   7   3   19.04    4.21
   2   7   4   20.47    3.75
   2   7   4   20.29    2.50
  -2  -7  -4   23.84    2.89
  -2  -7  -4   21.30    2.42
   2   7   4   21.18    3.10
   2   7   4   19.53    3.03
   2   7   4   21.81    3.26
  -2  -8   2   81.32    4.50
  -2  -8   2   81.66    3.99
  -2  -8   1   13.81    2.52
  -2  -8   1   16.34    2.42
  -2  -8   0    4.36    1.71
  -2  -8   0    3.45    1.47
  -2  -8  -1   25.50    3.04
  -2  -8  -1   29.60    3.18
  -2  -8  -1   28.04    3.55
  -2  -8  -2    7.99    2.00
   2   8   2    2.23    1.87
   2   8   2    9.49    2.75
   2   8   3   46.24    5.76
  -2  -8  -3   40.47    3.94
  -2  -8  -3   44.37    3.96
   2   8   3   45.35    5.48
   2   8   3   49.07    5.43
   2   8   4    2.37    0.73
   2   8   4    3.42    1.16
  -2  -8  -4    2.39    0.66
   2   8   4    1.66    0.72
   2   8   4    3.16    1.11
  -2  -9   1    0.90    0.80
  -2  -9   1    0.67    0.64
  -2  -9   0    4.85    1.46
  -2  -9   0    5.87    1.42
  -2  -9  -1   10.80    1.59
  -2  -9  -1   11.95    1.95
   2   9   1    8.23    2.00
  -2  -9  -2   12.84    1.76
   2   9   2   10.53    2.28
   2   9   3   55.16    3.43
   2   9   3   68.51    3.92
  -2  -9  -3   73.02    3.50
   2   9   3   69.38    4.97
   2   9   3   70.95    4.69
  -2 -10   0    2.85    0.70
   2  10   1    1.95    0.90
  -3  10   1    0.51    0.60
  -3   9   3    0.22    0.46
  -3   9   3    0.41    0.58
   3  -9  -3   -0.01    0.37
  -3   9   3    0.02    0.86
  -3   9   3    0.68    0.55
  -3   9   3   -0.10    0.52
  -3   9   2   26.37    3.08
  -3   9   2   26.80    2.58
   3  -9  -2   28.16    2.41
  -3   9   2   22.32    3.53
   3  -9  -1   14.50    1.96
  -3   9   1    7.19    1.83
   3  -9   0   22.85    2.71
   3  -9   0   -0.55    1.89
   3  -9   1    1.19    1.50
  -3   8   4   11.67    1.25
  -3   8   4   12.99    1.50
   3  -8  -4   13.25    1.40
  -3   8   4   11.26    1.84
  -3   8   4   12.69    1.75
  -3   8   3   16.82    2.58
  -3   8   3   15.27    2.57
   3  -8  -3   19.03    2.41
  -3   8   3   14.06    2.97
   3  -8  -3   12.29    3.85
  -3   8   3   17.11    2.86
  -3   8   3   16.29    2.33
  -3   8   2    2.47    1.34
   3  -8  -2    0.64    0.79
  -3   8   2   -0.33    1.67
  -3   8   2    0.88    0.94
   3  -8  -1   73.25    5.24
   3  -8   0   21.75    3.18
   3  -8   1    8.68    1.94
   3  -8   1    2.03    2.42
  -3   7   4    0.23    0.56
  -3   7   4    0.36    1.02
  -3   7   4    0.62    0.69
   3  -7  -4    1.96    1.13
   3  -7  -4    0.32    0.56
   3  -7  -4    1.47    1.03
  -3   7   4   -0.22    1.31
   3  -7  -4   -0.19    1.49
   3  -7  -4    2.46    2.08
  -3   7   4    0.56    0.99
   3  -7  -3    0.51    1.22
  -3   7   3    1.54    1.57
   3  -7  -3    0.47    0.86
  -3   7   3   -0.37    1.87
   3  -7  -3    0.02    1.94
   3  -7  -3    0.37    2.25
  -3   7   3   -0.76    1.82
   3  -7  -2  246.07   11.98
   3  -7  -2  270.19   10.94
  -3   7   2  302.19   16.05
   3  -7  -2  257.75   19.34
  -3   7   2  260.12   13.40
   3  -7  -1    1.62    1.85
   3  -7  -1    3.12    1.69
   3  -7  -1    2.30    1.07
   3  -7  -1    2.55    1.15
   3  -7  -1    2.75    1.25
  -3   7   1    1.23    0.99
  -3   7   1    1.00    0.89
  -3   7   1    1.53    1.12
   3  -7   0   60.34    5.28
   3  -7   0   44.96    8.61
   3  -7   0   44.43    5.89
   3  -7   0   61.28    4.87
  -3   7   0   63.65    5.38
   3  -7   1   14.60    2.40
   3  -7   1   16.97    2.87
   3  -7   2    0.23    2.16
   3  -6  -5   20.34    2.45
  -3   6   5   22.10    1.99
   3  -6  -5   17.06    2.91
   3  -6  -4    1.12    1.16
  -3   6   4    1.07    0.78
  -3   6   4    0.25    0.89
  -3   6   4    1.70    1.68
   3  -6  -4    1.14    0.87
   3  -6  -4    1.17    1.68
  -3   6   4    0.29    1.49
   3  -6  -4    0.99    2.40
  -3   6   4    0.87    1.04
  -3   6   4    2.02    1.90
   3  -6  -4    3.76    2.56
  -3   6   3  146.00   11.34
  -3   6   3  140.39    8.60
   3  -6  -3  163.37    9.55
   3  -6  -3  167.11   11.92
   3  -6  -3  160.36    8.65
  -3   6   3  139.12   10.85
   3  -6  -3  159.19   13.82
   3  -6  -3  134.85   13.52
  -3   6   3  144.79   10.36
  -3   6   2   37.89    4.07
  -3   6   2   35.95    5.84
   3  -6  -2   40.14    4.75
   3  -6  -2   35.26    4.07
   3  -6  -2   48.77    4.59
   3  -6  -2   43.67    4.17
  -3   6   2   43.70    4.34
  -3   6   2   42.63    4.29
  -3   6   2   44.01    4.36
  -3   6   2   47.02    4.64
  -3   6   2   42.27    5.50
   3  -6  -2   43.08    7.54
   3  -6  -2   29.77    5.91
   3  -6  -1   83.67    5.79
   3  -6  -1   93.28    9.09
   3  -6  -1   75.49    4.98
   3  -6  -1   79.30    5.43
   3  -6  -1   78.39    5.42
  -3   6   1   84.19    5.60
  -3   6   1   74.81    7.53
   3  -6  -1   60.25    9.25
   3  -6   0   65.81    5.71
   3  -6   0   80.63    5.69
   3  -6   0   80.30    5.25
   3  -6   0   71.00    9.12
  -3   6   0   76.04    6.93
  -3   6   0   80.33    4.82
  -3   6   0   96.05    6.06
   3  -6   1   -6.71    3.81
   3  -6   1    0.62    0.95
   3  -6   1    0.44    0.93
   3  -6   1   -2.58    1.83
  -3   6  -1   -5.07    2.72
  -3   6  -1   -0.11    0.91
   3  -6   2    0.32    1.10
   3  -6   2    0.78    0.89
   3  -6   2    1.66    1.08
   3  -6   3  237.80   10.44
  -3   5   5  151.55    7.34
   3  -5  -5  137.83    5.71
   3  -5  -5  187.08    9.69
  -3   5   5  168.48    6.45
  -3   5   5  167.10    6.45
   3  -5  -5  146.03   10.28
   3  -5  -5  157.41   10.21
  -3   5   4  112.16    9.61
   3  -5  -4   88.85    8.35
  -3   5   4   83.42    5.32
   3  -5  -4  104.75    7.47
  -3   5   4   89.73    5.97
   3  -5  -4  116.29   10.88
   3  -5  -4  109.86    6.15
  -3   5   4   94.54    7.99
   3  -5  -4  102.85   12.39
  -3   5   4   99.08    7.87
   3  -5  -4  113.71   12.37
  -3   5   4   91.50    7.75
  -3   5   3  170.37   12.72
  -3   5   3  189.18    8.46
  -3   5   3  174.54   12.69
   3  -5  -3  209.40   10.79
  -3   5   3  169.55    9.24
   3  -5  -3  183.11    9.27
   3  -5  -3  207.07   14.80
   3  -5  -3  199.14    9.38
  -3   5   3  168.84   11.70
  -3   5   3  199.63   10.51
  -3   5   3  194.54   10.47
  -3   5   3  207.38   11.07
  -3   5   3  199.54   10.52
   3  -5  -3  200.89   10.45
   3  -5  -3  211.19   17.64
   3  -5  -3  220.98   17.07
   3  -5  -3  169.64   14.70
  -3   5   3  164.82   11.09
  -3   5   3  176.06   11.28
  -3   5   2   -0.91    1.77
   3  -5  -2    0.45    0.99
  -3   5   2    0.14    0.62
  -3   5   2   -1.65    3.66
   3  -5  -2    1.14    1.00
   3  -5  -2   -0.03    0.61
  -3   5   2   -1.73    1.07
  -3   5   2    0.25    0.86
   3  -5  -2   -0.17    0.89
  -3   5   2   -1.02    0.82
   3  -5  -2   -4.48    2.47
  -3   5   2   -0.77    1.44
   3  -5  -2    2.74    2.02
  -3   5   2   -0.35    0.72
  -3   5   1   30.99    3.17
  -3   5   1   24.36    5.26
  -3   5   1   25.45    3.98
   3  -5  -1   29.61    3.05
  -3   5   1   31.44    2.82
  -3   5   1   30.86    2.80
  -3   5   1   30.80    2.78
   3  -5  -1   30.07    2.66
   3  -5   0   26.07    3.02
   3  -5   0   20.94    4.28
  -3   5   0   29.61    3.75
  -3   5   0   27.16    2.56
  -3   5   0   29.63    3.02
  -3   5   0   34.52    5.87
   3  -5   1    1.55    1.55
   3  -5   1   -3.04    2.59
  -3   5  -1    3.88    2.89
  -3   5  -1    3.20    1.17
   3  -5   2  178.12   10.84
   3  -5   2  157.94    7.62
   3  -5   2  152.98    7.80
   3  -5   2  152.95    6.68
  -3   5  -2  138.34   14.25
  -3   5  -2  123.31   12.06
  -3   5  -2  145.01    7.23
   3  -5   3  524.39   18.82
   3  -5   3  466.95   12.22
   3  -5   4    4.64    1.52
   3  -5   4    1.48    0.53
  -3   4   5   87.75    6.44
   3  -4  -5   79.74    4.86
   3  -4  -5   64.59    6.36
   3  -4  -5  109.60    8.81
  -3   4   5   67.47    7.91
  -3   4   5   92.52    5.17
   3  -4  -5   78.60    9.00
  -3   4   5   95.10    5.22
   3  -4  -5  114.86   10.10
  -3   4   4  244.00   14.74
   3  -4  -4  243.68   12.05
   3  -4  -4  211.23   15.42
  -3   4   4  218.67    9.10
   3  -4  -4  298.27   19.35
   3  -4  -4  264.83    9.38
  -3   4   4  218.09   12.03
  -3   4   4  231.05   11.97
   3  -4  -4  293.00   22.77
   3  -4  -4  292.59   21.10
  -3   4   4  208.43   12.42
  -3   4   3    5.36    2.51
   3  -4  -3    8.15    3.33
   3  -4  -3    4.06    2.29
   3  -4  -3    8.28    2.36
  -3   4   3    4.81    1.82
  -3   4   3    5.00    2.25
  -3   4   3    5.82    1.37
   3  -4  -3    8.75    2.33
   3  -4  -3    5.94    1.70
   3  -4  -3    7.49    1.90
   3  -4  -3    6.87    3.27
   3  -4  -3    7.93    2.24
  -3   4   3    6.36    1.89
  -3   4   3    6.16    1.86
  -3   4   3    6.23    1.83
  -3   4   3    4.91    2.41
   3  -4  -3    0.36    2.87
   3  -4  -3    6.50    3.54
   3  -4  -3    8.01    4.16
  -3   4   3    6.95    2.44
  -3   4   3    6.00    1.98
  -3   4   3    6.41    2.27
  -3   4   2  253.66   18.40
  -3   4   2  276.24   13.20
  -3   4   2  270.04    8.90
   3  -4  -2  299.67    9.78
  -3   4   2  286.00   10.63
   3  -4  -2  282.20   10.31
  -3   4   2  270.76   10.75
  -3   4   2  281.59   10.56
  -3   4   2  287.67   10.74
   3  -4  -2  280.07   11.51
   3  -4  -2  276.13   15.90
  -3   4   1    0.59    0.65
  -3   4   1    0.81    1.31
  -3   4   1   -0.17    2.23
   3  -4  -1    0.45    0.68
  -3   4   1    1.02    0.75
  -3   4   1    0.85    0.63
   3  -4  -1    0.49    0.66
  -3   4   1    1.27    0.77
   3  -4  -1   -0.25    1.02
  -3   4   1    1.27    0.76
  -3   4   0 4443.20   28.46
  -3   4   0 4588.25   37.71
   3  -4   0 4696.50   49.99
   3  -4   0 4444.21   32.32
  -3   4   0 4418.33   21.95
  -3   4   0 4564.92   22.55
   3  -4   0 4228.62   20.39
   3  -4   0 4242.59   20.63
  -3   4   0 4494.80   22.58
  -3   4   0 4445.55   53.86
   3  -4   1   11.90    2.54
   3  -4   1    9.21    3.28
  -3   4  -1   13.48    3.75
  -3   4  -1   16.39    1.49
  -3   4  -1   17.10    2.07
   3  -4   2  254.77    9.31
  -3   4  -2  276.43   18.64
  -3   4  -2  277.11    8.94
  -3   4  -2  270.27   16.84
   3  -4   3   60.24    6.91
   3  -4   3   57.87    5.12
   3  -4   4   10.12    2.67
   3  -4   4   12.59    2.10
   3  -3  -5   18.73    4.41
  -3   3   5   28.08    6.05
   3  -3  -5   15.33    2.35
   3  -3  -5   11.57    3.76
  -3   3   5   14.42    2.92
   3  -3  -5   14.81    4.85
  -3   3   5   19.83    2.45
   3  -3  -5   18.09    4.74
   3  -3  -4   13.35    2.80
  -3   3   4    3.98    2.37
   3  -3  -4    5.09    2.00
   3  -3  -4    8.14    4.45
  -3   3   4    7.02    2.35
  -3   3   4    4.78    2.08
   3  -3  -4    5.11    4.62
  -3   3   4    6.83    2.53
   3  -3  -4   13.28    5.82
   3  -3  -3  204.02   13.75
  -3   3   3  187.88   12.58
  -3   3   3  191.01    6.87
  -3   3   3  188.12   11.49
   3  -3  -3  180.02    8.31
   3  -3  -3  213.47   16.34
   3  -3  -3  211.77   15.23
  -3   3   3  198.50   10.08
   3  -3  -3  183.56    9.72
  -3   3   3  187.01   10.07
  -3   3   3  188.86    9.90
  -3   3   3  187.55    9.97
  -3   3   3  145.10    9.70
   3  -3  -3  268.46   22.02
   3  -3  -3  194.66   15.98
  -3   3   3  178.15   11.06
   3  -3  -3  170.95   12.11
  -3   3   3  170.94    9.96
   3  -3  -3  256.53   19.69
  -3   3   2    2.10    3.46
  -3   3   2    2.10    1.61
  -3   3   2    2.44    0.93
   3  -3  -2    1.55    1.52
   3  -3  -2    2.18    0.99
   3  -3  -2    0.72    1.05
  -3   3   2    2.51    1.24
   3  -3  -2    1.79    1.10
  -3   3   2    1.54    1.06
  -3   3   2    2.53    1.19
  -3   3   2    2.15    1.09
   3  -3  -2    1.80    1.56
   3  -3  -2    2.51    2.14
  -3   3   1  301.83    7.41
  -3   3   1  313.91   10.41
  -3   3   1  319.02   15.19
   3  -3  -1  253.10    5.35
   3  -3  -1  379.20    8.17
  -3   3   1  347.85    8.62
  -3   3   1  325.39    8.44
  -3   3   1  338.40    8.68
   3  -3  -1  319.64    7.96
  -3   3   1  342.01    8.54
   3  -3  -1  274.65   12.37
   3  -3  -1  311.69   10.01
  -3   3   0    8.13    2.66
  -3   3   0    7.14    1.39
  -3   3   0    7.74    1.10
   3  -3   0    7.27    1.23
   3  -3   0    7.03    2.21
   3  -3   0    7.13    0.83
  -3   3   0    7.85    0.91
  -3   3   0    7.04    0.88
   3  -3   0    7.68    0.87
  -3   3   0    8.03    0.92
   3  -3   1  655.29   16.34
   3  -3   1 1006.71   31.07
   3  -3   1  707.23   23.19
  -3   3  -1  861.62   10.88
  -3   3  -1  980.43    9.77
  -3   3  -1  843.51   12.16
  -3   3  -1  753.58   22.54
  -3   3  -2    2.60    2.28
  -3   3  -2    1.31    0.66
  -3   3  -2    1.99    2.51
  -3   3  -3   16.18    6.11
   3  -3   3   14.60    9.78
   3  -3   3   14.29    3.73
   3  -3   3   11.23    2.38
  -3   3  -3    6.82    4.19
  -3   3  -3    3.98    2.13
  -3   3  -3    9.76    5.43
   3  -3   4    0.37    1.40
   3  -3   4    1.30    1.25
   3  -3   5  181.64    6.50
   3  -3   5  177.29    5.05
   3  -2  -5  137.78   11.08
   3  -2  -5  137.83   13.10
   3  -2  -5  110.80   13.27
   3  -2  -4    9.79    2.88
  -3   2   4   14.33    3.81
   3  -2  -4   13.56    4.45
   3  -2  -4   10.72    4.78
   3  -2  -4    5.37    3.71
  -3   2   4   15.62    3.16
  -3   2   4   12.19    2.50
  -3   2   4   13.33    2.66
   3  -2  -4    8.95    2.36
  -3   2   4   13.63    2.68
  -3   2   4   13.45    2.63
   3  -2  -4   10.94    5.06
  -3   2   4   12.00    2.69
   3  -2  -4   12.94    5.70
  -3   2   4   10.56    3.01
   3  -2  -4   16.91    7.69
   3  -2  -4    7.55    3.23
  -3   2   3  141.67    9.14
   3  -2  -3  138.31   11.63
   3  -2  -3  133.04    6.95
  -3   2   3  143.96    8.01
  -3   2   3  148.19    8.14
  -3   2   3  153.22    8.31
  -3   2   3  147.77    8.29
   3  -2  -3  144.01    8.10
   3  -2  -3  144.59   14.20
   3  -2  -3  129.92   11.72
  -3   2   2  135.12    7.65
  -3   2   2  138.35    4.80
  -3   2   2  134.95   12.39
   3  -2  -2  146.71    9.40
   3  -2  -2  133.62    5.64
  -3   2   2  145.59    6.75
  -3   2   2  147.34    6.88
  -3   2   2  136.21    6.63
  -3   2   2  149.55    6.84
   3  -2  -2  139.02   11.05
   3  -2  -2  119.61    8.56
  -3   2   1    0.83    2.14
  -3   2   1    0.60    0.50
   3  -2  -1    1.44    1.30
   3  -2  -1    1.11    0.57
   3  -2  -1    1.51    1.08
   3  -2  -1    1.12    0.31
  -3   2   1    0.85    0.67
   3  -2  -1    0.65    0.63
  -3   2   1    0.78    0.72
  -3   2   1    0.89    0.69
  -3   2   1    0.77    0.65
   3  -2  -1    1.44    1.89
   3  -2  -1    0.93    1.14
  -3   2   0  118.34    4.15
  -3   2   0  142.81    3.60
   3  -2   0  155.86    5.12
   3  -2   0  155.56    6.04
   3  -2   0  148.49    4.24
   3  -2   0  136.62    3.14
  -3   2   0  139.68    3.25
   3  -2   0  139.96    3.14
  -3   2   0  144.31    3.28
  -3   2   0  142.79    3.29
  -3   2   0  130.30    6.96
  -3   2   0  136.60    3.72
  -3   2  -1    0.84    0.41
  -3   2  -1    0.81    0.40
   3  -2   1    1.15    1.21
   3  -2   1    1.64    2.40
   3  -2   1    1.37    1.00
   3  -2   1    1.46    1.00
   3  -2   1    1.45    0.89
  -3   2  -1    3.75    1.19
   3  -2   1    0.99    0.95
  -3   2  -1    2.67    0.84
  -3   2  -2  110.82   10.45
  -3   2  -2  105.90    9.10
  -3   2  -2   99.11    4.23
  -3   2  -3   65.35   10.02
   3  -2   3   93.94    9.08
   3  -2   3   79.85   17.26
   3  -2   3   87.05    7.22
  -3   2  -3   67.10   12.17
  -3   2  -3   58.55    8.19
  -3   2  -3   74.16   11.77
   3  -2   4    1.41    1.48
   3  -2   4    1.49    1.73
   3  -2   5   22.65    2.76
   3  -2   5   24.19    2.53
  -3   1   5    5.57    4.56
   3  -1  -5    3.16    2.06
  -3   1   5    2.55    1.01
   3  -1  -5    1.64    4.65
   3  -1  -5    3.96    3.12
   3  -1  -4    6.81    3.56
   3  -1  -4    4.31    2.11
  -3   1   4    3.88    2.40
   3  -1  -4   10.58    4.91
  -3   1   4    1.14    4.27
  -3   1   4    4.39    1.65
  -3   1   4    6.96    2.12
  -3   1   4    2.85    1.86
   3  -1  -4   -0.85    1.94
   3  -1  -4    4.74    4.87
   3  -1  -4    6.59    5.52
  -3   1   4    3.06    1.31
   3  -1  -3    2.57    2.37
   3  -1  -3    1.06    0.66
  -3   1   3    3.36    2.94
  -3   1   3    1.50    1.09
  -3   1   3    2.30    1.22
  -3   1   3    0.90    1.04
   3  -1  -3    0.57    0.81
  -3   1   3    0.65    0.95
   3  -1  -3   -0.52    1.95
   3  -1  -3    3.54    3.82
  -3   1   2   44.20    4.10
  -3   1   2   50.19    2.26
   3  -1  -2   45.39    5.38
   3  -1  -2   38.58    2.85
  -3   1   2   52.50    3.69
  -3   1   2   52.64    3.71
  -3   1   2   51.55    3.77
  -3   1   2   54.97    3.81
   3  -1  -2   46.79    6.03
   3  -1  -2   52.84    4.31
   3  -1  -2   49.33    7.03
  -3   1   1    3.52    0.59
  -3   1   1    5.53    2.78
   3  -1  -1    3.55    1.50
  -3   1   1    3.85    1.19
   3  -1  -1    2.98    0.62
   3  -1  -1    2.97    1.56
  -3   1   1    4.07    0.94
  -3   1   1    3.84    0.91
  -3   1   1    4.03    0.94
   3  -1  -1    3.74    0.88
   3  -1  -1    2.12    1.85
   3  -1  -1    3.17    1.61
  -3   1   1    3.36    0.41
  -3   1   1    3.90    0.92
  -3   1   0    7.93    0.89
  -3   1   0    6.97    1.78
   3  -1   0    6.61    0.79
  -3   1   0    7.90    0.73
   3  -1   0    7.99    1.21
   3  -1   0    8.42    0.96
   3  -1   0    8.61    1.22
  -3   1   0    8.18    0.77
  -3   1   0    8.61    0.76
   3  -1   0    8.98    0.78
   3  -1   0    8.10    0.72
  -3   1   0    8.14    0.76
  -3   1   0   16.20    1.10
   3  -1   0   14.31    1.75
  -3   1  -1   94.11    2.67
   3  -1   1   87.05    4.34
   3  -1   1   87.83    4.26
   3  -1   1   85.12    4.08
   3  -1   1   89.35    4.05
  -3   1  -1   86.04    4.17
  -3   1  -1   82.97    2.93
  -3   1  -1   85.36    5.65
  -3   1  -2 1114.78   30.39
   3  -1   2 1152.77   20.62
   3  -1   2 1204.08   20.41
   3  -1   2 1175.62   20.35
   3  -1   2 1155.00   20.34
   3  -1   2 1144.30   20.50
  -3   1  -2 1051.85   26.53
  -3   1  -2 1113.36   35.84
  -3   1  -2 1081.79   13.02
   3  -1   3    9.59    2.85
   3  -1   3    1.61    4.47
  -3   1  -3   11.19    4.51
  -3   1  -3    8.50    4.14
  -3   1  -3   10.43    5.39
  -3   1  -3    9.04    3.73
   3  -1   4    1.80    1.83
   3  -1   4    9.85    9.79
   3  -1   4    0.92    1.41
  -3   1  -5   14.27    3.01
   3  -1   5   23.31    3.00
  -3   1  -5   13.49    3.42
   3  -1   5   24.18    6.78
   3  -1   5   26.36    3.10
  -3   0   5    0.93    2.55
  -3   0   5    0.65    0.82
   3   0  -5    0.18    2.23
   3   0  -5    0.02    4.17
   3   0  -4   13.16    4.48
  -3   0   4    5.24    2.52
   3   0  -4    8.09    3.84
  -3   0   4    9.30    2.36
   3   0  -4   21.76    7.41
   3   0  -4   15.02    5.45
   3   0  -3    6.48    3.19
  -3   0   3    0.67    2.27
   3   0  -3    7.03    1.54
  -3   0   3    9.00    1.71
  -3   0   3    7.35    1.70
  -3   0   3    7.72    1.61
  -3   0   3    7.89    1.66
   3   0  -3    6.39    3.47
   3   0  -3    4.82    3.59
   3   0  -2   22.33    3.97
  -3   0   2   24.47    2.25
  -3   0   2   23.92    2.18
  -3   0   2   24.28    2.27
   3   0  -2   25.52    2.29
  -3   0   2   24.09    2.19
   3   0  -2   25.24    5.58
   3   0  -2   15.47    3.94
   3   0  -2   24.73    2.79
  -3   0   1 9902.02   67.27
   3   0  -1 9999.00   63.22
   3   0   0  382.50    5.19
  -3   0   0  373.90    4.38
  -3   0   0  368.43    4.09
   3   0   0  326.64    6.66
  -3   0   0  364.45    4.86
   3   0   0  360.31    4.69
  -3   0   0  361.33    4.88
   3   0   0  354.77    4.79
   3   0   0  361.02    6.52
  -3   0   0  401.38    7.85
  -3   0   0  361.75    4.67
   3   0   1   33.35    2.65
  -3   0  -1   29.76    1.30
  -3   0  -1   36.07    3.90
   3   0   1   30.56    1.48
   3   0   1   32.16    2.78
  -3   0  -1   29.99    2.76
   3   0   1   30.13    2.85
   3   0   1   31.38    2.82
   3   0   1   33.56    3.01
  -3   0  -1   35.82    1.88
  -3   0  -1   26.01    3.24
  -3   0  -2   21.96    4.66
   3   0   2   17.12    2.90
   3   0   2   18.31    2.91
   3   0   2   17.14    2.87
   3   0   2   18.54    3.11
  -3   0  -2   11.73    4.20
  -3   0  -2   18.67    3.84
  -3   0  -2   19.28    1.71
   3   0   2   18.66    3.01
  -3   0  -3   77.33   10.32
   3   0   3   76.15    6.89
   3   0   3   82.50    6.93
   3   0   3   71.01    6.76
   3   0   3   80.90    6.89
   3   0   3   77.13    6.79
  -3   0  -3   70.95    8.71
  -3   0  -3   75.37   11.65
  -3   0  -3   76.86    9.98
   3   0   4   16.45    3.76
   3   0   4   15.26   10.76
   3   0   4    9.08    3.03
   3   0   4   20.35    3.92
  -3   0  -4   15.39    3.63
   3   0   4   10.92    2.89
  -3   0  -5   51.82    5.80
   3   0   5   59.61   11.29
   3   0   5   74.84    5.55
  -3  -1   5    9.93    3.46
  -3  -1   5    6.34    1.42
   3   1  -5    5.71    2.47
  -3  -1   4   35.19    4.67
  -3  -1   4   43.68    4.23
  -3  -1   4   37.16    4.29
  -3  -1   3    2.18    3.18
   3   1  -3    5.85    2.60
   3   1  -3    9.02    4.24
   3   1  -3    8.31    4.91
  -3  -1   2  392.95    6.74
   3   1  -2  385.57   15.02
   3   1  -2  447.15    7.74
  -3  -1   2  451.75    7.46
  -3  -1   2  445.70    7.82
  -3  -1   2  433.78    7.30
  -3  -1   2  435.31    7.34
   3   1  -2  376.79   10.13
   3   1  -2  416.71   20.22
   3   1  -2  377.56   18.13
   3   1  -1 4683.33   31.72
   3   1  -1 4597.93   44.97
  -3  -1   0    2.46    0.49
  -3  -1   0    1.79    0.58
  -3  -1   0    5.03    0.58
   3   1   0    1.75    0.54
   3   1   0    4.12    0.99
   3   1   0    2.20    0.70
   3   1   0    2.49    0.77
   3   1   0    2.25    0.67
  -3  -1   0    1.92    0.63
  -3  -1   0    1.86    0.74
  -3  -1   0    2.02    0.54
   3   1   0    1.99    0.57
  -3  -1  -1   37.41    3.87
   3   1   1   38.45    2.31
   3   1   1   38.86    2.64
  -3  -1  -1   41.50    2.14
   3   1   1   39.37    3.48
   3   1   1   39.88    3.58
   3   1   1   39.42    3.41
   3   1   1   40.85    3.49
  -3  -1  -1   31.32    3.57
  -3  -1  -1   32.26    3.87
  -3  -1  -1   45.49    2.25
   3   1   2  143.15    6.15
  -3  -1  -2  126.67    9.89
   3   1   2  126.38    7.64
   3   1   2  128.72    7.89
   3   1   2  128.28    7.55
   3   1   2  122.45    7.60
   3   1   2  118.42    7.54
  -3  -1  -2  135.66    4.38
  -3  -1  -2  122.53    9.03
  -3  -1  -2  125.12   10.81
  -3  -1  -2  109.84    8.43
  -3  -1  -3   69.29    9.56
   3   1   3   71.90    7.12
   3   1   3   61.99    6.65
   3   1   3   75.31    7.15
   3   1   3   67.14    6.73
   3   1   3   67.29    6.83
  -3  -1  -3   71.37   10.80
  -3  -1  -3   67.68    8.37
  -3  -1  -3   60.74    8.31
   3   1   4   35.76    6.62
   3   1   4   28.54    5.12
   3   1   4   28.20    5.03
  -3  -1  -4   29.18    5.20
  -3  -1  -4   23.68    5.16
   3   1   4   29.06    4.90
  -3  -1  -5   48.92    5.62
   3   1   5   47.55   11.61
   3   1   5   59.27    5.15
  -3  -1  -5   59.65   10.28
  -3  -2   5    1.48    0.73
  -3  -2   5    0.15    0.82
  -3  -2   5    1.49    0.80
   3   2  -5    3.92    3.82
  -3  -2   4  274.40    9.95
  -3  -2   4  244.94   10.53
  -3  -2   3   38.32    5.18
  -3  -2   3   39.50    3.89
  -3  -2   3   38.38    4.17
   3   2  -3   36.36    8.03
   3   2  -3   33.49    7.95
  -3  -2   2    0.51    1.89
  -3  -2   2    0.33    0.36
   3   2  -2    1.34    2.04
   3   2  -2   -0.75    1.95
  -3  -2   1   83.74    2.89
   3   2  -1   68.48    3.95
   3   2  -1   83.76    6.58
   3   2  -1   79.50    2.12
  -3  -2   1   72.46    1.96
   3   2  -1   79.61    2.30
   3   2  -1   76.12    2.14
   3   2  -1   79.19    6.46
   3   2  -1   73.37    6.41
   3   2  -1   68.62    2.75
  -3  -2   0  294.27    5.59
   3   2   0  257.32    5.16
  -3  -2   0  232.06    4.77
   3   2   0  204.98    5.84
   3   2   0  276.31    7.02
  -3  -2   0  287.87    6.68
   3   2   0  268.15    6.81
   3   2   0  273.13    6.76
   3   2   0  256.98    6.94
   3   2   0  233.03    5.02
   3   2   1  116.75    4.43
  -3  -2  -1  116.31    6.55
   3   2   1  121.06    4.79
  -3  -2  -1  120.78    4.45
   3   2   1  121.22    6.61
   3   2   1  121.07    6.49
   3   2   1  124.58    6.44
   3   2   1  129.82    6.60
  -3  -2  -1  111.00    2.46
   3   2   1  121.25    6.43
  -3  -2  -1  130.67    6.61
  -3  -2  -1  131.81    7.04
  -3  -2  -2  546.67   20.25
   3   2   2  699.08   15.87
   3   2   2  630.78   18.19
   3   2   2  637.77   18.04
   3   2   2  644.84   18.41
   3   2   2  647.38   18.74
  -3  -2  -2  598.80   21.93
  -3  -2  -2  596.68   16.95
   3   2   2  620.04   18.35
  -3  -2  -2  607.88   19.84
  -3  -2  -3    4.05    3.11
   3   2   3    4.57    2.25
   3   2   3    4.51    2.29
   3   2   3    3.10    2.02
   3   2   3    5.23    2.35
  -3  -2  -3    2.02    2.49
  -3  -2  -3    4.39    2.54
   3   2   3    4.09    2.13
  -3  -2  -4  504.95   20.67
   3   2   4  480.75   19.77
   3   2   4  510.98   21.74
  -3  -2  -4  466.49   20.89
   3   2   4  441.09   18.98
   3   2   4  460.49   19.63
  -3  -2  -5    9.97    2.11
   3   2   5    8.72    2.17
  -3  -2  -5    6.68    2.21
   3   2   5    7.95    6.96
  -3  -2  -5    8.36    3.66
   3   2   5    9.24    2.14
  -3  -2  -5    6.18    3.62
  -3  -2  -5    2.53    2.87
  -3  -3   5    8.11    1.35
  -3  -3   5    7.74    1.22
  -3  -3   4   10.16    2.07
  -3  -3   4    8.89    2.62
  -3  -3   4    9.56    2.19
   3   3  -3   -5.19    3.36
  -3  -3   3    2.73    1.72
  -3  -3   3   -3.75    2.93
  -3  -3   3    0.70    0.86
  -3  -3   3    2.35    1.26
   3   3  -3   -4.20    3.88
   3   3  -3   -1.10    2.27
   3   3  -2   55.95    7.76
   3   3  -2   51.40    8.54
   3   3  -2   45.90    7.46
  -3  -3   1    2.22    0.81
  -3  -3   1   -0.08    1.61
   3   3  -1    3.71    1.55
  -3  -3   1    4.74    0.95
   3   3  -1    3.68    2.36
   3   3  -1    4.93    2.31
  -3  -3   0   14.25    1.63
   3   3   0   13.15    1.34
  -3  -3   0   16.32    1.43
   3   3   0   13.56    1.62
   3   3   0   15.83    1.97
   3   3   0   15.75    1.91
   3   3   0   15.50    1.88
   3   3   0   14.18    1.75
   3   3   0   12.92    1.62
   3   3   0   15.63    1.95
   3   3   1  186.66    5.63
   3   3   1  206.31    7.41
  -3  -3  -1  198.63    8.13
  -3  -3  -1  191.09    6.60
   3   3   1  199.27    8.87
   3   3   1  203.03    9.04
   3   3   1  202.35    8.94
   3   3   1  196.59    8.67
  -3  -3  -1  227.16    9.37
  -3  -3  -1  177.60    7.61
   3   3   1  194.43    8.81
   3   3   2   23.32    3.40
  -3  -3  -2   24.66    4.42
   3   3   2   26.62    4.22
   3   3   2   22.19    3.71
   3   3   2   26.27    4.12
   3   3   2   22.52    3.78
  -3  -3  -2   11.27    3.28
  -3  -3  -2   26.54    4.35
   3   3   2   22.73    3.92
   3   3   3  159.50   11.47
  -3  -3  -3  164.65   11.39
   3   3   3  172.44   13.14
   3   3   3  164.42   10.18
   3   3   3  159.67   11.12
  -3  -3  -3  161.41   13.52
  -3  -3  -3  177.62   11.91
   3   3   3  197.32   16.27
   3   3   3  124.64   19.61
  -3  -3  -3  167.79    9.31
   3   3   3  156.78   11.08
   3   3   3  162.00   11.42
   3   3   3  159.70   11.50
  -3  -3  -3  179.29    9.01
   3   3   3  165.94   11.54
   3   3   3  165.62   11.41
  -3  -3  -3  174.37   14.43
  -3  -3  -3  166.81    7.80
   3   3   3  165.52   11.97
   3   3   3  159.87   10.92
  -3  -3  -3  182.83   13.02
   3   3   3  164.53   10.04
   3   3   4    3.96    7.67
   3   3   4    3.89    3.10
   3   3   4    5.04    2.27
  -3  -3  -4   10.88    3.47
   3   3   4    2.37    2.53
  -3  -3  -4    3.70    2.34
  -3  -3  -4    5.68    1.54
  -3  -3  -4    5.33    4.46
   3   3   4    6.04    2.81
  -3  -3  -4    6.02    4.75
   3   3   4    6.90    2.86
   3   3   5    5.24    1.96
  -3  -3  -5    6.59    1.74
  -3  -3  -5    5.66    2.08
  -3  -3  -5    7.03    3.50
   3   3   5    4.40    1.38
   3   3   5    5.34    1.88
  -3  -3  -5    0.71    1.65
  -3  -3  -5    7.89    3.60
  -3  -4   4    1.41    0.99
  -3  -4   4   -0.08    1.21
  -3  -4   4    0.41    0.81
  -3  -4   3  140.46    9.57
  -3  -4   3  143.95    7.62
   3   4  -2   38.70    4.73
  -3  -4   2   59.25    4.42
  -3  -4   2   61.61    5.76
   3   4  -2   52.09    6.96
  -3  -4   2   51.78    4.15
   3   4  -2   43.42    7.90
   3   4  -2   46.60    8.43
  -3  -4   1    4.61    2.57
   3   4  -1    1.71    1.02
   3   4  -1    4.30    1.38
  -3  -4   1    6.46    1.31
   3   4  -1    1.71    2.11
  -3  -4   0   27.26    2.69
   3   4   0   29.27    2.12
   3   4   0   32.33    3.04
  -3  -4   0   30.83    2.20
   3   4   1  242.32    9.51
  -3  -4  -1  194.27    7.41
   3   4   1  227.23    9.92
   3   4   1  217.90    9.62
   3   4   1  230.82   10.04
   3   4   1  236.38   10.27
   3   4   1  232.59   10.20
  -3  -4  -2   17.92    3.46
   3   4   2   18.59    3.44
  -3  -4  -2   17.06    2.84
   3   4   2   16.96    3.49
   3   4   2   18.02    3.60
   3   4   2   19.34    3.83
   3   4   2   15.53    3.42
   3   4   2   15.82    3.44
  -3  -4  -2   17.43    3.67
   3   4   3   84.55    8.27
   3   4   3   87.73    8.47
  -3  -4  -3   96.18    8.43
  -3  -4  -3   88.92    9.62
   3   4   3   87.08    8.37
   3   4   3   97.35   10.45
  -3  -4  -3  108.76    9.25
  -3  -4  -3   88.40    7.16
   3   4   3  108.68   12.25
  -3  -4  -3   76.53    7.01
   3   4   3   89.99    8.68
   3   4   3   92.77    9.09
   3   4   3   88.18    7.90
   3   4   3   97.10    8.89
  -3  -4  -3  116.25    7.39
   3   4   3   94.78    8.87
   3   4   3   88.29    8.56
   3   4   3   93.48    8.47
  -3  -4  -3   99.85    6.07
  -3  -4  -3  115.71   13.67
   3   4   3  101.56    9.80
   3   4   3   99.40    8.57
  -3  -4  -4    5.64    2.49
   3   4   4    7.47    3.53
  -3  -4  -4    9.30    3.00
   3   4   4    8.58    2.77
   3   4   4    9.79    4.56
  -3  -4  -4    9.89    2.14
   3   4   4    0.85    6.72
  -3  -4  -4    9.98    2.07
  -3  -4  -4   -0.78    3.42
   3   4   4    6.64    2.55
  -3  -4  -4    5.28    3.98
  -3  -4  -4    7.58    1.70
   3   4   4    8.16    2.39
   3   4   4    7.40    3.26
  -3  -4  -5    1.46    1.75
  -3  -4  -5    2.53    1.15
  -3  -4  -5    1.33    0.98
   3   4   5    1.22    1.64
   3   4   5    1.51    1.21
  -3  -4  -5   -0.74    2.16
  -3  -5   4  247.42    7.53
  -3  -5   4  242.54    9.29
  -3  -5   3    1.66    1.12
  -3  -5   3    1.11    0.92
  -3  -5   3    0.61    1.18
  -3  -5   2  950.84   17.83
  -3  -5   2 1063.33   20.13
  -3  -5   2  999.66   19.10
  -3  -5   2 1064.93   18.87
  -3  -5   2  965.09   23.01
   3   5  -1    9.71    2.08
   3   5  -1    9.00    1.73
  -3  -5   1    8.53    1.69
  -3  -5   1   13.82    4.61
   3   5   0   18.07    2.85
  -3  -5   0   21.03    2.19
  -3  -5   0   20.00    3.99
   3   5   1   53.01    5.32
  -3  -5  -1   48.13    3.83
   3   5   1   48.91    4.63
   3   5   1   48.15    4.80
   3   5   1   43.97    4.38
   3   5   1   48.45    4.65
   3   5   1   42.49    4.30
  -3  -5  -2  487.85   15.53
   3   5   2  451.84   18.47
  -3  -5  -2  616.64   18.98
  -3  -5  -2  419.93   13.81
  -3  -5  -2  430.24   15.63
   3   5   2  473.61   18.46
   3   5   2  459.51   17.49
   3   5   2  456.05   17.52
   3   5   2  451.86   17.62
   3   5   2  444.59   17.27
  -3  -5  -2  594.05   15.91
  -3  -5  -2  508.47   12.98
   3   5   2  476.00   20.24
   3   5   3  281.98   14.68
   3   5   3  316.10   19.33
  -3  -5  -3  262.11   14.75
   3   5   3  266.78   15.93
  -3  -5  -3  331.01   15.56
  -3  -5  -3  289.95   13.70
   3   5   3  383.77   22.52
  -3  -5  -3  281.03   19.03
  -3  -5  -3  256.05   12.40
  -3  -5  -3  266.85   12.85
   3   5   3  286.12   15.40
  -3  -5  -3  346.45   12.86
   3   5   3  275.54   15.18
   3   5   3  282.13   15.90
   3   5   3  270.30   14.92
   3   5   3  285.86   15.52
  -3  -5  -3  313.52   10.79
   3   5   3  294.92   17.07
  -3  -5  -3  335.91   20.02
   3   5   3  293.55   15.39
   3   5   4  452.87   22.55
  -3  -5  -4  269.80   10.61
  -3  -5  -4  284.29   18.21
   3   5   4  256.93    9.96
   3   5   4  250.89   12.32
  -3  -5  -4  400.99   15.78
   3   5   4  269.16   16.83
  -3  -5  -4  297.99   13.09
  -3  -5  -4  313.80    9.64
   3   5   4  278.60   13.24
   3   5   4  289.32   15.80
  -3  -5  -4  290.80   17.99
  -3  -5  -5    0.86    1.11
  -3  -5  -5    1.84    0.80
   3   5   5   -0.11    1.00
   3   5   5    0.30    0.87
  -3  -5  -5   -0.38    0.95
  -3  -6   4   76.37    3.11
  -3  -6   4   84.75    4.12
  -3  -6   3   17.45    2.33
  -3  -6   3   14.59    2.66
  -3  -6   3   17.82    2.61
  -3  -6   2   48.43    4.21
  -3  -6   2   44.28    4.87
  -3  -6   2   49.68    4.47
  -3  -6   2   49.70    4.60
  -3  -6   2   53.37    4.34
   3   6  -1    8.46    2.26
  -3  -6   1   11.85    2.08
  -3  -6   1   11.09    2.23
  -3  -6   1    9.56    2.07
  -3  -6   1   10.43    2.28
  -3  -6   0   19.44    4.71
  -3  -6   0   20.17    3.06
  -3  -6   0   23.94    3.04
  -3  -6   0   17.89    2.63
   3   6   0   23.70    3.87
  -3  -6  -1  903.57   21.75
  -3  -6  -1 1062.62   18.79
  -3  -6  -1 1016.88   18.57
  -3  -6  -1 1053.80   20.61
  -3  -6  -1  916.50   19.81
   3   6   1  907.31   25.73
  -3  -6  -2  253.06   10.66
  -3  -6  -2  222.67   11.68
   3   6   2  226.71   14.37
  -3  -6  -2  264.63   11.42
  -3  -6  -2  299.56   12.91
   3   6   2  231.02   14.90
  -3  -6  -2  260.23    9.76
  -3  -6  -3  475.25   16.79
  -3  -6  -3  513.51   16.90
   3   6   3  500.82   24.33
   3   6   3  459.59   21.09
  -3  -6  -3  505.67   13.62
   3   6   3  491.99   20.25
  -3  -6  -4   13.56    2.66
   3   6   4   12.97    3.68
  -3  -6  -4   20.47    3.38
   3   6   4   11.49    2.10
  -3  -6  -4   10.36    2.61
  -3  -6  -4   12.83    2.24
   3   6   4   12.50    2.59
   3   6   4   17.15    3.27
   3   6   4   12.13    3.17
  -3  -6  -5    2.19    0.68
   3   6   5    2.53    0.97
  -3  -7   3    0.78    0.61
  -3  -7   3    0.96    0.71
  -3  -7   3    0.29    0.65
  -3  -7   2    6.63    1.53
  -3  -7   2    9.25    1.95
  -3  -7   2    8.50    1.99
  -3  -7   2   12.58    2.25
  -3  -7   2    8.58    1.80
  -3  -7   1   26.35    3.56
  -3  -7   1   26.18    3.43
  -3  -7   1   30.24    3.59
  -3  -7   0   38.27    4.30
  -3  -7   0   41.29    4.14
  -3  -7   0   29.41    6.46
   3   7   0   30.97    5.03
  -3  -7  -1  193.78    8.41
  -3  -7  -1  199.01   10.06
  -3  -7  -1  213.86    9.81
  -3  -7  -1  214.74   15.19
   3   7   1  213.50   13.89
  -3  -7  -2    0.98    1.25
  -3  -7  -2    1.03    1.09
   3   7   2    3.51    3.45
   3   7   2   -0.53    1.69
  -3  -7  -3    1.54    1.30
   3   7   3    3.27    2.86
  -3  -7  -3    2.92    1.71
   3   7   3    1.29    1.70
   3   7   3    1.36    2.24
   3   7   3    3.32    2.33
  -3  -7  -4   13.28    2.10
   3   7   4   13.80    2.03
   3   7   4   12.19    3.05
  -3  -7  -4   13.07    1.92
   3   7   4   14.33    2.26
   3   7   4   11.97    2.53
   3   7   4   13.92    2.62
  -3  -8   2  109.43    4.63
  -3  -8   2  112.18    5.09
  -3  -8   1    6.31    1.65
  -3  -8   1    5.90    1.47
  -3  -8   0   88.59    6.32
  -3  -8   0   92.79    5.91
  -3  -8  -1    9.02    1.93
  -3  -8  -1   12.20    2.43
  -3  -8  -1   12.07    2.08
  -3  -8  -2    2.28    1.23
   3   8   2    4.84    2.53
   3   8   3    2.09    1.82
  -3  -8  -3    2.47    1.25
   3   8   3    1.71    1.77
   3   8   3    2.80    1.32
   3   8   3    2.30    1.76
  -3  -8  -4    2.71    0.64
   3   8   4    1.81    0.60
   3   8   4    3.86    1.22
   3   8   4    3.02    0.99
  -3  -9   1    4.89    1.08
  -3  -9   1    5.59    1.27
  -3  -9   0   14.45    2.22
  -3  -9   0   16.09    2.10
  -3  -9  -1   25.83    2.80
  -3  -9  -1   26.93    2.44
   3   9   1   22.92    3.43
  -3  -9  -2   27.63    2.51
   3   9   2   26.03    3.86
   3   9   2   22.79    3.37
   3   9   3   63.54    3.67
  -3  -9  -3   63.33    3.15
   3   9   3   58.69    4.34
   3   9   3   66.59    4.46
  -3 -10   0   25.71    1.91
   3  10   1    9.40    1.80
  -4  10   1    0.00    0.54
  -4   9   3    0.14    0.53
  -4   9   3    0.67    0.49
   4  -9  -3   -0.02    0.34
  -4   9   3    0.85    0.78
  -4   9   3    0.12    0.49
  -4   9   2   15.36    1.81
  -4   9   2   16.20    2.35
  -4   9   2   13.86    2.49
   4  -9  -2   15.66    1.75
  -4   9   1   12.64    2.02
   4  -9   1   -0.90    1.49
  -4   8   4    4.34    0.88
  -4   8   4    4.37    0.82
   4  -8  -4    4.37    0.81
  -4   8   4    4.60    1.14
  -4   8   4    4.05    0.99
  -4   8   3   10.64    2.10
  -4   8   3    9.51    1.85
   4  -8  -3   10.81    1.82
  -4   8   3   11.45    2.68
  -4   8   3   12.84    2.38
   4  -8  -3    6.72    3.24
  -4   8   3   12.00    2.00
  -4   8   2    4.34    1.55
   4  -8  -2    6.92    1.61
  -4   8   2    4.33    2.24
   4  -8  -1    0.34    0.72
  -4   8   1    0.61    1.64
   4  -8   0   82.52    5.83
   4  -8   1    1.87    2.89
   4  -8   1   12.97    2.38
  -4   7   4    0.63    0.70
  -4   7   4    1.01    0.87
   4  -7  -4    2.28    1.26
   4  -7  -4    1.41    0.73
  -4   7   4    0.13    1.12
   4  -7  -4    5.40    3.02
   4  -7  -4    2.06    2.08
  -4   7   4    1.94    1.22
   4  -7  -3   41.12    4.85
  -4   7   3   35.92    4.19
  -4   7   3   42.92    4.53
   4  -7  -3   46.43    4.36
   4  -7  -3   20.91    3.64
  -4   7   3   47.15    6.06
   4  -7  -3   30.36    6.13
   4  -7  -3   29.44    6.64
  -4   7   3   36.89    3.94
  -4   7   3   43.37    5.31
  -4   7   2    0.90    1.02
   4  -7  -2    0.31    0.78
  -4   7   2   -0.09    1.70
   4  -7  -2    0.73    2.24
   4  -7  -2   -0.07    2.60
  -4   7   2   -2.46    1.69
   4  -7  -1   35.01    4.51
   4  -7  -1   32.98    6.62
   4  -7  -1   38.80    3.95
   4  -7  -1   38.00    3.68
  -4   7   1   35.55    4.04
  -4   7   1   39.46    3.98
  -4   7   1   34.43    3.86
   4  -7   0  103.57    6.87
   4  -7   0  100.52    6.19
   4  -7   1   95.87    6.65
   4  -6  -5   -0.56    0.74
  -4   6   5    0.30    0.48
   4  -6  -5    0.19    1.12
  -4   6   4   34.49    3.50
  -4   6   4   28.56    4.10
   4  -6  -4   28.37    3.50
  -4   6   4   31.53    3.18
   4  -6  -4   33.25    3.20
   4  -6  -4   29.83    4.66
  -4   6   4   33.86    4.61
  -4   6   4   32.26    4.12
   4  -6  -4   28.46    6.06
   4  -6  -4   29.10    5.80
  -4   6   3  720.31   19.09
  -4   6   3  874.98   26.37
   4  -6  -3  894.87   22.01
  -4   6   3  787.52   19.89
   4  -6  -3  914.26   20.28
   4  -6  -3  883.28   27.25
  -4   6   3  819.24   25.85
   4  -6  -3  811.26   33.40
  -4   6   3  821.08   23.87
   4  -6  -3  895.38   32.85
  -4   6   2   63.60    7.76
   4  -6  -2   67.68    6.06
  -4   6   2   68.88    5.39
   4  -6  -2   64.28    5.38
   4  -6  -2   58.93    6.56
   4  -6  -2   74.26    5.69
  -4   6   2   70.25    5.30
  -4   6   2   75.02    5.44
  -4   6   2   75.47    5.48
   4  -6  -2   64.48    4.96
  -4   6   2   60.80    7.11
   4  -6  -2   63.77    9.41
  -4   6   2   64.61    6.66
   4  -6  -2   63.39    8.88
   4  -6  -1   71.45    8.06
   4  -6  -1   63.05    4.58
   4  -6  -1   64.60    4.85
   4  -6  -1   59.66    4.74
   4  -6  -1   68.22    5.48
  -4   6   1   52.27    8.88
  -4   6   1   59.67    6.81
  -4   6   1   55.59    4.50
   4  -6  -1   52.32    9.13
  -4   6   1   67.38    4.90
   4  -6   0   36.59    6.67
   4  -6   0   32.02    4.39
   4  -6   0   39.54    4.04
   4  -6   0   42.34    3.84
  -4   6   0   42.24    3.48
  -4   6   0   43.70    4.12
   4  -6   1   53.17    4.35
   4  -6   1   49.93    4.78
   4  -6   1   24.60    4.88
   4  -6   1   22.19    6.20
  -4   6  -1   49.76    7.66
  -4   6  -1   51.06    4.62
   4  -6   2    3.58    1.76
   4  -6   3  245.66   10.37
   4  -5  -5  135.33    5.12
  -4   5   5  157.33    6.85
   4  -5  -5  181.43    9.37
  -4   5   5  182.37    6.67
   4  -5  -5  160.30   10.78
   4  -5  -5  168.32   10.37
  -4   5   5  190.82    6.67
  -4   5   4  265.41   14.14
   4  -5  -4  272.84   11.49
   4  -5  -4  219.19   13.39
  -4   5   4  234.20    9.40
  -4   5   4  240.30    8.99
   4  -5  -4  297.51   16.98
   4  -5  -4  298.21    9.91
  -4   5   4  235.90   12.38
   4  -5  -4  263.59   19.51
  -4   5   4  239.17   11.85
  -4   5   4  250.91   12.02
   4  -5  -4  301.21   19.27
  -4   5   3   18.72    3.16
   4  -5  -3   29.90    4.10
  -4   5   3   23.80    3.49
  -4   5   3   24.96    4.62
  -4   5   3   27.19    3.19
  -4   5   3   22.87    4.79
   4  -5  -3   23.65    4.80
   4  -5  -3   28.85    5.54
   4  -5  -3   25.65    3.45
   4  -5  -3   27.90    3.45
  -4   5   3   30.28    4.16
  -4   5   3   28.73    3.93
  -4   5   3   20.56    4.47
  -4   5   3   26.53    3.76
   4  -5  -3   26.99    3.78
  -4   5   3   30.09    3.98
   4  -5  -3   19.61    5.19
   4  -5  -3   32.85    6.36
   4  -5  -3   27.90    6.64
  -4   5   3   24.80    3.31
  -4   5   3   25.99    4.14
  -4   5   3   29.28    4.70
   4  -5  -2   14.75    2.64
  -4   5   2   14.80    2.35
  -4   5   2    6.49    3.96
  -4   5   2   14.19    3.54
   4  -5  -2   16.90    2.69
   4  -5  -2   21.36    2.81
  -4   5   2   17.87    2.72
  -4   5   2   15.43    2.67
  -4   5   2   18.31    2.79
  -4   5   2   18.81    3.69
  -4   5   2   15.53    2.51
   4  -5  -2   15.39    2.52
   4  -5  -2   18.27    4.46
  -4   5   2   15.22    3.17
   4  -5  -2   15.41    4.47
  -4   5   1  826.89   31.76
  -4   5   1  841.03   15.84
  -4   5   1  787.44   21.92
   4  -5  -1 1076.80   18.59
  -4   5   1  980.18   15.50
  -4   5   1  947.44   15.09
   4  -5  -1  877.78   14.13
  -4   5   1  976.15   15.35
  -4   5   1  769.15   14.50
   4  -5   0   44.06    4.28
   4  -5   0   46.78    6.42
  -4   5   0   49.51    3.45
  -4   5   0   51.51    4.87
  -4   5   0   58.25    7.79
  -4   5   0   59.72    4.18
   4  -5   1 1080.30   20.16
   4  -5   1 1187.00   18.80
   4  -5   1  828.92   33.58
   4  -5   1  727.53   23.17
  -4   5  -1 1126.03   34.33
  -4   5  -1 1261.54   20.54
   4  -5   2  154.76    7.51
   4  -5   2  159.64    8.07
   4  -5   2  173.70   11.02
  -4   5  -2  126.58   13.98
  -4   5  -2  128.51   13.05
  -4   5  -2  128.85    6.95
  -4   5  -2  132.15   13.23
   4  -5   3   77.71    7.36
   4  -5   4   18.08    2.59
   4  -4  -5   60.97    6.13
  -4   4   5   73.29    5.59
  -4   4   5   62.92    6.71
   4  -4  -5   87.04    7.49
  -4   4   5   69.11    4.53
   4  -4  -5   70.46    8.56
  -4   4   5   79.23    4.71
   4  -4  -5   79.46    8.26
   4  -4  -4    0.11    2.01
  -4   4   4   -0.28    2.12
   4  -4  -4    1.48    1.38
  -4   4   4    0.37    0.92
   4  -4  -4    0.82    0.92
   4  -4  -4   -1.44    2.98
  -4   4   4    0.50    1.56
  -4   4   4    0.02    1.31
   4  -4  -4   -0.06    3.36
   4  -4  -4    2.01    3.18
  -4   4   4   -0.08    1.29
  -4   4   3    0.32    1.22
   4  -4  -3    0.95    1.22
  -4   4   3    0.06    0.71
  -4   4   3    4.85    2.96
   4  -4  -3    0.04    1.24
  -4   4   3   -0.72    1.03
   4  -4  -3   -0.75    1.91
   4  -4  -3    0.24    1.39
  -4   4   3   -2.55    1.30
   4  -4  -3   -0.09    0.54
   4  -4  -3   -0.49    2.18
   4  -4  -3    0.82    0.93
   4  -4  -3    0.69    1.08
  -4   4   3    1.22    1.65
  -4   4   3    0.47    1.10
  -4   4   3    0.48    0.92
  -4   4   3    0.18    1.03
   4  -4  -3    0.06    1.21
  -4   4   3   -2.56    1.63
   4  -4  -3   -3.82    2.76
   4  -4  -3    1.42    3.16
  -4   4   3    0.24    1.10
  -4   4   3   -3.17    1.20
  -4   4   3    1.63    1.29
   4  -4  -3    0.76    2.09
  -4   4   2  218.26   17.65
  -4   4   2  193.03   11.17
  -4   4   2  233.41    8.14
   4  -4  -2  266.69    8.93
  -4   4   2  239.62    9.50
  -4   4   2  241.42    9.59
   4  -4  -2  239.01    9.33
  -4   4   2  244.70    9.61
  -4   4   2  246.20   10.01
   4  -4  -2  216.05   14.38
   4  -4  -2  230.98   11.16
  -4   4   1  202.76    6.99
  -4   4   1  189.74    9.44
  -4   4   1  191.26   13.81
  -4   4   1  214.29    6.96
  -4   4   1  219.60    7.03
   4  -4  -1  202.30    6.66
  -4   4   1  220.36    7.03
   4  -4  -1  212.27   10.01
  -4   4   0   15.59    2.38
  -4   4   0   17.75    1.85
  -4   4   0   15.26    3.80
   4  -4   0   12.67    3.07
   4  -4   0   12.94    2.04
  -4   4   0   12.71    1.37
  -4   4   0   11.98    1.34
   4  -4   0   11.14    1.23
   4  -4   0   11.69    1.24
  -4   4   0   11.46    1.27
  -4   4   0   14.04    1.84
   4  -4   1  171.41   13.53
   4  -4   1  163.16    9.75
  -4   4  -1  251.04    6.14
  -4   4  -1  221.45   13.73
  -4   4  -1  257.10    8.13
   4  -4   2    1.12    1.46
   4  -4   2    1.33    0.84
  -4   4  -2    0.86    2.50
  -4   4  -2   -0.83    2.08
  -4   4  -2    0.71    0.78
   4  -4   3   15.37    3.71
   4  -4   3   13.07    2.61
   4  -4   4   62.16    5.94
   4  -4   4   53.27    3.91
   4  -3  -5    0.91    2.20
  -4   3   5    1.35    1.41
   4  -3  -5    1.78    1.88
  -4   3   5   -0.35    2.17
  -4   3   5   -0.22    0.82
   4  -3  -5   -0.70    2.16
   4  -3  -5    0.21    0.83
   4  -3  -5    1.74    2.51
  -4   3   5    0.82    0.75
   4  -3  -4   10.19    2.64
  -4   3   4   11.73    2.09
  -4   3   4    8.95    3.38
   4  -3  -4   12.22    4.37
  -4   3   4    7.00    2.53
  -4   3   4    6.44    2.26
  -4   3   4    9.81    3.05
   4  -3  -4   11.32    4.78
   4  -3  -4    9.83    5.58
  -4   3   3    8.86    2.82
  -4   3   3   10.45    3.10
   4  -3  -3    9.75    2.38
  -4   3   3    9.69    1.55
   4  -3  -3   11.82    2.41
   4  -3  -3   12.18    3.69
  -4   3   3   11.63    2.29
   4  -3  -3   10.89    1.99
   4  -3  -3    9.88    3.85
  -4   3   3    9.93    2.31
   4  -3  -3   10.29    2.29
  -4   3   3   11.99    2.54
  -4   3   3    9.12    2.24
  -4   3   3    5.41    2.15
   4  -3  -3   14.32    5.83
  -4   3   3    9.05    2.45
   4  -3  -3    7.10    3.53
  -4   3   3    9.59    2.28
   4  -3  -3   10.24    3.25
   4  -3  -3   18.74    5.38
  -4   3   3   11.83    2.98
   4  -3  -2   49.54    5.58
  -4   3   2   43.69    7.95
  -4   3   2   48.49    3.28
  -4   3   2   45.65    4.99
   4  -3  -2   31.32    4.23
   4  -3  -2   47.81    3.51
  -4   3   2   50.09    4.17
   4  -3  -2   46.82    4.01
  -4   3   2   49.90    4.21
  -4   3   2   46.77    4.03
  -4   3   2   51.54    4.33
   4  -3  -2   44.96    6.68
   4  -3  -2   38.24    5.00
  -4   3   1    0.24    2.56
  -4   3   1    0.71    0.70
  -4   3   1    0.50    1.05
   4  -3  -1    1.15    0.57
   4  -3  -1    1.45    0.72
  -4   3   1    0.85    0.83
  -4   3   1    0.72    0.76
  -4   3   1    1.15    0.78
   4  -3  -1    1.00    0.75
  -4   3   1    0.63    0.49
   4  -3  -1    0.20    1.03
  -4   3   1    0.43    0.69
   4  -3  -1    1.85    1.98
  -4   3   0    2.49    1.13
  -4   3   0    5.39    3.37
  -4   3   0    4.47    0.95
   4  -3   0    4.19    1.23
   4  -3   0    4.35    1.99
   4  -3   0    1.03    1.14
  -4   3   0    6.10    0.98
  -4   3   0    6.11    1.01
   4  -3   0    5.85    0.91
  -4   3   0    5.68    0.96
   4  -3   0    5.47    0.93
  -4   3   0    4.98    1.14
  -4   3  -1   26.91    1.81
   4  -3   1   17.93    4.23
   4  -3   1   17.39    2.99
   4  -3   1   21.18    2.27
   4  -3   1   21.56    2.24
   4  -3   1   18.86    2.10
   4  -3   1   18.53    2.02
  -4   3  -1   21.81    2.30
  -4   3  -1   24.52    4.54
  -4   3  -1   24.01    2.21
  -4   3  -2    5.35    3.24
  -4   3  -2   10.91    1.77
  -4   3  -3    4.51    3.93
   4  -3   3    7.91    5.86
   4  -3   3    4.47    2.46
   4  -3   3    6.85    2.24
  -4   3  -3   14.40    6.45
  -4   3  -3    5.81    3.48
   4  -3   4    8.23    2.89
   4  -3   4    6.64    1.97
   4  -3   5   24.61    2.33
   4  -3   5   23.78    1.68
   4  -2  -5   16.66    3.87
   4  -2  -5   13.27    4.40
   4  -2  -5   17.87    4.60
   4  -2  -5    9.75    4.20
   4  -2  -5   10.67    2.95
  -4   2   4  157.92   11.27
   4  -2  -4  178.56   10.40
   4  -2  -4  119.33   14.40
   4  -2  -4  202.77   16.64
  -4   2   4  172.44    9.88
  -4   2   4  151.20    8.63
  -4   2   4  156.35    8.93
   4  -2  -4  207.48   19.29
  -4   2   4  155.77   10.38
   4  -2  -4  240.88   23.51
   4  -2  -3   50.12    6.81
  -4   2   3   43.36    5.34
   4  -2  -3   52.82    4.03
  -4   2   3   51.45    4.67
  -4   2   3   50.38    4.64
  -4   2   3   50.60    4.62
   4  -2  -3   48.71    4.68
  -4   2   3   53.86    4.92
   4  -2  -3   47.42    7.37
   4  -2  -3   48.40    8.62
  -4   2   2    4.71    0.95
   4  -2  -2    5.23    2.19
  -4   2   2    3.90    3.49
  -4   2   2    5.68    1.88
   4  -2  -2    3.24    2.30
   4  -2  -2    6.18    1.28
   4  -2  -2    3.36    1.04
  -4   2   2    7.67    1.77
   4  -2  -2    6.64    1.53
  -4   2   2    5.38    1.43
  -4   2   2    6.05    1.47
   4  -2  -2    7.96    3.72
  -4   2   2    5.92    1.53
   4  -2  -2    4.98    2.39
   4  -2  -1   28.29    1.39
  -4   2   1   23.25    4.27
  -4   2   1   27.41    2.88
  -4   2   1   26.65    1.89
   4  -2  -1   22.93    2.46
   4  -2  -1   30.29    2.00
  -4   2   1   38.27    2.61
  -4   2   1   38.41    2.60
  -4   2   1   40.42    2.67
  -4   2   1   39.03    2.70
   4  -2  -1   30.18    2.28
   4  -2  -1   26.20    4.01
   4  -2  -1   22.02    2.98
  -4   2   1   26.50    1.59
   4  -2   0   70.68    3.08
  -4   2   0   84.11    3.73
  -4   2   0   85.97    2.90
   4  -2   0   94.71    4.69
   4  -2   0   84.10    3.56
   4  -2   0   84.46    4.91
   4  -2   0   84.23    2.76
  -4   2   0   85.85    2.88
   4  -2   0   84.80    2.72
  -4   2   0   87.12    2.88
  -4   2   0   86.03    2.81
  -4   2   0   78.70    3.04
  -4   2   0   92.68    6.39
  -4   2  -1   64.47    2.54
   4  -2   1   34.38    3.88
   4  -2   1   39.38    5.52
   4  -2   1   51.82    3.51
   4  -2   1   54.62    3.44
   4  -2   1   56.33    3.42
  -4   2  -1   55.81    3.64
  -4   2  -1   55.53    2.95
  -4   2  -1   60.86    5.37
  -4   2  -2  249.24   15.97
  -4   2  -2  225.44    6.75
  -4   2  -2  222.19   13.59
   4  -2   3   50.54    6.92
   4  -2   3   35.50    4.66
  -4   2  -3   38.55    8.03
  -4   2  -3   42.70   10.28
  -4   2  -3   29.38    6.09
   4  -2   4    4.95    2.19
   4  -2   4   10.78    8.99
   4  -2   4    2.34    1.95
   4  -2   5   24.60    2.82
   4  -2   5   26.67    2.53
  -4   1   5   33.31    2.87
   4  -1  -5   37.08    8.81
   4  -1  -5   38.95    6.93
  -4   1   4   12.12    3.43
   4  -1  -4   15.10    4.60
   4  -1  -4    3.40    4.22
   4  -1  -4   15.98    5.13
  -4   1   4   14.95    2.92
  -4   1   4   13.94    2.60
   4  -1  -4   11.69    5.73
   4  -1  -4   24.12    5.91
  -4   1   4   15.86    2.84
   4  -1  -3    6.65    3.00
  -4   1   3    0.14    2.30
  -4   1   3   10.19    2.00
   4  -1  -3   10.22    1.96
  -4   1   3   10.44    2.00
  -4   1   3    8.19    1.84
  -4   1   3    8.38    1.82
   4  -1  -3    7.22    3.84
   4  -1  -3    9.38    4.29
  -4   1   2    6.99    0.87
   4  -1  -2    8.07    2.65
  -4   1   2    7.79    1.89
  -4   1   2   -2.10    2.05
   4  -1  -2    6.85    1.40
  -4   1   2    6.42    1.44
  -4   1   2    5.10    1.31
  -4   1   2    5.60    1.45
  -4   1   2    5.60    1.36
   4  -1  -2    8.52    3.54
   4  -1  -2    5.75    2.64
  -4   1   1   66.44    3.90
  -4   1   1   64.58    2.36
   4  -1  -1   63.61    2.81
  -4   1   1   69.36    6.59
   4  -1  -1   67.52    4.17
   4  -1  -1   68.60    4.89
   4  -1  -1   77.48    2.51
  -4   1   1   73.57    3.16
  -4   1   1   71.97    3.12
  -4   1   1   71.49    3.14
   4  -1  -1   73.52    3.16
  -4   1   1   75.96    3.33
   4  -1  -1   70.34    5.61
   4  -1  -1   65.05    5.04
  -4   1   1   67.84    2.00
   4  -1   0 1475.92   12.39
  -4   1   0 1360.49   11.26
   4  -1   0 1128.31   12.20
   4  -1   0 1448.91   16.76
   4  -1   0 1241.81   14.75
  -4   1   0 1305.64   10.09
   4  -1   0 1338.12   10.23
   4  -1   0 1322.52   10.40
  -4   1   0 1369.46   10.81
  -4   1   0 1415.56   10.92
  -4   1   0 1326.37   10.60
  -4   1   0 1462.84   20.81
   4  -1   0 1493.10   18.15
  -4   1  -1    0.26    0.35
   4  -1   1    0.02    2.04
   4  -1   1    0.16    0.83
   4  -1   1    0.45    0.82
   4  -1   1    0.44    0.83
   4  -1   1    0.68    1.06
   4  -1   1    0.31    0.90
  -4   1  -1    0.36    0.73
  -4   1  -1    0.59    0.57
  -4   1  -1    0.54    1.50
  -4   1  -2  458.70   20.38
   4  -1   2  475.76   13.96
   4  -1   2  456.51   13.46
   4  -1   2  477.24   13.91
   4  -1   2  468.48   14.05
  -4   1  -2  465.26   23.37
   4  -1   2  455.88   13.64
  -4   1  -2  426.76   17.79
  -4   1  -2  440.27    8.84
   4  -1   3    3.39    4.54
   4  -1   3   -6.57    6.06
   4  -1   3    7.61    2.43
  -4   1  -3    6.94    3.87
  -4   1  -3    9.60    5.31
  -4   1  -3    7.50    4.13
  -4   1  -3    8.54    3.57
   4  -1   3    4.00    1.75
   4  -1   4    4.52    2.39
   4  -1   4    4.62    2.51
   4  -1   4    2.83    7.63
  -4   1  -5    0.15    1.23
  -4   1  -5    4.74    2.45
   4  -1   5   -1.08    0.90
   4  -1   5    2.24    3.50
   4  -1   5    0.32    0.93
  -4   0   5    5.16    3.15
  -4   0   5    4.36    1.12
  -4   0   5    3.10    1.04
   4   0  -5    0.62    1.63
   4   0  -5    1.32    3.53
   4   0  -4    8.30    3.54
  -4   0   4    7.21    2.03
  -4   0   4   10.89    2.31
  -4   0   4   10.95    2.14
   4   0  -4    9.34    5.28
   4   0  -3   33.79    5.69
  -4   0   3   30.40    2.51
  -4   0   3   35.82    3.13
  -4   0   3   33.35    3.12
   4   0  -3   32.92    3.14
  -4   0   3   35.68    3.09
  -4   0   3   33.88    3.04
   4   0  -3   22.67    5.86
   4   0  -3   34.18    7.61
  -4   0   2   38.16    2.50
   4   0  -2   44.53    5.06
   4   0  -2   35.56    2.25
  -4   0   2   61.98    3.37
  -4   0   2   61.26    3.33
   4   0  -2   67.76    3.60
  -4   0   2   61.51    3.34
  -4   0   2   63.85    3.51
   4   0  -2   39.80    5.86
   4   0  -2   42.70    6.61
   4   0  -1 5848.73   51.18
  -4   0   1 6818.16   58.31
   4   0  -1 6271.81   36.01
   4   0  -1 6068.97   48.97
   4   0  -1 6512.02   49.83
  -4   0   0  551.81    6.25
   4   0   0  506.44    6.99
  -4   0   0  505.25    5.49
   4   0   0  446.63    9.08
  -4   0   0  491.51    6.61
  -4   0   0  486.12    6.63
   4   0   0  498.20    6.50
   4   0   0  485.16    6.61
  -4   0   0  523.74   10.40
  -4   0   0  524.99    8.66
  -4   0   0  466.68    6.27
   4   0   0  498.06    8.70
   4   0   1  189.40    6.50
  -4   0  -1  195.10    8.99
  -4   0  -1  174.23    4.43
   4   0   1  172.64    3.10
  -4   0  -1  181.71    3.45
   4   0   1  185.33    6.94
   4   0   1  185.09    7.13
   4   0   1  181.98    6.74
  -4   0  -1  185.05    6.95
   4   0   1  179.56    7.19
  -4   0  -1  190.24    4.74
  -4   0  -1  170.11    8.09
  -4   0  -2   65.00    7.57
   4   0   2   54.96    5.09
   4   0   2   64.71    5.40
   4   0   2   55.57    5.30
   4   0   2   56.40    5.32
  -4   0  -2   63.03    8.29
  -4   0  -2   65.72    3.38
  -4   0  -2   58.73    6.62
   4   0   2   57.95    5.32
  -4   0  -3   31.39    6.93
   4   0   3   37.59   12.60
   4   0   3   28.79    4.32
   4   0   3   31.32    4.52
   4   0   3   33.11    4.76
   4   0   3   31.71    4.66
   4   0   3   27.18    4.29
  -4   0  -3   27.68    6.58
  -4   0  -3   31.70    7.72
  -4   0  -3   26.89    5.70
  -4   0  -4    3.26    1.63
   4   0   4    2.58    2.11
   4   0   4   -3.41    8.97
   4   0   4    3.76    2.01
  -4   0  -5    5.10    2.12
   4   0   5    4.17    5.05
   4   0   5    7.45    1.76
   4   0   5    5.92    1.66
  -4  -1   5    7.44    1.26
  -4  -1   5   10.17    3.30
  -4  -1   5    7.42    1.38
   4   1  -5    4.22    3.66
  -4  -1   4   69.27    6.29
  -4  -1   4   76.48    5.64
  -4  -1   4   66.92    5.55
   4   1  -3   48.71    7.04
   4   1  -3   61.96    9.60
   4   1  -3   49.37    9.14
   4   1  -2    0.28    1.31
  -4  -1   2    0.34    0.46
  -4  -1   2    0.19    0.40
  -4  -1   2    0.14    0.33
   4   1  -2    0.33    0.37
   4   1  -2    0.49    2.18
   4   1  -2    0.95    2.31
  -4  -1   2    0.06    0.31
  -4  -1   1  551.04    7.20
  -4  -1   1  524.41    5.88
   4   1  -1  485.13    8.90
   4   1  -1  504.08   16.18
   4   1  -1  480.50   10.27
  -4  -1   1  555.18    6.23
  -4  -1   1  553.71    6.27
   4   1  -1  552.14    6.23
  -4  -1   1  536.23    5.99
   4   1  -1  554.84    6.34
   4   1  -1  499.82   14.33
   4   1  -1  480.02   14.61
  -4  -1   0   83.26    2.48
  -4  -1   0   80.13    2.67
   4   1   0   85.49    3.04
   4   1   0   62.15    3.57
   4   1   0   77.95    3.30
   4   1   0   79.80    3.58
   4   1   0   79.47    3.23
  -4  -1   0   78.70    3.19
  -4  -1   0   80.90    3.26
  -4  -1   0   79.47    2.81
  -4  -1   0   82.28    3.35
  -4  -1   0   74.31    3.37
   4   1   0   68.44    2.78
  -4  -1  -1   21.97    1.65
   4   1   1   21.40    2.17
   4   1   1   21.73    1.72
  -4  -1  -1   17.48    2.99
   4   1   1   25.05    3.49
   4   1   1   20.38    2.81
   4   1   1   21.63    2.76
   4   1   1   22.27    2.76
  -4  -1  -1   20.46    2.64
   4   1   1   22.70    2.88
  -4  -1  -1   20.50    1.68
  -4  -1  -1   18.03    2.99
  -4  -1  -1   22.98    3.33
   4   1   2   11.43    1.89
  -4  -1  -2   11.07    3.69
   4   1   2   10.55    2.88
   4   1   2   13.64    2.99
   4   1   2   14.33    3.06
   4   1   2   15.13    3.27
  -4  -1  -2   11.21    1.49
  -4  -1  -2    4.54    3.29
   4   1   2   13.71    3.15
  -4  -1  -2    9.17    2.83
  -4  -1  -3  105.95   11.82
   4   1   3  115.64    9.11
   4   1   3  123.93    9.60
   4   1   3  116.88    9.34
   4   1   3  123.10    9.57
   4   1   3  113.69    9.08
  -4  -1  -3  108.36   11.01
  -4  -1  -3  123.72   11.50
  -4  -1  -3   93.10   12.24
   4   1   4  315.35   33.14
   4   1   4  407.57   17.45
   4   1   4  446.44   23.53
  -4  -1  -4  354.88   17.89
   4   1   4  404.52   17.76
  -4  -1  -4  416.79   20.59
   4   1   4  390.00   17.79
   4   1   4  404.88   17.17
   4   1   4  360.13   17.18
  -4  -1  -4  359.38   12.08
  -4  -1  -5   21.62    3.78
   4   1   5   38.16   10.08
   4   1   5   35.30    3.98
  -4  -1  -5   14.03    5.68
  -4  -1  -5   34.29    7.79
  -4  -2   5   -0.50    0.51
  -4  -2   5    0.01    0.40
  -4  -2   5   -0.08    1.06
  -4  -2   5    0.94    0.65
   4   2  -5   -2.06    3.10
  -4  -2   4  178.53   10.19
  -4  -2   4  185.29    8.90
  -4  -2   3    0.20    2.13
  -4  -2   3   -1.69    2.32
   4   2  -3   -4.44    3.22
  -4  -2   3    0.59    0.91
  -4  -2   3   -0.14    0.84
   4   2  -3   -2.08    2.47
   4   2  -3   -1.99    3.55
   4   2  -2   75.76    8.94
   4   2  -2   69.77    6.21
  -4  -2   2   77.52    3.27
   4   2  -2   74.30    8.99
   4   2  -2   66.57    8.45
   4   2  -1  306.45    6.07
  -4  -2   1  440.46    6.97
   4   2  -1  371.65   13.75
  -4  -2   1  305.99   11.66
   4   2  -1  385.58   10.05
  -4  -2   1  400.86    5.94
  -4  -2   1  398.36    5.93
   4   2  -1  388.69    6.19
   4   2  -1  398.24    6.07
   4   2  -1  418.96    6.80
   4   2  -1  446.79   14.64
   4   2  -1  384.04   14.19
  -4  -2   0  262.83    5.51
   4   2   0  230.98    5.46
   4   2   0  208.13    6.56
   4   2   0  226.19    7.21
   4   2   0  239.82    7.27
   4   2   0  245.83    6.94
  -4  -2   0  241.21    6.74
   4   2   0  245.40    7.06
   4   2   0  214.12    4.26
  -4  -2  -1   72.38    5.30
   4   2   1   85.97    4.16
   4   2   1   90.45    4.09
  -4  -2  -1   87.75    3.89
   4   2   1   99.03    6.49
   4   2   1   86.34    5.76
   4   2   1   90.04    6.04
   4   2   1   95.26    6.02
   4   2   1   90.94    6.17
  -4  -2  -1   81.53    5.07
  -4  -2  -1   96.49    3.82
  -4  -2  -1   73.96    5.70
  -4  -2  -2   74.32    7.64
   4   2   2   86.88    5.63
   4   2   2   87.73    7.11
   4   2   2   85.52    7.13
   4   2   2   87.26    7.14
   4   2   2   83.85    7.14
   4   2   2   83.87    7.09
  -4  -2  -2   84.59    7.85
  -4  -2  -2   79.87    8.08
  -4  -2  -2   57.22    5.20
   4   2   3   33.22    5.49
   4   2   3   28.50    4.77
  -4  -2  -3   27.06    5.86
  -4  -2  -3   30.71    5.25
   4   2   3   39.58   12.01
   4   2   3   -0.16    3.47
   4   2   3   33.02    7.35
   4   2   3   29.98    4.90
   4   2   3   29.24    4.96
   4   2   3   30.45    5.15
   4   2   3   35.11    5.41
   4   2   3   31.15    5.08
   4   2   3   30.51    4.94
   4   2   3   25.16    4.41
  -4  -2  -3   25.52    5.36
  -4  -2  -3   30.37    6.69
   4   2   4  714.72   48.30
   4   2   4 1057.20   37.57
   4   2   4  938.42   29.35
  -4  -2  -4  822.18   26.92
   4   2   4  839.37   26.62
  -4  -2  -4  849.02   28.09
   4   2   4  891.79   27.22
  -4  -2  -4  810.99   17.63
   4   2   4  775.07   25.66
  -4  -2  -5   -0.25    1.18
  -4  -2  -5    1.36    1.10
   4   2   5    2.32    1.25
   4   2   5    0.19    5.31
   4   2   5    0.43    0.95
  -4  -2  -5    3.97    3.17
  -4  -2  -5    1.06    2.61
  -4  -3   5    4.72    0.96
  -4  -3   5    5.30    0.95
  -4  -3   4  136.75    8.72
  -4  -3   4  155.70    7.29
  -4  -3   4  138.98    7.22
  -4  -3   3   33.62    4.69
   4   3  -3   36.11    7.78
  -4  -3   3   35.93    3.80
  -4  -3   3   34.45    3.85
   4   3  -3   29.48    7.09
   4   3  -3   14.94    5.31
   4   3  -2  578.51   23.34
  -4  -3   2  419.13   20.03
  -4  -3   2  564.62   10.17
   4   3  -2  476.86   24.04
   4   3  -2  521.98   23.95
   4   3  -1   -0.36    1.16
   4   3  -1   -0.20    0.67
  -4  -3   1    1.04    1.48
  -4  -3   1   -0.04    0.46
   4   3  -1    1.53    1.76
   4   3  -1   -1.60    1.88
   4   3   0    4.20    0.93
  -4  -3   0    7.34    1.33
  -4  -3   0    5.23    0.88
   4   3   0    4.88    1.23
   4   3   0    5.34    1.38
   4   3   0    4.90    1.49
   4   3   0    6.04    1.53
   4   3   0    7.81    1.62
   4   3   0    5.19    1.46
  -4  -3  -1 2314.48   23.71
   4   3   1 2457.33   25.51
  -4  -3  -1 2419.67   27.72
   4   3   1 2327.78   22.03
   4   3   1 2396.08   32.28
   4   3   1 2486.11   32.22
   4   3   1 2429.35   32.15
   4   3   1 2432.21   33.19
  -4  -3  -1 2148.70   22.92
  -4  -3  -1 2701.24   33.08
   4   3   1 2345.81   32.24
  -4  -3  -2  589.89   20.76
   4   3   2  623.79   17.00
   4   3   2  596.77   19.43
   4   3   2  566.54   19.04
   4   3   2  590.59   19.08
   4   3   2  589.52   19.50
  -4  -3  -2  644.94   20.98
  -4  -3  -2  570.02   19.42
   4   3   2  584.85   19.46
  -4  -3  -3   34.99    6.66
  -4  -3  -3   35.87    5.51
  -4  -3  -3   31.20    5.17
   4   3   3   32.64    5.41
   4   3   3   32.43    5.86
   4   3   3   31.29    5.48
  -4  -3  -3   27.36    3.85
   4   3   3   20.32    9.81
   4   3   3   34.60    7.58
  -4  -3  -3   30.96    3.88
   4   3   3   32.95    5.46
   4   3   3   30.94    5.28
   4   3   3   31.03    5.29
   4   3   3   30.12    5.17
   4   3   3   30.32    5.28
  -4  -3  -3   41.85    6.51
   4   3   3   31.64    5.54
  -4  -3  -3   30.73    3.54
   4   3   3   32.78    5.31
  -4  -3  -3   35.95    6.81
   4   3   3   34.63    4.69
   4   3   4   14.27    4.25
  -4  -3  -4    5.34    2.82
  -4  -3  -4   14.29    3.78
   4   3   4   13.62    3.89
   4   3   4   14.21    5.84
   4   3   4    9.19    8.89
  -4  -3  -4   15.82    2.71
  -4  -3  -4    5.02    4.88
   4   3   4   12.42    3.82
  -4  -3  -4   11.58    2.22
  -4  -3  -4    3.34    4.22
   4   3   4   11.75    3.41
  -4  -3  -5   56.27    4.76
  -4  -3  -5   50.63    4.89
   4   3   5   53.37    5.03
  -4  -3  -5   49.21    7.37
   4   3   5   47.94    4.32
   4   3   5   51.24    4.94
  -4  -3  -5   50.07    7.38
  -4  -4   4   49.66    4.91
  -4  -4   4   57.57    4.13
  -4  -4   4   51.20    3.96
  -4  -4   3  256.24   12.49
  -4  -4   3  236.76    9.60
   4   4  -2  118.97    8.10
  -4  -4   2  137.48    8.51
   4   4  -2  139.30   10.75
  -4  -4   2  163.91    7.44
  -4  -4   2  142.74    6.80
   4   4  -2  116.15   12.33
   4   4  -1  350.80   12.08
  -4  -4   1  318.89   16.45
   4   4  -1  342.37   10.40
   4   4   0  143.63    6.48
   4   4   0  127.88    4.70
  -4  -4   0  130.84    5.94
   4   4   1  153.57    5.83
   4   4   1  170.06    8.16
  -4  -4  -1  151.76    6.80
   4   4   1  154.33    8.70
   4   4   1  161.44    8.84
   4   4   1  155.33    8.76
   4   4   1  161.37    8.74
   4   4   1  160.75    8.93
   4   4   2  335.78   14.04
  -4  -4  -2  343.24   14.63
   4   4   2  316.82   15.08
   4   4   2  328.70   15.65
   4   4   2  322.89   15.41
   4   4   2  329.80   15.48
   4   4   2  312.91   14.80
   4   4   3  353.34   19.96
   4   4   3  304.85   16.16
  -4  -4  -3  334.41   15.63
  -4  -4  -3  370.85   17.28
   4   4   3  323.37   16.58
  -4  -4  -3  345.12   18.54
  -4  -4  -3  312.96   13.69
   4   4   3  414.53   24.16
   4   4   3  336.05   17.07
   4   4   3  325.64   17.10
   4   4   3  331.59   16.98
  -4  -4  -3  399.45   13.95
   4   4   3  341.69   17.76
   4   4   3  336.30   17.19
   4   4   3  307.52   15.63
   4   4   3  346.50   18.37
  -4  -4  -3  405.60   19.53
  -4  -4  -3  374.51   12.04
  -4  -4  -3  374.54   24.27
  -4  -4  -4  170.80   10.85
   4   4   4  153.88   10.94
  -4  -4  -4  206.42   12.38
   4   4   4  167.21   13.61
  -4  -4  -4  169.13    8.46
   4   4   4  232.83   17.27
  -4  -4  -4  213.01    9.33
   4   4   4  176.55   12.83
  -4  -4  -4  176.39    7.76
   4   4   4  164.72    9.85
   4   4   4  157.40   10.83
  -4  -4  -4  197.81   17.00
   4   4   5    7.65    2.08
  -4  -4  -5    7.15    1.75
  -4  -4  -5    8.75    1.80
  -4  -4  -5    5.82    2.61
   4   4   5    6.38    1.35
  -4  -4  -5    4.58    2.37
   4   4   5    6.56    2.00
  -4  -5   4   72.45    4.09
  -4  -5   4   68.04    3.95
  -4  -5   4   63.90    4.77
  -4  -5   3  136.42    6.94
  -4  -5   3  133.79    8.65
  -4  -5   3  155.37    7.66
  -4  -5   2    7.49    1.74
  -4  -5   2   10.63    2.22
   4   5  -2    7.43    2.03
  -4  -5   2    9.47    1.98
  -4  -5   2    9.20    2.02
  -4  -5   2    6.68    2.13
  -4  -5   1   27.16    5.58
  -4  -5   1   40.47    3.60
  -4  -5   1   46.08    4.08
  -4  -5   1   37.88    3.85
   4   5  -1   37.67    4.19
   4   5  -1   38.14    3.48
  -4  -5   1   37.71    3.63
  -4  -5   0   11.53    3.29
   4   5   0    8.96    2.12
  -4  -5   0    9.37    2.02
   4   5   1   15.69    3.07
  -4  -5  -1   18.71    2.42
   4   5   1   15.66    2.89
   4   5   1   15.30    2.87
   4   5   1   14.15    2.77
   4   5   1   15.61    2.98
   4   5   1   12.73    2.61
  -4  -5  -2  459.03   16.72
   4   5   2  367.62   16.58
  -4  -5  -2  428.06   14.69
   4   5   2  356.10   16.19
  -4  -5  -2  367.41   14.76
  -4  -5  -2  395.48   13.61
   4   5   2  491.26   23.80
   4   5   2  381.77   16.61
  -4  -5  -2  450.78   14.11
   4   5   2  398.29   17.06
   4   5   2  389.42   16.74
   4   5   2  381.77   17.10
   4   5   2  366.64   16.52
   4   5   2  426.72   19.72
  -4  -5  -2  423.85   12.09
   4   5   3    1.98    2.15
   4   5   3    1.65    2.19
  -4  -5  -3   -0.56    1.07
  -4  -5  -3    0.27    1.20
   4   5   3    1.96    2.92
  -4  -5  -3    2.11    1.32
  -4  -5  -3    0.11    1.22
   4   5   3    1.50    3.34
   4   5   3   -0.37    0.89
  -4  -5  -3    1.35    1.21
   4   5   3    0.11    1.14
   4   5   3   -0.25    1.17
   4   5   3    1.25    1.22
   4   5   3    0.70    2.27
  -4  -5  -3    0.59    0.85
   4   5   3   -0.12    2.11
   4   5   3    1.03    1.61
  -4  -5  -4   65.78    5.28
   4   5   4  107.82   11.29
  -4  -5  -4   50.53    7.47
  -4  -5  -4   93.66    7.76
  -4  -5  -4   71.90    6.33
   4   5   4   63.36    4.95
   4   5   4   63.55    8.37
   4   5   4   60.32    6.20
   4   5   4   65.95    7.68
   4   5   4   60.01    6.13
  -4  -5  -4   70.98    4.63
  -4  -5  -4   74.45    8.42
  -4  -5  -5    2.73    1.31
   4   5   5    5.74    1.75
  -4  -5  -5    4.55    1.15
   4   5   5    3.61    1.36
  -4  -6   4   -0.36    0.46
  -4  -6   3   16.21    2.29
  -4  -6   3   13.23    2.45
  -4  -6   3   13.91    2.27
  -4  -6   2    4.76    1.68
  -4  -6   2    4.27    1.86
  -4  -6   2    3.45    1.28
  -4  -6   2    4.07    1.41
  -4  -6   2    4.17    1.58
   4   6  -1    5.26    1.83
  -4  -6   1    5.90    1.68
  -4  -6   1    4.43    1.39
  -4  -6   1    4.18    1.54
  -4  -6   1    3.05    1.41
  -4  -6   1    3.71    2.09
  -4  -6   0    5.73    2.02
  -4  -6   0    5.97    2.47
  -4  -6   0    7.27    1.89
  -4  -6   0    6.97    1.79
   4   6   0    5.84    2.12
  -4  -6  -1   57.52    4.60
  -4  -6  -1   65.84    4.65
  -4  -6  -1   73.14    5.58
  -4  -6  -1   56.97    5.67
   4   6   1   52.98    6.49
  -4  -6  -1   55.54    4.46
  -4  -6  -2    7.38    2.00
  -4  -6  -2    6.39    2.35
  -4  -6  -2   10.68    2.70
  -4  -6  -2    9.37    2.23
   4   6   2   10.14    3.26
   4   6   2    5.02    2.44
  -4  -6  -2    9.13    1.93
  -4  -6  -3  109.49    8.15
  -4  -6  -3  107.89    7.63
   4   6   3  112.99   11.92
  -4  -6  -3  143.24    9.52
   4   6   3  112.00   10.66
  -4  -6  -3  124.21    6.83
   4   6   3  116.76   10.01
  -4  -6  -4    1.54    0.89
  -4  -6  -4    2.24    1.29
   4   6   4    4.95    2.78
  -4  -6  -4    2.34    1.51
   4   6   4    2.42    0.89
   4   6   4    2.94    1.71
   4   6   4    0.28    1.58
  -4  -6  -4    1.92    0.90
  -4  -7   3    0.05    0.58
  -4  -7   3    0.10    0.47
  -4  -7   2    0.77    0.68
  -4  -7   2   -0.02    0.67
  -4  -7   2    0.06    0.62
  -4  -7   2    0.83    1.02
  -4  -7   2    1.61    1.11
  -4  -7   1   30.60    3.81
  -4  -7   1   28.03    3.44
  -4  -7   1   23.96    3.22
  -4  -7   0  442.87   14.43
  -4  -7   0  453.21   13.68
  -4  -7  -1   20.29    3.38
  -4  -7  -1   22.31    5.28
  -4  -7  -1   24.66    3.48
  -4  -7  -1   25.30    3.09
  -4  -7  -2   53.34    5.69
  -4  -7  -2   64.44    4.89
  -4  -7  -2   58.39    5.21
   4   7   2   65.12    9.01
   4   7   2   62.13    7.77
  -4  -7  -3    0.34    0.96
   4   7   3    1.29    2.47
  -4  -7  -3    0.55    1.26
   4   7   3   -1.61    2.14
   4   7   3   -0.11    1.69
   4   7   3   -0.54    1.87
  -4  -7  -4    1.83    0.77
  -4  -7  -4    3.03    1.05
   4   7   4    2.85    1.96
   4   7   4    2.73    1.09
   4   7   4    2.83    1.56
   4   7   4    2.27    1.13
  -4  -8   2   39.69    2.93
  -4  -8   2   39.85    2.76
  -4  -8   1   79.64    5.54
  -4  -8   1   77.81    5.09
  -4  -8   0  216.84    9.73
  -4  -8   0  215.46    8.85
  -4  -8  -1    7.91    1.84
  -4  -8  -1   12.45    2.41
  -4  -8  -1   10.78    1.94
  -4  -8  -2    1.70    1.08
   4   8   2    0.65    1.92
   4   8   3    8.11    2.61
  -4  -8  -3    8.16    1.75
   4   8   3    6.32    2.10
   4   8   3    6.48    2.05
   4   8   3    7.62    2.37
  -4  -9   1    8.71    1.46
  -4  -9   1    8.25    1.35
  -4  -9   0   52.89    4.08
  -4  -9   0   51.60    3.58
  -4  -9  -1    8.77    1.36
  -4  -9  -1    8.40    1.60
   4   9   1    8.07    2.51
  -4  -9  -2   20.04    2.08
   4   9   2   19.80    3.46
   4   9   2   23.88    3.51
   4   9   3   87.00    4.10
  -4  -9  -3  100.66    3.71
   4   9   3   86.32    4.81
   4   9   3   98.67    5.15
  -4 -10   0    9.86    1.13
  -5   9   3   15.56    1.47
  -5   9   3   15.67    1.69
   5  -9  -3   14.39    1.39
  -5   9   3   15.16    1.90
  -5   9   3   14.19    1.47
  -5   9   2    1.14    0.97
  -5   9   2   -0.47    0.67
   5  -9  -2    1.63    0.67
  -5   9   2    1.94    1.26
  -5   9   2    0.68    1.00
  -5   9   1   36.81    3.08
   5  -9   1    0.51    1.42
  -5   8   4    1.15    0.50
   5  -8  -4    1.04    0.47
  -5   8   4    1.69    0.72
  -5   8   3   11.57    1.93
  -5   8   3   13.61    2.28
   5  -8  -3   12.63    1.88
  -5   8   3   11.21    2.55
   5  -8  -3   12.96    4.22
  -5   8   3   12.35    2.16
  -5   8   3   11.00    1.88
  -5   8   2    2.75    1.37
  -5   8   2    6.78    1.69
   5  -8  -2    8.48    1.70
  -5   8   2    7.43    2.29
   5  -8  -1   13.75    2.21
   5  -8   0  234.76    9.81
   5  -8   1   -0.24    1.74
  -5   7   4    1.57    0.84
  -5   7   4    1.44    0.83
   5  -7  -4    2.03    0.79
   5  -7  -4    3.03    1.56
  -5   7   4    2.26    1.16
  -5   7   4    1.59    1.15
   5  -7  -4    2.45    2.17
   5  -7  -4   -2.61    3.04
  -5   7   3   55.13    4.92
  -5   7   3   57.37    5.11
   5  -7  -3   64.20    4.88
   5  -7  -3   44.63    5.53
  -5   7   3   52.81    6.21
   5  -7  -3   41.82    7.45
  -5   7   3   54.11    4.63
   5  -7  -3   47.58    8.26
  -5   7   3   54.86    5.54
  -5   7   2   94.99    6.71
   5  -7  -2   98.01    6.29
  -5   7   2   85.74    8.40
  -5   7   2  100.44    7.60
   5  -7  -2   89.68   12.32
   5  -7  -1  198.06    8.13
   5  -7  -1  196.52    8.82
  -5   7   1  182.02   11.51
   5  -7   0  198.79    9.47
   5  -7   1   42.33    4.49
   5  -7   2    1.59    2.68
   5  -6  -5   35.70    3.95
  -5   6   5   42.12    2.46
   5  -6  -4  224.92    9.38
  -5   6   4  233.84   10.43
  -5   6   4  239.21    8.41
  -5   6   4  238.55    8.74
   5  -6  -4  254.05    8.43
   5  -6  -4  259.49   13.27
  -5   6   4  261.94   11.93
   5  -6  -4  253.67   15.82
  -5   6   4  238.28   10.61
   5  -6  -4  233.35   16.12
   5  -6  -3  857.28   21.26
  -5   6   3  758.38   19.32
  -5   6   3  736.90   18.82
   5  -6  -3  889.67   19.54
   5  -6  -3  834.00   26.27
  -5   6   3  840.14   25.70
   5  -6  -3  766.95   31.09
  -5   6   3  792.43   22.71
   5  -6  -3  821.84   33.75
  -5   6   3  757.37   17.94
  -5   6   2   21.80    3.44
   5  -6  -2   21.42    3.58
  -5   6   2   30.78    3.58
  -5   6   2   28.19    5.26
  -5   6   2   19.46    6.80
   5  -6  -2   21.65    3.15
   5  -6  -2   34.72    4.01
   5  -6  -2   20.74    4.17
  -5   6   2   27.10    3.22
  -5   6   2   26.91    3.22
   5  -6  -2   25.85    3.10
  -5   6   2   26.65    3.20
  -5   6   2   28.99    4.84
   5  -6  -2   20.00    5.62
  -5   6   2   22.15    3.75
   5  -6  -2   20.20    5.61
   5  -6  -1   28.28    5.23
   5  -6  -1   29.20    3.25
   5  -6  -1   28.12    3.78
   5  -6  -1   25.24    3.06
  -5   6   1   30.29    4.86
  -5   6   1   28.53    6.81
  -5   6   1   27.43    3.16
  -5   6   1   27.27    3.40
  -5   6   1   29.81    3.34
   5  -6  -1   22.04    6.45
   5  -6  -1   15.42    4.96
   5  -6   0  528.63   19.30
   5  -6   0  536.46   25.89
   5  -6   0  677.62   15.29
   5  -6   0  603.24   15.91
  -5   6   0  635.30   13.56
  -5   6   0  669.25   30.70
  -5   6   0  712.93   16.60
   5  -6   1    2.34    2.66
   5  -6   1    8.14    2.88
   5  -6   1    7.40    2.00
  -5   6  -1    6.98    2.70
  -5   6  -1    8.88    2.04
   5  -6   3    2.77    1.24
   5  -5  -5    0.14    1.24
  -5   5   5   -0.33    0.65
   5  -5  -5    0.22    1.55
   5  -5  -5   -1.56    1.94
  -5   5   5    0.73    0.78
   5  -5  -4   54.31    4.93
  -5   5   4   38.55    3.67
   5  -5  -4   35.34    5.66
  -5   5   4   41.20    5.39
  -5   5   4   37.50    3.74
   5  -5  -4   48.04    6.76
   5  -5  -4   47.74    3.93
  -5   5   4   40.63    5.20
   5  -5  -4   46.99    8.62
  -5   5   4   41.51    5.00
   5  -5  -4   55.92    8.43
  -5   5   3   20.45    2.71
  -5   5   3   17.45    3.91
  -5   5   3   16.60    2.89
  -5   5   3   16.42    2.96
  -5   5   3   20.66    4.52
   5  -5  -3   18.80    3.31
   5  -5  -3   15.92    3.89
   5  -5  -3   26.18    5.42
   5  -5  -3   18.45    2.90
   5  -5  -3   21.86    3.05
   5  -5  -3   20.28    3.14
  -5   5   3   20.01    3.15
  -5   5   3   23.37    3.42
  -5   5   3   21.38    4.45
  -5   5   3   24.87    3.51
   5  -5  -3   13.71    4.19
  -5   5   3   13.99    3.29
  -5   5   3   17.42    2.92
   5  -5  -3   26.75    6.31
   5  -5  -3   20.82    6.06
  -5   5   2   31.67    3.29
   5  -5  -2   31.05    5.31
  -5   5   2   27.43    4.77
   5  -5  -2   26.23    3.59
  -5   5   2   21.94    7.27
  -5   5   2   23.72    3.37
   5  -5  -2   30.50    3.53
   5  -5  -2   27.58    4.76
   5  -5  -2   34.53    3.59
  -5   5   2   31.27    3.51
  -5   5   2   35.02    3.67
  -5   5   2   25.91    4.45
  -5   5   2   30.70    3.46
   5  -5  -2   27.58    3.26
   5  -5  -2   30.12    5.88
   5  -5  -2   32.44    6.96
  -5   5   2   26.12    4.08
   5  -5  -2   31.06    4.66
  -5   5   1  207.64   11.30
  -5   5   1  238.53    8.41
  -5   5   1  228.37   17.53
   5  -5  -1  271.64    9.80
   5  -5  -1  226.79    7.25
  -5   5   1  249.78    7.77
   5  -5  -1  230.56    7.27
  -5   5   1  251.61    7.82
  -5   5   1  251.59    7.83
  -5   5   1  243.38    8.22
   5  -5   0  154.44   11.93
   5  -5   0  150.17    8.57
  -5   5   0  171.35    6.42
  -5   5   0  170.07   13.88
  -5   5   0  188.42    7.65
   5  -5   1   22.51    6.11
   5  -5   1   22.79    4.34
   5  -5   1   36.95    3.85
   5  -5   1   43.34    3.66
  -5   5  -1   45.54    4.04
  -5   5  -1   38.39    6.07
  -5   5  -1   32.15    6.22
  -5   5  -2  679.75   33.25
  -5   5  -2  664.24   29.86
  -5   5  -2  643.08   28.97
  -5   5  -2  752.79   17.09
   5  -5   3    0.54    1.67
   5  -5   4   -0.15    0.61
   5  -4  -5    3.81    1.83
  -5   4   5    1.69    1.78
   5  -4  -5    0.96    1.56
  -5   4   5    2.84    1.06
   5  -4  -5    2.75    1.99
  -5   4   5    3.52    1.15
   5  -4  -5    2.05    2.66
   5  -4  -4    6.21    1.89
  -5   4   4    3.23    1.32
   5  -4  -4    0.07    1.75
  -5   4   4    2.87    2.23
  -5   4   4    1.87    1.11
   5  -4  -4    2.08    2.66
  -5   4   4   -0.64    2.44
   5  -4  -4    4.15    1.25
  -5   4   4    1.66    2.10
   5  -4  -4    7.34    4.07
   5  -4  -4   -1.81    2.76
  -5   4   4    1.76    1.86
  -5   4   4    2.13    1.57
   5  -4  -4    0.55    1.31
   5  -4  -3   -0.91    0.78
  -5   4   3    0.29    1.36
  -5   4   3   -0.30    1.11
  -5   4   3    0.33    1.46
  -5   4   3   -0.54    1.08
  -5   4   3   -0.58    0.74
   5  -4  -3   -0.37    1.35
   5  -4  -3   -0.80    2.31
   5  -4  -3    0.08    0.73
   5  -4  -3   -0.97    0.88
  -5   4   3    0.27    0.70
  -5   4   3   -0.35    0.89
  -5   4   3   -0.52    1.46
  -5   4   3    0.34    0.75
   5  -4  -3    0.30    0.85
   5  -4  -3    0.21    2.26
  -5   4   3    0.29    1.32
   5  -4  -3    0.85    2.35
   5  -4  -3   -0.14    1.81
  -5   4   3    0.73    0.89
  -5   4   3    0.52    1.12
   5  -4  -3   -2.58    1.66
  -5   4   3    0.00    0.73
   5  -4  -3    1.15    3.73
  -5   4   2   34.36    7.94
  -5   4   2   42.87    3.49
  -5   4   2   44.51    5.52
   5  -4  -2   48.23    3.82
  -5   4   2   43.81    4.02
  -5   4   2   42.85    3.96
  -5   4   2   45.50    4.07
  -5   4   2   46.50    4.29
   5  -4  -2   42.38    3.97
   5  -4  -2   35.02    6.03
   5  -4  -2   42.99    5.25
  -5   4   1  148.79    8.55
  -5   4   1  157.29   13.49
  -5   4   1  159.29    6.12
  -5   4   1  173.53    6.20
  -5   4   1  166.29    6.08
  -5   4   1  161.81    5.99
   5  -4  -1  155.45    5.80
   5  -4  -1  165.93    9.49
  -5   4   1  149.66    5.56
  -5   4   0    1.34    0.97
  -5   4   0    0.91    0.56
  -5   4   0    2.50    2.66
   5  -4   0    1.29    0.94
   5  -4   0    1.03    1.48
   5  -4   0    0.57    0.49
  -5   4   0    0.56    0.54
   5  -4   0    0.59    0.55
  -5   4   0    0.43    0.44
  -5   4   0    1.06    0.74
   5  -4   1  145.07    9.77
   5  -4   1  150.39   13.22
  -5   4  -1  232.46    6.25
  -5   4  -1  241.78    8.21
  -5   4  -1  247.53   15.25
  -5   4  -2  215.49   17.87
  -5   4  -2  194.59   15.73
  -5   4  -2  192.98   15.18
  -5   4  -2  186.18    7.93
   5  -4   3    3.74    2.29
   5  -4   3    1.31    1.19
   5  -4   4    2.22    1.50
   5  -4   4    1.67    0.88
   5  -3  -5    9.12    3.19
   5  -3  -5   13.62    3.32
  -5   3   5   21.74    4.65
  -5   3   5   12.71    2.04
   5  -3  -5   11.09    3.71
   5  -3  -5    6.04    1.83
   5  -3  -5   10.93    4.43
  -5   3   5   13.95    2.02
   5  -3  -4   17.51    3.06
  -5   3   4   15.33    3.84
  -5   3   4   11.19    2.08
   5  -3  -4   12.05    4.90
   5  -3  -4   18.76    4.91
  -5   3   4   13.92    3.19
  -5   3   4   13.17    3.00
  -5   3   4   12.94    3.13
   5  -3  -4   20.28    7.12
   5  -3  -4    9.98    3.24
   5  -3  -4   18.26    6.06
  -5   3   3   38.26    3.82
   5  -3  -3   41.31    4.54
  -5   3   3   41.23    5.69
  -5   3   3   40.26    5.51
   5  -3  -3   43.19    6.28
  -5   3   3   41.21    3.99
   5  -3  -3   54.11    7.94
   5  -3  -3   47.81    4.07
   5  -3  -3   54.35    4.13
  -5   3   3   34.58    4.72
  -5   3   3   50.63    4.96
  -5   3   3   47.73    4.65
   5  -3  -3   45.18    4.57
  -5   3   3   47.62    4.65
  -5   3   3   49.31    4.76
  -5   3   3   39.47    5.05
   5  -3  -3   44.69    7.92
   5  -3  -3   59.43    9.99
  -5   3   3   40.19    4.79
   5  -3  -3   62.92    9.56
   5  -3  -3   37.59    6.00
  -5   3   2  211.65   17.09
   5  -3  -2  204.06   10.75
  -5   3   2  203.78    6.60
  -5   3   2  202.52   10.44
   5  -3  -2  167.72    8.93
   5  -3  -2  226.46    7.31
  -5   3   2  221.17    8.41
   5  -3  -2  215.33    8.32
  -5   3   2  220.97    8.40
  -5   3   2  219.45    8.40
  -5   3   2  217.99    8.66
   5  -3  -2  204.65   13.65
   5  -3  -2  182.10   10.74
  -5   3   1  422.34   12.63
  -5   3   1  478.05    9.24
   5  -3  -1  390.26    9.33
   5  -3  -1  530.43    9.94
  -5   3   1  483.06    9.72
  -5   3   1  486.04    9.72
  -5   3   1  490.34    9.77
   5  -3  -1  481.06    9.60
  -5   3   1  479.87   21.08
  -5   3   1  451.39    8.22
   5  -3  -1  386.22   15.37
   5  -3  -1  437.63   13.46
  -5   3   0   10.76    1.73
  -5   3   0   11.51    1.34
  -5   3   0   11.25    3.03
   5  -3   0    9.10    2.33
   5  -3   0    8.08    1.54
   5  -3   0   11.28    1.26
  -5   3   0   10.95    1.30
   5  -3   0   11.10    1.21
  -5   3   0   11.00    1.32
  -5   3   0   10.31    1.22
  -5   3   0    8.64    1.29
  -5   3  -1    8.26    1.15
  -5   3  -1    8.23    3.27
   5  -3   1    5.13    2.83
   5  -3   1    7.43    2.31
   5  -3   1    4.33    1.24
   5  -3   1    4.05    1.36
   5  -3   1    4.17    1.27
  -5   3  -1    5.66    1.41
  -5   3  -1    8.72    1.45
  -5   3  -2    1.36    2.60
  -5   3  -2   -0.62    2.36
  -5   3  -2    1.96    0.81
  -5   3  -2    2.70    2.51
  -5   3  -3    0.97    2.90
  -5   3  -3    1.51    2.68
   5  -3   3   -5.17   10.80
   5  -3   3    4.28    2.58
   5  -3   3    3.43    1.69
  -5   3  -3    0.11    4.61
  -5   3  -3   13.63    4.85
   5  -3   4    2.49    7.71
   5  -3   4   -0.27    1.34
   5  -3   4    0.63    1.17
   5  -2  -5    1.45    2.16
  -5   2   5   12.01    4.00
   5  -2  -5    6.98    2.54
  -5   2   5    5.90    1.43
   5  -2  -5    5.19    2.50
   5  -2  -5    3.18    1.65
   5  -2  -5    4.13    3.37
  -5   2   4  293.80   15.02
   5  -2  -4  344.89   20.77
  -5   2   4  284.09   12.69
   5  -2  -4  421.78   30.04
  -5   2   4  275.85   11.85
   5  -2  -4  361.46   24.49
  -5   2   3   15.27    3.56
   5  -2  -3   17.72    4.08
  -5   2   3   17.12    3.51
   5  -2  -3   15.81    4.64
   5  -2  -3   20.12    5.05
   5  -2  -3   17.45    2.78
  -5   2   3   16.53    3.28
  -5   2   3   19.41    2.82
  -5   2   3   21.48    3.12
  -5   2   3   18.48    2.73
  -5   2   3   19.49    2.78
  -5   2   3   14.93    3.12
   5  -2  -3   21.39    6.97
   5  -2  -3   17.51    4.75
  -5   2   3   17.55    3.06
   5  -2  -3   14.71    5.25
  -5   2   2   32.10    3.92
   5  -2  -2   29.27    2.49
   5  -2  -2   33.39    4.51
  -5   2   2   27.93    2.11
  -5   2   2   23.12    6.08
   5  -2  -2   33.42    2.51
  -5   2   2   34.57    3.15
   5  -2  -2   35.21    3.20
  -5   2   2   36.72    3.24
  -5   2   2   35.54    3.32
  -5   2   2   35.15    3.18
   5  -2  -2   29.63    4.85
   5  -2  -2   34.77    5.77
  -5   2   1  299.18    9.40
   5  -2  -1  281.28    5.20
  -5   2   1  312.78   15.72
  -5   2   1  294.43    6.20
   5  -2  -1  349.22    6.83
   5  -2  -1  223.77    7.94
   5  -2  -1  308.79    7.12
  -5   2   1  345.96    7.48
  -5   2   1  334.08    7.36
  -5   2   1  332.90    7.44
   5  -2  -1  303.51   12.38
  -5   2   1  277.79    5.43
   5  -2  -1  293.78   10.61
   5  -2   0   45.68    2.76
  -5   2   0   41.00    2.53
  -5   2   0   48.29    2.32
   5  -2   0   60.75    4.24
   5  -2   0   42.02    3.81
   5  -2   0   47.39    3.21
  -5   2   0   45.19    2.27
  -5   2   0   48.56    2.45
   5  -2   0   49.98    2.34
   5  -2   0   47.75    2.34
  -5   2   0   46.69    2.42
  -5   2   0   51.40    5.06
  -5   2   0   43.65    2.42
   5  -2   0   39.30    4.35
  -5   2  -1  153.96    4.36
   5  -2   1   84.73    6.32
   5  -2   1   98.40    8.56
   5  -2   1  147.49    6.25
   5  -2   1  144.02    6.48
  -5   2  -1  139.78    6.20
   5  -2   1  140.72    5.97
  -5   2  -1  148.07   10.18
  -5   2  -1  159.65    5.23
  -5   2  -1  132.88    8.21
  -5   2  -2   39.76    6.92
   5  -2   2   40.59    9.70
   5  -2   2   24.89    3.53
   5  -2   2   25.76    3.44
   5  -2   2   25.67    3.54
   5  -2   2   21.61    3.37
  -5   2  -2   39.76    3.04
  -5   2  -2   39.56    6.20
   5  -2   2   26.38    3.50
   5  -2   3   -0.15    4.10
   5  -2   3   14.39    4.02
   5  -2   3    1.75    8.55
   5  -2   3    9.00    2.61
  -5   2  -3    9.85    4.77
  -5   2  -3    8.14    3.19
  -5   2  -3   11.63    5.37
   5  -2   4   -1.09    7.73
   5  -2   4    0.21    1.54
   5  -2   4   -0.07    0.99
  -5   2  -4    0.86    1.28
   5  -2   5   16.57    2.25
   5  -2   5   15.72    1.84
   5  -1  -5   21.19    3.66
  -5   1   5   15.66    2.10
   5  -1  -5   16.10    4.58
   5  -1  -5   14.47    5.58
   5  -1  -5   11.34    3.74
  -5   1   4   14.86    3.51
   5  -1  -4   21.61    5.30
  -5   1   4   17.72    3.11
   5  -1  -4   15.48    6.19
  -5   1   4   17.20    2.85
   5  -1  -4   12.74    7.90
  -5   1   3    0.75    0.50
   5  -1  -3    1.92    1.77
   5  -1  -3    3.01    2.37
  -5   1   3    1.55    1.14
   5  -1  -3    2.22    1.10
  -5   1   3    1.79    0.94
  -5   1   3    2.67    1.21
  -5   1   3    3.20    1.17
   5  -1  -3    1.40    2.64
   5  -1  -3    0.09    2.12
   5  -1  -2   64.72    5.79
  -5   1   2   65.08    2.64
  -5   1   2   64.49    5.16
  -5   1   2   53.72    8.38
   5  -1  -2   74.68    7.71
   5  -1  -2   66.06    2.92
   5  -1  -2   52.40    3.93
  -5   1   2   67.30    3.91
  -5   1   2   65.11    3.86
  -5   1   2   66.33    3.88
  -5   1   2   71.52    4.22
   5  -1  -2   66.68    3.99
   5  -1  -2   58.45    6.79
   5  -1  -2   56.75    7.33
  -5   1   1   28.18    2.67
  -5   1   1   27.74    4.90
   5  -1  -1   26.34    1.92
  -5   1   1   27.49    1.63
   5  -1  -1   26.53    3.11
   5  -1  -1   32.73    1.70
  -5   1   1   29.83    2.05
  -5   1   1   29.87    2.03
  -5   1   1   29.05    2.00
   5  -1  -1   31.04    2.09
   5  -1  -1   21.96    3.25
   5  -1  -1   28.46    3.79
  -5   1   1   25.84    1.44
  -5   1   0  537.31    6.88
   5  -1   0  572.69    8.83
   5  -1   0  410.35    9.62
   5  -1   0  414.97    8.72
   5  -1   0  559.78   11.87
  -5   1   0  514.65    7.62
   5  -1   0  507.26    7.29
   5  -1   0  508.28    7.49
  -5   1   0  512.27    7.69
  -5   1   0  476.34    7.24
  -5   1   0  570.11   14.40
   5  -1   0  579.30   12.47
   5  -1   1  438.47   11.25
  -5   1  -1  453.64    7.37
  -5   1  -1  398.67    3.33
   5  -1   1  432.66   10.77
   5  -1   1  424.20   11.27
   5  -1   1  437.24   10.62
  -5   1  -1  452.46   11.13
  -5   1  -1  424.31    7.84
  -5   1  -1  433.49   13.89
  -5   1  -2   34.74    6.26
   5  -1   2   33.30    4.14
   5  -1   2   35.49    4.24
   5  -1   2   34.30    4.12
   5  -1   2   32.29    4.17
  -5   1  -2   33.28    5.46
  -5   1  -2   37.28    2.80
   5  -1   2   30.46    3.97
  -5   1  -2   40.11    7.49
   5  -1   3   13.27   10.65
   5  -1   3   23.29    4.24
   5  -1   3   19.85    3.88
  -5   1  -3   17.34    5.57
   5  -1   3   19.21    3.82
  -5   1  -3   21.62    7.12
  -5   1  -3   20.75    5.37
  -5   1  -4    0.29    1.37
   5  -1   4    0.29    1.58
   5  -1   4   -3.03    9.92
   5  -1   4    0.53    2.03
  -5   1  -4   -0.07    0.75
  -5   1  -5    1.15    1.33
   5  -1   5   -1.64    4.97
   5  -1   5    2.57    1.12
   5  -1   5    3.51    1.26
  -5   0   5    0.31    2.14
  -5   0   5    0.02    0.75
  -5   0   5    1.00    0.59
   5   0  -5   -1.04    3.61
   5   0  -4   23.00    5.23
  -5   0   4   18.56    2.80
  -5   0   4   19.33    3.00
   5   0  -4   13.50    6.10
   5   0  -3   32.25    5.30
  -5   0   3   35.12    2.79
   5   0  -3   38.07    7.89
  -5   0   3   41.21    3.18
  -5   0   3   43.34    3.29
  -5   0   3   43.54    3.29
   5   0  -3   42.54    3.42
   5   0  -3   33.38    6.98
   5   0  -3   29.13    6.50
   5   0  -2   63.11    5.57
  -5   0   2   67.24    3.42
   5   0  -2   83.10    8.52
  -5   0   2   79.25    3.68
  -5   0   2   77.11    3.65
   5   0  -2   72.18    3.69
  -5   0   2   75.29    3.59
   5   0  -2   72.80    7.78
   5   0  -2   62.61    7.51
  -5   0   1 1052.68    9.14
   5   0  -1 1028.68   13.59
   5   0  -1 1011.13   13.39
  -5   0   1  925.53   10.41
  -5   0   1 1058.31   24.09
   5   0  -1  956.08    7.28
   5   0  -1  998.13   19.91
   5   0  -1 1108.31   10.87
   5   0  -1 1117.60   10.96
  -5   0   1 1122.61   10.69
  -5   0   1 1123.19   10.68
  -5   0   1 1122.29   10.61
   5   0  -1 1005.04   20.70
   5   0  -1  988.04   19.68
  -5   0   1 1017.60    8.58
  -5   0   0  125.23    3.39
  -5   0   0  135.45    3.17
   5   0   0  137.53    4.15
   5   0   0  109.76    5.14
   5   0   0  116.14    3.85
  -5   0   0  124.27    3.91
  -5   0   0  124.57    3.94
   5   0   0  135.12    4.58
   5   0   0  125.39    3.87
  -5   0   0  144.39    6.20
  -5   0   0  125.54    3.65
  -5   0   0  124.18    4.88
   5   0   0  137.90    5.12
  -5   0  -1  629.84    6.93
   5   0   1  663.13   12.93
  -5   0  -1  653.25    9.43
   5   0   1  541.45    5.02
   5   0   1  755.53   19.44
   5   0   1  599.89   14.00
  -5   0  -1  650.30   14.08
   5   0   1  628.26   13.63
   5   0   1  614.08   14.37
   5   0   1  633.26   13.50
  -5   0  -1  682.28    9.81
  -5   0  -1  608.83   16.02
  -5   0  -2   24.35    5.09
   5   0   2   29.35    4.27
   5   0   2   30.18    4.09
   5   0   2   30.71    4.06
   5   0   2   27.77    4.13
  -5   0  -2   30.90    2.49
   5   0   2   27.34    4.05
  -5   0  -2   27.27    4.73
  -5   0  -2   29.92    6.06
   5   0   3    1.07    1.36
   5   0   3    0.85    2.07
  -5   0  -3   -1.13    3.63
   5   0   3   -9.99    4.36
   5   0   3    0.55    1.22
   5   0   3    0.51    1.33
   5   0   3    0.34    1.29
   5   0   3    1.25    1.31
   5   0   3    1.41    1.27
  -5   0  -3    0.16    1.81
  -5   0  -3   -7.36    4.13
   5   0   3    0.16    1.30
  -5   0  -3    3.44    2.46
   5   0   4    1.01    7.47
   5   0   4    4.91    3.18
   5   0   4   11.55    3.59
   5   0   4    6.88    2.87
  -5   0  -4   12.17    3.72
  -5   0  -4   11.26    2.40
  -5   0  -5   18.02    3.41
   5   0   5   20.67    2.66
   5   0   5   18.82    7.27
   5   0   5   26.46    3.33
  -5  -1   5    8.35    1.36
  -5  -1   5    7.68    1.29
  -5  -1   4   21.79    6.80
  -5  -1   4   17.44    3.17
  -5  -1   4   15.09    2.54
   5   1  -3    8.88    4.23
  -5  -1   3    9.09    2.38
  -5  -1   3    7.68    2.05
  -5  -1   3    7.51    1.79
   5   1  -3    8.16    3.99
   5   1  -3    8.34    4.29
  -5  -1   2  415.39    7.96
   5   1  -2  379.45   12.92
   5   1  -2  476.54   20.73
  -5  -1   2  433.79    7.14
   5   1  -2  469.98    7.87
   5   1  -2  464.48    7.74
  -5  -1   2  443.03    7.34
  -5  -1   2  451.11    7.34
   5   1  -2  366.49   18.32
   5   1  -2  412.66   19.57
  -5  -1   1   48.46    2.10
  -5  -1   1   46.34    2.31
   5   1  -1   43.76    2.18
   5   1  -1   39.38    3.18
   5   1  -1   45.08    4.63
  -5  -1   1   47.69    2.12
  -5  -1   1   45.55    2.09
   5   1  -1   51.47    2.24
   5   1  -1   46.82    2.10
   5   1  -1   47.30    4.41
   5   1  -1   44.78    4.61
   5   1   0  359.88    7.02
  -5  -1   0  415.01    6.03
  -5  -1   0  378.21    6.78
  -5  -1   0  348.27    6.38
   5   1   0  358.33    9.30
   5   1   0  360.68    8.46
  -5  -1   0  363.54    7.60
  -5  -1   0  380.02    7.79
   5   1   0  372.59    7.78
   5   1   0  368.17    7.95
  -5  -1   0  393.03    6.88
  -5  -1   0  320.75    7.66
  -5  -1   0  384.43    8.60
   5   1   0  371.90    7.24
  -5  -1  -1   36.45    2.18
   5   1   1   39.85    3.14
  -5  -1  -1   31.36    3.89
   5   1   1   37.52    2.21
   5   1   1   46.58    4.90
   5   1   1   36.21    3.85
   5   1   1   34.11    3.81
   5   1   1   35.81    3.70
  -5  -1  -1   30.67    3.40
   5   1   1   37.29    3.70
  -5  -1  -1   29.07    3.59
  -5  -1  -1   36.55    2.41
  -5  -1  -1   29.80    3.78
  -5  -1  -2   77.09    8.15
   5   1   2   88.07    7.18
   5   1   2   84.09    6.99
   5   1   2   85.16    6.91
   5   1   2   89.53    7.33
   5   1   2   80.43    6.91
  -5  -1  -2   85.27    4.12
  -5  -1  -2   70.46    7.45
  -5  -1  -2   70.61    8.29
  -5  -1  -3   77.68    8.57
   5   1   3  108.10    9.29
  -5  -1  -3   88.78   11.02
   5   1   3   97.92    9.21
   5   1   3   95.48   11.56
   5   1   3   98.91    8.98
   5   1   3   97.32    8.88
   5   1   3  100.77    8.88
   5   1   3   98.08    8.86
  -5  -1  -3   85.07    6.05
  -5  -1  -3   92.13   10.25
  -5  -1  -3   93.87   12.15
   5   1   3   95.11    8.63
   5   1   3   82.87    8.19
   5   1   4  574.85   27.36
   5   1   4  406.76   39.16
   5   1   4  563.88   20.78
   5   1   4  527.13   19.51
   5   1   4  492.31   20.23
  -5  -1  -4  499.60   22.37
  -5  -1  -4  458.25   20.64
   5   1   4  467.95   19.92
  -5  -1  -4  460.30   14.06
   5   1   4  537.00   19.42
  -5  -1  -5  104.42    7.72
  -5  -1  -5  103.62    6.10
   5   1   5  116.28   15.43
   5   1   5  133.77    7.59
  -5  -1  -5  114.85   13.04
   5   2  -5    1.41    1.71
  -5  -2   5    0.06    0.42
  -5  -2   5    1.88    0.97
  -5  -2   5    1.70    0.73
  -5  -2   5   -1.50    0.69
   5   2  -5   -0.10    1.70
  -5  -2   4   16.24    3.08
  -5  -2   4   17.90    2.81
  -5  -2   4   15.36    2.57
   5   2  -3  906.62   26.04
  -5  -2   3 1042.61   24.23
   5   2  -3 1090.51   40.78
  -5  -2   3  943.31   19.41
   5   2  -3  965.97   39.52
   5   2  -3  902.66   37.62
   5   2  -2   38.68    6.13
  -5  -2   2   38.15    2.49
   5   2  -2   36.50    6.44
   5   2  -2   37.75    6.38
  -5  -2   1  442.71    7.54
   5   2  -1  410.28   10.42
   5   2  -1  389.19   13.28
  -5  -2   1  376.78    6.72
  -5  -2   1  360.55    6.55
   5   2  -1  385.23    6.99
   5   2  -1  406.25    7.95
   5   2  -1  382.52    7.19
   5   2  -1  404.60   12.85
   5   2  -1  389.91   14.05
  -5  -2   0  145.28    4.29
   5   2   0  132.89    4.42
   5   2   0  117.08    5.55
   5   2   0  122.00    5.84
   5   2   0  131.24    5.95
   5   2   0  121.27    5.43
  -5  -2   0  138.72    5.54
   5   2   0  126.00    5.64
   5   2   0  113.53    3.22
  -5  -2   0  115.40    4.70
   5   2   1  463.51    9.54
   5   2   1  450.76   10.45
  -5  -2  -1  368.51   12.01
  -5  -2  -1  432.71    8.80
   5   2   1  509.72   15.73
   5   2   1  435.46   13.50
   5   2   1  453.75   13.62
   5   2   1  443.18   13.93
   5   2   1  466.43   14.58
  -5  -2  -1  407.63   10.33
  -5  -2  -1  465.98    8.88
  -5  -2  -1  385.77   13.11
   5   2   2 1080.32   25.91
   5   2   2 1060.90   25.62
   5   2   2 1060.88   25.20
   5   2   2 1054.67   26.02
  -5  -2  -2 1002.05   14.68
  -5  -2  -2  987.55   27.01
  -5  -2  -2  995.01   27.76
   5   2   2 1052.58   25.73
   5   2   3  212.12   14.06
  -5  -2  -3  204.62   13.70
  -5  -2  -3  188.70   15.60
   5   2   3  222.21   13.63
   5   2   3  213.50   13.68
   5   2   3  216.28   17.51
   5   2   3  199.54   25.49
   5   2   3  203.28   13.09
   5   2   3  202.06   13.33
   5   2   3  205.36   13.25
   5   2   3  208.50   13.13
  -5  -2  -3  210.67   10.48
  -5  -2  -3  197.96   14.60
   5   2   3  217.59   13.55
  -5  -2  -3  201.57    9.19
   5   2   3  200.09   12.74
  -5  -2  -3  196.57   16.12
   5   2   3  203.47   13.28
  -5  -2  -4   51.76    7.11
   5   2   4   66.49    7.83
  -5  -2  -4   61.20    7.63
   5   2   4   62.34    7.54
   5   2   4   51.15   15.34
   5   2   4   61.79    9.48
  -5  -2  -4   68.87    5.62
   5   2   4   51.84    6.85
   5   2   4   55.08    6.90
  -5  -2  -4   54.48    4.82
  -5  -2  -5    4.73    1.94
   5   2   5    0.14    0.38
  -5  -2  -5    7.92    1.92
   5   2   5    8.66    6.18
   5   2   5    7.45    2.05
  -5  -2  -5    1.18    2.08
  -5  -2  -5    5.12    3.42
  -5  -3   5   81.10    3.35
  -5  -3   4   79.40    5.24
  -5  -3   4   62.21    5.97
  -5  -3   4   72.11    5.05
   5   3  -3  162.86   11.60
   5   3  -3  185.84   15.96
  -5  -3   3  173.34   10.41
  -5  -3   3  169.39    8.26
   5   3  -3  149.95   15.70
   5   3  -2  150.33   12.24
  -5  -3   2  169.86    5.94
   5   3  -2  156.20    9.03
   5   3  -2  142.85   12.51
  -5  -3   1    2.66    1.89
   5   3  -1    3.42    1.47
   5   3  -1    7.22    1.67
   5   3  -1    6.33    2.35
  -5  -3   0   15.73    1.82
   5   3   0    9.95    1.40
   5   3   0    9.78    1.78
  -5  -3   0   10.90    1.22
   5   3   0   11.83    2.28
   5   3   0   12.98    2.27
   5   3   0   14.02    2.26
   5   3   0   11.35    2.06
  -5  -3  -1 1146.57   17.04
   5   3   1 1267.30   18.99
  -5  -3  -1 1262.20   19.96
   5   3   1 1152.41   17.37
   5   3   1 1373.19   26.86
   5   3   1 1186.05   24.11
   5   3   1 1217.46   24.78
   5   3   1 1133.54   23.33
   5   3   1 1162.75   23.37
   5   3   1 1199.23   24.14
  -5  -3  -1 1315.29   23.93
  -5  -3  -2  953.08   26.78
   5   3   2 1070.89   22.76
   5   3   2  997.96   26.24
   5   3   2 1068.35   27.19
   5   3   2 1011.12   26.05
   5   3   2 1015.17   26.87
   5   3   2 1013.93   26.78
  -5  -3  -2 1000.48   27.18
   5   3   3   35.88    6.33
  -5  -3  -3   38.99    6.93
   5   3   3   33.51    5.69
  -5  -3  -3   36.60    5.77
  -5  -3  -3   32.50    5.27
   5   3   3   36.12    5.74
   5   3   3   33.69    7.72
   5   3   3   33.39   11.74
  -5  -3  -3   34.04    4.58
   5   3   3   25.67    7.93
  -5  -3  -3   37.45    4.54
   5   3   3   38.31    5.95
   5   3   3   35.94    5.90
   5   3   3   33.33    5.67
   5   3   3   38.73    5.91
   5   3   3   33.63    5.62
   5   3   3   35.07    5.69
   5   3   3   40.06    6.22
  -5  -3  -3   39.51    6.49
  -5  -3  -3   38.55    4.03
   5   3   3   37.69    4.94
  -5  -3  -4  101.17    9.33
   5   3   4  106.72   10.46
  -5  -3  -4   79.75    8.17
   5   3   4   91.61    8.92
   5   3   4  108.64   12.41
   5   3   4   61.92   15.00
  -5  -3  -4  105.32    6.82
  -5  -3  -4   93.68    5.98
   5   3   4   99.07    9.69
   5   3   4   80.45    8.36
  -5  -3  -4   82.62   13.11
  -5  -3  -5    0.06    0.94
   5   3   5   -0.05    0.84
  -5  -3  -5    0.18    0.93
  -5  -3  -5   -1.84    2.37
   5   3   5    0.68    0.82
  -5  -3  -5    1.10    1.87
   5   3   5   -0.33    1.16
  -5  -4   4   34.55    4.03
  -5  -4   4   42.69    3.55
  -5  -4   4   38.76    3.40
  -5  -4   3   98.56    7.73
  -5  -4   3  119.93    6.89
  -5  -4   3  104.49    6.29
   5   4  -2  219.04   10.84
   5   4  -2  194.85   12.86
  -5  -4   2  230.87   10.96
  -5  -4   2  247.21    9.02
  -5  -4   2  283.53    9.85
  -5  -4   2  223.32    8.56
   5   4  -2  173.60   14.49
  -5  -4   1    2.06    2.41
   5   4  -1    0.18    0.71
   5   4  -1    0.62    0.92
  -5  -4   1    0.52    0.61
  -5  -4   0    5.69    1.85
  -5  -4   0    9.59    1.23
   5   4   0    6.15    1.17
  -5  -4   0    6.90    1.56
   5   4   1  221.72    9.34
   5   4   1  201.00    7.49
  -5  -4  -1  201.40    8.27
  -5  -4  -1  190.24    7.67
   5   4   1  221.27   10.96
   5   4   1  227.77   11.22
   5   4   1  212.92   10.66
   5   4   1  224.73   11.14
   5   4   1  220.72   11.10
  -5  -4  -2   36.67    4.81
   5   4   2   48.92    5.56
   5   4   2   44.32    5.87
   5   4   2   39.23    5.61
   5   4   2   41.98    5.79
   5   4   2   39.63    5.51
  -5  -4  -2   51.94    6.26
   5   4   2   36.62    5.45
   5   4   3   77.11    8.43
  -5  -4  -3   95.26    8.31
   5   4   3  106.15   11.34
  -5  -4  -3  104.60    9.41
   5   4   3   94.21    9.29
  -5  -4  -3   79.09    8.97
   5   4   3  104.28   12.75
  -5  -4  -3   86.21    7.36
   5   4   3   54.93   14.57
  -5  -4  -3  117.10    7.74
   5   4   3   84.51    8.97
   5   4   3  103.90   10.06
   5   4   3   95.91    9.43
   5   4   3  101.02    9.73
   5   4   3   97.29    9.52
   5   4   3   86.39    8.64
  -5  -4  -3  119.06   10.79
  -5  -4  -3  100.76    6.47
   5   4   3   99.98   10.25
   5   4   4    4.22    1.83
  -5  -4  -4    6.12    2.54
   5   4   4    4.03    3.31
  -5  -4  -4    8.69    3.15
  -5  -4  -4    9.38    2.13
   5   4   4    3.22    3.69
  -5  -4  -4   11.06    2.41
  -5  -4  -4   -0.16    2.77
   5   4   4    6.80    2.76
  -5  -4  -4    7.27    1.70
   5   4   4    3.80    2.35
  -5  -4  -5   14.60    2.21
   5   4   5   13.35    2.35
  -5  -4  -5   19.33    2.57
  -5  -4  -5   14.06    3.25
   5   4   5   10.01    1.75
  -5  -4  -5    9.14    2.40
   5   4   5   15.30    2.53
  -5  -5   4   14.64    1.89
  -5  -5   4   11.90    2.04
  -5  -5   4   14.58    1.88
  -5  -5   3   19.85    2.79
  -5  -5   3   20.18    3.53
  -5  -5   3   24.08    3.06
   5   5  -2   36.22    4.29
  -5  -5   2   41.58    3.92
  -5  -5   2   35.70    4.54
  -5  -5   2   45.60    4.21
  -5  -5   2   42.72    4.02
  -5  -5   2   46.88    4.19
   5   5  -1   21.41    2.68
  -5  -5   1   16.99    2.54
  -5  -5   1   23.49    2.88
  -5  -5   1   21.58    3.09
  -5  -5   1   25.98    3.18
  -5  -5   1   22.77    2.76
  -5  -5   1   24.63    3.20
   5   5   0    1.04    1.03
  -5  -5   0    2.92    1.43
  -5  -5   0    1.47    1.70
   5   5   1    9.72    2.48
  -5  -5  -1   10.28    1.85
   5   5   1   12.19    2.64
   5   5   1    9.66    2.46
   5   5   1   10.59    2.52
   5   5   1   10.69    2.63
  -5  -5  -2    3.80    1.41
   5   5   2    0.28    2.10
   5   5   2    3.35    1.83
  -5  -5  -2    5.11    2.03
  -5  -5  -2    3.81    1.75
   5   5   2    3.39    2.21
  -5  -5  -2    4.17    1.54
   5   5   2    6.34    2.65
   5   5   2    2.83    1.63
   5   5   2    3.66    1.92
  -5  -5  -2    5.25    1.88
   5   5   2    2.80    1.79
   5   5   2    4.92    2.57
  -5  -5  -2    3.99    1.39
   5   5   2    3.78    2.05
  -5  -5  -3   48.33    5.45
   5   5   3   48.34    8.20
   5   5   3   36.44    5.60
  -5  -5  -3   56.02    6.63
   5   5   3   46.01    6.50
   5   5   3   57.17    9.08
  -5  -5  -3   40.72    5.24
  -5  -5  -3   59.07    5.50
   5   5   3   41.95    5.87
   5   5   3   47.06    7.31
  -5  -5  -3   53.28    4.64
  -5  -5  -4   31.51    3.64
   5   5   4   36.54    6.75
  -5  -5  -4   35.25    6.24
  -5  -5  -4   27.14    3.81
   5   5   4   23.32    5.13
  -5  -5  -4   34.10    4.58
   5   5   4   29.49    4.39
   5   5   4   26.32    3.97
  -5  -5  -4   37.40    3.38
   5   5   4   34.33    4.53
   5   5   4   23.33    4.75
  -5  -5  -5    1.73    0.74
   5   5   5   -0.22    0.78
   5   5   5    0.60    0.63
  -5  -6   4   13.50    1.30
  -5  -6   3    9.03    1.84
  -5  -6   3    9.33    1.91
  -5  -6   3    9.70    2.13
  -5  -6   2    1.36    1.13
  -5  -6   2   -0.11    0.72
  -5  -6   2   -0.16    0.87
  -5  -6   2    1.52    1.03
  -5  -6   2    1.08    1.00
   5   6  -1   -0.59    1.28
  -5  -6   1    0.63    0.82
  -5  -6   1    1.11    1.09
  -5  -6   1   -1.48    1.00
  -5  -6   1   -0.46    0.99
  -5  -6   1    0.14    0.81
  -5  -6   0   23.47    3.32
  -5  -6   0   20.47    2.91
  -5  -6   0   13.44    4.01
  -5  -6   0   17.95    2.56
   5   6   0   17.02    3.37
  -5  -6  -1   39.07    3.85
  -5  -6  -1   43.53    4.41
  -5  -6  -1   31.35    4.43
   5   6   1   41.29    5.69
  -5  -6  -1   42.98    3.87
  -5  -6  -2   57.74    5.20
  -5  -6  -2   72.09    5.31
  -5  -6  -2   59.16    6.25
  -5  -6  -2   67.08    5.55
  -5  -6  -2   79.49    6.66
   5   6   2   63.95    7.93
   5   6   2   61.14    8.10
  -5  -6  -2   76.26    5.39
  -5  -6  -3  144.72    9.36
  -5  -6  -3  145.87    8.48
   5   6   3  143.54   13.51
  -5  -6  -3  185.39   10.71
   5   6   3  149.54   10.54
   5   6   3  144.90   12.13
  -5  -6  -3  162.11    7.79
  -5  -6  -4   -0.17    0.76
  -5  -6  -4    0.65    0.90
   5   6   4    0.31    0.65
  -5  -6  -4    1.26    1.07
   5   6   4   -0.93    1.82
   5   6   4    0.49    1.79
  -5  -6  -4    0.24    0.57
   5   6   4   -0.80    1.42
  -5  -7   3    1.07    0.75
  -5  -7   2    2.03    1.03
  -5  -7   2    1.62    0.96
  -5  -7   2    0.66    1.05
  -5  -7   2    0.73    0.75
  -5  -7   1    5.17    1.58
  -5  -7   1    4.49    1.57
  -5  -7   1    4.33    1.64
  -5  -7   0  993.17   21.58
  -5  -7   0  898.55   19.26
  -5  -7  -1   43.01    4.95
  -5  -7  -1   51.21    4.92
  -5  -7  -1   49.81    4.35
  -5  -7  -2   10.99    2.75
  -5  -7  -2   14.08    2.41
  -5  -7  -2    9.07    2.09
   5   7   2    9.64    3.29
  -5  -7  -3    1.38    0.95
   5   7   3    1.05    2.61
  -5  -7  -3   -0.30    1.01
   5   7   3   -0.98    1.95
   5   7   3   -0.38    1.81
   5   7   3    1.17    1.79
  -5  -7  -4    4.20    1.06
   5   7   4    4.71    1.06
  -5  -7  -4    5.46    1.22
   5   7   4    7.86    2.59
   5   7   4    6.41    1.81
   5   7   4    4.96    1.50
  -5  -8   2    0.47    0.52
  -5  -8   2    0.00    0.39
  -5  -8   1   84.26    5.54
  -5  -8   1   85.44    5.24
  -5  -8   0  141.91    7.76
  -5  -8   0  138.75    7.01
  -5  -8  -1   11.22    2.33
  -5  -8  -1   12.70    2.08
  -5  -8  -2    0.36    0.87
  -5  -8  -2    0.71    0.78
   5   8   2    0.22    1.94
   5   8   2    0.14    1.15
   5   8   3    1.49    1.66
  -5  -8  -3    5.51    1.49
   5   8   3    4.47    1.79
   5   8   3    3.41    1.42
   5   8   3    5.08    1.91
  -5  -9   1    0.58    0.58
  -5  -9   1    0.26    0.46
  -5  -9   0   27.27    2.83
  -5  -9   0   26.93    2.52
  -5  -9  -1   13.76    1.64
  -5  -9  -1   14.28    2.02
   5   9   1   13.24    3.08
  -5  -9  -2   22.87    2.07
   5   9   2   25.11    3.84
   5   9   2   22.77    3.26
  -5  -9  -3   46.40    2.30
   5   9   3   40.53    2.57
   5   9   3   49.71    3.39
   6  -9  -3   54.05    2.49
  -6   9   3   55.23    2.64
   6  -9  -2    0.44    0.41
  -6   9   2    0.39    0.63
  -6   9   2    1.43    1.02
  -6   9   1    0.54    0.74
   6  -9   0    0.89    1.41
   6  -9   1    1.12    1.22
  -6   8   4  158.76    4.15
  -6   8   3   25.73    2.65
  -6   8   3   30.90    3.13
   6  -8  -3   30.91    2.76
  -6   8   3   27.85    3.52
   6  -8  -3   24.59    5.67
  -6   8   3   25.74    2.68
  -6   8   3   28.15    2.81
  -6   8   2   41.36    3.61
  -6   8   2   46.18    4.41
  -6   8   2   42.21    4.77
   6  -8  -2   48.66    3.76
  -6   8   1    0.47    0.86
  -6   7   4   36.32    2.76
  -6   7   4   34.26    2.76
   6  -7  -4   36.61    2.70
   6  -7  -4   25.67    3.46
  -6   7   4   37.89    3.78
   6  -7  -4   26.70    4.67
   6  -7  -4   29.17    5.16
  -6   7   4   31.49    3.06
  -6   7   3  214.34    9.47
  -6   7   3  223.32    9.31
   6  -7  -3  242.67    9.12
   6  -7  -3  168.72   11.02
  -6   7   3  227.87   12.08
   6  -7  -3  205.03   16.42
  -6   7   3  222.89    9.17
  -6   7   3  208.41   10.08
   6  -7  -3  171.56   14.13
  -6   7   2   14.37    2.62
  -6   7   2   15.24    2.96
   6  -7  -2   13.49    2.39
  -6   7   2   14.38    3.58
   6  -7  -2    9.47    5.54
   6  -7  -2    6.51    4.39
   6  -7  -1   10.63    1.98
   6  -7  -1   16.42    2.59
   6  -7   0  124.07    7.55
   6  -7   2    0.31    2.22
   6  -6  -4   12.15    2.17
  -6   6   4   13.91    2.03
  -6   6   4   14.06    2.16
   6  -6  -4   14.12    3.08
   6  -6  -4   11.98    1.84
   6  -6  -4   14.15    3.48
  -6   6   4   10.98    2.58
   6  -6  -4    9.94    3.31
  -6   6   4   13.78    2.56
   6  -6  -4    9.14    3.52
   6  -6  -3  149.96    8.80
  -6   6   3  146.70    8.43
   6  -6  -3  127.20   10.54
  -6   6   3  142.11    8.13
   6  -6  -3  129.77   10.63
   6  -6  -3  159.93    8.11
  -6   6   3  148.86   10.64
   6  -6  -3  144.33   13.49
   6  -6  -3  157.91   14.96
  -6   6   3  142.34    7.81
  -6   6   3  145.44    9.49
   6  -6  -2  117.31    8.20
   6  -6  -2  137.57   11.61
  -6   6   2  118.72   15.68
  -6   6   2  151.16    7.72
  -6   6   2  130.54    7.81
  -6   6   2  129.81   10.68
   6  -6  -2  144.52    7.69
   6  -6  -2  164.37    8.92
   6  -6  -2  107.41    9.51
   6  -6  -2  134.35    6.87
  -6   6   2  132.59    6.97
  -6   6   2  127.01    9.84
   6  -6  -2  134.01    6.87
  -6   6   2  134.41    7.02
  -6   6   2  136.22    7.04
   6  -6  -2  136.59   14.29
   6  -6  -2   99.91   11.84
  -6   6   2  142.54    9.14
   6  -6  -1   50.49    7.20
   6  -6  -1   50.78    4.20
   6  -6  -1   49.80    5.48
   6  -6  -1   50.21    4.38
  -6   6   1   53.24    4.31
   6  -6  -1   52.23    8.01
  -6   6   1   45.90    4.27
  -6   6   1   42.27    5.62
  -6   6   1   54.58   10.49
   6  -6  -1   55.41    7.23
   6  -6  -1   32.44    7.97
  -6   6   1   51.24    4.36
   6  -6   0   62.68    5.21
   6  -6   0   46.81    8.07
   6  -6   0   48.25    6.14
  -6   6   0   60.63    4.25
  -6   6   0   66.67   10.46
  -6   6   0   58.32    4.88
   6  -6   1   13.36    9.50
   6  -6   1   40.70    4.45
   6  -6   1   18.81    4.85
   6  -6   1   28.00    7.65
  -6   6  -1   33.04    6.55
  -6   6  -1   46.54    8.97
  -6   6  -1   48.63    4.61
   6  -6   3  102.56    6.19
   6  -5  -5   31.26    3.73
  -6   5   5   37.35    2.87
  -6   5   5   36.33    2.68
   6  -5  -5   33.15    4.82
   6  -5  -5   29.06    4.17
  -6   5   4   80.15    5.09
  -6   5   4   91.10    5.65
  -6   5   4   86.83    7.11
   6  -5  -4   89.97    6.03
   6  -5  -4   69.25    7.66
   6  -5  -4   97.14    5.37
   6  -5  -4   99.54    9.36
  -6   5   4   88.96    7.30
   6  -5  -4   88.75   11.36
  -6   5   4  103.80    7.35
   6  -5  -4  105.16   11.13
   6  -5  -3   18.68    3.13
  -6   5   3   14.73    2.77
  -6   5   3   14.43    2.28
   6  -5  -3   13.78    3.86
  -6   5   3   13.00    2.61
   6  -5  -3   14.94    2.61
   6  -5  -3   14.77    4.15
  -6   5   3   13.91    3.60
   6  -5  -3   16.93    4.91
   6  -5  -3   12.00    3.06
  -6   5   3   13.46    2.66
   6  -5  -3   12.27    4.43
  -6   5   3   13.53    3.29
   6  -5  -2    1.69    0.90
  -6   5   2    0.91    0.84
  -6   5   2    1.24    1.36
  -6   5   2    2.47    1.18
   6  -5  -2    3.58    1.81
  -6   5   2   -3.92    4.91
   6  -5  -2    1.18    1.07
   6  -5  -2    0.25    1.52
   6  -5  -2    3.95    1.36
   6  -5  -2    3.53    1.30
  -6   5   2    2.09    0.92
  -6   5   2    2.43    1.09
  -6   5   2    2.03    2.10
   6  -5  -2    0.85    2.35
   6  -5  -2    2.84    2.90
   6  -5  -2    0.42    1.36
  -6   5   2    2.44    1.13
  -6   5   2    0.76    1.10
   6  -5  -2    1.66    1.25
  -6   5   1   61.00    9.86
  -6   5   1   63.96    4.38
  -6   5   1   52.50    5.67
   6  -5  -1   73.13    7.31
   6  -5  -1   66.69    5.27
   6  -5  -1   65.01    3.93
  -6   5   1   63.77    4.01
  -6   5   1   65.66    4.11
  -6   5   1   67.76    4.15
   6  -5  -1   66.15    3.99
   6  -5  -1   63.35    8.96
  -6   5   1   64.47    4.36
   6  -5   0    8.43    3.55
   6  -5   0    9.40    2.36
  -6   5   0   10.81    1.68
  -6   5   0   11.34    4.10
  -6   5   0   12.80    2.14
   6  -5   1   26.82    3.47
   6  -5   1   14.71    3.69
   6  -5   1   17.33    5.54
  -6   5  -1   27.40    6.05
  -6   5  -1   29.66    3.36
  -6   5  -1   29.66    5.68
  -6   5  -2  694.01   16.82
  -6   5  -2  665.00   30.57
  -6   5  -2  681.54   30.87
   6  -5   3    0.19    1.22
   6  -5   4    0.20    0.59
   6  -4  -5    0.07    1.51
   6  -4  -5    1.54    1.35
  -6   4   5    2.77    1.61
  -6   4   5    0.73    0.76
   6  -4  -5    3.61    2.39
   6  -4  -5    0.08    1.47
  -6   4   5    1.01    0.78
  -6   4   4    0.84    0.71
  -6   4   4    1.38    1.47
   6  -4  -4    7.17    4.04
  -6   4   4    0.81    0.81
   6  -4  -4    1.87    1.31
   6  -4  -4    1.35    2.16
  -6   4   4    0.52    2.94
   6  -4  -4    2.76    1.09
  -6   4   4    1.88    1.85
   6  -4  -4    2.65    3.42
   6  -4  -4    1.28    1.72
   6  -4  -4    4.67    3.53
  -6   4   4    0.80    1.66
  -6   4   3    0.51    1.13
   6  -4  -3    1.69    1.49
   6  -4  -3    0.32    0.84
  -6   4   3    0.79    0.86
  -6   4   3    1.22    1.51
  -6   4   3    1.27    0.73
  -6   4   3    2.79    1.46
   6  -4  -3    1.19    0.76
   6  -4  -3    0.73    0.73
   6  -4  -3    2.78    2.58
  -6   4   3    1.20    1.67
  -6   4   3    0.12    0.83
  -6   4   3    1.20    1.06
   6  -4  -3    1.84    1.02
   6  -4  -3    1.96    1.98
  -6   4   3    0.94    0.94
   6  -4  -3    0.38    1.39
  -6   4   3    2.43    1.44
   6  -4  -3    3.61    3.43
  -6   4   3    1.28    1.15
  -6   4   3    2.41    1.70
   6  -4  -3   -0.80    3.01
   6  -4  -3   -0.03    2.18
  -6   4   2   38.61    5.12
  -6   4   2   39.24    8.68
  -6   4   2   44.05    3.49
   6  -4  -2   55.38    4.13
  -6   4   2   50.87    4.20
  -6   4   2   51.86    4.23
  -6   4   2   49.13    4.14
   6  -4  -2   47.89    4.11
   6  -4  -2   44.41    6.72
   6  -4  -2   43.70    5.44
  -6   4   1  909.84   14.77
  -6   4   1  968.56   34.97
  -6   4   1  868.99   20.39
   6  -4  -1 1083.38   17.80
   6  -4  -1  967.57   14.59
  -6   4   1 1006.40   15.06
  -6   4   1 1021.36   15.23
  -6   4   1 1018.50   15.18
   6  -4  -1  974.14   14.68
  -6   4   1  952.03   14.54
   6  -4  -1  980.25   24.31
  -6   4   0   53.60    3.30
   6  -4   0   41.13    4.17
   6  -4   0   36.60    5.35
  -6   4   0   47.48    3.19
  -6   4   0   48.16    3.21
   6  -4   0   42.32    2.81
   6  -4   0   43.00    2.92
  -6   4   0   47.82    6.99
  -6   4   0   52.48    3.70
   6  -4   1    5.37    3.04
   6  -4   1    8.58    2.71
  -6   4  -1   10.74    1.47
  -6   4  -1    6.42    3.36
  -6   4  -1   12.49    2.06
  -6   4  -1   11.16    3.31
  -6   4  -2  172.84   16.78
  -6   4  -2  168.63   15.18
  -6   4  -2  165.00   14.27
  -6   4  -2  164.57    7.68
   6  -4   3    5.24    9.20
   6  -4   3    0.41    1.33
   6  -4   4   12.14    2.67
   6  -4   4    6.25    1.18
   6  -3  -5    7.17    2.79
   6  -3  -5    9.80    2.52
  -6   3   5   12.79    2.02
   6  -3  -5   10.09    3.27
  -6   3   5   10.21    1.75
   6  -3  -5    7.07    3.27
   6  -3  -5    7.61    1.89
  -6   3   4   49.15    6.15
  -6   3   4   48.01    3.96
   6  -3  -4   53.41    8.62
   6  -3  -4   56.88    8.21
  -6   3   4   44.38    5.35
   6  -3  -4   39.38    6.00
   6  -3  -4   67.54   11.52
  -6   3   4   50.38    5.40
   6  -3  -4   69.26   10.20
  -6   3   3   39.21    3.98
   6  -3  -3   40.72    5.77
   6  -3  -3   54.94    8.33
  -6   3   3   39.07    5.55
  -6   3   3   39.79    5.43
  -6   3   3   37.11    3.84
   6  -3  -3   50.34    7.38
   6  -3  -3   46.71    3.98
   6  -3  -3   43.35    4.48
  -6   3   3   49.38    4.61
  -6   3   3   42.84    5.44
  -6   3   3   43.56    4.31
  -6   3   3   49.12    4.61
  -6   3   3   44.26    4.99
   6  -3  -3   40.80    7.67
   6  -3  -3   41.17    5.97
  -6   3   3   38.10    4.79
  -6   3   3   35.69    3.71
   6  -3  -3   49.41    9.91
   6  -3  -3   50.40    8.61
   6  -3  -3   43.60    6.52
  -6   3   2  107.91    7.69
  -6   3   2  113.13    4.97
  -6   3   2  112.24   13.18
   6  -3  -2   95.04    6.73
   6  -3  -2  128.69    5.46
  -6   3   2  122.99    6.12
   6  -3  -2  120.33    6.14
  -6   3   2  129.48    6.26
  -6   3   2  126.22    6.19
   6  -3  -2  106.82    8.59
   6  -3  -2  106.94   10.02
  -6   3   1  439.02   13.02
  -6   3   1  511.00    9.70
   6  -3  -1  520.65   10.37
   6  -3  -1  409.15   10.73
  -6   3   1  516.03   10.10
  -6   3   1  506.43   10.00
  -6   3   1  503.43    9.97
   6  -3  -1  481.31    9.73
  -6   3   1  421.55    8.34
  -6   3   1  544.01   24.19
   6  -3  -1  482.54   15.31
  -6   3   0    2.20    2.12
  -6   3   0    5.84    1.01
  -6   3   0    4.43    1.17
   6  -3   0    5.13    2.20
   6  -3   0    4.91    1.48
   6  -3   0    3.88    1.66
  -6   3   0    6.20    1.18
  -6   3   0    5.84    1.15
   6  -3   0    5.98    1.06
   6  -3   0    5.89    1.08
  -6   3   0    7.07    1.25
  -6   3  -1   16.69    1.70
  -6   3  -1   12.12    4.25
   6  -3   1    5.26    2.69
   6  -3   1    9.43    2.78
   6  -3   1   11.50    2.21
  -6   3  -1   15.21    2.39
   6  -3   1   10.35    2.05
   6  -3   1    9.41    2.01
  -6   3  -1   16.69    2.07
  -6   3  -1   14.70    3.43
   6  -3   2    2.27    9.42
  -6   3  -2    9.23    4.12
  -6   3  -2    9.12    4.43
  -6   3  -2    8.80    1.72
  -6   3  -2   14.57    4.28
   6  -3   3   10.28   10.57
   6  -3   3   14.70    4.11
   6  -3   3   12.36    2.74
  -6   3  -3   -0.65    2.77
  -6   3  -3    7.62    5.02
   6  -3   4    0.59    1.44
   6  -3   4    1.65    1.17
  -6   3  -4    2.85    1.20
   6  -2  -5   -0.81    2.23
   6  -2  -5   -0.65    1.09
  -6   2   5   -0.82    2.29
  -6   2   5    0.07    0.63
   6  -2  -5    1.95    1.55
   6  -2  -5   -0.40    1.40
   6  -2  -5    1.29    2.60
  -6   2   4  113.39    8.90
   6  -2  -4  138.58   12.64
  -6   2   4  122.15    8.32
   6  -2  -4  145.76   17.73
   6  -2  -4  130.59   14.49
  -6   2   4  119.89    7.80
  -6   2   3    5.34    2.29
  -6   2   3   10.83    3.03
  -6   2   3    9.76    1.82
   6  -2  -3   10.44    3.14
  -6   2   3    7.73    1.71
   6  -2  -3    7.26    3.27
   6  -2  -3   10.10    3.50
   6  -2  -3    8.26    1.93
  -6   2   3    8.44    1.76
  -6   2   3    8.24    1.81
  -6   2   3    9.86    2.70
  -6   2   3    9.62    1.99
   6  -2  -3   12.46    4.53
   6  -2  -3    8.68    3.40
   6  -2  -3    8.26    3.37
  -6   2   3    7.78    2.33
   6  -2  -3    5.16    3.14
  -6   2   3    6.42    1.89
  -6   2   2   44.73    8.07
  -6   2   2   44.60    4.70
   6  -2  -2   41.18    2.84
   6  -2  -2   46.57    5.03
  -6   2   2   48.21    2.81
   6  -2  -2   42.62    5.34
   6  -2  -2   57.38    3.18
  -6   2   2   55.89    3.84
  -6   2   2   53.88    3.78
  -6   2   2   52.56    3.74
   6  -2  -2   50.90    3.77
   6  -2  -2   48.59    6.64
   6  -2  -2   42.80    5.82
   6  -2  -1   21.78    1.63
  -6   2   1   20.09    2.62
  -6   2   1   26.85    5.68
  -6   2   1   20.88    1.74
   6  -2  -1   24.26    1.92
   6  -2  -1   16.14    2.39
  -6   2   1   24.36    2.10
  -6   2   1   23.27    2.08
  -6   2   1   24.87    2.12
   6  -2  -1   21.61    2.00
   6  -2  -1   17.62    3.31
  -6   2   1   20.51    1.64
   6  -2  -1   17.75    2.99
   6  -2   0  182.84    6.09
  -6   2   0  179.07    4.77
  -6   2   0  186.17    5.34
   6  -2   0  194.84    8.37
   6  -2   0  145.13    6.62
   6  -2   0  158.41    7.78
  -6   2   0  178.35    5.27
  -6   2   0  175.41    5.24
   6  -2   0  180.81    5.07
   6  -2   0  173.68    5.08
  -6   2   0  165.08    5.13
  -6   2   0  204.76   10.86
  -6   2  -1   -0.50    1.97
  -6   2  -1    3.28    0.77
   6  -2   1    1.23    1.33
   6  -2   1    2.16    2.92
   6  -2   1    1.85    1.13
   6  -2   1    1.98    1.37
   6  -2   1    1.62    1.18
  -6   2  -1    3.94    2.19
  -6   2  -1    3.24    1.36
  -6   2  -1    3.50    1.02
  -6   2  -2   43.38    7.56
   6  -2   2   59.84   11.86
   6  -2   2   43.67    4.75
   6  -2   2   41.98    4.88
   6  -2   2   42.60    4.77
   6  -2   2   41.43    4.87
  -6   2  -2   36.77    3.16
  -6   2  -2   39.86    6.31
   6  -2   3   -1.12    9.09
   6  -2   3    8.78    3.82
  -6   2  -3   10.66    5.17
   6  -2   3    8.50    2.36
  -6   2  -3    3.26    2.33
  -6   2  -3   12.70    6.37
   6  -2   4   19.52   13.33
   6  -2   4  100.06    8.92
   6  -2   4   76.74    6.58
  -6   2  -4   41.83    4.36
  -6   2  -5    0.67    0.93
   6  -2   5    1.36    0.77
   6  -2   5    0.19    0.43
  -6   1   5    2.04    0.86
  -6   1   5    2.84    2.87
   6  -1  -5    3.66    1.62
   6  -1  -5    1.74    1.82
   6  -1  -5    2.56    2.98
   6  -1  -5    0.55    1.39
   6  -1  -4    7.18    3.21
  -6   1   4    8.63    4.90
  -6   1   4    7.91    2.34
   6  -1  -4    3.32    3.45
   6  -1  -4    0.82    3.86
  -6   1   4    8.34    2.18
   6  -1  -3   14.22    2.69
  -6   1   3   13.96    3.11
  -6   1   3   16.49    2.20
   6  -1  -3   17.57    3.78
   6  -1  -3   17.48    5.03
   6  -1  -3   18.18    2.60
  -6   1   3   16.92    2.34
  -6   1   3   19.54    2.46
  -6   1   3   20.51    3.25
  -6   1   3   19.93    2.48
  -6   1   3   16.14    2.77
   6  -1  -3   11.25    4.18
   6  -1  -3   15.22    4.77
   6  -1  -3   21.45    7.19
   6  -1  -2  101.50    6.93
  -6   1   2   98.69    3.45
  -6   1   2  103.23   11.39
   6  -1  -2   88.85    4.94
  -6   1   2  101.67    6.73
   6  -1  -2  110.48    9.11
  -6   1   2  118.37    5.08
  -6   1   2  121.26    5.16
   6  -1  -2  116.95    5.21
  -6   1   2  120.67    5.15
   6  -1  -2  105.37    9.12
   6  -1  -2  104.05    9.58
  -6   1   1    1.49    1.05
  -6   1   1    1.21    0.48
  -6   1   1    1.28    2.34
   6  -1  -1    1.40    0.51
   6  -1  -1    0.24    1.03
   6  -1  -1    1.31    0.59
   6  -1  -1    1.74    0.69
   6  -1  -1    1.73    0.64
  -6   1   1    1.55    0.68
  -6   1   1    1.30    0.66
  -6   1   1    1.32    0.63
   6  -1  -1    0.60    1.58
   6  -1  -1    0.64    1.42
  -6   1   1    0.92    0.44
  -6   1   0    0.07    0.40
  -6   1   0    0.14    1.51
  -6   1   0    0.30    0.35
   6  -1   0    1.11    1.06
   6  -1   0   -0.20    0.80
   6  -1   0    0.12    0.85
   6  -1   0    0.24    0.64
   6  -1   0    0.24    0.52
   6  -1   0    0.45    0.53
  -6   1   0    0.41    0.54
  -6   1   0   -0.04    0.56
   6  -1   0    0.34    1.11
  -6   1   0   -0.18    0.52
  -6   1  -1 1043.38    7.19
   6  -1   1 1120.95   19.14
  -6   1  -1 1022.09   12.23
  -6   1  -1 1042.03   18.66
   6  -1   1 1060.03   18.28
   6  -1   1 1093.18   18.94
   6  -1   1 1038.10   19.68
  -6   1  -1 1058.78   13.53
  -6   1  -1 1055.76   23.09
  -6   1  -2   15.03    4.44
   6  -1   2   14.57    3.01
   6  -1   2   16.65    3.14
   6  -1   2   15.38    3.27
   6  -1   2   13.07    3.04
  -6   1  -2   17.50    5.29
  -6   1  -2   15.13    1.93
  -6   1  -2   19.17    4.40
  -6   1  -3   27.68    7.16
   6  -1   3   20.70    3.89
   6  -1   3   29.17    4.77
   6  -1   3   11.09   13.00
   6  -1   3   33.56    7.10
  -6   1  -3   23.99    3.98
  -6   1  -3   27.08    6.10
  -6   1  -3   29.65    8.10
   6  -1   3   23.53    4.28
  -6   1  -4   21.73    4.68
   6  -1   4   37.04    5.89
   6  -1   4   33.35    4.99
  -6   1  -4   19.92    3.14
  -6   1  -5    9.84    2.42
   6  -1   5    4.53    4.60
   6  -1   5   14.87    2.24
   6  -1   5   21.25    2.46
  -6   0   5    8.38    2.94
  -6   0   5    5.36    1.24
   6   0  -5    1.82    2.22
   6   0  -5    6.60    3.66
  -6   0   4   22.44    2.97
  -6   0   4   30.62    3.84
   6   0  -3   37.04    5.27
  -6   0   3   29.44    2.67
  -6   0   3   28.67    4.26
   6   0  -3   26.07    4.08
   6   0  -3   31.19    6.73
  -6   0   3   31.20    3.78
  -6   0   3   34.97    2.90
  -6   0   3   32.06    2.77
  -6   0   3   33.32    2.83
   6   0  -3   29.91    2.85
   6   0  -3   33.25    6.82
  -6   0   3   33.25    3.54
   6   0  -3   30.48    7.07
   6   0  -2  462.36   12.72
   6   0  -2  511.26   14.67
  -6   0   2  488.17    9.59
   6   0  -2  556.75   21.24
  -6   0   2  539.57    9.61
  -6   0   2  526.62    9.42
   6   0  -2  527.07    9.87
  -6   0   2  544.00    9.64
   6   0  -2  480.02   19.64
   6   0  -2  477.64   20.02
  -6   0   1  201.07    4.49
   6   0  -1  191.70    5.95
  -6   0   1  193.63    5.10
  -6   0   1  210.12   11.66
   6   0  -1  172.20    8.55
   6   0  -1  213.80    5.08
  -6   0   1  205.85    5.01
  -6   0   1  209.52    5.02
  -6   0   1  203.61    4.85
   6   0  -1  210.38    5.14
   6   0  -1  195.29    9.34
   6   0  -1  192.63    8.48
  -6   0   1  194.32    4.34
   6   0   0  392.04    7.71
  -6   0   0  344.59    6.32
  -6   0   0  341.46    5.50
   6   0   0  347.62   10.10
  -6   0   0  345.71    7.38
  -6   0   0  332.05    7.27
   6   0   0  358.86    8.38
   6   0   0  343.36    7.28
   6   0   0  332.43    7.39
  -6   0   0  331.80    6.58
  -6   0   0  343.83    9.11
   6   0   0  319.40    8.76
  -6   0   0  396.37   11.66
  -6   0  -1  130.40    3.46
  -6   0  -1  131.80    4.63
   6   0   1  145.65    6.59
   6   0   1  149.44    9.52
   6   0   1  131.40    7.19
   6   0   1  132.16    6.83
   6   0   1  127.17    6.58
  -6   0  -1  135.96    6.95
   6   0   1  125.66    7.07
  -6   0  -1  126.18    4.60
  -6   0  -1  121.39    7.76
  -6   0  -2    5.72    3.18
   6   0   2    6.04    2.28
   6   0   2    5.74    2.27
   6   0   2    6.14    2.28
   6   0   2    6.43    2.30
  -6   0  -2    6.16    2.82
  -6   0  -2    3.23    3.11
  -6   0  -2    5.08    1.17
   6   0   3   72.71    7.58
   6   0   3   57.17    6.97
  -6   0  -3   50.62    8.75
   6   0   3   39.67   15.02
   6   0   3   47.65    8.38
  -6   0  -3   52.67    5.64
   6   0   3   57.90    6.96
   6   0   3   57.70    6.79
   6   0   3   56.02    6.60
   6   0   3   54.82    6.63
   6   0   3   59.03    6.91
  -6   0  -3   53.15    8.20
  -6   0  -3   61.37   10.44
   6   0   3   60.96    7.14
  -6   0  -3   47.79    8.39
   6   0   4   55.28    7.16
   6   0   4   56.36    8.63
  -6   0  -4   50.26    7.15
   6   0   4   58.29    6.83
  -6   0  -4   51.56    4.89
  -6   0  -5   27.51    3.93
   6   0   5   30.29    3.14
   6   0   5   38.79    3.84
  -6  -1   5   10.16    1.49
  -6  -1   5    7.50    1.20
   6   1  -5    4.98    2.96
  -6  -1   4  150.94    9.23
  -6  -1   4  186.72    8.33
  -6  -1   3   30.28    2.54
  -6  -1   3   34.23    4.18
   6   1  -3   35.46    7.27
   6   1  -3   26.71    4.38
  -6  -1   3   34.32    3.89
  -6  -1   3   30.13    3.33
   6   1  -3   29.28    6.56
   6   1  -3   27.42    6.92
   6   1  -2 6675.48   74.57
   6   1  -2 6539.96   75.39
  -6  -1   1   15.24    1.36
  -6  -1   1   18.22    1.54
  -6  -1   1   24.07    4.03
   6   1  -1   14.66    2.03
   6   1  -1   15.42    2.96
  -6  -1   1   17.31    1.51
   6   1  -1   19.34    1.60
   6   1  -1   18.60    1.59
  -6  -1   1   17.88    1.52
   6   1  -1   17.19    2.64
   6   1  -1   15.10    3.03
   6   1   0   43.63    2.71
  -6  -1   0   40.87    2.39
  -6  -1   0   45.75    2.18
   6   1   0   41.52    3.58
   6   1   0   49.17    3.55
  -6  -1   0   48.79    3.13
   6   1   0   47.51    3.19
   6   1   0   50.12    3.41
  -6  -1   0   47.88    3.11
  -6  -1   0   46.22    2.59
  -6  -1   0   33.89    2.98
   6   1   0   40.32    2.69
  -6  -1   0   42.90    3.39
  -6  -1  -1  842.05   10.68
   6   1   1  906.60   11.00
   6   1   1  881.92   15.88
  -6  -1  -1  830.82   19.75
   6   1   1 1001.79   23.79
   6   1   1  858.18   18.65
   6   1   1  856.22   19.15
   6   1   1  855.43   19.58
  -6  -1  -1  863.52   18.26
   6   1   1  872.11   18.51
  -6  -1  -1  815.82   18.46
  -6  -1  -1  749.44   11.71
  -6  -1  -1  791.65   19.28
  -6  -1  -2  514.47   21.14
   6   1   2  604.03   19.31
   6   1   2  588.15   19.24
   6   1   2  589.20   19.56
   6   1   2  601.49   19.15
   6   1   2  590.11   19.18
  -6  -1  -2  575.24   11.36
  -6  -1  -2  545.91   20.92
  -6  -1  -2  535.53   21.82
  -6  -1  -3  181.72   13.44
   6   1   3  215.15   13.87
  -6  -1  -3  189.01   16.46
   6   1   3  228.41   13.75
   6   1   3  215.17   17.84
   6   1   3  170.16   23.74
   6   1   3  221.67   13.73
  -6  -1  -3  204.83   10.77
   6   1   3  215.40   13.61
   6   1   3  215.07   13.34
   6   1   3  199.41   13.27
   6   1   3  226.77   13.69
   6   1   3  208.33   13.59
   6   1   3  219.24   13.00
  -6  -1  -3  198.12    9.45
  -6  -1  -3  194.63   15.08
  -6  -1  -3  201.66   17.40
   6   1   4  566.34   21.35
   6   1   4  629.60   29.10
   6   1   4  465.14   40.95
  -6  -1  -4  562.51   23.26
  -6  -1  -4  561.48   23.49
   6   1   4  605.56   22.56
   6   1   4  530.27   21.19
   6   1   4  594.88   19.93
  -6  -1  -4  510.05   14.87
  -6  -1  -5    0.32    1.14
  -6  -1  -5    1.32    1.13
   6   1   5   -3.36    6.38
   6   1   5    1.71    1.10
  -6  -1  -5    0.73    2.57
  -6  -1  -5    2.42    2.09
  -6  -2   5  140.55    4.73
  -6  -2   5  129.16    4.52
  -6  -2   4  113.98    7.62
  -6  -2   4  130.40    6.81
   6   2  -3   63.28    6.68
  -6  -2   3   48.89    5.76
   6   2  -3   54.63    9.27
  -6  -2   3   52.55    4.43
   6   2  -3   54.43    9.28
   6   2  -2   26.61    5.29
   6   2  -2   28.27    3.80
  -6  -2   2   32.82    2.47
   6   2  -2   24.94    5.20
   6   2  -2   26.92    5.13
  -6  -2   1  894.19   11.41
   6   2  -1  808.91   14.89
   6   2  -1  701.68   18.55
   6   2  -1  806.48   13.07
   6   2  -1  761.18   11.76
  -6  -2   1  764.34   11.08
  -6  -2   1  801.68   11.29
   6   2  -1  783.34   11.58
   6   2  -1  819.61   20.20
  -6  -2   0  104.78    3.93
   6   2   0   93.85    4.12
   6   2   0   82.14    5.17
   6   2   0   91.71    5.54
   6   2   0   88.46    5.38
   6   2   0   91.12    5.18
  -6  -2   0   85.36    4.78
   6   2   0   82.35    5.00
   6   2   0   78.51    3.06
  -6  -2   0   80.37    4.11
  -6  -2   0  108.13    4.23
   6   2   1 2453.45   22.84
  -6  -2  -1 2421.67   31.51
   6   2   1 2385.32   26.65
  -6  -2  -1 2416.10   21.82
   6   2   1 2599.83   38.70
   6   2   1 2258.20   32.43
   6   2   1 2292.18   34.26
   6   2   1 2281.87   33.64
   6   2   1 2272.85   32.20
  -6  -2  -1 2439.53   21.65
  -6  -2  -1 2221.91   32.57
   6   2   2   61.01    5.58
  -6  -2  -2   72.13    7.77
   6   2   2   67.78    7.12
   6   2   2   73.60    7.21
   6   2   2   68.61    6.94
   6   2   2   75.10    7.18
  -6  -2  -2   72.48    4.20
  -6  -2  -2   51.54    6.65
  -6  -2  -2   65.51    7.33
   6   2   2   70.62    7.21
   6   2   3 1339.29   34.06
  -6  -2  -3 1237.44   34.20
   6   2   3 1274.08   34.37
  -6  -2  -3 1190.00   38.86
   6   2   3 1413.21   36.37
   6   2   3 1330.59   45.28
   6   2   3 1194.80   61.67
   6   2   3 1279.89   34.12
  -6  -2  -3 1281.21   26.44
   6   2   3 1317.37   34.79
   6   2   3 1285.62   34.47
   6   2   3 1262.78   33.43
   6   2   3 1447.13   35.42
   6   2   3 1307.95   33.44
  -6  -2  -3 1338.92   38.75
  -6  -2  -3 1321.96   24.15
   6   2   3 1279.32   34.23
  -6  -2  -4   78.84    8.64
   6   2   4   99.86    9.11
  -6  -2  -4   91.06    9.38
   6   2   4   88.80    9.01
   6   2   4   97.83   19.24
   6   2   4  103.32   12.38
  -6  -2  -4   97.04    6.81
   6   2   4   91.89    9.12
   6   2   4   88.50    8.57
  -6  -2  -4   86.88    6.05
  -6  -2  -5    0.01    0.88
  -6  -2  -5    0.84    0.86
   6   2   5   -0.05    4.96
   6   2   5    2.06    1.82
   6   2   5   -0.61    1.13
  -6  -2  -5    2.13    2.34
  -6  -3   5    7.98    0.99
  -6  -3   4   26.19    4.88
  -6  -3   4   14.34    2.68
  -6  -3   4   21.85    2.77
  -6  -3   4   18.86    2.53
   6   3  -3   25.32    4.35
  -6  -3   3   32.78    5.59
  -6  -3   3   20.65    3.62
  -6  -3   3   24.56    3.32
   6   3  -3   25.11    5.75
  -6  -3   3   22.86    3.03
   6   3  -3   20.49    6.01
   6   3  -2  178.14   12.62
   6   3  -2  184.46    9.64
  -6  -3   2  197.76    6.70
  -6  -3   1   -0.50    1.40
   6   3  -1    1.45    0.91
   6   3  -1    1.64    1.12
  -6  -3   1    2.62    0.84
   6   3  -1    2.31    1.41
   6   3   0  111.00    4.79
  -6  -3   0  122.86    5.17
  -6  -3   0  111.73    3.87
   6   3   0  106.15    6.18
   6   3   0  118.29    6.98
   6   3   0  115.92    6.73
   6   3   0  111.66    6.53
   6   3   0  113.60    6.53
   6   3   1  147.82    6.78
  -6  -3  -1  131.25    5.99
   6   3   1  116.55    6.17
   6   3   1  137.30    9.20
   6   3   1  130.07    8.61
   6   3   1  124.96    8.28
   6   3   1  130.28    8.42
   6   3   1  140.46    9.02
   6   3   1  130.35    8.48
  -6  -3  -1  141.71    8.17
   6   3   2    0.33    0.94
  -6  -3  -2    0.80    1.72
   6   3   2    0.67    0.69
   6   3   2    1.12    1.61
   6   3   2    0.91    1.76
   6   3   2    0.49    1.42
   6   3   2    0.83    1.66
   6   3   2    1.59    1.68
  -6  -3  -2   -0.96    2.03
  -6  -3  -3   51.64    6.41
   6   3   3   53.74    7.16
   6   3   3   56.05    8.09
  -6  -3  -3   55.52    7.23
   6   3   3   52.65    7.28
  -6  -3  -3   55.20    8.10
  -6  -3  -3   44.26    5.25
   6   3   3   64.88   10.36
   6   3   3   66.77   16.10
  -6  -3  -3   55.79    5.51
   6   3   3   58.68    7.66
   6   3   3   51.61    7.08
   6   3   3   56.94    7.57
   6   3   3   61.87    7.81
   6   3   3   50.02    6.95
   6   3   3   50.75    6.85
   6   3   3   56.77    7.72
  -6  -3  -3   51.68    7.49
  -6  -3  -3   58.03    5.08
  -6  -3  -4   34.00    5.26
  -6  -3  -4   48.82    6.70
   6   3   4   39.59    6.45
   6   3   4   45.46    6.66
   6   3   4   28.27   11.13
   6   3   4   47.87    8.78
  -6  -3  -4   44.74    4.63
  -6  -3  -4   35.48    8.20
   6   3   4   47.47    6.86
  -6  -3  -4   44.16    4.17
   6   3   4   41.62    6.13
  -6  -3  -5    2.07    1.14
  -6  -3  -5    1.10    1.05
   6   3   5   -1.76    0.76
  -6  -3  -5    0.74    1.87
   6   3   5    0.13    0.90
  -6  -3  -5    0.70    1.50
   6   3   5    1.58    0.91
  -6  -4   4    2.12    1.03
  -6  -4   4    0.94    0.90
  -6  -4   4    2.54    1.03
  -6  -4   3   12.84    2.39
  -6  -4   3   12.35    2.40
  -6  -4   3    9.70    2.61
  -6  -4   2    0.23    0.74
  -6  -4   2   -0.07    0.56
  -6  -4   2    0.90    1.25
   6   4  -2    2.49    2.26
  -6  -4   2    1.51    1.00
   6   4  -2    0.21    0.91
   6   4  -1   14.53    2.93
   6   4  -1   14.71    2.29
   6   4   0   85.85    5.88
  -6  -4   0   94.63    7.15
   6   4   0   90.11    4.65
  -6  -4   0  100.91    5.55
   6   4   1   38.43    4.08
  -6  -4  -1   36.43    3.65
   6   4   1   38.75    3.66
  -6  -4  -1   32.34    3.44
   6   4   1   40.29    5.12
   6   4   1   34.46    4.81
   6   4   1   33.68    4.73
   6   4   1   34.84    4.67
   6   4   1   31.54    4.58
   6   4   2    0.36    0.98
   6   4   2    3.95    2.53
   6   4   2    1.12    1.46
  -6  -4  -2    1.97    1.20
   6   4   2    2.22    1.66
   6   4   2    2.33    1.89
   6   4   2   -0.27    1.45
  -6  -4  -2    1.69    1.61
   6   4   2    0.84    1.68
  -6  -4  -2    1.76    0.86
  -6  -4  -3    9.15    2.75
   6   4   3   14.20    4.50
   6   4   3   14.45    3.90
   6   4   3   12.07    4.01
  -6  -4  -3   10.00    3.37
   6   4   3   16.93    5.90
  -6  -4  -3   11.90    2.86
   6   4   3   14.99    7.96
   6   4   3   13.84    3.70
  -6  -4  -3   14.43    2.88
   6   4   3   19.95    4.57
   6   4   3   14.78    3.92
   6   4   3   17.19    4.25
   6   4   3   13.31    3.52
  -6  -4  -3   16.51    4.14
   6   4   3   15.82    4.59
  -6  -4  -3   13.66    2.56
   6   4   3   11.80    3.73
   6   4   4   -1.33    1.96
   6   4   4   -0.04    1.77
  -6  -4  -4    0.27    1.28
  -6  -4  -4   -0.80    1.64
  -6  -4  -4   -0.74    0.94
   6   4   4    0.01    3.45
  -6  -4  -4    0.21    0.77
  -6  -4  -4    2.90    2.31
   6   4   4    0.21    1.37
   6   4   4   -0.02    1.62
  -6  -4  -4    0.92    0.93
  -6  -4  -5    8.44    1.54
   6   4   5    8.80    1.66
  -6  -4  -5    5.29    2.02
   6   4   5    5.75    1.39
   6   4   5    9.76    1.84
  -6  -5   4    5.91    1.22
  -6  -5   4    4.52    1.08
  -6  -5   4    5.17    1.36
  -6  -5   3  200.85    8.34
  -6  -5   3  189.41    9.89
  -6  -5   3  200.83    8.48
  -6  -5   2   -0.41    0.81
  -6  -5   2    0.87    0.93
  -6  -5   2    0.41    0.94
  -6  -5   2   -0.27    1.02
   6   5  -2    0.23    0.91
  -6  -5   1    0.99    0.96
  -6  -5   1    0.74    0.66
  -6  -5   1    2.32    1.08
  -6  -5   1    1.40    1.00
  -6  -5   1    1.40    0.82
   6   5  -1    2.12    1.02
  -6  -5   1    1.52    0.86
  -6  -5   0   14.16    3.27
  -6  -5   0   14.90    2.57
  -6  -5   0   17.14    2.52
   6   5   0   12.94    2.55
  -6  -5   0   12.62    2.37
   6   5   1   95.41    7.45
  -6  -5  -1   96.22    5.57
  -6  -5  -1  114.95    6.71
  -6  -5  -1  110.92    5.88
   6   5   2   29.97    5.46
  -6  -5  -2   43.35    4.54
  -6  -5  -2   49.06    5.74
   6   5   2   40.39    5.84
  -6  -5  -2   30.35    4.04
  -6  -5  -2   41.74    4.11
   6   5   2   58.18    9.07
  -6  -5  -2   31.42    4.63
   6   5   2   33.55    5.43
  -6  -5  -2   44.62    4.69
   6   5   2   37.56    5.77
   6   5   2   38.45    5.77
   6   5   2   34.69    5.48
   6   5   2   36.37    5.72
   6   5   2   40.70    5.66
  -6  -5  -2   46.33    4.20
   6   5   3  112.57   10.24
  -6  -5  -3  124.03    8.44
   6   5   3  138.01   13.84
   6   5   3  106.67    9.66
  -6  -5  -3  137.32   10.09
  -6  -5  -3  103.31    8.31
   6   5   3  138.66   14.25
  -6  -5  -3  140.65    8.42
   6   5   3  113.77    9.59
   6   5   3  113.18   11.25
  -6  -5  -3  131.74    7.22
  -6  -5  -4   27.53    3.36
  -6  -5  -4   26.91    5.33
   6   5   4   42.82    6.99
  -6  -5  -4   30.94    3.86
   6   5   4   32.10    5.63
  -6  -5  -4   32.27    4.47
   6   5   4   23.04    4.16
   6   5   4   23.91    3.84
   6   5   4   29.27    5.21
  -6  -5  -4   27.76    2.88
   6   5   4   28.56    3.70
  -6  -5  -5    0.03    0.42
   6   5   5    0.39    0.42
  -6  -6   3    9.35    1.83
  -6  -6   3    6.46    1.58
  -6  -6   3    7.16    1.80
  -6  -6   2    0.81    0.94
  -6  -6   2   -0.16    0.81
  -6  -6   2   -0.13    0.70
  -6  -6   2    0.13    0.77
  -6  -6   2    1.60    1.11
   6   6  -1   -0.40    1.14
  -6  -6   1   -0.53    1.03
  -6  -6   1   -0.16    0.78
  -6  -6   1    0.39    0.84
  -6  -6   1    0.03    0.83
  -6  -6   1    0.95    0.91
  -6  -6   0   77.21    5.16
  -6  -6   0   97.19    6.38
  -6  -6   0  103.15    6.88
   6   6   0   90.03    7.80
  -6  -6  -1  122.59    8.57
  -6  -6  -1  142.59    8.00
  -6  -6  -1  138.03    7.13
   6   6   1  116.85    9.45
  -6  -6  -1  132.30    6.76
  -6  -6  -2    1.43    1.01
   6   6   2   -0.24    1.36
   6   6   2   -0.64    1.75
  -6  -6  -2    0.78    1.50
  -6  -6  -2    0.92    1.48
  -6  -6  -2    3.16    1.26
  -6  -6  -2    1.55    1.12
  -6  -6  -2   -3.54    1.61
   6   6   2    0.12    1.88
  -6  -6  -2    0.17    0.74
   6   6   3   43.99    7.32
  -6  -6  -3   35.84    4.71
   6   6   3   27.69    6.59
  -6  -6  -3   28.12    3.65
  -6  -6  -3   44.50    5.23
   6   6   3   34.34    5.36
   6   6   3   32.43    6.00
  -6  -6  -3   36.35    3.69
  -6  -6  -4   -0.19    0.57
   6   6   4   -1.46    1.23
  -6  -6  -4    0.99    0.85
  -6  -6  -4    0.02    0.99
   6   6   4   -1.63    2.03
   6   6   4    0.93    0.63
   6   6   4   -1.15    1.78
  -6  -6  -4    0.09    0.60
   6   6   4   -0.04    0.97
  -6  -7   3    1.69    0.76
  -6  -7   2    2.68    1.12
  -6  -7   2    2.58    1.04
  -6  -7   2    2.05    1.15
  -6  -7   2    2.38    1.11
  -6  -7   1    9.19    2.05
  -6  -7   1   11.48    2.43
  -6  -7   1   11.62    2.29
  -6  -7   0  805.96   19.52
  -6  -7   0  748.08   17.61
  -6  -7  -1    0.63    1.04
  -6  -7  -1    2.20    1.12
  -6  -7  -1    1.34    1.24
  -6  -7  -2   40.43    4.88
  -6  -7  -2   43.77    4.04
   6   7   2   37.68    6.48
  -6  -7  -3    0.51    0.61
   6   7   3   -0.09    2.18
  -6  -7  -3    1.57    1.46
   6   7   3    1.68    1.40
   6   7   3    1.14    1.93
   6   7   3    0.92    1.84
  -6  -7  -4    7.72    1.28
  -6  -7  -4    7.16    1.18
   6   7   4    8.01    2.14
   6   7   4    3.62    0.82
   6   7   4    7.26    1.80
   6   7   4    7.87    1.51
  -6  -8   2    6.18    1.08
  -6  -8   2    0.49    0.37
  -6  -8   1    9.23    1.94
  -6  -8   1    8.72    1.76
  -6  -8   0    2.80    1.31
  -6  -8   0    2.20    1.06
  -6  -8  -1   17.74    2.53
  -6  -8  -1   20.36    2.82
  -6  -8  -1   23.21    2.65
  -6  -8  -2    0.55    0.85
  -6  -8  -2    0.30    0.73
   6   8   2   -0.14    2.45
   6   8   2    1.39    1.58
   6   8   3    0.52    1.59
  -6  -8  -3    0.90    0.73
   6   8   3    0.35    0.83
   6   8   3    1.42    1.33
   6   8   3    0.04    1.20
  -6  -9   1   29.50    2.37
  -6  -9   1   32.00    2.29
  -6  -9   0    2.55    0.85
  -6  -9   0    2.70    1.05
  -6  -9  -1   93.77    4.80
  -6  -9  -1   83.21    3.67
   6   9   1   84.92    7.52
  -6  -9  -2   57.20    3.05
   6   9   2   63.36    5.79
   6   9   2   61.12    5.05
   7  -9  -2   16.28    1.50
  -7   9   2   17.08    1.88
  -7   9   2   16.13    2.09
  -7   9   1  118.75    5.54
   7  -9   0   -0.59    1.46
  -7   9   0   10.87    1.26
   7  -9   1    1.02    2.18
  -7   8   3   48.69    2.91
  -7   8   3   60.63    4.03
  -7   8   3   58.27    3.63
   7  -8  -3   56.28    3.54
  -7   8   3   54.15    4.42
  -7   8   3   54.23    3.72
  -7   8   2    7.13    1.87
  -7   8   2    8.75    1.64
   7  -8  -2    7.58    1.53
  -7   8   2    9.32    2.22
  -7   8   2    6.79    1.83
  -7   8   1   74.44    5.04
  -7   7   4   23.21    2.15
  -7   7   4   23.44    2.13
   7  -7  -4   22.59    2.01
   7  -7  -4   13.38    2.46
  -7   7   4   24.18    2.83
  -7   7   4   24.28    2.43
   7  -7  -4   17.24    3.80
   7  -7  -4   21.17    4.47
  -7   7   3   21.54    3.08
  -7   7   3   24.99    3.09
   7  -7  -3   24.40    2.91
   7  -7  -3   13.57    3.41
  -7   7   3   24.40    3.86
   7  -7  -3   17.55    4.94
   7  -7  -3   21.71    5.95
  -7   7   3   21.75    2.89
  -7   7   3   23.51    3.25
  -7   7   2    4.10    1.77
  -7   7   2    4.34    1.61
   7  -7  -2    3.78    1.38
   7  -7  -2   -0.29    1.81
  -7   7   2    3.48    1.74
   7  -7  -2    3.39    4.12
   7  -7  -1  305.55    9.68
  -7   7   1  280.59   11.22
   7  -7   1    8.91    6.69
   7  -7   2   -2.76    2.42
  -7   6   4  316.26    9.17
  -7   6   4  309.33    9.23
   7  -6  -4  303.40   13.65
   7  -6  -4  319.62    8.80
   7  -6  -4  271.45   13.22
  -7   6   4  327.72   12.25
   7  -6  -4  310.40   18.01
  -7   6   4  310.82   10.72
   7  -6  -4  295.41   16.60
  -7   6   3    3.03    1.70
  -7   6   3    4.13    1.66
   7  -6  -3    2.39    1.96
   7  -6  -3    4.78    1.50
   7  -6  -3    4.26    2.44
  -7   6   3    5.85    2.70
   7  -6  -3    4.78    3.99
  -7   6   3    4.76    2.10
  -7   6   3    5.13    1.89
   7  -6  -3   -0.25    2.65
  -7   6   2   26.22    3.76
   7  -6  -2   27.35    5.85
  -7   6   2   24.34    3.39
   7  -6  -2   27.20    3.34
   7  -6  -2   19.14    4.64
  -7   6   2   27.93    4.53
   7  -6  -2   25.22    3.01
   7  -6  -2   26.44    3.06
   7  -6  -2   11.46    4.98
   7  -6  -2   30.49    5.23
   7  -6  -2   25.84    6.79
  -7   6   2   26.62    3.85
   7  -6  -1   -0.40    2.38
   7  -6  -1    2.58    1.18
   7  -6  -1    0.31    0.94
  -7   6   1    2.55    1.43
  -7   6   1    4.00    1.31
  -7   6   1   -2.08    4.88
   7  -6  -1    0.53    2.99
  -7   6   1    2.35    1.17
   7  -6  -1    2.03    3.47
   7  -6  -1   -3.12    1.94
  -7   6   1    1.12    0.77
   7  -6   0   17.94    5.20
   7  -6   0   29.06    3.68
   7  -6   0   25.58    4.76
  -7   6   0   29.64    3.04
  -7   6   0   39.92    8.53
  -7   6   0   37.90    4.03
   7  -6   1    2.17    7.34
   7  -6   2  179.91   22.33
   7  -6   3   61.53    4.45
   7  -5  -5   78.24    5.58
  -7   5   5   98.70    4.36
   7  -5  -5   85.29    7.19
  -7   5   5  102.82    4.21
   7  -5  -5   76.61    6.27
  -7   5   4  145.90    8.08
  -7   5   4  167.89    7.24
  -7   5   4  165.61    7.33
   7  -5  -4  142.96   10.97
   7  -5  -4  187.98    7.25
   7  -5  -4  179.91   12.05
  -7   5   4  166.21    9.67
  -7   5   4  176.48    9.14
   7  -5  -4  177.64   15.28
   7  -5  -4  157.59    9.38
   7  -5  -4  177.92   13.88
  -7   5   3    1.39    1.31
   7  -5  -3    2.31    1.19
  -7   5   3    1.46    1.16
   7  -5  -3    0.05    1.40
   7  -5  -3    0.36    0.83
   7  -5  -3    0.62    1.81
  -7   5   3    1.99    1.93
  -7   5   3    1.59    1.43
   7  -5  -3    0.94    3.44
   7  -5  -3    0.63    2.31
  -7   5   3    0.01    0.84
   7  -5  -3    0.11    1.33
   7  -5  -2   18.27    2.99
  -7   5   2   19.00    3.21
  -7   5   2   19.06    2.92
  -7   5   2   19.42    2.56
  -7   5   2   25.24    4.43
   7  -5  -2   18.91    4.43
  -7   5   2   19.25    7.17
   7  -5  -2   19.56    4.19
   7  -5  -2   19.47    2.79
   7  -5  -2   22.96    3.14
  -7   5   2   16.33    3.85
  -7   5   2   19.07    2.66
  -7   5   2   21.16    2.81
  -7   5   2   20.60    2.74
   7  -5  -2   21.62    2.78
   7  -5  -2   19.64    2.68
   7  -5  -2   13.64    4.26
   7  -5  -2   25.76    4.54
   7  -5  -2   19.50    5.53
  -7   5   2   18.16    3.19
   7  -5  -2   30.36    5.27
  -7   5   1   19.81    6.50
  -7   5   1   22.02    3.72
  -7   5   1   19.43    2.46
   7  -5  -1   28.50    5.77
  -7   5   1   17.71    2.56
   7  -5  -1   19.26    2.44
   7  -5  -1   19.81    4.16
   7  -5  -1   18.20    2.85
   7  -5  -1   10.28    3.17
  -7   5   1   18.98    2.33
  -7   5   1   19.22    2.37
   7  -5  -1   18.75    2.22
   7  -5  -1   20.32    2.32
  -7   5   1   16.66    2.17
   7  -5  -1    9.58    4.13
   7  -5  -1   22.13    5.44
  -7   5   1   18.23    2.45
   7  -5  -1   20.36    4.58
   7  -5   0  196.39   11.36
   7  -5   0  192.31    8.59
   7  -5   0  196.58   14.68
  -7   5   0  275.45    8.48
   7  -5   0  319.35   21.22
   7  -5   0  247.59   16.71
  -7   5   0  268.51    9.63
  -7   5   0  291.54   20.14
   7  -5   1    2.62    1.60
   7  -5   1    0.03    5.07
   7  -5   1    1.35    1.80
  -7   5  -1    1.55    2.45
  -7   5  -1   -4.19    2.58
  -7   5  -1    1.08    1.03
   7  -5   2  625.08   44.78
   7  -5   2  324.79   15.57
   7  -5   3    1.19    8.65
   7  -5   3    0.25    1.39
   7  -5   4   16.13    1.99
   7  -4  -5    0.02    1.13
   7  -4  -5    1.30    1.35
  -7   4   5    1.28    1.13
  -7   4   5   -0.02    0.65
   7  -4  -5    0.31    1.23
  -7   4   5   -0.15    0.66
   7  -4  -5   -1.89    2.13
  -7   4   4    1.61    0.99
  -7   4   4    0.77    1.21
   7  -4  -4    3.60    2.92
  -7   4   4    1.99    1.14
   7  -4  -4    4.06    1.28
  -7   4   4    2.22    2.41
   7  -4  -4    2.98    1.98
  -7   4   4    2.09    1.72
   7  -4  -4    4.12    3.28
   7  -4  -4    2.66    1.74
   7  -4  -4    5.88    3.93
  -7   4   4    1.63    1.29
  -7   4   3    9.02    2.82
  -7   4   3    1.77    1.24
   7  -4  -3    3.67    2.25
  -7   4   3    2.79    1.21
   7  -4  -3    6.25    1.72
   7  -4  -3    4.52    2.71
   7  -4  -3    3.27    1.32
  -7   4   3    6.53    1.79
  -7   4   3    4.91    2.41
  -7   4   3    6.33    1.82
   7  -4  -3    5.08    3.19
   7  -4  -3    3.60    2.37
   7  -4  -3   12.39    3.33
  -7   4   3    8.30    2.00
   7  -4  -3    2.53    2.87
  -7   4   3    2.73    1.36
   7  -4  -3   10.77    3.34
  -7   4   3    7.11    2.42
  -7   4   2   17.06    3.46
  -7   4   2   14.22    2.58
  -7   4   2   17.92    2.24
   7  -4  -2   16.29    3.80
  -7   4   2   18.48    2.79
  -7   4   2   17.97    7.06
   7  -4  -2   21.61    4.07
   7  -4  -2   18.05    2.49
   7  -4  -2   22.61    2.76
  -7   4   2   19.66    3.69
  -7   4   2   17.90    2.48
  -7   4   2   18.05    2.48
   7  -4  -2   19.85    2.64
  -7   4   2   18.97    2.55
   7  -4  -2   17.27    4.25
   7  -4  -2   18.40    5.18
  -7   4   2   16.80    2.64
   7  -4  -2   18.23    4.81
   7  -4  -2   19.04    3.80
  -7   4   1  530.82   16.01
  -7   4   1  561.70   11.70
   7  -4  -1  597.94   14.23
   7  -4  -1  565.20   11.60
  -7   4   1  568.13   11.85
  -7   4   1  575.75   11.80
  -7   4   1  557.69   11.59
   7  -4  -1  563.31   11.46
  -7   4   1  586.81   29.08
  -7   4   1  557.97   11.59
   7  -4  -1  570.19   19.74
  -7   4   0    3.57    2.87
  -7   4   0    1.90    0.74
   7  -4   0    0.76    0.90
   7  -4   0    1.37    1.65
  -7   4   0    0.89    0.73
   7  -4   0    1.94    0.86
   7  -4   0    1.90    0.88
  -7   4   0    1.27    0.77
  -7   4   0    2.38    0.96
   7  -4   1   68.56    9.68
   7  -4   1   69.18    7.55
  -7   4  -1  134.94    5.50
  -7   4  -1  126.47    6.44
  -7   4  -1  145.54   12.72
  -7   4  -1  138.83   11.17
   7  -4   2   52.32    6.86
  -7   4  -2   54.54    9.54
  -7   4  -2   41.23    7.78
  -7   4  -2   45.88    4.25
  -7   4  -2   42.55    7.54
   7  -4   3  -11.95    8.89
   7  -4   3    0.85    1.45
   7  -4   4    8.11    2.14
  -7   4  -4    1.76    0.75
   7  -3  -5    2.39    2.10
  -7   3   5    8.23    2.67
   7  -3  -5    6.00    2.07
  -7   3   5    3.70    1.18
   7  -3  -5    3.55    1.59
   7  -3  -5    5.96    3.41
   7  -3  -5    3.97    1.56
  -7   3   4    2.72    1.66
  -7   3   4    4.77    1.44
   7  -3  -4    1.81    2.93
  -7   3   4    4.08    1.38
  -7   3   4    5.20    3.46
   7  -3  -4    6.58    3.41
  -7   3   4    4.90    2.24
   7  -3  -4    2.89    2.70
   7  -3  -4    8.08    5.17
   7  -3  -4    2.14    1.92
  -7   3   4    3.91    1.87
  -7   3   3    0.76    1.41
  -7   3   3    1.02    0.74
  -7   3   3    0.06    1.16
   7  -3  -3   -0.64    2.09
  -7   3   3    2.70    1.12
   7  -3  -3    2.06    0.96
   7  -3  -3    1.86    1.64
  -7   3   3    1.62    2.34
   7  -3  -3    0.40    0.72
  -7   3   3    2.63    1.17
  -7   3   3    2.57    1.73
  -7   3   3    1.68    1.00
   7  -3  -3    3.83    3.83
   7  -3  -3    1.61    2.31
   7  -3  -3   -2.17    1.95
   7  -3  -3    1.15    1.23
   7  -3  -3    4.08    4.06
  -7   3   3    1.79    1.16
  -7   3   3    2.44    1.12
  -7   3   3    1.76    1.36
  -7   3   2    4.05    1.81
  -7   3   2    3.43    0.95
  -7   3   2    0.43    3.12
   7  -3  -2    5.39    1.91
   7  -3  -2    4.29    1.04
   7  -3  -2    3.14    1.15
  -7   3   2    4.24    1.24
  -7   3   2    5.62    1.37
   7  -3  -2    5.09    3.23
   7  -3  -2    3.63    2.14
  -7   3   2    3.88    1.18
  -7   3   1    0.04    0.75
  -7   3   1    0.47    0.52
  -7   3   1    3.25    3.46
   7  -3  -1    0.37    0.61
   7  -3  -1   -0.09    0.89
   7  -3  -1    0.50    0.58
  -7   3   1    0.14    0.53
  -7   3   1    0.58    0.70
   7  -3  -1    0.65    0.60
   7  -3  -1   -1.07    1.71
  -7   3   1    0.80    0.63
  -7   3   1    0.16    0.50
  -7   3   0   47.59    2.89
   7  -3   0   52.70    5.37
   7  -3   0   46.34    4.39
   7  -3   0   35.41    5.04
  -7   3   0   50.43    3.29
  -7   3   0   47.68    3.26
   7  -3   0   50.32    3.22
   7  -3   0   47.52    3.19
  -7   3   0   59.60    7.40
  -7   3   0   53.02    3.46
  -7   3  -1   12.44    1.57
  -7   3  -1   10.20    3.70
   7  -3   1    9.32    3.62
   7  -3   1    5.69    2.41
   7  -3   1   18.84    3.00
   7  -3   1   14.58    2.54
  -7   3  -1   10.03    2.36
   7  -3   1   17.06    2.77
  -7   3  -1   14.56    3.51
  -7   3  -1   13.46    1.95
   7  -3   2    0.60    9.22
  -7   3  -2    2.47    1.78
  -7   3  -2   -2.34    3.11
  -7   3  -2   -1.01    1.98
  -7   3  -2    0.55    0.61
   7  -3   3   53.33   18.74
   7  -3   3   85.24    9.39
   7  -3   3   67.31    6.17
   7  -3   4    5.18    5.88
   7  -3   4   50.75    5.88
   7  -3   4   49.75    4.14
  -7   3  -4   22.00    2.91
   7  -2  -5   21.80    3.43
   7  -2  -5   13.03    3.69
   7  -2  -5   14.15    3.17
   7  -2  -5   15.40    3.07
   7  -2  -5   15.74    4.81
  -7   2   4   20.65    3.84
   7  -2  -4   24.00    6.61
  -7   2   4   24.07    2.65
   7  -2  -4   31.22    5.93
  -7   2   4   45.68    8.11
  -7   2   4   25.19    4.00
   7  -2  -4   25.72    6.22
   7  -2  -4   27.92    8.25
  -7   2   4   22.32    3.38
  -7   2   3    1.07    1.26
  -7   2   3    1.95    0.84
   7  -2  -3    2.58    1.65
  -7   2   3   -0.01    0.82
  -7   2   3    1.96    0.96
   7  -2  -3    1.89    2.21
   7  -2  -3    1.45    1.75
  -7   2   3    0.58    3.12
  -7   2   3    2.11    1.04
   7  -2  -3    3.21    1.25
  -7   2   3    2.26    1.59
  -7   2   3    1.63    0.92
   7  -2  -3    2.90    1.97
  -7   2   3    0.67    0.68
  -7   2   3    1.81    1.31
   7  -2  -3    4.67    3.25
   7  -2  -3   -1.40    2.42
  -7   2   3    1.43    0.77
   7  -2  -3    2.04    2.10
  -7   2   2   98.30    4.11
  -7   2   2   85.42    6.67
  -7   2   2   90.27   11.77
   7  -2  -2   99.12    4.55
   7  -2  -2  121.53    4.67
   7  -2  -2   79.95    7.41
  -7   2   2  111.88    5.36
  -7   2   2  110.00    5.33
   7  -2  -2  101.31    5.27
  -7   2   2  109.15    5.32
   7  -2  -2   95.76    9.08
   7  -2  -2   90.96    8.36
   7  -2  -1   77.46    3.48
  -7   2   1   65.75    4.79
  -7   2   1   80.18    3.50
   7  -2  -1   89.62    4.16
   7  -2  -1   75.88    5.22
  -7   2   1   91.52    4.05
  -7   2   1   95.14    4.20
   7  -2  -1   93.66    4.16
  -7   2   1   97.07    4.22
   7  -2  -1   93.95    4.13
  -7   2   1   79.40    9.14
   7  -2  -1   66.28    6.17
  -7   2   1   76.37    3.36
   7  -2  -1   87.79    6.51
   7  -2   0  133.05    5.72
  -7   2   0  138.71    4.54
  -7   2   0  131.59    4.03
   7  -2   0  160.60    8.43
   7  -2   0  104.82    6.07
   7  -2   0   96.78    6.69
  -7   2   0  127.93    5.03
  -7   2   0  129.28    5.09
   7  -2   0  127.02    4.77
   7  -2   0  123.55    4.83
  -7   2   0  142.34    9.44
  -7   2   0  123.80    4.68
  -7   2  -1   34.31    2.47
   7  -2   1   34.55    4.04
   7  -2   1   35.32    3.75
   7  -2   1   37.72    3.96
  -7   2  -1   33.30    3.74
  -7   2  -1   42.08    6.14
  -7   2  -1   40.18    3.07
  -7   2  -1   33.17    4.85
  -7   2  -2   99.39   11.29
   7  -2   2   82.92    7.35
   7  -2   2   86.52    7.18
   7  -2   2   84.14    7.09
   7  -2   2   87.43    7.13
  -7   2  -2   68.92    9.67
  -7   2  -2   90.30    5.16
  -7   2  -2   84.95    9.47
   7  -2   3   12.38   12.26
  -7   2  -3   -7.01    4.12
  -7   2  -3    0.89    2.03
  -7   2  -3   -1.93    1.82
  -7   2  -3    5.08    4.14
  -7   2  -4   56.62    6.67
   7  -2   4    7.47   10.70
   7  -2   4  173.68   11.58
   7  -2   4  151.32    8.74
  -7   2  -4   90.11    6.13
  -7   2  -5    0.37    0.77
  -7   1   5   31.17    2.84
   7  -1  -5   30.97    5.36
   7  -1  -5   29.59    4.32
   7  -1  -5   27.58    5.93
   7  -1  -4  121.42   10.80
  -7   1   4  123.49    7.94
   7  -1  -4  107.22   15.77
  -7   1   4  108.57    6.85
   7  -1  -4  106.38   11.89
  -7   1   3   29.82    4.24
   7  -1  -3   30.25    3.75
  -7   1   3   31.61    3.08
  -7   1   3   29.08    2.89
   7  -1  -3   30.72    4.69
  -7   1   3   26.80    2.86
   7  -1  -3   30.92    6.30
   7  -1  -3   33.27    5.68
  -7   1   3   27.30    3.84
  -7   1   3   32.20    3.07
  -7   1   3   27.76    2.86
   7  -1  -3   33.60    3.38
  -7   1   3   30.77    3.05
   7  -1  -3   20.81    5.24
   7  -1  -3   32.88    8.97
   7  -1  -3   31.24    6.68
  -7   1   3   30.92    3.75
  -7   1   2  213.73    5.39
  -7   1   2  193.27    6.66
   7  -1  -2  212.80    7.70
  -7   1   2  216.18   17.04
   7  -1  -2  195.79   11.85
  -7   1   2  236.58    7.19
  -7   1   2  234.56    7.12
  -7   1   2  234.98    7.17
   7  -1  -2  227.25    7.33
   7  -1  -2  219.44   12.94
   7  -1  -2  226.79   13.61
  -7   1   1    1.45    0.63
  -7   1   1   -0.07    2.13
  -7   1   1    0.73    0.60
   7  -1  -1    1.63    0.66
   7  -1  -1    0.35    1.20
   7  -1  -1    1.04    0.63
   7  -1  -1    1.49    0.70
  -7   1   1    1.08    0.64
  -7   1   1    0.63    0.57
   7  -1  -1    1.39    0.68
   7  -1  -1    0.47    1.43
   7  -1  -1    0.82    1.41
  -7   1   1    1.07    0.52
  -7   1   1    0.43    0.49
  -7   1   0    3.20    0.69
  -7   1   0    2.64    0.80
  -7   1   0    4.91    2.43
   7  -1   0    2.10    1.20
   7  -1   0    4.08    1.08
   7  -1   0    2.71    1.60
   7  -1   0    2.79    1.03
   7  -1   0    3.36    0.99
  -7   1   0    3.08    1.06
   7  -1   0    3.82    1.24
   7  -1   0    3.59    1.65
  -7   1   0    3.28    0.88
  -7   1   0    2.66    1.02
   7  -1   1  461.08   13.25
  -7   1  -1  467.67    9.08
   7  -1   1  453.92   14.37
   7  -1   1  470.71   13.26
   7  -1   1  469.31   13.57
  -7   1  -1  459.19   13.21
  -7   1  -1  447.88   15.97
  -7   1  -1  446.17    9.55
  -7   1  -1  495.65   17.56
  -7   1  -2   78.55    9.46
   7  -1   2   78.23    6.96
   7  -1   2   74.47    6.99
   7  -1   2   74.09    6.78
   7  -1   2   69.89    7.02
  -7   1  -2   75.20    4.48
  -7   1  -2   64.90    7.93
  -7   1  -2   78.20   10.43
   7  -1   3   82.58    8.29
  -7   1  -3   61.53   10.36
   7  -1   3   79.87    7.64
   7  -1   3   68.38   10.44
  -7   1  -3   63.41    6.43
   7  -1   3   74.45    7.50
  -7   1  -3   67.56    9.88
  -7   1  -3   80.44   12.95
   7  -1   4   -0.03    1.76
  -7   1  -4    0.37    1.81
  -7   1  -4   -2.05    1.17
   7  -1   5   52.80    3.89
   7  -1   5   61.29    3.69
  -7   0   5    7.36    2.94
  -7   0   5    6.37    1.29
   7   0  -5    6.03    2.59
   7   0  -5    3.17    2.52
  -7   0   4   42.54    3.73
  -7   0   4   53.76    5.10
   7   0  -4   41.66    9.78
  -7   0   3  383.64    9.81
   7   0  -3  416.71   15.01
   7   0  -3  421.65   23.89
  -7   0   3  401.14   13.76
   7   0  -3  466.74   24.37
   7   0  -3  381.12   22.70
  -7   0   3  456.35   13.35
   7   0  -2 1028.88   18.86
   7   0  -2 1112.29   19.92
  -7   0   2 1015.71   14.42
   7   0  -2  981.68   28.02
  -7   0   2 1104.04   13.89
  -7   0   2 1119.81   14.16
  -7   0   2 1134.82   14.20
   7   0  -2 1131.18   14.79
   7   0  -2 1099.52   14.45
   7   0  -2  976.43   28.09
   7   0  -2 1074.97   29.17
   7   0  -1 3205.14   25.56
  -7   0   1 3032.94   19.44
  -7   0   1 3091.44   21.47
  -7   0   1 3601.08   50.10
   7   0  -1 2949.94   35.74
  -7   0   1 3264.95   21.88
  -7   0   1 3174.99   21.69
   7   0  -1 3341.40   21.98
   7   0  -1 3313.22   22.51
  -7   0   1 2934.74   20.10
  -7   0   1 2958.47   19.44
   7   0  -1 3097.40   32.85
  -7   0   1 3024.70   19.13
   7   0  -1 3277.81   38.00
  -7   0   0   72.64    3.19
  -7   0   0   72.17    2.72
   7   0   0   71.03    3.72
   7   0   0   67.98    5.00
  -7   0   0   60.15    3.49
   7   0   0   68.62    4.10
  -7   0   0   62.89    3.56
   7   0   0   64.42    3.65
   7   0   0   64.65    3.54
  -7   0   0   75.31    5.74
  -7   0   0   62.66    4.31
  -7   0   0   69.48    3.29
   7   0   0   72.68    4.57
  -7   0  -1 1778.07   14.13
  -7   0  -1 1807.76   18.46
   7   0   1 1976.20   26.28
   7   0   1 1733.93   28.36
   7   0   1 1725.21   28.19
   7   0   1 1729.93   26.51
  -7   0  -1 1826.08   26.92
   7   0   1 1712.51   26.86
  -7   0  -1 1620.43   29.38
  -7   0  -1 1804.36   18.79
  -7   0  -1 1561.49   29.10
  -7   0  -2  320.88   18.02
   7   0   2  353.28   15.63
   7   0   2  346.63   15.13
   7   0   2  348.21   15.18
   7   0   2  351.16   15.92
  -7   0  -2  361.54   19.95
  -7   0  -2  358.18    9.60
  -7   0  -2  316.42   16.55
   7   0   3  205.80   13.58
  -7   0  -3  190.23   16.90
   7   0   3  219.95   13.36
   7   0   3  214.36   18.25
   7   0   3  192.68   12.75
  -7   0  -3  181.95   10.50
   7   0   3  198.43   13.58
   7   0   3  182.96   12.87
   7   0   3  198.08   12.82
   7   0   3  191.56   12.91
   7   0   3  218.75   13.36
  -7   0  -3  191.20   15.55
  -7   0  -3  168.64   17.31
   7   0   3  195.86   12.95
   7   0   4  143.49   13.42
   7   0   4  155.88   10.81
  -7   0  -4  125.52   11.14
  -7   0  -4  128.67    7.63
  -7   0  -5   23.68    3.36
   7   0   5    4.37    4.13
   7   0   5   23.32    2.63
   7   0   5   31.28    3.15
  -7   0  -5   23.61    5.32
  -7   0  -5   -0.77    1.95
   7   1  -5   -0.84    1.54
  -7  -1   5    1.51    1.70
  -7  -1   5    2.69    0.85
  -7  -1   5    1.11    0.46
  -7  -1   4  109.46    7.44
  -7  -1   4  112.45    6.09
  -7  -1   3  216.17    7.08
   7   1  -3  218.22   11.73
  -7  -1   3  215.87   10.24
   7   1  -3  213.77   17.70
  -7  -1   3  198.61    8.22
   7   1  -3  193.03   16.26
   7   1  -3  200.52   16.61
  -7  -1   2  237.29    6.65
   7   1  -2  217.41    9.53
   7   1  -2  232.01   13.81
  -7  -1   2  190.86    5.39
  -7  -1   2  209.53    5.86
  -7  -1   2  205.28    5.73
   7   1  -2  233.01    6.23
   7   1  -2  230.31    6.34
   7   1  -2  225.02   14.14
   7   1  -2  210.58   12.88
  -7  -1   1  267.20    6.09
   7   1  -1  263.36    8.07
  -7  -1   1  297.37    6.58
  -7  -1   1  313.11   13.73
   7   1  -1  244.62   10.83
  -7  -1   1  248.91    6.28
  -7  -1   1  246.56    6.20
   7   1  -1  252.94    6.38
   7   1  -1  249.18    6.53
   7   1  -1  243.67   10.73
   7   1  -1  260.46    8.26
  -7  -1   1  308.41    6.14
  -7  -1   0    2.50    0.80
  -7  -1   0    3.71    1.09
  -7  -1   0    2.14    0.63
   7   1   0    3.84    1.68
   7   1   0    2.48    0.93
   7   1   0    2.50    1.29
  -7  -1   0    2.79    1.49
   7   1   0    3.12    1.53
  -7  -1   0    3.97    1.57
   7   1   0    2.29    1.40
  -7  -1   0    2.11    1.19
  -7  -1   0    6.00    2.76
   7   1   0    2.42    1.00
  -7  -1   0    3.27    1.02
  -7  -1  -1  162.69    5.04
   7   1   1  194.48    5.43
   7   1   1  177.46    7.81
  -7  -1  -1  130.91    8.33
   7   1   1  180.00   11.26
   7   1   1  158.10    8.93
  -7  -1  -1  166.26    8.56
   7   1   1  159.73    8.56
   7   1   1  154.27    9.00
   7   1   1  161.05    8.71
  -7  -1  -1  121.79    7.97
  -7  -1  -1  179.64    6.13
  -7  -1  -1  162.54    9.28
  -7  -1  -1  135.76    7.57
   7   1   2 1021.81   24.12
  -7  -1  -2 1095.73   31.52
   7   1   2 1104.41   27.82
   7   1   2 1103.09   27.39
   7   1   2 1073.19   27.17
   7   1   2 1081.06   28.27
  -7  -1  -2 1033.94   29.63
  -7  -1  -2 1063.43   31.07
  -7  -1  -2 1065.81   16.46
  -7  -1  -3   54.15    8.95
   7   1   3   62.92    7.91
   7   1   3   53.62    6.91
  -7  -1  -3   44.15    6.98
   7   1   3   48.86   15.12
   7   1   3   54.81    9.69
   7   1   3   54.77    7.23
   7   1   3   48.58    6.62
   7   1   3   55.06    7.27
   7   1   3   53.00    6.96
   7   1   3   50.89    7.08
  -7  -1  -3   51.31    5.63
   7   1   3   52.96    7.17
   7   1   3   59.22    6.92
  -7  -1  -3   52.58    5.05
  -7  -1  -3   45.64    7.62
   7   1   3   56.35    7.22
  -7  -1  -4  124.02   11.05
  -7  -1  -4  123.80   10.98
   7   1   4  138.92   10.81
   7   1   4  130.38   10.30
   7   1   4  141.59   14.10
  -7  -1  -4  140.98    8.39
  -7  -1  -4  115.58    7.19
   7   1   4  129.84   10.58
  -7  -1  -5   -0.10    0.98
  -7  -1  -5    1.15    0.71
   7   1   5   -3.26    4.64
   7   1   5    0.66    0.99
  -7  -1  -5    2.52    2.33
  -7  -2   5  106.76    3.99
  -7  -2   5   92.91    3.47
  -7  -2   4   23.56    3.11
  -7  -2   4   18.25    3.03
  -7  -2   4   18.69    2.58
  -7  -2   3    0.39    2.17
  -7  -2   3    0.55    1.09
   7   2  -3    1.85    1.23
   7   2  -3    0.72    1.93
  -7  -2   3    0.70    0.84
   7   2  -3    2.85    2.30
   7   2  -2   13.62    4.13
  -7  -2   2   19.82    2.04
   7   2  -2   17.61    2.96
   7   2  -2   23.61    5.06
  -7  -2   1    0.06    0.47
   7   2  -1    0.14    0.98
   7   2  -1   -0.24    0.71
   7   2  -1    0.81    0.82
   7   2  -1    1.17    0.80
   7   2  -1    1.54    0.95
  -7  -2   1    0.34    0.57
   7   2  -1    0.70    1.19
  -7  -2   1    0.36    0.61
  -7  -2   0    1.48    0.71
   7   2   0    1.96    1.36
   7   2   0    2.05    0.88
   7   2   0    0.18    0.92
   7   2   0   -0.14    0.84
   7   2   0    1.01    1.17
   7   2   0    0.85    1.03
  -7  -2   0    0.54    0.94
  -7  -2   0    0.58    0.70
  -7  -2   0    1.60    0.80
   7   2   1   10.60    1.71
   7   2   1   11.51    2.11
  -7  -2  -1    6.06    2.13
  -7  -2  -1   10.53    1.60
   7   2   1   10.90    3.19
   7   2   1    9.79    2.54
   7   2   1   11.25    2.85
   7   2   1   11.21    2.63
   7   2   1    7.64    2.30
  -7  -2  -1    9.86    2.47
  -7  -2  -1    6.02    2.28
  -7  -2  -1   11.73    1.71
  -7  -2  -2    4.81    2.76
   7   2   2    1.95    1.42
   7   2   2    5.18    2.26
   7   2   2    4.43    2.28
   7   2   2    4.61    2.52
   7   2   2    3.95    2.09
  -7  -2  -2    3.78    1.15
   7   2   2    4.72    2.47
  -7  -2  -2    4.64    2.75
  -7  -2  -3  754.40   25.52
   7   2   3  852.90   28.30
   7   2   3  793.23   28.05
  -7  -2  -3  722.51   30.38
  -7  -2  -3  726.50   26.86
   7   2   3  833.18   27.89
   7   2   3  820.91   36.53
   7   2   3  777.96   27.49
  -7  -2  -3  779.06   21.15
   7   2   3  668.09   24.23
   7   2   3  802.85   28.12
   7   2   3  801.34   28.18
   7   2   3  772.23   27.10
   7   2   3  877.15   28.20
  -7  -2  -3  800.28   19.16
  -7  -2  -3  801.79   30.32
   7   2   3  812.60   28.31
   7   2   3  806.07   27.03
   7   2   4    0.42    2.03
  -7  -2  -4   -0.10    1.55
   7   2   4    1.57    1.28
  -7  -2  -4   -0.31    1.87
   7   2   4   -0.66    9.02
   7   2   4   -0.84    2.78
  -7  -2  -4    0.71    1.12
   7   2   4    1.31    1.88
   7   2   4   -0.41    1.47
  -7  -2  -4   -0.44    0.97
  -7  -2  -5    7.86    1.95
  -7  -2  -5    6.84    1.63
   7   2   5    6.24    4.31
   7   2   5    9.41    2.07
  -7  -2  -5    1.57    1.65
  -7  -3   4    0.26    0.89
  -7  -3   4   -1.69    1.13
  -7  -3   4   -0.32    1.89
  -7  -3   4    1.14    0.90
  -7  -3   3   10.11    3.68
  -7  -3   3    1.07    1.29
   7   3  -3    2.86    1.80
  -7  -3   3    6.09    1.85
  -7  -3   3    4.47    1.44
   7   3  -3   11.78    5.00
  -7  -3   2    4.56    1.17
  -7  -3   2    2.11    1.34
   7   3  -2    1.69    1.55
   7   3  -2    4.93    1.78
  -7  -3   2    6.05    1.61
  -7  -3   2    4.49    1.22
   7   3  -2    7.03    3.30
  -7  -3   1   52.37    3.44
   7   3  -1   53.54    4.15
   7   3  -1   41.50    4.68
  -7  -3   0  430.73    9.92
   7   3   0  378.44    9.58
   7   3   0  395.76   13.17
   7   3   0  429.81   13.91
   7   3   0  403.62   13.34
   7   3   0  395.31   13.13
   7   3   0  430.31   14.12
   7   3   1   74.11    5.01
   7   3   1   62.05    4.80
  -7  -3  -1   61.26    4.27
   7   3   1   75.41    7.55
   7   3   1   58.62    6.19
   7   3   1   62.66    6.31
   7   3   1   58.60    6.07
   7   3   1   65.17    6.74
  -7  -3  -1   61.53    5.47
   7   3   2  128.11    8.43
   7   3   2  135.92   10.85
   7   3   2  137.17   10.69
   7   3   2  134.81   10.94
   7   3   2  127.45   10.29
   7   3   2  132.36   10.75
  -7  -3  -2  140.41   10.69
  -7  -3  -3   67.09    7.23
   7   3   3   75.07    9.24
   7   3   3   67.62    8.47
  -7  -3  -3   59.99    8.45
  -7  -3  -3   71.46    8.40
   7   3   3   73.77    8.87
   7   3   3   76.26   11.44
   7   3   3   79.52   17.49
   7   3   3   74.03    8.74
  -7  -3  -3   74.89    6.50
   7   3   3   70.61    8.72
   7   3   3   70.36    8.55
   7   3   3   74.50    8.74
   7   3   3   70.77    8.75
  -7  -3  -3   70.42    8.65
  -7  -3  -3   65.75    5.49
   7   3   3   66.03    8.08
   7   3   3   74.12    8.84
   7   3   4   10.32    3.53
  -7  -3  -4    8.38    2.84
   7   3   4    3.77    2.74
  -7  -3  -4   10.57    3.47
   7   3   4    7.87    8.06
   7   3   4    7.08    5.10
  -7  -3  -4   12.79    2.65
  -7  -3  -4   -0.67    2.91
   7   3   4    9.34    3.58
   7   3   4    5.25    2.89
  -7  -3  -4    9.57    2.06
  -7  -3  -5    0.19    0.63
  -7  -3  -5    0.16    0.70
  -7  -3  -5    0.04    1.58
   7   3   5   -0.15    0.69
  -7  -3  -5   -0.63    0.83
  -7  -4   4    0.65    0.73
  -7  -4   4    1.06    0.83
  -7  -4   4    0.58    0.85
  -7  -4   3   41.18    4.06
  -7  -4   3   40.87    4.88
  -7  -4   3   54.92    4.62
  -7  -4   2   80.66    5.12
   7   4  -2   81.06    6.49
  -7  -4   2   88.38    5.53
  -7  -4   2   79.55    6.59
   7   4  -2   67.40    7.56
  -7  -4   2   93.25    5.91
  -7  -4   2   97.90    5.96
   7   4  -1   39.21    4.61
  -7  -4   1   47.60    3.87
   7   4  -1   47.65    4.13
   7   4   0  176.58    9.39
   7   4   0  183.85    7.11
  -7  -4   0  196.83    7.92
   7   4   1   91.36    6.41
  -7  -4  -1   79.56    5.55
   7   4   1   79.07    5.57
  -7  -4  -1   75.65    5.09
   7   4   1   78.51    7.49
   7   4   1   82.02    7.58
   7   4   1   81.37    7.47
   7   4   1   84.70    7.93
   7   4   1   78.52    7.54
   7   4   2   25.93    5.14
   7   4   2   27.57    4.43
   7   4   2   26.05    4.89
  -7  -4  -2   27.28    4.66
   7   4   2   36.41    7.14
   7   4   2   19.59    4.34
  -7  -4  -2   25.49    3.63
   7   4   2   17.61    4.04
   7   4   2   20.79    4.32
   7   4   2   24.49    4.73
   7   4   2   30.17    5.04
  -7  -4  -2   32.72    5.09
  -7  -4  -2   27.72    3.23
   7   4   2   26.22    4.99
  -7  -4  -2   30.67    3.33
   7   4   3   54.24    7.68
   7   4   3   49.93    8.04
  -7  -4  -3   51.63    6.87
   7   4   3   44.36    6.75
  -7  -4  -3   45.22    5.58
  -7  -4  -3   40.12    5.29
   7   4   3   33.54   10.85
   7   4   3   51.38    9.08
  -7  -4  -3   58.39    5.71
   7   4   3   52.23    7.53
   7   4   3   46.40    6.53
   7   4   3   52.73    8.13
  -7  -4  -3   51.95    7.13
  -7  -4  -3   58.97    5.07
   7   4   4    0.71    1.58
  -7  -4  -4    1.01    1.32
   7   4   4    1.14    1.86
  -7  -4  -4   -1.04    1.52
  -7  -4  -4    0.13    0.85
   7   4   4    2.67    5.84
   7   4   4    0.66    2.86
  -7  -4  -4    0.25    0.86
   7   4   4    0.85    1.56
   7   4   4   -1.93    1.92
  -7  -4  -4    1.40    0.89
  -7  -4  -5   12.42    1.59
  -7  -4  -5   14.93    1.92
  -7  -4  -5    9.28    2.10
   7   4   5    6.69    1.27
   7   4   5    9.97    1.50
  -7  -5   4    1.76    0.87
  -7  -5   4    1.02    0.68
  -7  -5   3  137.12    6.82
  -7  -5   3  127.46    6.58
  -7  -5   3  118.33    7.63
  -7  -5   2    1.43    1.00
  -7  -5   2    2.05    1.10
  -7  -5   2    1.76    1.46
  -7  -5   2    1.98    1.08
  -7  -5   1    0.00    1.06
  -7  -5   1    1.23    1.03
  -7  -5   1    2.02    1.42
  -7  -5   1    0.02    0.91
   7   5  -1    0.22    0.65
  -7  -5   1    2.13    1.38
  -7  -5   1    0.60    0.93
  -7  -5   0    2.02    1.32
  -7  -5   0    0.50    0.76
   7   5   0    0.03    0.85
  -7  -5   0    0.27    0.62
   7   5   1   22.54    3.81
  -7  -5  -1   21.56    2.79
  -7  -5  -1   26.82    3.30
  -7  -5  -1   23.75    2.80
   7   5   2    5.13    2.95
   7   5   2    5.54    2.78
  -7  -5  -2    2.92    1.97
   7   5   2    3.53    3.57
  -7  -5  -2    3.58    1.58
   7   5   2    2.59    2.05
   7   5   2    4.65    2.02
  -7  -5  -2    5.34    1.94
   7   5   2    2.83    2.15
   7   5   2    2.21    1.76
   7   5   2    5.28    2.40
  -7  -5  -2    4.22    1.64
   7   5   2    3.42    2.10
   7   5   3    3.60    2.19
  -7  -5  -3    0.67    0.92
   7   5   3    2.48    2.85
   7   5   3    4.98    2.65
  -7  -5  -3    3.37    1.99
   7   5   3    6.14    3.52
  -7  -5  -3    4.94    2.17
  -7  -5  -3    5.55    1.89
   7   5   3    4.03    2.32
   7   5   3    0.48    2.32
  -7  -5  -3    5.53    1.63
   7   5   4    4.38    2.25
  -7  -5  -4    2.49    1.36
  -7  -5  -4    2.79    1.50
   7   5   4    3.20    2.24
  -7  -5  -4    2.09    2.01
  -7  -5  -4    3.14    1.32
   7   5   4    7.63    3.80
  -7  -5  -4    5.00    1.49
   7   5   4    4.10    1.80
   7   5   4    4.47    2.30
  -7  -5  -4    3.18    1.08
  -7  -6   3    0.40    0.86
  -7  -6   3   -0.24    0.67
  -7  -6   2    1.71    1.22
  -7  -6   2    0.96    0.93
  -7  -6   2    0.66    0.89
  -7  -6   2    3.15    1.24
  -7  -6   2    0.08    0.78
  -7  -6   1    6.59    1.81
  -7  -6   1    6.12    1.82
  -7  -6   1    4.23    1.64
  -7  -6   1    5.53    1.50
  -7  -6   0   50.41    4.87
  -7  -6   0   50.69    4.71
   7   6   0   48.96    5.90
  -7  -6  -1  154.72    8.43
  -7  -6  -1  144.87    7.38
  -7  -6  -1  154.13    7.26
   7   6   2  105.34    9.70
  -7  -6  -2  144.71    8.53
  -7  -6  -2   95.96    8.06
  -7  -6  -2  130.61    7.36
  -7  -6  -2  144.09    8.33
   7   6   2  116.41   11.62
  -7  -6  -2  127.64    6.93
   7   6   3    3.50    2.45
  -7  -6  -3    1.31    1.10
   7   6   3   -0.17    2.71
  -7  -6  -3    0.64    1.25
  -7  -6  -3    1.71    1.31
   7   6   3    2.28    2.98
  -7  -6  -3    1.34    1.15
   7   6   3    1.63    1.59
   7   6   3    1.52    2.20
  -7  -6  -3    1.55    1.04
  -7  -6  -4    0.60    0.72
   7   6   4   -0.54    0.85
  -7  -6  -4    0.65    0.67
   7   6   4   -1.40    1.86
  -7  -6  -4    0.45    0.86
   7   6   4    1.12    1.44
  -7  -6  -4   -0.13    0.63
   7   6   4   -0.09    0.58
  -7  -7   3    9.64    1.37
  -7  -7   2    1.90    0.95
  -7  -7   2    0.70    0.63
  -7  -7   2    0.22    0.55
  -7  -7   1  129.06    7.35
  -7  -7   1  127.07    7.00
  -7  -7   0   99.30    6.39
  -7  -7   0   93.88    6.67
  -7  -7  -1   18.84    3.42
  -7  -7  -1   24.45    3.48
  -7  -7  -1   22.50    2.88
   7   7   1   16.73    3.83
  -7  -7  -2   83.79    6.92
  -7  -7  -2   92.22    5.82
   7   7   2   82.49    7.71
   7   7   2   95.79    9.98
   7   7   3    1.76    2.36
  -7  -7  -3    0.65    1.11
   7   7   3    1.79    1.38
   7   7   3    1.67    2.02
  -7  -7  -3   -0.11    0.61
   7   7   3    2.79    1.91
  -7  -7  -4    1.64    0.60
   7   7   4    2.99    1.32
   7   7   4    3.02    1.25
  -7  -8   2    1.50    0.54
  -7  -8   1  487.81   12.29
  -7  -8   1  512.25   11.96
  -7  -8   0  163.89    8.05
  -7  -8   0  163.43    7.20
  -7  -8  -1   10.69    1.90
  -7  -8  -1   11.51    2.17
  -7  -8  -1   14.00    2.02
   7   8   1    9.85    2.89
  -7  -8  -2   60.10    4.70
  -7  -8  -2   60.36    3.91
   7   8   2   58.83    7.42
   7   8   2   53.33    6.11
   7   8   3    0.28    1.35
  -7  -8  -3    1.24    0.66
   7   8   3    0.18    0.77
   7   8   3    1.50    1.23
   7   8   3    0.10    0.93
  -7  -9   1  143.81    4.66
  -7  -9   1  151.00    4.52
  -7  -9   0   40.09    3.09
  -7  -9   0   36.18    2.61
  -7  -9  -1   20.92    1.68
  -7  -9  -1   20.86    2.21
   7   9   1   17.32    3.39
   7   9   2   20.70    3.26
   7   9   2   17.73    2.68
   8  -9  -2    1.43    0.39
  -8   9   2    7.17    1.08
  -8   9   2    6.97    1.13
  -8   9   2    3.05    0.68
  -8   9   2    7.74    1.35
  -8   9   1   17.07    1.82
  -8   9   1   14.06    1.80
   8  -9   0    0.75    1.33
  -8   8   3    3.20    0.82
  -8   8   3    3.74    1.10
  -8   8   3    3.01    0.92
   8  -8  -3    3.15    0.91
  -8   8   3    3.97    1.20
  -8   8   3    3.12    1.01
   8  -8  -2    2.29    0.84
  -8   8   2    2.24    1.10
  -8   8   2    2.39    0.86
  -8   8   2    2.36    1.24
  -8   8   1   25.80    2.69
  -8   8   1   22.06    2.95
   8  -8   0  -10.83    6.75
  -8   8   0    4.22    1.37
  -8   7   4   -0.16    0.52
  -8   7   4    1.75    0.70
   8  -7  -4    0.85    0.48
   8  -7  -4    2.77    1.42
  -8   7   4    3.44    1.12
   8  -7  -4    1.08    1.63
  -8   7   4    1.85    0.76
  -8   7   3   42.69    4.03
  -8   7   3   42.69    3.15
  -8   7   3   46.53    3.89
   8  -7  -3   47.30    3.77
   8  -7  -3   29.64    4.80
  -8   7   3   43.33    4.67
   8  -7  -3   40.70    7.25
  -8   7   3   46.86    4.04
  -8   7   3   49.85    4.14
   8  -7  -3   33.16    6.48
  -8   7   2    1.68    1.21
   8  -7  -2    3.98    3.02
  -8   7   2    1.12    0.96
   8  -7  -2    1.28    0.90
  -8   7   2    0.76    1.23
   8  -7  -2   -2.36    3.50
  -8   7   2    2.27    1.58
   8  -7  -1  179.93    7.30
  -8   7   1  180.47    8.55
   8  -7  -1  164.68   13.30
   8  -7   1    1.35    2.01
   8  -7   1   -4.81    6.99
   8  -7   2   -0.62    2.03
   8  -6  -4  503.20   17.57
  -8   6   4  559.86   11.62
  -8   6   4  550.54   11.51
   8  -6  -4  438.04   16.67
   8  -6  -4  527.85   10.78
  -8   6   4  531.93   14.58
   8  -6  -4  469.93   20.48
  -8   6   4  570.75   13.39
   8  -6  -4  488.68   21.98
  -8   6   3    0.26    1.10
  -8   6   3   -0.32    1.16
   8  -6  -3    0.64    0.95
   8  -6  -3    1.53    2.32
  -8   6   3    0.21    1.39
   8  -6  -3   -3.43    3.98
   8  -6  -3   -0.94    1.30
   8  -6  -3   -1.53    2.84
  -8   6   3   -0.44    0.93
  -8   6   3    0.69    1.38
  -8   6   2    0.53    1.23
   8  -6  -2   -0.48    2.83
  -8   6   2   -0.56    0.97
   8  -6  -2   -0.96    1.82
   8  -6  -2    2.31    1.28
  -8   6   2   -0.71    1.74
   8  -6  -2   -1.09    2.81
   8  -6  -2    1.65    2.98
  -8   6   2    0.72    1.35
   8  -6  -2    0.25    2.07
   8  -6  -1   11.69    2.12
   8  -6  -1   11.00    2.89
  -8   6   1   13.76    2.62
  -8   6   1   12.88    2.15
   8  -6  -1   12.93    4.65
  -8   6   1    7.85    4.90
   8  -6  -1    9.27    3.81
   8  -6  -1    7.98    3.94
  -8   6   1   14.22    2.41
   8  -6   0    5.04    2.61
   8  -6   0    4.56    4.07
  -8   6   0   10.90    5.59
  -8   6   0    7.28    1.63
   8  -6   0   -0.28    2.72
  -8   6   0   10.17    2.15
   8  -6   1   60.30   15.38
   8  -6   2   20.62    9.94
   8  -5  -5   14.78    2.34
  -8   5   5   17.64    1.71
   8  -5  -5   19.09    3.30
   8  -5  -4  133.58   10.39
  -8   5   4  158.45    6.86
  -8   5   4  152.48    6.73
   8  -5  -4  148.19   10.96
   8  -5  -4  153.20    6.32
  -8   5   4  151.16    8.74
  -8   5   4  152.28    7.97
   8  -5  -4  139.30   13.05
   8  -5  -4  137.05   11.95
   8  -5  -4  136.10    8.79
  -8   5   4  142.71    5.89
   8  -5  -3   -0.05    0.98
   8  -5  -3    1.28    2.29
  -8   5   3   -0.23    1.04
  -8   5   3   -0.03    1.01
   8  -5  -3   -0.03    1.85
   8  -5  -3    1.16    1.03
  -8   5   3    0.30    1.44
   8  -5  -3    3.05    2.87
   8  -5  -3    0.93    1.26
   8  -5  -3    0.02    3.26
  -8   5   3   -0.42    0.88
  -8   5   3    1.29    1.57
  -8   5   2    0.87    1.14
  -8   5   2    1.77    1.21
   8  -5  -2    1.59    1.92
  -8   5   2    1.42    0.88
  -8   5   2    2.29    4.26
  -8   5   2    1.95    1.30
   8  -5  -2    2.39    1.24
   8  -5  -2    4.25    1.54
   8  -5  -2    0.36    1.66
   8  -5  -2    1.40    0.72
   8  -5  -2    2.31    0.98
  -8   5   2    1.17    0.76
  -8   5   2    1.66    0.93
  -8   5   2   -0.52    1.68
   8  -5  -2    0.97    2.10
   8  -5  -2    3.29    2.14
   8  -5  -2    2.30    2.12
   8  -5  -2    2.00    3.11
  -8   5   2    1.85    1.11
  -8   5   2    1.97    0.99
  -8   5   2    2.71    1.68
  -8   5   1    7.12    1.67
  -8   5   1    8.02    1.65
   8  -5  -1    5.50    2.78
  -8   5   1    9.84    1.94
  -8   5   1   10.03    5.43
   8  -5  -1    4.75    2.68
   8  -5  -1    9.76    1.86
   8  -5  -1    7.29    2.13
  -8   5   1    9.17    1.81
  -8   5   1    8.27    1.63
  -8   5   1   10.50    1.92
   8  -5  -1    9.03    1.68
   8  -5  -1    9.68    1.72
   8  -5  -1    7.00    3.17
   8  -5  -1    8.44    4.49
  -8   5   1    8.58    1.75
   8  -5  -1    4.04    3.88
   8  -5   0   82.64    8.07
   8  -5   0  105.60    9.45
   8  -5   0   81.54   10.04
  -8   5   0  136.66    6.19
   8  -5   0  125.86   14.20
   8  -5   0  110.30   11.91
  -8   5   0  131.59   14.20
  -8   5   0  112.78    6.50
  -8   5  -1  191.85    8.98
  -8   5  -1  211.30   15.63
   8  -5   2   36.56   13.17
   8  -5   2   15.24    3.47
   8  -5   3  -11.75    7.77
   8  -5   3    1.16    1.11
   8  -4  -5    9.60    2.40
   8  -4  -5    8.97    2.23
  -8   4   5   10.22    1.60
   8  -4  -5    6.90    2.12
   8  -4  -5    3.30    1.87
  -8   4   4    0.01    0.59
   8  -4  -4    0.85    2.11
  -8   4   4   -0.70    0.73
  -8   4   4    2.05    1.95
   8  -4  -4    0.18    0.51
   8  -4  -4   -0.68    1.91
  -8   4   4   -0.52    1.38
   8  -4  -4   -1.60    2.69
   8  -4  -4    0.69    1.40
   8  -4  -4   -5.64    3.82
  -8   4   4    0.22    1.37
  -8   4   3   30.14    3.73
   8  -4  -3   29.49    6.04
  -8   4   3   32.77    5.15
  -8   4   3   33.59    3.82
   8  -4  -3   37.18    6.06
   8  -4  -3   37.08    3.73
  -8   4   3   34.12    4.98
  -8   4   3   44.41    4.27
  -8   4   3   39.83    4.08
  -8   4   3   42.97    4.19
   8  -4  -3   37.34    4.08
   8  -4  -3   42.20    4.30
   8  -4  -3   32.21    6.86
   8  -4  -3   28.72    4.98
   8  -4  -3   40.45    8.35
  -8   4   3   33.32    3.82
  -8   4   3   34.83    4.52
   8  -4  -3   35.32    5.95
   8  -4  -3   33.90    6.77
  -8   4   2    3.51    1.69
  -8   4   2    3.23    1.37
   8  -4  -2    3.36    2.20
  -8   4   2    4.56    1.22
  -8   4   2    7.58    5.28
  -8   4   2    5.05    1.65
   8  -4  -2    4.26    1.24
   8  -4  -2    3.81    1.26
   8  -4  -2    1.98    1.99
   8  -4  -2    5.26    1.41
  -8   4   2    6.18    1.51
  -8   4   2    3.56    1.92
  -8   4   2    6.06    1.48
   8  -4  -2    5.06    1.40
  -8   4   2    5.16    1.40
   8  -4  -2    5.71    2.60
   8  -4  -2    4.80    2.40
   8  -4  -2    3.51    2.42
   8  -4  -2    4.80    2.65
  -8   4   2    1.75    0.94
  -8   4   2    3.33    1.30
  -8   4   1   64.02    4.08
  -8   4   1   73.25   11.04
  -8   4   1   67.85    5.77
   8  -4  -1   56.04    4.74
   8  -4  -1   65.31    6.32
  -8   4   1   63.27    4.07
  -8   4   1   59.40    4.04
  -8   4   1   68.12    4.27
   8  -4  -1   66.55    4.10
   8  -4  -1   65.19    4.16
  -8   4   1   59.28    3.96
   8  -4  -1   75.00    7.77
  -8   4   0  156.61    6.10
   8  -4   0  132.34   11.20
   8  -4   0  116.67    8.79
  -8   4   0  148.26    6.84
  -8   4   0  148.70    6.84
   8  -4   0  157.52    7.49
   8  -4   0  145.57    6.37
   8  -4   0  146.35    6.58
  -8   4   0  167.41    7.14
  -8   4   0  199.65   15.79
  -8   4  -1  537.50   11.70
   8  -4   1  528.12   18.38
   8  -4   1  562.16   22.83
  -8   4  -1  553.17   14.01
  -8   4  -1  597.47   24.11
   8  -4   2   -3.03    8.91
   8  -4   2   -0.14    2.07
  -8   4  -2   -0.19    1.48
  -8   4  -2   -1.09    2.80
  -8   4  -2    2.49    2.07
  -8   4  -2    1.97    1.08
   8  -4   3   -9.97    9.40
   8  -4   3    0.17    1.28
   8  -4   4   18.90    2.84
  -8   4  -4    3.82    1.04
   8  -3  -5    0.60    1.31
   8  -3  -5    0.43    1.19
  -8   3   5    0.06    1.25
  -8   3   5    1.01    0.78
   8  -3  -5    1.13    1.38
   8  -3  -5   -1.37    1.98
   8  -3  -5    0.92    0.91
  -8   3   4   -0.65    0.86
   8  -3  -4   -3.91    2.82
  -8   3   4    0.44    0.64
   8  -3  -4    0.10    1.83
  -8   3   4    0.37    2.41
  -8   3   4    0.56    1.57
   8  -3  -4   -0.22    2.37
   8  -3  -4    1.60    2.02
   8  -3  -4    0.25    3.30
  -8   3   4    0.53    1.36
  -8   3   3    1.02    0.84
  -8   3   3    2.48    1.40
   8  -3  -3   -0.34    1.86
  -8   3   3    0.30    0.91
   8  -3  -3    0.90    1.93
  -8   3   3   -5.12    3.02
   8  -3  -3    0.55    0.76
   8  -3  -3    0.03    0.81
  -8   3   3    0.57    0.66
  -8   3   3    0.49    1.32
  -8   3   3    0.76    0.82
   8  -3  -3    1.24    1.71
   8  -3  -3    0.76    1.88
   8  -3  -3    4.95    3.29
   8  -3  -3    3.41    2.46
   8  -3  -3    2.08    2.65
  -8   3   3   -1.16    1.32
  -8   3   3    0.67    0.74
  -8   3   3    0.56    1.28
  -8   3   2   47.97    3.35
  -8   3   2   43.55    5.13
  -8   3   2   57.39   10.85
   8  -3  -2   52.44    3.79
   8  -3  -2   45.29    3.83
  -8   3   2   50.14    3.96
  -8   3   2   51.45    3.96
  -8   3   2   48.98    3.87
   8  -3  -2   45.13    3.78
   8  -3  -2   44.72    6.94
   8  -3  -2   48.26    6.23
  -8   3   1   79.76    4.07
  -8   3   1   71.51    5.50
   8  -3  -1   73.50    4.80
   8  -3  -1   71.67    5.46
  -8   3   1   83.85    4.47
  -8   3   1   78.41    4.23
  -8   3   1   82.25    4.40
   8  -3  -1   84.53    4.37
   8  -3  -1   81.28    4.36
  -8   3   1   82.12   10.39
  -8   3   1   71.73    3.88
   8  -3  -1   84.18    7.21
  -8   3   0  100.21    4.52
  -8   3   0   93.04    3.84
   8  -3   0  109.92    5.81
   8  -3   0  115.69    8.62
   8  -3   0   81.70    6.45
   8  -3   0   69.07    6.76
  -8   3   0   97.56    5.09
   8  -3   0  103.49    5.89
   8  -3   0   95.68    4.86
   8  -3   0   92.33    4.92
  -8   3   0   94.15    5.07
  -8   3   0  115.25   10.40
  -8   3   0   88.82    4.71
  -8   3  -1    0.57    2.47
  -8   3  -1    2.82    0.90
   8  -3   1    2.39    1.35
   8  -3   1    2.35    1.47
   8  -3   1    0.90    1.06
  -8   3  -1    1.32    1.81
  -8   3  -1    1.48    0.84
  -8   3  -1    2.59    1.44
  -8   3  -2   31.29    7.39
  -8   3  -2   22.64    6.49
   8  -3   2   39.15   14.77
   8  -3   2   21.16    3.93
  -8   3  -2   27.59    3.20
  -8   3  -2   29.87    6.12
   8  -3   3   59.14   18.83
   8  -3   3   70.98    8.52
   8  -3   4   49.33    5.51
   8  -3   4   41.59    3.37
   8  -2  -5  111.80    7.04
   8  -2  -5  117.73    9.39
   8  -2  -5  106.25    7.30
   8  -2  -5  101.23    9.73
  -8   2   4    0.98    0.81
   8  -2  -4    0.22    2.39
   8  -2  -4   -0.51    2.00
  -8   2   4    1.66    3.38
  -8   2   4   -0.03    1.32
   8  -2  -4    2.29    2.59
   8  -2  -4   -0.86    2.16
   8  -2  -4    4.28    4.65
  -8   2   4    1.06    1.18
  -8   2   3  457.84   12.62
  -8   2   3  408.13   15.76
  -8   2   3  406.70   11.93
   8  -2  -3  493.70   24.61
  -8   2   3  458.90   12.29
   8  -2  -3  568.86   22.88
   8  -2  -3  425.65   20.22
  -8   2   3  475.47   16.38
  -8   2   3  505.69   13.05
   8  -2  -3  480.56   13.45
  -8   2   3  516.63   13.11
   8  -2  -3  474.18   13.28
  -8   2   3  479.07   12.74
   8  -2  -3  557.00   31.04
   8  -2  -3  444.85   23.78
  -8   2   3  437.53   12.56
  -8   2   3  433.86   14.47
   8  -2  -3  577.74   25.95
   8  -2  -3  437.31   22.25
  -8   2   2   31.94    2.46
  -8   2   2   31.77    4.21
  -8   2   2   30.47    7.65
   8  -2  -2   26.26    4.12
  -8   2   2   37.50    3.16
  -8   2   2   36.70    3.13
   8  -2  -2   37.64    3.28
  -8   2   2   37.77    3.16
   8  -2  -2   34.49    3.17
   8  -2  -2   29.12    5.22
   8  -2  -2   37.11    5.54
  -8   2   1   56.53    3.11
  -8   2   1   44.47    4.00
   8  -2  -1   56.80    3.34
   8  -2  -1   53.44    4.73
   8  -2  -1   51.65    3.73
  -8   2   1   54.75    3.31
  -8   2   1   57.37    3.46
  -8   2   1   57.46    3.44
   8  -2  -1   56.94    3.40
   8  -2  -1   57.88    3.46
  -8   2   1   47.98    2.91
   8  -2  -1   57.36    5.56
  -8   2   1   57.99    8.09
   8  -2   0   53.12    3.94
  -8   2   0   50.71    3.01
  -8   2   0   50.66    2.60
   8  -2   0   53.37    5.36
   8  -2   0   31.77    4.05
   8  -2   0   26.77    3.67
  -8   2   0   44.26    3.28
  -8   2   0   45.59    3.35
   8  -2   0   46.65    3.77
   8  -2   0   46.15    3.24
   8  -2   0   42.94    3.20
  -8   2   0   45.41    6.08
  -8   2   0   43.70    3.03
  -8   2  -1  141.81    5.47
   8  -2   1  146.31    8.32
   8  -2   1  141.60    8.42
   8  -2   1  143.25    7.88
   8  -2   1  144.90    8.08
  -8   2  -1  131.89    7.68
  -8   2  -1  169.90   12.47
  -8   2  -1  148.57    6.20
  -8   2  -1  154.79   10.57
  -8   2  -2   25.35    6.15
  -8   2  -2   15.60    5.07
   8  -2   2   27.41    4.42
   8  -2   2    8.06    7.87
   8  -2   2   31.79    5.02
   8  -2   2   30.19    4.55
   8  -2   2   28.92    4.53
   8  -2   2   26.19    4.33
   8  -2   2   31.18    4.87
  -8   2  -2   26.00    2.98
  -8   2  -2   27.43    5.77
   8  -2   3   74.80   20.68
  -8   2  -3  111.93   15.76
  -8   2  -4    3.80    1.81
   8  -2   4   20.32    4.07
   8  -2   4   17.36    2.97
  -8   2  -4    8.58    1.94
  -8   1   5   18.67    2.16
   8  -1  -5   14.90    3.60
   8  -1  -5   17.87    3.36
   8  -1  -5   14.12    3.89
   8  -1  -4   72.75   10.14
   8  -1  -4   81.97    8.22
  -8   1   4   70.94    6.03
  -8   1   4   64.89    5.30
   8  -1  -4   64.91   11.42
   8  -1  -3  117.16    7.00
  -8   1   3  116.23    5.89
  -8   1   3  111.39    5.84
  -8   1   3  131.67    6.45
   8  -1  -3  157.96   11.53
   8  -1  -3  109.64   11.15
  -8   1   3  121.69    5.92
   8  -1  -3  131.06    6.47
  -8   1   3  128.54    6.15
  -8   1   3  126.59    6.06
  -8   1   3  130.41    8.26
   8  -1  -3  127.84    6.45
   8  -1  -3  107.20   11.43
   8  -1  -3  143.05   15.94
  -8   1   3  129.27    6.52
  -8   1   3  129.18    7.41
   8  -1  -3  100.78   11.65
   8  -1  -2 1025.21   17.07
  -8   1   2 1077.68   13.18
  -8   1   2  947.23   15.40
  -8   1   2 1138.71   39.96
   8  -1  -2 1008.19   26.53
   8  -1  -2 1188.54   16.75
  -8   1   2 1140.39   15.97
  -8   1   2 1156.89   16.34
   8  -1  -2 1184.26   16.88
  -8   1   2 1172.41   16.29
   8  -1  -2 1077.79   29.33
   8  -1  -2 1114.77   29.93
   8  -1  -1   89.25    4.23
  -8   1   1   83.28    3.64
  -8   1   1   84.68    3.96
  -8   1   1   84.46    8.93
   8  -1  -1   80.15    6.15
   8  -1  -1   68.56    4.07
  -8   1   1   88.30    4.07
  -8   1   1   93.77    4.20
   8  -1  -1   88.36    4.00
   8  -1  -1   91.44    4.17
  -8   1   1   84.18    3.85
   8  -1  -1   71.26    6.02
  -8   1   1   82.82    3.56
   8  -1  -1   87.35    6.63
  -8   1   0    1.21    1.92
  -8   1   0    1.75    0.65
  -8   1   0    1.93    0.60
   8  -1   0    0.92    1.21
   8  -1   0    0.36    1.00
   8  -1   0    1.43    1.00
   8  -1   0    0.84    0.72
  -8   1   0    1.36    0.90
   8  -1   0    1.20    0.89
   8  -1   0    0.83    0.76
  -8   1   0    0.23    1.05
   8  -1   0   -0.14    1.09
  -8   1   0    1.65    0.87
  -8   1   0    0.87    0.67
   8  -1   1  125.76    7.43
  -8   1  -1  116.94    4.94
   8  -1   1  146.65   11.32
   8  -1   1  111.46    7.52
   8  -1   1  111.70    6.99
  -8   1  -1  122.83    7.34
   8  -1   1  125.35    7.50
  -8   1  -1  115.13    8.71
  -8   1  -1  117.31    9.51
  -8   1  -1  114.37    5.24
  -8   1  -2  603.72   26.40
   8  -1   2  588.50   20.88
   8  -1   2  577.50   20.49
   8  -1   2  580.50   21.12
   8  -1   2  599.03   21.60
  -8   1  -2  500.08   23.61
  -8   1  -2  556.40   12.91
  -8   1  -2  559.40   23.32
  -8   1  -2  583.18   27.97
   8  -1   3   85.80    8.56
  -8   1  -3   75.53   11.44
   8  -1   3   90.68    8.19
   8  -1   3   83.81   11.63
  -8   1  -3   73.19    6.94
   8  -1   3   78.69    7.73
  -8   1  -3   73.90   10.01
  -8   1  -3   79.58   12.64
  -8   1  -4   90.70    9.10
   8  -1   4  179.02   12.21
   8  -1   4  164.56    9.92
  -8   1  -4  110.55    6.85
  -8   1  -5    0.03    0.73
   8  -1   5    2.63    0.78
  -8   1  -5   -1.64    2.15
  -8   0   5   11.19    1.61
   8   0  -5    7.12    2.58
   8   0  -5    8.63    2.51
   8   0  -5    7.27    2.62
  -8   0   4   44.17    4.65
   8   0  -4   29.31    7.60
  -8   0   3   77.93    4.77
  -8   0   3   73.97    4.50
  -8   0   3   83.73    4.74
   8   0  -3   83.81    6.53
   8   0  -3   79.32    9.87
  -8   0   3   88.39    6.51
   8   0  -3   66.82    9.24
  -8   0   3   91.74    6.08
   8   0  -3   71.08    9.90
  -8   0   3   93.73    5.39
  -8   0   2 1304.78   16.82
   8   0  -2 1434.53   22.41
   8   0  -2 1161.09   30.16
  -8   0   2 1270.16   15.61
  -8   0   2 1296.31   16.22
  -8   0   2 1309.19   16.14
   8   0  -2 1381.15   16.97
   8   0  -2 1372.55   17.19
   8   0  -2 1366.30   33.49
   8   0  -2 1383.36   31.89
  -8   0   1  121.86    9.99
  -8   0   1  103.00    3.97
  -8   0   1  118.40    4.43
   8   0  -1  122.00    5.27
   8   0  -1   98.41    6.85
  -8   0   1  105.40    4.49
  -8   0   1  106.95    4.46
   8   0  -1  107.37    4.44
   8   0  -1  110.67    4.64
   8   0  -1  102.76    6.11
  -8   0   1  111.50    4.06
   8   0  -1  116.02    7.47
  -8   0   0  576.66    9.87
  -8   0   0  653.57    8.78
   8   0   0  689.36   12.61
   8   0   0  637.85   17.16
   8   0   0  608.96   12.52
  -8   0   0  612.20   12.17
   8   0   0  606.06   13.50
  -8   0   0  635.85   12.43
   8   0   0  619.17   12.23
  -8   0   0  644.74   17.80
  -8   0   0  640.43   10.76
  -8   0   0  554.57   14.04
   8   0   0  636.54   14.82
  -8   0  -1   87.95    3.39
  -8   0  -1   86.13    4.34
   8   0   1   93.27    6.15
  -8   0  -1   83.67    7.17
   8   0   1   89.26    6.95
   8   0   1   83.94    6.63
   8   0   1   81.38    6.14
  -8   0  -1   84.43    6.22
   8   0   1   76.97    6.13
  -8   0  -1   72.70    6.66
  -8   0  -1   91.14    4.58
  -8   0  -1   81.98    7.16
  -8   0  -2   19.82    4.77
   8   0   2   21.28    4.47
   8   0   2   22.74    4.58
   8   0   2   22.47    4.35
   8   0   2   20.92    4.17
  -8   0  -2   22.61    2.63
  -8   0  -2   21.72    5.08
  -8   0  -2   22.48    4.96
   8   0   3  467.89   20.90
  -8   0  -3  396.41   24.40
   8   0   3  466.57   19.70
   8   0   3  438.25   26.79
   8   0   3  414.22   19.44
   8   0   3  436.98   20.75
   8   0   3  393.86   19.47
   8   0   3  403.20   19.05
   8   0   3  390.20   19.42
  -8   0  -3  401.13   15.85
   8   0   3  469.01   19.99
  -8   0  -3  434.08   23.78
   8   0   3  400.88   19.44
   8   0   4   -0.56    1.65
  -8   0  -4   -1.03    1.66
   8   0   4   -3.65    8.91
   8   0   4   -1.47    3.76
   8   0   4    0.05    1.57
  -8   0  -4   -0.62    0.92
   8   0   4    0.42    1.38
  -8   0  -4   -0.16    0.90
  -8   0  -5   14.10    2.34
   8   0   5   23.26    2.48
  -8   0  -5   15.11    3.99
  -8  -1   5   15.14    3.27
  -8  -1   5   13.54    1.60
   8   1  -5    2.48    1.63
   8   1  -5    7.16    2.29
  -8  -1   4    8.98    2.25
  -8  -1   4    6.03    1.49
  -8  -1   3  251.22    7.96
   8   1  -3  249.91   11.97
  -8  -1   3  262.82   11.30
   8   1  -3  286.80   18.97
  -8  -1   3  250.91    8.97
   8   1  -3  245.75   18.10
  -8  -1   3  263.59    8.99
  -8  -1   2  261.81    7.35
   8   1  -2  258.53   10.29
   8   1  -2  228.45   13.61
  -8  -1   2  237.45    6.82
  -8  -1   2  241.90    6.79
   8   1  -2  259.00    7.24
   8   1  -2  261.57    7.48
   8   1  -2  226.32   14.15
  -8  -1   1   71.61    3.49
  -8  -1   1   81.69    3.66
  -8  -1   1   91.40    7.88
   8   1  -1   86.84    4.83
   8   1  -1   74.60    6.29
  -8  -1   1   73.63    3.81
  -8  -1   1   70.99    3.78
   8   1  -1   75.99    4.56
   8   1  -1   66.73    3.86
   8   1  -1   69.72    3.84
  -8  -1   1   83.25    3.57
   8   1  -1   75.15    5.97
   8   1   0   37.02    3.05
  -8  -1   0   35.05    2.62
  -8  -1   0   35.09    2.22
   8   1   0   34.78    4.07
   8   1   0   31.19    3.41
   8   1   0   31.24    3.14
   8   1   0   28.85    3.08
  -8  -1   0   25.78    2.75
  -8  -1   0   35.03    2.64
  -8  -1   0   24.33    2.94
   8   1   0   39.06    3.27
  -8  -1   0   32.68    3.76
  -8  -1  -1   -0.15    0.43
  -8  -1  -1    0.45    1.23
  -8  -1  -1   -0.11    1.18
   8   1   1   -0.01    1.57
   8   1   1   -0.41    1.02
   8   1   1   -0.27    1.44
   8   1   1    1.11    1.26
   8   1   1    0.71    1.21
   8   1   1   -0.83    1.25
  -8  -1  -1   -0.54    1.47
  -8  -1  -1    0.08    0.72
  -8  -1  -1   -0.20    1.12
  -8  -1  -2    0.49    2.29
   8   1   2    2.63    1.60
   8   1   2    4.16    2.56
   8   1   2    0.41    1.86
   8   1   2    1.01    2.27
   8   1   2    2.33    2.40
  -8  -1  -2    1.49    1.09
  -8  -1  -2    2.71    2.59
  -8  -1  -3  247.11   16.21
   8   1   3  276.31   16.66
  -8  -1  -3  256.54   19.21
   8   1   3  258.49   15.48
   8   1   3  249.99   20.79
   8   1   3  272.10   16.57
  -8  -1  -3  255.65   12.63
   8   1   3  248.27   15.61
   8   1   3  270.86   16.43
   8   1   3  271.97   16.27
   8   1   3  253.64   16.26
   8   1   3  282.32   16.16
  -8  -1  -3  254.06   11.10
  -8  -1  -3  260.63   18.01
   8   1   3  265.56   16.37
  -8  -1  -4   86.75    8.72
   8   1   4  110.97    9.49
  -8  -1  -4  104.60   10.08
   8   1   4  101.87    9.21
   8   1   4  114.80   13.20
  -8  -1  -4  105.44    7.25
   8   1   4  104.41    9.35
  -8  -1  -4  102.08    6.56
  -8  -1  -5   -1.02    1.02
  -8  -1  -5   -0.10    0.82
   8   1   5    3.01    4.04
   8   1   5    0.22    0.79
  -8  -1  -5    2.34    2.07
  -8  -2   5   47.02    2.51
   8   2  -5   17.77    2.71
  -8  -2   4   92.59    6.44
  -8  -2   4   87.96    5.09
   8   2  -3  175.66   10.50
  -8  -2   3  128.02    8.66
   8   2  -3  158.97   14.28
  -8  -2   3  157.67    7.39
   8   2  -3  163.30   14.93
   8   2  -2    2.87    2.10
   8   2  -2    0.75    1.05
  -8  -2   2    0.20    0.51
   8   2  -2    2.81    2.49
  -8  -2   1    9.14    1.37
   8   2  -1    9.14    1.72
   8   2  -1    5.62    2.02
   8   2  -1    7.62    1.79
   8   2  -1    6.26    1.54
   8   2  -1    7.16    1.64
   8   2  -1    6.20    1.99
  -8  -2   1    5.72    1.33
   8   2   0   97.72    5.03
  -8  -2   0   99.09    4.28
   8   2   0   90.43    6.57
   8   2   0   78.53    6.10
   8   2   0   81.02    6.09
   8   2   0   80.03    5.73
  -8  -2   0   86.01    5.59
   8   2   0   85.87    6.10
  -8  -2   0  100.30    4.66
  -8  -2  -1   84.84    4.53
   8   2   1   92.94    4.87
   8   2   1   81.76    5.70
   8   2   1   86.39    8.31
   8   2   1   77.81    7.31
   8   2   1   87.57    7.59
  -8  -2  -1   88.31    7.01
   8   2   1   80.71    7.05
   8   2   1   82.96    7.20
  -8  -2  -1   90.29    4.77
  -8  -2  -1   78.30    6.80
   8   2   2   59.00    6.18
  -8  -2  -2   63.68    7.69
   8   2   2   54.24    7.21
   8   2   2   55.93    7.28
   8   2   2   55.12    7.04
   8   2   2   58.94    7.18
  -8  -2  -2   65.87    4.45
  -8  -2  -2   56.49    7.28
   8   2   2   59.59    7.40
  -8  -2  -3  790.67   25.80
   8   2   3  775.36   28.64
  -8  -2  -3  738.06   27.11
  -8  -2  -3  672.40   29.66
   8   2   3  818.14   28.52
   8   2   3  806.12   36.97
   8   2   3  768.02   28.26
  -8  -2  -3  762.31   21.29
   8   2   3  686.61   25.28
   8   2   3  766.88   28.84
   8   2   3  792.68   28.59
   8   2   3  771.88   28.60
   8   2   3  830.88   28.38
   8   2   3  885.34   28.59
  -8  -2  -3  762.66   18.93
  -8  -2  -3  810.38   30.89
   8   2   3  815.48   29.34
   8   2   4    0.26    1.89
  -8  -2  -4    0.54    1.41
  -8  -2  -4   -0.05    1.83
   8   2   4   -1.98    8.28
   8   2   4    3.36    4.33
  -8  -2  -4    0.12    0.86
   8   2   4    1.33    2.31
   8   2   4   -1.21    1.71
  -8  -2  -4    1.41    1.08
  -8  -2  -5    0.00    0.59
  -8  -2  -5    0.08    0.81
   8   2   5   -2.22    1.49
   8   2   5   -0.07    0.71
  -8  -2  -5   -3.13    1.74
  -8  -3   4    0.94    0.82
  -8  -3   4   -1.62    1.97
  -8  -3   4   -0.05    0.84
  -8  -3   4    0.49    0.76
  -8  -3   3   -2.13    1.11
  -8  -3   3    0.33    1.14
  -8  -3   3   -0.03    0.86
  -8  -3   2    0.48    0.61
  -8  -3   2    0.47    0.65
  -8  -3   2   -0.89    0.70
  -8  -3   2    0.18    1.01
  -8  -3   2   -0.02    0.98
   8   3  -2   -0.16    1.33
   8   3  -2   -1.07    0.94
  -8  -3   2    0.48    0.64
  -8  -3   1   77.76    4.38
   8   3  -1   74.98    5.11
   8   3  -1   61.53    5.95
  -8  -3   0  719.59   13.44
   8   3   0  727.01   14.22
   8   3   0  668.78   18.74
   8   3   0  648.48   17.99
   8   3   0  712.33   19.58
   8   3   0  716.05   19.17
  -8  -3   0  672.16   16.91
   8   3   0  679.52   18.21
   8   3   1    2.92    1.19
  -8  -3  -1    2.81    1.09
   8   3   1    2.67    1.12
   8   3   1    4.39    2.20
   8   3   1    1.54    1.40
   8   3   1    1.93    1.66
   8   3   1    3.34    2.01
   8   3   1    1.49    1.69
  -8  -3  -1    3.47    1.53
   8   3   2   12.99    3.63
   8   3   2   10.86    3.50
  -8  -3  -2   13.33    3.56
   8   3   2   12.59    3.02
   8   3   2   17.98    5.46
   8   3   2   11.15    3.21
   8   3   2   11.77    3.60
  -8  -3  -2   13.59    2.72
   8   3   2   10.75    3.25
   8   3   2   12.72    3.71
   8   3   2   17.20    4.20
  -8  -3  -2   14.48    2.49
  -8  -3  -2   10.58    1.91
   8   3   2    7.45    2.83
  -8  -3  -2   12.10    3.44
   8   3   3   52.14    7.74
  -8  -3  -3   38.44    5.31
   8   3   3   47.55    7.27
   8   3   3   43.42    7.12
  -8  -3  -3   40.78    6.49
   8   3   3   42.07   14.34
   8   3   3   44.99    9.25
   8   3   3   45.00    7.00
  -8  -3  -3   50.83    5.48
   8   3   3   45.38    7.18
   8   3   3   45.15    7.11
   8   3   3   50.04    7.32
   8   3   3   51.19    7.55
   8   3   3   51.90    7.65
  -8  -3  -3   44.93    7.14
  -8  -3  -3   46.09    4.62
   8   3   3   44.59    7.04
   8   3   4   -0.14    2.07
  -8  -3  -4    1.76    1.80
   8   3   4    0.27    1.72
  -8  -3  -4    0.92    1.72
   8   3   4    2.57    5.70
   8   3   4    1.65    3.39
  -8  -3  -4    1.44    1.31
  -8  -3  -4   -2.70    2.78
   8   3   4    0.10    2.11
   8   3   4   -0.80    2.49
  -8  -3  -4    0.41    0.92
  -8  -3  -5    0.85    0.56
  -8  -3  -5    2.23    0.96
   8   3   5    1.50    0.84
  -8  -3  -5    0.88    1.39
  -8  -4   4   12.22    1.80
  -8  -4   4   10.82    2.03
  -8  -4   4   11.91    1.77
  -8  -4   3   47.17    4.22
  -8  -4   3   47.23    5.05
  -8  -4   3   46.77    4.19
  -8  -4   2   24.16    2.94
   8   4  -2   24.68    3.56
  -8  -4   2   26.00    3.16
  -8  -4   2   23.61    3.69
   8   4  -2   24.70    4.58
  -8  -4   2   27.54    3.32
  -8  -4   2   29.28    3.30
  -8  -4   1   56.57    4.34
   8   4  -1   55.58    4.61
  -8  -4   1   63.93    4.76
  -8  -4   1   62.46    5.38
  -8  -4   1   64.22    4.95
   8   4  -1   44.44    5.20
  -8  -4   1   66.21    5.00
   8   4   0  112.10    8.29
  -8  -4   0  116.30    6.31
   8   4   0  107.08    5.82
   8   4   1    6.42    1.84
  -8  -4  -1    6.83    1.82
  -8  -4  -1    4.55    1.42
   8   4   1    5.61    1.58
   8   4   1    6.94    2.47
   8   4   1    6.82    2.54
   8   4   1    4.85    2.09
   8   4   1    7.70    2.65
   8   4   1    7.16    2.51
   8   4   2    4.10    2.65
   8   4   2    3.93    2.81
  -8  -4  -2    4.01    2.66
   8   4   2    4.10    2.93
   8   4   2    4.02    2.24
   8   4   2    2.43    2.27
   8   4   2    2.03    1.61
  -8  -4  -2    0.82    0.88
   8   4   2    1.95    1.74
  -8  -4  -2    1.94    1.09
   8   4   2    2.82    2.02
  -8  -4  -2    1.34    0.82
  -8  -4  -2    0.65    1.23
   8   4   2   -0.52    1.34
   8   4   3   28.98    5.93
  -8  -4  -3   23.56    3.91
   8   4   3   29.54    6.22
   8   4   3   28.28    5.65
  -8  -4  -3   20.44    4.65
  -8  -4  -3   21.28    3.93
   8   4   3   30.22   11.32
   8   4   3   32.89    7.68
  -8  -4  -3   36.17    4.48
   8   4   3   29.19    6.42
  -8  -4  -3   32.36    3.76
   8   4   3   28.35    5.60
   8   4   4   16.43    4.01
  -8  -4  -4   18.19    3.02
  -8  -4  -4   24.20    4.14
   8   4   4   20.02    3.94
   8   4   4   33.81    7.01
  -8  -4  -4   26.22    3.29
   8   4   4   19.22    4.07
   8   4   4   22.20    4.39
  -8  -4  -4   22.18    2.69
  -8  -4  -5   17.22    1.80
  -8  -5   4    0.63    0.45
  -8  -5   4    0.35    0.47
  -8  -5   3   46.15    3.96
  -8  -5   3   41.05    4.39
  -8  -5   3   38.04    3.56
  -8  -5   2    1.50    1.24
  -8  -5   2    1.14    1.09
  -8  -5   2   -0.33    0.92
  -8  -5   2    1.07    0.93
  -8  -5   1    2.32    1.18
  -8  -5   1    1.48    1.05
  -8  -5   1    2.78    1.39
  -8  -5   1    3.55    1.62
   8   5  -1    2.35    1.11
  -8  -5   1    3.04    1.23
  -8  -5   0   -0.04    0.76
  -8  -5   0    0.01    0.95
   8   5   0   -0.92    0.99
  -8  -5   0    0.13    0.81
   8   5   1    6.22    2.11
  -8  -5  -1    6.42    1.62
  -8  -5  -1    4.91    1.58
   8   5   1    6.75    2.58
  -8  -5  -1    6.38    1.55
   8   5   2    1.26    1.60
   8   5   2    1.80    1.77
  -8  -5  -2    1.76    1.50
   8   5   2    6.13    3.70
  -8  -5  -2    1.00    1.10
   8   5   2    5.54    1.88
   8   5   2    3.98    1.95
  -8  -5  -2    1.84    1.34
   8   5   2    0.73    1.51
   8   5   2    0.59    1.64
   8   5   2    4.39    1.92
  -8  -5  -2    1.42    1.06
   8   5   2    1.86    1.74
   8   5   3   29.88    5.63
  -8  -5  -3   27.47    3.60
   8   5   3   33.24    6.84
   8   5   3   25.14    4.88
  -8  -5  -3   27.17    4.57
  -8  -5  -3   28.74    4.38
   8   5   3   36.32    7.92
  -8  -5  -3   35.54    4.32
   8   5   3   24.17    4.90
   8   5   3   22.48    5.51
  -8  -5  -3   34.78    3.75
   8   5   4    1.94    1.59
  -8  -5  -4    1.55    0.85
   8   5   4    1.24    1.46
  -8  -5  -4    1.65    1.28
  -8  -5  -4    2.25    0.97
   8   5   4    7.47    2.91
  -8  -5  -4    3.59    1.28
   8   5   4    2.11    1.89
  -8  -5  -4    2.31    0.90
   8   5   4    0.98    1.07
  -8  -6   3    0.02    0.78
  -8  -6   3   -0.36    0.67
  -8  -6   2    2.78    1.41
  -8  -6   2    2.24    1.22
  -8  -6   2    2.99    1.29
  -8  -6   1   27.97    3.15
  -8  -6   1   29.88    3.68
  -8  -6   1   34.17    3.97
  -8  -6   0    6.41    1.86
  -8  -6   0    8.30    2.14
   8   6   0    6.72    2.35
  -8  -6  -1   18.31    3.56
  -8  -6  -1   28.04    3.73
  -8  -6  -1   21.98    2.98
   8   6   1   23.16    4.33
  -8  -6  -1   24.36    2.89
   8   6   2  127.81   10.78
  -8  -6  -2  117.17    8.87
  -8  -6  -2  143.99    7.74
  -8  -6  -2  163.63    8.72
   8   6   2  148.16   12.84
  -8  -6  -2  150.65    7.45
   8   6   3    7.88    2.80
   8   6   3    3.37    2.59
  -8  -6  -3   10.92    2.53
  -8  -6  -3    6.21    2.09
   8   6   3   11.15    3.42
  -8  -6  -3    8.33    1.98
   8   6   3    9.22    3.88
  -8  -6  -3    4.67    1.44
   8   6   3    7.88    2.35
  -8  -6  -4    0.45    0.72
   8   6   4   -0.90    1.09
  -8  -6  -4    0.80    0.41
   8   6   4   -0.46    1.32
  -8  -6  -4    0.03    0.61
   8   6   4    0.17    1.27
  -8  -6  -4    0.67    0.53
  -8  -7   2   30.19    2.79
  -8  -7   2   25.44    2.60
  -8  -7   1   67.36    5.19
  -8  -7   1   75.81    5.35
  -8  -7   0  228.02    9.54
  -8  -7   0  209.98    9.75
  -8  -7  -1  222.34   10.70
  -8  -7  -1  242.84    9.17
   8   7   1  213.32   12.74
  -8  -7  -2   -0.70    1.07
  -8  -7  -2    0.29    0.57
   8   7   2   -0.43    1.32
   8   7   2    0.36    1.94
  -8  -7  -3    6.03    1.71
   8   7   3    2.50    1.41
   8   7   3    5.01    2.54
   8   7   3    5.18    2.37
   8   7   3    6.98    2.14
   8   7   4   82.64    4.82
   8   7   4   83.75    4.56
  -8  -8   2  151.67    4.19
  -8  -8   1  396.09   10.43
  -8  -8   1  409.61   10.16
  -8  -8   0  176.35    7.90
  -8  -8   0  166.82    7.04
  -8  -8  -1   18.67    2.59
  -8  -8  -1   14.32    1.91
   8   8   1   15.49    3.39
  -8  -8  -2    1.07    0.81
  -8  -8  -2    1.07    0.65
   8   8   2    1.87    2.18
   8   8   2    0.03    1.15
  -8  -8  -3   21.50    2.14
   8   8   3   24.63    3.60
   8   8   3   20.16    2.71
   8   8   3   21.21    2.71
  -8  -9   1   24.88    1.68
  -8  -9   0   23.79    2.23
  -8  -9   0   22.71    1.91
  -8  -9  -1   89.54    4.13
   8   9   1   84.67    6.66
   8   9   2   43.12    4.11
   8   9   2   43.48    3.62
  -9   9   2    9.68    1.15
  -9   9   2   10.16    1.33
  -9   9   1    3.77    0.84
  -9   9   1    2.53    0.69
  -9   9   0    0.20    0.46
   9  -8  -3    0.06    0.52
  -9   8   3    0.92    0.75
  -9   8   3    0.61    0.47
  -9   8   3    0.21    0.39
  -9   8   3    0.61    0.67
   9  -8  -2   17.24    2.02
   9  -8  -2   16.05    3.19
  -9   8   2   18.17    2.29
  -9   8   2   19.38    1.92
  -9   8   2   18.14    2.50
  -9   8   1    1.37    1.19
   9  -8   0    0.51    4.98
  -9   8   0   11.07    1.58
  -9   8  -1    0.87    0.55
  -9   7   4   25.19    1.86
  -9   7   4   28.19    1.99
   9  -7  -4   23.13    1.74
  -9   7   4   26.97    2.32
   9  -7  -4   27.57    4.66
  -9   7   3   74.83    4.87
  -9   7   3   68.20    3.80
  -9   7   3   69.89    4.40
   9  -7  -3   83.99    8.16
   9  -7  -3   72.30    4.45
  -9   7   3   64.70    5.15
   9  -7  -3   71.01    9.42
  -9   7   3   69.50    4.70
  -9   7   3   70.47    4.27
   9  -7  -2   19.78    2.62
  -9   7   2   24.69    3.24
   9  -7  -2   21.95    5.47
  -9   7   2   21.33    2.62
   9  -7  -2   22.05    4.26
   9  -7  -2   17.41    6.67
  -9   7   2   21.67    3.17
   9  -7  -1   72.26    4.58
   9  -7  -1   64.89    7.63
  -9   7   1   83.66    5.49
   9  -7  -1   62.33    8.54
  -9   7   1   75.67    5.80
  -9   7   0   13.86    2.26
   9  -7   1   -0.58    2.32
   9  -7   1    3.71    6.06
  -9   6   4  247.77    7.24
   9  -6  -4  242.71   12.11
  -9   6   4  246.40    7.27
   9  -6  -4  180.64   10.45
   9  -6  -4  223.53    6.63
  -9   6   4  243.21    9.04
  -9   6   4  249.95    7.99
   9  -6  -4  216.98   14.06
   9  -6  -4  194.54   12.75
  -9   6   3    3.93    1.69
  -9   6   3    1.72    0.72
   9  -6  -3   -0.79    2.27
  -9   6   3    3.09    1.32
   9  -6  -3    4.20    1.41
   9  -6  -3    0.61    1.89
  -9   6   3    3.41    1.55
   9  -6  -3    5.46    4.36
   9  -6  -3    5.38    1.94
   9  -6  -3    0.46    3.26
  -9   6   3    2.18    1.14
  -9   6   3    3.88    1.49
  -9   6   2   -0.52    1.23
   9  -6  -2    0.63    2.28
  -9   6   2   -1.80    1.14
   9  -6  -2   -0.14    0.67
   9  -6  -2   -0.51    1.90
  -9   6   2    1.24    1.41
   9  -6  -2   -0.41    2.62
   9  -6  -2   -0.33    1.44
   9  -6  -2    0.53    4.08
  -9   6   2   -2.37    1.53
   9  -6  -1    0.73    0.90
  -9   6   1    0.56    1.04
   9  -6  -1   -0.67    3.08
   9  -6  -1   -0.64    1.74
   9  -6  -1    0.59    3.26
  -9   6   1   -0.49    1.15
   9  -6   0   -0.47    2.17
  -9   6   0   10.38    2.05
   9  -6   1   12.16    8.88
   9  -6   2    2.19    2.21
   9  -6   2   59.53   14.62
  -9   5   4   25.85    2.68
   9  -5  -4   21.09    4.20
  -9   5   4   26.42    2.78
   9  -5  -4   21.63    4.31
   9  -5  -4   23.01    2.39
  -9   5   4   23.79    3.37
   9  -5  -4   21.00    4.84
   9  -5  -4   20.37    5.30
  -9   5   4   24.19    2.41
   9  -5  -4   23.20    3.76
  -9   5   4   27.86    3.22
  -9   5   3    7.17    2.21
  -9   5   3   11.10    1.99
   9  -5  -3    8.46    3.44
  -9   5   3    9.74    2.23
   9  -5  -3    7.75    3.28
   9  -5  -3   11.80    2.18
  -9   5   3    9.67    2.85
   9  -5  -3    8.67    4.32
   9  -5  -3    9.36    3.07
   9  -5  -3   11.68    5.20
  -9   5   3   10.18    2.35
  -9   5   3   11.72    2.68
  -9   5   2   40.29    4.39
  -9   5   2   39.09    3.66
  -9   5   2   36.50    3.87
  -9   5   2   32.22    4.79
   9  -5  -2   36.39    6.54
  -9   5   2   34.67   10.17
   9  -5  -2   22.44    4.98
   9  -5  -2   33.55    4.27
   9  -5  -2   36.79    3.82
  -9   5   2   33.90    4.57
  -9   5   2   37.22    3.80
  -9   5   2   38.37    3.85
   9  -5  -2   37.60    3.70
   9  -5  -2   38.62    3.79
  -9   5   2   34.23    3.62
   9  -5  -2   40.12    6.11
   9  -5  -2   42.02    8.20
   9  -5  -2   33.66    7.23
  -9   5   2   36.42    4.20
  -9   5   2   37.07    4.13
  -9   5   1    1.53    0.92
   9  -5  -1    3.90    3.02
  -9   5   1    1.90    0.91
  -9   5   1    1.69    1.05
   9  -5  -1    2.63    1.43
   9  -5  -1    1.27    0.81
   9  -5  -1   -4.34    2.51
   9  -5  -1    1.24    0.90
   9  -5  -1    1.05    0.76
  -9   5   1    0.00    0.70
  -9   5   1    1.30    0.86
   9  -5  -1    1.00    1.95
   9  -5  -1   -0.13    3.10
  -9   5   1    0.25    0.74
  -9   5   1    1.04    1.09
   9  -5   0    0.34    1.38
   9  -5   0    3.46    2.21
   9  -5   0    2.94    2.34
  -9   5   0    2.33    0.98
   9  -5   0    1.04    2.63
  -9   5   0    2.14    1.20
  -9   5   0    2.48    1.24
  -9   5  -1  686.63   32.81
  -9   5  -1  739.15   17.94
  -9   5  -1  660.92   28.42
   9  -5   2   82.27   17.45
   9  -5   2   36.28    5.18
   9  -5   3   -3.70    6.15
   9  -5   3   -0.05    1.17
  -9   5  -3   -0.19    0.69
   9  -4  -5   12.09    2.50
   9  -4  -5   10.76    2.09
  -9   4   5   13.74    1.67
   9  -4  -5   10.77    2.71
  -9   4   4    0.01    0.78
  -9   4   4    0.23    0.86
   9  -4  -4   -0.44    1.91
   9  -4  -4    0.86    1.95
   9  -4  -4    1.56    0.88
  -9   4   4    0.88    1.39
   9  -4  -4    0.77    1.64
   9  -4  -4   -1.83    1.48
   9  -4  -4    1.28    2.61
  -9   4   4    0.24    0.51
  -9   4   4    0.14    1.01
  -9   4   3    1.46    1.22
   9  -4  -3    3.88    3.08
  -9   4   3    0.95    0.88
   9  -4  -3    4.48    2.77
   9  -4  -3    2.00    1.08
  -9   4   3    4.42    2.18
   9  -4  -3    1.20    0.95
   9  -4  -3    1.13    2.12
   9  -4  -3    1.95    1.83
   9  -4  -3   -1.81    3.28
  -9   4   3    2.08    1.13
  -9   4   3    1.26    1.50
  -9   4   2   10.84    2.61
  -9   4   2   11.39    2.42
  -9   4   2   12.07    1.95
   9  -4  -2   10.86    3.49
  -9   4   2   10.15    2.09
  -9   4   2   11.86    6.02
   9  -4  -2   10.67    3.47
   9  -4  -2   13.92    2.30
   9  -4  -2   12.95    2.44
   9  -4  -2   12.60    2.70
  -9   4   2   12.03    2.99
  -9   4   2   13.45    2.22
  -9   4   2   13.35    2.20
  -9   4   2   13.56    2.20
   9  -4  -2   12.72    2.15
   9  -4  -2   12.06    2.16
   9  -4  -2   13.19    4.14
   9  -4  -2   11.16    3.23
   9  -4  -2    9.37    4.04
   9  -4  -2   11.28    3.18
  -9   4   2   12.02    2.36
  -9   4   2   14.49    2.70
  -9   4   1    5.23    1.60
  -9   4   1    5.00    1.29
   9  -4  -1    3.45    2.57
  -9   4   1    2.80    3.44
   9  -4  -1    2.29    1.52
   9  -4  -1    4.22    1.16
   9  -4  -1    4.03    1.66
   9  -4  -1    4.93    1.33
   9  -4  -1    5.51    1.37
  -9   4   1    4.56    1.29
  -9   4   1    3.45    1.05
   9  -4  -1    1.92    2.13
   9  -4  -1    6.02    2.04
   9  -4  -1   -0.45    3.21
  -9   4   1    4.64    1.54
  -9   4   1    4.01    1.18
  -9   4   1    4.17    1.22
  -9   4   0  156.60    6.42
   9  -4   0  193.05   15.99
   9  -4   0  104.34    8.71
  -9   4   0  136.97    7.14
   9  -4   0  145.25    7.80
   9  -4   0  136.14    6.83
   9  -4   0  135.26    7.00
  -9   4   0  134.87    7.13
   9  -4   0  183.31   13.66
  -9   4   0  146.42    6.97
  -9   4   0  187.43   15.94
  -9   4  -1  408.69   10.74
   9  -4   1  444.78   17.53
   9  -4   1  398.80   20.96
   9  -4   1  511.18   22.95
  -9   4  -1  551.24   27.05
  -9   4  -1  467.51   22.24
  -9   4  -1  448.01   13.07
   9  -4   2   13.40   10.53
   9  -4   2    1.27    1.83
   9  -4   3   23.66   11.54
   9  -4   3   27.46    4.74
   9  -4   4   37.83    3.59
  -9   4  -4    7.05    1.23
   9  -3  -5    2.26    1.14
  -9   3   5    5.99    2.05
   9  -3  -5    2.99    1.62
   9  -3  -5    4.69    1.41
   9  -3  -5    3.91    2.04
  -9   3   4  163.02    6.89
   9  -3  -4  137.32   12.43
  -9   3   4  160.63    6.90
   9  -3  -4  163.38   11.86
  -9   3   4  181.00    9.83
   9  -3  -4  142.78   10.67
   9  -3  -4  182.12   16.20
  -9   3   4  164.68    8.45
   9  -3  -4  144.65   12.26
  -9   3   3   15.17    2.63
  -9   3   3   18.87    2.78
  -9   3   3   14.31    2.49
   9  -3  -3   17.75    4.92
   9  -3  -3   15.64    4.14
   9  -3  -3   19.18    2.64
  -9   3   3   24.46    5.07
  -9   3   3   13.83    2.28
  -9   3   3   16.76    3.45
  -9   3   3   15.70    2.50
  -9   3   3   15.16    2.44
   9  -3  -3   18.47    2.76
   9  -3  -3   18.77    2.81
   9  -3  -3   20.37    5.17
   9  -3  -3   18.69    5.21
   9  -3  -3   11.77    3.44
   9  -3  -3   24.81    6.61
  -9   3   3   15.69    2.70
  -9   3   3   15.67    3.03
   9  -3  -3   21.45    4.83
  -9   3   2 1539.87   23.78
  -9   3   2 1569.33   20.46
  -9   3   2 1486.98   18.99
  -9   3   2 1719.33   57.40
   9  -3  -2 1429.49   36.49
  -9   3   2 1522.81   29.77
  -9   3   2 1688.00   23.52
   9  -3  -2 1755.90   23.53
   9  -3  -2 1625.55   35.29
  -9   3   2 1678.58   22.71
   9  -3  -2 1709.79   23.30
  -9   3   2 1637.04   29.11
  -9   3   2 1743.62   23.28
  -9   3   2 1733.39   23.17
   9  -3  -2 1688.21   23.31
   9  -3  -2 1420.22   25.91
   9  -3  -2 1555.71   33.71
   9  -3  -2 1715.64   44.81
  -9   3   2 1621.42   24.49
  -9   3   2 1550.22   25.42
   9  -3  -2 1645.02   36.36
   9  -3  -2 1648.46   40.11
  -9   3   1    6.15    1.73
  -9   3   1    4.25    1.08
  -9   3   1   -1.78    3.17
   9  -3  -1    3.39    1.39
   9  -3  -1    3.14    1.37
   9  -3  -1    3.93    1.16
  -9   3   1    4.53    1.24
  -9   3   1    3.94    1.12
   9  -3  -1    3.91    1.25
   9  -3  -1    6.16    2.45
  -9   3   1    5.17    1.31
  -9   3   1    4.17    1.03
  -9   3   0    1.15    0.72
  -9   3   0    1.46    2.48
   9  -3   0    0.27    1.21
   9  -3   0    1.63    1.30
   9  -3   0    2.67    1.12
  -9   3   0    1.86    1.16
   9  -3   0    2.83    1.34
   9  -3   0    2.49    1.21
  -9   3   0    1.27    0.98
  -9   3   0    0.86    0.83
  -9   3  -1    2.99    0.95
  -9   3  -1    1.03    2.64
   9  -3   1    2.51    1.55
   9  -3   1    3.25    1.54
   9  -3   1    2.12    1.26
  -9   3  -1    4.60    2.61
  -9   3  -1    0.48    1.01
  -9   3  -1    3.56    1.18
  -9   3  -2   29.38    6.78
  -9   3  -2   39.28    8.19
   9  -3   2   35.66    5.53
   9  -3   2   61.88   13.42
   9  -3   2   42.81   16.55
   9  -3   2   39.68    7.57
   9  -3   2   37.75    5.62
  -9   3  -2   38.14    3.91
  -9   3  -2   33.90    6.69
  -9   3  -2   38.48    3.53
   9  -3   3  113.21   24.74
   9  -3   3  176.36   13.30
   9  -3   4    2.66    5.29
  -9   3  -4   64.76    4.28
   9  -2  -5   29.84    4.42
   9  -2  -5   27.05    3.19
   9  -2  -5   32.19    3.05
   9  -2  -5   30.75    3.80
   9  -2  -5   21.66    4.15
  -9   2   4   50.07    3.74
   9  -2  -4   50.60    8.17
  -9   2   4   52.82    3.87
   9  -2  -4   55.11    6.91
  -9   2   4   56.01    5.46
   9  -2  -4   59.25   10.44
   9  -2  -4   44.28    6.64
  -9   2   4   57.97    5.14
   9  -2  -4   62.20    8.00
  -9   2   3  216.64    8.89
  -9   2   3  218.22    8.58
  -9   2   3  194.68    8.30
   9  -2  -3  228.51   16.58
   9  -2  -3  251.22   14.93
   9  -2  -3  230.49    8.47
   9  -2  -3  167.43   12.50
  -9   2   3  208.55    8.32
   9  -2  -3  220.58    9.02
  -9   2   3  202.55   10.68
  -9   2   3  217.65    8.60
  -9   2   3  222.87    8.66
   9  -2  -3  221.55    8.97
   9  -2  -3  190.80   13.43
   9  -2  -3  197.66   15.79
   9  -2  -3  262.53   19.78
  -9   2   3  214.87    9.04
  -9   2   3  222.70   10.18
   9  -2  -3  264.30   17.10
   9  -2  -3  199.50   14.86
  -9   2   2    2.58    0.81
  -9   2   2    3.16    3.76
  -9   2   2    3.69    1.18
   9  -2  -2    5.58    2.28
   9  -2  -2    3.10    1.06
   9  -2  -2    3.64    1.15
  -9   2   2    2.67    0.94
  -9   2   2    3.11    1.08
   9  -2  -2    1.53    2.23
  -9   2   2    3.62    1.07
   9  -2  -2    4.46    2.22
  -9   2   1  535.71   10.31
  -9   2   1  627.66   27.14
  -9   2   1  483.73   10.45
   9  -2  -1  641.55   12.43
   9  -2  -1  461.41   15.32
   9  -2  -1  401.54   11.98
  -9   2   1  543.14   11.02
  -9   2   1  576.34   11.76
  -9   2   1  584.69   11.78
   9  -2  -1  601.95   11.66
   9  -2  -1  602.71   11.95
  -9   2   1  510.97   10.13
   9  -2  -1  612.39   19.07
   9  -2   0   43.92    3.96
  -9   2   0   41.31    2.95
  -9   2   0   41.26    2.41
   9  -2   0   50.28    5.80
   9  -2   0   24.90    3.71
  -9   2   0   40.52    3.50
  -9   2   0   36.71    3.37
   9  -2   0   41.42    3.98
   9  -2   0   38.00    3.34
   9  -2   0   38.20    3.42
  -9   2   0   50.81    6.89
  -9   2   0   41.02    3.19
   9  -2   1  128.23    8.32
  -9   2  -1  102.61    5.07
   9  -2   1  112.09    8.10
   9  -2   1  112.00    7.53
  -9   2  -1  110.10    7.65
   9  -2   1  114.60    7.78
  -9   2  -1  129.04   11.23
  -9   2  -1  120.34    5.96
  -9   2  -1  113.35    9.74
   9  -2   2    1.56    1.52
  -9   2  -2   -6.31    3.64
  -9   2  -2    2.07    2.83
   9  -2   2    2.00    7.94
   9  -2   2    2.52    3.52
   9  -2   2   -0.04    1.23
   9  -2   2    0.32    2.00
   9  -2   2    0.68    1.47
   9  -2   2    0.20    1.28
   9  -2   2    0.55    1.51
   9  -2   2   -0.44    1.18
  -9   2  -2   -0.06    0.85
  -9   2  -2    0.38    3.18
  -9   2  -2    2.47    2.75
  -9   2  -2    0.17    0.81
   9  -2   3  483.12   26.37
  -9   2  -3  400.02   16.26
  -9   2  -4   15.56    3.62
   9  -2   4   -1.13    8.02
   9  -2   4   45.89    5.79
   9  -2   4   40.19    4.06
  -9   2  -4   22.22    2.82
  -9   1   5   76.67    4.02
   9  -1  -5   64.51    6.46
   9  -1  -5   70.81    5.95
   9  -1  -4   50.03    8.19
   9  -1  -4   42.65    5.65
  -9   1   4   52.04    5.05
   9  -1  -4   39.51    8.20
  -9   1   3   14.73    2.31
  -9   1   3   15.22    2.25
   9  -1  -3   17.92    5.20
  -9   1   3   17.10    2.37
   9  -1  -3   19.17    4.12
  -9   1   3   20.80    5.20
   9  -1  -3   14.34    4.14
  -9   1   3   14.63    2.11
  -9   1   3   16.29    3.11
  -9   1   3   15.96    2.24
  -9   1   3   15.80    2.24
   9  -1  -3   16.25    2.31
   9  -1  -3   17.43    2.48
   9  -1  -3    8.17    3.32
   9  -1  -3   10.46    3.57
   9  -1  -3   20.06    6.35
  -9   1   3   16.13    2.53
  -9   1   3   17.43    2.89
  -9   1   2   75.06    3.82
  -9   1   2   74.99    4.41
   9  -1  -2   82.13    4.97
  -9   1   2   66.26   10.45
   9  -1  -2   75.06    7.38
  -9   1   2   78.10    4.37
  -9   1   2   81.50    4.57
  -9   1   2   84.31    4.61
   9  -1  -2   86.32    4.76
   9  -1  -2   83.43    4.70
   9  -1  -2   73.08    7.71
   9  -1  -2   78.13    8.16
   9  -1  -1  123.47    5.46
  -9   1   1  116.43    4.61
  -9   1   1  107.86    4.60
  -9   1   1  107.43   10.59
   9  -1  -1  102.57    7.12
  -9   1   1  116.06    5.15
  -9   1   1  121.84    5.20
   9  -1  -1  119.22    5.19
   9  -1  -1  117.69    5.26
   9  -1  -1  118.96    8.00
  -9   1   1  106.59    4.39
  -9   1   0  205.61    6.31
  -9   1   0  197.77    5.13
   9  -1   0  228.18    8.46
   9  -1   0  234.09   11.57
  -9   1   0  189.38    7.35
  -9   1   0  192.56    7.47
   9  -1   0  196.79    8.32
   9  -1   0  187.80    7.41
   9  -1   0  181.40    7.11
  -9   1   0  164.73    8.71
  -9   1   0  203.58   12.48
  -9   1   0  200.28    6.61
  -9   1  -1   12.49    3.51
  -9   1  -1    5.34    1.25
   9  -1   1    8.44    3.40
   9  -1   1    4.86    1.64
   9  -1   1    4.36    1.91
   9  -1   1    3.95    1.68
   9  -1   1    4.44    1.76
  -9   1  -1    3.76    2.07
  -9   1  -1    3.64    1.67
  -9   1  -1    5.29    1.29
   9  -1   2   33.38    4.83
  -9   1  -2   26.16    6.04
  -9   1  -2   18.93    4.88
   9  -1   2    4.02    7.17
   9  -1   2   45.75    8.14
   9  -1   2   34.07    7.46
   9  -1   2   38.83    6.43
   9  -1   2   31.78    5.22
   9  -1   2   32.36    5.31
   9  -1   2   32.69    5.32
   9  -1   2   28.79    5.30
   9  -1   2   29.24    5.16
  -9   1  -2   32.24    3.31
  -9   1  -2   25.99    5.43
  -9   1  -2   28.79    6.49
   9  -1   3    4.89    2.16
   9  -1   3   11.95    3.67
   9  -1   3    9.35    9.20
   9  -1   3    9.65    4.96
  -9   1  -3    7.44    2.58
   9  -1   3    9.62    2.90
  -9   1  -4   84.95    8.45
   9  -1   4  154.44   11.23
  -9   1  -4   95.62    6.30
   9  -1   4  150.71    9.02
  -9   1  -4   91.82    6.06
  -9   0   5    3.29    0.93
   9   0  -5    1.56    1.04
   9   0  -5    1.56    1.21
  -9   0   4    0.44    2.96
   9   0  -4    2.92    2.63
   9   0  -4    4.30    4.01
  -9   0   3   61.25    4.40
  -9   0   3   47.48    3.65
   9   0  -3   53.93    5.19
   9   0  -3   50.24    8.03
  -9   0   3   60.54    4.16
   9   0  -3   43.82    7.48
  -9   0   3   65.41    5.70
   9   0  -3   62.69    8.90
  -9   0   3   60.26    4.52
  -9   0   2    1.22    0.84
   9   0  -2   -0.19    0.64
   9   0  -2    0.34    1.43
   9   0  -2    0.77    0.60
   9   0  -2    0.79    0.61
  -9   0   2    1.09    0.68
  -9   0   2    0.74    0.65
  -9   0   2    0.69    0.66
   9   0  -2    1.02    1.47
   9   0  -2    0.08    1.53
  -9   0   1   42.49    2.82
  -9   0   1   42.36    2.82
   9   0  -1   43.02    3.40
  -9   0   1   33.03    5.51
   9   0  -1   38.04    4.57
  -9   0   1   39.00    3.00
   9   0  -1   40.66    3.07
   9   0  -1   38.96    3.09
  -9   0   1   41.74    3.10
  -9   0   1   41.73    2.73
   9   0  -1   44.26    4.77
  -9   0   0  657.83   11.50
  -9   0   0  617.76    9.25
   9   0   0  740.71   14.60
   9   0   0  734.24   19.89
  -9   0   0  650.01   13.96
  -9   0   0  641.76   13.84
   9   0   0  659.34   15.53
   9   0   0  635.78   13.74
   9   0   0  595.61   13.75
  -9   0   0  720.61   12.36
  -9   0   0  579.13   15.35
  -9   0   0  708.31   20.56
   9   0   0  772.58   17.85
  -9   0  -1   80.95    3.49
  -9   0  -1   74.36    4.36
   9   0   1   89.69    6.50
  -9   0  -1   77.68    7.29
   9   0   1  104.62    9.81
   9   0   1   80.09    6.93
   9   0   1   80.76    6.89
   9   0   1   79.44    6.40
  -9   0  -1   79.87    6.50
   9   0   1   76.97    6.40
  -9   0  -1   66.14    6.51
  -9   0  -1   85.46    4.75
  -9   0  -1   75.83    7.25
  -9   0  -2    8.20    3.41
  -9   0  -2    0.14    2.12
   9   0   2    4.99    2.48
   9   0   2    3.02    2.43
   9   0   2    2.97    2.02
   9   0   2    2.70    1.72
   9   0   2    1.47    1.44
   9   0   2    1.43    1.58
  -9   0  -2    3.04    2.28
  -9   0  -2    3.58    1.29
  -9   0  -3   16.55    5.23
   9   0   3   26.80    5.32
  -9   0  -3   31.60    7.18
   9   0   3   32.81    5.44
   9   0   3    9.14    8.61
   9   0   3   36.75    9.25
   9   0   3   27.74    5.24
   9   0   3   27.59    5.35
  -9   0  -3   23.65    4.08
   9   0   3   26.49    5.50
   9   0   3   28.12    5.51
   9   0   3   24.87    5.20
   9   0   3   32.04    5.66
  -9   0  -3   24.59    3.68
   9   0   3   27.08    5.33
  -9   0  -3   30.85    6.60
   9   0   4   13.47    3.14
  -9   0  -4    7.99    3.20
   9   0   4    4.07    7.99
   9   0   4    8.72    3.03
   9   0   4   11.06    4.30
  -9   0  -4    9.16    2.12
  -9   0  -4   10.50    2.20
  -9   0  -5    3.13    1.02
  -9   0  -5    0.83    1.43
  -9  -1   5    5.85    1.04
   9   1  -5    4.21    1.57
   9   1  -4    1.72    2.57
  -9  -1   4    1.90    2.73
  -9  -1   4    0.42    1.03
  -9  -1   4    1.25    0.83
  -9  -1   3 1040.66   16.72
   9   1  -3 1175.47   25.24
   9   1  -3 1188.33   36.39
  -9  -1   3 1102.39   23.38
   9   1  -3 1125.26   36.11
  -9  -1   3 1120.05   18.49
   9   1  -3 1085.03   36.83
  -9  -1   3 1132.37   19.22
  -9  -1   2    2.02    0.78
   9   1  -2    1.90    1.99
   9   1  -2    2.82    1.33
   9   1  -2    2.65    0.96
  -9  -1   2    3.57    0.98
   9   1  -2    3.69    1.12
  -9  -1   2    2.61    0.91
   9   1  -2    3.29    1.98
  -9  -1   1   35.94    2.72
  -9  -1   1   37.47    2.63
   9   1  -1   42.45    3.63
   9   1  -1   38.15    4.80
  -9  -1   1   35.05    2.97
  -9  -1   1   33.57    2.93
   9   1  -1   32.56    3.41
   9   1  -1   30.28    2.99
   9   1  -1   34.03    3.06
  -9  -1   1   33.56    2.47
   9   1  -1   36.14    4.16
  -9  -1   0   32.79    2.32
   9   1   0   35.84    3.29
   9   1   0   27.61    3.99
   9   1   0   28.73    3.64
   9   1   0   31.05    3.42
   9   1   0   31.63    3.54
  -9  -1   0   27.62    3.18
  -9  -1   0   34.40    2.79
  -9  -1   0   31.55    4.03
   9   1   0   33.53    3.37
  -9  -1  -1   85.11    4.14
   9   1   1   99.95    6.66
  -9  -1  -1   71.19    6.73
   9   1   1  100.46    9.37
   9   1   1   86.06    7.50
   9   1   1   90.41    7.17
  -9  -1  -1   89.89    7.05
   9   1   1   91.82    7.39
   9   1   1   79.83    7.34
  -9  -1  -1   85.68    6.62
  -9  -1  -1   97.50    5.13
  -9  -1  -1   78.97    7.21
   9   1   2   18.51    3.67
  -9  -1  -2   13.61    4.14
  -9  -1  -2    0.94    2.01
   9   1   2    7.97    3.78
   9   1   2   11.50    3.36
   9   1   2   16.60    4.22
   9   1   2   13.02    3.90
  -9  -1  -2   15.72    2.88
   9   1   2   15.88    3.96
  -9  -1  -2   19.28    2.55
  -9  -1  -2   16.41    4.29
   9   1   3  307.04   18.18
  -9  -1  -3  288.16   20.38
  -9  -1  -3  264.13   16.95
   9   1   3  315.96   17.22
   9   1   3  331.68   24.48
   9   1   3  285.11   17.70
  -9  -1  -3  299.93   13.77
   9   1   3  294.10   17.64
   9   1   3  289.23   17.86
   9   1   3  287.40   17.49
   9   1   3  287.50   17.99
   9   1   3  313.75   17.34
  -9  -1  -3  319.46   12.73
  -9  -1  -3  262.14   18.21
   9   1   3  293.66   18.04
  -9  -1  -4   50.27    6.30
  -9  -1  -4   54.18    7.15
   9   1   4   49.57    6.18
   9   1   4   46.41    6.43
   9   1   4   48.37    8.65
  -9  -1  -4   50.99    4.92
   9   1   4   57.77    6.84
  -9  -1  -4   55.01    4.72
  -9  -1  -5   25.51    2.56
   9   1   5   30.48    2.73
  -9  -2   5   -0.34    0.32
  -9  -2   4   46.30    4.44
  -9  -2   4   63.46    4.68
  -9  -2   4   72.95    8.24
  -9  -2   4   55.00    3.90
  -9  -2   3  186.32    9.86
  -9  -2   3  161.56    7.38
   9   2  -3  153.08   14.02
   9   2  -2   27.84    3.70
  -9  -2   2   26.12    2.59
  -9  -2   2   20.83    3.25
   9   2  -2   19.12    4.27
  -9  -2   2   29.53    2.99
   9   2  -2   23.88    5.05
  -9  -2   2   26.24    3.03
  -9  -2   1    1.88    0.70
   9   2  -1    2.21    1.01
   9   2  -1    0.68    1.23
   9   2  -1    2.42    1.15
   9   2  -1    1.65    1.11
   9   2  -1    1.62    1.14
  -9  -2   1    1.73    0.92
   9   2  -1    1.59    1.24
  -9  -2   0    4.92    1.07
   9   2   0    2.91    1.56
   9   2   0    6.04    1.44
   9   2   0    4.46    1.77
   9   2   0    4.63    1.86
   9   2   0    3.64    1.65
   9   2   0    5.15    1.86
  -9  -2   0    5.13    1.62
   9   2   1  117.66    5.52
  -9  -2  -1  126.83    5.78
   9   2   1  129.47    7.59
   9   2   1  125.70   10.62
   9   2   1  121.78    9.69
   9   2   1  118.80    9.25
  -9  -2  -1  129.01    8.97
   9   2   1  131.60    9.36
   9   2   1  125.61    9.24
  -9  -2  -1  127.31    5.94
  -9  -2  -1  124.73    8.72
   9   2   2   94.76    9.08
   9   2   2   82.68    7.95
   9   2   2  104.50   10.06
  -9  -2  -2   75.38    8.11
   9   2   2   86.90   11.93
   9   2   2   84.08    9.15
  -9  -2  -2   92.31    6.16
   9   2   2   82.94    9.19
   9   2   2   82.95    9.14
  -9  -2  -2   85.20    6.86
   9   2   2   79.76    8.18
   9   2   2   91.71    9.44
   9   2   2   87.00    9.12
  -9  -2  -2   94.21    5.59
  -9  -2  -2   78.94    5.68
  -9  -2  -2   83.57    8.93
   9   2   2   83.18    8.97
  -9  -2  -2   86.23    5.31
   9   2   2   94.74    9.10
  -9  -2  -3  196.85   12.60
   9   2   3  214.87   15.71
  -9  -2  -3  187.65   14.03
   9   2   3  242.73   15.78
   9   2   3  225.26   20.17
   9   2   3  222.46   15.93
  -9  -2  -3  224.39   11.70
   9   2   3  191.57   13.89
   9   2   3  222.18   16.08
   9   2   3  211.53   15.37
   9   2   3  222.19   16.09
   9   2   3  207.03   14.62
   9   2   3  228.14   16.22
   9   2   3  256.09   15.39
  -9  -2  -3  215.34   10.11
  -9  -2  -3  196.73   15.24
  -9  -2  -4    0.37    1.82
   9   2   4    0.68    1.82
  -9  -2  -4   -0.17    1.28
   9   2   4   -1.01    6.09
   9   2   4    1.77    1.68
   9   2   4   -0.14    3.19
  -9  -2  -4    1.23    0.91
   9   2   4    1.85    2.35
   9   2   4    2.48    1.38
  -9  -2  -4    0.45    0.84
  -9  -2  -5    1.43    0.69
  -9  -2  -5    0.82    0.76
   9   2   5    1.84    0.79
  -9  -2  -5    2.97    1.71
  -9  -3   4    9.04    1.61
  -9  -3   4    7.44    2.87
  -9  -3   4   10.53    1.82
  -9  -3   3   15.92    2.46
  -9  -3   3   22.66    5.38
  -9  -3   3   16.52    3.15
  -9  -3   3   16.52    2.62
   9   3  -2   10.48    2.37
  -9  -3   2    6.59    1.42
  -9  -3   2    6.44    1.60
  -9  -3   2    8.49    3.44
  -9  -3   2    6.62    2.02
  -9  -3   2    7.79    2.00
   9   3  -2    8.24    2.94
  -9  -3   2    6.83    1.65
  -9  -3   1   37.33    3.19
   9   3  -1   37.39    3.77
   9   3   0  718.76   15.20
  -9  -3   0  695.96   13.86
   9   3   0  704.40   20.56
  -9  -3   0  669.62   18.29
   9   3   0  664.87   19.28
   9   3   0  674.44   19.62
   9   3   0  662.56   20.45
   9   3   0  733.53   21.39
   9   3   1   59.98    4.74
   9   3   1   49.59    4.82
  -9  -3  -1   47.87    4.03
   9   3   1   54.91    7.26
   9   3   1   52.16    6.48
   9   3   1   47.82    6.35
   9   3   1   42.77    5.84
   9   3   1   57.45    6.72
   9   3   2  252.03   15.32
   9   3   2  217.00   12.74
   9   3   2  251.52   15.83
  -9  -3  -2  220.00   13.61
   9   3   2  250.70   19.79
  -9  -3  -2  235.27   10.30
   9   3   2  225.58   15.05
   9   3   2  240.76   15.29
  -9  -3  -2  256.31   11.77
   9   3   2  239.63   13.91
   9   3   2  221.21   14.83
   9   3   2  217.19   14.44
   9   3   2  242.10   15.79
   9   3   2  223.36   15.08
   9   3   2  258.94   15.51
  -9  -3  -2  222.30    9.53
  -9  -3  -2  234.88   14.26
  -9  -3  -2  273.61    9.81
   9   3   3    0.65    2.67
  -9  -3  -3   -0.08    1.26
   9   3   3    3.90    2.66
   9   3   3    1.07    2.67
  -9  -3  -3    0.07    1.84
   9   3   3    2.13    4.36
  -9  -3  -3    0.33    1.11
   9   3   3    0.57    1.35
   9   3   3    1.73    2.19
   9   3   3   -4.87    2.76
  -9  -3  -3    0.27    1.06
  -9  -3  -3    0.13    0.77
   9   3   4    1.01    1.73
  -9  -3  -4    0.52    1.07
  -9  -3  -4    1.09    1.68
   9   3   4    0.71    4.85
   9   3   4    2.75    3.20
  -9  -3  -4    1.41    1.05
   9   3   4   -0.79    1.88
   9   3   4    2.00    1.51
  -9  -3  -4    1.28    0.90
   9   3   5   10.98    1.51
  -9  -4   4    0.11    0.58
  -9  -4   4   -0.08    0.67
  -9  -4   3   15.22    2.49
  -9  -4   3   13.44    2.79
  -9  -4   3   13.03    2.26
  -9  -4   2    1.18    0.89
  -9  -4   2    2.14    1.28
  -9  -4   2    1.69    1.22
  -9  -4   2    2.05    2.93
  -9  -4   2    0.04    1.03
   9   4  -2    1.91    0.80
  -9  -4   2    2.29    1.13
  -9  -4   1   14.38    2.33
   9   4  -1   13.33    2.37
  -9  -4   1   16.33    2.62
  -9  -4   1   12.12    2.34
  -9  -4   1   11.85    5.27
   9   4  -1   10.73    2.81
  -9  -4   1   15.21    2.52
  -9  -4   0   -0.03    0.94
   9   4   0    1.12    1.38
   9   4   0    0.45    0.71
   9   4   0    0.09    0.75
  -9  -4   0    0.45    0.83
   9   4   1   13.36    2.66
   9   4   1   13.52    2.66
   9   4   1   11.94    3.25
  -9  -4  -1   12.36    2.36
  -9  -4  -1   16.95    2.50
  -9  -4  -1   15.04    2.58
   9   4   1    8.26    2.82
   9   4   1   13.47    3.74
   9   4   1   11.30    3.34
   9   4   1    8.77    3.07
  -9  -4  -1   14.44    2.18
  -9  -4  -1   13.98    2.28
   9   4   1    9.52    3.28
   9   4   2    0.46    2.04
   9   4   2    1.73    2.09
  -9  -4  -2   -1.08    1.42
   9   4   2   -5.06    3.83
   9   4   2   -2.75    2.01
   9   4   2   -3.74    2.31
   9   4   2   -5.07    2.46
  -9  -4  -2    1.18    1.19
   9   4   2   -2.65    1.97
   9   4   2    0.27    1.53
  -9  -4  -2    0.17    0.93
  -9  -4  -2   -1.97    1.76
   9   4   2   -2.84    2.00
  -9  -4  -2    1.53    1.14
   9   4   3   10.96    3.79
  -9  -4  -3    7.47    2.09
   9   4   3    7.56    3.85
   9   4   3    9.20    3.65
  -9  -4  -3    8.64    3.16
  -9  -4  -3    9.36    2.81
   9   4   3   13.53    5.32
  -9  -4  -3   12.87    2.73
   9   4   3   15.22    4.36
   9   4   3    5.20    3.24
  -9  -4  -3   10.34    2.20
  -9  -4  -4   26.23    3.23
   9   4   4   34.11    4.59
   9   4   4   31.22    4.77
  -9  -4  -4   29.22    4.37
   9   4   4   41.49    6.97
  -9  -4  -4   33.53    3.45
   9   4   4   28.38    4.51
   9   4   4   29.51    4.47
  -9  -4  -4   34.41    3.13
  -9  -5   4   20.29    1.68
  -9  -5   3   11.95    2.11
  -9  -5   3    8.79    1.72
  -9  -5   2   13.36    2.58
  -9  -5   2   12.57    2.16
  -9  -5   2   13.55    2.45
   9   5  -1   73.41    5.65
  -9  -5   1   77.30    5.90
  -9  -5   1   94.16    6.46
  -9  -5   1   83.29    5.06
  -9  -5   1   85.65    6.20
  -9  -5   1   92.21    6.39
  -9  -5   0    4.55    1.55
  -9  -5   0    4.12    1.65
   9   5   0    3.27    1.50
  -9  -5   0    3.50    1.53
   9   5   1   80.57    7.17
  -9  -5  -1   84.11    5.65
  -9  -5  -1   98.39    6.41
  -9  -5  -1  101.16    5.71
   9   5   1   84.87    8.13
   9   5   2    7.93    3.37
   9   5   2   13.64    4.07
  -9  -5  -2    8.51    2.47
   9   5   2    5.52    3.77
  -9  -5  -2   12.60    2.54
   9   5   2   10.88    3.34
  -9  -5  -2   11.69    2.19
   9   5   3   21.06    4.64
   9   5   3   18.13    4.97
   9   5   3   18.16    4.19
  -9  -5  -3   21.49    3.85
  -9  -5  -3   20.91    3.81
   9   5   3   28.35    6.75
  -9  -5  -3   30.00    3.93
   9   5   3   19.64    4.46
   9   5   3   17.32    4.83
  -9  -5  -3   23.84    3.03
  -9  -5  -4   19.16    2.16
   9   5   4   22.11    3.53
  -9  -5  -4   27.36    3.36
   9   5   4   19.21    3.26
  -9  -5  -4   17.54    2.17
   9   5   4   31.91    5.06
  -9  -5  -4   28.01    2.85
   9   5   4   16.79    2.89
   9   5   4   25.26    3.87
  -9  -5  -4   23.69    2.33
  -9  -6   3    0.89    0.68
  -9  -6   3    0.69    0.69
  -9  -6   2   84.20    5.22
  -9  -6   2   81.75    5.02
  -9  -6   1    1.66    0.94
  -9  -6   1    1.79    1.22
  -9  -6   1    2.04    1.25
  -9  -6   0  102.31    6.95
  -9  -6   0   98.75    6.55
  -9  -6  -1  136.92    8.07
  -9  -6  -1  108.88    6.48
   9   6   1  118.99    9.39
  -9  -6  -1  126.92    6.32
   9   6   2  189.92   13.02
  -9  -6  -2  173.86   10.69
  -9  -6  -2  223.00    9.59
  -9  -6  -2  252.18   10.52
   9   6   2  203.06   12.57
   9   6   2  231.75   15.94
  -9  -6  -2  231.02    8.85
   9   6   3   23.96    5.06
  -9  -6  -3   30.12    3.65
   9   6   3   17.45    3.76
  -9  -6  -3   22.71    3.45
   9   6   3   29.01    5.16
  -9  -6  -3   30.64    3.49
   9   6   3   17.81    3.32
   9   6   3   25.84    5.13
  -9  -6  -3   25.92    2.85
   9   6   3   22.68    3.83
  -9  -6  -4   10.83    1.38
   9   6   4   15.28    2.42
  -9  -6  -4   18.48    2.05
   9   6   4    9.92    1.70
   9   6   4   16.33    2.67
  -9  -6  -4   16.15    1.59
  -9  -7   2   33.56    2.78
  -9  -7   2   23.18    2.36
  -9  -7   1 1255.74   21.14
  -9  -7   1 1264.22   21.13
  -9  -7   0   66.55    5.39
  -9  -7   0   66.28    5.05
  -9  -7  -1  174.12    9.27
  -9  -7  -1  251.94   10.27
  -9  -7  -1  222.58    8.40
   9   7   1  192.95   12.06
  -9  -7  -2    8.49    2.25
  -9  -7  -2    7.43    1.65
   9   7   2    9.52    2.71
   9   7   2   14.09    4.54
   9   7   2    7.04    3.02
  -9  -7  -3   76.51    5.15
   9   7   3   77.06    7.40
   9   7   3   59.59    4.98
   9   7   3   76.61    7.02
   9   7   3   76.49    5.95
  -9  -8   1   47.00    3.35
  -9  -8   1   46.30    3.26
  -9  -8   0   14.06    2.25
  -9  -8   0   13.27    1.95
  -9  -8  -1    1.07    0.68
  -9  -8  -1    0.17    0.71
   9   8   1    0.88    1.29
  -9  -8  -2   14.99    2.20
  -9  -8  -2   16.12    1.84
   9   8   2   21.65    4.17
   9   8   2   13.98    2.92
  -9  -8  -3   27.32    2.09
   9   8   3   29.23    3.36
   9   8   3   24.14    2.64
   9   8   3   27.52    2.55
  -9  -9   0    9.63    1.30
  -9  -9   0    9.00    1.09
  -9  -9  -1    0.78    0.43
   9   9   1    1.20    1.36
 -10   9   1    5.04    0.82
 -10   9   1    4.04    0.80
 -10   9   1    3.52    0.74
  10  -8  -3   -0.15    0.34
  10  -8  -3   -0.05    0.98
 -10   8   3    0.65    0.52
 -10   8   3   -0.29    0.43
 -10   8   3    0.95    0.65
  10  -8  -2    1.48    0.72
  10  -8  -2    4.67    2.01
 -10   8   2    2.33    0.86
 -10   8   2    3.15    1.00
 -10   8   2    1.95    0.76
 -10   8   2    2.70    1.08
 -10   8   1    1.92    0.78
 -10   8   1    1.19    0.78
  10  -8   0    1.33    6.83
 -10   8   0   14.94    1.69
 -10   8  -1    1.53    0.56
 -10   8  -1    1.02    0.55
 -10   7   3    1.29    0.99
 -10   7   3    0.88    0.66
  10  -7  -3    1.93    1.53
 -10   7   3    1.28    0.71
  10  -7  -3    0.72    0.67
 -10   7   3    0.21    0.84
  10  -7  -3    1.53    3.12
 -10   7   3    0.75    0.75
  10  -7  -2  105.20    5.63
 -10   7   2  103.76    6.01
 -10   7   2  105.29    5.58
  10  -7  -2  118.56   12.01
 -10   7   2  107.82    5.38
  10  -7  -2  117.74    9.97
 -10   7   2  109.25    6.50
  10  -7  -1   69.84    4.42
 -10   7   1   82.58    5.03
  10  -7  -1   65.78    8.65
 -10   7   1   81.93    5.69
  10  -7   0    3.53    7.66
 -10   7   0    0.15    0.72
  10  -7   1   46.73   12.19
 -10   7  -1   33.06    2.79
 -10   6   4   33.19    2.50
  10  -6  -4   29.90    4.25
 -10   6   4   35.61    2.62
  10  -6  -4   25.70    2.14
  10  -6  -4   21.96    3.61
 -10   6   4   32.99    3.01
  10  -6  -4   27.98    5.07
 -10   6   4   20.52    1.74
 -10   6   4   33.75    2.66
 -10   6   3   34.57    3.67
 -10   6   3   33.66    2.87
  10  -6  -3   40.64    6.50
 -10   6   3   38.24    3.52
  10  -6  -3   36.57    3.47
  10  -6  -3   28.02    5.30
 -10   6   3   34.95    4.16
  10  -6  -3   23.59    5.82
  10  -6  -3   34.31    5.09
  10  -6  -3   36.45    7.30
 -10   6   3   37.52    3.60
 -10   6   3   34.83    3.61
  10  -6  -2   39.31    3.86
  10  -6  -2   16.84    4.92
 -10   6   2   37.79    4.11
  10  -6  -2   28.00    6.48
 -10   6   2   34.79    3.55
  10  -6  -2   37.94    6.41
  10  -6  -2   37.09    8.53
 -10   6   2   42.90    4.50
  10  -6  -1   27.20    3.11
 -10   6   1   25.56    3.28
  10  -6  -1   37.09    7.92
  10  -6  -1   15.28    4.83
 -10   6   1   25.39    3.41
  10  -6   0    0.46    1.98
  10  -6   1    6.69    7.69
 -10   6  -1    0.03    1.22
  10  -6   2   -4.37    2.61
  10  -6   2  155.39   19.95
 -10   5   4   43.51    3.27
  10  -5  -4   44.79    5.98
 -10   5   4   46.64    3.38
  10  -5  -4   35.00    5.11
  10  -5  -4   37.99    2.91
 -10   5   4   46.06    4.26
  10  -5  -4   45.49    5.11
 -10   5   4   45.77    3.72
 -10   5   4   41.43    3.00
  10  -5  -4   37.54    6.31
  10  -5  -4   30.15    5.45
 -10   5   3    9.34    2.14
 -10   5   3    8.68    1.71
  10  -5  -3   10.82    4.08
 -10   5   3   12.33    2.37
  10  -5  -3   15.19    2.48
  10  -5  -3    8.25    3.68
 -10   5   3   11.06    2.79
  10  -5  -3   11.18    4.84
 -10   5   3   12.94    2.50
  10  -5  -3   12.56    3.70
  10  -5  -3   14.07    5.14
 -10   5   3    9.73    2.23
 -10   5   2   10.22    2.41
  10  -5  -2    7.38    3.24
 -10   5   2    7.20    1.80
  10  -5  -2    2.23    2.03
  10  -5  -2    6.78    1.79
 -10   5   2    7.67    2.46
  10  -5  -2    5.85    3.83
  10  -5  -2    8.69    3.32
  10  -5  -2    6.98    3.89
 -10   5   2    9.12    2.21
 -10   5   1    0.56    1.09
  10  -5  -1    1.16    2.29
 -10   5   1    0.46    0.61
 -10   5   1    0.65    2.60
 -10   5   1   -1.86    0.99
  10  -5  -1    3.02    1.94
  10  -5  -1    0.21    0.64
  10  -5  -1    1.00    0.78
  10  -5  -1    0.42    0.53
 -10   5   1    0.17    0.49
  10  -5  -1   -0.91    2.30
  10  -5  -1   -3.51    3.85
 -10   5   1    0.41    1.08
 -10   5   1   -0.13    0.57
 -10   5   1    0.26    0.63
  10  -5   0    3.21    1.40
 -10   5   0    1.94    0.89
  10  -5   0    1.95    0.87
  10  -5   0    3.07    1.91
  10  -5   0    1.66    1.72
  10  -5   0    2.07    2.14
  10  -5   0    2.48    2.70
 -10   5   0    2.24    1.19
  10  -5   1  901.02   51.15
 -10   5  -1  545.07   14.15
  10  -5   2   -2.51    2.34
  10  -5   2   -0.03    7.51
  10  -5   2   -0.51    0.88
 -10   5  -2    2.62    1.00
 -10   5  -3    0.24    0.92
  10  -5   3    2.49    1.12
  10  -4  -5   28.78    3.30
 -10   4   4   13.54    2.04
  10  -4  -4   10.35    3.36
 -10   4   4   14.33    2.09
  10  -4  -4    9.94    3.25
  10  -4  -4   11.11    1.65
 -10   4   4   10.81    2.42
  10  -4  -4    9.42    3.18
  10  -4  -4   12.75    3.10
  10  -4  -4    8.61    3.90
 -10   4   4   13.24    1.88
 -10   4   4   15.01    2.48
 -10   4   3  487.22   14.22
 -10   4   3  445.33   10.92
  10  -4  -3  437.16   21.95
 -10   4   3  473.40   13.54
  10  -4  -3  432.76   20.40
  10  -4  -3  516.32   13.64
  10  -4  -3  424.59   14.89
 -10   4   3  469.03   16.56
 -10   4   3  466.44   14.91
  10  -4  -3  465.34   19.98
  10  -4  -3  441.59   25.15
 -10   4   3  503.25   14.34
  10  -4  -3  437.01   22.96
 -10   4   2  173.58    8.51
 -10   4   2  171.39    7.37
 -10   4   2  183.62    7.46
  10  -4  -2  162.33   13.16
 -10   4   2  164.53   10.32
 -10   4   2  163.52   19.58
 -10   4   2  173.27    7.98
  10  -4  -2  146.52   11.83
  10  -4  -2  181.74    8.12
 -10   4   2  163.75    7.67
 -10   4   2  169.77    9.74
 -10   4   2  171.74    8.02
 -10   4   2  165.40    7.86
  10  -4  -2  182.44    8.14
  10  -4  -2  181.49    8.24
  10  -4  -2  158.17    9.57
 -10   4   2  163.77    6.87
  10  -4  -2  149.19   13.69
  10  -4  -2  188.86   12.68
  10  -4  -2  172.89   15.39
 -10   4   2  179.82    8.79
 -10   4   2  182.72    8.77
  10  -4  -2  194.67   13.85
 -10   4   1  373.82   11.47
 -10   4   1  370.78   10.49
  10  -4  -1  437.65   22.15
 -10   4   1  397.69   26.52
 -10   4   1  395.93   10.90
  10  -4  -1  402.97   11.31
  10  -4  -1  236.27   12.03
  10  -4  -1  246.67   15.96
 -10   4   1  353.38   11.24
 -10   4   1  351.28   11.22
  10  -4  -1  368.61   11.05
  10  -4  -1  359.52   11.19
  10  -4  -1  397.89   16.15
  10  -4  -1  444.92   19.70
  10  -4  -1  359.84   22.97
 -10   4   1  345.77   10.37
 -10   4   1  376.90   12.14
 -10   4   0   37.38    3.38
  10  -4   0   42.37    8.21
  10  -4   0   32.16    4.35
  10  -4   0   37.54    3.41
  10  -4   0   46.49    6.70
  10  -4   0   25.84    4.78
 -10   4   0   30.89    3.81
 -10   4   0   32.37    3.90
  10  -4   0   32.08    4.04
  10  -4   0   32.75    3.82
  10  -4   0   29.49    3.63
  10  -4   0   39.79    5.94
  10  -4   0   48.13    7.57
 -10   4   0   40.82    8.40
 -10   4   0   38.43    3.78
 -10   4  -1  302.60    9.88
  10  -4   1  310.69   15.09
  10  -4   1  297.41   19.02
 -10   4  -1  342.50   11.24
  10  -4   1  390.51   20.49
 -10   4  -1  367.12   23.24
 -10   4  -1  340.79   11.86
 -10   4  -1  320.12   19.30
  10  -4   2   91.87    9.25
 -10   4  -2   69.30    4.81
  10  -4   3   -5.18   10.29
 -10   4  -3   37.20    4.46
  10  -4   4   68.45    4.12
  10  -3  -5   12.98    2.65
  10  -3  -5   14.07    2.21
  10  -3  -5   15.44    2.89
 -10   3   4   69.66    4.46
  10  -3  -4   48.27    7.23
 -10   3   4   67.41    4.39
 -10   3   4   92.61    8.77
  10  -3  -4   56.98    7.08
 -10   3   4   72.54    5.84
  10  -3  -4   57.02    5.22
  10  -3  -4   50.88    6.16
  10  -3  -4   72.15    9.64
 -10   3   4   65.84    4.17
 -10   3   4   77.97    5.59
  10  -3  -4   66.50    7.87
 -10   3   3  167.30    8.12
  10  -3  -3  183.76   14.55
 -10   3   3  185.74    8.20
  10  -3  -3  178.38   12.93
  10  -3  -3  185.92    8.03
 -10   3   3  184.97   10.47
 -10   3   3  184.27    9.40
  10  -3  -3  202.29   17.04
 -10   3   3  177.71    8.49
  10  -3  -3  165.11   12.20
  10  -3  -3  190.72   14.59
 -10   3   2   36.00    3.80
 -10   3   2   35.44    3.28
 -10   3   2   35.98    3.15
  10  -3  -2   38.09    6.27
 -10   3   2   27.49    3.31
 -10   3   2   46.58   10.00
 -10   3   2   35.65    3.56
  10  -3  -2   31.53    3.40
  10  -3  -2   35.81    3.54
  10  -3  -2   33.33    5.50
 -10   3   2   36.87    3.52
 -10   3   2   37.75    3.65
 -10   3   2   37.07    3.59
 -10   3   2   38.11    4.55
  10  -3  -2   39.47    3.70
  10  -3  -2   39.00    3.74
  10  -3  -2   34.97    4.36
 -10   3   2   33.68    3.04
  10  -3  -2   39.21    5.63
  10  -3  -2   37.18    6.88
 -10   3   2   33.31    3.74
 -10   3   2   36.58    3.93
  10  -3  -2   42.12    6.23
  10  -3  -2   31.45    5.85
 -10   3   1  104.53    5.21
 -10   3   1   94.32    4.97
 -10   3   1  111.76   13.29
 -10   3   1  111.38    6.03
 -10   3   1  110.22    5.95
  10  -3  -1  106.16    5.76
  10  -3  -1  106.31    5.99
 -10   3   1  102.40    5.21
  10  -3  -1  128.45   10.14
 -10   3   0   39.75    3.30
  10  -3   0   37.53    5.94
  10  -3   0   21.45    4.03
 -10   3   0   32.53    3.57
 -10   3   0   31.30    3.51
  10  -3   0   34.53    4.07
  10  -3   0   34.53    3.56
  10  -3   0   32.45    3.59
 -10   3   0   31.64    3.23
 -10   3   0   30.45    6.48
  10  -3   1    3.96    1.85
 -10   3  -1    2.97    1.08
 -10   3  -1    2.13    2.31
  10  -3   1    6.32    3.52
  10  -3   1    3.45    1.64
  10  -3   1    2.82    1.66
  10  -3   1    1.69    1.43
 -10   3  -1    2.40    1.10
  10  -3   1    5.06    2.58
  10  -3   1    1.92    1.26
 -10   3  -1    0.73    1.33
 -10   3  -1    5.79    2.90
  10  -3   1    8.65    3.90
 -10   3  -1    1.97    0.87
 -10   3  -2  397.49   25.27
  10  -3   2  372.08   17.54
  10  -3   2  379.13   23.67
  10  -3   2  394.13   18.27
 -10   3  -2  406.21   24.18
 -10   3  -2  384.90   12.78
 -10   3  -2  356.76   21.79
 -10   3  -2  443.39   12.19
 -10   3  -2  371.52   27.03
  10  -3   3    8.51    8.85
  10  -3   3    3.26    2.85
 -10   3  -3    3.19    1.83
  10  -3   4   -1.38    4.26
 -10   3  -4   82.66    4.42
  10  -2  -5   23.87    3.56
 -10   2   5   23.33    2.11
  10  -2  -5   22.30    2.37
  10  -2  -5   26.78    3.29
 -10   2   4   48.17    3.65
  10  -2  -4   53.42    8.11
 -10   2   4   57.13    3.93
  10  -2  -4   52.39    6.47
 -10   2   4   63.43    5.48
  10  -2  -4   53.20    6.81
  10  -2  -4   34.75    6.86
 -10   2   3    1.75    0.93
 -10   2   3    3.78    1.31
  10  -2  -3    2.43    2.37
 -10   2   3    2.44    1.08
  10  -2  -3    4.48    2.75
  10  -2  -3    4.16    1.24
 -10   2   3    3.47    2.46
  10  -2  -3    1.94    1.93
  10  -2  -3    3.92    1.24
 -10   2   3    3.74    1.26
 -10   2   3    2.34    1.56
 -10   2   3    3.15    1.13
  10  -2  -3    3.64    1.23
  10  -2  -3   -2.83    3.58
  10  -2  -3    3.39    2.30
  10  -2  -3    2.00    2.17
  10  -2  -3    9.22    4.37
 -10   2   3    2.33    1.24
 -10   2   3    3.76    1.27
 -10   2   3    2.92    1.54
 -10   2   2   38.06    8.60
 -10   2   2   48.73    4.16
 -10   2   2   45.61    3.49
 -10   2   2   39.95    3.12
 -10   2   2   43.57    3.72
  10  -2  -2   52.94    7.08
 -10   2   2   49.09    3.90
  10  -2  -2   43.54    5.80
 -10   2   2   59.72    7.31
  10  -2  -2   47.04    3.85
  10  -2  -2   46.67    5.80
 -10   2   2   42.33    3.60
 -10   2   2   40.13    4.45
 -10   2   2   41.13    3.64
 -10   2   2   43.92    3.70
  10  -2  -2   46.03    3.80
  10  -2  -2   44.87    3.82
  10  -2  -2   33.69    6.15
  10  -2  -2   45.31    5.92
 -10   2   2   50.54    4.31
 -10   2   2   45.42    4.16
  10  -2  -2   46.16    6.21
 -10   2   1    4.08    1.05
 -10   2   1    2.54    2.73
 -10   2   1    5.75    1.26
  10  -2  -1    3.08    1.48
  10  -2  -1    4.23    1.27
  10  -2  -1    9.50    2.32
  10  -2  -1    5.43    1.32
  10  -2  -1    4.26    1.22
 -10   2   1    4.68    1.26
 -10   2   1    4.08    1.14
 -10   2   1    6.04    1.21
  10  -2  -1    3.89    1.98
 -10   2   0    1.16    0.79
 -10   2   0    0.55    2.23
 -10   2   0   -0.02    0.31
  10  -2   0    0.11    0.71
  10  -2   0    0.57    1.85
  10  -2   0    0.08    1.02
  10  -2   0    0.71    0.75
 -10   2   0    0.02    0.66
  10  -2   0    1.02    1.05
  10  -2   0    1.50    1.03
 -10   2   0    0.42    1.19
 -10   2   0    1.48    1.05
 -10   2   0    0.56    0.75
 -10   2  -1    0.07    0.53
 -10   2  -1   -0.82    1.65
  10  -2   1    1.48    3.28
  10  -2   1    1.64    1.24
  10  -2   1    0.52    1.01
  10  -2   1   -0.22    1.35
  10  -2   1   -0.41    1.13
 -10   2  -1    0.11    0.58
 -10   2  -1   -0.12    0.93
 -10   2  -1    1.82    2.13
  10  -2   2   -0.65    2.05
 -10   2  -2   -0.40    1.98
 -10   2  -2   -1.57    2.38
  10  -2   2    2.82    8.35
  10  -2   2   -1.77    2.15
  10  -2   2    0.21    2.29
  10  -2   2    0.72    2.13
 -10   2  -2    1.14    2.46
 -10   2  -2    0.95    1.63
 -10   2  -2    1.36    0.89
 -10   2  -2    0.63    0.63
  10  -2   3    7.50    9.80
  10  -2   3   12.19    6.05
 -10   2  -3   10.75    2.86
 -10   2  -4   -0.74    1.47
  10  -2   4    2.67    7.04
  10  -2   4    0.72    1.19
  10  -2   4   -2.05    0.96
 -10   2  -4   -0.64    0.88
  10  -1  -5   15.36    3.00
 -10   1   5   17.60    1.83
  10  -1  -5   20.94    2.49
  10  -1  -5   19.28    2.96
  10  -1  -4    0.50    2.01
  10  -1  -4   -0.05    1.55
 -10   1   4    3.06    2.43
 -10   1   4    3.67    1.69
  10  -1  -4    2.86    2.21
  10  -1  -4   -0.78    2.86
 -10   1   3   24.66    2.96
 -10   1   3   20.21    2.59
  10  -1  -3   20.51    5.23
 -10   1   3   24.03    2.81
  10  -1  -3   19.48    4.03
 -10   1   3   40.79    6.81
  10  -1  -3   20.05    4.82
 -10   1   3   19.49    2.50
 -10   1   3   26.06    3.81
 -10   1   3   19.19    2.57
 -10   1   3   21.18    2.67
  10  -1  -3   21.67    2.79
  10  -1  -3   21.78    2.84
 -10   1   3   24.00    3.32
  10  -1  -3   22.81    5.00
 -10   1   3   26.05    3.20
  10  -1  -3   22.94    5.22
 -10   1   2    1.24    0.75
 -10   1   2    0.98    0.51
 -10   1   2    1.18    3.08
 -10   1   2    1.55    0.93
 -10   1   2    0.59    0.63
 -10   1   2    1.27    1.93
  10  -1  -2    0.30    1.47
  10  -1  -2   -0.07    0.47
  10  -1  -2    1.13    0.79
  10  -1  -2    0.95    0.67
 -10   1   2    0.56    0.55
 -10   1   2    0.82    0.83
 -10   1   2    0.97    0.79
  10  -1  -2   -0.64    1.27
  10  -1  -2    0.90    1.47
  10  -1  -2   -0.82    1.30
 -10   1   2    0.96    1.00
 -10   1   2    1.29    0.75
 -10   1   2    1.80    1.12
  10  -1  -1   27.40    2.83
 -10   1   1   24.47    2.31
 -10   1   1   25.79    2.35
 -10   1   1   17.65    5.35
  10  -1  -1   22.19    3.75
 -10   1   1   24.48    2.63
 -10   1   1   23.13    2.57
  10  -1  -1   25.19    2.69
  10  -1  -1   24.39    2.72
 -10   1   1   23.99    2.26
  10  -1  -1   27.03    4.13
 -10   1   0  397.72    9.54
 -10   1   0  429.30    7.96
  10  -1   0  478.42   13.35
  10  -1   0  477.34   18.00
 -10   1   0  386.49   11.61
 -10   1   0  368.48   11.54
  10  -1   0  392.60   12.95
  10  -1   0  372.05   11.36
  10  -1   0  373.15   11.69
 -10   1   0  387.37    9.90
 -10   1   0  480.25   20.26
 -10   1   0  389.25   14.28
  10  -1   1   13.17    2.87
 -10   1  -1   10.49    1.75
 -10   1  -1    6.00    3.16
  10  -1   1   13.23    4.15
  10  -1   1    9.89    2.93
  10  -1   1    8.84    2.53
  10  -1   1    9.10    2.62
  10  -1   1    9.33    2.65
 -10   1  -1   11.98    3.35
 -10   1  -1   10.36    1.91
 -10   1  -1    8.19    2.36
  10  -1   2   34.85    5.60
 -10   1  -2   33.86    6.81
 -10   1  -2   25.92    5.82
  10  -1   2   35.50    5.39
  10  -1   2   42.11    8.44
  10  -1   2   32.31    7.67
 -10   1  -2   32.25    3.42
  10  -1   2   33.68    6.36
  10  -1   2   34.32    5.88
  10  -1   2   37.39    6.09
  10  -1   2   34.43    5.70
  10  -1   2   35.46    5.84
  10  -1   2   26.78    5.57
 -10   1  -2   34.94    3.63
 -10   1  -2   28.53    5.86
 -10   1  -2   35.15    3.46
  10  -1   3   21.80    4.44
  10  -1   3   27.64    4.58
  10  -1   3   12.50   10.63
  10  -1   3   14.13    5.46
 -10   1  -3   19.88    3.87
  10  -1   3   24.36    4.29
 -10   1  -4   28.24    5.02
  10  -1   4   51.38    6.21
 -10   1  -4   34.52    3.64
  10  -1   4   45.77    4.84
 -10   1  -4   33.40    3.48
 -10   0   5   10.85    2.88
  10   0  -5    9.05    1.60
 -10   0   5    6.67    1.06
  10   0  -5    3.91    1.42
  10   0  -5    6.55    1.79
 -10   0   4   13.09    4.81
  10   0  -4    5.26    2.97
 -10   0   3  133.24    6.64
 -10   0   3  117.18    5.86
  10   0  -3  120.63   11.80
 -10   0   3  133.37    6.34
  10   0  -3  116.91    7.60
  10   0  -3  112.56   11.29
 -10   0   3  153.54    8.58
 -10   0   3  125.23    6.74
  10   0  -3  126.21   12.32
 -10   0   2  282.48    9.19
 -10   0   2  268.89    8.31
 -10   0   2  289.79    8.84
  10   0  -2  287.91   10.32
  10   0  -2  277.33   15.07
 -10   0   2  309.38   11.03
 -10   0   2  257.25    8.38
 -10   0   2  247.59    8.33
  10   0  -2  272.01    8.83
  10   0  -2  263.48    8.90
 -10   0   2  280.49    9.64
  10   0  -2  252.30   14.54
 -10   0   1    1.15    0.65
 -10   0   1   -0.69    2.64
 -10   0   1    0.46    0.38
  10   0  -1    0.87    0.73
  10   0  -1    0.39    0.60
 -10   0   1    1.01    0.82
  10   0  -1   -0.11    0.74
  10   0  -1    0.44    0.64
 -10   0   1    1.15    0.62
  10   0  -1    0.77    0.98
 -10   0   1    0.90    0.78
 -10   0   0  531.48   11.30
 -10   0   0  514.40    8.97
  10   0   0  519.48   13.35
  10   0   0  505.85   17.81
 -10   0   0  466.53   13.02
  10   0   0  458.59   14.49
  10   0   0  465.97   13.35
  10   0   0  463.90   13.72
 -10   0   0  495.57   13.41
 -10   0   0  508.26   19.08
 -10   0   0  539.20   11.54
 -10   0   0  442.09   14.31
  10   0   1   57.45    5.57
 -10   0  -1   56.49    6.75
  10   0   1   69.17    8.41
  10   0   1   53.30    6.20
  10   0   1   55.87    6.21
  10   0   1   53.26    5.75
 -10   0  -1   59.51    5.93
  10   0   1   57.00    6.00
 -10   0  -1   59.85    4.27
 -10   0  -1   62.83    6.95
 -10   0  -1   62.71    6.97
  10   0   2    2.72    1.34
  10   0   2    5.05    2.54
  10   0   2    4.44    2.46
 -10   0  -2    3.07    2.81
 -10   0  -2   -0.18    1.92
  10   0   2   -6.26    6.04
  10   0   2    6.94    5.07
  10   0   2    0.38    3.86
  10   0   2    3.23    2.04
 -10   0  -2    1.62    1.11
  10   0   2    0.53    1.72
  10   0   2    3.03    2.14
  10   0   2    3.21    2.15
  10   0   2    1.86    2.20
  10   0   2    1.88    1.81
 -10   0  -2    2.02    2.39
  10   0   2    2.45    1.66
 -10   0  -2    3.61    1.31
 -10   0  -2    3.05    1.19
  10   0   3    1.24    1.80
  10   0   3   -2.30    2.12
  10   0   3    3.46    3.92
 -10   0  -3   -1.02    1.81
  10   0   3    1.24    2.62
  10   0   3    2.42    2.36
 -10   0  -3    0.46    1.02
  10   0   4   10.30    2.58
 -10   0  -4    4.28    2.53
 -10   0  -4    4.20    2.26
  10   0   4    9.10    3.15
 -10   0  -4    7.68    1.88
 -10   0  -4    7.26    1.80
 -10  -1   5    2.09    1.55
 -10  -1   5    2.09    0.57
  10   1  -5    1.26    0.68
  10   1  -5    0.21    0.61
 -10  -1   4    2.62    2.93
 -10  -1   4    0.80    0.93
  10   1  -4    1.27    1.65
  10   1  -3  756.18   29.77
  10   1  -3  909.84   22.12
 -10  -1   3  745.13   14.69
  10   1  -3  829.04   29.00
  10   1  -3  748.20   30.16
 -10  -1   3  911.90   17.60
 -10  -1   2    1.99    0.93
 -10  -1   2    1.42    0.69
 -10  -1   2    2.55    1.85
  10   1  -2    2.38    1.25
  10   1  -2    1.73    1.96
  10   1  -2    2.39    0.95
  10   1  -2    2.29    1.12
  10   1  -2    1.92    1.08
  10   1  -2    0.85    1.37
 -10  -1   2    2.25    1.17
 -10  -1   1    3.01    0.90
  10   1  -1    3.18    1.80
  10   1  -1    3.57    1.26
  10   1  -1    2.17    1.06
 -10  -1   1    3.57    1.28
  10   1  -1    3.74    1.55
  10   1  -1    2.53    1.24
  10   1  -1    3.32    1.59
 -10  -1   1    3.47    0.92
 -10  -1   1    3.71    1.25
 -10  -1   0    1.49    0.66
  10   1   0    0.57    1.30
  10   1   0    0.81    0.84
  10   1   0    0.52    1.13
  10   1   0    0.07    1.04
  10   1   0    1.05    1.09
 -10  -1   0    2.29    1.36
 -10  -1   0    1.39    0.82
 -10  -1  -1    0.32    0.42
  10   1   1   -0.11    0.98
  10   1   1   -2.76    2.23
  10   1   1    0.37    1.54
  10   1   1   -0.24    1.37
  10   1   1    0.40    1.31
  10   1   1   -0.22    1.28
 -10  -1  -1    1.52    1.75
 -10  -1  -1    2.06    0.99
  10   1   2    4.75    2.29
  10   1   2    0.73    2.39
 -10  -1  -2    7.15    3.34
  10   1   2   -4.08    6.43
  10   1   2    0.92    3.45
  10   1   2    0.27    1.46
  10   1   2    3.97    3.70
 -10  -1  -2    1.21    1.15
  10   1   2   -0.12    1.60
  10   1   2   -0.67    2.88
  10   1   2    2.57    1.99
  10   1   2    0.49    1.73
  10   1   2    3.04    2.46
 -10  -1  -2    1.51    1.65
  10   1   2    2.30    1.67
  10   1   2    2.43    1.83
 -10  -1  -2    2.90    1.38
 -10  -1  -2    1.23    0.89
 -10  -1  -2    2.15    1.01
 -10  -1  -2    2.05    1.94
  10   1   3   11.66    3.79
 -10  -1  -3    5.73    3.59
  10   1   3   13.35    4.31
  10   1   3   12.98    6.11
 -10  -1  -3   11.42    2.96
  10   1   3   11.53    4.01
  10   1   3   15.07    4.17
 -10  -1  -3   13.71    2.80
  10   1   4    0.54    1.32
 -10  -1  -4    0.63    1.20
 -10  -1  -4    0.63    1.74
  10   1   4    0.16    1.41
  10   1   4    0.64    2.59
 -10  -1  -4    0.45    1.01
 -10  -1  -4    0.08    0.75
  10   1   4   -0.44    1.79
 -10  -2   4    2.58    2.06
 -10  -2   4    6.44    1.56
 -10  -2   4    6.00    1.28
 -10  -2   3   20.01    3.51
 -10  -2   3   21.93    3.12
 -10  -2   3   24.02    2.88
 -10  -2   2    0.28    0.64
 -10  -2   2    0.28    2.17
 -10  -2   2    0.33    0.84
  10   2  -2    0.45    1.35
  10   2  -2    0.72    0.80
 -10  -2   2    0.28    0.70
  10   2  -2    0.57    1.17
 -10  -2   2    0.38    0.89
 -10  -2   1   -0.52    0.73
  10   2  -1    0.28    1.13
  10   2  -1   -0.07    0.68
  10   2  -1   -0.60    0.87
  10   2  -1   -1.20    1.06
  10   2  -1   -0.25    0.83
 -10  -2   1    0.39    0.85
 -10  -2   0    1.33    0.81
  10   2   0    2.86    1.84
  10   2   0    0.62    0.87
  10   2   0    0.54    0.88
  10   2   0   -0.84    1.00
  10   2   0    0.82    1.24
  10   2   0   -0.11    1.04
 -10  -2   0    0.21    0.98
 -10  -2   0    0.58    0.68
 -10  -2  -1  220.63    7.94
  10   2   1  230.20   10.80
  10   2   1  248.54   15.77
  10   2   1  216.51   13.05
 -10  -2  -1  213.74   12.21
  10   2   1  204.82   12.40
  10   2   1  207.06   12.56
  10   2   1  194.76   12.76
 -10  -2  -1  253.47    8.83
 -10  -2  -1  211.14   11.57
  10   2   2  828.43   27.10
  10   2   2  715.46   23.81
  10   2   2  783.92   28.43
 -10  -2  -2  652.03   24.11
  10   2   2  740.33   34.50
 -10  -2  -2  780.81   18.39
  10   2   2  701.98   27.08
  10   2   2  785.07   28.99
 -10  -2  -2  722.18   20.39
  10   2   2  742.36   26.06
  10   2   2  718.59   27.04
  10   2   2  701.65   26.61
  10   2   2  707.75   27.72
  10   2   2  826.33   27.25
 -10  -2  -2  774.03   16.63
 -10  -2  -2  660.98   16.78
 -10  -2  -2  668.02   25.23
  10   2   2  706.30   27.07
 -10  -2  -2  786.20   16.39
  10   2   3   -1.43    2.46
 -10  -2  -3    1.43    1.12
  10   2   3    3.15    3.33
 -10  -2  -3    1.34    2.13
  10   2   3   11.22    8.11
  10   2   3    2.84    4.75
 -10  -2  -3    1.35    1.23
  10   2   3    2.77    2.70
  10   2   3    2.37    2.16
  10   2   3    0.67    1.48
 -10  -2  -3    0.92    1.09
 -10  -2  -3    3.03    1.32
  10   2   4   13.01    3.18
 -10  -2  -4    8.68    2.45
 -10  -2  -4   10.86    3.25
  10   2   4   -0.10    5.91
  10   2   4    9.11    2.93
  10   2   4   18.85    5.55
 -10  -2  -4   14.08    2.56
  10   2   4   17.42    3.95
 -10  -2  -4   10.87    2.00
 -10  -3   4   -0.01    1.75
 -10  -3   4    2.48    0.92
 -10  -3   4    2.41    0.81
  10   3  -4   -0.31    1.58
 -10  -3   3   18.54    2.69
 -10  -3   3   18.44    3.20
 -10  -3   3   20.60    2.82
 -10  -3   2   19.10    2.56
  10   3  -2   23.04    3.41
 -10  -3   2   12.51    3.24
  10   3  -2   17.34    4.15
 -10  -3   2   17.82    2.55
 -10  -3   2   18.28    2.89
 -10  -3   2   20.05    2.87
 -10  -3   1   62.13    4.33
  10   3  -1   59.76    4.94
 -10  -3   1   48.55   11.30
  10   3  -1   65.37    6.85
 -10  -3   1   79.10    5.32
 -10  -3   1   62.95    4.43
 -10  -3   0   49.87    3.90
  10   3   0   52.45    4.56
  10   3   0   49.16    6.04
  10   3   0   43.27    5.61
  10   3   0   47.61    5.95
 -10  -3   0   44.95    4.99
  10   3   0   42.62    5.34
  10   3   0   45.27    5.58
  10   3   1  121.23    9.55
  10   3   1  119.10    7.90
 -10  -3  -1  105.81    6.17
  10   3   1  129.04   11.67
 -10  -3  -1  113.60    6.85
  10   3   1  105.32    9.53
  10   3   1  109.33    9.58
  10   3   1  114.47    9.83
  10   3   1  105.38    9.74
 -10  -3  -1  111.26    6.08
 -10  -3  -1  125.41    6.02
  10   3   2  431.80   20.33
  10   3   2  408.53   17.83
  10   3   2  439.68   21.44
 -10  -3  -2  394.27   18.21
  10   3   2  476.52   27.57
 -10  -3  -2  488.60   15.09
  10   3   2  468.44   21.87
  10   3   2  453.19   21.93
 -10  -3  -2  469.95   16.24
  10   3   2  434.65   19.35
  10   3   2  449.92   21.60
  10   3   2  440.45   21.31
  10   3   2  437.38   21.95
  10   3   2  472.07   21.14
 -10  -3  -2  426.19   19.04
 -10  -3  -2  464.17   13.70
  10   3   2  418.10   21.36
 -10  -3  -2  480.36   13.27
  10   3   3    6.91    3.10
 -10  -3  -3    7.95    2.31
  10   3   3   11.09    3.55
  10   3   3    6.45    3.27
 -10  -3  -3    4.91    2.83
  10   3   3    7.37    5.43
  10   3   3   13.68    6.19
 -10  -3  -3    7.31    2.35
  10   3   3    2.32    2.03
  10   3   3    5.58    3.01
  10   3   3    6.39    3.06
 -10  -3  -3    4.73    1.62
 -10  -3  -3    7.82    1.87
  10   3   4    3.84    2.14
 -10  -3  -4    2.44    1.22
 -10  -3  -4    2.97    1.72
  10   3   4    6.11    3.86
 -10  -3  -4    4.23    1.41
  10   3   4    3.81    1.77
  10   3   4    2.13    1.07
 -10  -3  -4    4.18    1.25
 -10  -4   4   96.18    4.25
 -10  -4   4   80.91    3.82
 -10  -4   3    6.06    1.66
 -10  -4   3    7.13    1.72
 -10  -4   2    0.01    0.85
 -10  -4   2    0.15    0.73
 -10  -4   2    0.35    0.76
 -10  -4   1  402.84   12.43
  10   4  -1  388.42   12.94
 -10  -4   1  577.00   30.58
  10   4  -1  332.50   15.88
 -10  -4   1  469.03   13.86
 -10  -4   1  459.18   13.81
 -10  -4   1  506.40   14.51
  10   4   0  266.27   14.74
 -10  -4   0  264.99   10.30
  10   4   0  280.56   10.93
  10   4   0  264.75   10.63
 -10  -4   0  290.10    9.82
  10   4   1   21.24    3.46
  10   4   1   19.93    3.42
  10   4   1   21.09    4.58
 -10  -4  -1   19.30    2.99
 -10  -4  -1    4.88    7.10
 -10  -4  -1   21.92    2.95
  10   4   1   18.39    4.16
  10   4   1   18.99    4.46
 -10  -4  -1   21.87    3.12
  10   4   1   17.38    4.29
  10   4   1   21.79    4.54
  10   4   1   17.38    4.06
 -10  -4  -1   19.82    2.57
 -10  -4  -1   24.80    3.08
  10   4   2   34.46    6.13
  10   4   2   33.49    6.33
 -10  -4  -2   28.93    4.67
  10   4   2   39.08    8.47
  10   4   2   35.28    6.29
 -10  -4  -2   37.35    4.54
  10   4   2   38.52    6.57
  10   4   2   30.92    5.78
  10   4   2   34.21    6.21
  10   4   2   39.01    6.15
 -10  -4  -2   37.50    3.90
 -10  -4  -2   39.72    4.03
  10   4   2   37.50    6.51
  10   4   3    2.07    2.60
  10   4   3   -1.28    1.75
  10   4   3    0.29    1.95
 -10  -4  -3    0.39    1.60
 -10  -4  -3   -0.35    1.33
  10   4   3   -2.45    4.16
 -10  -4  -3    0.17    1.11
  10   4   3    0.62    1.96
  10   4   3    0.29    1.78
 -10  -4  -3    0.27    0.83
 -10  -4  -4   15.98    2.17
 -10  -4  -4   18.35    3.06
  10   4   4   16.20    3.30
  10   4   4   21.41    4.81
 -10  -4  -4   21.53    2.62
  10   4   4   16.83    3.23
  10   4   4   19.68    3.32
 -10  -4  -4   19.47    2.26
 -10  -5   3    3.67    1.33
 -10  -5   3    2.02    0.88
 -10  -5   2    3.09    1.50
 -10  -5   2    2.77    1.24
 -10  -5   2    3.02    1.12
 -10  -5   1  151.66    8.14
 -10  -5   1  165.72    8.43
 -10  -5   0  184.37    9.25
 -10  -5   0  181.03    8.72
  10   5   0  168.57    9.78
 -10  -5   0  164.64    8.97
  10   5   1  108.70    8.59
  10   5   1  116.95   10.05
 -10  -5  -1  135.70    7.23
 -10  -5  -1  142.69    7.68
  10   5   1  115.67    9.59
 -10  -5  -1  137.31    6.56
  10   5   2   69.91    8.42
  10   5   2   72.87    8.40
  10   5   2   96.79   11.29
 -10  -5  -2   86.63    6.49
  10   5   2   74.32    8.36
 -10  -5  -2   86.05    5.60
  10   5   3    3.68    2.35
  10   5   3   -2.30    2.39
  10   5   3    0.16    1.65
 -10  -5  -3    0.80    1.08
 -10  -5  -3    1.25    1.12
  10   5   3    0.01    2.92
 -10  -5  -3    1.17    1.27
  10   5   3   -0.45    1.74
  10   5   3   -1.65    1.96
 -10  -5  -3    0.29    0.90
  10   5   3    1.18    1.38
 -10  -5  -4   77.95    3.87
  10   5   4  152.49    9.82
  10   5   4  103.13    6.16
 -10  -5  -4  131.24    6.28
  10   5   4   84.68    6.00
  10   5   4   88.74    5.86
  10   5   4  110.49    6.97
 -10  -5  -4  113.12    4.59
 -10  -6   3    0.55    0.58
 -10  -6   2   68.63    4.60
 -10  -6   2   52.31    3.77
 -10  -6   1    0.54    1.04
 -10  -6   1   -0.03    0.76
 -10  -6   0  537.32   15.97
 -10  -6   0  513.71   14.72
 -10  -6  -1   13.80    2.77
 -10  -6  -1   10.98    2.08
  10   6   1   12.65    3.23
 -10  -6  -1   14.35    2.10
  10   6   2    5.47    2.82
 -10  -6  -2    1.87    1.81
 -10  -6  -2    6.72    1.89
 -10  -6  -2    7.03    1.89
  10   6   2    3.67    1.96
  10   6   2    3.99    2.71
 -10  -6  -2    4.84    1.48
 -10  -6  -3    1.35    1.17
  10   6   3   -2.79    2.09
  10   6   3    0.40    1.30
  10   6   3    4.54    2.48
 -10  -6  -3    2.53    1.03
  10   6   3    0.88    1.16
  10   6   3    1.10    1.71
 -10  -6  -3    2.30    1.02
  10   6   3    2.32    1.49
  10   6   4   65.55    4.35
 -10  -7   2    4.59    1.01
 -10  -7   1   39.83    3.66
 -10  -7   1   42.50    3.73
 -10  -7   0    3.24    1.35
 -10  -7   0    0.64    1.03
 -10  -7  -1   21.89    3.27
 -10  -7  -1   26.85    3.34
 -10  -7  -1   26.12    2.78
  10   7   1   23.80    4.28
 -10  -7  -2    0.76    1.01
 -10  -7  -2    0.80    0.78
  10   7   2    1.53    1.57
  10   7   2    3.46    2.75
  10   7   2    0.01    1.64
 -10  -7  -3    0.05    0.72
  10   7   3   -0.38    0.78
  10   7   3   -0.44    1.40
  10   7   3   -0.53    1.32
  10   7   3   -0.36    0.78
 -10  -8   1    1.26    0.67
 -10  -8   1    1.28    0.58
 -10  -8   0   39.55    3.33
 -10  -8   0   31.72    2.75
 -10  -8  -1    3.55    0.86
 -10  -8  -1    3.16    1.07
  10   8   1    1.70    1.11
 -10  -8  -2   -0.02    0.52
 -10  -8  -2   -0.40    0.41
  10   8   2   -1.07    1.98
  10   8   2   -0.74    1.00
 -10  -9   0    1.00    0.44
  11  -8  -2   18.74    1.83
 -11   8   2   23.93    1.99
 -11   8   2   24.78    2.16
 -11   8   2   22.05    1.82
 -11   8   2   27.29    2.46
 -11   8   1    4.87    1.13
 -11   8   1    3.71    1.06
 -11   8   1    4.75    1.15
 -11   8   0   57.29    2.84
  11  -8   0    0.93    1.35
  11  -8   0   -1.06    4.28
 -11   8   0   56.43    3.34
 -11   8   0   64.62    3.52
  11  -8   1   -2.71    1.51
 -11   7   3    1.26    0.82
 -11   7   3    0.54    0.48
  11  -7  -3   -1.52    2.33
 -11   7   3    0.82    0.67
  11  -7  -3    0.33    0.58
 -11   7   3    0.48    0.60
 -11   7   3    0.77    0.86
  11  -7  -2  195.26    7.43
 -11   7   2  215.73    8.05
 -11   7   2  219.87    7.60
  11  -7  -2  248.91   16.93
 -11   7   2  222.29    7.04
 -11   7   2  184.85    6.57
  11  -7  -2  204.93   12.94
 -11   7   2  225.82    8.75
  11  -7  -1   15.39    2.10
  11  -7  -1   14.91    4.05
 -11   7   1   19.23    2.46
 -11   7   1   17.76    2.57
  11  -7   0  -10.28    7.49
 -11   7   0    3.05    1.00
  11  -7   1   39.83   11.32
 -11   7  -1   39.81    2.81
 -11   6   4    4.82    0.93
  11  -6  -4    4.05    1.69
 -11   6   4    6.77    1.08
 -11   6   4    6.31    1.22
  11  -6  -4    8.71    3.11
 -11   6   4    2.37    0.55
 -11   6   3   71.14    4.84
 -11   6   3   63.14    3.75
  11  -6  -3   73.67    8.47
 -11   6   3   70.14    4.46
  11  -6  -3   66.10    4.43
 -11   6   3   61.49    4.86
  11  -6  -3   70.61    7.23
  11  -6  -3   57.30    8.81
 -11   6   3   71.02    4.84
 -11   6   3   63.61    4.09
  11  -6  -2   93.46    5.78
 -11   6   2   89.90    5.85
 -11   6   2   90.93    5.44
  11  -6  -2   97.63   11.59
 -11   6   2   90.84    5.37
 -11   6   2   92.84    5.25
  11  -6  -2   90.45    9.52
  11  -6  -2   84.78   12.83
 -11   6   2   98.87    6.42
  11  -6  -1    2.95    1.21
  11  -6  -1    2.96    2.70
 -11   6   1    1.93    0.91
 -11   6   1    4.56    1.46
  11  -6  -1    5.08    3.97
  11  -6  -1    3.81    3.61
 -11   6   1    2.74    1.49
  11  -6   0    2.28    2.79
 -11   6   0    2.05    0.91
 -11   6  -1   17.72    2.45
 -11   6  -1   19.81    2.38
  11  -6   2   -6.23    8.68
 -11   5   4   54.28    3.40
  11  -5  -4   52.35    6.17
 -11   5   4   56.90    3.47
  11  -5  -4   23.63    3.12
  11  -5  -4   37.43    5.12
 -11   5   4   54.95    4.18
  11  -5  -4   54.35    5.32
  11  -5  -4   47.47    6.78
 -11   5   4   47.88    3.00
  11  -5  -4   36.32    5.52
 -11   5   3   23.61    3.07
 -11   5   3   19.07    2.22
  11  -5  -3   22.92    5.35
 -11   5   3   30.68    3.34
  11  -5  -3   11.12    3.91
  11  -5  -3   27.78    3.16
  11  -5  -3    6.56    2.37
 -11   5   3   23.88    3.53
  11  -5  -3   20.78    5.78
  11  -5  -3   26.75    4.77
  11  -5  -3   28.35    6.57
 -11   5   3   23.32    3.09
 -11   5   3   22.71    2.97
  11  -5  -2  539.80   14.27
 -11   5   2  535.36   14.98
 -11   5   2  506.67   13.03
  11  -5  -2  554.71   26.14
 -11   5   2  532.03   13.70
 -11   5   2  470.91   11.99
  11  -5  -2  588.67   23.90
  11  -5  -2  516.37   28.40
 -11   5   2  545.17   15.50
 -11   5   1   77.56    5.35
 -11   5   1   82.49    5.34
  11  -5  -1   78.41   11.03
 -11   5   1   86.65    5.08
  11  -5  -1   69.68    5.01
 -11   5   1   64.28    5.46
 -11   5   1   60.31    5.38
  11  -5  -1   64.75    6.04
  11  -5  -1   56.32    5.02
  11  -5  -1   56.48    5.12
  11  -5  -1   79.67    8.04
  11  -5  -1   84.42    9.92
  11  -5  -1   84.44   13.07
 -11   5   1   75.54    5.63
  11  -5   0   -2.84    1.58
 -11   5   0   -0.04    0.74
  11  -5   0    1.78    2.00
  11  -5   0    0.32    1.48
  11  -5   0   -0.73    2.64
 -11   5  -1   81.66    5.51
 -11   5  -1   76.33    4.82
  11  -5   2   -0.75    1.99
 -11   5  -2   86.46    4.94
  11  -5   3  127.04    6.29
 -11   5  -3   69.23    4.59
 -11   4   4   21.89    2.39
  11  -4  -4   17.10    3.98
 -11   4   4   22.69    2.44
  11  -4  -4   14.06    3.51
  11  -4  -4   16.69    2.47
 -11   4   4   23.87    3.11
  11  -4  -4   16.25    3.81
  11  -4  -4   18.58    3.45
  11  -4  -4   15.17    4.15
 -11   4   4   21.62    2.27
 -11   4   3  160.81    8.06
 -11   4   3  134.20    5.99
  11  -4  -3  146.55   12.61
 -11   4   3  158.33    7.58
  11  -4  -3  123.89   11.21
  11  -4  -3  155.41    7.48
 -11   4   3  158.55    9.19
  11  -4  -3  140.71    8.87
  11  -4  -3  157.45   11.80
  11  -4  -3  160.69   14.60
 -11   4   3  148.46    7.72
 -11   4   3  157.27    8.08
  11  -4  -3  136.17   13.04
 -11   4   2  328.71   11.54
 -11   4   2  316.82   10.14
 -11   4   2  277.60    9.55
 -11   4   2  253.18    9.83
  11  -4  -2  293.30   18.17
 -11   4   2  306.72   26.67
 -11   4   2  324.91   10.79
  11  -4  -2  246.41   15.74
  11  -4  -2  337.64   11.26
  11  -4  -2  197.32   10.94
 -11   4   2  283.44   10.30
 -11   4   2  326.33   12.79
 -11   4   2  283.29   10.80
 -11   4   2  306.63   11.12
  11  -4  -2  294.62   10.72
  11  -4  -2  318.16   11.32
  11  -4  -2  299.01   13.70
 -11   4   2  305.59    9.57
  11  -4  -2  332.54   17.29
  11  -4  -2  313.11   20.65
 -11   4   2  276.49   10.93
 -11   4   2  323.41   11.18
  11  -4  -2  337.26   18.90
  11  -4  -2  240.59   18.11
 -11   4   1   59.52    4.66
 -11   4   1   70.61    4.80
 -11   4   1   59.37    4.49
 -11   4   1   64.07   11.30
 -11   4   1   41.77    3.66
  11  -4  -1   58.73    8.68
 -11   4   1   65.85    4.54
  11  -4  -1   66.44    5.93
  11  -4  -1   68.30    4.91
  11  -4  -1   69.59    7.05
  11  -4  -1   30.18    4.86
  11  -4  -1   68.02    7.02
 -11   4   1   59.75    4.93
 -11   4   1   54.49    4.75
  11  -4  -1   64.32    5.00
  11  -4  -1   57.47    4.84
  11  -4  -1   75.46   11.02
  11  -4  -1   79.45    8.80
 -11   4   1   55.08    4.35
 -11   4   1   71.08    5.35
 -11   4   0  511.52   12.97
 -11   4   0  588.73   13.25
  11  -4   0  655.54   32.26
  11  -4   0  540.46   18.48
  11  -4   0  415.01   11.56
  11  -4   0  209.15   14.30
  11  -4   0  500.30   22.80
 -11   4   0  385.82   14.56
  11  -4   0  440.36   15.97
  11  -4   0  387.74   13.99
  11  -4   0  415.18   14.44
  11  -4   0  611.86   23.78
 -11   4   0  387.47   14.72
  11  -4   0  635.03   27.06
 -11   4   0  481.32   13.71
 -11   4   0  584.43   30.90
 -11   4   0  549.28   22.80
  11  -4   1    1.06    1.49
 -11   4  -1    5.09    1.50
 -11   4  -1    2.18    3.29
  11  -4   1    4.90    3.63
  11  -4   1    5.08    7.48
 -11   4  -1    1.77    0.94
  11  -4   1    0.14    1.36
 -11   4  -1    2.25    2.14
 -11   4  -1    3.91    1.32
 -11   4  -1    2.57    1.28
  11  -4   2    6.20    9.65
  11  -4   2    3.09    2.03
 -11   4  -2    7.18    1.65
 -11   4  -3  117.83    7.38
  11  -4   3   19.03    9.46
  11  -3  -5    1.31    0.80
 -11   3   5    1.89    0.56
  11  -3  -5    2.61    1.06
 -11   3   4    1.32    0.91
  11  -3  -4    0.70    1.72
 -11   3   4   -0.21    0.63
  11  -3  -4   -0.35    1.42
 -11   3   4    3.44    1.96
  11  -3  -4    1.81    1.22
 -11   3   4   -0.35    1.02
  11  -3  -4    0.26    1.67
  11  -3  -4    0.92    1.23
  11  -3  -4    2.80    3.01
 -11   3   4   -0.28    0.55
  11  -3  -3  102.56    6.17
 -11   3   3  119.63    6.82
  11  -3  -3  114.49   11.48
 -11   3   3  119.12    6.58
  11  -3  -3   99.26    9.88
  11  -3  -3  116.09    6.46
 -11   3   3  114.09    7.94
  11  -3  -3  105.02    7.86
  11  -3  -3  106.60    9.80
  11  -3  -3  121.60   12.57
 -11   3   3  121.76    7.05
 -11   3   3  116.70    7.17
  11  -3  -3  112.87   11.15
  11  -3  -2    3.75    1.23
 -11   3   2    4.42    1.56
 -11   3   2    3.51    1.19
  11  -3  -2    3.64    2.55
 -11   3   2    3.73    1.10
 -11   3   2    4.88    3.91
 -11   3   2    3.87    1.35
 -11   3   2    2.83    1.19
  11  -3  -2    5.09    2.71
  11  -3  -2    4.43    1.34
  11  -3  -2    4.89    1.45
  11  -3  -2    5.04    1.44
 -11   3   2    3.80    1.27
 -11   3   2    4.34    1.87
 -11   3   2    4.25    1.36
  11  -3  -2    5.30    2.09
  11  -3  -2    2.60    2.53
 -11   3   2    2.61    0.95
  11  -3  -2    6.91    2.92
  11  -3  -2    2.72    1.85
  11  -3  -2    5.62    3.27
 -11   3   2    4.26    1.65
 -11   3   2    4.16    1.40
 -11   3   2    5.40    1.71
 -11   3   1   74.97    4.95
 -11   3   1   73.10    4.61
 -11   3   1   64.88    4.37
  11  -3  -1   72.60    5.72
 -11   3   1   62.56    4.13
  11  -3  -1   73.62    8.83
 -11   3   1   68.67   11.18
 -11   3   1   72.13    4.55
  11  -3  -1   71.02    4.78
  11  -3  -1   73.82    6.82
  11  -3  -1   42.20    5.35
  11  -3  -1   51.00    7.30
  11  -3  -1   69.63    6.68
  11  -3  -1   64.17    5.51
  11  -3  -1   67.40    4.97
 -11   3   1   63.94    4.88
 -11   3   1   59.67    4.73
  11  -3  -1   65.12    5.04
 -11   3   1   73.07    4.64
  11  -3  -1   78.90    8.07
  11  -3  -1   71.00   10.20
 -11   3   1   60.04    4.23
 -11   3   1   77.99    5.35
  11  -3  -1   73.08    8.16
 -11   3   0   57.98    4.20
 -11   3   0   60.05    4.08
  11  -3   0   71.05   10.13
  11  -3   0   62.88    6.07
  11  -3   0   79.14    8.71
  11  -3   0   24.07    4.48
  11  -3   0   50.12    7.30
 -11   3   0   50.55    4.88
 -11   3   0   50.37    4.90
  11  -3   0   46.34    5.10
  11  -3   0   49.20    4.73
  11  -3   0   45.07    4.65
  11  -3   0   64.76    7.28
  11  -3   0   70.83    8.30
 -11   3   0   55.59    9.55
 -11   3   0   54.10    4.34
 -11   3   0   60.37    7.06
  11  -3   1    1.30    1.02
 -11   3  -1    2.91    1.18
 -11   3  -1    2.31    2.92
  11  -3   1    6.24    6.05
  11  -3   1    4.05    2.56
 -11   3  -1    2.05    1.04
  11  -3   1    5.58    2.65
  11  -3   1    2.16    1.42
  11  -3   1    0.17    1.18
  11  -3   1    5.73    2.63
  11  -3   1   -0.42    1.08
  11  -3   1    1.99    2.19
  11  -3   1    1.14    1.43
 -11   3  -1   -0.68    1.58
 -11   3  -1    2.39    1.07
  11  -3   1    0.58    2.08
 -11   3  -1    5.34    2.31
 -11   3  -1    2.04    1.10
  11  -3   2   -3.84    2.14
  11  -3   2    0.68    8.08
  11  -3   2    3.06    3.77
  11  -3   2    1.04    1.69
 -11   3  -2   -0.63    0.95
  11  -3   3   17.48    4.27
 -11   3  -3   19.12    3.42
  11  -3   4    1.37    3.64
 -11   3  -4    7.49    1.23
  11  -2  -5    0.35    1.01
 -11   2   5    2.75    1.62
  11  -2  -5    0.08    0.65
 -11   2   5    0.49    0.49
  11  -2  -5    0.02    0.37
  11  -2  -5    0.45    0.73
 -11   2   4   52.02    3.68
  11  -2  -4   42.89    6.66
 -11   2   4   46.96    3.46
  11  -2  -4   38.52    5.49
 -11   2   4   51.89    7.33
 -11   2   4   53.91    4.92
  11  -2  -4   43.91    6.02
  11  -2  -4   35.06    6.13
 -11   2   4   41.80    3.23
 -11   2   3   71.96    5.27
  11  -2  -3   66.32    8.99
 -11   2   3   64.81    4.74
  11  -2  -3   49.85    6.75
  11  -2  -3   68.25    4.87
 -11   2   3   76.41    6.43
  11  -2  -3   68.44    8.09
  11  -2  -3   66.13    9.38
 -11   2   3   69.94    5.31
 -11   2   3   71.65    5.76
 -11   2   2    6.48    1.68
 -11   2   2    5.86    1.43
 -11   2   2    7.35    1.65
  11  -2  -2    5.56    2.53
 -11   2   2    5.77    1.30
 -11   2   2    8.28    1.77
 -11   2   2    7.13    4.57
  11  -2  -2    5.69    2.35
  11  -2  -2    6.28    1.60
 -11   2   2   10.81    3.36
  11  -2  -2    4.63    1.93
  11  -2  -2    5.48    1.40
  11  -2  -2    6.81    1.53
 -11   2   2    6.26    1.50
 -11   2   2    7.50    2.05
  11  -2  -2    5.26    1.95
 -11   2   2    5.93    1.33
  11  -2  -2    5.77    2.22
  11  -2  -2    2.72    2.03
 -11   2   2    5.64    1.66
 -11   2   2    6.34    1.47
 -11   2   2    8.36    1.92
 -11   2   1    4.31    1.18
 -11   2   1    3.82    3.93
 -11   2   1    4.32    1.11
  11  -2  -1    1.23    1.10
  11  -2  -1    4.61    1.44
  11  -2  -1    3.07    1.21
  11  -2  -1    5.82    1.49
 -11   2   1    3.02    1.22
  11  -2  -1    2.26    1.84
 -11   2   1    4.39    1.38
 -11   2   1    3.85    1.12
  11  -2   0   31.48    3.93
 -11   2   0   26.72    2.77
 -11   2   0   27.24    2.13
  11  -2   0   32.82    5.61
 -11   2   0   20.97    3.10
 -11   2   0   22.67    3.21
  11  -2   0   22.34    3.64
  11  -2   0   25.63    3.43
  11  -2   0   23.67    3.39
 -11   2   0   25.83    6.18
 -11   2   0   23.52    2.79
 -11   2   0   27.83    4.65
  11  -2   1    0.75    0.77
 -11   2  -1    1.71    0.86
 -11   2  -1    2.71    2.55
  11  -2   1   -0.75    4.87
  11  -2   1    3.22    3.15
  11  -2   1    0.64    3.02
  11  -2   1    0.50    1.03
  11  -2   1    5.02    3.59
  11  -2   1    1.77    1.45
 -11   2  -1   -0.08    0.80
  11  -2   1    0.60    1.80
  11  -2   1    0.56    1.15
  11  -2   1    1.10    1.61
  11  -2   1    0.94    1.68
  11  -2   1    2.66    2.21
  11  -2   1    1.12    1.02
 -11   2  -1    3.86    2.82
 -11   2  -1    1.29    0.77
  11  -2   1    1.10    2.10
 -11   2  -1    0.82    1.07
 -11   2  -1    2.44    1.29
  11  -2   2   12.00    3.42
 -11   2  -2    7.89    3.86
 -11   2  -2   11.39    4.37
  11  -2   2    7.53   10.85
  11  -2   2   12.61    5.07
  11  -2   2   13.63    4.50
  11  -2   2    8.49    2.98
 -11   2  -2   10.22    3.89
 -11   2  -2    9.66    2.09
 -11   2  -2   11.89    2.26
  11  -2   3   48.19    8.75
 -11   2  -3   59.46    6.10
 -11   2  -4   -0.67    1.18
  11  -2   4    1.16    4.23
  11  -2   4   -0.05    1.13
 -11   2  -4    0.36    0.51
 -11   2  -4   -0.61    0.76
  11  -1  -5   -0.92    0.93
 -11   1   5    4.20    1.73
  11  -1  -5    4.11    1.22
 -11   1   5    1.90    0.63
  11  -1  -5    1.28    0.67
  11  -1  -5    0.21    0.85
 -11   1   4    4.26    3.31
 -11   1   4    7.43    1.46
  11  -1  -4    8.13    3.28
  11  -1  -4    5.97    2.87
 -11   1   3   88.81    5.54
  11  -1  -3   77.36    9.35
 -11   1   3   91.72    5.44
  11  -1  -3   69.51    7.65
 -11   1   3   96.70    7.03
  11  -1  -3   80.23    8.86
 -11   1   3   87.52    5.70
 -11   1   2    0.91    0.73
 -11   1   2    1.83    0.92
  11  -1  -2    0.16    1.70
 -11   1   2    1.50    0.78
 -11   1   2    2.84    3.64
 -11   1   2    1.29    0.89
 -11   1   2    0.93    0.69
  11  -1  -2    0.63    1.48
  11  -1  -2    0.87    0.57
 -11   1   2    2.16    2.27
  11  -1  -2    1.32    1.20
  11  -1  -2    2.01    1.07
  11  -1  -2    2.88    1.16
  11  -1  -2    2.78    1.09
 -11   1   2    0.70    0.71
 -11   1   2    2.35    1.20
  11  -1  -2    0.32    1.53
  11  -1  -2    3.86    1.88
 -11   1   2    1.64    0.86
 -11   1   2    0.96    0.86
 -11   1   1   38.53    3.14
 -11   1   1   45.02    3.19
 -11   1   1   38.83    7.35
  11  -1  -1   48.02    4.08
  11  -1  -1   40.42    5.34
 -11   1   1   43.94    3.85
 -11   1   1   41.01    3.76
  11  -1  -1   40.94    3.72
  11  -1  -1   36.31    3.67
 -11   1   1   44.42    3.28
  11  -1  -1   46.13    5.69
 -11   1   0   85.99    4.83
 -11   1   0   91.02    3.88
  11  -1   0  103.46    6.78
  11  -1   0  103.88    9.38
 -11   1   0   83.53    5.97
  11  -1   0   88.09    6.72
  11  -1   0   81.19    5.83
  11  -1   0   78.68    5.92
 -11   1   0   84.00    5.95
 -11   1   0   92.49    9.69
 -11   1   0   85.82    5.00
 -11   1   0   92.89    7.57
  11  -1   1   46.99    5.60
 -11   1  -1   45.10    3.82
  11  -1   1   52.71    5.51
  11  -1   1   65.97    9.08
  11  -1   1   42.88    7.99
  11  -1   1   46.29    6.03
  11  -1   1   54.41    6.82
  11  -1   1   37.53    5.53
  11  -1   1   39.84    5.25
 -11   1  -1   45.65    5.56
  11  -1   1   35.66    5.24
  11  -1   1   62.58    7.48
 -11   1  -1   48.57    4.10
 -11   1  -1   39.39    6.07
 -11   1  -1   45.20    6.75
 -11   1  -1   54.33    4.15
  11  -1   2   16.91    3.92
 -11   1  -2   14.83    4.75
 -11   1  -2   12.61    4.35
  11  -1   2   18.14    3.98
  11  -1   2   12.07   10.40
  11  -1   2   22.36    6.19
  11  -1   2   14.08    5.17
  11  -1   2   18.79    4.52
 -11   1  -2   18.39    2.87
  11  -1   2   21.43    5.07
  11  -1   2   21.48    5.18
  11  -1   2   18.10    4.39
  11  -1   2   16.53    4.19
  11  -1   2   19.51    4.62
 -11   1  -2   18.18    4.93
 -11   1  -2   18.45    2.79
 -11   1  -2   18.34    2.69
  11  -1   3   18.99    4.15
  11  -1   3   12.88    9.56
  11  -1   3   14.65    5.65
 -11   1  -3   16.82    3.48
  11  -1   3   22.10    4.06
 -11   1  -3   18.74    3.26
 -11   1  -4    0.35    1.10
 -11   1  -4    1.84    1.57
  11  -1   4    3.42    1.86
 -11   1  -4    1.83    1.04
  11  -1   4    1.33    0.96
 -11   1  -4    1.79    1.02
 -11   0   5    6.42    2.07
 -11   0   5    4.75    0.82
  11   0  -5    2.96    0.89
  11   0  -5    3.92    1.28
 -11   0   4    1.20    2.99
  11   0  -4    0.89    1.84
  11   0  -4    1.54    1.78
 -11   0   3  102.69    5.94
  11   0  -3   83.69    9.56
 -11   0   3   99.92    5.67
 -11   0   3  116.43    7.66
  11   0  -3   88.64    9.26
 -11   0   3  101.38    6.04
 -11   0   2   96.70    5.56
 -11   0   2   89.75    4.94
 -11   0   2   83.79    4.77
  11   0  -2   87.26    5.95
  11   0  -2   85.56    8.44
 -11   0   2   99.28    5.44
  11   0  -2   72.56    8.21
 -11   0   2   83.69    5.16
 -11   0   2  106.05    6.58
 -11   0   2   82.48    5.20
  11   0  -2   78.56    5.17
  11   0  -2   75.13    5.25
  11   0  -2   87.86    8.14
 -11   0   2  101.67    5.96
  11   0  -2   77.62    8.13
  11   0  -1  208.74    8.57
 -11   0   1  170.21    6.60
 -11   0   1  189.34    6.41
 -11   0   1  171.63   13.73
  11   0  -1  175.71   10.89
 -11   0   1  166.74    7.64
 -11   0   1  160.53    7.53
  11   0  -1  158.54    8.63
  11   0  -1  153.02    7.45
  11   0  -1  161.23    7.87
 -11   0   1  188.92    6.50
  11   0  -1  182.43   10.31
 -11   0   0  124.30    4.74
 -11   0   0  116.23    5.71
  11   0   0  138.86    7.58
  11   0   0  139.93   10.39
  11   0   0  106.59    7.62
  11   0   0  111.14    7.10
  11   0   0  116.85    7.52
 -11   0   0  116.76    7.13
 -11   0   0  118.84   10.09
 -11   0   0  126.06    6.07
 -11   0  -1    3.37    2.45
 -11   0  -1    1.07    1.46
  11   0   1    1.31    1.70
  11   0   1    1.32    1.05
  11   0   1    0.72    1.23
  11   0   1   -0.03    1.45
  11   0   1    0.53    1.12
  11   0   1    1.36    1.58
 -11   0  -1    1.51    1.75
 -11   0  -1    0.44    1.43
 -11   0  -1    1.18    1.01
  11   0   2   17.64    3.88
  11   0   2   14.91    3.43
  11   0   2   16.86    4.27
 -11   0  -2   16.54    4.91
 -11   0  -2   10.16    3.63
  11   0   2   -7.23    8.19
  11   0   2   17.22    6.04
  11   0   2   17.24    6.03
 -11   0  -2   13.48    2.47
  11   0   2   16.08    4.73
  11   0   2   15.39    4.12
  11   0   2   15.90    4.21
  11   0   2   16.10    4.10
 -11   0  -2   12.42    2.97
  11   0   2   18.01    4.50
  11   0   2   13.40    3.80
 -11   0  -2   12.92    3.83
  11   0   2   13.35    3.30
 -11   0  -2   16.20    2.61
 -11   0  -2   15.78    2.48
  11   0   3    2.23    1.59
  11   0   3    1.46    2.23
  11   0   3   10.06   11.86
  11   0   3   -0.53    3.95
 -11   0  -3    2.38    1.51
  11   0   3    1.29    2.32
  11   0   3    0.04    1.95
 -11   0  -3    0.85    1.07
  11   0   4    4.64    1.64
 -11   0  -4    2.46    1.88
 -11   0  -4    2.57    1.99
  11   0   4    3.18    2.01
  11   0   4    4.83    2.78
 -11   0  -4    1.83    0.93
 -11   0  -4    3.25    1.26
 -11  -1   4   -0.98    2.93
 -11  -1   4    0.99    0.88
  11   1  -4    1.66    1.65
  11   1  -4    1.26    1.30
 -11  -1   3  407.21   21.41
 -11  -1   3  303.40   10.36
 -11  -1   2   68.75    9.56
  11   1  -2   50.09    6.87
 -11  -1   2   64.15    4.56
 -11  -1   2   56.52    3.96
  11   1  -2   62.44    5.38
  11   1  -2   47.97    6.35
 -11  -1   2   60.51    4.73
  11   1  -2   41.10    6.14
  11   1  -1   16.55    2.57
 -11  -1   1   16.12    1.97
  11   1  -1   17.55    3.77
 -11  -1   1   13.66    2.35
  11   1  -1   11.82    2.54
  11   1  -1   15.02    2.57
  11   1  -1   13.16    2.48
 -11  -1   1   13.32    2.35
  11   1  -1   13.89    2.75
 -11  -1   0   22.29    2.24
  11   1   0   23.35    3.19
  11   1   0   21.97    4.29
  11   1   0   20.21    3.66
  11   1   0   19.88    3.41
  11   1   0   22.13    3.76
 -11  -1   0   23.86    3.58
 -11  -1   0   21.56    2.58
 -11  -1  -1   14.68    1.98
  11   1   1   15.07    3.03
  11   1   1   20.25    4.99
  11   1   1   11.69    3.28
  11   1   1   11.52    3.49
  11   1   1   14.36    3.46
  11   1   1   14.03    3.44
 -11  -1  -1   12.18    3.05
 -11  -1  -1   13.11    2.19
 -11  -1  -1   12.64    3.16
  11   1   2    0.72    1.50
  11   1   2    2.75    2.04
  11   1   2   -0.71    2.55
  11   1   2   -0.07    8.59
  11   1   2    0.35    2.53
  11   1   2   -0.17    1.83
  11   1   2    3.82    3.96
  11   1   2    0.54    1.50
 -11  -1  -2    0.31    1.02
  11   1   2    0.10    2.19
  11   1   2   -0.96    1.70
  11   1   2   -3.97    2.30
 -11  -1  -2    0.48    0.97
  11   1   2    1.56    1.85
  11   1   2   -2.47    1.82
  11   1   2    3.18    2.17
 -11  -1  -2   -0.34    0.73
 -11  -1  -2    0.00    0.91
 -11  -1  -2    0.65    0.92
 -11  -1  -2    1.19    1.29
  11   1   3   76.39    9.36
 -11  -1  -3   60.96    8.39
  11   1   3   87.50    9.01
  11   1   3   84.43   12.27
 -11  -1  -3   73.15    6.85
  11   1   3   86.23    9.95
  11   1   3   88.16    9.33
 -11  -1  -3   75.53    6.09
  11   1   4    3.63    1.60
 -11  -1  -4    2.13    1.52
 -11  -1  -4    0.64    1.52
  11   1   4    3.10    5.86
  11   1   4   -0.43    1.56
  11   1   4    3.77    2.72
 -11  -1  -4    0.91    0.87
  11   1   4    3.87    1.86
 -11  -1  -4    1.54    0.87
 -11  -2   4   46.65    6.17
 -11  -2   4   53.95    3.83
 -11  -2   4   56.37    3.45
  11   2  -4   45.29    5.06
 -11  -2   3   -3.09    3.33
 -11  -2   3    0.26    0.86
 -11  -2   3   -1.96    1.05
 -11  -2   2    3.45    1.09
 -11  -2   2    6.07    3.66
  11   2  -2    2.80    1.78
  11   2  -2    3.74    1.50
 -11  -2   2    6.16    1.65
 -11  -2   2    2.96    1.18
 -11  -2   2    3.89    1.39
 -11  -2   1   10.32    1.71
  11   2  -1   12.68    2.34
 -11  -2   1   10.20    1.82
 -11  -2   1    3.41    3.87
  11   2  -1    8.72    2.76
  11   2  -1    6.87    2.18
  11   2  -1    7.50    2.04
  11   2  -1    7.37    2.07
 -11  -2   1   10.85    1.91
 -11  -2   1    8.71    2.04
 -11  -2   1   12.59    2.12
 -11  -2   0   43.64    3.42
  11   2   0   38.66    4.06
  11   2   0   38.69    5.55
  11   2   0   34.68    5.05
  11   2   0   32.61    4.84
  11   2   0   33.39    4.60
 -11  -2   0   32.18    4.40
  11   2   0   37.80    4.95
 -11  -2   0   42.69    3.62
 -11  -2  -1   36.96    3.36
  11   2   1   32.43    4.37
  11   2   1   37.86    5.39
 -11  -2  -1   34.61    3.35
  11   2   1   37.71    8.02
  11   2   1   39.39    6.91
  11   2   1   46.87    8.37
 -11  -2  -1   39.35    4.02
  11   2   1   27.01    4.75
  11   2   1   31.42    5.31
  11   2   1   35.90    4.95
 -11  -2  -1   34.26    5.19
  11   2   1   32.44    5.17
  11   2   1   30.12    4.99
  11   2   1   28.61    5.17
 -11  -2  -1   34.03    3.11
 -11  -2  -1   37.63    3.61
 -11  -2  -1   32.26    3.28
  11   2   2 1023.74   30.54
  11   2   2  915.97   27.56
  11   2   2 1009.88   32.44
 -11  -2  -2  859.03   27.98
  11   2   2  954.49   40.10
 -11  -2  -2 1057.42   21.92
  11   2   2  998.51   33.17
  11   2   2  965.71   32.27
 -11  -2  -2  984.95   23.92
  11   2   2  969.09   30.06
  11   2   2  942.22   31.42
  11   2   2  924.81   31.12
  11   2   2  956.18   32.65
  11   2   2 1072.23   31.36
 -11  -2  -2  987.81   19.31
 -11  -2  -2  970.14   20.31
 -11  -2  -2  933.46   30.24
  11   2   2  960.05   31.90
 -11  -2  -2 1049.03   19.48
 -11  -2  -3   23.80    4.00
  11   2   3   30.90    6.47
 -11  -2  -3   29.85    5.73
  11   2   3   36.20    6.06
  11   2   3   30.50    7.82
 -11  -2  -3   35.47    4.74
  11   2   3   33.84    6.26
  11   2   3   32.43    6.09
  11   2   3   33.47    5.39
 -11  -2  -3   26.99    3.63
 -11  -2  -3   35.01    3.50
  11   2   4    0.60    1.31
 -11  -2  -4    1.39    1.21
 -11  -2  -4    0.77    1.56
  11   2   4   -3.08    5.23
  11   2   4   -2.60    1.49
  11   2   4    1.67    2.92
 -11  -2  -4    0.63    0.79
  11   2   4    1.12    1.32
 -11  -2  -4    0.02    0.67
  11   3  -4    0.73    0.62
 -11  -3   4    1.59    0.61
 -11  -3   4    1.97    0.85
 -11  -3   3    1.35    1.06
 -11  -3   3    1.20    2.26
 -11  -3   3    2.10    1.09
 -11  -3   2   58.06    4.54
  11   3  -2   69.09    5.92
 -11  -3   2   82.77   11.21
  11   3  -2   48.23    6.72
 -11  -3   2   61.96    4.61
 -11  -3   2   63.79    5.16
 -11  -3   2   69.43    5.18
 -11  -3   1    0.84    0.81
  11   3  -1    0.13    1.05
  11   3  -1    1.26    0.83
 -11  -3   1    0.40    0.95
 -11  -3   1   -0.06    0.73
 -11  -3   0  326.43   10.50
  11   3   0  300.02   11.57
 -11  -3   0  387.42   29.38
  11   3   0  321.81   16.70
 -11  -3   0  328.66   11.27
  11   3   0  283.40   14.96
  11   3   0  336.31   12.59
 -11  -3   0  270.13   13.02
  11   3   0  277.23   14.07
  11   3   0  260.97   13.96
  11   3   0  258.69   14.58
 -11  -3   0  330.60   10.27
 -11  -3   0  354.61   10.63
  11   3   1  324.27   13.82
  11   3   1  323.26   16.19
 -11  -3  -1  290.80   10.67
  11   3   1  339.59   19.95
  11   3   1  314.00   21.26
 -11  -3  -1  305.53   11.58
  11   3   1  321.94   16.27
  11   3   1  307.98   16.79
 -11  -3  -1  316.87   12.16
  11   3   1  330.36   14.88
  11   3   1  304.38   16.52
  11   3   1  299.94   16.37
  11   3   1  285.67   16.50
 -11  -3  -1  319.32   10.21
 -11  -3  -1  321.62   10.68
 -11  -3  -1  334.85   10.14
  11   3   2  141.51   11.77
  11   3   2  129.30   10.26
  11   3   2  127.64   11.77
 -11  -3  -2  121.89   10.18
  11   3   2  135.41   15.25
 -11  -3  -2  130.56    7.99
  11   3   2  130.71   11.82
  11   3   2  128.01   12.09
 -11  -3  -2  118.85    8.24
  11   3   2  139.76   10.95
  11   3   2  120.48   11.50
  11   3   2  123.97   11.66
  11   3   2  121.74   12.01
  11   3   2  141.17   11.57
 -11  -3  -2  120.26    7.06
 -11  -3  -2  144.31    7.42
  11   3   2  111.80   11.36
  11   3   3   -0.53    2.04
  11   3   3   -0.01    2.48
 -11  -3  -3    0.87    1.80
  11   3   3    8.03    4.77
 -11  -3  -3    1.82    1.53
  11   3   3    1.68    1.62
  11   3   3    1.04    2.06
  11   3   3    1.39    1.87
 -11  -3  -3    0.75    0.98
 -11  -3  -3    4.02    1.29
 -11  -3  -4   14.28    2.12
 -11  -3  -4   19.63    3.32
  11   3   4   19.39    3.50
  11   3   4    0.09    3.44
  11   3   4   29.62    5.71
 -11  -3  -4   20.64    2.63
  11   3   4   18.80    3.49
  11   3   4    0.14    0.62
 -11  -3  -4   21.33    2.40
 -11  -4   4    8.02    1.15
 -11  -4   3   10.31    1.98
 -11  -4   3   10.23    1.76
 -11  -4   2  143.10    7.72
 -11  -4   2  127.76    6.27
 -11  -4   2  128.06    7.17
 -11  -4   1  253.27   21.72
 -11  -4   1  244.46   10.01
 -11  -4   1  228.12    9.97
 -11  -4   1  204.28    9.11
  11   4  -1  204.99    9.82
  11   4   0  500.70   21.46
  11   4   0  508.71   15.11
  11   4   0  483.29   15.27
 -11  -4   0  487.56   14.27
 -11  -4   0  513.53   13.41
  11   4   1   49.63    5.54
  11   4   1   56.03    7.17
 -11  -4  -1   52.62    5.02
 -11  -4  -1   64.26    4.99
  11   4   1   48.90    7.48
 -11  -4  -1   67.68    5.52
  11   4   1   53.98    7.30
  11   4   1   47.18    7.06
  11   4   1   49.87    7.40
  11   4   1   60.27    7.00
 -11  -4  -1   66.36    4.64
 -11  -4  -1   60.72    4.81
  11   4   1   49.77    7.24
  11   4   2    1.60    2.22
 -11  -4  -2   -0.20    1.24
  11   4   2   -1.99    4.02
 -11  -4  -2    0.13    1.03
  11   4   2    0.71    1.88
 -11  -4  -2    1.04    1.06
 -11  -4  -2    1.54    1.16
  11   4   3   43.37    6.49
  11   4   3   32.96    5.31
  11   4   3   40.76    6.39
 -11  -4  -3   35.93    5.03
 -11  -4  -3   29.86    4.32
  11   4   3   42.25    8.21
 -11  -4  -3   45.98    4.67
  11   4   3   35.41    5.88
 -11  -4  -3   41.78    3.86
  11   4   3   37.88    5.91
 -11  -4  -4   36.99    3.79
  11   4   4   30.01    3.89
  11   4   4   40.76    5.81
 -11  -4  -4   41.79    3.31
  11   4   4   30.50    3.91
  11   4   4   34.62    3.73
 -11  -4  -4   39.29    2.90
 -11  -5   3    1.66    0.72
 -11  -5   2   19.17    3.03
 -11  -5   2   16.37    2.46
 -11  -5   2   17.40    2.22
 -11  -5   1  234.12    9.87
 -11  -5   1  212.75    9.70
 -11  -5   0   67.55    5.59
 -11  -5   0   71.69    5.59
  11   5   0   57.30    6.68
  11   5   1  119.93   10.34
 -11  -5  -1  134.37    7.17
 -11  -5  -1  150.34    7.73
  11   5   1  126.63   10.24
 -11  -5  -1  151.99    6.71
  11   5   2    0.07    1.85
  11   5   2    3.37    2.73
 -11  -5  -2    1.35    1.27
  11   5   2   -0.39    1.46
 -11  -5  -2    0.22    0.86
  11   5   3   13.80    3.54
  11   5   3   17.98    4.08
  11   5   3   13.05    3.15
 -11  -5  -3   19.54    3.10
 -11  -5  -3   13.82    2.86
  11   5   3   14.87    4.03
 -11  -5  -3   17.90    2.70
  11   5   3   13.19    3.21
  11   5   3   15.88    3.94
 -11  -5  -3   16.14    2.26
  11   5   4   53.88    5.08
 -11  -5  -4   46.24    3.17
  11   5   4   31.22    3.28
  11   5   4   30.86    3.02
  11   5   4   38.41    3.48
 -11  -5  -4   39.58    2.43
 -11  -6   3    3.29    0.71
 -11  -6   2    1.19    0.78
 -11  -6   2    1.60    0.76
 -11  -6   1    9.62    2.17
 -11  -6   1    8.60    2.00
 -11  -6   0    3.39    1.35
 -11  -6   0    4.88    1.93
 -11  -6  -1  118.17    6.32
  11   6   1  102.08    8.76
  11   6   2    7.01    2.76
 -11  -6  -2    6.04    1.98
 -11  -6  -2    9.42    1.90
 -11  -6  -2   12.86    2.32
  11   6   2    7.60    2.58
  11   6   2    9.91    3.62
 -11  -6  -2   11.86    1.90
 -11  -6  -3    0.88    0.89
  11   6   3    1.07    1.05
  11   6   3    4.09    2.03
  11   6   3    3.53    1.68
  11   6   3    2.31    1.85
 -11  -6  -3    3.63    1.02
  11   6   3   -0.08    1.11
 -11  -7   2   50.96    2.80
 -11  -7   1    2.19    1.03
 -11  -7   1    1.77    0.81
 -11  -7   0   46.29    4.13
 -11  -7   0   46.23    3.79
 -11  -7  -1   70.00    5.38
 -11  -7  -1   85.59    4.66
  11   7   1   84.29    7.54
 -11  -7  -2    0.46    0.92
 -11  -7  -2   -0.21    0.56
  11   7   2   -1.21    1.56
  11   7   2   -1.89    2.14
  11   7   2    0.21    1.86
 -11  -7  -3    1.52    0.74
  11   7   3    3.10    1.55
  11   7   3    3.08    1.27
  11   7   3    2.53    0.80
 -11  -8   1    2.63    0.64
 -11  -8   1    2.24    0.72
 -11  -8   0   13.42    1.81
 -11  -8   0   12.63    1.63
  11   8   0    8.73    1.92
  11   8   0    9.99    2.45
 -11  -8  -1    4.23    1.07
 -11  -8  -1    3.53    0.73
  11   8   1    1.96    1.32
 -11  -8  -2   -0.27    0.42
  11   8   2    0.02    1.15
  11   8   2    0.94    1.02
 -12   8   2   13.88    1.43
 -12   8   2   12.66    1.54
 -12   8   2   11.15    1.11
 -12   8   2   16.18    1.63
 -12   8   1   12.51    1.54
 -12   8   1   12.31    1.68
 -12   8   1   13.04    1.59
 -12   8   1   13.05    1.42
 -12   8   0   35.49    2.30
 -12   8   0   46.69    2.68
 -12   7   3    2.77    0.83
 -12   7   3    2.95    0.70
 -12   7   3    2.78    0.74
  12  -7  -3    1.31    0.62
  12  -7  -3    0.57    1.33
 -12   7   3    3.30    0.96
  12  -7  -2    3.28    1.06
  12  -7  -2    4.30    2.34
 -12   7   2    5.47    1.27
 -12   7   2    5.33    1.22
 -12   7   2    3.27    0.83
 -12   7   2    5.11    1.15
  12  -7  -2    7.10    2.44
 -12   7   2    5.02    1.34
  12  -7  -1   18.02    4.11
 -12   7   1   18.23    2.27
 -12   7   1   19.90    2.39
 -12   7   1   16.11    2.24
 -12   7   0    9.47    1.50
 -12   7   0    6.51    1.51
 -12   7   0   10.30    1.77
  12  -7   1    6.82    5.62
 -12   7  -1    8.36    1.19
 -12   7  -1    6.58    1.24
  12  -6  -4    3.47    1.38
 -12   6   4    2.83    0.66
 -12   6   4    4.02    0.74
 -12   6   3  113.56    5.60
 -12   6   3  105.78    4.50
  12  -6  -3  130.67   11.02
 -12   6   3  113.26    5.20
  12  -6  -3  103.80    5.30
 -12   6   3  118.25    5.72
  12  -6  -3  116.25    8.93
  12  -6  -3  103.38   11.40
 -12   6   3  111.10    5.60
  12  -6  -2   61.56    4.55
 -12   6   2   69.22    4.81
 -12   6   2   55.88    4.07
  12  -6  -2   65.88    9.32
 -12   6   2   68.63    4.37
 -12   6   2   62.39    4.14
  12  -6  -2   78.71    8.92
  12  -6  -2   51.08    9.56
 -12   6   2   64.75    5.01
  12  -6  -1  224.92   15.14
 -12   6   1  271.91    8.92
 -12   6   1  259.13    9.09
  12  -6  -1  257.49   20.90
  12  -6  -1  252.08   17.34
 -12   6   1  260.98    9.81
  12  -6   0   35.29    6.57
 -12   6   0   52.59    3.92
 -12   6  -1   41.03    3.47
 -12   6  -1   43.76    3.28
  12  -6   2    1.89    5.45
 -12   5   4   49.60    2.97
  12  -5  -4   50.21    5.79
 -12   5   4   50.12    2.97
  12  -5  -4   31.08    3.43
  12  -5  -4   33.71    4.69
 -12   5   4   53.03    3.53
  12  -5  -4   50.95    4.92
  12  -5  -4   37.37    5.36
 -12   5   4   42.63    2.59
 -12   5   3   63.04    4.68
 -12   5   3   55.98    3.63
  12  -5  -3   52.94    7.57
 -12   5   3   60.30    4.35
  12  -5  -3   51.07    4.18
  12  -5  -3   43.37    6.87
 -12   5   3   60.64    5.01
  12  -5  -3   57.62    7.03
  12  -5  -3   45.91    7.81
 -12   5   3   58.76    4.60
 -12   5   3   55.38    4.06
  12  -5  -2   51.84    4.45
 -12   5   2   51.76    4.47
 -12   5   2   51.84    4.18
  12  -5  -2   54.04    8.68
 -12   5   2   50.52    4.13
 -12   5   2   47.60    3.84
  12  -5  -2   55.46    7.63
  12  -5  -2   47.30    9.24
 -12   5   2   51.90    4.71
 -12   5   1  100.99    5.90
 -12   5   1  101.08    5.89
  12  -5  -1  103.19   12.99
  12  -5  -1   85.63    5.66
  12  -5  -1   91.46   10.09
  12  -5  -1   84.99    8.48
  12  -5  -1  105.51   11.23
 -12   5   1   97.04    6.31
 -12   5   0  174.13    7.43
  12  -5   0  158.20   10.32
  12  -5   0  159.86   13.86
  12  -5   0  142.66   12.00
  12  -5   1   17.87   10.38
  12  -5   1   14.20    4.97
 -12   5  -1   28.49    3.34
 -12   5  -1   26.98    2.81
  12  -5   2  148.99   21.77
 -12   5  -2   81.07    4.49
  12  -5   3    9.03    5.56
 -12   5  -3   17.07    2.18
 -12   4   4   29.18    2.54
  12  -4  -4   27.09    4.83
 -12   4   4   28.64    2.51
  12  -4  -4   14.56    2.82
  12  -4  -4   18.21    3.87
 -12   4   4   33.59    3.26
  12  -4  -4   29.42    4.29
  12  -4  -4   24.43    4.85
 -12   4   4   28.18    2.40
 -12   4   3    0.00    0.93
 -12   4   3   -0.09    0.53
  12  -4  -3    1.81    2.43
 -12   4   3   -0.53    1.03
  12  -4  -3    1.24    2.08
  12  -4  -3    0.42    0.84
 -12   4   3    1.69    1.28
  12  -4  -3   -1.27    1.20
  12  -4  -3   -0.32    2.61
  12  -4  -3   -0.26    1.54
  12  -4  -3   -0.63    2.93
 -12   4   3    0.36    1.05
 -12   4   3    0.95    1.00
 -12   4   2   20.73    3.06
 -12   4   2   16.41    2.44
  12  -4  -2   15.40    4.68
 -12   4   2   19.70    2.72
  12  -4  -2   10.62    3.84
  12  -4  -2   19.69    2.86
  12  -4  -2   12.44    3.22
  12  -4  -2   17.28    3.63
 -12   4   2   15.93    2.29
  12  -4  -2   23.89    4.98
  12  -4  -2   19.67    6.19
 -12   4   2   19.81    3.00
 -12   4   1   85.55    5.52
 -12   4   1   80.41    5.47
 -12   4   1   83.11    5.31
  12  -4  -1   94.50   11.42
 -12   4   1   82.87    5.00
 -12   4   1   78.77   12.87
  12  -4  -1   90.41    7.13
  12  -4  -1   72.91    5.33
  12  -4  -1   76.53    7.73
 -12   4   1   65.06    5.62
 -12   4   1   64.60    5.63
  12  -4  -1   71.70    6.59
  12  -4  -1   66.67    5.56
  12  -4  -1   68.36    5.75
  12  -4  -1   87.09    8.53
 -12   4   1   85.33    5.34
  12  -4  -1   92.64    9.97
  12  -4  -1   78.13   12.65
 -12   4   1   88.09    5.99
 -12   4   0  666.89   15.48
 -12   4   0  688.55   14.77
  12  -4   0  929.46   40.54
  12  -4   0  776.88   23.10
  12  -4   0  715.24   28.65
 -12   4   0  577.56   18.58
  12  -4   0  574.83   19.49
  12  -4   0  578.20   18.00
  12  -4   0  574.23   18.51
 -12   4   0  557.06   18.44
  12  -4   0  865.99   29.04
 -12   4   0  818.21   16.37
  12  -4   0  866.78   32.72
 -12   4   0  822.11   38.40
 -12   4   0  701.55   17.02
 -12   4   0  725.38   27.23
  12  -4   1    3.19    2.06
  12  -4   1    9.85   10.15
  12  -4   1    2.60    2.68
 -12   4  -1    4.84    1.59
  12  -4   1    1.95    2.11
 -12   4  -1    5.68    1.53
  12  -4   2    7.23   11.18
  12  -4   2   -0.02    1.32
 -12   4  -2   -0.30    0.77
  12  -4   3    3.82    1.66
 -12   4  -3    1.86    1.20
 -12   3   4    0.79    0.73
  12  -3  -4    2.89    2.38
 -12   3   4    0.32    0.55
  12  -3  -4   -0.49    1.23
 -12   3   4   -0.18    1.41
 -12   3   4   -0.06    0.92
  12  -3  -4    0.19    0.79
  12  -3  -4   -0.63    2.01
 -12   3   4    1.24    0.73
 -12   3   3  268.52   10.08
  12  -3  -3  263.52   16.91
 -12   3   3  269.41    9.77
  12  -3  -3  279.25   10.34
  12  -3  -3  211.97   14.48
  12  -3  -3  239.05    9.34
 -12   3   3  277.13   11.67
  12  -3  -3  238.09   11.98
  12  -3  -3  279.05   15.68
  12  -3  -3  282.99   18.22
 -12   3   3  291.88   10.69
 -12   3   3  291.63   10.86
  12  -3  -3  211.64   15.32
  12  -3  -2    4.22    1.51
 -12   3   2    4.06    1.61
 -12   3   2    3.03    1.24
  12  -3  -2    6.67    3.24
 -12   3   2    5.52    1.42
 -12   3   2    5.77    4.38
 -12   3   2    4.12    1.45
 -12   3   2    1.95    0.90
  12  -3  -2    2.04    2.27
  12  -3  -2    4.98    1.55
  12  -3  -2    2.57    1.56
  12  -3  -2    5.45    1.69
  12  -3  -2    4.05    1.38
 -12   3   2    3.87    1.28
 -12   3   2    4.35    1.56
  12  -3  -2    4.05    1.90
  12  -3  -2    3.68    2.10
 -12   3   2    5.10    1.38
  12  -3  -2    5.51    2.85
  12  -3  -2    4.44    2.73
  12  -3  -2    6.55    3.65
 -12   3   2    5.36    1.79
 -12   3   2    5.41    1.52
 -12   3   2    3.66    1.30
 -12   3   1   27.31    3.03
 -12   3   1   25.82    2.95
 -12   3   1   25.59    2.90
 -12   3   1   24.18    2.59
  12  -3  -1   30.82    6.16
 -12   3   1   26.73    2.88
 -12   3   1   25.05    7.19
  12  -3  -1   26.33    3.75
  12  -3  -1   23.53    2.99
  12  -3  -1   19.66    3.72
 -12   3   1   22.59    3.21
  12  -3  -1   26.00    3.97
 -12   3   1   25.33    3.37
  12  -3  -1   24.04    3.72
  12  -3  -1   23.69    3.28
  12  -3  -1   21.48    3.18
  12  -3  -1   27.77    4.57
 -12   3   1   26.14    2.94
  12  -3  -1   25.66    5.03
  12  -3  -1   28.37    7.29
 -12   3   1   26.25    3.28
 -12   3   0   43.06    3.83
 -12   3   0   48.23    3.82
  12  -3   0   64.58    9.74
  12  -3   0   47.53    5.52
  12  -3   0   44.47    7.25
  12  -3   0   51.34    6.97
  12  -3   0   48.60    5.99
 -12   3   0   40.07    4.69
  12  -3   0   35.84    4.94
  12  -3   0   41.19    4.75
  12  -3   0   38.37    4.76
  12  -3   0   56.49    7.29
 -12   3   0   43.12    4.91
 -12   3   0   45.96    3.81
  12  -3   0   64.84    8.20
 -12   3   0   43.25    4.07
 -12   3   0   40.32    6.14
 -12   3   0   43.25    8.58
  12  -3   1    0.20    1.58
 -12   3  -1    0.48    0.81
 -12   3  -1    1.31    3.21
  12  -3   1    3.89    8.75
  12  -3   1    0.24    2.68
  12  -3   1    1.14    3.68
  12  -3   1    1.82    1.71
 -12   3  -1    0.84    0.90
  12  -3   1   -3.80    2.42
  12  -3   1    6.32    2.74
  12  -3   1    3.12    1.70
  12  -3   1   -1.13    1.89
  12  -3   1   -1.12    2.48
  12  -3   1    2.44    1.78
 -12   3  -1   -0.89    2.42
 -12   3  -1   -0.09    0.93
 -12   3  -1   -0.41    0.92
 -12   3  -1   -0.17    0.67
  12  -3   2   -0.74    3.44
  12  -3   2    4.75    2.57
 -12   3  -2    5.43    1.54
  12  -3   3    2.79    7.32
 -12   3  -3   24.84    3.65
  12  -3   4    2.14    0.93
  12  -2  -4    9.42    1.76
 -12   2   4    9.37    1.61
  12  -2  -4    7.29    2.79
  12  -2  -4    4.86    2.02
 -12   2   4   10.57    3.52
  12  -2  -4   10.20    2.42
 -12   2   4   11.55    2.29
  12  -2  -4    8.82    2.73
 -12   2   4    8.04    1.44
  12  -2  -3   40.83    4.15
 -12   2   3   43.65    4.10
  12  -2  -3   48.56    7.73
 -12   2   3   61.57    4.59
  12  -2  -3   42.02    6.57
 -12   2   3   49.24    5.10
  12  -2  -3   42.19    5.13
  12  -2  -3   48.92    6.60
 -12   2   3   51.34    4.49
  12  -2  -2   47.36    4.53
 -12   2   2   58.43    4.67
 -12   2   2   39.95    3.49
 -12   2   2   49.68    3.94
 -12   2   2   43.74    3.78
  12  -2  -2   45.41    6.98
 -12   2   2   50.96    4.15
 -12   2   2   40.27    9.28
  12  -2  -2   28.49    5.35
 -12   2   2   53.15    8.39
  12  -2  -2   46.23    4.22
  12  -2  -2   42.20    6.32
 -12   2   2   42.33    4.58
 -12   2   2   41.53    4.02
 -12   2   2   40.03    4.00
  12  -2  -2   43.75    4.17
  12  -2  -2   45.56    4.41
  12  -2  -2   41.89    5.11
 -12   2   2   46.58    3.72
  12  -2  -2   43.25    6.25
 -12   2   2   48.49    4.46
  12  -2  -2   49.93    7.04
 -12   2   1   13.20    2.07
 -12   2   1   10.26    1.83
 -12   2   1   11.20    1.94
 -12   2   1   12.09    1.79
  12  -2  -1   10.22    3.43
 -12   2   1   12.62    1.94
 -12   2   1    9.89    4.49
  12  -2  -1   13.06    2.49
  12  -2  -1   11.64    2.16
  12  -2  -1   12.14    3.25
  12  -2  -1   12.49    3.44
  12  -2  -1   14.90    3.10
 -12   2   1    9.84    2.05
  12  -2  -1    6.03    1.84
 -12   2   1    8.45    1.93
  12  -2  -1    9.97    2.48
  12  -2  -1    8.62    2.01
  12  -2  -1   10.71    2.21
 -12   2   1   11.43    1.95
  12  -2  -1   11.74    3.69
  12  -2  -1   11.15    3.13
 -12   2   1   10.87    2.08
  12  -2   0    2.87    1.41
 -12   2   0    1.83    0.89
  12  -2   0    4.44    3.29
 -12   2   0    2.33    1.00
 -12   2   0   -0.30    2.53
  12  -2   0    1.60    1.93
  12  -2   0   -2.41    2.02
  12  -2   0    1.80    1.20
  12  -2   0    1.90    1.90
  12  -2   0    0.78    1.05
 -12   2   0    1.81    1.23
 -12   2   0    1.72    0.94
  12  -2   0    2.23    1.46
  12  -2   0    1.54    1.27
  12  -2   0    3.70    2.05
  12  -2   0    3.61    2.15
  12  -2   0    3.10    1.61
 -12   2   0   -1.61    2.07
 -12   2   0    2.36    0.99
  12  -2   0    2.34    2.04
 -12   2   0    2.05    1.04
 -12   2   0    0.14    0.76
  12  -2   1   12.72    3.20
 -12   2  -1   10.52    2.03
 -12   2  -1   12.48    1.90
 -12   2  -1    7.74    3.73
  12  -2   1   15.29    9.89
  12  -2   1   14.06    4.68
  12  -2   1   12.73    5.94
  12  -2   1    9.39    4.63
  12  -2   1    9.88    2.85
 -12   2  -1   13.16    2.48
  12  -2   1   16.81    4.23
  12  -2   1   10.90    3.30
  12  -2   1   10.51    3.48
  12  -2   1   10.88    3.21
  12  -2   1   16.27    3.86
  12  -2   1   11.89    3.21
 -12   2  -1   11.74    3.93
 -12   2  -1   12.54    1.98
  12  -2   1   12.70    4.32
 -12   2  -1   11.43    2.24
 -12   2  -1   11.94    3.13
 -12   2  -1   11.78    2.19
  12  -2   2    7.55    2.77
  12  -2   2   12.02   10.01
  12  -2   2    2.26    3.55
 -12   2  -2    7.36    1.87
  12  -2   2    6.61    3.30
  12  -2   2    6.19    2.93
 -12   2  -2    8.76    2.05
  12  -2   3   27.27    6.47
 -12   2  -3   15.12    3.09
  12  -2   4    5.52    1.68
 -12   2  -4    0.26    0.92
 -12   2  -4    1.01    1.00
 -12   2  -4    3.97    1.06
  12  -1  -4   23.35    4.55
 -12   1   4   20.85    4.89
  12  -1  -4   24.81    3.67
  12  -1  -4   24.99    4.48
 -12   1   4   22.30    2.27
 -12   1   3   11.13    2.18
  12  -1  -3   13.74    4.55
 -12   1   3   10.57    2.03
  12  -1  -3   10.31    3.33
 -12   1   3   11.55    4.27
 -12   1   3   10.49    2.53
  12  -1  -3    9.85    3.43
 -12   1   3    8.59    2.01
 -12   1   2    1.01    0.87
 -12   1   2    2.04    1.02
  12  -1  -2    2.57    1.73
 -12   1   2    4.82    4.26
 -12   1   2    2.18    1.04
 -12   1   2    1.36    0.77
  12  -1  -2   -3.41    2.12
  12  -1  -2   -0.86    0.83
 -12   1   2    0.12    2.14
  12  -1  -2    3.08    2.00
  12  -1  -2    1.18    1.15
  12  -1  -2   -0.66    0.73
  12  -1  -2    0.58    0.56
 -12   1   2    1.87    1.06
 -12   1   2    0.52    0.82
 -12   1   2    1.04    0.78
  12  -1  -2    2.42    1.96
  12  -1  -2    0.89    1.86
 -12   1   2    1.94    1.33
 -12   1   2    1.23    0.86
  12  -1  -1    7.76    1.82
 -12   1   1    8.03    1.66
 -12   1   1    7.80    1.58
 -12   1   1    8.21    1.57
 -12   1   1    8.24    1.46
  12  -1  -1    8.10    2.90
 -12   1   1    8.87    1.65
  12  -1  -1   10.14    2.13
 -12   1   1    0.97    2.67
 -12   1   1    6.14    3.63
  12  -1  -1    4.30    1.82
  12  -1  -1    7.63    2.72
  12  -1  -1    9.31    3.15
  12  -1  -1    8.13    1.89
 -12   1   1    7.78    1.76
 -12   1   1    7.02    1.84
  12  -1  -1    5.90    1.88
  12  -1  -1    8.03    2.28
  12  -1  -1    7.13    1.88
 -12   1   1   10.28    1.80
  12  -1  -1    9.46    2.68
  12  -1  -1   10.49    2.58
 -12   1   1    8.79    1.83
 -12   1   1    7.55    1.86
 -12   1   0   27.00    2.96
 -12   1   0   29.75    2.39
 -12   1   0   32.29    2.95
  12  -1   0   32.39    4.13
 -12   1   0   21.58    5.25
  12  -1   0   35.09    4.09
  12  -1   0   33.06    5.73
  12  -1   0   32.72    5.65
  12  -1   0   21.33    4.86
 -12   1   0   28.14    3.17
  12  -1   0   30.56    4.49
 -12   1   0   22.00    3.50
  12  -1   0   23.79    4.10
  12  -1   0   36.18    4.51
  12  -1   0   26.17    3.84
  12  -1   0   23.07    3.76
 -12   1   0   24.35    3.62
  12  -1   0   37.34    5.09
 -12   1   0   30.88    2.93
 -12   1   0   29.06    3.16
 -12   1   0   33.86    3.27
  12  -1   1   39.76    5.29
 -12   1  -1   33.29    3.51
 -12   1  -1   42.89    3.33
  12  -1   1   40.36    5.61
 -12   1  -1   37.71    6.46
  12  -1   1   40.87    5.15
 -12   1  -1    8.26    9.92
  12  -1   1   49.73    8.34
  12  -1   1   70.20   11.90
  12  -1   1   55.15   13.61
  12  -1   1   52.86    8.58
  12  -1   1   33.39    6.90
 -12   1  -1   39.97    3.97
  12  -1   1   32.32    5.37
  12  -1   1   44.22    6.41
  12  -1   1   28.37    4.94
  12  -1   1   40.64    5.75
  12  -1   1   32.64    5.01
 -12   1  -1   32.74    4.90
  12  -1   1   33.98    5.27
  12  -1   1   47.82    6.82
 -12   1  -1   39.35    3.30
 -12   1  -1   27.99    5.89
 -12   1  -1   36.09    3.79
 -12   1  -1   32.69    5.71
 -12   1  -1   37.09    3.62
  12  -1   2   33.15    5.59
 -12   1  -2   28.88    6.71
 -12   1  -2   26.71    5.58
  12  -1   2   35.73    5.52
  12  -1   2   11.90   11.10
  12  -1   2   33.48    8.54
 -12   1  -2   35.09    3.90
  12  -1   2   38.47    6.99
  12  -1   2   29.31    5.64
  12  -1   2   24.25    5.37
  12  -1   2   37.53    6.45
  12  -1   2   29.47    5.44
  12  -1   2   33.67    6.03
 -12   1  -2   36.01    3.99
 -12   1  -2   26.46    5.87
 -12   1  -2   38.25    3.74
  12  -1   3    0.98    1.31
  12  -1   3   -0.75    7.67
  12  -1   3    3.95    4.37
 -12   1  -3    1.20    1.59
 -12   1  -3   -0.08    1.07
 -12   1  -4    1.41    1.06
 -12   1  -4    0.77    1.11
  12  -1   4    0.99    4.87
  12  -1   4    1.07    1.01
 -12   1  -4    0.49    0.63
 -12   1  -4    0.72    0.64
  12   0  -4    0.49    1.18
  12   0  -4    1.10    1.48
 -12   0   3   50.84    8.44
 -12   0   3   39.08    3.80
  12   0  -3   36.56    6.43
  12   0  -3   36.95    5.82
 -12   0   3   38.61    3.84
 -12   0   2    1.38    0.96
 -12   0   2    0.52    0.60
  12   0  -2   -2.93    1.86
 -12   0   2    3.22    1.19
 -12   0   2    1.36    0.76
 -12   0   2    3.70    2.64
  12   0  -2   -0.01    1.60
  12   0  -2    1.46    0.85
  12   0  -2    1.27    0.94
  12   0  -2    1.34    0.85
 -12   0   2    1.40    0.86
  12   0  -2    1.45    1.14
 -12   0   2    1.65    0.96
  12   0  -2    1.96    1.85
  12   0  -2    1.51    1.39
 -12   0   2    2.74    1.29
 -12   0   2    1.27    0.66
  12   0  -1  404.22   12.06
 -12   0   1  401.64   10.95
 -12   0   1  376.86   10.51
 -12   0   1  397.31    9.68
 -12   0   1  434.21   11.01
  12   0  -1  434.58   13.38
 -12   0   1  520.71   26.68
  12   0  -1  385.34   17.25
  12   0  -1  356.20   14.85
 -12   0   1  378.90   12.55
 -12   0   1  360.66   12.33
  12   0  -1  342.01   13.42
  12   0  -1  356.70   12.44
  12   0  -1  364.74   12.94
  12   0  -1  383.56   13.95
 -12   0   1  432.46   10.98
 -12   0   1  450.70   11.85
  12   0  -1  361.49   15.34
 -12   0   0    8.23    1.33
 -12   0   0    8.82    1.77
  12   0   0   10.25    2.40
  12   0   0    9.53    3.10
  12   0   0    8.05    2.21
  12   0   0    7.28    2.12
  12   0   0    6.67    2.23
  12   0   0    7.22    2.20
 -12   0   0   10.30    1.76
 -12   0   0    9.49    1.89
 -12   0   0    7.55    2.15
  12   0   1    7.61    2.28
 -12   0  -1    3.76    1.14
  12   0   1    4.20    1.84
 -12   0  -1    1.50    6.22
  12   0   1    6.45    3.57
  12   0   1    5.38    3.46
  12   0   1    4.59    1.87
  12   0   1    2.76    2.25
  12   0   1    2.89    1.67
 -12   0  -1    4.80    1.58
  12   0   1    3.38    2.14
  12   0   1    2.42    1.87
  12   0   1    1.64    1.62
  12   0   1    2.33    1.86
  12   0   1    4.08    2.16
  12   0   1    2.63    1.93
 -12   0  -1   -2.67    1.99
  12   0   1    5.85    2.25
 -12   0  -1    3.82    1.14
 -12   0  -1    2.05    1.16
 -12   0  -1    2.51    1.81
 -12   0  -1    3.32    1.15
  12   0   2   63.85    7.05
  12   0   2   54.31    7.43
  12   0   2   48.32    6.17
  12   0   2   66.50   11.05
  12   0   2   53.85   10.37
 -12   0  -2   61.56    5.27
  12   0   2   58.62    8.53
  12   0   2   57.62    8.02
 -12   0  -2   56.86    6.12
  12   0   2   59.50    7.90
  12   0   2   59.45    7.91
  12   0   2   51.35    7.31
  12   0   2   64.73    8.56
  12   0   2   62.44    7.22
 -12   0  -2   48.00    4.88
 -12   0  -2   67.19    5.28
 -12   0  -2   51.65    7.78
 -12   0  -2   58.75    4.67
  12   0   3   11.06    2.91
  12   0   3    3.97    2.53
 -12   0  -3    6.14    3.60
  12   0   3    4.31    4.64
 -12   0  -3   10.13    2.68
  12   0   3   10.47    3.62
  12   0   3    8.42    2.85
 -12   0  -3    9.71    2.28
 -12   0  -4    5.23    1.72
 -12   0  -4    7.54    2.38
  12   0   4   11.10    6.41
  12   0   4   10.06    2.77
  12   0   4    7.20    3.02
 -12   0  -4   10.59    1.87
 -12   0  -4    9.82    1.77
 -12  -1   4  138.91   11.01
 -12  -1   4  155.12    6.50
  12   1  -4  144.19    9.23
  12   1  -3   26.73    4.94
 -12  -1   3   22.04    2.94
  12   1  -2   52.84    7.12
  12   1  -2   64.32    6.60
 -12  -1   2   59.61    4.70
 -12  -1   2   59.54    4.23
 -12  -1   2   54.49    4.11
  12   1  -2   66.34    5.68
 -12  -1   2   52.83    3.98
  12   1  -2   53.19    6.08
 -12  -1   2   60.03    4.82
  12   1  -2   49.02    6.47
 -12  -1   1    0.17    0.74
 -12  -1   1    0.19    0.68
 -12  -1   1    0.36    0.53
 -12  -1   1    0.93    2.59
  12   1  -1    0.39    1.17
  12   1  -1    0.85    1.16
  12   1  -1   -0.03    0.68
  12   1  -1   -0.36    0.91
 -12  -1   1    1.13    0.97
  12   1  -1   -0.12    1.07
  12   1  -1   -0.31    0.82
  12   1  -1    1.45    1.22
 -12  -1   1    0.32    0.74
 -12  -1   1    0.70    0.74
 -12  -1   1   -0.19    0.71
 -12  -1   0    9.95    1.59
 -12  -1   0    8.86    1.62
  12   1   0   11.73    2.44
 -12  -1   0    7.24    6.36
  12   1   0   14.07    4.36
  12   1   0   11.45    3.50
 -12  -1   0    8.92    1.85
  12   1   0    9.45    2.53
  12   1   0    9.98    2.78
  12   1   0    6.96    1.95
  12   1   0    6.99    2.31
  12   1   0    8.15    2.49
 -12  -1   0    9.82    1.67
 -12  -1   0   10.76    1.92
 -12  -1   0    8.33    2.33
  12   1   1   26.33    4.38
  12   1   1   29.15    4.40
 -12  -1  -1   23.49    2.65
  12   1   1   24.34    4.40
  12   1   1   23.29    3.50
  12   1   1   36.34    6.95
  12   1   1   27.68    6.95
  12   1   1   22.07    5.96
  12   1   1   20.69    4.70
 -12  -1  -1   27.75    3.46
  12   1   1   29.09    5.22
  12   1   1   20.54    4.63
 -12  -1  -1   19.68    3.34
  12   1   1   24.44    4.33
 -12  -1  -1   25.15    4.70
  12   1   1   20.63    4.40
  12   1   1   20.45    4.51
  12   1   1   23.45    4.37
 -12  -1  -1   26.05    2.75
  12   1   1   24.83    4.36
 -12  -1  -1   19.07    2.80
 -12  -1  -1   26.52    3.22
 -12  -1  -1   24.63    2.97
  12   1   2    5.93    2.10
  12   1   2    7.10    3.07
  12   1   2    6.66    2.99
  12   1   2    3.00    6.99
  12   1   2    6.25    2.54
  12   1   2   14.98    5.71
  12   1   2    7.22    3.21
 -12  -1  -2    7.10    2.08
  12   1   2    6.53    3.15
  12   1   2    9.15    3.54
  12   1   2    8.93    3.49
 -12  -1  -2    6.85    2.43
  12   1   2    4.84    2.47
  12   1   2    9.22    3.52
  12   1   2    5.82    2.23
 -12  -1  -2    8.32    2.14
 -12  -1  -2    7.72    1.84
 -12  -1  -2    6.55    1.81
 -12  -1  -2    8.01    3.48
 -12  -1  -3   98.92    8.08
  12   1   3  139.76   11.81
 -12  -1  -3   98.63   10.65
  12   1   3  145.58   10.91
  12   1   3  127.95   14.73
 -12  -1  -3  130.20    8.87
  12   1   3  140.87   12.10
  12   1   3  146.40   11.36
 -12  -1  -3  130.97    7.69
 -12  -1  -3  144.21    6.60
 -12  -1  -4   15.92    2.51
 -12  -1  -4   22.91    3.71
  12   1   4   32.79    3.81
  12   1   4    1.56    4.10
  12   1   4   12.11    3.67
  12   1   4   32.98    5.64
 -12  -1  -4   27.26    2.99
  12   1   4   30.52    3.83
 -12  -1  -4   24.10    2.60
 -12  -2   4  478.01   19.25
 -12  -2   4  629.85   11.73
  12   2  -4  571.55   13.92
  12   2  -4  445.45   13.73
 -12  -2   3    1.68    2.78
 -12  -2   3    0.96    1.04
 -12  -2   3    1.17    0.84
  12   2  -3    0.40    0.97
 -12  -2   2   12.28    2.11
  12   2  -2   12.48    2.62
 -12  -2   2   13.31    5.22
  12   2  -2   15.06    3.45
  12   2  -2    8.15    2.83
 -12  -2   2   12.22    2.07
 -12  -2   2   13.86    2.41
 -12  -2   2   11.96    2.01
  12   2  -1  152.63    8.38
 -12  -2   1  147.73    6.66
 -12  -2   1  147.14    6.91
 -12  -2   1  114.09   14.54
  12   2  -1  139.11   11.13
  12   2  -1  164.80   11.92
  12   2  -1  113.95    8.17
  12   2  -1  114.92    8.51
  12   2  -1  139.86    8.09
 -12  -2   1  159.10    7.13
 -12  -2   1  144.72    7.07
 -12  -2   0  188.34    7.44
 -12  -2   0  223.19    8.29
  12   2   0  203.84   10.00
  12   2   0  207.02    8.76
 -12  -2   0  185.56   20.09
  12   2   0  201.30   13.86
  12   2   0  246.33   15.12
 -12  -2   0  210.43    9.03
  12   2   0  158.13   11.30
  12   2   0  199.42   11.10
  12   2   0  163.49   11.29
  12   2   0  199.66   10.18
  12   2   0  169.65   10.99
 -12  -2   0  179.13   10.68
  12   2   0  171.84   11.22
 -12  -2   0  218.81    8.24
 -12  -2   0  230.80    8.56
 -12  -2  -1  121.72    6.23
  12   2   1  113.11    8.59
  12   2   1  120.37    9.97
 -12  -2  -1  105.80    6.05
  12   2   1  120.41   12.47
  12   2   1  133.12   13.06
  12   2   1  107.61   12.61
 -12  -2  -1  111.05    7.02
  12   2   1  117.14   10.22
  12   2   1  100.70    9.75
 -12  -2  -1  109.57    7.49
  12   2   1  119.78    9.41
  12   2   1  106.73    9.83
  12   2   1  105.11    9.81
  12   2   1   96.96    9.92
 -12  -2  -1  121.67    6.07
 -12  -2  -1  101.06    5.99
 -12  -2  -1  116.96    6.66
 -12  -2  -1  134.29    6.95
  12   2   2  735.47   26.25
  12   2   2  598.26   22.74
  12   2   2  703.69   27.22
 -12  -2  -2  592.81   23.29
  12   2   2  679.41   34.37
 -12  -2  -2  740.29   18.51
  12   2   2  677.36   27.49
  12   2   2  594.77   25.78
 -12  -2  -2  623.34   19.27
  12   2   2  668.26   25.14
  12   2   2  624.97   26.13
  12   2   2  621.39   25.91
  12   2   2  607.69   26.65
  12   2   2  709.31   25.63
  12   2   2  716.89   25.37
 -12  -2  -2  680.88   16.52
 -12  -2  -2  627.74   16.46
  12   2   2  625.52   26.43
 -12  -2  -2  746.67   16.74
  12   2   3    5.38    2.59
  12   2   3    5.68    3.01
 -12  -2  -3    3.49    2.65
  12   2   3    0.26    6.52
  12   2   3    2.54    3.36
 -12  -2  -3    4.39    1.83
  12   2   3    4.48    2.71
  12   2   3    4.96    2.77
 -12  -2  -3    5.71    1.73
 -12  -2  -3    7.30    1.70
  12   2   4    1.00    1.30
 -12  -2  -4    0.01    1.09
  12   2   4    2.44    3.60
  12   2   4   -0.17    1.06
  12   2   4    1.70    2.37
 -12  -2  -4    1.03    0.87
  12   2   4    0.43    1.15
 -12  -2  -4    1.11    0.88
 -12  -3   4    1.24    2.25
 -12  -3   4    6.60    1.14
 -12  -3   3   10.19    4.08
 -12  -3   3   15.20    2.16
 -12  -3   3   20.48    2.62
  12   3  -3   15.86    2.57
 -12  -3   2   53.51    9.73
 -12  -3   2   43.15    3.62
 -12  -3   2   40.03    4.07
 -12  -3   2   42.43    4.28
  12   3  -1 1129.74   23.35
 -12  -3   1 1008.94   18.81
 -12  -3   1  942.09   41.59
  12   3  -1  968.26   29.57
  12   3  -1 1033.79   22.93
 -12  -3   1 1126.20   19.63
 -12  -3   0    0.94    0.64
 -12  -3   0   -0.97    5.69
  12   3   0    3.72    2.28
  12   3   0    1.57    1.10
  12   3   0    0.53    1.02
 -12  -3   0    1.72    1.03
  12   3   0   -0.80    1.95
  12   3   0    2.53    1.93
  12   3   0    2.09    2.04
  12   3   0   -0.58    1.34
  12   3   0    0.79    1.08
 -12  -3   0    0.54    0.76
 -12  -3   0    0.13    0.78
  12   3   1  770.66   22.43
  12   3   1  794.84   26.33
 -12  -3  -1  681.49   16.72
  12   3   1  740.82   32.92
  12   3   1  849.68   33.68
  12   3   1  582.97   28.28
 -12  -3  -1  770.80   18.80
  12   3   1  789.79   26.53
  12   3   1  714.90   26.49
 -12  -3  -1  805.95   19.46
  12   3   1  762.62   23.54
  12   3   1  691.98   25.90
  12   3   1  673.43   25.46
  12   3   1  663.84   26.11
 -12  -3  -1  759.26   16.79
 -12  -3  -1  785.12   15.96
  12   3   2   61.07    7.90
  12   3   2   61.12    8.37
 -12  -3  -2   53.60    6.77
  12   3   2   59.57   10.57
  12   3   2   63.89    8.38
 -12  -3  -2   64.91    6.03
  12   3   2   64.97    7.65
  12   3   2   59.94    7.75
 -12  -3  -2   73.92    5.46
 -12  -3  -2   68.80    5.15
  12   3   3   46.17    6.92
 -12  -3  -3   25.97    4.85
  12   3   3   43.47    6.32
  12   3   3   50.22    9.15
 -12  -3  -3   53.82    5.21
  12   3   3   39.22    6.18
  12   3   3   40.25    5.80
 -12  -3  -3   42.46    4.09
 -12  -3  -4   79.07    5.68
  12   3   4   73.48    5.78
  12   3   4   84.40    8.20
 -12  -3  -4   81.16    4.59
  12   3   4   72.36    5.85
 -12  -3  -4   77.13    4.04
 -12  -4   3    2.73    3.03
 -12  -4   3    0.17    0.51
 -12  -4   3    0.26    0.83
 -12  -4   2   44.94    3.54
 -12  -4   2   37.89    3.92
 -12  -4   2   47.44    4.55
 -12  -4   1    2.30    1.37
 -12  -4   1    1.68    1.34
  12   4   0   69.72    5.85
  12   4   0   67.52    6.12
 -12  -4   0   68.89    5.61
 -12  -4   0   88.99    6.11
  12   4   0   72.80    6.43
 -12  -4   0   73.11    5.11
  12   4   1    0.03    2.00
 -12  -4  -1    1.98    1.14
 -12  -4  -1    2.68    1.21
 -12  -4  -1    5.34    7.09
  12   4   1    1.19    1.05
 -12  -4  -1   -2.01    1.07
  12   4   1    1.74    1.76
 -12  -4  -1    1.61    1.05
  12   4   2   35.46    5.89
  12   4   2   33.04    6.03
  12   4   2   32.90    7.44
 -12  -4  -2   38.14    4.40
  12   4   2   39.29    6.32
 -12  -4  -2   34.89    3.54
 -12  -4  -2   37.67    3.83
  12   4   3   27.40    5.03
 -12  -4  -3   25.22    3.99
  12   4   3   23.77    4.91
 -12  -4  -3   21.87    3.53
  12   4   3   25.77    5.93
 -12  -4  -3   32.51    3.80
  12   4   3   22.84    4.40
  12   4   3   31.93    5.22
 -12  -4  -3   29.57    3.15
 -12  -4  -4  111.23    5.42
  12   4   4   98.42    6.10
  12   4   4  141.95    8.97
 -12  -4  -4  131.29    5.13
  12   4   4   91.77    5.79
 -12  -4  -4  106.82    4.17
 -12  -5   3    4.84    0.96
 -12  -5   2   10.22    1.64
 -12  -5   2   10.56    1.98
 -12  -5   1   17.70    2.76
 -12  -5   1   20.53    3.03
 -12  -5   0    2.09    1.27
 -12  -5   0    2.39    1.32
  12   5   0    1.29    1.26
  12   5   1   22.49    4.56
 -12  -5  -1   27.25    3.19
 -12  -5  -1   34.06    3.56
  12   5   1   27.64    4.92
  12   5   2   13.94    4.07
  12   5   2    9.95    3.35
 -12  -5  -2   12.78    2.46
  12   5   2   11.49    3.54
  12   5   2    6.43    3.39
 -12  -5  -2   10.96    1.93
  12   5   3   -0.09    1.96
  12   5   3    2.89    1.47
  12   5   3    1.55    1.42
 -12  -5  -3    4.90    1.48
 -12  -5  -3    2.04    1.29
  12   5   3    0.22    2.63
 -12  -5  -3    1.77    1.09
  12   5   3    2.34    1.72
  12   5   3    0.80    1.27
 -12  -5  -3    2.30    0.96
  12   5   4   99.28    4.74
 -12  -5  -4  100.49    3.25
 -12  -6   2   -0.37    0.64
 -12  -6   1    9.42    1.88
 -12  -6   1   11.10    2.19
 -12  -6   0    7.68    2.04
 -12  -6   0   10.99    2.26
  12   6   0    7.64    2.11
 -12  -6  -1  123.93    6.18
  12   6   1  122.83   10.10
  12   6   1  106.01    8.73
 -12  -6  -2   16.27    3.08
 -12  -6  -2   21.21    2.72
  12   6   2   17.77    3.88
  12   6   2   29.96    5.30
  12   6   2   14.83    3.20
  12   6   2   19.30    4.41
 -12  -6  -2   22.02    2.35
 -12  -6  -3   -0.31    0.72
  12   6   3    0.47    1.23
  12   6   3   -0.52    1.04
  12   6   3   -0.16    1.00
  12   6   3    0.89    1.25
 -12  -6  -3   -0.71    0.51
 -12  -7   2  147.76    3.97
 -12  -7   1   51.42    3.45
 -12  -7   1   53.98    3.63
 -12  -7   0   -0.08    0.66
 -12  -7   0    0.36    0.81
 -12  -7  -1   22.98    2.89
 -12  -7  -1   31.26    3.15
 -12  -7  -1   27.83    2.41
  12   7   1   28.88    4.25
 -12  -7  -2    4.94    1.40
 -12  -7  -2    5.43    1.16
  12   7   2    3.95    1.52
  12   7   2    7.54    2.61
  12   7   2    6.87    2.58
 -12  -7  -3    0.06    0.34
  12   7   3    0.18    0.58
 -12  -8   1   -0.08    0.30
 -12  -8   0    0.56    0.55
 -12  -8   0    1.21    0.56
  12   8   0    0.36    0.68
 -12  -8  -1   12.87    1.56
  12   8   1   13.46    3.05
  12   8   1    8.75    2.11
 -13   8   1   59.44    2.71
 -13   8   1   52.05    2.95
 -13   8   1   59.85    2.82
 -13   8   0    8.58    1.01
 -13   8   0    6.27    0.99
  13  -7  -3  113.57    6.89
 -13   7   3  120.12    3.91
 -13   7   3  125.35    4.22
  13  -7  -2  287.59   13.42
 -13   7   2  322.71    7.67
 -13   7   2  304.32    7.71
 -13   7   2  294.54    6.96
  13  -7  -2  330.41   14.76
 -13   7   2  327.71    8.72
  13  -7  -1   24.42    4.36
 -13   7   1   29.47    2.62
 -13   7   1   29.03    2.65
 -13   7   1   30.00    2.63
 -13   7   0    0.66    0.69
  13  -7   0   -0.99    1.80
  13  -7   0    2.28    5.99
 -13   7   0    0.04    0.56
 -13   7   0    0.18    0.64
  13  -7   1   -3.47    5.50
 -13   7  -1    0.17    0.45
  13  -6  -3  149.77    9.78
 -13   6   3  157.94    5.89
 -13   6   3  139.55    4.65
  13  -6  -3  154.77   11.52
 -13   6   3  148.95    5.39
  13  -6  -3  160.16    9.92
 -13   6   3  149.57    5.91
  13  -6  -2    4.23    1.23
  13  -6  -2    6.27    2.98
 -13   6   2    7.43    1.56
 -13   6   2    7.71    1.56
  13  -6  -2    8.81    3.85
 -13   6   2    7.51    1.44
 -13   6   2    4.91    1.14
  13  -6  -2    8.30    3.19
 -13   6   2    7.78    1.86
  13  -6  -1    0.45    2.64
 -13   6   1    1.23    0.92
 -13   6   1    0.40    0.87
  13  -6  -1    1.86    2.27
 -13   6   1    0.32    0.61
 -13   6   0   66.66    4.18
  13  -6   0   62.36    8.35
 -13   6   0   74.20    5.15
 -13   6   0   68.82    4.50
  13  -6   1    7.41    8.98
 -13   6  -1    0.43    0.54
 -13   6  -1    1.35    0.77
 -13   6  -1    1.50    0.92
  13  -6   2   -0.36    4.96
  13  -5  -4    8.65    2.17
 -13   5   4   10.62    1.28
  13  -5  -4    9.66    2.44
 -13   5   4    9.50    1.19
  13  -5  -4   10.74    2.15
 -13   5   4    5.91    0.87
 -13   5   3    8.38    1.67
 -13   5   3    8.20    1.37
  13  -5  -3   11.83    3.93
 -13   5   3    9.09    1.68
  13  -5  -3    6.53    1.53
  13  -5  -3    7.32    2.32
 -13   5   3    9.04    1.71
  13  -5  -3   10.24    3.08
  13  -5  -3    4.94    3.02
 -13   5   3   11.56    2.07
 -13   5   2    1.57    1.14
 -13   5   2    0.72    0.91
  13  -5  -2    2.64    3.27
 -13   5   2    1.55    0.85
  13  -5  -2    1.57    1.13
  13  -5  -2   -2.72    1.67
  13  -5  -2   -4.18    1.95
 -13   5   2    0.07    0.70
  13  -5  -2   -0.29    1.94
  13  -5  -2   -0.74    3.63
 -13   5   2    1.73    1.45
 -13   5   1    1.16    0.90
 -13   5   1    3.41    1.36
  13  -5  -1    1.68    3.04
  13  -5  -1    2.06    1.18
  13  -5  -1   -0.74    3.06
  13  -5  -1    2.05    1.94
 -13   5   1    1.98    1.25
  13  -5  -1    3.73    3.29
 -13   5   1    2.38    1.31
 -13   5   0  355.76   10.37
  13  -5   0  293.76   13.92
  13  -5   0  311.09   19.53
 -13   5   0  385.98   12.45
  13  -5   0  355.23   18.72
 -13   5   0  382.63   11.11
  13  -5   0  356.11   21.79
  13  -5   1   26.67   15.64
  13  -5   1   16.87    5.12
 -13   5  -1   47.03    4.05
 -13   5  -1   52.86    3.75
 -13   5  -1   61.61    4.66
  13  -5   2   11.87    8.02
 -13   5  -2   10.39    1.60
 -13   5  -3    5.06    1.01
 -13   4   4   27.99    2.27
  13  -4  -4   24.74    4.18
 -13   4   4   27.95    2.27
  13  -4  -4   25.42    3.52
  13  -4  -4   15.05    2.68
 -13   4   4   31.50    2.76
  13  -4  -4   25.76    3.83
  13  -4  -4   20.11    4.11
 -13   4   4   24.38    2.02
 -13   4   3    2.46    1.06
 -13   4   3    3.45    1.05
  13  -4  -3    1.90    2.75
 -13   4   3    3.70    1.36
  13  -4  -3    1.14    1.90
  13  -4  -3    4.29    1.43
  13  -4  -3    3.57    1.93
 -13   4   3    3.33    1.33
  13  -4  -3    5.51    2.02
  13  -4  -3    3.52    2.19
  13  -4  -3    1.78    2.43
 -13   4   3    2.59    1.28
 -13   4   2  137.90    7.19
 -13   4   2  132.09    6.57
  13  -4  -2  152.50   13.83
 -13   4   2  136.68    6.77
  13  -4  -2  131.19    8.01
  13  -4  -2  122.72    7.07
  13  -4  -2  141.41    9.97
  13  -4  -2  133.96    9.82
 -13   4   2  117.61    5.96
  13  -4  -2  148.86   12.10
  13  -4  -2  126.83   13.89
 -13   4   2  146.89    7.75
  13  -4  -1    0.31    0.83
 -13   4   1    0.55    0.90
 -13   4   1    0.67    0.79
  13  -4  -1    0.29    2.77
 -13   4   1    0.45    0.68
  13  -4  -1    0.62    0.89
  13  -4  -1    1.80    2.02
  13  -4  -1    4.53    3.58
  13  -4  -1   -0.33    1.53
 -13   4   1    0.69    1.00
  13  -4  -1   -0.74    2.18
 -13   4   1    0.04    0.84
 -13   4   0  455.70   11.96
  13  -4   0  492.37   18.67
  13  -4   0  580.51   25.26
  13  -4   0  441.15   23.58
 -13   4   0  507.26   14.55
  13  -4   0  528.06   23.20
 -13   4   0  477.23   12.61
  13  -4   0  555.60   26.30
  13  -4   1    3.21    2.08
  13  -4   1   -2.76    8.24
  13  -4   1    2.32    2.88
 -13   4  -1    6.12    1.77
  13  -4   1    2.53    2.76
 -13   4  -1    6.03    1.56
 -13   4  -1    6.91    1.74
  13  -4   2    8.78   10.73
  13  -4   2    2.59    1.69
  13  -4   2    2.93    3.35
 -13   4  -2    5.84    1.41
  13  -4   3    3.90    5.56
  13  -4   3    3.70    1.32
 -13   4  -3    0.50    0.89
 -13   4  -3    0.97    0.88
 -13   3   4    2.10    0.82
  13  -3  -4    1.87    1.87
  13  -3  -4   -1.26    1.75
 -13   3   4    1.75    1.74
  13  -3  -4    2.56    1.35
  13  -3  -4    2.13    1.08
  13  -3  -4    3.09    1.77
 -13   3   4    2.48    0.80
 -13   3   3  138.32    6.98
 -13   3   3  100.50    4.90
  13  -3  -3  119.50   11.16
 -13   3   3  130.30    6.54
  13  -3  -3  114.57    6.75
 -13   3   3  149.10   12.69
  13  -3  -3  111.50    8.72
  13  -3  -3   87.82    9.51
 -13   3   3  130.23    7.47
  13  -3  -3  113.70    8.28
  13  -3  -3  131.99   10.72
  13  -3  -3   91.16   10.23
 -13   3   3  117.45    6.62
  13  -3  -2    2.51    1.39
 -13   3   2    7.32    1.86
 -13   3   2    5.52    1.58
  13  -3  -2    5.37    3.86
 -13   3   2    8.07    1.89
  13  -3  -2    3.32    2.47
  13  -3  -2    5.08    1.71
  13  -3  -2    1.92    1.58
 -13   3   2    4.18    1.50
 -13   3   2    7.16    1.85
  13  -3  -2    7.18    2.65
 -13   3   2    4.63    1.45
  13  -3  -2    8.20    3.24
 -13   3   2    5.66    1.80
 -13   3   1   13.18    2.20
 -13   3   1   10.13    1.98
 -13   3   1   11.80    2.10
  13  -3  -1   17.51    4.95
 -13   3   1   14.70    2.17
 -13   3   1   15.13    5.85
 -13   3   1    8.49    1.52
  13  -3  -1   13.08    2.93
  13  -3  -1    7.83    2.82
  13  -3  -1   13.63    4.35
 -13   3   1   10.80    2.42
  13  -3  -1   12.87    3.01
 -13   3   1   11.78    2.47
  13  -3  -1   12.88    2.97
  13  -3  -1   12.02    2.58
  13  -3  -1   11.27    2.55
  13  -3  -1   12.24    3.48
 -13   3   1   12.81    2.18
  13  -3  -1   12.70    3.67
 -13   3   1   15.50    2.53
 -13   3   0   10.58    2.08
 -13   3   0   10.18    1.95
  13  -3   0    9.68    4.57
 -13   3   0    4.70    3.36
  13  -3   0   13.21    3.15
  13  -3   0    6.37    2.97
  13  -3   0    8.11    3.82
  13  -3   0    8.21    2.40
 -13   3   0    8.62    1.99
  13  -3   0   15.53    3.61
  13  -3   0    8.68    2.81
  13  -3   0    8.30    3.28
  13  -3   0    7.17    2.35
 -13   3   0    9.48    1.94
 -13   3   0    3.71    2.19
  13  -3   0   14.04    4.53
 -13   3   0    6.48    2.12
 -13   3   0    9.55    2.01
  13  -3   1   11.84    3.24
 -13   3  -1   16.23    2.17
  13  -3   1   14.50   11.01
  13  -3   1    7.71    3.16
  13  -3   1   12.25    5.22
 -13   3  -1    8.52    2.21
  13  -3   1   13.46    3.83
  13  -3   1   15.12    3.77
  13  -3   1   10.74    3.95
 -13   3  -1   14.48    2.19
 -13   3  -1   14.34    2.49
  13  -3   2    2.72    3.78
  13  -3   2    2.44    2.11
 -13   3  -2    5.07    1.50
  13  -3   3   -0.62    6.15
  13  -3   3    1.90    1.35
 -13   3  -3   -0.49    1.04
 -13   3  -3   -0.19    0.80
  13  -2  -4   -0.33    0.57
 -13   2   4   -0.63    0.54
  13  -2  -4   -1.43    1.78
 -13   2   4    1.00    1.85
  13  -2  -4    0.07    1.00
  13  -2  -4    0.07    0.80
  13  -2  -4    0.51    1.28
 -13   2   4   -0.18    0.52
 -13   2   3   -0.31    0.88
  13  -2  -3   -0.98    1.64
 -13   2   3   -0.12    0.78
  13  -2  -3    1.03    1.28
 -13   2   3   -1.16    2.36
 -13   2   3    1.07    1.06
  13  -2  -3    0.49    1.50
  13  -2  -3   -0.54    1.37
 -13   2   3   -0.24    0.90
  13  -2  -2    2.26    1.33
 -13   2   2    2.96    1.32
 -13   2   2    0.66    0.92
  13  -2  -2    1.97    2.17
 -13   2   2    0.44    0.64
 -13   2   2    3.85    1.43
 -13   2   2    3.44    1.20
  13  -2  -2    1.20    2.38
 -13   2   2    5.98    3.84
  13  -2  -2    1.00    1.54
  13  -2  -2    2.35    2.24
  13  -2  -2    1.56    0.99
  13  -2  -2    1.13    0.81
 -13   2   2    2.12    1.06
  13  -2  -2    0.92    1.18
 -13   2   2    1.34    1.12
 -13   2   2    1.13    0.96
  13  -2  -2    0.62    2.19
  13  -2  -2    2.60    2.20
 -13   2   2    2.82    1.44
 -13   2   2    0.91    0.78
 -13   2   1   23.62    2.77
 -13   2   1   17.70    2.48
 -13   2   1   19.01    2.55
 -13   2   1   16.10    2.09
  13  -2  -1   20.64    5.19
 -13   2   1   19.53    2.46
 -13   2   1   27.45    7.35
  13  -2  -1   17.35    3.08
  13  -2  -1   21.13    4.56
  13  -2  -1   19.34    4.71
  13  -2  -1   20.88    5.19
 -13   2   1   18.94    2.86
 -13   2   1   14.57    2.73
  13  -2  -1   15.49    3.12
 -13   2   1   14.24    2.75
  13  -2  -1   15.46    3.31
  13  -2  -1   18.01    3.19
  13  -2  -1   18.35    3.10
  13  -2  -1   16.02    3.02
  13  -2  -1   19.89    3.85
 -13   2   1   16.68    2.42
  13  -2  -1   12.29    4.30
  13  -2  -1   18.48    4.10
 -13   2   1   18.84    2.68
 -13   2   1   17.06    2.43
  13  -2   0    6.68    2.30
 -13   2   0    5.29    1.46
  13  -2   0    7.09    3.65
 -13   2   0    4.45    1.41
 -13   2   0    7.66    3.85
  13  -2   0    3.71    4.80
  13  -2   0    4.81    3.06
  13  -2   0   11.73    3.97
  13  -2   0    4.66    1.66
  13  -2   0    7.03    3.99
  13  -2   0    4.29    1.94
 -13   2   0    5.31    1.61
  13  -2   0    8.54    2.75
  13  -2   0    3.93    1.77
  13  -2   0    2.37    1.47
  13  -2   0    4.65    2.18
  13  -2   0    4.40    1.94
 -13   2   0    6.63    1.63
  13  -2   0    5.19    2.56
 -13   2   0    5.36    1.47
 -13   2   0    4.29    1.79
 -13   2   0    4.83    1.45
 -13   2  -1   75.50    5.56
 -13   2  -1   91.03    5.02
 -13   2  -1   74.60    9.60
  13  -2   1  105.34    8.91
  13  -2   1   53.59   11.58
  13  -2   1  107.76   12.36
  13  -2   1   75.20   10.76
  13  -2   1   76.24    8.64
 -13   2  -1   86.74    6.09
  13  -2   1   91.93    9.68
  13  -2   1   66.39    7.93
  13  -2   1   95.05    9.15
  13  -2   1   72.15    7.74
 -13   2  -1   73.97    7.89
  13  -2   1   74.57    8.00
  13  -2   1   88.76   10.01
 -13   2  -1   89.93    5.16
 -13   2  -1   87.64   11.17
 -13   2  -1   79.64    5.92
 -13   2  -1   60.74    8.28
 -13   2  -1   80.14    5.55
  13  -2   2   93.43    8.72
  13  -2   2  125.78   23.59
  13  -2   2   84.88   12.28
 -13   2  -2  101.89    6.37
  13  -2   2   85.12    9.89
  13  -2   2   94.30    9.71
 -13   2  -2   91.10    5.70
  13  -2   3    2.32    7.91
  13  -2   3    8.22    3.64
 -13   2  -3    6.60    2.19
 -13   2  -3    5.75    1.93
  13  -2   4   15.68    2.16
 -13   2  -4    7.75    1.15
  13  -1  -4    9.01    1.68
  13  -1  -4    5.06    2.03
 -13   1   4    7.56    3.28
  13  -1  -4    9.82    2.62
  13  -1  -4    9.93    2.28
  13  -1  -4    7.23    2.29
 -13   1   3    1.49    1.14
  13  -1  -3    0.11    1.63
 -13   1   3    1.45    0.98
  13  -1  -3    1.47    1.51
 -13   1   3   -0.13    2.70
  13  -1  -3    1.38    1.40
 -13   1   3    1.71    1.62
  13  -1  -3   -0.73    1.52
 -13   1   3    1.91    1.32
  13  -1  -2    6.32    1.84
 -13   1   2    7.57    1.79
 -13   1   2    7.39    1.58
 -13   1   2    5.71    1.54
  13  -1  -2    8.11    3.55
 -13   1   2    5.50    1.63
  13  -1  -2    0.88    1.60
 -13   1   2    7.47    4.04
  13  -1  -2    6.56    2.45
  13  -1  -2    5.00    2.51
  13  -1  -2   12.97    3.93
  13  -1  -2    4.92    1.62
  13  -1  -2    5.24    1.61
 -13   1   2    5.54    1.65
 -13   1   2    7.95    1.93
  13  -1  -2    5.71    2.04
  13  -1  -2    4.92    1.80
 -13   1   2    6.85    1.54
  13  -1  -2    5.20    2.25
  13  -1  -2    6.43    2.24
 -13   1   2    7.78    1.87
 -13   1   2    5.04    1.56
 -13   1   1   63.34    4.48
 -13   1   1   50.71    4.13
 -13   1   1   51.91    3.63
 -13   1   1   59.74    4.31
  13  -1  -1   62.96    8.08
  13  -1  -1   66.74    5.72
 -13   1   1   62.46    4.38
 -13   1   1   58.58    9.71
  13  -1  -1   58.67    5.16
 -13   1   1   57.11   10.29
  13  -1  -1   59.63    7.48
  13  -1  -1   56.61    7.04
  13  -1  -1   52.79    7.49
 -13   1   1   50.07    4.86
 -13   1   1   56.13    4.58
  13  -1  -1   57.29    5.64
 -13   1   1   39.71    4.42
  13  -1  -1   53.31    5.82
  13  -1  -1   49.53    4.93
  13  -1  -1   46.19    4.92
  13  -1  -1   61.19    6.27
 -13   1   1   52.86    4.08
  13  -1  -1   58.46    6.56
 -13   1   1   59.91    4.61
 -13   1   1   54.46    4.14
  13  -1  -1   51.80    6.90
 -13   1   0   22.78    2.94
 -13   1   0   28.14    2.93
  13  -1   0   27.36    4.12
  13  -1   0   38.16    7.08
  13  -1   0   30.39    4.13
 -13   1   0   15.93   10.04
  13  -1   0   30.39    5.95
  13  -1   0   33.92    6.23
  13  -1   0   22.58    5.79
 -13   1   0   26.78    3.32
  13  -1   0   32.31    4.94
  13  -1   0   20.45    4.00
  13  -1   0   31.07    4.54
  13  -1   0   23.23    3.88
  13  -1   0   22.73    3.88
 -13   1   0   24.43    3.86
  13  -1   0   36.85    5.49
 -13   1   0   29.54    3.01
  13  -1   0   24.88    4.50
 -13   1   0   25.39    3.08
 -13   1   0   29.73    3.27
 -13   1   0   30.19    6.79
  13  -1   1   18.18    3.89
 -13   1  -1   20.11    2.45
  13  -1   1   13.78    3.35
 -13   1  -1   13.02    4.16
  13  -1   1   20.43    3.91
 -13   1  -1   10.73   11.95
  13  -1   1   33.75    8.90
  13  -1   1   18.99   12.16
  13  -1   1   14.57    5.10
  13  -1   1   16.07    5.92
  13  -1   1   13.09    3.40
 -13   1  -1   17.22    2.79
  13  -1   1   18.90    4.48
  13  -1   1   12.90    3.57
  13  -1   1   13.38    3.71
  13  -1   1   19.37    4.31
 -13   1  -1   15.45    3.81
  13  -1   1   18.27    4.43
  13  -1   1   14.52    3.61
 -13   1  -1   19.18    2.43
 -13   1  -1   12.77    3.75
 -13   1  -1   16.40    2.72
 -13   1  -1   19.70    2.82
  13  -1   2   50.94    6.77
  13  -1   2   39.22    5.73
  13  -1   2   33.44   15.16
  13  -1   2   40.04    9.01
 -13   1  -2   43.79    4.42
  13  -1   2   53.16    8.20
 -13   1  -2   39.08    5.15
  13  -1   2   48.52    7.24
 -13   1  -2   44.22    4.04
  13  -1   3   16.64    3.41
  13  -1   3   23.55    5.97
 -13   1  -3   15.55    3.15
 -13   1  -3   11.23    2.28
 -13   1  -4    2.55    0.81
 -13   1  -4    0.73    1.17
  13  -1   4    0.01    3.86
  13  -1   4    1.56    1.15
 -13   1  -4    2.17    0.76
 -13   1  -4    1.33    0.69
  13   0  -4   48.26    5.20
 -13   0   4   38.02    6.67
  13   0  -4   66.02    5.68
 -13   0   4   55.14    3.77
  13   0  -4   56.01    5.03
  13   0  -4   52.19    5.53
 -13   0   3    5.55    1.61
  13   0  -3    0.08    1.38
 -13   0   3    4.80    3.58
  13   0  -3    1.23    1.40
  13   0  -3    5.78    2.60
 -13   0   3    5.40    1.70
 -13   0   2    6.54    1.75
 -13   0   2    6.88    1.62
 -13   0   2    7.14    1.52
 -13   0   2    8.97    4.08
  13   0  -2    3.18    1.88
  13   0  -2    5.84    2.57
  13   0  -2    7.15    1.96
  13   0  -2    5.28    1.91
  13   0  -2    5.24    1.55
 -13   0   2    4.12    1.44
  13   0  -2    2.42    1.52
  13   0  -2    3.84    1.67
 -13   0   2    6.88    1.56
  13   0  -2    8.66    2.54
  13   0  -2    5.99    2.47
 -13   0   2    7.07    1.74
 -13   0   2    4.31    1.35
  13   0  -1  240.59    9.99
 -13   0   1  254.88    9.02
 -13   0   1  212.75    8.45
 -13   0   1  219.19    7.56
 -13   0   1  241.69    8.60
  13   0  -1  244.70   10.79
 -13   0   1  175.79   16.69
  13   0  -1  233.63   14.92
  13   0  -1  296.75   15.21
  13   0  -1  208.38   14.95
 -13   0   1  220.10    8.87
 -13   0   1  201.39    9.96
  13   0  -1  202.92   11.33
  13   0  -1  199.95   10.17
  13   0  -1  194.31   10.39
  13   0  -1  249.17   12.07
 -13   0   1  190.24    9.63
 -13   0   1  239.30    8.54
 -13   0   1  248.30    9.06
  13   0  -1  236.85   13.03
 -13   0   0   97.75    4.79
 -13   0   0   97.16    6.01
 -13   0   0  113.11    5.81
  13   0   0  113.37    8.08
  13   0   0  101.91    7.03
 -13   0   0   73.23   18.35
  13   0   0  115.75   11.10
  13   0   0  146.15   11.88
  13   0   0   90.38   10.64
 -13   0   0  106.27    6.45
  13   0   0  111.87    8.82
  13   0   0   89.28    8.30
  13   0   0  120.24    8.54
  13   0   0   88.92    7.64
  13   0   0   87.27    7.73
 -13   0   0   92.33    7.64
  13   0   0  120.79    9.28
 -13   0   0  108.93    5.73
 -13   0   0   99.57    5.93
 -13   0   0  105.75    5.41
 -13   0   0  107.38    6.05
  13   0   1   45.98    5.90
 -13   0  -1   53.23    3.93
  13   0   1   50.01    6.60
  13   0   1   47.05    5.45
  13   0   1   64.13    9.84
  13   0   1   41.22    8.08
  13   0   1   34.58    7.69
  13   0   1   48.13    6.90
 -13   0  -1   55.14    4.96
  13   0   1   49.89    7.02
  13   0   1   41.35    6.30
 -13   0  -1   42.07    5.03
  13   0   1   49.65    6.55
 -13   0  -1   41.20    5.82
  13   0   1   40.56    5.94
  13   0   1   43.69    6.15
  13   0   1   45.66    6.69
 -13   0  -1   47.64    3.76
  13   0   1   49.22    6.12
 -13   0  -1   38.89    4.02
 -13   0  -1   51.40    4.64
 -13   0  -1   48.35    4.22
  13   0   2    2.99    2.02
  13   0   2    3.04    2.53
  13   0   2    2.25    3.52
 -13   0  -2    2.74    1.46
  13   0   2    2.61    2.71
 -13   0  -2    1.99    1.94
  13   0   2    1.52    2.34
  13   0   2    1.52    1.66
 -13   0  -2    2.12    1.19
 -13   0  -2    4.45    1.61
  13   0   3   10.67    2.85
 -13   0  -3    2.68    1.67
  13   0   3    5.48    2.78
 -13   0  -3    3.86    2.66
  13   0   3    2.04    3.17
 -13   0  -3    6.56    2.30
  13   0   3    3.46    2.69
  13   0   3    4.78    2.11
 -13   0  -3    5.82    1.74
 -13   0  -3    6.73    1.35
 -13   0  -4    1.69    0.70
 -13   0  -4    3.86    1.66
  13   0   4    1.94    3.64
  13   0   4    3.36    1.76
  13   0   4    5.85    2.30
 -13   0  -4    6.75    1.35
  13   0   4    2.72    1.10
 -13   0  -4    4.24    1.06
 -13  -1   4  327.65    8.44
  13   1  -4  315.59   10.90
  13   1  -4  317.58   12.09
 -13  -1   3   99.39   12.35
  13   1  -3  106.97    8.30
  13   1  -3   76.29    6.52
  13   1  -3   81.77    7.78
 -13  -1   2    1.71    0.98
 -13  -1   2    2.66    1.05
 -13  -1   2    5.60    4.26
  13   1  -2    3.28    1.77
  13   1  -2    7.33    3.09
  13   1  -2    4.49    1.68
  13   1  -2    4.23    1.85
 -13  -1   2    2.57    1.14
 -13  -1   2    5.14    1.65
  13   1  -1  345.64   11.68
 -13  -1   1  298.73    9.17
 -13  -1   1  349.99   10.50
  13   1  -1  372.53   13.63
 -13  -1   1  331.56   23.04
  13   1  -1  295.17   17.07
  13   1  -1  427.77   17.94
 -13  -1   1  314.83   10.59
  13   1  -1  314.33   12.76
  13   1  -1  248.23   13.24
  13   1  -1  272.40   12.60
  13   1  -1  243.77   12.39
 -13  -1   1  269.35   11.92
  13   1  -1  344.84   13.89
 -13  -1   1  322.44   10.16
 -13  -1   1  380.39   11.33
 -13  -1   0  185.95    7.11
 -13  -1   0  216.48    8.19
  13   1   0  220.69   11.14
  13   1   0  195.54    9.29
 -13  -1   0  148.94   18.65
  13   1   0  215.63   15.03
  13   1   0  285.45   16.74
  13   1   0  192.47   15.78
 -13  -1   0  204.98    9.05
  13   1   0  163.44   11.65
  13   1   0  205.12   11.93
  13   1   0  169.56   11.54
  13   1   0  217.10   11.33
  13   1   0  166.09   10.82
 -13  -1   0  174.75   10.74
  13   1   0  162.72   10.94
  13   1   0  207.94   11.84
 -13  -1   0  211.34    8.12
 -13  -1   0  196.15    8.19
 -13  -1   0  220.56    7.93
 -13  -1   0  211.12    8.43
  13   1   1  138.06   10.37
  13   1   1  146.83   10.33
 -13  -1  -1  160.49    7.03
  13   1   1  146.80   11.16
  13   1   1  142.87    9.05
  13   1   1  162.43   15.37
  13   1   1  139.89   14.68
  13   1   1  131.15   14.38
  13   1   1  131.37   11.69
 -13  -1  -1  146.62    8.05
  13   1   1  161.05   12.43
  13   1   1  122.85   11.01
 -13  -1  -1  139.11    8.78
  13   1   1  151.54   11.07
 -13  -1  -1  131.64   10.64
  13   1   1  119.25   10.42
  13   1   1  130.83   11.02
  13   1   1  150.55   11.52
 -13  -1  -1  140.00    6.51
  13   1   1  153.74   10.81
 -13  -1  -1  144.75    7.55
 -13  -1  -1  133.30    6.99
  13   1   2  113.88    9.96
  13   1   2  126.03   11.51
  13   1   2  112.15    8.60
  13   1   2  128.18   15.37
 -13  -1  -2  114.50    7.29
  13   1   2  122.43   12.11
 -13  -1  -2  108.82    8.31
  13   1   2  127.52   11.27
  13   1   2  129.88   10.87
 -13  -1  -2  100.97    6.73
 -13  -1  -2  126.80    6.94
  13   1   3    7.32    2.76
  13   1   3   10.99    3.63
 -13  -1  -3    7.48    3.24
  13   1   3    5.43    6.47
  13   1   3    4.18    4.05
 -13  -1  -3   12.19    2.81
  13   1   3   12.36    3.85
  13   1   3    8.99    3.01
 -13  -1  -3    7.31    1.98
 -13  -1  -3   10.17    1.75
 -13  -1  -4    7.47    1.96
  13   1   4   11.86    1.91
  13   1   4    4.49    3.69
  13   1   4    3.60    1.89
  13   1   4   13.11    3.53
 -13  -1  -4    9.36    1.61
 -13  -1  -4   11.90    1.63
 -13  -2   4   28.10    2.24
  13   2  -4   30.50    2.96
 -13  -2   3    0.38    0.79
  13   2  -3    0.59    0.85
  13   2  -2   27.52    4.49
  13   2  -2   18.69    3.24
 -13  -2   2   20.44    2.56
  13   2  -1   46.73    4.28
  13   2  -1   54.90    5.30
 -13  -2   1   53.69    4.19
 -13  -2   1   55.51    4.39
 -13  -2   1   42.28   11.22
  13   2  -1   58.03    7.70
  13   2  -1   70.16    7.81
  13   2  -1   49.24    5.27
  13   2  -1   55.69    5.47
 -13  -2   1   54.51    4.38
 -13  -2   0 1141.34   19.33
 -13  -2   0 1252.93   20.42
  13   2   0 1269.10   26.77
  13   2   0 1234.50   22.64
 -13  -2   0  819.66   53.27
  13   2   0 1319.87   37.60
  13   2   0 1571.69   40.30
  13   2   0  863.57   27.71
 -13  -2   0 1100.41   21.53
  13   2   0 1160.15   28.72
  13   2   0  934.64   28.29
  13   2   0 1295.94   27.70
 -13  -2   0  988.14   26.30
  13   2   0  930.67   27.47
  13   2   0  913.92   27.49
 -13  -2   0 1219.95   20.08
 -13  -2   0 1168.71   20.05
 -13  -2  -1  182.75    7.85
  13   2   1  201.53   11.95
  13   2   1  203.97   13.55
 -13  -2  -1  136.56   26.62
  13   2   1  231.75   18.30
  13   2   1  227.39   17.77
  13   2   1  184.30   16.91
 -13  -2  -1  195.68    9.48
  13   2   1  196.91   13.69
  13   2   1  162.34   12.96
 -13  -2  -1  176.93    9.52
  13   2   1  190.31   12.29
  13   2   1  162.43   12.54
  13   2   1  149.66   12.67
  13   2   1  161.43   13.28
 -13  -2  -1  205.04    8.06
  13   2   1  194.51   12.53
 -13  -2  -1  204.58    8.92
 -13  -2  -1  189.70    8.40
  13   2   2   -0.57    1.58
  13   2   2   -0.40    2.08
 -13  -2  -2   -0.89    1.54
  13   2   2    4.61    4.53
 -13  -2  -2   -0.08    1.05
  13   2   2    0.64    2.40
 -13  -2  -2    0.63    1.40
  13   2   2    3.89    2.44
  13   2   2    0.58    1.69
 -13  -2  -2    0.00    0.74
 -13  -2  -2    0.19    0.92
  13   2   3   12.77    3.27
  13   2   3   11.89    3.76
 -13  -2  -3    7.74    2.74
  13   2   3   -1.62    5.51
  13   2   3   13.87    5.79
 -13  -2  -3   13.19    2.81
  13   2   3    6.91    2.56
  13   2   3   20.74    4.47
 -13  -2  -3   14.28    2.48
 -13  -2  -3   15.90    2.17
 -13  -2  -4  212.20    9.00
  13   2   4  233.94    8.88
  13   2   4  263.93   13.48
 -13  -2  -4  251.20    7.59
  13   2   4  231.68    9.36
 -13  -2  -4  220.27    6.49
  13   3  -4    3.91    0.90
 -13  -3   4    3.19    0.69
 -13  -3   3    7.82    3.65
 -13  -3   3    6.74    1.35
 -13  -3   2    0.53    0.79
 -13  -3   2   -2.46    3.97
  13   3  -2    0.31    0.82
  13   3  -1    3.40    1.32
 -13  -3   1    5.15    1.58
 -13  -3   1   -0.33    4.19
  13   3  -1    5.01    2.42
  13   3  -1    2.73    1.16
  13   3  -1    4.83    1.85
 -13  -3   1    3.25    1.40
 -13  -3   0   91.29    5.99
  13   3   0  105.90    7.90
 -13  -3   0   95.30   16.25
  13   3   0   83.23    9.71
 -13  -3   0  100.15    6.66
  13   3   0   97.21    8.51
  13   3   0   96.86    7.74
 -13  -3   0  102.91    6.06
 -13  -3   0  103.14    6.07
  13   3   1  269.33   13.93
  13   3   1  286.39   16.27
 -13  -3  -1  218.12    9.67
 -13  -3  -1    4.50   12.36
  13   3   1  267.58   19.76
  13   3   1  301.57   20.38
  13   3   1    2.05    3.90
  13   3   1  287.95   20.51
 -13  -3  -1  289.75   11.67
  13   3   1  279.39   15.98
  13   3   1  225.80   15.50
 -13  -3  -1  273.11   11.13
  13   3   1  269.83   14.41
  13   3   1  220.18   15.02
  13   3   1  233.87   15.51
  13   3   1  226.03   15.74
  13   3   1  284.01   15.41
 -13  -3  -1  285.14   10.45
 -13  -3  -1  266.62    9.38
  13   3   2   -2.08    2.14
  13   3   2    1.04    2.21
 -13  -3  -2   -0.35    1.42
  13   3   2   -2.48    4.79
  13   3   2    2.02    2.75
 -13  -3  -2    0.26    0.99
  13   3   2   -0.88    1.43
  13   3   2    0.33    1.93
  13   3   2    1.58    2.26
 -13  -3  -2   -0.08    0.69
 -13  -3  -2    0.22    0.84
  13   3   3   -2.78    2.16
  13   3   3   -3.42    2.29
 -13  -3  -3    0.65    1.42
  13   3   3    1.73    3.42
 -13  -3  -3   -0.60    1.25
  13   3   3    0.61    1.98
  13   3   3   -2.83    1.69
 -13  -3  -3    0.16    0.73
 -13  -3  -4   15.81    2.18
  13   3   4   16.00    2.35
  13   3   4   14.44    3.24
 -13  -3  -4   17.80    1.92
  13   3   4   15.82    2.48
 -13  -3  -4   15.00    1.58
 -13  -4   3   -4.00    3.42
 -13  -4   3    1.58    0.60
 -13  -4   2   20.20    6.90
 -13  -4   2   67.99    4.95
 -13  -4   1    4.88    1.69
 -13  -4   1    1.30    4.67
 -13  -4   1    5.93    1.87
  13   4   0   59.63    7.02
 -13  -4   0   68.65    5.37
  13   4   0   58.32    6.01
 -13  -4   0   61.72    4.66
  13   4   1    8.11    2.93
 -13  -4  -1   14.57    2.40
 -13  -4  -1   11.08    2.21
  13   4   1   14.22    3.39
  13   4   1    9.50    3.29
 -13  -4  -1   12.85    2.30
  13   4   2    9.51    3.58
  13   4   2   10.49    3.82
  13   4   2   12.10    4.06
  13   4   2   11.01    4.98
 -13  -4  -2    9.18    2.22
  13   4   2    7.19    3.16
  13   4   2    7.41    3.19
 -13  -4  -2   12.11    2.01
 -13  -4  -2   11.70    2.12
  13   4   3   17.23    3.76
 -13  -4  -3   18.20    2.92
  13   4   3   15.71    3.70
 -13  -4  -3   13.88    2.65
  13   4   3   18.60    4.63
 -13  -4  -3   21.90    2.90
  13   4   3   18.95    3.88
  13   4   3   17.87    3.59
 -13  -4  -3   20.69    2.38
  13   4   4   30.97    2.83
  13   4   4   36.83    3.90
 -13  -4  -4   32.56    2.19
  13   4   4   29.88    2.78
 -13  -4  -4   32.79    1.95
 -13  -5   2    8.51    1.69
 -13  -5   1   22.33    2.85
 -13  -5   1   20.21    3.03
 -13  -5   0    3.17    1.45
 -13  -5   0    7.35    7.25
 -13  -5   0    2.94    1.38
  13   5   0    0.85    1.41
 -13  -5  -1   45.87    3.95
  13   5   1   42.70    6.34
  13   5   1   36.61    5.75
  13   5   1   38.54    5.69
  13   5   2   -4.39    2.53
  13   5   2    0.48    1.81
  13   5   2    1.24    1.52
 -13  -5  -2   -0.07    0.77
  13   5   2    0.51    1.37
  13   5   2   -0.59    2.02
 -13  -5  -2   -0.13    0.52
  13   5   3    5.17    1.94
  13   5   3    7.90    2.33
 -13  -5  -3    4.45    1.44
  13   5   3    5.14    2.09
 -13  -5  -3   10.57    1.76
  13   5   3    4.28    1.84
  13   5   3    8.94    2.49
 -13  -5  -3    8.44    1.37
 -13  -6   2   -0.26    0.51
 -13  -6   1    5.63    1.44
 -13  -6   1    7.17    1.47
 -13  -6   0   -0.06    0.74
 -13  -6   0    0.22    0.83
  13   6   0    1.36    1.36
 -13  -6  -1    6.20    1.36
 -13  -6  -1    4.70    1.61
 -13  -6  -1    8.25    1.88
  13   6   1    8.80    2.93
  13   6   1    4.43    1.85
 -13  -6  -2    5.65    1.78
 -13  -6  -2    5.74    1.40
  13   6   2    4.89    2.05
  13   6   2    7.00    2.75
  13   6   2    6.62    2.13
  13   6   2    4.77    2.45
 -13  -6  -2    7.52    1.21
 -13  -6  -3    0.68    0.49
  13   6   3    1.29    0.92
  13   6   3    2.43    1.01
  13   6   3    2.47    1.25
 -13  -7   1   40.60    2.59
 -13  -7   1   45.36    2.96
 -13  -7   0   55.08    3.81
 -13  -7   0   52.16    3.43
  13   7   0   44.52    4.99
 -13  -7  -1    2.40    0.68
 -13  -7  -1    0.95    0.69
 -13  -7  -1    3.21    1.08
  13   7   1    1.41    1.39
  13   7   1    1.82    1.54
 -13  -7  -2    5.29    1.26
 -13  -7  -2    4.79    0.93
  13   7   2    6.36    1.76
  13   7   2    6.96    2.19
  13   7   2    5.51    1.90
 -13  -8   0    3.73    0.74
 -13  -8  -1    7.49    0.99
  13   8   1    7.28    1.83
  14  -8  -1    0.41    3.69
 -14   7   2    0.52    0.45
 -14   7   2   -0.35    0.59
 -14   7   2    0.26    0.60
 -14   7   2   -0.08    0.47
 -14   7   2    0.31    0.57
 -14   7   1    0.33    0.54
  14  -7  -1   -1.29    1.53
 -14   7   1   -0.63    0.83
 -14   7   1    0.12    0.63
 -14   7   1   -0.53    0.62
 -14   7   1   -0.71    0.61
 -14   7   0   17.54    1.51
 -14   7   0   19.69    2.05
 -14   7   0   22.26    2.00
 -14   7   0   19.05    2.07
  14  -7   1    0.34    3.52
  14  -6  -3   95.10    7.28
 -14   6   3  105.87    4.28
 -14   6   3   76.01    2.91
  14  -6  -3  123.37    9.55
 -14   6   3   99.68    3.85
  14  -6  -3  107.64    7.45
 -14   6   3   95.44    4.21
 -14   6   2   12.03    1.72
 -14   6   2   11.86    1.73
  14  -6  -2    9.19    3.76
 -14   6   2   11.68    1.56
  14  -6  -2   10.80    3.33
 -14   6   2   11.44    1.87
 -14   6   2   10.38    1.49
  14  -6  -2   10.95    3.48
 -14   6   2   11.81    1.97
 -14   6   1    0.61    0.81
  14  -6  -1    1.10    2.72
 -14   6   1    0.11    0.89
 -14   6   1   -0.05    0.79
  14  -6  -1   -1.00    2.43
 -14   6   1    0.14    0.65
 -14   6   0    7.89    1.41
  14  -6   0    1.29    6.87
  14  -6   0    5.98    2.87
 -14   6   0    8.03    1.71
 -14   6   0    8.71    1.67
  14  -6   1   21.22    9.51
 -14   6  -1   18.24    1.96
 -14   6  -1   24.51    2.02
 -14   6  -1   19.17    2.18
  14  -6   2  -10.06    4.67
 -14   6  -2    1.03    0.72
  14  -5  -3   26.53    3.69
  14  -5  -3   30.20    4.92
 -14   5   3   33.07    2.89
 -14   5   3   25.85    2.15
  14  -5  -3   29.19    5.61
 -14   5   3   31.17    2.68
  14  -5  -3   30.21    4.81
 -14   5   3   32.08    2.98
 -14   5   2    3.48    1.25
 -14   5   2    2.69    1.12
  14  -5  -2    2.83    2.73
 -14   5   2    2.42    1.01
  14  -5  -2    1.28    1.53
  14  -5  -2    0.46    2.48
 -14   5   2    2.25    1.15
  14  -5  -2    1.75    1.06
 -14   5   2    2.22    0.93
  14  -5  -2    5.19    2.95
 -14   5   2    1.90    1.13
  14  -5  -1    5.79    1.76
 -14   5   1   15.51    2.10
 -14   5   1   17.67    2.49
  14  -5  -1   18.51    6.80
  14  -5  -1   10.45    4.37
 -14   5   1   14.11    2.62
  14  -5  -1   12.19    3.68
 -14   5   1   15.51    2.33
  14  -5  -1   11.63    4.34
 -14   5   1   16.73    2.44
 -14   5   0   90.41    5.06
  14  -5   0   72.99    6.83
  14  -5   0   72.67    9.46
 -14   5   0  100.03    6.21
  14  -5   0   71.74    8.36
 -14   5   0  103.96    5.68
  14  -5   0   94.97   11.19
  14  -5   1   30.19   14.24
  14  -5   1   16.87    4.57
 -14   5  -1   20.70    2.69
 -14   5  -1   27.90    2.60
 -14   5  -1   24.12    2.81
  14  -5   2  177.06   19.40
 -14   5  -2   96.25    3.98
  14  -4  -4    0.37    1.06
 -14   4   4    0.62    0.48
  14  -4  -4    1.05    1.22
  14  -4  -4    0.47    0.92
 -14   4   4    0.28    0.32
 -14   4   3   14.78    2.26
 -14   4   3   10.05    1.49
  14  -4  -3    9.28    3.51
 -14   4   3   11.88    1.93
  14  -4  -3   10.41    2.86
 -14   4   3   13.52    2.09
  14  -4  -3   14.08    2.86
  14  -4  -3   12.51    3.44
  14  -4  -3    5.56    3.20
 -14   4   3   11.51    1.99
 -14   4   2   27.04    3.14
 -14   4   2   21.92    2.77
  14  -4  -2   27.79    6.22
 -14   4   2   25.60    2.91
  14  -4  -2   17.63    3.04
  14  -4  -2   12.45    3.30
  14  -4  -2   28.96    5.92
 -14   4   2   20.28    2.76
  14  -4  -2   16.40    3.76
 -14   4   2   19.63    2.45
  14  -4  -2   23.73    4.99
  14  -4  -2   23.63    6.70
 -14   4   2   23.88    3.19
 -14   4   1  211.04    8.04
 -14   4   1  193.18    8.03
 -14   4   1  222.38    7.85
  14  -4  -1  200.82   11.05
  14  -4  -1  204.93   13.93
  14  -4  -1  200.54   15.21
 -14   4   1  204.27    9.06
  14  -4  -1  200.64   13.42
 -14   4   1  195.12    8.02
  14  -4  -1  226.44   15.95
 -14   4   1  201.46    8.53
 -14   4   0   77.06    4.88
  14  -4   0   57.73    6.55
  14  -4   0   59.08    8.18
  14  -4   0   62.93    9.54
 -14   4   0   75.97    5.64
  14  -4   0   74.29    8.91
 -14   4   0   73.19    4.98
  14  -4   0   67.16    9.69
  14  -4   1    2.59    2.17
  14  -4   1    1.08    7.61
  14  -4   1    2.51    3.26
 -14   4  -1    6.40    1.72
 -14   4  -1    5.81    1.38
 -14   4  -1    8.07    1.91
  14  -4   2    0.38    0.90
  14  -4   2   -0.60    2.25
 -14   4  -2   -0.03    0.72
 -14   4  -3    1.47    1.32
 -14   4  -3    0.47    0.69
 -14   4  -3    0.40    0.56
 -14   3   4    6.06    1.12
  14  -3  -4    3.96    1.84
  14  -3  -4    3.94    1.53
  14  -3  -4    5.71    1.32
  14  -3  -4    5.08    1.52
  14  -3  -4    4.64    1.68
 -14   3   4    5.22    1.00
 -14   3   3   27.63    3.06
 -14   3   3   20.75    2.17
  14  -3  -3   21.82    4.81
 -14   3   3   26.82    2.90
  14  -3  -3   24.84    3.11
  14  -3  -3   20.64    3.87
  14  -3  -3   26.19    4.95
 -14   3   3   27.69    3.11
  14  -3  -3   25.38    4.00
  14  -3  -3   22.61    4.53
 -14   3   3   31.04    3.28
 -14   3   2   95.04    5.90
 -14   3   2   85.33    5.24
  14  -3  -2  100.03   11.18
 -14   3   2  102.59    5.85
  14  -3  -2   89.04    6.82
  14  -3  -2   94.57   10.34
 -14   3   2   86.04    5.46
  14  -3  -2   80.45    6.77
  14  -3  -2   77.27    7.66
 -14   3   2   77.32    4.84
  14  -3  -2   92.72    9.53
 -14   3   2   96.07    6.20
 -14   3   1  189.34    7.80
 -14   3   1  158.73    7.33
  14  -3  -1  208.63   17.11
 -14   3   1  183.04    7.43
  14  -3  -1  179.15   10.44
  14  -3  -1  190.82   13.40
  14  -3  -1  176.23   14.51
 -14   3   1  162.01    8.06
  14  -3  -1  181.00   11.16
  14  -3  -1  182.36   12.61
 -14   3   1  165.67    7.48
  14  -3  -1  185.57   13.92
 -14   3   1  183.25    8.26
 -14   3   1  170.52    7.69
  14  -3   0    7.50    2.53
 -14   3   0    5.83    1.56
  14  -3   0    2.51    8.76
  14  -3   0    1.00    2.31
  14  -3   0    4.70    4.00
 -14   3   0    9.16    2.25
  14  -3   0    5.77    2.71
  14  -3   0    4.97    2.83
 -14   3   0    8.43    1.95
  14  -3   0    9.30    3.61
 -14   3   0    8.19    1.94
 -14   3  -1   24.65    2.60
  14  -3   1   21.08    4.29
  14  -3   1   18.13    9.74
  14  -3   1    9.83    4.05
  14  -3   1   16.00    6.00
 -14   3  -1   24.68    3.36
  14  -3   1   28.63    5.53
  14  -3   1   20.94    4.41
  14  -3   1   26.10    5.89
 -14   3  -1   27.03    2.91
 -14   3  -1   23.27    3.02
  14  -3   2   15.77    5.29
 -14   3  -2   17.41    2.42
 -14   3  -2   20.60    2.59
 -14   3  -3   27.55    3.34
 -14   3  -3   28.20    2.96
  14  -2  -4   21.75    3.85
  14  -2  -4   24.77    2.44
 -14   2   4   26.71    4.87
  14  -2  -4   25.10    3.54
  14  -2  -4   23.99    3.18
  14  -2  -4   25.31    3.84
 -14   2   4   25.32    2.12
  14  -2  -3    1.31    1.10
 -14   2   3    3.67    1.44
  14  -2  -3    2.21    2.49
 -14   2   3    3.16    1.30
 -14   2   3    1.42    2.73
  14  -2  -3    1.71    1.79
  14  -2  -3    5.51    2.67
  14  -2  -3    1.71    1.74
  14  -2  -3    3.39    2.21
 -14   2   3    2.55    1.35
  14  -2  -2    0.50    0.96
 -14   2   2    0.95    1.11
 -14   2   2    0.99    0.91
  14  -2  -2    1.60    2.00
 -14   2   2    0.66    0.84
 -14   2   2    1.85    3.25
  14  -2  -2    0.08    1.51
  14  -2  -2    0.59    1.99
 -14   2   2    0.19    0.72
 -14   2   2    0.11    0.66
  14  -2  -2    0.05    1.25
 -14   2   2    0.79    0.98
  14  -2  -2    0.70    1.84
 -14   2   2    1.48    1.07
  14  -2  -1    0.97    1.05
 -14   2   1    1.66    0.97
 -14   2   1   -0.54    0.80
  14  -2  -1    2.78    2.73
 -14   2   1    0.98    0.79
 -14   2   1    1.40    3.24
 -14   2   1    1.72    1.10
 -14   2   1    1.97    0.88
  14  -2  -1    0.04    1.89
  14  -2  -1   -0.23    1.99
  14  -2  -1    2.22    3.55
  14  -2  -1   -0.28    0.90
 -14   2   1    0.14    0.77
 -14   2   1    2.37    1.41
  14  -2  -1    0.65    1.49
  14  -2  -1    1.10    1.58
  14  -2  -1    1.22    1.16
  14  -2  -1    2.17    1.87
  14  -2  -1    1.72    1.36
 -14   2   1    0.13    0.68
  14  -2  -1    0.41    1.39
 -14   2   1    0.00    0.77
 -14   2   1    1.42    1.01
 -14   2   1    0.45    0.63
  14  -2   0    1.63    1.52
 -14   2   0    1.55    1.04
 -14   2   0    2.32    1.21
  14  -2   0   -0.62    3.25
  14  -2   0    3.29    2.51
  14  -2   0    1.77    2.68
  14  -2   0    1.22    1.40
 -14   2   0    1.21    1.22
  14  -2   0   -0.94    1.41
  14  -2   0    0.35    0.80
  14  -2   0    3.02    1.95
  14  -2   0    0.92    2.41
  14  -2   0    3.34    1.58
 -14   2   0    2.15    1.23
  14  -2   0    4.58    2.92
 -14   2   0    3.53    1.33
 -14   2   0    2.98    1.77
 -14   2   0    1.23    0.90
  14  -2   1   11.48    3.19
 -14   2  -1   11.98    1.99
  14  -2   1    3.82    8.50
  14  -2   1    0.93    2.44
  14  -2   1    4.56    3.95
 -14   2  -1    8.12    2.15
  14  -2   1    8.01    3.46
  14  -2   1   12.04    3.68
  14  -2   1    7.47    3.39
 -14   2  -1   11.32    1.98
 -14   2  -1   11.26    2.20
  14  -2   2   92.45    8.48
  14  -2   2  123.81   23.67
  14  -2   2   76.23   11.17
 -14   2  -2  106.35    6.34
  14  -2   2  114.47   11.13
  14  -2   2  120.56   10.55
 -14   2  -2  109.52    6.04
  14  -2   3    1.29    5.86
  14  -2   3    3.19    2.07
  14  -2   3    1.20    2.64
 -14   2  -3    2.47    1.42
 -14   2  -3    2.40    1.20
  14  -1  -4   10.29    1.71
  14  -1  -4    7.28    2.13
 -14   1   4    7.56    2.99
  14  -1  -4   12.81    2.48
  14  -1  -4   10.75    2.27
  14  -1  -4   10.70    2.53
  14  -1  -3    3.59    1.57
 -14   1   3    9.88    1.98
  14  -1  -3    8.31    2.96
 -14   1   3   12.08    4.52
  14  -1  -3   11.99    3.07
  14  -1  -3    8.28    2.61
  14  -1  -3   10.35    3.06
 -14   1   3    8.03    1.92
  14  -1  -2   15.28    2.81
 -14   1   2   16.39    2.58
 -14   1   2   14.37    2.18
  14  -1  -2   15.41    4.29
 -14   1   2   12.23    5.62
  14  -1  -2   16.73    4.01
  14  -1  -2   18.93    5.03
  14  -1  -2   14.85    3.36
 -14   1   2   13.28    2.06
  14  -1  -2   13.87    3.60
 -14   1   2   16.23    2.57
 -14   1   1  207.39    8.25
 -14   1   1  157.00    7.67
 -14   1   1  178.55    6.93
 -14   1   1  207.87    8.23
  14  -1  -1  230.65   16.19
  14  -1  -1  208.27   10.79
  14  -1  -1  217.05   10.47
 -14   1   1   95.77   15.87
  14  -1  -1  205.35   15.00
  14  -1  -1  235.63   14.25
  14  -1  -1  184.47   14.50
 -14   1   1  207.83    9.01
  14  -1  -1  202.99   11.29
 -14   1   1  155.01    9.34
  14  -1  -1  164.06   11.00
  14  -1  -1  206.16   10.83
  14  -1  -1  163.52    9.75
  14  -1  -1  156.38    9.91
  14  -1  -1  213.70   12.43
 -14   1   1  183.14    9.96
 -14   1   1  202.32    8.14
  14  -1  -1  234.59   13.63
 -14   1   1  230.25    8.96
 -14   1   1  183.50    7.69
  14  -1   0    9.36    2.57
 -14   1   0   10.36    2.12
 -14   1   0   11.52    1.98
  14  -1   0    9.52    3.41
  14  -1   0   12.70    4.04
  14  -1   0   12.05    2.82
  14  -1   0    5.23    2.17
  14  -1   0    8.84    2.73
 -14   1   0    8.45    2.05
  14  -1   0    9.37    3.10
  14  -1   0    8.88    2.87
  14  -1   0    9.75    2.85
  14  -1   0   10.42    3.09
  14  -1   0    7.33    2.59
 -14   1   0    9.83    1.93
  14  -1   0   13.61    3.76
 -14   1   0    9.77    2.04
 -14   1   0    8.27    2.53
 -14   1   0    9.19    2.07
  14  -1   1  138.90   10.72
 -14   1  -1  125.60    6.09
  14  -1   1  139.45   10.83
  14  -1   1  129.98    9.72
  14  -1   1  181.54   25.46
  14  -1   1  155.25   15.05
  14  -1   1  122.03   14.27
  14  -1   1  115.44   10.95
 -14   1  -1  135.64    7.74
  14  -1   1  146.26   12.49
  14  -1   1  103.59   10.22
  14  -1   1  145.61   11.51
 -14   1  -1  110.07   10.03
  14  -1   1  102.65    9.77
  14  -1   1  103.44   10.01
  14  -1   1  133.41   12.00
 -14   1  -1  129.37    6.22
 -14   1  -1  133.78    7.65
 -14   1  -1  140.63    7.33
  14  -1   2    0.93    1.13
  14  -1   2   -2.31    1.95
  14  -1   2    3.36    6.72
  14  -1   2    2.59    4.13
 -14   1  -2    0.57    1.09
  14  -1   2    0.06    2.21
 -14   1  -2    0.40    1.29
  14  -1   2    1.46    2.16
 -14   1  -2    0.03    0.83
 -14   1  -2    1.09    1.03
 -14   1  -3    2.07    2.27
  14  -1   3   -1.33    6.95
  14  -1   3   12.54    4.53
 -14   1  -3    3.08    1.59
 -14   1  -3    6.22    1.77
  14  -1   4   10.21    1.72
 -14   1  -4   12.95    1.28
  14   0  -4   43.70    3.44
 -14   0   4   31.00    5.36
  14   0  -4   53.49    4.86
 -14   0   4   37.59    2.75
  14   0  -4   44.76    4.15
  14   0  -4   46.13    4.66
 -14   0   3   53.76    8.91
  14   0  -3   49.25    5.81
  14   0  -3   34.05    4.58
  14   0  -3   37.62    5.34
 -14   0   3   40.05    3.74
  14   0  -2   36.40    4.09
 -14   0   2   44.05    4.23
 -14   0   2   42.61    3.67
  14   0  -2   35.40    5.40
  14   0  -2   40.75    5.16
 -14   0   2   39.59    3.50
  14   0  -2   49.00    6.15
 -14   0   2   51.58    4.45
  14   0  -1  175.63    9.07
 -14   0   1  178.46    7.75
 -14   0   1  152.51    6.52
 -14   0   1  169.93    7.46
  14   0  -1  154.90    9.20
 -14   0   1  139.92   19.19
  14   0  -1  194.14   14.28
  14   0  -1  195.43   13.14
  14   0  -1  163.90   13.91
 -14   0   1  162.30    7.88
  14   0  -1  155.51    9.77
 -14   0   1  129.83    8.62
  14   0  -1  135.30    9.99
  14   0  -1  129.08    9.00
  14   0  -1  125.18    9.15
 -14   0   1  133.57    8.74
  14   0  -1  160.60   10.42
 -14   0   1  169.63    7.46
 -14   0   1  188.50    8.10
 -14   0   1  139.02    6.55
 -14   0   0  376.70   10.00
 -14   0   0  470.97   12.29
  14   0   0  470.31   17.50
  14   0   0  482.77   16.09
 -14   0   0  228.12   26.44
  14   0   0  545.06   25.64
  14   0   0  379.09   20.75
  14   0   0  391.17   23.06
 -14   0   0  463.42   13.80
  14   0   0  457.68   18.95
  14   0   0  364.36   17.70
  14   0   0  461.03   17.79
  14   0   0  347.29   16.14
 -14   0   0  370.12   16.06
  14   0   0  359.94   16.85
  14   0   0  488.15   19.76
 -14   0   0  438.87   11.92
 -14   0   0  406.05   12.33
 -14   0   0  477.93   11.63
 -14   0   0  441.12   12.44
  14   0   1   40.15    5.78
 -14   0  -1   40.91    3.58
  14   0   1   46.17    6.62
  14   0   1   35.21    4.92
  14   0   1   41.88    8.58
  14   0   1   49.96    8.86
  14   0   1   24.16    8.14
  14   0   1   33.89    7.94
  14   0   1   37.57    6.44
 -14   0  -1   39.65    4.31
  14   0   1   40.39    6.62
  14   0   1   35.04    6.12
 -14   0  -1   32.95    4.52
  14   0   1   38.29    6.03
 -14   0  -1   30.49    5.45
  14   0   1   37.46    6.18
  14   0   1   33.91    5.88
  14   0   1   39.18    6.43
 -14   0  -1   38.16    3.52
  14   0   1   39.84    5.58
 -14   0  -1   36.68    3.95
 -14   0  -1   35.78    3.74
  14   0   2   52.65    7.32
  14   0   2   40.73    5.44
  14   0   2   36.40    8.27
 -14   0  -2   45.21    4.50
  14   0   2   45.79    7.55
 -14   0  -2   43.48    5.39
  14   0   2   46.64    7.05
  14   0   2   52.38    6.61
 -14   0  -2   40.50    4.28
 -14   0  -2   51.50    4.35
  14   0   3    0.35    1.40
 -14   0  -3    1.87    2.21
  14   0   3    1.71    3.71
 -14   0  -3    2.71    1.51
  14   0   3    1.69    1.33
 -14   0  -3    1.85    1.21
 -14   0  -3    1.48    0.65
  14   0   4   61.38    4.31
 -14   0  -4   63.42    3.19
 -14   0  -4   58.72    2.99
  14   1  -4  419.38    9.98
 -14  -1   4  353.94    7.44
  14   1  -4  392.35   11.13
  14   1  -4  348.91   10.71
 -14  -1   3   -0.17    3.12
  14   1  -3    2.44    1.57
 -14  -1   3    1.55    0.85
  14   1  -3    1.54    1.14
  14   1  -3    1.15    1.23
 -14  -1   2    6.76    1.55
  14   1  -2    7.87    3.07
  14   1  -2    5.40    2.04
 -14  -1   2    7.44    1.62
 -14  -1   2    8.42    1.98
  14   1  -1  210.90    9.67
 -14  -1   1  192.81    7.67
 -14  -1   1  202.45    8.30
  14   1  -1  207.89   10.75
 -14  -1   1  177.09   19.03
  14   1  -1  237.20   15.70
  14   1  -1  190.32   13.40
 -14  -1   1  203.85    8.78
  14   1  -1  193.02   10.98
  14   1  -1  148.63   10.87
  14   1  -1  169.88   10.73
  14   1  -1  138.72   10.22
 -14  -1   1  159.74    9.88
  14   1  -1  206.61   11.42
 -14  -1   1  215.11    8.52
 -14  -1   1  222.23    8.79
 -14  -1   0   18.20    2.39
 -14  -1   0   20.95    2.74
  14   1   0   26.97    4.15
  14   1   0   22.14    3.39
 -14  -1   0   12.44    8.29
  14   1   0   22.97    5.42
  14   1   0   19.35    5.22
  14   1   0   14.44    5.12
 -14  -1   0   17.29    2.85
  14   1   0   15.25    3.68
  14   1   0   21.97    4.42
  14   1   0   16.89    4.20
  14   1   0   12.40    3.68
  14   1   0   24.53    4.22
 -14  -1   0   15.80    3.52
  14   1   0   15.55    3.81
  14   1   0   22.71    4.32
 -14  -1   0   22.46    2.86
 -14  -1   0   21.43    2.81
 -14  -1   0   23.75    2.78
 -14  -1   0   17.93    2.59
  14   1   1  379.01   17.30
  14   1   1  412.93   17.97
 -14  -1  -1  392.84   11.27
  14   1   1  393.55   18.83
  14   1   1  387.40   15.28
 -14  -1  -1  302.35   36.54
  14   1   1  462.96   27.13
  14   1   1  419.87   24.67
  14   1   1  370.74   24.47
  14   1   1  322.28   18.88
 -14  -1  -1  367.91   12.92
  14   1   1  395.19   20.02
  14   1   1  311.10   18.24
 -14  -1  -1  337.56   13.50
  14   1   1  391.29   18.46
 -14  -1  -1  358.87   17.92
  14   1   1  320.36   17.67
  14   1   1  307.88   17.71
  14   1   1  396.72   19.02
 -14  -1  -1  372.03   10.76
  14   1   1  413.35   18.24
 -14  -1  -1  365.16   12.20
 -14  -1  -1  370.29   11.87
  14   1   2    7.53    2.38
  14   1   2    5.58    2.65
  14   1   2    5.96    3.18
 -14  -1  -2   -0.06    1.62
  14   1   2    4.25    4.03
 -14  -1  -2    8.28    2.27
  14   1   2    9.34    3.96
 -14  -1  -2    6.40    2.47
  14   1   2    6.19    2.99
  14   1   2    5.17    2.77
 -14  -1  -2    4.06    1.56
 -14  -1  -2    8.18    1.89
  14   1   3   -0.95    1.36
  14   1   3   -1.75    2.14
 -14  -1  -3   -0.14    1.48
  14   1   3    1.25    4.88
  14   1   3    3.91    3.95
 -14  -1  -3    1.13    1.33
  14   1   3    0.16    1.69
  14   1   3    0.04    1.20
 -14  -1  -3    0.84    0.95
 -14  -1  -3    0.81    0.68
 -14  -1  -4  161.99    7.05
  14   1   4  145.10    6.38
  14   1   4  221.80   10.46
 -14  -1  -4  212.50    6.04
 -14  -1  -4  214.80    5.62
  14   2  -4   44.50    2.97
 -14  -2   4   39.34    2.14
 -14  -2   3   -0.17    3.51
 -14  -2   3    3.63    1.05
  14   2  -3    3.91    1.36
 -14  -2   2   17.21    6.35
  14   2  -2   20.88    4.43
  14   2  -2   20.17    3.43
 -14  -2   2   19.67    2.45
  14   2  -1    4.63    1.64
 -14  -2   1    3.76    1.40
 -14  -2   1    2.53    6.01
  14   2  -1    3.08    2.04
  14   2  -1    3.85    1.86
  14   2  -1    4.03    1.70
 -14  -2   1    2.44    1.13
  14   2   0    6.34    1.70
 -14  -2   0    7.36    1.87
 -14  -2   0    5.63    1.44
 -14  -2   0    5.70    5.96
  14   2   0    7.50    3.87
  14   2   0    5.67    2.69
  14   2   0    7.70    2.38
  14   2   0    5.97    2.26
 -14  -2   0    4.89    1.81
  14   2   0    8.29    3.12
  14   2   0    3.60    1.89
  14   2   0    0.71    1.44
  14   2   0    6.05    2.11
  14   2   0   -0.25    0.76
 -14  -2   0    7.04    1.79
 -14  -2   0    2.36    1.72
 -14  -2   0    4.44    1.53
  14   2   1  640.50   23.10
  14   2   1  586.38   23.39
  14   2   1  719.13   31.97
  14   2   1  570.86   30.07
 -14  -2  -1  648.80   17.36
  14   2   1  612.40   24.52
 -14  -2  -1  525.50   16.00
  14   2   1  623.37   22.69
 -14  -2  -1  603.13   13.90
  14   2   1  628.45   22.92
 -14  -2  -1  571.54   14.73
  14   2   2   49.41    6.77
  14   2   2   45.43    7.09
 -14  -2  -2   33.05    5.24
  14   2   2   38.57    8.48
 -14  -2  -2   53.74    5.01
  14   2   2   53.09    7.60
 -14  -2  -2   47.53    5.14
  14   2   2   47.03    6.75
  14   2   2   44.08    6.48
 -14  -2  -2   45.55    4.17
 -14  -2  -2   51.70    4.37
  14   2   3    2.12    1.68
  14   2   3    2.24    1.85
 -14  -2  -3    0.59    1.49
  14   2   3    0.53    3.47
 -14  -2  -3    2.78    1.37
  14   2   3    1.30    1.65
 -14  -2  -3    2.53    0.98
 -14  -2  -3    1.23    0.70
 -14  -2  -4    3.31    1.00
  14   2   4    4.35    1.77
 -14  -2  -4    3.64    0.85
 -14  -2  -4    5.03    0.90
  14   3  -3    9.74    1.84
 -14  -3   3    8.92    1.35
  14   3  -2    1.07    0.92
 -14  -3   2   -0.06    0.87
 -14  -3   2    0.02    3.85
  14   3  -2   -0.26    1.29
  14   3  -1    4.92    1.46
 -14  -3   1    5.26    5.87
  14   3  -1    6.24    2.25
 -14  -3   1    5.42    1.58
 -14  -3   0   79.57    5.90
  14   3   0   80.92    8.14
  14   3   0   81.10    7.35
 -14  -3   0   77.90    5.25
 -14  -3   0   84.31    5.58
  14   3   1  572.39   22.33
  14   3   1  550.74   22.61
  14   3   1  522.69   26.47
  14   3   1  524.64   27.13
 -14  -3  -1  520.32   15.59
  14   3   1  539.37   22.48
 -14  -3  -1  542.56   15.22
  14   3   1  524.51   20.28
  14   3   1  537.72   21.61
 -14  -3  -1  558.98   14.56
 -14  -3  -1  542.54   13.37
  14   3   2    4.79    2.83
  14   3   2    4.04    2.82
  14   3   2    0.86    3.03
  14   3   2    5.76    3.02
 -14  -3  -2    1.66    1.37
  14   3   2    3.88    2.14
  14   3   2    5.19    2.72
  14   3   2   -0.34    1.42
 -14  -3  -2    3.87    1.27
 -14  -3  -2    6.95    1.73
  14   3   3    1.64    1.43
  14   3   3    0.61    1.55
 -14  -3  -3    1.15    1.30
 -14  -3  -3    1.57    0.96
  14   3   3   -0.24    2.50
 -14  -3  -3    2.40    1.17
  14   3   3    1.25    1.70
 -14  -3  -3    2.32    0.95
  14   3   4   14.71    2.54
 -14  -3  -4   13.67    1.19
  14   4  -3   -1.08    0.58
 -14  -4   3    3.23    1.90
  14   4  -2  175.68    7.04
 -14  -4   2  186.93   18.39
 -14  -4   2  194.43    7.90
 -14  -4   1    2.46    1.36
 -14  -4   1    6.96    5.55
 -14  -4   1    2.27    1.18
  14   4  -1    3.92    1.68
  14   4   0   11.91    3.39
 -14  -4   0   14.78    2.72
  14   4   0   12.58    2.96
 -14  -4   0   13.21    2.28
  14   4   1    4.11    2.62
  14   4   1    4.29    2.53
 -14  -4  -1    4.80    1.49
  14   4   1    5.40    2.02
  14   4   1    5.47    2.72
 -14  -4  -1    3.53    1.48
  14   4   2    2.81    1.80
  14   4   2   -2.00    2.57
  14   4   2    1.35    2.84
 -14  -4  -2    6.14    1.71
  14   4   2    8.63    3.39
  14   4   2    5.89    2.59
 -14  -4  -2    8.68    1.58
  14   4   3    1.10    1.40
  14   4   3    1.06    1.54
 -14  -4  -3    1.87    0.94
 -14  -4  -3    0.40    0.73
 -14  -4  -3   -0.61    0.57
  14   4   3    2.97    2.27
 -14  -4  -3    0.68    0.88
  14   4   3    3.23    1.95
  14   4   3    0.89    0.87
 -14  -4  -3    0.71    0.60
 -14  -5   2   18.45    2.14
 -14  -5   1    5.97    1.75
 -14  -5   1    3.77    1.33
  14   5  -1    3.04    1.66
 -14  -5   0    1.16    1.02
 -14  -5   0    0.62    0.91
  14   5   0   -0.66    1.64
 -14  -5  -1   10.79    1.85
  14   5   1    6.86    2.67
  14   5   1    8.05    2.62
  14   5   1    5.85    2.50
  14   5   2    8.96    3.02
  14   5   2   12.70    3.19
  14   5   2    7.63    2.34
 -14  -5  -2    9.66    1.84
 -14  -5  -2    9.56    1.83
  14   5   2    9.17    2.69
  14   5   2    9.02    2.99
 -14  -5  -2   11.23    1.55
  14   5   3   16.71    2.60
  14   5   3   18.27    2.89
 -14  -5  -3   15.85    2.15
 -14  -5  -3   25.58    2.31
  14   5   3   18.11    2.72
  14   5   3   24.00    3.11
 -14  -5  -3   20.07    1.73
 -14  -6   2    5.41    0.88
 -14  -6   1    0.25    0.67
 -14  -6   1    0.88    0.63
 -14  -6   0   13.31    2.18
 -14  -6   0   12.38    1.93
  14   6   0   11.50    2.75
 -14  -6  -1    6.28    1.71
 -14  -6  -1    9.63    1.91
 -14  -6  -1    8.69    1.42
  14   6   1    7.90    2.75
  14   6   1    7.12    2.30
 -14  -6  -2   18.32    2.66
 -14  -6  -2   20.82    2.23
  14   6   2   20.84    3.43
  14   6   2   24.43    3.70
  14   6   2   18.07    2.90
  14   6   2   20.65    3.72
 -14  -7   1    0.16    0.40
 -14  -7   0   90.38    4.25
 -14  -7   0   83.01    3.78
  14   7   0   79.75    6.02
 -14  -7  -1    0.30    0.45
 -14  -7  -1    0.23    0.50
  14   7   1   -1.34    1.39
  14   7   1    0.96    1.28
 -14  -7  -2    0.34    0.41
  14   7   2    2.26    1.01
  15  -7  -2  -12.36    5.03
 -15   7   2    4.18    0.72
 -15   7   1    1.35    0.58
  15  -7  -1    3.30    4.86
  15  -7  -1    0.97    0.99
 -15   7   1    1.50    0.69
 -15   7   1    1.43    0.61
 -15   7   1    1.78    0.66
 -15   7   0   28.02    2.03
 -15   7   0   31.34    1.99
 -15   7   0   27.31    2.06
  15  -6  -3   55.49    5.01
 -15   6   3   62.96    2.70
 -15   6   3   60.50    2.80
 -15   6   2   32.26    2.39
 -15   6   2   34.54    2.59
  15  -6  -2   29.07    4.78
 -15   6   2   29.59    2.60
 -15   6   2   26.37    2.09
  15  -6  -2   32.06    4.97
 -15   6   2   36.45    2.82
 -15   6   1   16.34    1.97
  15  -6  -1   14.13    3.85
 -15   6   1   17.86    2.35
 -15   6   1   19.19    2.15
  15  -6  -1   19.93    4.50
 -15   6   1   19.38    1.99
 -15   6   1   15.24    1.95
 -15   6   0    2.73    0.83
  15  -6   0    2.63    6.09
  15  -6   0    2.19    2.28
 -15   6   0    3.13    1.10
 -15   6   0    3.22    1.02
 -15   6   0    2.42    1.02
  15  -6   1   -3.16    4.73
 -15   6  -1   -0.39    0.45
 -15   6  -1    0.31    0.50
  15  -5  -3   -2.11    1.28
  15  -5  -3    1.52    1.53
 -15   5   3    1.41    0.76
 -15   5   3    0.44    0.37
  15  -5  -3    0.01    2.19
 -15   5   3    0.59    0.51
  15  -5  -3    3.26    1.81
 -15   5   3    1.41    0.69
 -15   5   2    7.24    1.46
 -15   5   2    7.81    1.54
  15  -5  -2    8.25    3.87
 -15   5   2    6.78    1.39
  15  -5  -2    4.19    2.06
  15  -5  -2    5.92    2.75
 -15   5   2    5.82    1.45
  15  -5  -2    6.63    2.17
 -15   5   2    7.84    1.50
  15  -5  -2    9.70    3.29
 -15   5   2    7.12    1.63
  15  -5  -1    4.48    1.55
 -15   5   1    4.79    1.37
  15  -5  -1    2.82    2.54
 -15   5   1    4.75    1.57
  15  -5  -1    3.46    1.96
 -15   5   1    7.12    1.62
  15  -5  -1    5.27    3.13
 -15   5   1    3.92    1.24
 -15   5   1    3.40    1.24
 -15   5   0   13.53    1.90
  15  -5   0   13.38    2.94
  15  -5   0    8.10    3.87
 -15   5   0   13.31    2.32
  15  -5   0   16.43    4.08
 -15   5   0   16.41    2.21
 -15   5   0   14.74    2.28
  15  -5   1   -2.87    8.95
  15  -5   1    0.93    2.09
 -15   5  -1   -0.63    0.90
 -15   5  -1    1.25    0.73
 -15   5  -1    0.28    0.66
  15  -5   2  169.26   17.28
 -15   5  -2   38.33    3.66
 -15   4   3   11.51    1.80
 -15   4   3    8.02    1.20
  15  -4  -3    7.99    3.17
 -15   4   3    8.87    1.55
  15  -4  -3   14.21    3.02
  15  -4  -3   10.69    3.07
  15  -4  -3   10.47    2.46
  15  -4  -3    8.05    2.68
 -15   4   3   10.72    1.82
  15  -4  -2    0.48    0.83
 -15   4   2    1.07    0.90
 -15   4   2    0.80    0.81
  15  -4  -2   -0.10    2.59
 -15   4   2    1.03    0.77
  15  -4  -2    0.28    1.49
  15  -4  -2    3.11    3.01
 -15   4   2    0.56    0.82
  15  -4  -2    0.65    1.13
 -15   4   2    0.60    0.80
  15  -4  -2   -0.37    2.31
 -15   4   2    1.25    1.29
 -15   4   1  563.04   12.42
 -15   4   1  546.69   13.12
  15  -4  -1  687.42   32.57
  15  -4  -1  564.95   18.54
  15  -4  -1  603.91   24.14
  15  -4  -1  490.00   24.09
 -15   4   1  549.16   14.51
  15  -4  -1  575.25   22.61
 -15   4   1  525.53   12.80
  15  -4  -1  626.62   26.26
 -15   4   1  543.72   13.23
 -15   4   1  482.32   12.48
  15  -4   0    0.66    1.25
 -15   4   0    1.50    0.83
  15  -4   0   -4.38    7.81
  15  -4   0   -2.71    2.77
  15  -4   0    0.20    3.50
 -15   4   0    2.43    1.46
  15  -4   0    1.81    2.03
 -15   4   0    2.51    1.21
  15  -4   0    1.96    3.05
 -15   4   0    2.06    1.25
  15  -4   1   25.78    4.30
  15  -4   1   19.58    5.70
 -15   4  -1   27.13    3.15
 -15   4  -1   24.75    2.53
 -15   4  -1   25.05    2.99
  15  -4   2   -0.77    6.96
  15  -4   2    2.71    2.12
 -15   4  -2    2.17    1.35
 -15   4  -2    3.18    0.92
  15  -3  -4   24.12    3.62
  15  -3  -4   14.71    2.54
  15  -3  -4   21.06    2.44
  15  -3  -4   18.87    2.85
  15  -3  -3    2.95    1.32
 -15   3   3    2.03    1.05
 -15   3   3    2.10    0.74
  15  -3  -3    1.39    2.14
  15  -3  -3    3.71    2.21
  15  -3  -3    3.36    1.80
  15  -3  -3    2.70    1.41
  15  -3  -3    2.24    1.52
  15  -3  -3    2.41    1.82
 -15   3   3    3.81    1.31
 -15   3   2   75.67    5.06
 -15   3   2   63.80    4.43
  15  -3  -2   86.89   10.58
 -15   3   2   78.53    4.98
  15  -3  -2   72.29    6.15
  15  -3  -2   40.62    5.75
  15  -3  -2   70.89    9.00
 -15   3   2   55.69    4.36
  15  -3  -2   67.22    6.34
  15  -3  -2   73.43    7.64
 -15   3   2   58.81    4.09
  15  -3  -2   86.82    9.03
 -15   3   2   74.53    5.27
 -15   3   1  138.37    6.52
 -15   3   1  131.33    6.56
  15  -3  -1  156.09   15.14
  15  -3  -1  128.54    9.01
  15  -3  -1  132.53   11.46
  15  -3  -1  116.72   12.09
 -15   3   1  120.04    6.96
  15  -3  -1  117.10    9.31
  15  -3  -1  136.78   11.18
 -15   3   1  119.28    6.34
  15  -3  -1  143.13   12.31
 -15   3   1  135.48    6.81
 -15   3   1  116.55    6.26
  15  -3   0    3.93    1.99
 -15   3   0    6.54    1.65
  15  -3   0    0.12    6.30
  15  -3   0    3.22    3.17
  15  -3   0    2.54    3.13
 -15   3   0    5.46    1.98
  15  -3   0    3.15    2.23
  15  -3   0    7.13    3.51
 -15   3   0    5.09    1.60
  15  -3   0    5.24    3.48
 -15   3   0    3.71    1.57
  15  -3   1    2.31    2.05
 -15   3  -1    3.08    1.05
  15  -3   1   -0.42    8.82
  15  -3   1    2.10    3.18
  15  -3   1    3.92    3.54
 -15   3  -1    1.72    1.23
  15  -3   1    3.35    2.58
  15  -3   1    1.66    1.21
  15  -3   1    2.50    2.43
 -15   3  -1    1.88    1.02
 -15   3  -1    1.37    1.01
  15  -3   2    0.23    6.38
  15  -3   2   -0.99    2.64
 -15   3  -2    1.16    0.71
 -15   3  -2    2.33    1.56
 -15   3  -2    1.38    0.83
  15  -3   3   32.97    3.49
 -15   3  -3   32.78    3.00
 -15   3  -3   27.17    2.42
  15  -2  -4  276.69   11.51
  15  -2  -4  355.91   11.98
 -15   2   4  196.15    5.33
  15  -2  -4  270.46    8.59
  15  -2  -4  279.01    9.68
  15  -2  -4  277.49   10.94
  15  -2  -3    0.18    0.80
 -15   2   3    0.11    0.87
  15  -2  -3   -0.39    1.69
 -15   2   3   -0.56    2.73
  15  -2  -3    0.68    1.15
  15  -2  -3    0.40    1.10
  15  -2  -3   -0.09    1.48
 -15   2   3    0.31    1.00
  15  -2  -2    2.44    1.49
 -15   2   2    4.05    1.54
 -15   2   2    2.12    1.09
  15  -2  -2    3.86    2.57
 -15   2   2   -1.09    4.26
  15  -2  -2    1.43    1.92
  15  -2  -2    4.74    2.58
 -15   2   2    1.41    0.86
  15  -2  -2    0.92    1.51
  15  -2  -2    3.83    1.82
  15  -2  -2    1.55    1.85
 -15   2   2    2.95    1.27
  15  -2  -2    4.39    2.59
 -15   2   2    4.57    1.57
 -15   2   1   17.21    2.42
 -15   2   1   15.94    2.45
  15  -2  -1   18.78    5.41
  15  -2  -1   15.96    3.18
 -15   2   1    2.69    5.77
  15  -2  -1   10.74    4.07
  15  -2  -1   14.36    4.49
 -15   2   1   13.98    2.52
  15  -2  -1   14.91    3.44
  15  -2  -1   10.70    2.77
  15  -2  -1   13.46    3.53
 -15   2   1   14.34    2.30
  15  -2  -1   20.01    4.66
 -15   2   1   16.09    2.53
 -15   2   1   14.92    2.41
 -15   2   0   35.94    3.48
  15  -2   0   31.63    4.87
  15  -2   0   27.05    6.41
  15  -2   0   33.72    7.36
 -15   2   0   31.45    3.78
  15  -2   0   40.41    6.26
  15  -2   0   37.26    5.64
  15  -2   0   40.37    6.37
 -15   2   0   32.38    3.36
  15  -2   0   37.52    6.51
 -15   2   0   38.28    3.83
 -15   2  -1   71.50    4.43
  15  -2   1   60.11    6.81
  15  -2   1   55.57    9.23
  15  -2   1   49.51    9.29
 -15   2  -1   70.11    5.58
  15  -2   1   70.97    8.74
  15  -2   1   69.88    7.93
  15  -2   1   75.60    9.43
 -15   2  -1   61.17    4.32
 -15   2  -1   74.42    5.38
  15  -2   2  107.41    8.61
  15  -2   2   96.26   11.91
 -15   2  -2  129.58    6.72
 -15   2  -2  118.96    8.14
  15  -2   2  138.68   10.64
 -15   2  -2  116.11    6.83
 -15   2  -2  144.80    6.64
 -15   2  -3    6.30    2.39
  15  -2   3   16.79    3.34
  15  -2   3   17.68    4.12
 -15   2  -3   12.96    2.31
 -15   2  -3   12.33    1.95
  15  -1  -4    0.79    0.52
 -15   1   4    3.45    2.47
  15  -1  -4   -2.95    1.41
 -15   1   4   -0.02    0.40
  15  -1  -4    1.35    0.86
  15  -1  -4    0.33    0.82
  15  -1  -4   -0.08    0.77
  15  -1  -3   44.22    4.30
 -15   1   3   50.03    3.99
  15  -1  -3   40.40    5.79
 -15   1   3   25.55    6.85
  15  -1  -3   37.59    5.21
  15  -1  -3   40.10    4.94
  15  -1  -3   44.35    5.58
 -15   1   3   45.01    3.76
  15  -1  -2    4.81    1.83
 -15   1   2    7.08    1.80
 -15   1   2    6.32    1.62
  15  -1  -2    5.76    2.92
 -15   1   2    8.65    4.62
  15  -1  -2    4.74    2.88
  15  -1  -2    7.54    3.56
  15  -1  -2    4.73    2.06
  15  -1  -2    5.61    2.41
 -15   1   2    4.39    1.45
  15  -1  -2    6.90    2.79
 -15   1   2    7.03    1.84
 -15   1   1  241.49    8.94
 -15   1   1  216.46    8.56
  15  -1  -1  272.20   18.62
  15  -1  -1  226.80   11.14
  15  -1  -1  224.53   15.29
  15  -1  -1  194.02   15.56
 -15   1   1  201.93    9.01
  15  -1  -1  220.18   12.56
  15  -1  -1  220.02   11.88
  15  -1  -1  246.15   13.87
 -15   1   1  225.38    8.68
  15  -1  -1  251.42   14.52
 -15   1   1  240.12    9.12
 -15   1   1  185.10    7.72
  15  -1   0   36.12    5.26
 -15   1   0   36.15    3.50
  15  -1   0   33.20    5.01
  15  -1   0   33.84    4.80
  15  -1   0   16.80    4.96
  15  -1   0   34.26    7.31
 -15   1   0   32.92    3.89
  15  -1   0   34.76    5.92
  15  -1   0   37.02    5.56
  15  -1   0   34.07    5.73
 -15   1   0   39.72    3.71
 -15   1   0   30.08    3.55
 -15   1   0   29.88    3.40
 -15   1  -1  308.41    9.48
  15  -1   1  325.09   16.63
  15  -1   1  327.87   15.48
  15  -1   1  297.69   21.35
  15  -1   1  285.48   21.41
 -15   1  -1  302.36   11.59
  15  -1   1  337.15   18.92
 -15   1  -1  270.10   12.74
  15  -1   1  333.44   17.46
  15  -1   1  323.75   18.83
 -15   1  -1  311.98    9.60
 -15   1  -1  321.01   11.09
  15  -1   2   18.01    3.75
  15  -1   2   20.83    3.99
  15  -1   2   23.43   12.52
  15  -1   2   14.16    5.57
 -15   1  -2   26.40    3.29
  15  -1   2   23.74    5.66
 -15   1  -2   15.69    3.45
  15  -1   2   24.81    5.06
 -15   1  -2   21.42    2.97
 -15   1  -2   26.49    3.04
 -15   1  -3   -0.74    1.48
  15  -1   3    1.86    2.25
 -15   1  -3    1.53    1.03
 -15   1  -3    1.86    0.95
  15   0  -4   46.62    3.23
 -15   0   4   31.00    1.99
  15   0  -4   39.63    3.41
  15   0  -4   42.01    3.69
  15   0  -4   38.69    3.58
  15   0  -3   15.57    2.61
 -15   0   3    6.75    4.17
  15   0  -3   20.08    3.74
 -15   0   3   12.26    1.87
  15   0  -3   15.28    3.04
  15   0  -3   14.69    3.10
 -15   0   3   17.67    2.47
  15   0  -2   31.18    3.94
 -15   0   2   28.42    3.01
 -15   0   2   21.08    7.03
  15   0  -2   30.11    5.21
  15   0  -2   33.25    4.81
 -15   0   2   25.62    2.80
  15   0  -2   32.34    4.87
 -15   0   2   36.96    3.83
 -15   0   1   57.15    4.47
  15   0  -1   61.53    5.69
 -15   0   1   29.84    9.49
  15   0  -1   54.96    7.51
  15   0  -1   62.27    9.11
 -15   0   1   62.19    5.01
  15   0  -1   58.50    6.52
  15   0  -1   61.46    6.30
  15   0  -1   62.74    6.91
 -15   0   1   60.60    4.60
 -15   0   1   63.32    4.77
 -15   0   1   54.21    4.07
 -15   0   0  202.88    8.24
  15   0   0  198.91   11.94
  15   0   0  174.75   10.18
  15   0   0  222.76   17.27
  15   0   0  223.74   16.57
  15   0   0  151.79   15.05
 -15   0   0  192.71    9.23
  15   0   0  192.88   13.09
  15   0   0  206.25   12.63
  15   0   0  144.67   11.05
 -15   0   0  165.07   11.24
  15   0   0  150.16   11.56
  15   0   0  191.77   12.95
 -15   0   0  195.88    8.18
 -15   0   0  166.54    7.99
 -15   0   0  181.05    8.12
  15   0   1   10.46    2.89
 -15   0  -1   10.49    1.91
  15   0   1   11.12    3.57
 -15   0  -1    8.95    8.96
  15   0   1    2.08    2.36
  15   0   1   11.11    5.65
 -15   0  -1    8.69    2.32
  15   0   1    8.26    3.30
 -15   0  -1    6.55    2.40
  15   0   1    6.12    2.86
  15   0   1   11.48    3.44
 -15   0  -1   10.80    2.00
  15   0   1   14.28    3.27
 -15   0  -1    7.48    1.98
  15   0   2   85.71    8.75
  15   0   2   75.67    7.04
  15   0   2   72.48   11.42
 -15   0  -2   85.57    5.95
  15   0   2   87.57   10.01
 -15   0  -2   68.22    6.40
  15   0   2   87.42    9.13
  15   0   2   84.94    7.83
 -15   0  -2   68.32    5.18
 -15   0  -2   83.93    5.37
  15   0   3    3.02    1.80
 -15   0  -3    1.29    1.64
  15   0   3   -0.32    3.84
  15   0   3    1.61    2.74
 -15   0  -3    2.55    1.26
  15   0   3    0.90    0.75
 -15   0  -3    2.23    0.98
 -15   0  -3    2.92    0.83
  15   1  -4   12.66    1.61
  15   1  -4   10.92    1.69
  15   1  -4   10.04    1.68
  15   1  -3   10.17    2.04
  15   1  -3   10.73    2.88
 -15  -1   3   11.19    1.57
  15   1  -3   10.04    2.31
  15   1  -2   78.73    5.90
 -15  -1   2   75.82    4.77
  15   1  -2   87.31    8.75
  15   1  -2   77.54    6.77
  15   1  -2   82.28    7.09
 -15  -1   2   91.57    5.87
 -15  -1   2   78.95    4.80
 -15  -1   1   28.69    3.27
  15   1  -1   29.95    3.88
 -15  -1   1   35.22   10.74
  15   1  -1   39.71    6.53
 -15  -1   1   31.29    3.49
  15   1  -1   34.45    5.09
  15   1  -1   30.17    4.56
  15   1  -1   37.73    5.16
 -15  -1   1   30.50    3.30
 -15  -1   1   36.26    3.67
  15   1   0    2.17    1.00
 -15  -1   0    3.53    1.28
  15   1   0    2.13    2.59
  15   1   0    2.20    2.99
 -15  -1   0    1.90    1.26
  15   1   0    4.43    2.92
  15   1   0    4.57    2.59
  15   1   0    3.88    1.62
 -15  -1   0    3.45    1.43
 -15  -1   0    5.12    1.56
 -15  -1   0    2.16    1.11
  15   1   1    0.13    1.05
  15   1   1    1.07    1.24
 -15  -1  -1    0.71    0.89
  15   1   1    1.00    1.86
 -15  -1  -1   -3.30    7.75
  15   1   1    0.03    2.30
  15   1   1    0.39    3.01
 -15  -1  -1    0.17    0.97
  15   1   1    0.68    1.87
 -15  -1  -1    0.63    1.00
  15   1   1    1.20    2.33
  15   1   1   -3.42    2.30
 -15  -1  -1   -0.12    0.77
  15   1   1    0.89    1.60
 -15  -1  -1    0.29    1.03
  15   1   2   76.25    7.39
  15   1   2   75.39    8.58
 -15  -1  -2   52.80    6.67
  15   1   2   66.45    6.17
  15   1   2   93.60   12.58
 -15  -1  -2   84.55    6.04
  15   1   2   90.26    9.97
 -15  -1  -2   69.25    6.16
  15   1   2   86.80    9.16
  15   1   2   77.68    8.06
 -15  -1  -2   66.17    4.89
 -15  -1  -2   81.35    5.29
  15   1   3    6.13    1.89
  15   1   3    6.71    2.24
 -15  -1  -3    4.88    2.11
  15   1   3    8.20    4.14
 -15  -1  -3    4.71    1.54
  15   1   3    4.82    1.80
 -15  -1  -3    5.36    1.34
 -15  -1  -3    5.63    1.19
  15   2  -3   16.77    2.40
 -15  -2   3   15.14    1.66
  15   2  -3   16.42    2.71
  15   2  -3   17.03    2.62
  15   2  -2    8.24    2.01
 -15  -2   2    7.57    5.14
  15   2  -2    8.60    3.05
  15   2  -2   11.26    2.75
  15   2  -2    9.53    2.51
 -15  -2   2    8.87    1.70
  15   2  -1    4.60    1.69
 -15  -2   1    3.24    1.33
 -15  -2   1    1.63    5.09
  15   2  -1    3.01    3.04
  15   2  -1    3.77    1.82
  15   2  -1    2.66    1.52
  15   2  -1    6.72    2.29
 -15  -2   1    3.78    1.37
  15   2   0    0.19    1.09
 -15  -2   0    0.54    1.00
 -15  -2   0    1.62    1.31
  15   2   0   -0.27    1.50
  15   2   0    0.70    1.48
 -15  -2   0    0.55    0.97
 -15  -2   0    1.44    1.08
  15   2   1  545.59   21.30
  15   2   1  535.10   22.36
 -15  -2  -1  285.92   42.91
  15   2   1  343.87   23.01
  15   2   1  467.86   27.03
 -15  -2  -1  539.55   15.71
  15   2   1  511.40   22.62
 -15  -2  -1  465.26   14.58
  15   2   1  518.21   20.93
  15   2   1  496.73   20.43
 -15  -2  -1  554.62   14.35
 -15  -2  -1  511.53   12.70
  15   2   2   31.16    5.12
  15   2   2   30.79    5.85
 -15  -2  -2   25.14    4.21
  15   2   2   34.27    8.15
 -15  -2  -2   36.80    4.07
  15   2   2   39.17    6.52
 -15  -2  -2   30.77    3.93
  15   2   2   34.24    5.68
  15   2   2   31.96    5.29
 -15  -2  -2   32.40    3.23
 -15  -2  -2   33.66    3.43
  15   2   3    6.71    2.05
  15   2   3    7.76    2.62
 -15  -2  -3    6.26    1.96
 -15  -2  -3    2.85    1.07
  15   2   3    8.09    3.81
 -15  -2  -3    8.46    1.93
  15   2   3    6.31    2.18
 -15  -2  -3    6.36    1.36
  15   3  -3   11.88    1.80
 -15  -3   3   -0.10    3.17
  15   3  -2   41.40    3.76
 -15  -3   2   45.47    3.89
  15   3  -2   44.02    4.79
  15   3  -1   32.27    3.55
 -15  -3   1   16.18    8.46
  15   3  -1   30.55    4.64
  15   3  -1   27.71    4.23
 -15  -3   1   30.54    3.27
  15   3   0   42.27    6.12
 -15  -3   0   42.98    4.32
  15   3   0   43.83    6.11
  15   3   0   44.40    5.67
 -15  -3   0   43.04    3.88
 -15  -3   0   45.14    4.04
  15   3   1  215.79   13.50
  15   3   1  207.37   13.85
 -15  -3  -1  218.25    9.90
  15   3   1  189.29   13.05
  15   3   1  198.77   12.43
  15   3   1  202.64   13.14
 -15  -3  -1  205.34    8.64
 -15  -3  -1  205.17    7.99
  15   3   2    1.90    1.89
  15   3   2    1.92    2.19
  15   3   2    8.10    4.39
 -15  -3  -2    3.58    1.36
  15   3   2    5.11    2.14
  15   3   2    1.45    1.85
  15   3   2    6.59    2.37
 -15  -3  -2    6.19    1.39
 -15  -3  -2    4.40    1.40
  15   3   3    1.50    1.31
  15   3   3    2.12    1.90
 -15  -3  -3    1.68    0.97
 -15  -3  -3    0.47    0.58
  15   3   3    1.76    2.29
 -15  -3  -3    2.62    1.08
  15   3   3    2.80    1.65
 -15  -3  -3    1.74    0.75
  15   4  -3    0.02    0.51
  15   4  -2  153.80    7.85
 -15  -4   2  159.47    6.52
  15   4  -1   11.20    2.52
 -15  -4   1    7.86    1.64
 -15  -4   1   11.43    2.28
  15   4   0   32.17    5.33
 -15  -4   0   38.39    3.90
  15   4   0   33.37    4.64
  15   4   1    6.38    2.86
  15   4   1    6.38    3.06
 -15  -4  -1    6.31    1.48
  15   4   1    6.14    2.09
  15   4   1    6.05    2.85
 -15  -4  -1    6.11    1.62
  15   4   2    3.80    2.36
  15   4   2    3.40    2.46
  15   4   2   -1.43    1.87
 -15  -4  -2    3.66    1.24
  15   4   2    1.29    1.46
  15   4   2    2.02    1.76
 -15  -4  -2    2.34    0.81
  15   4   3    4.74    1.74
  15   4   3    4.71    1.86
 -15  -4  -3    3.01    1.06
  15   4   3    8.80    2.45
 -15  -4  -3    6.66    1.31
  15   4   3    4.29    1.59
 -15  -4  -3    6.06    0.98
 -15  -5   2   -0.09    0.47
 -15  -5   1    7.35    4.91
 -15  -5   1   12.01    1.78
 -15  -5   1   10.75    1.93
  15   5  -1   14.70    2.96
 -15  -5   0   -0.05    0.72
 -15  -5   0   -1.58    6.52
 -15  -5   0    0.17    0.71
  15   5   0   -1.20    1.84
  15   5   0    0.80    1.25
 -15  -5  -1   -0.40    0.60
 -15  -5  -1   -0.57    0.76
  15   5   1   -0.72    1.33
  15   5   1    0.43    1.52
  15   5   1   -0.32    1.30
  15   5   2   10.37    2.73
  15   5   2   12.25    2.75
 -15  -5  -2    7.27    1.86
 -15  -5  -2    8.92    1.63
 -15  -5  -2   12.67    1.68
  15   5   2    9.91    2.61
  15   5   2   12.70    2.92
  15   5   3  126.29    6.03
  15   5   3  119.17    5.60
 -15  -6   1   14.68    1.77
  15   6  -1   12.42    2.27
 -15  -6   0   62.27    4.02
 -15  -6   0   55.52    3.57
  15   6   0   52.64    5.07
 -15  -6  -1   11.35    2.06
 -15  -6  -1   18.08    2.19
 -15  -6  -1   13.49    1.47
  15   6   1   15.13    3.11
  15   6   1   14.64    2.81
 -15  -6  -2   21.56    2.43
 -15  -6  -2   20.79    1.84
  15   6   2   30.70    3.61
  15   6   2   27.17    3.00
  15   6   2   31.27    3.72
 -15  -7   0   74.35    3.16
 -15  -7   0   70.05    2.80
 -15  -7  -1   23.73    1.84
  15   7   1   23.54    2.77
  15   7   1   22.93    2.96
  16  -7  -1   -0.04    2.83
 -16   6   2    3.87    0.83
  16  -6  -2    3.56    4.27
  16  -6  -2    2.63    1.91
 -16   6   2    3.37    0.84
 -16   6   2    2.32    0.60
  16  -6  -2    4.35    1.71
 -16   6   2    3.49    0.79
 -16   6   1   50.86    3.01
  16  -6  -1   42.11    5.75
 -16   6   1   51.37    3.49
 -16   6   1   54.09    3.14
 -16   6   1   46.97    2.93
 -16   6   0    6.12    0.93
  16  -6   0    6.78    2.59
 -16   6   0    4.98    1.18
 -16   6   0    5.38    1.02
 -16   6   0    5.09    1.17
  16  -6   1    7.95    5.17
 -16   6  -1    3.77    1.07
 -16   5   3    0.29    0.45
  16  -5  -3    2.06    1.94
  16  -5  -3   -0.07    0.83
 -16   5   3    0.11    0.44
 -16   5   2    2.45    0.87
 -16   5   2    1.65    0.81
  16  -5  -2    3.66    2.89
  16  -5  -2    0.51    1.86
 -16   5   2    0.70    0.60
  16  -5  -2    1.58    0.99
 -16   5   2    0.93    0.59
  16  -5  -2    0.75    1.69
 -16   5   2    2.61    1.02
 -16   5   1   29.88    2.76
  16  -5  -1   26.24    3.31
  16  -5  -1   25.40    5.35
 -16   5   1   27.95    3.01
  16  -5  -1   33.28    4.78
 -16   5   1   28.09    2.73
  16  -5  -1   35.02    5.94
 -16   5   1   31.22    2.60
 -16   5   1   27.38    2.68
 -16   5   0   45.20    3.07
  16  -5   0   40.85    4.45
  16  -5   0   46.02    6.99
 -16   5   0   46.73    3.82
 -16   5   0   52.79    3.51
 -16   5   0   47.80    3.68
 -16   5  -1   -0.06    0.77
 -16   5  -1   -0.21    0.57
 -16   5  -1    0.46    0.67
  16  -5   2   75.59   10.02
 -16   4   3    4.11    1.00
  16  -4  -3    2.83    2.41
  16  -4  -3    1.27    1.11
  16  -4  -3    0.54    1.76
  16  -4  -3    3.10    1.27
  16  -4  -3    4.04    2.10
 -16   4   3    2.91    0.92
 -16   4   2   23.27    2.52
 -16   4   2   21.56    2.41
  16  -4  -2   26.60    5.90
  16  -4  -2   20.42    2.92
  16  -4  -2   18.93    4.00
  16  -4  -2   19.85    4.77
 -16   4   2   22.91    2.57
  16  -4  -2   22.47    4.03
 -16   4   2   20.08    2.20
  16  -4  -2   21.61    4.50
 -16   4   2   27.12    2.86
 -16   4   1  473.60   10.41
 -16   4   1  473.94   11.61
  16  -4  -1  408.07   15.11
  16  -4  -1  453.66   21.05
  16  -4  -1  403.11   21.81
 -16   4   1  471.25   12.96
  16  -4  -1  462.10   19.81
 -16   4   1  436.18   11.33
  16  -4  -1  495.51   22.75
 -16   4   1  454.97   11.22
 -16   4   1  429.68   11.15
  16  -4   0    6.56    2.33
 -16   4   0    5.44    1.35
  16  -4   0    4.57    7.69
  16  -4   0    4.45    2.91
  16  -4   0    5.89    3.61
 -16   4   0    6.21    1.75
  16  -4   0    5.92    2.44
 -16   4   0    7.54    1.70
 -16   4   0    7.79    1.79
  16  -4   1    7.78    2.33
  16  -4   1    5.82    6.52
  16  -4   1    6.08    3.44
 -16   4  -1    8.01    1.70
 -16   4  -1    7.88    1.34
 -16   4  -1    8.09    1.63
 -16   4  -2   -0.21    0.85
 -16   4  -2    0.60    0.50
 -16   4  -2    1.49    0.60
 -16   3   3   58.12    3.68
  16  -3  -3   57.98    7.03
  16  -3  -3   49.84    3.93
  16  -3  -3   50.09    6.09
  16  -3  -3   42.81    5.40
  16  -3  -3   50.83    4.53
  16  -3  -3   50.51    5.21
  16  -3  -3   50.43    5.84
 -16   3   3   54.26    3.67
  16  -3  -2    1.21    1.17
 -16   3   2    0.72    0.78
 -16   3   2    0.57    0.82
  16  -3  -2   -0.25    2.00
  16  -3  -2    0.92    2.03
  16  -3  -2    1.84    2.59
 -16   3   2    1.36    0.96
  16  -3  -2    0.21    1.18
  16  -3  -2    0.53    1.25
 -16   3   2    1.11    0.86
  16  -3  -2    3.10    2.39
 -16   3   2    1.84    1.12
 -16   3   1  379.04   10.23
 -16   3   1  384.83   10.95
  16  -3  -1  421.43   24.53
  16  -3  -1  360.97   14.92
  16  -3  -1  227.18   15.25
  16  -3  -1  318.99   19.90
 -16   3   1  299.41   10.65
  16  -3  -1  357.28   16.37
  16  -3  -1  364.11   18.18
 -16   3   1  342.47   10.28
  16  -3  -1  399.72   20.08
 -16   3   1  357.50   10.41
 -16   3   1  325.57   10.05
 -16   3   0   36.11    3.36
  16  -3   0   30.83    4.97
  16  -3   0   17.11    4.87
  16  -3   0   29.73    7.03
 -16   3   0   34.61    3.89
  16  -3   0   37.59    5.93
  16  -3   0   39.87    6.66
 -16   3   0   36.19    3.41
  16  -3   0   32.65    6.36
 -16   3   0   34.47    3.60
  16  -3   1   38.95    5.26
  16  -3   1   46.92    7.73
  16  -3   1   34.52    7.22
 -16   3  -1   37.80    3.80
  16  -3   1   46.14    6.21
  16  -3   1   38.29    5.12
 -16   3  -1   38.32    3.11
 -16   3  -1   48.68    4.04
  16  -3   2   62.59   12.51
  16  -3   2   14.64    2.88
  16  -3   2   50.67    7.13
 -16   3  -2   37.13    4.18
 -16   3  -2   25.73    2.84
 -16   3  -2   48.86    3.33
  16  -2  -4   10.71    2.23
  16  -2  -4   15.65    2.05
  16  -2  -3    2.80    1.24
 -16   2   3    2.72    1.15
  16  -2  -3    1.79    1.66
 -16   2   3   -0.69    2.46
  16  -2  -3    2.96    2.01
  16  -2  -3    1.73    1.33
  16  -2  -3    2.24    0.97
  16  -2  -3    3.17    1.56
  16  -2  -3    2.89    1.82
 -16   2   3    2.17    0.94
 -16   2   2   82.66    5.22
 -16   2   2   75.02    4.66
  16  -2  -2   72.46    9.02
  16  -2  -2   86.36    6.69
  16  -2  -2   90.72    8.88
  16  -2  -2   48.27    7.43
  16  -2  -2   64.67    6.45
  16  -2  -2   63.78    5.74
  16  -2  -2   79.33    7.70
 -16   2   2   66.89    4.29
  16  -2  -2   88.97    8.75
 -16   2   2   84.59    5.38
  16  -2  -1    1.35    1.58
 -16   2   1    0.74    0.77
 -16   2   1    0.59    0.89
  16  -2  -1    7.67    4.22
  16  -2  -1    1.40    2.19
  16  -2  -1    3.16    3.19
 -16   2   1    0.90    1.09
  16  -2  -1    0.99    1.93
  16  -2  -1    0.17    1.11
  16  -2  -1   -0.45    1.94
 -16   2   1   -0.33    0.96
  16  -2  -1   -0.82    2.23
 -16   2   1   -0.32    0.93
 -16   2   1    0.67    0.85
 -16   2   0  564.96   13.34
  16  -2   0  567.72   19.76
  16  -2   0  676.25   29.10
  16  -2   0  527.16   27.39
 -16   2   0  553.89   15.30
  16  -2   0  549.98   22.49
  16  -2   0  580.32   21.56
  16  -2   0  621.05   25.10
 -16   2   0  558.83   13.39
  16  -2   0  625.54   25.45
 -16   2   0  527.86   13.83
 -16   2  -1   36.30    3.06
  16  -2   1   34.29    5.21
  16  -2   1   29.35    9.90
  16  -2   1   20.38    5.65
  16  -2   1   26.00    7.20
 -16   2  -1   32.95    3.76
  16  -2   1   30.51    5.89
 -16   2  -1   18.80    3.45
  16  -2   1   30.45    5.22
  16  -2   1   34.56    6.30
 -16   2  -1   33.50    3.13
 -16   2  -1   32.73    3.54
  16  -2   2   63.85    9.08
 -16   2  -2   67.78    4.51
 -16   2  -2   57.84    5.34
  16  -2   2   66.47    6.78
 -16   2  -2   50.16    3.95
 -16   2  -2   69.64    4.30
 -16   2  -3    4.72    1.61
  16  -2   3    6.02    3.96
  16  -2   3    9.09    2.13
  16  -2   3   10.96    2.56
 -16   2  -3   13.33    1.95
 -16   2  -3   10.86    1.43
  16  -1  -4   43.78    3.30
  16  -1  -4   49.71    3.69
  16  -1  -3    4.40    1.42
  16  -1  -3   10.49    2.94
 -16   1   3   -2.82    3.45
  16  -1  -3    3.13    2.17
  16  -1  -3    5.05    1.83
  16  -1  -3    4.45    1.81
  16  -1  -3    3.40    1.73
 -16   1   3    5.04    1.39
 -16   1   2   23.78    2.93
 -16   1   2   16.83    2.26
  16  -1  -2   12.55    3.90
  16  -1  -2   19.46    3.30
 -16   1   2    9.43    6.20
  16  -1  -2   15.50    4.02
  16  -1  -2   12.63    4.06
  16  -1  -2   17.45    3.62
  16  -1  -2   15.96    3.23
  16  -1  -2   21.52    4.10
 -16   1   2   13.74    2.07
  16  -1  -2   18.80    3.93
 -16   1   2   22.13    2.86
 -16   1   1   33.91    3.44
  16  -1  -1   31.39    4.36
  16  -1  -1   31.15    6.36
  16  -1  -1   36.61    7.50
 -16   1   1   31.28    3.63
  16  -1  -1   28.11    4.95
  16  -1  -1   32.17    4.80
  16  -1  -1   38.81    5.93
 -16   1   1   30.72    3.27
  16  -1  -1   45.14    6.21
 -16   1   1   34.92    3.45
 -16   1   1   25.04    2.86
 -16   1   0   47.14    4.01
  16  -1   0   47.98    6.15
  16  -1   0   50.81    5.86
  16  -1   0   37.59    7.39
  16  -1   0   40.56    8.40
 -16   1   0   36.49    4.15
  16  -1   0   48.56    6.88
  16  -1   0   47.37    6.38
  16  -1   0   55.72    7.39
 -16   1   0   49.23    4.06
 -16   1   0   37.85    3.80
  16  -1   1    0.52    1.51
 -16   1  -1    0.57    0.73
  16  -1   1   -0.19    1.46
  16  -1   1   -0.29    2.87
  16  -1   1    1.57    3.86
 -16   1  -1   -0.53    1.27
  16  -1   1    4.92    3.22
 -16   1  -1   -0.32    0.99
  16  -1   1    3.23    2.56
  16  -1   1   -0.67    1.86
 -16   1  -1   -1.94    0.99
 -16   1  -1    0.80    1.04
  16  -1   2    1.61    1.32
  16  -1   2   -0.26    4.58
  16  -1   2    3.79    4.15
 -16   1  -2    0.86    0.88
  16  -1   2    0.90    1.88
 -16   1  -2    1.68    1.49
  16  -1   2    1.19    1.61
 -16   1  -2    1.74    0.92
 -16   1  -2    0.87    0.73
 -16   1  -3    1.74    1.32
  16  -1   3    1.51    3.71
  16  -1   3    1.36    1.53
  16  -1   3    2.28    2.10
 -16   1  -3    1.68    0.92
 -16   1  -3    1.38    0.74
  16   0  -4    0.23    0.41
  16   0  -3    3.32    1.28
 -16   0   3    2.95    3.70
  16   0  -3    4.12    2.03
  16   0  -3    3.01    1.46
  16   0  -3    2.98    1.48
  16   0  -3    1.99    1.09
 -16   0   2  186.42    7.35
  16   0  -2  228.42   10.39
 -16   0   2  133.84   17.91
  16   0  -2  280.75   15.38
  16   0  -2  207.10   11.27
  16   0  -2  229.73   12.26
 -16   0   2  193.97    7.29
  16   0  -2  208.90   11.62
 -16   0   2  231.60    8.94
  16   0  -1    0.91    1.13
 -16   0   1    0.54    0.96
 -16   0   1    2.98    5.45
  16   0  -1   -0.22    2.98
  16   0  -1    3.55    3.63
 -16   0   1    0.30    0.79
  16   0  -1    0.77    1.61
  16   0  -1    1.05    1.09
  16   0  -1    0.60    1.27
 -16   0   1    0.71    1.01
 -16   0   1    0.09    0.85
 -16   0   1   -1.00    0.74
  16   0   0   11.99    2.89
 -16   0   0   11.90    2.12
  16   0   0    4.75    2.27
  16   0   0    3.47    2.44
  16   0   0   12.55    4.84
 -16   0   0    7.37    2.14
  16   0   0   11.41    3.60
  16   0   0    6.95    2.73
  16   0   0    8.94    3.24
 -16   0   0   11.57    2.13
  16   0   0    9.58    2.88
 -16   0   0    9.42    1.94
 -16   0  -1   47.15    3.78
  16   0   1   38.24    5.93
  16   0   1   46.40    5.59
  16   0   1   20.51    5.97
  16   0   1   41.65    8.41
 -16   0  -1   48.02    4.73
  16   0   1   45.81    7.31
 -16   0  -1   36.16    4.45
  16   0   1   45.24    6.44
  16   0   1   46.71    6.98
 -16   0  -1   46.42    3.73
  16   0   1   37.05    5.20
 -16   0  -1   44.08    4.07
  16   0   2   30.28    4.93
 -16   0  -2    8.79    3.27
  16   0   2   25.73    3.88
  16   0   2   29.01    7.08
 -16   0  -2   29.51    3.29
  16   0   2   30.44    5.83
 -16   0  -2   27.15    3.69
  16   0   2   27.74    5.01
  16   0   2   26.02    4.00
 -16   0  -2   21.14    2.62
 -16   0  -2   29.13    3.03
  16   0   3   13.25    2.27
 -16   0  -3    5.08    1.95
  16   0   3   13.70    3.97
 -16   0  -3   12.75    2.09
 -16   0  -3   12.22    1.64
  16   1  -3    2.22    1.07
  16   1  -3    6.38    2.14
  16   1  -3    4.15    1.57
  16   1  -3    3.35    1.53
  16   1  -2  121.89    7.23
 -16  -1   2   96.34    5.12
  16   1  -2  138.94   10.68
  16   1  -2  112.53    8.13
  16   1  -2  114.75    8.20
 -16  -1   2   96.79    5.02
 -16  -1   1   13.11    2.25
  16   1  -1   12.35    2.52
 -16  -1   1   12.90    7.42
  16   1  -1    7.23    3.30
 -16  -1   1   12.45    2.26
  16   1  -1   16.28    3.92
  16   1  -1   14.87    3.37
  16   1  -1   14.21    3.36
 -16  -1   1   12.80    2.20
  16   1   0    6.15    2.01
 -16  -1   0    6.39    1.68
  16   1   0    0.23    1.80
  16   1   0    0.37    2.85
  16   1   0   12.25    4.76
 -16  -1   0    4.56    1.72
  16   1   0    6.55    2.96
  16   1   0    5.21    2.39
  16   1   0    3.77    2.31
 -16  -1   0    4.90    1.59
 -16  -1   0    4.34    1.54
  16   1   1    8.16    2.56
 -16  -1  -1    5.65    1.49
  16   1   1    1.92    2.18
 -16  -1  -1    3.11    6.62
  16   1   1    0.29    2.85
  16   1   1    4.21    3.93
 -16  -1  -1    5.92    2.11
  16   1   1    3.32    2.99
 -16  -1  -1    2.43    1.39
  16   1   1    4.88    2.87
  16   1   1    8.33    2.85
 -16  -1  -1    5.03    1.46
  16   1   1    3.23    2.16
 -16  -1  -1    3.55    1.51
  16   1   2   23.07    4.52
 -16  -1  -2   11.13    3.14
  16   1   2   25.12    6.88
 -16  -1  -2   27.22    3.28
  16   1   2   22.76    5.16
 -16  -1  -2   25.30    3.40
  16   1   2   25.32    4.78
  16   1   2   25.69    4.35
 -16  -1  -2   23.47    2.61
 -16  -1  -2   24.38    2.81
  16   1   3   17.61    3.03
 -16  -1  -3    8.81    2.27
  16   1   3   17.06    4.40
 -16  -1  -3   18.39    2.39
  16   1   3   17.87    2.63
 -16  -1  -3   16.63    1.87
 -16  -1  -3   15.06    1.57
  16   2  -3    2.58    1.01
  16   2  -3    3.18    1.18
  16   2  -3    3.81    1.19
  16   2  -2   10.45    2.12
  16   2  -2    7.23    3.19
 -16  -2   2   10.19    1.95
  16   2  -2   12.74    2.84
  16   2  -2    9.98    2.36
 -16  -2   1   30.41    3.25
  16   2  -1   31.84    3.84
  16   2  -1   16.25    4.74
  16   2  -1   30.96    4.91
  16   2  -1   33.32    4.79
 -16  -2   1   28.58    3.16
  16   2   0    8.82    2.20
 -16  -2   0    9.58    2.00
  16   2   0    6.84    2.93
  16   2   0    1.24    2.71
 -16  -2   0    6.89    1.95
  16   2   0    5.08    2.64
  16   2   0    8.73    2.99
 -16  -2   0    8.02    1.86
 -16  -2   0    5.50    1.58
  16   2   1   50.59    6.26
  16   2   1   49.80    6.95
  16   2   1   39.53    8.15
 -16  -2  -1   46.91    4.68
  16   2   1   54.02    7.39
  16   2   1   56.43    6.98
  16   2   1   51.42    6.62
 -16  -2  -1   51.48    4.32
 -16  -2  -1   54.91    4.07
  16   2   2    0.22    1.30
  16   2   2   -3.70    2.30
  16   2   2    0.03    2.79
  16   2   2    2.15    2.36
 -16  -2  -2   -0.88    1.14
  16   2   2   -1.18    1.99
  16   2   2   -2.02    1.79
 -16  -2  -2   -1.43    0.75
 -16  -2  -2    1.41    0.98
  16   2   3   94.34    6.83
  16   2   3   98.72    5.64
  16   2   3   95.67    8.82
 -16  -2  -3   91.21    4.83
  16   2   3   96.02    6.31
 -16  -2  -3   89.90    3.90
  16   3  -3   13.36    1.66
  16   3  -3   12.47    1.98
  16   3  -2   18.79    2.49
  16   3  -2   16.92    2.91
  16   3  -2   19.13    3.12
 -16  -3   2   19.03    2.39
  16   3  -1   31.71    3.49
 -16  -3   1   21.24    2.67
 -16  -3   1   33.13    3.58
  16   3  -1   31.56    4.63
  16   3  -1   30.78    4.34
  16   3   0  378.62   17.32
 -16  -3   0  319.20   11.00
  16   3   0  350.05   16.49
  16   3   0  369.22   15.76
 -16  -3   0  341.27   10.25
 -16  -3   0  341.83   10.58
  16   3   1    2.43    1.91
  16   3   1    4.94    2.96
 -16  -3  -1    5.06    1.35
  16   3   1    5.24    2.35
  16   3   1    4.26    2.28
  16   3   1    3.70    2.50
 -16  -3  -1    3.25    1.28
  16   3   2   29.42    4.53
  16   3   2   28.76    4.84
  16   3   2   26.42    5.64
 -16  -3  -2   30.38    3.21
  16   3   2   24.84    4.07
  16   3   2   29.70    4.72
 -16  -3  -2   27.83    2.34
 -16  -3  -2   27.40    2.88
  16   3   3    1.03    0.90
  16   3   3    1.22    1.14
 -16  -3  -3    0.38    0.43
  16   3   3   -0.82    1.97
 -16  -3  -3    0.30    0.54
  16   3   3    1.37    1.08
 -16  -3  -3    0.42    0.38
  16   4  -2    0.74    0.97
 -16  -4   2    0.75    0.60
  16   4  -1   37.96    4.88
 -16  -4   1   35.28    3.04
 -16  -4   1   49.72    4.03
  16   4  -1   44.02    4.65
  16   4   0   63.35    6.76
 -16  -4   0   70.31    4.84
  16   4   0   63.23    6.00
  16   4   0   68.67    6.97
  16   4   1   16.25    3.67
  16   4   1   20.62    4.19
 -16  -4  -1   14.89    2.00
  16   4   1   14.75    3.17
  16   4   1   17.20    3.89
  16   4   2    8.80    2.53
  16   4   2   11.39    2.98
 -16  -4  -2   10.75    1.63
  16   4   2   12.23    3.00
  16   4   2   10.45    2.42
  16   4   3    1.36    0.76
  16   4   3   -0.70    1.08
 -16  -4  -3    0.14    0.33
  16   4   3    0.94    0.77
 -16  -5   2   40.84    2.26
 -16  -5   1    8.10    1.50
  16   5  -1    4.95    1.57
 -16  -5   0   15.58    2.23
 -16  -5   0   15.30    2.09
  16   5   0   14.99    2.97
  16   5   0   17.60    3.37
 -16  -5  -1    5.54    1.49
 -16  -5  -1    5.58    1.06
  16   5   1    3.77    1.71
  16   5   1    4.93    1.99
  16   5   1    7.09    2.20
 -16  -5  -2    8.31    1.72
 -16  -5  -2    6.08    1.18
  16   5   2   11.48    2.51
  16   5   2    9.51    2.08
  16   5   2   11.21    2.40
  16   5   2    9.54    2.20
 -16  -6   1   21.71    1.79
 -16  -6   0   26.62    2.25
 -16  -6   0   29.70    2.25
  16   6   0   24.53    3.61
  16   6   0   26.99    3.25
 -16  -6  -1    2.43    0.89
 -16  -6  -1    4.12    0.97
  16   6   1    4.20    1.69
  16   6   1    7.23    1.71
  16   6   1    3.62    1.65
 -17   6   1   34.45    2.09
  17  -6  -1   24.97    3.90
 -17   6   1   36.26    2.50
 -17   6   1   34.41    2.13
 -17   6   1   27.55    1.78
  17  -6   0    1.73    4.13
 -17   6   0    0.53    0.45
 -17   6   0    0.17    0.32
 -17   6   0    0.66    0.48
 -17   5   2    1.32    0.56
 -17   5   2    0.88    0.51
  17  -5  -2    2.10    1.70
 -17   5   2    1.12    0.53
  17  -5  -2    1.13    0.71
 -17   5   2    1.49    0.59
  17  -5  -2   -0.25    1.25
 -17   5   2    1.24    0.67
 -17   5   1  103.74    4.52
  17  -5  -1   93.61    9.08
 -17   5   1  106.08    5.18
  17  -5  -1   99.40    7.37
 -17   5   1   99.71    4.44
 -17   5   1   86.65    4.06
 -17   5   0    3.93    0.90
  17  -5   0    5.70    6.36
  17  -5   0    1.02    2.23
 -17   5   0    4.87    1.32
 -17   5   0    4.36    1.07
 -17   5   0    4.21    1.07
  17  -5   1   13.42    6.83
 -17   5  -1   26.96    2.71
  17  -4  -3   42.11    4.45
 -17   4   3   41.03    2.46
 -17   4   2   44.81    3.03
 -17   4   2   41.51    2.98
  17  -4  -2   54.45    7.78
  17  -4  -2   39.63    3.74
  17  -4  -2   39.85    5.32
  17  -4  -2   39.06    5.99
 -17   4   2   37.19    2.86
  17  -4  -2   43.12    5.08
 -17   4   2   39.18    2.70
  17  -4  -2   46.36    6.03
 -17   4   2   42.96    3.14
 -17   4   1  193.07    6.89
  17  -4  -1  169.35    9.14
  17  -4  -1  200.85   13.20
  17  -4  -1  157.21   12.91
 -17   4   1  198.01    7.79
  17  -4  -1  208.26   12.58
 -17   4   1  191.35    6.84
  17  -4  -1  218.60   14.07
 -17   4   1  196.50    6.39
 -17   4   1  162.69    6.28
 -17   4   0  100.10    4.72
  17  -4   0   91.99    7.13
  17  -4   0  108.08    9.82
  17  -4   0   93.58   10.34
 -17   4   0  104.39    5.80
  17  -4   0   99.82    9.17
 -17   4   0  102.46    4.94
 -17   4   0  102.27    5.30
  17  -4   1  112.08   10.33
 -17   4  -1  115.83    5.36
 -17   4  -1  123.33    4.40
 -17   4  -1  116.26    5.17
  17  -4   2    5.93    3.58
 -17   4  -2    2.95    0.95
  17  -3  -3   35.09    4.99
  17  -3  -3   34.71    4.45
  17  -3  -3   36.48    3.50
  17  -3  -3   38.81    4.16
  17  -3  -3   36.76    4.53
 -17   3   3   35.77    2.61
 -17   3   2  103.62    5.07
 -17   3   2   92.67    4.71
  17  -3  -2  111.12   10.92
  17  -3  -2  101.56    6.75
  17  -3  -2  106.50    9.18
  17  -3  -2   85.65    9.11
 -17   3   2   75.57    4.28
  17  -3  -2   99.26    7.35
  17  -3  -2  105.25    8.54
 -17   3   2   89.67    4.40
  17  -3  -2  107.52    9.30
 -17   3   2  101.83    5.23
 -17   3   1   90.19    5.05
  17  -3  -1   83.83    7.04
  17  -3  -1   91.17    9.62
  17  -3  -1   75.59    9.90
 -17   3   1   81.40    5.30
  17  -3  -1   88.83    7.90
  17  -3  -1   95.31    9.10
 -17   3   1   84.89    4.92
  17  -3  -1  100.81    9.82
 -17   3   1   87.22    4.72
 -17   3   1   83.26    4.77
  17  -3   0   -1.87    1.56
 -17   3   0    0.78    0.66
  17  -3   0   -0.33    5.93
  17  -3   0    0.88    2.51
  17  -3   0    1.56    3.34
 -17   3   0   -0.02    1.07
  17  -3   0    0.39    1.47
  17  -3   0   -0.81    2.43
 -17   3   0    0.65    0.83
 -17   3   0   -0.13    0.95
  17  -3   1  269.24   12.63
  17  -3   1  301.94   27.80
  17  -3   1  287.80   18.53
 -17   3  -1  289.60    9.58
  17  -3   1  276.10   13.76
  17  -3   1  270.71   11.80
 -17   3  -1  286.39    7.71
 -17   3  -1  295.73    9.08
  17  -3   2   -0.14    4.31
  17  -3   2    0.60    0.51
  17  -3   2   10.97    3.03
 -17   3  -2    8.60    1.84
 -17   3  -2    2.98    0.87
 -17   3  -2   13.51    1.52
  17  -2  -3    0.14    0.79
  17  -2  -3    4.66    2.17
  17  -2  -3    1.51    1.46
  17  -2  -3    1.24    0.93
  17  -2  -3    1.93    1.35
  17  -2  -3    0.61    0.91
 -17   2   3    1.42    0.73
  17  -2  -2   -0.42    0.97
 -17   2   2    0.01    0.69
 -17   2   2   -0.41    0.65
  17  -2  -2    0.40    1.57
  17  -2  -2    1.48    2.32
  17  -2  -2    0.46    2.27
  17  -2  -2    1.09    1.57
  17  -2  -2    0.11    1.01
  17  -2  -2   -0.14    1.71
 -17   2   2    0.42    0.68
  17  -2  -2    0.87    1.35
 -17   2   2    0.45    0.89
  17  -2  -1    8.44    2.57
 -17   2   1    9.28    1.88
  17  -2  -1    3.16    2.76
  17  -2  -1   12.91    4.71
 -17   2   1    6.89    1.84
  17  -2  -1   10.45    3.23
  17  -2  -1    3.44    1.77
  17  -2  -1   11.22    3.56
 -17   2   1    8.08    1.80
  17  -2  -1   12.71    3.64
 -17   2   1    9.86    1.76
 -17   2   1    7.93    1.63
  17  -2   0    1.27    1.29
 -17   2   0    1.26    0.87
  17  -2   0   -0.49    2.55
  17  -2   0   -0.20    3.11
 -17   2   0    1.57    1.22
  17  -2   0    1.69    2.09
  17  -2   0    3.11    2.18
  17  -2   0    0.66    1.67
 -17   2   0    2.64    1.20
  17  -2   0    0.77    1.54
 -17   2   0    1.97    1.10
 -17   2  -1   98.78    4.63
  17  -2   1  101.59    8.08
  17  -2   1  120.10   17.57
  17  -2   1   63.35    9.07
  17  -2   1  101.41   11.90
 -17   2  -1   97.47    5.99
  17  -2   1  105.26    9.76
 -17   2  -1   67.67    5.53
  17  -2   1  101.42    8.59
  17  -2   1  111.13   10.46
 -17   2  -1   98.30    4.85
 -17   2  -1  103.20    5.68
  17  -2   2   -1.36    4.78
  17  -2   2    0.54    2.66
 -17   2  -2    3.31    1.07
 -17   2  -2    2.14    1.24
 -17   2  -2    1.32    0.74
 -17   2  -2    2.60    0.88
  17  -1  -3    5.59    1.58
 -17   1   3    0.46    2.85
  17  -1  -3    3.47    1.87
  17  -1  -3    3.49    1.51
  17  -1  -3    4.17    1.31
  17  -1  -3    3.44    1.52
  17  -1  -3    4.95    1.64
 -17   1   3    2.38    0.89
 -17   1   2   19.88    2.33
  17  -1  -2   20.03    3.18
  17  -1  -2   22.01    4.63
  17  -1  -2   22.24    3.94
  17  -1  -2   21.20    3.56
  17  -1  -2   19.73    3.74
 -17   1   2   21.13    2.37
  17  -1  -2   21.28    4.04
 -17   1   2   24.13    2.82
  17  -1  -1    3.89    2.00
 -17   1   1    2.53    1.20
  17  -1  -1    5.19    2.93
  17  -1  -1    7.41    4.79
 -17   1   1    2.43    1.31
  17  -1  -1    1.30    2.02
  17  -1  -1    2.83    1.84
  17  -1  -1    4.96    2.58
 -17   1   1    3.33    1.28
 -17   1   1    4.52    1.33
 -17   1   1    0.84    0.97
 -17   1   0   15.43    2.36
  17  -1   0    9.45    3.18
  17  -1   0   16.39    3.39
  17  -1   0    3.33    3.04
  17  -1   0   12.80    5.19
 -17   1   0   12.36    2.53
  17  -1   0   13.77    4.11
  17  -1   0   12.09    3.52
  17  -1   0   13.16    4.03
 -17   1   0   12.81    2.18
 -17   1   0    9.94    2.11
 -17   1  -1   53.79    3.67
  17  -1   1   56.59    6.32
  17  -1   1   48.02    5.57
  17  -1   1   52.65    8.65
  17  -1   1   53.30    9.25
 -17   1  -1   54.08    4.60
  17  -1   1   54.42    7.45
 -17   1  -1   41.15    4.33
  17  -1   1   51.76    6.53
  17  -1   1   47.77    6.86
 -17   1  -1   50.67    3.66
 -17   1  -1   49.51    4.15
 -17   1  -2    1.37    1.34
  17  -1   2   -0.54    4.22
  17  -1   2    7.62    4.08
 -17   1  -2    6.50    1.49
 -17   1  -2    5.46    1.63
  17  -1   2    8.00    2.56
 -17   1  -2    3.76    1.06
 -17   1  -2    5.99    1.30
 -17   1  -3   -0.47    0.76
 -17   1  -3    0.62    0.57
  17  -1   3   -0.39    0.65
  17  -1   3    0.01    1.23
  17   0  -3    0.08    0.80
  17   0  -3   -0.62    1.32
  17   0  -3   -0.11    0.94
  17   0  -3   -0.24    0.86
  17   0  -3   -0.22    0.84
 -17   0   2   75.40    4.42
  17   0  -2   80.12    6.02
  17   0  -2   72.70    7.99
  17   0  -2   80.11    7.08
  17   0  -2   83.57    6.69
  17   0  -2   70.78    6.71
 -17   0   2   73.80    4.22
 -17   0   2   81.30    5.02
 -17   0   1   32.90    3.31
  17   0  -1   38.99    4.65
 -17   0   1   22.19   10.88
  17   0  -1   27.71    5.98
  17   0  -1   30.19    6.50
 -17   0   1   23.46    3.01
  17   0  -1   42.18    5.95
  17   0  -1   33.91    4.94
  17   0  -1   37.20    5.52
 -17   0   1   32.19    3.29
 -17   0   1   38.31    3.54
  17   0   0    3.88    2.08
 -17   0   0    3.03    1.19
  17   0   0    3.15    2.09
  17   0   0    1.07    2.51
  17   0   0    3.37    3.45
 -17   0   0    0.31    0.96
  17   0   0    3.25    2.64
  17   0   0    2.16    2.17
  17   0   0    1.40    1.76
 -17   0   0    1.96    1.23
  17   0   0    2.88    1.61
 -17   0   0    2.41    1.19
  17   0   1   12.04    2.81
 -17   0  -1   19.90    2.39
  17   0   1   15.77    3.83
  17   0   1   14.94    5.42
  17   0   1   15.31    5.75
 -17   0  -1   22.24    3.23
  17   0   1   18.99    4.79
 -17   0  -1   13.62    2.44
  17   0   1   17.80    4.25
  17   0   1   15.82    3.98
 -17   0  -1   14.76    2.09
  17   0   1   20.76    3.78
 -17   0  -1   18.41    2.60
  17   0   2    2.75    1.63
 -17   0  -2    0.11    1.13
  17   0   2    6.83    3.43
 -17   0  -2    3.04    1.14
  17   0   2    5.25    2.79
 -17   0  -2    5.74    1.72
  17   0   2    4.89    2.52
 -17   0  -2    4.87    1.09
 -17   0  -2    5.65    1.33
 -17   0  -3   -0.26    0.68
  17   0   3    0.99    1.96
 -17   0  -3    0.79    0.57
 -17   0  -3    0.73    0.38
  17   1  -3   10.48    1.79
  17   1  -3    8.30    2.24
  17   1  -3   11.05    2.22
  17   1  -3    9.56    1.96
  17   1  -3   12.46    2.19
  17   1  -2   16.99    2.74
  17   1  -2   16.60    4.36
  17   1  -2   18.45    3.56
  17   1  -2   22.02    3.51
  17   1  -2   19.40    3.40
 -17  -1   2   16.15    1.99
  17   1  -1    0.80    1.11
 -17  -1   1    1.29    1.08
 -17  -1   1   -0.27    5.80
  17   1  -1   -0.01    2.16
 -17  -1   1    0.34    0.69
  17   1  -1    2.59    2.10
  17   1  -1    0.82    1.62
  17   1  -1    0.68    1.00
 -17  -1   1    0.90    0.96
 -17  -1   0   28.36    3.10
  17   1   0   21.58    4.53
  17   1   0   22.49    3.65
  17   1   0    9.29    4.58
  17   1   0   18.27    5.79
 -17  -1   0   21.30    3.09
  17   1   0   26.03    5.13
  17   1   0   25.26    4.56
  17   1   0   29.08    4.97
 -17  -1   0   23.83    2.88
  17   1   0   17.84    3.72
 -17  -1   0   16.69    2.52
  17   1   1    0.76    1.22
  17   1   1   -1.17    2.28
  17   1   1    0.92    2.42
  17   1   1    0.49    2.46
 -17  -1  -1   -0.20    1.10
  17   1   1    2.49    2.79
 -17  -1  -1   -0.51    0.93
  17   1   1   -0.14    1.87
 -17  -1  -1   -0.20    0.62
  17   1   1    0.86    1.18
 -17  -1  -1   -1.40    1.01
  17   1   2    1.20    1.42
 -17  -1  -2    2.29    1.28
  17   1   2    1.58    2.67
 -17  -1  -2    0.71    0.91
  17   1   2    2.49    2.34
 -17  -1  -2    1.15    0.97
  17   1   2   -1.25    1.85
  17   1   2    0.07    0.97
 -17  -1  -2    0.50    0.50
 -17  -1  -2    0.42    0.63
  17   1   3   87.95    5.05
 -17  -1  -3   89.93    3.16
  17   2  -3   -0.34    0.57
  17   2  -3    0.97    0.83
  17   2  -3    0.65    0.87
  17   2  -2   34.67    3.52
 -17  -2   2   32.21    2.97
  17   2  -2   36.37    4.47
  17   2  -2   39.57    4.50
  17   2  -2   37.71    4.11
  17   2  -1   21.87    3.09
  17   2  -1   11.93    4.06
  17   2  -1   22.18    4.11
  17   2  -1   15.46    3.18
 -17  -2   1   13.26    2.05
  17   2   0   38.87    5.10
  17   2   0   45.27    6.15
  17   2   0   37.54    4.20
 -17  -2   0   37.72    3.84
  17   2   0   48.19    6.49
  17   2   0   43.18    5.74
  17   2   0   44.27    5.67
 -17  -2   0   37.40    3.43
 -17  -2   0   46.22    3.85
  17   2   1   17.21    3.49
  17   2   1   24.52    4.78
  17   2   1   14.56    4.75
  17   2   1   15.54    4.80
 -17  -2  -1   21.73    3.05
  17   2   1   19.74    4.50
  17   2   1   20.22    3.94
  17   2   1   23.18    4.32
 -17  -2  -1   19.09    2.57
 -17  -2  -1   18.42    2.28
  17   2   2    1.22    1.07
  17   2   2   -0.54    1.85
  17   2   2   -2.17    2.73
 -17  -2  -2    0.60    0.78
  17   2   2    0.14    1.22
  17   2   2    0.21    1.27
 -17  -2  -2    0.12    0.60
  17   2   3  130.48    6.44
  17   2   3  129.11    8.14
 -17  -2  -3  135.62    4.67
  17   2   3  128.82    5.60
  17   3  -2    0.14    0.51
 -17  -3   2    0.58    0.59
 -17  -3   2    0.36    3.99
  17   3  -2    0.32    0.63
  17   3  -2    0.85    0.99
 -17  -3   1    8.82    1.84
  17   3  -1    4.31    1.55
  17   3  -1    7.04    2.15
  17   3   0  587.07   19.65
  17   3   0  579.72   20.60
 -17  -3   0  552.63   13.29
  17   3   0  536.59   19.53
  17   3   0  546.83   18.54
  17   3   0  583.43   19.83
 -17  -3   0  542.84   11.82
  17   3   1    7.85    2.43
  17   3   1    9.92    3.22
 -17  -3  -1    6.57    1.36
  17   3   1    5.90    2.53
  17   3   1    7.42    2.41
  17   3   1    4.99    2.11
 -17  -3  -1    6.67    1.60
  17   3   2    8.89    2.22
  17   3   2    6.99    2.45
  17   3   2    6.85    2.72
 -17  -3  -2    8.59    1.46
  17   3   2    5.88    1.80
  17   3   2    5.21    2.02
  17   3   3    1.62    0.79
  17   4  -2   34.29    3.46
  17   4  -2   42.28    3.40
 -17  -4   2   36.11    2.36
  17   4  -1   96.26    7.23
 -17  -4   1  109.71   15.34
 -17  -4   1  104.18    5.24
  17   4  -1   98.29    6.41
  17   4   0   44.06    5.31
  17   4   0   41.16    5.25
 -17  -4   0   32.38    3.20
 -17  -4   0   41.79    3.39
  17   4   0   36.55    4.27
  17   4   0   45.07    5.30
  17   4   1   19.93    3.62
  17   4   1   18.39    3.61
 -17  -4  -1   16.87    1.85
  17   4   1   15.38    2.78
  17   4   1   18.62    3.49
  17   4   2   48.57    4.83
  17   4   2   57.90    5.02
  17   4   2   51.64    4.87
 -17  -5   1    7.66    1.23
  17   5  -1    5.64    1.57
 -17  -5   0    9.66    1.53
 -17  -5   0   10.38    1.48
  17   5   0    9.33    2.43
  17   5   0   11.17    2.23
  17   5   0   13.24    2.56
 -17  -5  -1   44.19    3.12
  17   5   1   61.75    5.49
  17   5   1   51.07    4.66
  17   5   1   56.53    5.07
  17   5   1   52.29    5.05
  17   5   2   56.36    4.05
  17   5   2   50.97    3.82
  17   6   0    0.61    0.77
  18  -5  -2    3.88    1.89
 -18   5   2    9.23    1.03
 -18   5   1   71.24    3.21
  18  -5  -1   63.44    6.70
 -18   5   1   66.00    3.52
 -18   5   1   74.35    3.27
 -18   5   0   20.16    1.96
 -18   5   0   21.35    1.70
 -18   5   0   20.17    1.81
 -18   4   2   75.68    3.43
  18  -4  -2   64.65    5.96
  18  -4  -2   73.53    7.20
  18  -4  -2   83.13    6.20
 -18   4   2   70.49    3.00
  18  -4  -2   90.24    7.32
 -18   4   2   85.88    3.67
 -18   4   1    8.79    1.40
  18  -4  -1   10.00    2.14
  18  -4  -1    3.20    5.16
  18  -4  -1    8.19    3.10
  18  -4  -1   12.96    4.18
 -18   4   1    8.67    1.59
  18  -4  -1   10.07    2.64
 -18   4   1    9.56    1.49
  18  -4  -1    7.47    2.38
 -18   4   1    8.75    1.32
 -18   4   0  220.40    6.12
  18  -4   0  199.98    9.31
  18  -4   0  196.94   13.54
 -18   4   0  222.62    7.58
 -18   4   0  224.65    6.54
 -18   4   0  215.90    6.79
  18  -4   1   17.99    3.73
 -18   4  -1   24.20    2.13
 -18   4  -1   24.16    2.07
  18  -3  -3   56.35    4.23
 -18   3   3   49.61    2.50
 -18   3   2  301.89    7.49
  18  -3  -2  297.44   10.43
  18  -3  -2  276.93   13.95
  18  -3  -2  258.06   14.08
  18  -3  -2  310.32   11.81
  18  -3  -2  328.73   13.93
 -18   3   2  267.63    6.67
  18  -3  -2  311.88   14.07
 -18   3   2  322.94    8.07
 -18   3   1   12.31    1.82
  18  -3  -1   11.80    2.60
  18  -3  -1    8.55    3.71
  18  -3  -1    9.76    3.92
 -18   3   1   10.35    1.85
  18  -3  -1    9.87    2.51
  18  -3  -1   12.56    3.43
 -18   3   1   11.12    1.75
  18  -3  -1   13.04    3.58
 -18   3   1   10.41    1.47
 -18   3   1    9.53    1.49
  18  -3   0    7.34    2.26
 -18   3   0    7.31    1.36
  18  -3   0    6.85    6.84
  18  -3   0   10.55    3.50
  18  -3   0    5.78    3.21
 -18   3   0    9.38    1.90
  18  -3   0    9.53    2.66
  18  -3   0   10.00    3.32
 -18   3   0    9.45    1.60
 -18   3   0    8.39    1.63
  18  -3   1    0.74    1.02
  18  -3   1    4.00    4.60
  18  -3   1    2.50    2.80
 -18   3  -1   -0.42    0.67
 -18   3  -1    1.06    0.84
 -18   3  -1   -0.24    0.51
 -18   3  -1   -0.22    0.72
 -18   3  -2   28.93    2.43
  18  -2  -3    5.39    1.22
  18  -2  -3    6.64    2.25
  18  -2  -3    6.05    1.59
  18  -2  -3    5.36    1.55
  18  -2  -3    2.97    1.21
 -18   2   2   13.96    1.77
  18  -2  -2   14.74    2.60
  18  -2  -2   16.85    4.03
  18  -2  -2    8.91    3.12
  18  -2  -2   15.09    3.08
  18  -2  -2   11.81    2.25
  18  -2  -2   16.01    3.38
 -18   2   2   10.37    1.51
  18  -2  -2   14.51    3.00
 -18   2   2   15.64    1.97
  18  -2  -1   -0.21    1.08
 -18   2   1   -0.02    0.67
  18  -2  -1   -1.17    2.46
  18  -2  -1   -0.69    2.41
 -18   2   1   -0.64    0.77
  18  -2  -1    3.34    2.29
  18  -2  -1    0.63    1.39
  18  -2  -1    0.40    1.37
 -18   2   1    0.22    0.74
 -18   2   1   -0.19    0.55
 -18   2   1   -0.42    0.57
  18  -2   0    0.60    1.29
 -18   2   0    1.29    0.85
  18  -2   0    1.26    2.42
  18  -2   0    2.41    3.20
 -18   2   0    0.50    1.11
  18  -2   0    0.11    1.60
  18  -2   0    0.96    1.31
  18  -2   0   -0.26    1.79
 -18   2   0    0.45    0.75
 -18   2   0    0.41    0.87
  18  -2   1   60.88    5.78
  18  -2   1   61.63    8.73
 -18   2  -1   63.67    4.47
  18  -2   1   64.96    7.01
 -18   2  -1   45.76    3.95
  18  -2   1   68.77    6.38
 -18   2  -1   64.57    3.54
 -18   2  -1   61.20    4.02
 -18   2  -2   -1.41    1.21
  18  -2   2    0.93    1.02
  18  -2   2   -0.30    1.78
 -18   2  -2   -0.58    0.48
 -18   2  -2   -0.28    0.63
 -18   2  -2    0.14    0.42
  18  -1  -3    7.93    1.58
  18  -1  -3    7.98    2.20
  18  -1  -3    7.43    1.83
  18  -1  -3    6.53    1.34
  18  -1  -3    6.71    1.75
  18  -1  -2    0.21    0.96
 -18   1   2    0.15    0.61
 -18   1   2   -0.40    4.04
  18  -1  -2    1.64    1.86
  18  -1  -2    0.03    1.30
  18  -1  -2    0.07    1.00
  18  -1  -2    0.84    1.29
 -18   1   2    0.37    0.56
  18  -1  -2   -2.73    1.34
 -18   1   2    0.64    0.72
  18  -1  -1    0.22    1.02
 -18   1   1    0.19    0.73
  18  -1  -1   -0.13    1.39
  18  -1  -1    2.49    2.39
  18  -1  -1   -0.01    2.37
 -18   1   1    0.47    0.86
  18  -1  -1   -1.62    1.96
  18  -1  -1    0.83    1.30
  18  -1  -1   -0.66    1.47
 -18   1   1    0.35    0.72
 -18   1   1    0.01    0.67
 -18   1   1   -0.35    0.62
 -18   1   0   14.51    2.06
  18  -1   0   10.11    2.52
  18  -1   0   14.73    3.13
  18  -1   0   10.88    4.78
  18  -1   0   10.73    4.44
 -18   1   0   15.99    2.58
  18  -1   0   17.27    4.36
  18  -1   0   17.46    3.78
  18  -1   0   14.44    3.80
 -18   1   0   15.57    2.21
 -18   1   0   13.19    2.08
 -18   1  -1   20.29    2.06
  18  -1   1   17.08    3.11
  18  -1   1   18.52    5.40
  18  -1   1   18.71    5.55
 -18   1  -1   19.72    2.71
  18  -1   1   23.92    4.85
 -18   1  -1   14.86    2.34
  18  -1   1   27.90    4.45
 -18   1  -1   23.61    2.28
 -18   1  -1   20.51    2.50
 -18   1  -2    0.73    1.12
  18  -1   2    0.18    2.63
 -18   1  -2    3.20    0.96
 -18   1  -2    3.06    1.07
  18  -1   2    3.12    1.48
 -18   1  -2    2.91    0.91
  18   0  -3   21.73    2.40
  18   0  -3   21.73    3.50
  18   0  -3   22.25    2.85
  18   0  -3   21.55    2.55
  18   0  -3   19.41    2.68
  18   0  -2    3.77    1.43
 -18   0   2    1.07    0.56
 -18   0   2    0.23    3.53
  18   0  -2    2.52    2.05
  18   0  -2    1.00    1.30
  18   0  -2    2.67    1.48
  18   0  -2    2.43    1.46
 -18   0   2    3.19    0.91
  18   0  -1    9.91    2.47
 -18   0   1   10.09    1.84
  18   0  -1   11.51    3.99
 -18   0   1    7.69    1.63
  18   0  -1    8.79    3.10
  18   0  -1    9.19    2.56
  18   0  -1    8.57    2.67
 -18   0   1    9.48    1.80
 -18   0   0   18.11    2.37
  18   0   0   14.31    3.51
  18   0   0   18.76    3.32
 -18   0   0    0.96    7.44
  18   0   0   18.66    5.29
  18   0   0   14.79    4.98
 -18   0   0   16.77    2.63
  18   0   0   19.39    4.53
  18   0   0   17.34    3.95
  18   0   0   22.49    4.47
 -18   0   0   17.51    2.34
 -18   0   0   16.21    2.27
  18   0   1    4.23    1.68
  18   0   1    4.97    2.11
  18   0   1    1.14    2.58
  18   0   1    4.55    3.34
 -18   0  -1    6.08    1.77
  18   0   1    4.07    2.65
 -18   0  -1    1.84    0.74
  18   0   1    3.47    2.20
 -18   0  -1    5.14    1.22
 -18   0  -1    4.96    1.38
  18   0   2    0.13    1.01
 -18   0  -2   -2.49    1.03
  18   0   2    1.58    2.28
 -18   0  -2   -0.01    0.58
 -18   0  -2    0.24    0.75
  18   0   2    1.45    1.32
 -18   0  -2    0.59    0.61
  18   1  -3   25.00    2.37
  18   1  -3   22.88    2.71
  18   1  -3   24.17    2.63
  18   1  -2    4.37    1.42
 -18  -1   2    2.15    0.85
 -18  -1   2    1.83    4.66
  18   1  -2    3.41    2.11
  18   1  -2    5.35    2.08
  18   1  -2    3.38    1.52
  18   1  -2    2.21    1.28
 -18  -1   1   23.96    2.68
  18   1  -1   19.73    3.05
  18   1  -1   10.40    3.74
 -18  -1   1   18.74    2.30
  18   1  -1   25.15    4.33
  18   1  -1   26.39    4.24
  18   1  -1   23.54    3.98
 -18  -1   1   24.43    2.66
 -18  -1   0   36.97    3.33
  18   1   0   34.80    5.24
  18   1   0   33.38    4.12
 -18  -1   0   47.95   14.21
  18   1   0   37.38    7.02
  18   1   0   16.12    4.73
 -18  -1   0   33.50    3.50
  18   1   0   38.44    5.90
  18   1   0   35.81    5.18
  18   1   0   28.72    4.60
 -18  -1   0   36.16    3.24
  18   1   0   31.79    4.50
 -18  -1   0   28.99    2.90
  18   1   1    0.35    0.91
  18   1   1    2.68    2.12
  18   1   1    0.32    1.93
  18   1   1    5.85    4.10
 -18  -1  -1    3.30    1.36
  18   1   1    0.90    1.76
  18   1   1    2.72    1.94
 -18  -1  -1    3.38    1.08
  18   1   1    5.28    2.12
 -18  -1  -1    1.74    0.89
  18   1   2    6.25    2.03
  18   1   2    3.51    2.86
 -18  -1  -2    2.17    0.87
  18   1   2    5.30    2.06
  18   1   2    7.08    1.69
 -18  -1  -2    3.26    1.01
  18   2  -2    2.45    0.98
 -18  -2   2    2.43    0.89
  18   2  -2    2.37    1.33
  18   2  -2    4.21    1.62
  18   2  -1   -0.28    0.69
  18   2  -1    0.63    1.33
  18   2  -1    1.44    2.15
  18   2  -1   -3.13    1.73
  18   2  -1    0.02    1.08
 -18  -2   1    0.00    0.67
  18   2   0  155.54   10.57
  18   2   0  129.49    7.15
 -18  -2   0  135.99    6.59
  18   2   0  141.96   10.34
  18   2   0  150.93   10.00
  18   2   0  149.08    9.70
 -18  -2   0  156.14    6.23
 -18  -2   0  140.51    6.10
  18   2   1   88.42    8.00
  18   2   1   56.82    7.58
 -18  -2  -1   64.50    3.84
 -18  -2  -1   82.85    5.24
  18   2   1   70.79    7.31
  18   2   1   76.55    7.16
  18   2   1   81.36    7.07
 -18  -2  -1   77.15    4.52
  18   2   2   11.17    2.55
  18   2   2    6.04    2.62
 -18  -2  -2    9.70    1.42
  18   2   2   10.32    2.45
  18   2   2   11.71    2.29
 -18  -2  -2   10.88    1.57
  18   3  -2   25.84    3.23
  18   3  -2   26.12    3.00
 -18  -3   2   19.62    1.76
  18   3  -1   25.18    3.97
 -18  -3   1   27.39    2.79
  18   3  -1   28.78    3.76
  18   3  -1   29.17    3.83
  18   3   0  417.80   14.91
  18   3   0  389.69   15.90
 -18  -3   0  372.83   10.03
  18   3   0  387.50   15.01
  18   3   0  379.82   14.47
  18   3   0  420.75   15.64
  18   3   1   23.03    3.42
  18   3   1   16.79    3.51
 -18  -3  -1   14.74    1.70
  18   3   1   12.25    2.82
  18   3   1   17.47    3.13
  18   3   1   21.11    3.61
 -18  -3  -1   20.85    2.25
  18   3   2   14.93    2.65
  18   3   2   18.20    2.38
  18   3   2    8.87    1.82
  18   3   2   15.84    2.58
  18   4  -2   -0.77    0.67
  18   4  -1  136.96    7.59
 -18  -4   1  152.53    5.42
  18   4  -1  138.21    6.59
  18   4  -1  155.62    8.15
  18   4   0    8.57    2.17
  18   4   0    8.21    2.33
 -18  -4   0    5.84    1.21
 -18  -4   0    9.02    1.43
  18   4   0    6.38    1.55
  18   4   0   10.40    2.46
  18   4   1   64.40    5.30
  18   4   1   56.62    5.32
  18   4   1   61.83    5.44
  18   4   2   94.11    5.29
  18   4   2   99.16    5.34
 -18  -5   1    0.77    0.39
 -18  -5   0    0.30    0.39
 -18  -5   0   -0.37    0.45
  18   5   0    0.53    0.74
  18   5   1   18.27    2.47
  18   5   1   22.55    2.67
 -19   4   1   23.25    1.88
  19  -4  -1   20.09    2.33
 -19   4   1   19.86    1.92
  19  -4  -1   23.08    3.32
 -19   4   1   21.43    1.81
  19  -4   0    2.64    1.06
 -19   4   0    2.68    0.63
  19  -4   0   -0.27    1.64
 -19   4   0    2.72    0.86
 -19   4   0    1.73    0.62
 -19   4   0    1.69    0.64
 -19   3   2  204.47    5.24
  19  -3  -2  220.35    7.65
  19  -3  -2  200.46   11.05
  19  -3  -2  182.27    9.94
  19  -3  -2  238.78   10.38
 -19   3   2  183.98    4.39
  19  -3  -2  220.79    9.78
 -19   3   2  227.11    5.52
  19  -3  -1    1.41    0.89
 -19   3   1    1.22    0.64
  19  -3  -1    3.29    2.19
  19  -3  -1    3.06    2.56
 -19   3   1    2.07    0.88
  19  -3  -1    0.08    1.18
  19  -3  -1    2.17    1.56
 -19   3   1    1.58    0.66
 -19   3   1    0.10    0.16
  19  -3   0    0.17    1.05
 -19   3   0    1.78    0.70
  19  -3   0    4.27    2.70
  19  -3   0    2.51    2.75
 -19   3   0    2.09    1.01
  19  -3   0    1.50    1.28
  19  -3   0    1.39    1.24
 -19   3   0    2.34    0.77
 -19   3   0    2.01    0.76
  19  -3   1    1.29    1.99
 -19   3  -1    2.73    0.82
 -19   3  -1    2.30    0.69
  19  -2  -2    1.92    0.96
 -19   2   2    2.81    0.81
  19  -2  -2    1.27    1.61
  19  -2  -2    2.81    1.44
  19  -2  -2    3.18    1.68
 -19   2   2    1.44    0.54
  19  -2  -2    0.61    0.96
 -19   2   2    2.80    0.81
 -19   2   1   48.63    3.31
  19  -2  -1   45.26    4.60
  19  -2  -1   29.13    6.48
  19  -2  -1   40.70    6.53
 -19   2   1   42.28    3.28
  19  -2  -1   51.04    5.74
  19  -2  -1   46.82    4.64
  19  -2  -1   47.06    5.75
 -19   2   1   47.85    3.24
  19  -2   0   -0.21    1.07
 -19   2   0   -0.07    0.50
  19  -2   0    0.57    2.12
  19  -2   0   -1.48    2.34
 -19   2   0    1.00    1.00
  19  -2   0    0.06    1.46
  19  -2   0   -0.02    0.80
  19  -2   0   -1.39    1.61
 -19   2   0    0.39    0.63
 -19   2   0   -0.66    0.74
  19  -2   1   -0.05    0.88
  19  -2   1   -1.62    2.67
 -19   2  -1   -0.77    0.78
  19  -2   1    0.66    1.43
  19  -2   1   -0.63    1.00
 -19   2  -1    0.00    0.38
 -19   2  -1    0.23    0.52
  19  -1  -2    3.04    1.27
 -19   1   2    2.61    0.78
  19  -1  -2    2.54    1.12
  19  -1  -2    6.24    2.72
  19  -1  -2    5.21    2.04
  19  -1  -2    5.08    1.66
  19  -1  -2    2.37    1.23
 -19   1   2    2.96    0.76
  19  -1  -1    5.38    1.83
 -19   1   1    7.33    1.50
  19  -1  -1    5.36    1.83
 -19   1   1   -2.24    5.18
  19  -1  -1    3.63    2.31
  19  -1  -1    3.74    2.16
 -19   1   1    6.78    1.43
  19  -1  -1    8.55    2.81
  19  -1  -1    7.52    2.29
  19  -1  -1    6.04    2.07
 -19   1   1    6.41    1.36
 -19   1   0   55.36    3.58
  19  -1   0   48.24    4.97
  19  -1   0   51.95    5.17
  19  -1   0   52.22    7.72
 -19   1   0   55.56    4.17
  19  -1   0   57.67    6.74
  19  -1   0   54.41    5.95
  19  -1   0   49.76    6.14
 -19   1   0   55.49    3.59
 -19   1   0   54.59    3.65
  19  -1   1    0.34    0.96
  19  -1   1    4.19    3.24
 -19   1  -1    1.14    0.83
  19  -1   1   -0.04    1.39
  19  -1   1    0.61    1.06
 -19   1  -1    1.39    0.64
 -19   1  -1    1.51    0.85
  19  -1   2   17.39    3.52
 -19   1  -2   16.96    1.49
  19   0  -2    8.24    1.82
  19   0  -2    6.91    2.72
  19   0  -2    7.95    2.29
  19   0  -2    6.51    1.79
  19   0  -2    7.84    2.02
 -19   0   2    5.59    0.97
  19   0  -1    7.12    1.82
 -19   0   1    7.33    1.46
  19   0  -1    7.51    2.29
  19   0  -1    4.36    2.94
 -19   0   1    4.44    1.10
  19   0  -1    9.65    3.01
  19   0  -1    8.06    2.38
  19   0  -1    5.63    1.97
 -19   0   1    6.86    1.42
 -19   0   0   14.59    1.96
  19   0   0   16.24    3.34
  19   0   0   15.80    2.87
  19   0   0   16.96    4.58
  19   0   0    9.79    3.94
 -19   0   0   16.56    2.31
  19   0   0   13.93    3.36
  19   0   0   16.25    3.40
  19   0   0   14.43    3.25
 -19   0   0   14.52    1.97
 -19   0   0   14.91    1.96
  19   0   1   20.16    3.31
  19   0   1   16.83    2.72
  19   0   1   15.34    4.57
 -19   0  -1   20.24    2.49
  19   0   1   20.16    4.02
  19   0   1   21.33    3.80
 -19   0  -1   22.27    2.28
 -19   0  -1   19.93    1.90
  19   0   2    5.60    2.67
 -19   0  -2    1.90    0.72
  19   0   2    2.76    1.29
 -19   0  -2    3.84    0.83
  19   1  -2   19.47    2.45
  19   1  -2   16.79    3.53
 -19  -1   2   10.65    1.40
  19   1  -2   18.06    2.93
  19   1  -2   19.41    2.92
  19   1  -2   21.31    2.78
  19   1  -1    8.74    1.95
  19   1  -1   10.40    2.63
  19   1  -1    4.37    2.72
  19   1  -1   13.07    3.16
  19   1  -1   10.73    2.63
  19   1  -1    9.82    2.37
  19   1  -1    8.96    2.08
 -19  -1   1   11.05    1.63
  19   1   0    7.73    1.98
  19   1   0    5.49    2.09
 -19  -1   0    2.18    6.03
  19   1   0    6.63    3.39
 -19  -1   0    7.98    1.67
  19   1   0    6.47    2.19
  19   1   0    8.25    2.47
  19   1   0    8.59    2.23
 -19  -1   0    7.90    1.45
  19   1   0    7.59    1.99
 -19  -1   0    7.67    1.38
  19   1   1    5.50    1.29
  19   1   1   10.14    2.70
  19   1   1   10.12    3.52
 -19  -1  -1    9.66    1.80
  19   1   1   11.28    3.16
  19   1   1    7.92    2.35
  19   1   1    7.71    1.85
 -19  -1  -1    8.66    1.53
 -19  -1  -1    7.56    1.21
  19   1   2    0.73    0.77
  19   1   2    2.78    1.76
  19   1   2    0.88    0.85
 -19  -1  -2    0.94    0.53
  19   2  -2   18.41    2.70
  19   2  -2   15.88    1.85
 -19  -2   2   10.56    1.26
  19   2  -2   18.19    2.53
  19   2  -2   19.62    2.65
  19   2  -1   67.30    6.02
  19   2  -1   63.89    4.38
 -19  -2   1   64.95   13.01
 -19  -2   1   55.85    3.72
  19   2  -1   58.48    5.69
  19   2  -1   67.84    5.75
  19   2  -1   67.14    5.53
  19   2   0  115.65    8.36
 -19  -2   0   94.75   18.72
  19   2   0  111.09    8.26
  19   2   0  117.51    8.06
  19   2   0  124.18    7.93
 -19  -2   0  100.32    4.30
  19   2   1   -1.10    1.68
 -19  -2  -1    0.99    0.56
  19   2   1   -0.15    1.10
  19   2   1    1.47    1.23
 -19  -2  -1    0.00    0.61
  19   2   2   -0.63    0.93
  19   2   2   -0.01    0.75
  19   3  -1   99.65    6.69
 -19  -3   1  102.50    4.40
  19   3  -1  108.47    6.38
  19   3  -1  108.44    6.58
  19   3   0   40.73    4.75
 -19  -3   0   34.08    2.67
  19   3   0   35.45    3.93
  19   3   0   39.87    4.22
  19   3   0   44.94    4.63
  19   3   1   33.05    4.04
  19   3   1   29.38    3.35
  19   3   1   38.33    4.06
 -19  -4   1   37.29    2.13
  19   4  -1   34.38    3.25
 -19  -4   0    1.14    0.45
 -19  -4   0    4.68    0.88
  19   4   0    3.18    1.19
  19   4   0    5.48    1.60
  19   4   0    7.64    1.80
  19   4   1   58.50    4.26
  19   4   1   57.66    4.23
  20  -3  -1    2.12    0.95
 -20   3   1    2.09    0.60
  20  -3  -1    0.74    1.28
  20  -3  -1    3.60    1.80
 -20   3   1    1.01    0.51
  20  -3  -1    2.44    1.29
 -20   3   1    3.57    0.77
  20  -3   0   14.01    2.09
  20  -3   0    9.51    2.98
 -20   3   0   11.28    1.47
 -20   3   0   10.96    1.18
 -20   3   0   11.29    1.22
  20  -2  -2    7.29    1.36
  20  -2  -2    5.64    2.18
  20  -2  -2    6.89    1.73
 -20   2   1   31.66    2.31
  20  -2  -1   31.87    3.42
  20  -2  -1   27.97    4.87
  20  -2  -1   28.08    4.49
 -20   2   1   23.07    2.00
  20  -2  -1   33.71    3.98
  20  -2  -1   34.40    4.32
 -20   2   1   32.44    2.27
  20  -2   0    0.44    0.74
 -20   2   0    0.27    0.44
  20  -2   0   -0.37    1.89
 -20   2   0   -0.66    0.77
  20  -2   0   -0.66    1.23
  20  -2   0   -1.79    0.72
 -20   2   0   -0.06    0.50
 -20   2   0    0.14    0.38
  20  -2   1   16.19    3.43
 -20   2  -1   16.82    1.69
 -20   2  -1   19.13    1.63
  20  -1  -2    0.51    0.70
  20  -1  -2    1.80    1.69
  20  -1  -2    0.42    1.08
  20  -1  -2    1.93    1.15
  20  -1  -1    6.18    1.66
 -20   1   1    7.65    1.27
  20  -1  -1    2.77    2.63
 -20   1   1    5.85    1.05
  20  -1  -1    9.03    2.57
  20  -1  -1    9.46    2.15
  20  -1  -1    9.98    2.40
 -20   1   1    7.10    1.20
 -20   1   0   81.28    3.75
  20  -1   0   79.16    5.55
  20  -1   0   57.98    7.28
  20  -1   0   70.51    7.71
 -20   1   0   74.86    4.18
  20  -1   0   83.16    7.06
  20  -1   0   90.63    6.43
  20  -1   0   71.67    6.31
 -20   1   0   81.13    3.74
 -20   1   0   78.66    3.66
  20  -1   1   -1.59    1.90
 -20   1  -1    1.37    0.69
  20  -1   1    2.52    1.60
  20  -1   1    1.69    0.93
 -20   1  -1    1.55    0.65
  20   0  -2    5.29    1.29
  20   0  -2    4.98    1.39
 -20   0   2    0.87    2.70
  20   0  -2    3.08    1.70
  20   0  -2    4.28    1.44
  20   0  -2    5.35    1.37
  20   0  -1   21.82    3.17
  20   0  -1   18.41    2.60
  20   0  -1   14.46    3.88
  20   0  -1   19.49    3.40
  20   0  -1   21.46    3.18
  20   0  -1   16.62    2.87
 -20   0   1   20.93    1.93
  20   0   0    4.99    1.57
  20   0   0    7.28    2.06
  20   0   0    3.97    2.77
  20   0   0   -0.66    2.08
 -20   0   0    7.72    1.48
  20   0   0    3.56    1.82
  20   0   0    7.02    2.00
  20   0   0    6.70    2.06
 -20   0   0    6.17    1.13
 -20   0   0    4.07    0.90
  20   0   1   20.95    4.09
 -20   0  -1   21.20    2.14
  20   0   1   21.06    3.48
  20   0   1   25.53    3.49
 -20   0  -1   21.99    1.94
  20   1  -2  119.58    5.85
  20   1  -2  125.61    5.85
  20   1  -1    4.86    1.30
  20   1  -1    7.50    2.04
 -20  -1   1    4.09    1.00
  20   1  -1    4.13    2.20
  20   1  -1    6.28    2.05
  20   1  -1    7.40    1.97
  20   1   0    5.53    1.34
  20   1   0    5.21    1.83
  20   1   0    0.50    1.87
 -20  -1   0    6.81    1.27
  20   1   0    8.20    2.52
  20   1   0    5.30    1.80
 -20  -1   0    4.45    0.89
 -20  -1   0    6.49    1.15
  20   1   1    5.26    1.67
  20   1   1    7.13    2.11
  20   1   1    6.37    1.75
 -20  -1  -1    5.97    1.04
  20   2  -1   55.46    4.77
 -20  -2   1   47.85    2.79
  20   2  -1   51.89    4.36
  20   2  -1   62.22    4.77
  20   2  -1   54.47    4.00
  20   2   0   -0.11    1.02
 -20  -2   0    0.01    0.43
 -20  -2   0    1.11    0.45
  20   2   0   -0.38    1.23
  20   2   0   -0.44    0.97
  20   2   0    0.13    0.77
  20   2   1   56.35    4.61
  20   2   1   48.65    4.21
 -20  -3   1  287.26    5.59
 -20  -3   0   10.15    1.16
  20   3   0   12.06    2.25
  20   3   0   15.06    2.24
  21  -1  -1   22.39    2.34
  21  -1  -1   14.21    3.08
  21  -1  -1   22.00    2.82
 -21   1   1   19.17    1.45
  21  -1   0   43.39    3.25
 -21   1   0   40.73    2.39
  21  -1   0   48.71    4.30
 -21   1   0   42.84    2.21
  21   0  -1   82.76    6.68
 -21   0   1   62.06    2.80
  21   0  -1  123.87    6.71
  21   0  -1  114.54    5.69
 -21   0   0    4.79    0.90
  21   0   0    5.56    1.68
  21   0   0    6.11    1.54
 -21   0   0    4.53    0.79
  21   1  -1   10.49    1.78
  21   1   0   -0.64    0.96
  21   1   0    0.33    0.74
   0   0   0    0.00    0.00


TITL 2019_10_31_JD_AntOC8_95K_01 in P-1
REM P-1 (#2 in standard setting)
CELL 1.54184  16.949309   8.194929   4.604844  81.7437  93.1367  90.7400
ZERR    1.00   0.000613   0.000392   0.000180   0.0036   0.0032   0.0034
LATT  1
SFAC C H O
UNIT 30.00 40.00 4.00
TREF
HKLF 4
END
_computing_structure_solution     'SHELXT 2018/2 (Sheldrick, 2018)'
;
_shelx_hkl_checksum              97226
_olex2_date_sample_data_collection 2019-10-31
_olex2_submission_special_instructions 'No special instructions were received'
_oxdiff_exptl_absorpt_empirical_details
;
Empirical correction (ABSPACK) includes:
- Absorption correction using spherical harmonics
- Frame scaling
;
_oxdiff_exptl_absorpt_empirical_full_max 3.635
_oxdiff_exptl_absorpt_empirical_full_min 0.264
loop_
_space_group_symop_operation_xyz
'x, y, z'
'-x, -y, -z'
loop_
_atom_site_label
_atom_site_type_symbol
_atom_site_fract_x
_atom_site_fract_y
_atom_site_fract_z
_atom_site_U_iso_or_equiv
_atom_site_adp_type
_atom_site_occupancy
_atom_site_site_symmetry_order
_atom_site_calc_flag
_atom_site_refinement_flags_posn
_atom_site_refinement_flags_adp
_atom_site_refinement_flags_occupancy
_atom_site_disorder_assembly
_atom_site_disorder_group
O2 O 0.18327(5) 0.28549(12) 0.6803(2) 0.0193(3) Uani 1 1 d . . . . .
O1 O -0.05164(5) 0.31328(12) -0.0725(2) 0.0211(3) Uani 1 1 d . . . . .
C7 C 0.06757(7) -0.04511(16) 0.1995(3) 0.0147(3) Uani 1 1 d . . . . .
C3 C 0.07649(7) 0.23246(16) 0.3301(3) 0.0161(3) Uani 1 1 d . . . . .
H3 H 0.057400 0.339567 0.310876 0.019 Uiso 1 1 calc R . . . .
C1 C -0.02871(7) 0.17018(16) -0.0369(3) 0.0157(3) Uani 1 1 d . . . . .
C4 C 0.14166(7) 0.18493(17) 0.5182(3) 0.0168(3) Uani 1 1 d . . . . .
C2 C 0.03989(7) 0.11657(16) 0.1694(3) 0.0150(3) Uani 1 1 d . . . . .
C5 C 0.16956(8) 0.02288(17) 0.5492(3) 0.0178(3) Uani 1 1 d . . . . .
H5 H 0.212964 -0.008559 0.676363 0.021 Uiso 1 1 calc R . . . .
C6 C 0.13278(8) -0.09022(17) 0.3914(3) 0.0178(3) Uani 1 1 d . . . . .
H6 H 0.151627 -0.197598 0.413169 0.021 Uiso 1 1 calc R . . . .
C10 C 0.29219(7) 0.57698(17) 0.6804(3) 0.0175(3) Uani 1 1 d . . . . .
H10A H 0.310207 0.477608 0.613266 0.021 Uiso 1 1 calc R . . . .
H10B H 0.278710 0.656437 0.508133 0.021 Uiso 1 1 calc R . . . .
C8 C 0.15460(7) 0.45040(16) 0.6825(3) 0.0170(3) Uani 1 1 d . . . . .
H8A H 0.104878 0.447377 0.777939 0.020 Uiso 1 1 calc R . . . .
H8B H 0.146667 0.507479 0.483563 0.020 Uiso 1 1 calc R . . . .
C9 C 0.21796(7) 0.53624(17) 0.8525(3) 0.0174(3) Uani 1 1 d . . . . .
H9A H 0.232366 0.465854 1.035096 0.021 Uiso 1 1 calc R . . . .
H9B H 0.196563 0.637472 0.901486 0.021 Uiso 1 1 calc R . . . .
C11 C 0.35950(7) 0.64679(18) 0.8600(3) 0.0191(3) Uani 1 1 d . . . . .
H11A H 0.374964 0.565103 1.026633 0.023 Uiso 1 1 calc R . . . .
H11B H 0.340780 0.743017 0.935514 0.023 Uiso 1 1 calc R . . . .
C13 C 0.50161(7) 0.75493(18) 0.8617(3) 0.0196(3) Uani 1 1 d . . . . .
H13A H 0.516993 0.667812 1.019512 0.024 Uiso 1 1 calc R . . . .
H13B H 0.485115 0.848604 0.950096 0.024 Uiso 1 1 calc R . . . .
C12 C 0.43176(7) 0.69523(17) 0.6814(3) 0.0192(3) Uani 1 1 d . . . . .
H12A H 0.448143 0.600769 0.594968 0.023 Uiso 1 1 calc R . . . .
H12B H 0.416890 0.781874 0.522044 0.023 Uiso 1 1 calc R . . . .
C14 C 0.57326(8) 0.80515(19) 0.6810(3) 0.0231(3) Uani 1 1 d . . . . .
H14A H 0.589652 0.711751 0.591603 0.028 Uiso 1 1 calc R . . . .
H14B H 0.558066 0.892888 0.523986 0.028 Uiso 1 1 calc R . . . .
C15 C 0.64295(8) 0.8636(2) 0.8636(4) 0.0279(4) Uani 1 1 d . . . . .
H15A H 0.686380 0.892102 0.740393 0.042 Uiso 1 1 calc GR . . . .
H15B H 0.658649 0.776976 1.018420 0.042 Uiso 1 1 calc GR . . . .
H15C H 0.627711 0.958538 0.947093 0.042 Uiso 1 1 calc GR . . . .
loop_
_atom_site_aniso_label
_atom_site_aniso_U_11
_atom_site_aniso_U_22
_atom_site_aniso_U_33
_atom_site_aniso_U_23
_atom_site_aniso_U_13
_atom_site_aniso_U_12
O2 0.0209(5) 0.0152(5) 0.0234(5) -0.0090(4) -0.0014(4) -0.0031(4)
O1 0.0228(5) 0.0152(5) 0.0267(6) -0.0084(4) -0.0007(4) 0.0012(4)
C7 0.0152(6) 0.0152(7) 0.0146(6) -0.0044(5) 0.0039(5) -0.0028(5)
C3 0.0178(6) 0.0144(7) 0.0174(7) -0.0057(5) 0.0053(5) -0.0022(5)
C1 0.0167(6) 0.0147(7) 0.0174(7) -0.0056(5) 0.0060(5) -0.0025(5)
C4 0.0179(6) 0.0169(7) 0.0171(7) -0.0066(5) 0.0056(5) -0.0065(5)
C2 0.0158(6) 0.0150(7) 0.0153(6) -0.0047(5) 0.0054(5) -0.0038(5)
C5 0.0180(6) 0.0167(7) 0.0191(7) -0.0040(5) 0.0012(5) -0.0016(5)
C6 0.0194(6) 0.0161(7) 0.0189(7) -0.0048(5) 0.0035(5) -0.0007(5)
C10 0.0178(6) 0.0184(7) 0.0177(7) -0.0069(5) 0.0020(5) -0.0030(5)
C8 0.0182(6) 0.0138(7) 0.0201(7) -0.0065(5) 0.0014(5) -0.0019(5)
C9 0.0181(6) 0.0182(7) 0.0178(7) -0.0083(5) 0.0028(5) -0.0038(5)
C11 0.0190(6) 0.0212(7) 0.0186(7) -0.0083(6) 0.0026(5) -0.0042(5)
C13 0.0188(6) 0.0204(7) 0.0210(7) -0.0069(6) 0.0032(5) -0.0033(5)
C12 0.0188(6) 0.0202(7) 0.0198(7) -0.0059(6) 0.0031(5) -0.0040(5)
C14 0.0191(6) 0.0257(8) 0.0255(8) -0.0061(6) 0.0049(5) -0.0039(6)
C15 0.0186(7) 0.0308(9) 0.0348(9) -0.0050(7) 0.0046(6) -0.0056(6)
loop_
_atom_type_symbol
_atom_type_description
_atom_type_scat_dispersion_real
_atom_type_scat_dispersion_imag
_atom_type_scat_source
C C 0.0181 0.0091 'International Tables Vol C Tables 4.2.6.8 and 6.1.1.4'
H H 0.0000 0.0000 'International Tables Vol C Tables 4.2.6.8 and 6.1.1.4'
O O 0.0492 0.0322 'International Tables Vol C Tables 4.2.6.8 and 6.1.1.4'
loop_
_exptl_crystal_face_index_h
_exptl_crystal_face_index_k
_exptl_crystal_face_index_l
_exptl_crystal_face_perp_dist
-11 -1 0 0.0270
-1 4 -1 0.1758
11 1 0 0.0270
1 -4 1 0.1758
-1 -5 0 0.0478
2 2 -2 0.1913
-2 0 3 0.3169
1 -3 -3 0.2006
0 5 0 0.0996
loop_
_geom_angle_atom_site_label_1
_geom_angle_atom_site_label_2
_geom_angle_atom_site_label_3
_geom_angle
_geom_angle_site_symmetry_1
_geom_angle_site_symmetry_3
_geom_angle_publ_flag
C4 O2 C8 118.59(10) . . ?
C2 C7 C1 121.68(12) . 2 ?
C6 C7 C1 119.32(12) . 2 ?
C6 C7 C2 118.99(12) . . ?
C4 C3 C2 119.09(12) . . ?
O1 C1 C7 121.25(12) . 2 ?
O1 C1 C2 121.04(12) . . ?
C7 C1 C2 117.70(12) 2 . ?
O2 C4 C3 124.93(12) . . ?
O2 C4 C5 114.83(12) . . ?
C3 C4 C5 120.24(12) . . ?
C7 C2 C3 120.86(13) . . ?
C7 C2 C1 120.58(12) . . ?
C3 C2 C1 118.56(12) . . ?
C6 C5 C4 120.13(13) . . ?
C5 C6 C7 120.69(13) . . ?
C11 C10 C9 113.28(10) . . ?
O2 C8 C9 105.75(10) . . ?
C8 C9 C10 112.74(10) . . ?
C10 C11 C12 112.83(10) . . ?
C12 C13 C14 113.35(11) . . ?
C13 C12 C11 113.65(11) . . ?
C15 C14 C13 112.94(12) . . ?
loop_
_geom_bond_atom_site_label_1
_geom_bond_atom_site_label_2
_geom_bond_distance
_geom_bond_site_symmetry_2
_geom_bond_publ_flag
O2 C4 1.3559(15) . ?
O2 C8 1.4436(16) . ?
O1 C1 1.2259(16) . ?
C7 C1 1.4811(17) 2 ?
C7 C2 1.3968(19) . ?
C7 C6 1.3962(19) . ?
C3 C4 1.3898(19) . ?
C3 C2 1.4037(17) . ?
C1 C2 1.4898(19) . ?
C4 C5 1.401(2) . ?
C5 C6 1.3800(18) . ?
C10 C9 1.5315(17) . ?
C10 C11 1.5259(16) . ?
C8 C9 1.5192(16) . ?
C11 C12 1.5289(17) . ?
C13 C12 1.5245(17) . ?
C13 C14 1.5284(18) . ?
C14 C15 1.5247(19) . ?
loop_
_exptl_oxdiff_crystal_face_indexfrac_h
_exptl_oxdiff_crystal_face_indexfrac_k
_exptl_oxdiff_crystal_face_indexfrac_l
_exptl_oxdiff_crystal_face_x
_exptl_oxdiff_crystal_face_y
_exptl_oxdiff_crystal_face_z
-10.8619 -0.7658 0.0133 -0.1784 0.9558 0.2337
-0.7651 4.2076 -1.4499 -0.0344 0.1931 -0.9806
10.8619 0.7658 -0.0133 0.1784 -0.9558 -0.2337
0.7651 -4.2076 1.4499 0.0344 -0.1931 0.9806
-0.5627 -5.2781 -0.1007 -0.4982 -0.0912 0.8623
1.8350 2.3684 -2.4315 -0.4375 -0.0831 -0.8954
-1.8387 0.4711 2.9654 0.8335 0.1562 0.5300
1.3864 -2.8896 -2.7070 -0.9805 -0.1827 -0.0724
-0.1027 5.3001 0.1758 0.5136 0.1511 -0.8446
