#------------------------------------------------------------------------------
#$Date: 2021-09-03 22:31:20 +0300 (Fri, 03 Sep 2021) $
#$Revision: 268395 $
#$URL: file:///home/coder/svn-repositories/cod/cif/4/51/89/4518963.cif $
#------------------------------------------------------------------------------
#
# This file is available in the Crystallography Open Database (COD),
# http://www.crystallography.net/
#
# All data on this site have been placed in the public domain by the
# contributors.
#
data_4518963
loop_
_publ_author_name
'Hasani, Morteza'
'Kalhor, Hamid R.'
_publ_section_title
;
 Enzyme-Inspired Lysine-Modified Carbon Quantum Dots Performing
 Carbonylation Using Urea and a Cascade Reaction for Synthesizing
 2-Benzoxazolinone
;
_journal_name_full               'ACS Catalysis'
_journal_page_first              10778
_journal_page_last               10788
_journal_paper_doi               10.1021/acscatal.1c01276
_journal_year                    2021
_chemical_formula_moiety         'C7 H5 N O2'
_chemical_formula_sum            'C7 H5 N O2'
_chemical_formula_weight         135.12
_space_group_crystal_system      orthorhombic
_space_group_IT_number           19
_space_group_name_Hall           'P 2ac 2ab'
_space_group_name_H-M_alt        'P 21 21 21'
_atom_sites_solution_hydrogens   geom
_audit_creation_method           SHELXL-2018/3
_cell_angle_alpha                90
_cell_angle_beta                 90
_cell_angle_gamma                90
_cell_formula_units_Z            4
_cell_length_a                   4.4456(13)
_cell_length_b                   6.653(4)
_cell_length_c                   21.0100(9)
_cell_measurement_reflns_used    2215
_cell_measurement_temperature    296(2)
_cell_measurement_theta_max      27.5
_cell_measurement_theta_min      1.76
_cell_volume                     621.4(4)
_computing_cell_refinement       'automar Data Processing Suite'
_computing_data_collection       'automar Data Processing Suite'
_computing_data_reduction        'automar Data Processing Suite'
_computing_molecular_graphics    SHELXTL
_computing_publication_material  'SHELXTL, PLATON (Spek, 2009)'
_computing_structure_refinement  SHELXTL
_computing_structure_solution    'SHELXTL (Sheldrick, 2008)'
_diffrn_ambient_temperature      296(2)
_diffrn_measured_fraction_theta_full 0.884
_diffrn_measured_fraction_theta_max 0.881
_diffrn_measurement_device_type  'MAR345 Diffractometer'
_diffrn_measurement_method       '\f scan'
_diffrn_radiation_monochromator  graphite
_diffrn_radiation_source         'fine-focus sealed tube'
_diffrn_radiation_type           MoK\a
_diffrn_radiation_wavelength     0.71073
_diffrn_reflns_av_R_equivalents  0.0710
_diffrn_reflns_av_unetI/netI     0.0455
_diffrn_reflns_Laue_measured_fraction_full 0.884
_diffrn_reflns_Laue_measured_fraction_max 0.881
_diffrn_reflns_limit_h_max       4
_diffrn_reflns_limit_h_min       -5
_diffrn_reflns_limit_k_max       8
_diffrn_reflns_limit_k_min       -8
_diffrn_reflns_limit_l_max       25
_diffrn_reflns_limit_l_min       -25
_diffrn_reflns_number            4094
_diffrn_reflns_point_group_measured_fraction_full 0.898
_diffrn_reflns_point_group_measured_fraction_max 0.890
_diffrn_reflns_theta_full        25.242
_diffrn_reflns_theta_max         25.879
_diffrn_reflns_theta_min         1.939
_diffrn_standards_decay_%        0.
_diffrn_standards_interval_count 0.
_diffrn_standards_interval_time  0.
_diffrn_standards_number         0.
_exptl_absorpt_coefficient_mu    0.108
_exptl_absorpt_correction_T_max  0.997
_exptl_absorpt_correction_T_min  0.993
_exptl_absorpt_correction_type   multi-scans
_exptl_crystal_colour            pale-yellow
_exptl_crystal_density_diffrn    1.444
_exptl_crystal_description       needle
_exptl_crystal_F_000             280
_exptl_crystal_size_max          0.120
_exptl_crystal_size_mid          0.060
_exptl_crystal_size_min          0.030
_refine_diff_density_max         0.107
_refine_diff_density_min         -0.127
_refine_diff_density_rms         0.034
_refine_ls_abs_structure_details
;
 Refined as an inversion twin.
;
_refine_ls_abs_structure_Flack   -1(3)
_refine_ls_extinction_expression Fc^*^=kFc[1+0.001xFc^2^\l^3^/sin(2\q)]^-1/4^
_refine_ls_extinction_method     none
_refine_ls_goodness_of_fit_ref   1.181
_refine_ls_hydrogen_treatment    constr
_refine_ls_matrix_type           full
_refine_ls_number_parameters     93
_refine_ls_number_reflns         1081
_refine_ls_number_restraints     0
_refine_ls_restrained_S_all      1.181
_refine_ls_R_factor_all          0.0428
_refine_ls_R_factor_gt           0.0413
_refine_ls_shift/su_max          0.000
_refine_ls_shift/su_mean         0.000
_refine_ls_structure_factor_coef Fsqd
_refine_ls_weighting_details
'w=1/[\s^2^(Fo^2^)+(0.0431P)^2^+0.0832P] where P=(Fo^2^+2Fc^2^)/3'
_refine_ls_weighting_scheme      calc
_refine_ls_wR_factor_gt          0.1002
_refine_ls_wR_factor_ref         0.1012
_reflns_Friedel_coverage         0.626
_reflns_Friedel_fraction_full    0.920
_reflns_Friedel_fraction_max     0.904
_reflns_number_gt                1046
_reflns_number_total             1081
_reflns_threshold_expression     'I > 2\s(I)'
_cod_data_source_file            cs1c01276_si_002.cif
_cod_data_source_block           compound
_cod_database_code               4518963
_shelx_shelxl_version_number     2018/3
_shelx_space_group_comment
;
The symmetry employed for this shelxl refinement is uniquely defined
by the following loop, which should always be used as a source of
symmetry information in preference to the above space-group names.
They are only intended as comments.
;
_shelx_estimated_absorpt_t_min   0.987
_shelx_estimated_absorpt_t_max   0.997
_shelx_res_file
;
TITL 3 in P212121 #19
    shelx.res
    created by SHELXL-2018/3 at 18:39:15 on 17-Mar-2021
CELL  0.71073   4.4456   6.6526  21.0100   90.000   90.000   90.000
ZERR     4.00   0.0013   0.0042   0.0009    0.000    0.000    0.000
LATT  -1
SYMM  1/2 - X, - Y, 1/2 + Z
SYMM  1/2 + X, 1/2 - Y, - Z
SYMM  - X, 1/2 + Y, 1/2 - Z
SFAC  C    H    N    O
UNIT  28 20 4 8
MERG   2
OMIT     1   0   2
OMIT     0   4   3
OMIT    -3   3   3
OMIT     2   0  10
OMIT     2   2  10
OMIT     1   0  10
OMIT     0   3   2
OMIT     4   0  17
OMIT    -2   2  10
OMIT     0   3   5
OMIT    -1   2   2
OMIT     1   2   2
OMIT    -3   6   3
OMIT     0   2  16
OMIT     3   3  12
OMIT     0   6  12
OMIT    -1   4   4
OMIT     3   0  15
OMIT     2   0   3
OMIT     2   0  18
OMIT     1   4   4
OMIT     0   4   7
OMIT    -1   2   9
OMIT     1   0  13
OMIT     0   1  11
OMIT     1   0   6
OMIT     0   2  12
OMIT     0   2   3
OMIT    -3   3  11
OMIT    -3   3  12
OMIT     1   1  14
OMIT     2   0   7
OMIT     0   5   2
OMIT     0   4   9
OMIT     1   0  14
OMIT     0   1  19
OMIT     1   1  13
OMIT     3   3  18
OMIT    -1   1  13
OMIT     0   4  11
OMIT     3   1  21
OMIT     3   3  15
OMIT     3   6   6
OMIT     1   2   9
OMIT     0   3  10
OMIT     3   3  11
OMIT    -3   6   9
OMIT     2   5  15
OMIT    -1   3   2
OMIT     1   3   2
TWIN
MORE -1
FMAP   2   53   53
PLAN    5
SIZE     0.030   0.060   0.120
ACTA
BOND
BOND   $H
CONF
L.S.  25
WGHT    0.043100    0.083200
FVAR      11.49212
C1    1    0.050380    1.010867    0.650833    11.00000    0.04945    0.05185 =
         0.04908    0.00113    0.00350   -0.00394
C2    1   -0.078964    1.197612    0.644934    11.00000    0.06924    0.05350 =
         0.07351   -0.00281    0.01424   -0.00485
AFIX  43
H2    2   -0.037487    1.300678    0.673522    11.00000   -1.20000
AFIX   0
C3    1   -0.273591    1.224473    0.594421    11.00000    0.06821    0.06582 =
         0.08670    0.02290    0.01506    0.01148
AFIX  43
H3    2   -0.365800    1.348805    0.589053    11.00000   -1.20000
AFIX   0
C4    1   -0.335024    1.073747    0.551998    11.00000    0.06010    0.09010 =
         0.06533    0.01803   -0.00079    0.00700
AFIX  43
H4    2   -0.467288    1.098329    0.518598    11.00000   -1.20000
AFIX   0
C5    1   -0.205364    0.886460    0.557656    11.00000    0.06021    0.07889 =
         0.05282   -0.00380   -0.00444   -0.00132
AFIX  43
H5    2   -0.246721    0.783485    0.529026    11.00000   -1.20000
AFIX   0
C6    1   -0.012341    0.860328    0.607735    11.00000    0.04995    0.05250 =
         0.04775    0.00047    0.00207   -0.00052
C7    1    0.313970    0.735066    0.676855    11.00000    0.06627    0.06267 =
         0.05209    0.00611   -0.00325    0.00354
N3    3    0.254426    0.926567    0.693624    11.00000    0.06702    0.06344 =
         0.04897   -0.00381   -0.00736   -0.00385
AFIX  43
H3N1  2    0.330815    0.987627    0.725880    11.00000   -1.20000
AFIX   0
O1    4    0.479582    0.612919    0.701244    11.00000    0.10142    0.08897 =
         0.07225    0.01566   -0.01516    0.02646
O2    4    0.148313    0.689334    0.623760    11.00000    0.06704    0.05336 =
         0.05964   -0.00514   -0.00724    0.00623
HKLF    4




REM  3 in P212121 #19
REM wR2 = 0.1012, GooF = S = 1.181, Restrained GooF = 1.181 for all data
REM R1 = 0.0413 for 1046 Fo > 4sig(Fo) and 0.0428 for all 1081 data
REM 93 parameters refined using 0 restraints

END

WGHT      0.0423      0.0849

REM Highest difference peak  0.107,  deepest hole -0.127,  1-sigma level  0.034
Q1    1   0.3165  0.7898  0.5988  11.00000  0.05    0.11
Q2    1   0.2710  0.5762  0.7246  11.00000  0.05    0.10
Q3    1   0.3714  0.8586  0.6127  11.00000  0.05    0.10
Q4    1   0.3960  0.7363  0.7442  11.00000  0.05    0.10
Q5    1   0.1052  0.7610  0.5585  11.00000  0.05    0.10
;
_shelx_res_checksum              73778
_shelx_hkl_file
;
   0  -1   0   33.43    9.60  65-0.03952 0.03953-0.05396-0.05276 0.99776-0.99782
   0   1   0   24.32   10.00  69-0.03343 0.03343 0.05368 0.05303 0.99800-0.99803
  -1  -1   029693.30  760.00  63-0.04225-0.11754-0.10476-0.00195 0.99360-0.99307
   1  -1   028204.70  610.50  58-0.04955 0.20947-0.25070 0.14405 0.96679-0.96715
   1   1   028479.74  189.30  74-0.02342 0.18343 0.21604-0.10942 0.97610-0.97692
  -2  -1   0   28.58   10.50  55-0.05425-0.26505-0.35539 0.24829 0.93314-0.93172
   2  -1   0   36.96    7.20  40-0.06604 0.38525-0.71815 0.61066 0.69275-0.69186
   2   1   0   43.68   15.00  87 0.00049 0.31979 0.54791-0.44201 0.83654-0.83807
  -2   1   0   34.61   10.00  85-0.00211-0.31723 0.51520-0.40802 0.85707-0.85609
  -3  -1   0  981.37   18.10   3-0.04131-0.43811-0.94244 0.83548-0.33180 0.33170
  -3  -1   0 1042.09   15.90  34-0.06727-0.41200-0.82210 0.71489 0.56536-0.56497
   0  -2   056823.29  339.90  63-0.04242 0.04243-0.10788-0.10557 0.99326-0.99351
   0   2   060927.77  958.60  71-0.03024 0.03025 0.10713 0.10630 0.99378-0.99387
  -1  -2   079064.92 2274.60  62-0.04369-0.11612-0.13229-0.08111 0.99025-0.98992
   1   2   0 2599.21-1013.20  73-0.02505 0.18511 0.19076 0.02269 0.98132-0.98246
  -1   2   073959.80  564.20  72-0.02823-0.13148 0.14011 0.07323 0.98973-0.98861
  -2  -2   0 9635.96   61.90  58-0.05048-0.26923-0.27072 0.05730 0.96133-0.96137
   2  -2   010255.28  127.20  52-0.05752 0.37747-0.43537 0.22209 0.89841-0.89900
   2   2   010478.30  106.60  80-0.01307 0.33298 0.36862-0.15529 0.92949-0.93006
  -2   2   010694.10  147.60  78-0.01687-0.30241 0.31433-0.10077 0.94916-0.94784
  -3  -2   0  248.23  -49.90  49-0.05985-0.41854-0.49795 0.28373 0.86514-0.86274
   3  -2   0 3761.77   69.10  36-0.06714 0.54691-0.79825 0.58506 0.59858-0.59882
   3   2   0 3552.64   60.60  90 0.00767 0.47245 0.63385-0.42093 0.77342-0.77435
  -3   2   0 3722.14   66.10  91 0.00954-0.48788 0.65522-0.44070 0.75538-0.75350
  -4  -2   0  387.34   13.40   3-0.04122-0.59829-0.94189 0.72859-0.33340 0.33346
  -4  -2   0  397.80   15.10  32-0.06727-0.57107-0.85427 0.63966 0.51545-0.51450
   0  -3   0 2561.67  -70.80  61-0.04533 0.04540-0.16446-0.15590 0.98534-0.98673
   0   3   0 1000.10  -65.90  72-0.02703 0.02703 0.15932 0.16078 0.98686-0.98662
  -1  -3   0106595.4   223.1  61-0.04589-0.11391-0.17539-0.14466 0.98343-0.98290
   1  -3   0103306.9   211.0  59-0.04831 0.20819-0.22464-0.09551 0.97324-0.97341
   1   3   0108673.9   240.6  74-0.02354 0.18354 0.21426 0.10597 0.97649-0.97728
  -1   3   0107677.6   223.7  73-0.02544-0.13429 0.18455 0.13547 0.98249-0.98164
  -2  -3   019812.49  100.60  58-0.05027-0.26914-0.26611-0.05397 0.96263-0.96159
   2  -3   020904.75   91.90  54-0.05517 0.37517-0.37720 0.05711 0.92449-0.92520
  -2   3   020687.92  101.90  77-0.01799-0.30135 0.29793 0.02218 0.95442-0.95326
   2   3   019981.31  231.60  79-0.01502 0.33539 0.34093-0.02084 0.93997-0.94185
  -3  -3   0 2692.84   46.70  52-0.05734-0.42186-0.43073 0.11051 0.90066-0.89990
   3  -3   0 2656.45   63.10  44-0.06367 0.54375-0.61764 0.29779 0.78388-0.78464
   3   3   0 2546.18   63.70  86-0.00115 0.48169 0.52736-0.20764 0.84964-0.85139
  -4  -3   0  212.84   19.30  42-0.06493-0.57400-0.66631 0.34588 0.74284-0.74222
   4  -3   0  105.95   10.50  26-0.06580 0.70604-0.93373 0.61432 0.35188-0.35229
   4   3   0  114.55   26.20  96 0.01961 0.62042 0.76260-0.44291 0.64658-0.64723
  -4   3   0  208.83   18.40 101 0.02848-0.66580 0.84572-0.52395 0.53287-0.53121
   0  -4   0 2037.33   62.30  60-0.04775 0.04775-0.21325-0.21358 0.97583-0.97576
   0   4   0 2078.35   55.40  74-0.02357 0.02357 0.21374 0.21313 0.97661-0.97674
   1  -4   013516.09  165.30  58-0.05016 0.21016-0.26375-0.16321 0.96329-0.96395
  -1  -4   013110.67  135.60  59-0.04831-0.11152-0.22464-0.20215 0.97324-0.97298
  -1   4   013722.95  170.50  75-0.02228-0.13749 0.23361 0.19312 0.97207-0.97149
   1   4   013481.26  167.60  76-0.02088 0.18102 0.25490 0.17222 0.96674-0.96828
  -2  -4   0 5973.20  105.30  57-0.05152-0.26805-0.29337-0.13341 0.95461-0.95412
   2  -4   0 6953.95  137.70  54-0.05514 0.37515-0.37640-0.05049 0.92482-0.92559
   2   4   0 5196.81   86.00  79-0.01459 0.33472 0.34707 0.07988 0.93773-0.93892
  -2   4   0 7335.49  161.40  78-0.01659-0.30280 0.31832 0.10842 0.94784-0.94687
   3  -4   0 4230.74   90.20  47-0.06177 0.54189-0.55465 0.12794 0.82979-0.83065
  -3  -4   0 4116.00   85.20  52-0.05680-0.42243-0.41718-0.00966 0.90705-0.90635
   3   4   0 4265.96   89.70  84-0.00395 0.48440 0.49159-0.06486 0.87082-0.87244
  -3   4   0 4669.33   88.30  84-0.00549-0.47303 0.47150-0.04456 0.88185-0.87992
  -4  -4   0  769.44   39.10  45-0.06305-0.57590-0.59601 0.16903 0.80050-0.79986
   4  -4   0  670.71   26.80  36-0.06710 0.70691-0.79417 0.36753 0.60398-0.60432
   4   4   0  898.69   46.10  92 0.01188 0.62935 0.68131-0.25521 0.73189-0.73402
  -4   4   0  987.09   40.10  93 0.01426-0.65186 0.70718-0.27956 0.70689-0.70493
   0  -5   0  196.49   34.20  58-0.05032 0.05032-0.26711-0.26649 0.96235-0.96252
   0   5   0  139.94   57.60  76-0.02009 0.02009 0.26668 0.26687 0.96358-0.96352
  -1  -5   0 6351.82  125.80  58-0.05067-0.10914-0.27469-0.25875 0.96020-0.95976
   1  -5   0 6843.34  125.50  56-0.05226 0.21251-0.30988-0.22410 0.94934-0.95111
   1   5   0 6882.91  110.50  77-0.01800 0.17801 0.29776 0.23600 0.95447-0.95531
  -1   5   0 6701.63  123.60  77-0.01894-0.14082 0.28386 0.24954 0.95868-0.95807
   2  -5   0 3010.25   72.00  53-0.05601 0.37601-0.39760-0.13607 0.91585-0.91657
  -2  -5   0 2700.52   88.40  56-0.05303-0.26617-0.32724-0.20593 0.94345-0.94167
   2   5   0 2782.74   84.10  80-0.01276 0.33295 0.37291 0.16088 0.92778-0.92912
  -2   5   0 2926.61   77.70  79-0.01424-0.30516 0.35213 0.18125 0.93584-0.93489
  -3  -5   0  565.43   37.00  52-0.05729-0.42200-0.42963-0.10386 0.90118-0.90063
   3  -5   0  557.62   40.10  48-0.06130 0.54168-0.54023 0.00668 0.83928-0.84056
  -3   5   0  495.12   50.20  84-0.00533-0.47325 0.47364 0.05980 0.88070-0.87890
  -4  -5   0   49.63   44.30  46-0.06261-0.57883-0.58145 0.04806 0.81117-0.81403
   4  -5   0  156.34   28.30  39-0.06622 0.70524-0.72823 0.19456 0.68213-0.68175
   4   5   0  249.89   50.70  91 0.00847 0.63204 0.64304-0.10967 0.76579-0.76713
  -4   5   0  102.23   37.70  91 0.01030-0.65022 0.66372-0.13027 0.74791-0.74850
   0  -6   0  244.72   40.70  56-0.05275 0.05277-0.32073-0.31966 0.94570-0.94606
   0   6   0  153.39   68.30  78-0.01643 0.01644 0.32063 0.31974 0.94706-0.94736
  -1  -6   0 9846.14  222.70  56-0.05306-0.10686-0.32785-0.31262 0.94324-0.94385
   1  -6   010264.26  177.90  55-0.05424 0.21430-0.35516-0.28539 0.93323-0.93414
   1   6   010713.37  299.80  79-0.01473 0.17473 0.34510 0.29542 0.93845-0.93925
  -1   6   010611.69  258.40  79-0.01539-0.14440 0.33564 0.30451 0.94187-0.94150
  -2  -6   0 7600.78  169.10  54-0.05494-0.26462-0.37171-0.26842 0.92672-0.92624
   2  -6   0 8734.24  163.10  52-0.05731 0.37739-0.43010-0.21037 0.90096-0.90184
   2   6   0 8055.42  178.90  81-0.01026 0.33049 0.40755 0.23309 0.91313-0.91457
  -2   6   0 8456.68  163.10  81-0.01137-0.30796 0.39235 0.24762 0.91975-0.91861
  -3  -6   0  759.16   53.90  51-0.05828-0.42105-0.45525-0.18492 0.88845-0.88799
   3  -6   0 1066.08   57.50  47-0.06153 0.54159-0.54727-0.09309 0.83469-0.83547
   3   6   0  436.53   60.70  85-0.00294 0.48334 0.50465 0.13586 0.86332-0.86483
  -3   6   0 1023.22   71.70  84-0.00380-0.47476 0.49361 0.14636 0.86968-0.86786
   0  -7   0  154.31   42.70  54-0.05504 0.05506-0.37397-0.37314 0.92580-0.92614
   0   7   0  103.56   45.60  80-0.01268 0.01269 0.37404 0.37310 0.92733-0.92771
  -1  -7   0 1355.94   65.80  54-0.05524-0.10461-0.37882-0.36818 0.92382-0.92385
   1  -7   0 1421.02   64.50  53-0.05625 0.21625-0.40351-0.34370 0.91325-0.91384
   1   7   0 1299.95  105.50  81-0.01051 0.17182 0.40421 0.34572 0.91461-0.92247
  -1   7   0 1564.67   96.00  80-0.01171-0.14809 0.38763 0.35923 0.92174-0.92143
  -2  -7   0 1930.95   85.90  52-0.05682-0.26287-0.41751-0.32945 0.90689-0.90684
   2  -7   0 1967.25   83.80  50-0.05878 0.37892-0.46861-0.27869 0.88145-0.88247
  -2   7   0 1881.91  107.70  82-0.00810-0.31125 0.43692 0.30971 0.89947-0.89844
   2   7   0 1534.92  110.90  83-0.00728 0.32768 0.44787 0.29975 0.89407-0.89598
   0  -8   0  -74.86   57.50  52-0.05721 0.05725-0.42759-0.42638 0.90216-0.90273
   0   8   0   78.11   62.30  82-0.00880 0.00880 0.42749 0.42644 0.90398-0.90447
  -1  -8   0   33.93   55.50  52-0.05737-0.10252-0.43152-0.42234 0.90028-0.90062
   1  -8   0    1.36   58.90  51-0.05823 0.21829-0.45385-0.40023 0.88917-0.89004
   1   8   0  156.55   76.10  82-0.00761 0.16749 0.44341 0.41034 0.89629-0.89642
   0   0  -1    2.99    1.90  13-0.05597 0.05597-0.99828 0.99829-0.01720-0.01662
   0   0   1   -2.19    1.90  15-0.05758 0.05760-0.99797 0.99832 0.02727 0.00656
  -1   0  -131269.41  273.50   9-0.05048-0.10935-0.98732 0.98713-0.15051 0.11667
   1   0   131146.42  311.30  41-0.06559 0.22552-0.69580 0.69605 0.71524-0.68166
  -1   0   132028.08  413.60  18-0.06024-0.09961-0.99223 0.99219 0.10887-0.07505
  -1   0   128016.61  493.30 102 0.03024-0.18990 0.86080-0.85994 0.50805-0.47375
   0  -1  -161576.71   91.30  55-0.05421 0.05421-0.35434 0.24762 0.93354-0.96734
   0   1   161239.34  614.80  58-0.04945 0.04944-0.24856 0.35525 0.96735-0.93346
  -1   1   1355779.5-10555.5  60-0.04743-0.11238-0.20652 0.31310 0.97729-0.94305
   1   1  -1313659.4  3113.3  84-0.00543 0.16540 0.47229-0.36582 0.88143-0.91587
   1   1   1313430.9  3443.0  65-0.04052 0.20047-0.07229 0.17908 0.99656-0.96319
  -1   1  -1337020.4  3726.7  82-0.00755-0.15219 0.44425-0.33729 0.89587-0.92902
  -2  -1  -1   76.79  -12.80  45-0.06318-0.25651-0.60055 0.49381 0.79709-0.83088
   2   1  -1  363.16   16.70  94 0.01576 0.30439 0.72306-0.61725 0.69061-0.72550
   2  -1   1  332.89   10.60  52-0.05725 0.37716-0.42853 0.32200 0.90171-0.86837
  -2   1   1  336.80   15.90  71-0.02949-0.28975 0.11960-0.01287 0.99238-0.95702
   2   1   1  362.40   15.90  77-0.01787 0.33796 0.29971-0.19322 0.95386-0.92111
  -2  -1   1  410.94   18.20  64-0.04187-0.27785-0.09750-0.00922 0.99435-0.96058
  -2   1  -1  364.20   11.70  97 0.02195-0.34115 0.78564-0.67794 0.61829-0.65116
   2  -1  -1  358.05    8.80  30-0.06697 0.38691-0.88812 0.78188 0.45471-0.48883
  -3  -1  -111162.40  238.10  25-0.06542-0.41397-0.94244 0.83540 0.32790-0.36158
   3   1   110345.11   89.90 102 0.03011 0.45042 0.85974-0.75467 0.50985-0.47707
  -3  -1   111292.03  217.80   7-0.04847-0.43108-0.97983 0.87311-0.19387 0.22770
  -3  -1   110745.85  218.40  46-0.06289-0.41631-0.59055 0.48342 0.80455-0.77006
   0   2  -142160.93  128.80  76-0.02042 0.02042 0.26180-0.04837 0.96491-0.99862
   0   2   140830.47  264.40  65-0.03924 0.03924-0.04882 0.26225 0.99804-0.96420
   0  -2   1 1018.44  -62.70  68-0.03475 0.03488 0.03105-0.24541 0.99891-0.96879
  -1  -2  -113697.86 -160.50  58-0.05072-0.10896-0.27582 0.06229 0.95987-0.99209
   1   2  -1 5930.45  122.60  78-0.01567 0.17556 0.33166-0.11827 0.94327-0.97734
   1  -2   1 5976.66  108.90  66-0.03892 0.19889-0.04294-0.17058 0.99832-0.96506
  -1   2   1 6034.99  169.70  66-0.03760-0.12220-0.01922 0.23255 0.99911-0.96488
   1   2   115210.74 1225.10  69-0.03383 0.19411 0.04684 0.16696 0.99833-0.96667
  -1  -2   1 6284.30  117.30  68-0.03542-0.12433 0.01932-0.23256 0.99919-0.96460
  -1   2  -1 5948.21  159.00  77-0.01768-0.14204 0.30252-0.08901 0.95298-0.98585
   1  -2  -1 5836.98  127.50  55-0.05444 0.21440-0.35988 0.14652 0.93141-0.96569
  -2  -2  -119338.95   80.00  53-0.05651-0.26327-0.40979 0.19642 0.91043-0.94451
   2   2  -119307.96  431.50  85-0.00350 0.32361 0.49740-0.28433 0.86751-0.90246
   2  -2   119738.01  588.10  57-0.05079 0.37084-0.27729 0.06393 0.95944-0.92649
  -2   2   119488.04  242.60  72-0.02815-0.29102 0.14130 0.07200 0.98957-0.95400
   2   2   119974.37   87.90  75-0.02219 0.34240 0.23497-0.02158 0.97175-0.93931
  -2  -2   120881.91   85.70  63-0.04315-0.27625-0.12181-0.09151 0.99161-0.95672
  -2   2  -119252.76  263.80  84-0.00528-0.31402 0.47434-0.26058 0.88033-0.91296
   2  -2  -121993.27  298.10  46-0.06238 0.38227-0.57391 0.36066 0.81654-0.85076
  -3  -2  -1  207.53   18.70  44-0.06373-0.41501-0.61974 0.40552 0.78221-0.81444
   3   2  -1   76.35   21.90  95 0.01662 0.46426 0.73209-0.52015 0.68100-0.71687
   3  -2   1  148.09   10.30  42-0.06529 0.54513-0.68186 0.46869 0.72856-0.69510
  -3   2   1  204.03   15.20  84-0.00407-0.47440 0.49009-0.27603 0.87166-0.83592
   3   2   1   84.41   19.00  86-0.00127 0.48181 0.52579-0.31300 0.85062-0.81846
  -3  -2   1  264.66   20.60  54-0.05465-0.42370-0.36467 0.15081 0.92953-0.89316
  -3   2  -1  201.70   14.60  97 0.02155-0.49967 0.78181-0.56675 0.62314-0.65508
   3  -2  -1  207.25   12.20  31-0.06714 0.54657-0.87415 0.66057 0.48100-0.51470
  -4  -2  -1 2939.84   56.50  27-0.06611-0.57293-0.92531 0.71143 0.37340-0.40696
   4   2   1 2850.54   49.70 105 0.03584 0.60518 0.90511-0.69353 0.42366-0.39087
  -4  -2   1 2711.09   64.10   6-0.04586-0.59342-0.96796 0.75437-0.24689 0.28066
  -4  -2   1 2946.58   48.60  38-0.06671-0.57204-0.75939 0.54534 0.64720-0.61268
   0  -3  -111044.02   75.50  58-0.05016 0.05016-0.26375-0.05638 0.96329-0.99715
   0   3  -111919.82  106.00  76-0.02031 0.02031 0.26348 0.05665 0.96445-0.99819
   0   3   112022.90  108.70  69-0.03324 0.03324 0.05698 0.26320 0.99782-0.96417
   0  -3   112308.96  116.50  65-0.03970 0.03971-0.05726-0.26294 0.99757-0.96399
   1  -3   1 3683.54   56.90  63-0.04307 0.20305-0.12043-0.19983 0.99179-0.95856
  -1  -3  -1 3544.59   72.90  57-0.05079-0.10905-0.27736-0.04277 0.95942-0.99312
   1   3  -1 4007.85   72.90  78-0.01696 0.17695 0.31294 0.00720 0.94962-0.98419
  -1   3   1 3419.06  105.80  70-0.03184-0.12801 0.08059 0.23954 0.99624-0.96241
   1   3   1 3662.96   77.20  71-0.02975 0.18982 0.11531 0.20506 0.99288-0.96017
  -1   3  -1 3756.16   65.70  77-0.01841-0.14136 0.29177 0.02835 0.95631-0.98955
  -1  -3   1 3540.58   84.70  64-0.04079-0.11911-0.07726-0.24297 0.99618-0.96269
   1  -3  -1 3673.28   64.40  56-0.05303 0.21284-0.32724 0.00710 0.94345-0.97706
   2   3  -118717.00  111.20  82-0.00857 0.32882 0.43064-0.11069 0.90248-0.93788
  -2  -3  -118568.58  244.50  54-0.05460-0.26496-0.36358 0.04342 0.92996-0.96328
   2  -3   118484.07  192.70  58-0.05062 0.37068-0.27362-0.04656 0.96050-0.92759
  -2   3   122116.14  516.00  73-0.02506-0.29443 0.19054 0.12951 0.98136-0.94686
  -2   3  -118290.60   99.50  81-0.01053-0.30880 0.40389-0.08365 0.91475-0.94744
   2   3   118797.67  192.40  75-0.02154 0.34171 0.24486 0.07537 0.96932-0.93678
  -2  -3   118021.65  221.70  61-0.04544-0.27378-0.16655-0.15331 0.98498-0.94949
   2  -3  -122736.28  345.00  50-0.05884 0.37814-0.47003 0.14974 0.88069-0.91356
  -3   3   1 2097.66   47.90  81-0.01061-0.46810 0.40277-0.08249 0.91524-0.87982
  -3  -3  -1 2104.43   45.70  49-0.06053-0.41860-0.51741 0.19707 0.85360-0.88653
   3   3  -1 2883.91   88.50  89 0.00446 0.47464 0.59619-0.27579 0.80283-0.83586
   3  -3   1 2087.84   44.10  48-0.06089 0.54132-0.52780 0.20800 0.84718-0.81468
  -3   3  -1 2288.21   51.60  89 0.00534-0.48389 0.60657-0.28584 0.79501-0.82713
   3   3   1 2150.93   57.50  82-0.00760 0.48807 0.44361-0.12371 0.89619-0.86399
  -3  -3   1 2126.77   44.40  55-0.05353-0.42561-0.33857 0.01842 0.93942-0.90472
   3  -3  -1 1847.89   33.90  41-0.06566 0.54601-0.69915 0.37957 0.71195-0.74686
  -4  -3  -1 4270.92   78.50  39-0.06636-0.57255-0.73630 0.41580 0.67340-0.70661
   4   3  -1 4289.86   93.60  99 0.02539 0.61553 0.81806-0.49915 0.57457-0.60989
   4  -3   1 4081.19   95.90  30-0.06697 0.70683-0.88811 0.56834 0.45472-0.42117
  -4   3   1 3985.17   82.20  96 0.01967-0.65733 0.76316-0.44185 0.64591-0.61047
   4   3   1 3716.42   83.60  93 0.01407 0.62688 0.70506-0.38588 0.70901-0.67685
  -4  -3   1 4060.05  100.00  46-0.06269-0.57566-0.58395 0.26333 0.80937-0.77412
  -4   3  -1 4060.01   81.30 105 0.03610-0.67341 0.90706-0.58510 0.41945-0.45187
   4  -3  -1 3781.24  103.40  24-0.06446 0.70401-0.95895 0.63894 0.27615-0.31004
   0  -4  -140934.10  162.60  57-0.05142 0.05143-0.29104-0.13584 0.95533-0.98939
   0   4  -140271.46  177.10  77-0.01846 0.01847 0.29094 0.13593 0.95656-0.99055
   0   4   137960.67  725.70  72-0.02839 0.02841 0.13740 0.28959 0.99011-0.95673
   0  -4   140354.79  812.90  62-0.04395 0.04397-0.13728-0.28969 0.98956-0.95611
   1   4  -112260.71  104.50  78-0.01598 0.17595 0.32722 0.09970 0.94481-0.97934
  -1   4   112399.79  150.50  72-0.02735-0.13238 0.15415 0.27246 0.98767-0.95302
  -1  -4  -111404.81  120.30  57-0.05178-0.10799-0.29911-0.12764 0.95281-0.98592
   1  -4   111822.18  138.20  61-0.04633 0.20618-0.18422-0.24262 0.98179-0.94796
   1   4   111700.92  129.30  73-0.02578 0.18585 0.17924 0.24791 0.98347-0.95079
  -1  -4   112064.39  181.20  62-0.04453-0.11527-0.14857-0.27814 0.98790-0.95360
   1  -4  -111938.99  125.00  55-0.05360 0.21356-0.34029-0.08660 0.93879-0.97308
  -1   4  -112241.73  155.50  78-0.01696-0.14285 0.31294 0.11387 0.94962-0.98317
  -2   4   112024.44  207.40  75-0.02200-0.29729 0.23785 0.18874 0.97105-0.93595
  -2  -4  -110627.30  153.30  54-0.05470-0.26487-0.36596-0.06085 0.92902-0.96236
   2   4  -111285.82  148.50  81-0.00963 0.32967 0.41615 0.01071 0.90924-0.94403
   2  -4   110287.88  125.90  57-0.05178 0.37170-0.29911-0.12781 0.95281-0.91951
   2  -4  -110903.91  255.50  51-0.05810 0.37810-0.45044 0.02361 0.89092-0.92546
   2   4   111415.98  138.80  76-0.01961 0.33945 0.27389 0.15302 0.96156-0.92810
  -2  -4   110886.34  158.50  59-0.04808-0.27147-0.21999-0.20675 0.97432-0.93998
  -2   4  -110765.34  184.50  81-0.01110-0.30821 0.39598 0.03082 0.91819-0.95082
  -3  -4  -1 2185.58   50.30  50-0.05938-0.41987-0.48492 0.05803 0.87254-0.90572
   3  -4   1 2265.42   53.60  50-0.05934 0.53937-0.48370 0.05690 0.87322-0.84014
   3   4  -1 2290.25   73.70  87 0.00143 0.48044 0.55948-0.13328 0.82884-0.86684
  -3   4   1 2153.05   61.40  81-0.01119-0.46757 0.39480 0.03199 0.91870-0.88338
   3   4   1 2044.89   63.90  82-0.00874 0.48953 0.42828-0.00144 0.90360-0.87198
  -3  -4   1 2030.84   49.20  55-0.05389-0.42523-0.34700-0.07976 0.93631-0.90157
  -3   4  -1 2306.46   66.00  86 0.00037-0.47900 0.54641-0.11933 0.83752-0.86966
   3  -4  -1 2382.21   55.20  44-0.06375 0.54397-0.62059 0.19398 0.78154-0.81637
  -4  -4  -1   71.55   27.30  43-0.06481-0.57594-0.66127 0.23497 0.74734-0.78299
   4   4  -1  119.78   31.50  95 0.01629 0.62447 0.72860-0.30241 0.68475-0.72013
   4  -4   1   20.01   21.10  39-0.06651 0.70737-0.74556 0.31937 0.66311-0.63058
  -4   4   1  120.94   26.90  91 0.00852-0.64733 0.64363-0.21658 0.76529-0.73079
  -4  -4   1   54.02   23.10  48-0.06106-0.57778-0.53303 0.10607 0.84389-0.80927
   4   4   1   65.64   34.70  89 0.00626 0.63192 0.61739-0.19017 0.78663-0.75134
  -4   4  -1   79.43   27.70  96 0.02008-0.65746 0.76732-0.33943 0.64095-0.67270
   4  -4  -1   73.34   18.80  34-0.06730 0.70588-0.83500 0.40768 0.54611-0.57926
   0   5  -1 9844.58  128.00  78-0.01592 0.01592 0.32804 0.20555 0.94453-0.97852
   0  -5  -1 8651.50  128.50  56-0.05266 0.05241-0.31875-0.21378 0.94638-0.97548
   0   5   1 9615.08  118.10  74-0.02406 0.02406 0.20625 0.32738 0.97820-0.94459
   0  -5   1 9614.02  131.60  60-0.04741 0.04742-0.20618-0.32743 0.97736-0.94369
   1   5  -1 7752.33  169.90  79-0.01391 0.17391 0.35669 0.17701 0.93412-0.96872
  -1  -5  -1 7749.56  125.40  55-0.05342-0.10647-0.33615-0.19749 0.94029-0.97451
   1  -5   1 7403.73  125.50  59-0.04933 0.20929-0.24618-0.28753 0.96797-0.93463
  -1   5   1 7870.84  169.10  75-0.02301-0.13679 0.22243 0.31101 0.97468-0.94051
   1   5   1 7662.47  124.60  75-0.02196 0.18197 0.23852 0.29530 0.97089-0.93791
  -1   5  -1 7556.04  134.30  79-0.01466-0.14513 0.34609 0.18739 0.93809-0.97150
   1  -5  -1 7585.66  127.30  54-0.05479 0.21475-0.36799-0.16565 0.92821-0.96252
  -1  -5   1 7130.78  118.40  60-0.04775-0.11196-0.21325-0.31990 0.97583-0.94081
   2   5  -1 1465.86   65.90  82-0.00865 0.32896 0.42954 0.10421 0.90301-0.93858
  -2   5   1 1471.05   59.00  77-0.01853-0.30086 0.28994 0.24337 0.95687-0.92209
  -2  -5  -1 1574.84   66.40  54-0.05562-0.26398-0.38789-0.14561 0.92003-0.95347
   2  -5   1 1456.77   64.40  55-0.05351 0.37364-0.33824-0.19553 0.93954-0.90673
   2   5   1 1340.37   62.60  78-0.01674 0.33692 0.31617 0.21770 0.94856-0.91602
   2  -5  -1 1675.67   52.10  51-0.05833 0.37836-0.45649-0.07714 0.88781-0.92244
  -2  -5   1 1359.84   72.70  58-0.05008-0.26813-0.26207-0.26998 0.96375-0.92478
  -2   5  -1 1530.21   67.10  81-0.00987-0.30941 0.41289 0.12051 0.91073-0.94326
  -3  -5  -1 1845.72   54.40  50-0.05935-0.41993-0.48416-0.04937 0.87297-0.90621
   3  -5   1 1548.79   50.20  50-0.05932 0.53939-0.48309-0.05052 0.87356-0.84054
   3   5  -1 1605.57   80.10  86 0.00020 0.48139 0.54429-0.01078 0.83890-0.87644
  -3   5   1 1749.87   69.00  81-0.00991-0.46858 0.41244 0.12084 0.91093-0.87512
  -3  -5   1 1857.95   62.10  54-0.05501-0.42412-0.37333-0.16007 0.92607-0.89135
  -3   5  -1 1525.07   52.70  86-0.00073-0.47788 0.53264 0.00091 0.84634-0.87843
   3   5   1 1787.37   76.50  82-0.00789 0.48906 0.43967 0.09420 0.89812-0.86715
   3  -5  -1 1722.86   63.70  46-0.06295 0.54302-0.59262 0.05912 0.80302-0.83764
  -4  -5  -1  151.01   40.00  44-0.06369-0.57396-0.61855 0.08474 0.78316-0.81449
   4   5  -1   86.70   45.80  92 0.01223 0.62805 0.68510-0.15175 0.72835-0.76323
   4  -5   1  119.44   28.60  42-0.06530 0.70450-0.68254 0.14893 0.72793-0.69390
  -4   5   1   67.32   40.90  89 0.00542-0.64497 0.60754-0.07400 0.79427-0.76062
   4   5   1   68.05   47.60  88 0.00439 0.63520 0.59533-0.06179 0.80347-0.76987
  -4  -5   1  182.35   39.60  48-0.06065-0.57770-0.52090-0.01263 0.85146-0.81615
  -4   5  -1  122.87   45.30  94 0.01446-0.65258 0.70929-0.17539 0.70476-0.73714
   4  -5  -1   68.02   30.00  37-0.06691 0.70783-0.77500 0.24196 0.62841-0.66365
   0  -6  -1 6413.00  115.10  54-0.05489 0.05490-0.37042-0.26992 0.92724-0.96132
   0   6  -1 7163.86  132.60  80-0.01294 0.01294 0.37048 0.26986 0.92875-0.96281
   0   6   1 7222.76  139.30  76-0.01986 0.01986 0.27020 0.37008 0.96260-0.92879
   0  -6   1 6120.71  124.90  58-0.05048 0.05050-0.27072-0.36966 0.96133-0.92779
  -1  -6  -1 6932.96  129.70  54-0.05512-0.10472-0.37591-0.26433 0.92501-0.95873
   1   6  -1 7432.50  159.40  81-0.01114 0.17134 0.39542 0.24534 0.91843-0.95418
   1  -6   1 7259.27  136.10  56-0.05206 0.21213-0.30534-0.33527 0.95082-0.91793
  -1   6   1 7161.97  163.30  77-0.01890-0.14085 0.28448 0.35553 0.95850-0.92399
   1   6   1 7141.58  143.30  77-0.01808 0.17811 0.29660 0.34401 0.95483-0.92192
   1  -6  -1 7054.49  145.60  53-0.05628 0.21625-0.40414-0.23626 0.91296-0.94732
  -1  -6   1 7244.31  171.00  57-0.05083-0.10906-0.27818-0.36222 0.95918-0.92569
  -1   6  -1 7714.84  156.10  80-0.01188-0.14783 0.38524 0.25478 0.92274-0.95563
   2   6  -1   48.34   50.50  83-0.00680 0.32712 0.45423 0.18639 0.89086-0.92642
  -2   6   1  414.07   45.50  79-0.01492-0.30450 0.34232 0.29767 0.93946-0.90480
  -2  -6  -1  476.90   52.70  52-0.05680-0.26236-0.41718-0.22263 0.90705-0.93894
  -2  -6   1  194.08   42.60  56-0.05288-0.26670-0.32386-0.31627 0.94463-0.91041
   2  -6  -1  188.53   38.00  50-0.05913 0.37913-0.47789-0.16250 0.87642-0.91096
   2   6   1  260.32   72.40  79-0.01347 0.33416 0.36293 0.27816 0.93172-0.90054
  -2   6  -1  494.92   61.40  82-0.00766-0.31172 0.44278 0.19728 0.89660-0.92947
  -3  -6  -1   -3.40   67.10  49-0.06017-0.42101-0.50700-0.13379 0.85985-0.89713
   3   6  -1  277.15   72.90  86 0.00041 0.47987 0.54689 0.09352 0.83720-0.87234
   3  -6   1   31.50   51.60  49-0.06017 0.54207-0.50700-0.13385 0.85985-0.82961
  -3   6   1  151.11   62.50  83-0.00722-0.47255 0.44869 0.19166 0.89366-0.86021
   3   6   1    8.59   47.50  83-0.00617 0.48703 0.46258 0.17816 0.88655-0.85502
  -3  -6   1  230.67   55.30  53-0.05664-0.42373-0.41319-0.22752 0.90888-0.87675
  -3   6  -1  117.61   77.30  86 0.00017-0.47937 0.54391 0.09629 0.83914-0.87232
   3  -6  -1  162.33   48.10  46-0.06296 0.54345-0.59288-0.04748 0.80283-0.83810
   0  -7  -1  203.05   54.40  52-0.05675 0.05676-0.41577-0.33131 0.90770-0.94181
   0   7  -1  193.07   79.80  82-0.00934 0.00937 0.42016 0.32801 0.90740-0.94463
   0   7   1  181.90   83.10  78-0.01637 0.01625 0.32145 0.42241 0.94678-0.90626
   0  -7   1  179.56   69.10  56-0.05327 0.05332-0.33271-0.41461 0.94152-0.90844
   1   7  -1  868.07   79.30  82-0.00820 0.16826 0.43551 0.31186 0.90015-0.93511
  -1   7   1  709.64   62.10  79-0.01469-0.14514 0.34560 0.40135 0.93827-0.90435
  -1  -7  -1  972.78   69.10  52-0.05687-0.10287-0.41875-0.32787 0.90632-0.93911
   1  -7   1  993.54   71.60  54-0.05454 0.21460-0.36217-0.38518 0.93052-0.89754
   1   7   1 1075.54   72.00  79-0.01414 0.17418 0.35343 0.39396 0.93535-0.90247
  -1   7  -1 1048.11   78.90  82-0.00861-0.15120 0.43001 0.31688 0.90278-0.93634
  -1  -7   1  972.16   84.80  55-0.05342-0.10633-0.33601-0.41056 0.94034-0.90561
   1  -7  -1  824.62   84.50  51-0.05828 0.21995-0.45509-0.29432 0.88853-0.93005
  -2  -7  -1  126.31   42.60  51-0.05838-0.26130-0.45773-0.28922 0.88717-0.92091
   2   7  -1  298.32   62.20  84-0.00433 0.32466 0.48665 0.26083 0.87358-0.90916
   2  -7   1  144.98   43.70  52-0.05722 0.37733-0.42774-0.31958 0.90209-0.86919
  -2   7   1  378.94   74.60  81-0.01143-0.30722 0.39152 0.35425 0.92010-0.88324
   2   7   1   75.80   61.20  81-0.01023 0.33050 0.40803 0.33954 0.91291-0.88061
  -2  -7   1  213.76   47.20  54-0.05515-0.26446-0.37672-0.37013 0.92468-0.89054
  -2   7  -1   89.56   52.80  84-0.00493-0.31443 0.47887 0.26782 0.87787-0.91072
   2  -7  -1  214.55   38.60  49-0.06022 0.38025-0.50850-0.23869 0.85896-0.89355
   0   8  -1  130.64   64.20  83-0.00611 0.00612 0.46336 0.39058 0.88615-0.92055
   0  -8  -1  241.70   88.90  51-0.05828 0.05790-0.45509-0.39603 0.88853-0.91641
   0   8   1   63.85  100.70  81-0.01051 0.01062 0.40421 0.45453 0.91461-0.89067
   1   8  -1  150.06   64.50  84-0.00486 0.16494 0.47979 0.37443 0.87737-0.91247
  -1   8   1   91.64   64.20  81-0.01050-0.14937 0.40437 0.44936 0.91454-0.88078
  -1  -8  -1  -54.39   83.40  51-0.05828-0.10058-0.45509-0.39468 0.88853-0.91330
   1   8   1  142.64   61.40  81-0.01010 0.17018 0.40977 0.44450 0.91213-0.87946
  -1  -8   1   83.86   60.10  53-0.05594-0.10392-0.39584-0.45791 0.91661-0.88290
   0   0  -254307.59  -52.80  13-0.05535 0.05535-0.99790 0.99789-0.03377-0.03388
   0   0   224335.42  -35.90  15-0.05781 0.05781-0.99775 0.99776 0.03389 0.03376
   1   0  -2 3147.99   15.80   3-0.04187 0.20172-0.94587 0.94589-0.32183 0.25418
  -1   0  -2 3127.21  104.70  11-0.05283-0.10702-0.99392 0.99384-0.09657 0.02892
   1   0   2 3081.18  118.50  27-0.06619 0.22604-0.92297 0.92297 0.37915-0.31150
  -1   0   2 3211.76   51.60  17-0.05931-0.10052-0.99511 0.99487 0.07901-0.01135
   2   0   221203.79  307.50  90 0.00767 0.31246 0.63382-0.63470 0.77344-0.70677
  -2   0   210195.09 -274.90  31-0.06715-0.25273-0.87347 0.87408 0.48222-0.41486
  -2   0   219709.91  335.10  89 0.00568-0.32485 0.61066-0.60966 0.79187-0.72304
  -1  -1  -2143651.9   139.2  45-0.06321-0.09661-0.60166 0.49479 0.79625-0.86363
  -1   1   2144694.2   140.2  51-0.05839-0.10143-0.45804 0.56458 0.88701-0.81912
   1   1  -2 5168.17-1312.00  92 0.01038 0.14967 0.66459-0.55860 0.74713-0.81583
   1  -1   2135410.6  1298.0  80-0.01307 0.17304 0.36862-0.47566 0.92949-0.86244
   1   1   2131768.0   148.1  56-0.05279 0.21273-0.32172 0.42861 0.94536-0.87809
  -1   1  -2142840.6   149.6  92 0.01118-0.17091 0.67351-0.56641 0.73910-0.80620
   1  -1  -2138985.9  5800.5  39-0.06622 0.22612-0.72819 0.62162 0.68216-0.74998
  -2  -1  -2 2605.72   46.30  38-0.06670-0.25284-0.75877 0.65165 0.64794-0.71514
   2   1  -2 2731.71   38.30 100 0.02699 0.29300 0.83259-0.72658 0.55323-0.62148
   2  -1   2 2594.23   38.80  65-0.03935 0.35950-0.05076-0.05603 0.99794-0.93146
  -2   1   2 2745.30   49.60  60-0.04789-0.27158-0.21608 0.32251 0.97520-0.90677
   2   1   2 2701.29   54.30  68-0.03475 0.35470 0.03105 0.07572 0.99891-0.93191
  -2  -1   2 2706.06   49.10  72-0.02690-0.29252 0.16143-0.26788 0.98652-0.91797
   2  -1  -2 2571.60   59.20  25-0.06518 0.38484-0.94713 0.84033 0.31416-0.38177
  -3  -1  -210241.84  221.70  20-0.06210-0.41739-0.98266 0.87582 0.17469-0.24231
   3   1   2 9915.59  168.80  91 0.00929 0.47138 0.65232-0.54691 0.75789-0.69188
  -3  -1   210198.10  142.30  10-0.05181-0.42754-0.99136 0.88422-0.12048 0.18804
  -3  -1   210130.02  234.90  57-0.05181-0.42702-0.29968 0.19264 0.95263-0.88348
   0   2  -2 3606.72   58.30  81-0.01030 0.01030 0.40707-0.19365 0.91334-0.98102
   0   2   2 2482.15  -48.40  60-0.04689 0.04687-0.19568 0.40888 0.97955-0.91138
   0  -2   2 3851.46   86.50  74-0.02488 0.02489 0.19331-0.40674 0.98082-0.91320
  -1   2   2 2301.09   38.50  61-0.04566-0.11414-0.17093 0.38419 0.98422-0.91617
  -1  -2  -2 2040.99   36.80  52-0.05693-0.10289-0.42041 0.20693 0.90555-0.97293
   1   2  -2 2138.09   44.90  83-0.00655 0.16617 0.45764-0.24388 0.88912-0.95546
   1  -2   2 2242.34   46.30  71-0.03006 0.19011 0.11018-0.32394 0.99346-0.92678
  -1   2  -2 2269.27   40.30  83-0.00704-0.15269 0.45112-0.23750 0.89244-0.95931
   1   2   2 2280.45   44.10  63-0.04227 0.20216-0.10519 0.31867 0.99355-0.92606
  -1  -2   2 2191.40   44.60  72-0.02711-0.13268 0.15809-0.37134 0.98705-0.91897
   1  -2  -2 2322.27   37.50  49-0.05988 0.21985-0.49878 0.28551 0.86466-0.93282
   2  -2   217388.50  182.80  63-0.04235 0.36214-0.10656-0.10689 0.99340-0.92598
  -2   2   217658.19  193.90  66-0.03765-0.28183-0.02000 0.23324 0.99909-0.93068
  -2  -2   218375.58  383.90  68-0.03549-0.28390 0.01803-0.23121 0.99921-0.93056
  -2   2  -216735.39   71.20  89 0.00594-0.32547 0.61363-0.40000 0.78957-0.85678
   2  -2  -218106.09  314.20  41-0.06539 0.38528-0.68662 0.47343 0.72407-0.79210
  -3  -2  -2 6968.70   74.20  40-0.06608-0.41297-0.72075 0.50671 0.69004-0.75677
   3   2  -2 7233.07   94.70  98 0.02355 0.45679 0.80097-0.58856 0.59824-0.66704
   3  -2   2 7103.42  125.50  48-0.06093 0.54097-0.52900 0.31586 0.84643-0.77948
  -3   2   2 7540.33  114.90  77-0.01743-0.46122 0.30610-0.09250 0.95184-0.88245
   3   2   2 6992.01   88.30  81-0.01078 0.49143 0.40046-0.18745 0.91625-0.85050
  -3  -2   2 6739.99   83.60  59-0.04849-0.43010-0.22855 0.01509 0.97232-0.90266
  -3   2  -2 7050.09  131.80 103 0.03181-0.51052 0.87376-0.65925 0.48532-0.55206
   3  -2  -2 7310.08  175.70  27-0.06612 0.54589-0.92516 0.71202 0.37378-0.44161
  -4  -2  -2 3549.74   71.80  23-0.06415-0.57493-0.96319 0.74935 0.26106-0.32853
   4   2   2 2798.33  -49.30 100 0.02641 0.61419 0.82736-0.61513 0.56105-0.49436
  -4  -2   2 3447.87   77.30   8-0.04950-0.59021-0.98388 0.77086-0.17186 0.23963
  -4  -2   2 3397.28   61.60  44-0.06406-0.57455-0.63206 0.41806 0.77227-0.70365
   0  -3  -213888.92  128.50  54-0.05469 0.05473-0.36569 0.04558 0.92913-0.99746
   0   3  -214042.93  246.50  80-0.01339 0.01339 0.36411-0.04398 0.93126-0.99894
   0   3   214164.76  332.70  65-0.03898 0.03898-0.04407 0.36417 0.99827-0.93052
   0  -3   214810.71  277.50  68-0.03410 0.03411 0.04224-0.36256 0.99853-0.93134
  -1  -3  -2 1774.73   38.80  54-0.05505-0.10477-0.37414 0.05398 0.92574-0.99303
   1   3  -2 1818.33   47.90  81-0.01027 0.17024 0.40739-0.08732 0.91320-0.98153
  -1   3   2 1796.14   42.70  66-0.03786-0.12195-0.02384 0.34387 0.99900-0.93107
   1  -3   2 1834.64   55.30  66-0.03760 0.19774-0.01922-0.30135 0.99911-0.93279
   1  -3  -2 1788.61   38.10  52-0.05721 0.21713-0.42743 0.10733 0.90224-0.97022
   1   3   2 1970.55   53.70  67-0.03567 0.19560 0.01493 0.30532 0.99925-0.93195
  -1  -3   2 1789.54   59.70  68-0.03533-0.12455 0.02082-0.34105 0.99916-0.93176
  -1   3  -2 1734.14   51.50  81-0.01111-0.14876 0.39594-0.07581 0.91821-0.98596
  -2  -3  -2 2533.99   47.50  51-0.05826-0.26130-0.45478 0.13458 0.88869-0.95583
   2   3  -2 2800.94   55.20  85-0.00223 0.32227 0.51365-0.19371 0.85800-0.92662
   2  -3   2 2238.05  122.30  61-0.04544 0.36543-0.16655-0.15370 0.98498-0.91806
  -2   3   2 2633.14   70.50  70-0.03182-0.28754 0.08087 0.23898 0.99622-0.92747
   2   3   2 2534.74   52.80  72-0.02749 0.34791 0.15191 0.16857 0.98801-0.92225
  -2  -3   2 2306.19   71.60  64-0.04057-0.27891-0.07319-0.24674 0.99649-0.92808
  -2   3  -2 2392.44   51.20  85-0.00324-0.31589 0.50081-0.18035 0.86555-0.93150
   2  -3  -2 2496.20   49.70  47-0.06209 0.38201-0.56454 0.24454 0.82307-0.89122
  -3  -3  -2 1441.54   37.80  45-0.06332-0.41704-0.60527 0.28569 0.79350-0.86282
   3   3  -2 1688.61   51.60  92 0.01081 0.46908 0.66940-0.34952 0.74282-0.81105
   3  -3   2 1312.99   56.20  52-0.05705 0.53703-0.42330 0.10325 0.90419-0.83722
  -3   3   2 1726.01   48.50  77-0.01875-0.45946 0.28673 0.03330 0.95783-0.88757
   3   3   2 1735.25   48.50  79-0.01380 0.49471 0.35835-0.03832 0.93349-0.86821
  -3  -3   2 1386.98   50.20  59-0.04915-0.42962-0.24233-0.07766 0.96895-0.89966
  -3   3  -2 1311.79   41.40  93 0.01296-0.49172 0.69307-0.37233 0.72075-0.78714
   3  -3  -2 1612.13   38.90  38-0.06677 0.54664-0.76386 0.44399 0.64191-0.70997
  -4  -3  -2 3091.42   76.10  36-0.06711-0.57144-0.79454 0.47369 0.60350-0.67013
   4   3  -2 2897.94   67.40 102 0.03026 0.61078 0.86098-0.54230 0.50773-0.57693
   4  -3   2 3070.99   67.60   4-0.04317 0.68227-0.95357 0.63315-0.29807 0.36555
   4  -3   2 2742.63  127.00  34-0.06728 0.70715-0.82302 0.50322 0.56401-0.49669
  -4   3   2 3113.06   79.40  91 0.00992-0.64782 0.65947-0.33855 0.75167-0.68243
   4   3   2 3082.74   76.50  90 0.00754 0.63295 0.63233-0.31273 0.77467-0.70823
  -4  -3   2 2935.19   78.60  49-0.06004-0.57929-0.50327 0.18311 0.86204-0.79429
   4  -3  -2 2995.53   70.20  21-0.06293 0.70254-0.97620 0.65625 0.20753-0.27526
   0  -4  -2 1744.45   57.20  54-0.05470 0.05470-0.36596-0.06088 0.92902-0.99664
   0   4  -2 1444.88   59.80  80-0.01307 0.01308 0.36862 0.05829 0.92949-0.99821
   0   4   2 1557.16   48.30  69-0.03298 0.03299 0.06133 0.36562 0.99757-0.93018
   0  -4   2 1654.57   47.60  65-0.03994 0.03996-0.06161-0.36537 0.99730-0.93000
  -1  -4  -2 2856.16   52.60  54-0.05505-0.10478-0.37414-0.05270 0.92574-0.99310
   1   4  -2 2777.09   68.10  81-0.01083 0.17081 0.39974 0.02713 0.91656-0.98493
   1  -4   2 3006.28   72.30  63-0.04288 0.20354-0.11680-0.31129 0.99223-0.92826
  -1   4   2 2812.02   75.00  70-0.03194-0.12792 0.07898 0.34789 0.99636-0.92877
   1   4   2 2861.09   79.80  70-0.03045 0.19040 0.10369 0.32332 0.99414-0.92694
  -1  -4   2 2614.02   75.00  64-0.04074-0.11915-0.07630-0.35066 0.99625-0.92889
  -1   4  -2 2693.24   73.50  80-0.01168-0.14802 0.38797 0.03884 0.92160-0.98822
   1  -4  -2 2851.11   65.30  52-0.05673 0.21674-0.41547-0.01138 0.90784-0.97616
   2   4  -2 1672.93   59.10  84-0.00451 0.32474 0.48437-0.05762 0.87485-0.94405
  -2  -4  -2 1632.36   55.50  52-0.05759-0.26207-0.43729 0.01045 0.89747-0.96499
   2  -4   2 1810.79   56.20  59-0.04872 0.37038-0.23338-0.19449 0.97116-0.90829
  -2   4   2 1806.55   60.80  72-0.02705-0.29230 0.15904 0.26749 0.98690-0.91815
   2   4   2 1673.30   55.70  74-0.02412 0.34437 0.20523 0.22197 0.97842-0.91222
  -2  -4   2 1447.64   52.20  62-0.04440-0.27501-0.14616-0.28039 0.98826-0.91965
  -2   4  -2 1989.73   60.50  84-0.00551-0.31382 0.47133-0.04443 0.88194-0.94844
   2  -4  -2 1758.55   50.30  48-0.06065 0.38065-0.52073 0.09395 0.85157-0.91994
   3   4  -2 1798.23   56.60  89 0.00582 0.47481 0.61223-0.18580 0.79066-0.86025
  -3  -4  -2 1813.20   51.30  47-0.06158-0.41751-0.54854 0.12155 0.83386-0.90050
   3  -4   2 1796.04   51.40  53-0.05655 0.53689-0.41092-0.01595 0.90992-0.84350
  -3   4   2 1759.50   67.60  78-0.01698-0.46142 0.31268 0.11388 0.94971-0.87984
   3   4   2 1548.06   61.60  79-0.01379 0.49392 0.35844 0.06848 0.93345-0.86681
  -3  -4   2 1770.34   61.30  58-0.05074-0.42831-0.27627-0.15040 0.95974-0.89103
  -3   4  -2 1616.89   54.40  89 0.00608-0.48467 0.61527-0.18804 0.78830-0.85425
   3  -4  -2 1763.30   44.40  42-0.06523 0.54532-0.67954 0.25294 0.73073-0.79916
  -4  -4  -2  370.70   29.80  40-0.06585-0.57307-0.70841 0.28132 0.70272-0.76971
   4   4  -2  363.04   48.70  97 0.02062 0.62019 0.77267-0.34661 0.63448-0.70372
   4  -4   2  401.87   23.40  42-0.06523 0.70453-0.67918 0.25230 0.73106-0.66331
  -4   4   2  365.19   37.20  87 0.00157-0.63890 0.56123-0.13394 0.82766-0.75754
   4   4   2  310.50   45.70  87 0.00212 0.63833 0.56788-0.14126 0.82311-0.75669
  -4  -4   2  362.64   36.10  51-0.05869-0.57978-0.46609 0.03918 0.88279-0.81383
  -4   4  -2  420.13   30.60  99 0.02547-0.66263 0.81880-0.39063 0.57352-0.63901
   4  -4  -2  315.09   23.40  31-0.06711 0.70780-0.87769 0.45167 0.47450-0.54315
   0  -5  -2  371.79   47.40  54-0.05558 0.05557-0.38712-0.14639 0.92035-0.98767
   0   5  -2  493.83   63.80  80-0.01155 0.01156 0.38986 0.14385 0.92080-0.98953
   0   5   2  261.33   42.90  72-0.02785 0.02786 0.14623 0.38744 0.98886-0.92147
   0  -5   2  513.71   45.40  62-0.04440 0.04441-0.14616-0.38748 0.98826-0.92081
  -1  -5  -2 7063.87  113.60  53-0.05588-0.10396-0.39424-0.13929 0.91731-0.98478
   1   5  -2 7290.56  125.00  81-0.00986 0.16968 0.41306 0.12047 0.91065-0.97811
   1  -5   2 6567.57  111.60  61-0.04633 0.20616-0.18422-0.34930 0.98179-0.91405
  -1   5   2 7352.59  126.00  72-0.02700-0.13271 0.15985 0.37332 0.98677-0.91816
   1   5   2 6992.42  114.50  73-0.02570 0.18579 0.18044 0.35357 0.98325-0.91677
  -1   5  -2 7540.59  119.40  81-0.01031-0.14948 0.40691 0.12659 0.91341-0.98063
   1  -5  -2 6494.90  112.10  52-0.05721 0.21719-0.42759-0.10603 0.90216-0.97035
  -1  -5   2 5977.62  118.20  62-0.04486-0.11491-0.15513-0.37816 0.98687-0.91858
   2   5  -2 7847.49  136.80  84-0.00456 0.32482 0.48376 0.04989 0.87519-0.94446
  -2  -5  -2 8276.36  131.40  51-0.05790-0.26177-0.44523-0.08831 0.89354-0.96108
   2  -5   2 8100.63  146.90  57-0.05082 0.37096-0.27793-0.25594 0.95926-0.89268
  -2   5   2 8099.74  178.60  75-0.02271-0.29655 0.22700 0.30610 0.97363-0.90463
   2   5   2 8235.32  141.30  76-0.02060 0.34073 0.25911 0.27479 0.96563-0.89911
   2  -5  -2 8396.46  142.40  49-0.06037 0.38033-0.51284-0.02073 0.85636-0.92462
  -2  -5   2 7871.96  143.30  60-0.04733-0.27093-0.20448-0.32733 0.97773-0.90524
  -2   5  -2 7371.41  195.20  84-0.00536-0.31398 0.47321 0.06028 0.88094-0.94751
  -3  -5  -2  646.69   37.40  48-0.06120-0.41811-0.53714 0.00358 0.84127-0.90839
   3  -5   2  721.98   37.10  52-0.05713 0.53730-0.42554-0.10814 0.90313-0.83643
  -3   5   2  955.18   47.50  79-0.01424-0.46458 0.35213 0.18114 0.93584-0.86681
   3   5  -2  869.58   65.60  88 0.00419 0.47742 0.59297-0.05967 0.80521-0.87665
  -3  -5   2  691.94   43.90  56-0.05261-0.42657-0.31759-0.21578 0.94677-0.87834
   3   5   2  666.13   65.60  80-0.01168 0.49328 0.38795 0.14621 0.92160-0.85750
  -3   5  -2  823.58   59.80  88 0.00343-0.48072 0.58377-0.04997 0.81191-0.87545
   3  -5  -2  735.32   44.50  43-0.06437 0.54467-0.64368 0.11027 0.76258-0.83137
  -4  -5  -2   86.08   37.20  42-0.06486-0.57230-0.66361 0.12954 0.74527-0.80975
   4   5  -2   20.35   52.40  94 0.01528 0.62209 0.71797-0.18381 0.69591-0.76106
   4  -5   2   37.57   32.30  44-0.06423 0.70529-0.63831 0.10500 0.76710-0.70110
  -4   5   2  462.63  -48.70  86 0.00020-0.63833 0.54431-0.01073 0.83889-0.76969
   4  -5  -2   54.98   16.70  35-0.06722 0.70713-0.80995 0.27659 0.58264-0.65075
   4   5   2  144.37   53.10  87 0.00061 0.63943 0.54937-0.01582 0.83558-0.76869
  -4  -5   2   62.25   39.30  50-0.05881-0.57977-0.46932-0.06415 0.88107-0.81225
  -4   5  -2   56.58   42.00  95 0.01797-0.65250 0.74606-0.21092 0.66564-0.72784
   0  -6  -2   96.04   60.10  52-0.05725 0.05760-0.42853-0.21305 0.90171-0.97534
   0   6  -2  199.07   80.20  81-0.00958 0.00956 0.41693 0.22294 0.90889-0.97479
   0   6   2  212.38   76.70  75-0.02298 0.02301 0.22289 0.41796 0.97457-0.90818
   0  -6   2   64.48   62.00  59-0.04872 0.04911-0.23338-0.41013 0.97116-0.91070
  -1  -6  -2  741.32   48.30  52-0.05711-0.10275-0.42491-0.21537 0.90343-0.97111
   1  -6   2  732.25   49.10  58-0.04977 0.20982-0.25551-0.38512 0.96552-0.89870
  -1   6   2  562.67   53.40  75-0.02220-0.13759 0.23480 0.40530 0.97179-0.90377
   1   6  -2  757.89   74.10  82-0.00771 0.16775 0.44214 0.19835 0.89691-0.96567
  -1  -6   2  721.18   52.20  59-0.04849-0.11134-0.22846-0.41171 0.97234-0.90449
  -1   6  -2  515.29   60.40  82-0.00817-0.15161 0.43598 0.20420 0.89992-0.96712
   1  -6  -2  566.19   42.90  51-0.05821 0.21820-0.45323-0.18716 0.88949-0.95779
   1   6   2  534.91   72.10  75-0.02131 0.18136 0.24831 0.39238 0.96845-0.90175
  -2   6   2  100.19   41.50  77-0.01841-0.30100 0.29177 0.34816 0.95631-0.88780
  -2  -6  -2  117.29   66.20  51-0.05828-0.25924-0.45509-0.18363 0.88853-0.94819
   2   6  -2  178.00   63.60  84-0.00361 0.32310 0.49603 0.14415 0.86830-0.93532
   2  -6   2   94.10   59.40  56-0.05322 0.37312-0.33142-0.30902 0.94198-0.87481
  -2  -6   2  181.40   61.40  58-0.05064-0.26861-0.27412-0.36553 0.96036-0.89120
  -2   6  -2   10.32   68.50  84-0.00456-0.31316 0.48376 0.15552 0.87519-0.93688
   2  -6  -2  152.57   45.10  48-0.06072 0.38024-0.52292-0.11729 0.85021-0.91742
   3  -6   2  270.84   36.20  51-0.05828 0.53853-0.45509-0.18542 0.88853-0.82195
  -3  -6  -2  219.29   51.50  48-0.06139-0.41737-0.54283-0.09725 0.83760-0.90352
   3   6  -2  513.73   69.20  88 0.00419 0.47772 0.59292 0.04759 0.80525-0.87722
  -3   6   2  199.27   71.80  81-0.01051-0.47068 0.40421 0.23689 0.91461-0.84991
   3   6   2  223.16   65.70  81-0.00955 0.49000 0.41728 0.22340 0.90873-0.84261
  -3  -6   2  184.23   56.60  54-0.05449-0.42420-0.36095-0.27876 0.93099-0.86159
  -3   6  -2  108.42   65.00  88 0.00343-0.48056 0.58377 0.05622 0.81191-0.87516
   3  -6  -2  200.89   42.80  44-0.06421 0.54561-0.63776-0.00252 0.76756-0.83804
   0  -7  -2  234.76   42.40  51-0.05837 0.05840-0.45757-0.28955 0.88725-0.95538
   0   7  -2  267.98   58.00  83-0.00655 0.00655 0.45764 0.28947 0.88912-0.95717
   0   7   2  162.39   53.20  77-0.01849 0.01849 0.29060 0.45661 0.95666-0.88947
   0  -7   2  221.96   48.10  57-0.05142 0.05145-0.29104-0.45629 0.95533-0.88834
  -1  -7  -2  111.23   39.90  51-0.05852-0.10135-0.46160-0.28545 0.88516-0.95302
   1  -7   2  124.35   41.80  56-0.05274 0.21279-0.32056-0.42683 0.94576-0.87894
   1   7  -2  208.72   81.50  83-0.00559 0.16488 0.47020 0.27584 0.88254-0.94696
  -1   7   2  107.81   85.20  78-0.01638-0.14533 0.32142 0.43108 0.94680-0.89053
  -1  -7   2   91.16   60.20  57-0.05167-0.10822-0.29670-0.45044 0.95357-0.88623
   1  -7  -2  142.61   42.80  50-0.05943 0.21941-0.48614-0.26100 0.87186-0.94007
   1   7   2  204.03   79.50  77-0.01754 0.17652 0.30456 0.44026 0.95233-0.88035
  -1   7  -2  309.25   71.90  84-0.00544-0.15441 0.47227 0.27470 0.88144-0.94905
  -2   7   2  767.58   69.70  79-0.01417-0.30529 0.35310 0.39356 0.93548-0.86713
  -2  -7  -2  934.92   81.70  49-0.05983-0.25979-0.49731-0.24959 0.86551-0.93285
   2   7  -2  910.14  104.20  86-0.00132 0.32164 0.52518 0.22223 0.85099-0.92041
   2  -7   2  846.12   69.10  54-0.05541 0.37449-0.38292-0.36345 0.92212-0.85303
   2   7   2 1072.84  104.30  80-0.01310 0.33325 0.36817 0.37932 0.92967-0.86317
  -2  -7   2  834.43   76.90  55-0.05340-0.26605-0.33570-0.41090 0.94045-0.87200
  -2   7  -2 1324.31   84.10  85-0.00176-0.31746 0.51959 0.22705 0.85441-0.92069
   2  -7  -2  940.34   65.90  47-0.06185 0.38463-0.55711-0.19140 0.82813-0.90301
   0  -8  -2   87.99   77.90  49-0.06017 0.06066-0.50700-0.34949 0.85985-0.93497
   0   8  -2  -50.44  100.60  85-0.00256 0.00259 0.50946 0.34774 0.86049-0.93759
   0   8   2   18.10   72.50  79-0.01395 0.01396 0.35620 0.49780 0.93431-0.86718
  -1  -8  -2  145.41   43.20  49-0.05999-0.09988-0.50188-0.35188 0.86285-0.93070
   1   8  -2  104.24   68.40  85-0.00222 0.16220 0.51379 0.34016 0.85791-0.92627
   1   8   2  137.36   55.90  80-0.01262 0.17269 0.37485 0.47944 0.92700-0.86042
  -1   8  -2   54.98   58.20  85-0.00240-0.15738 0.51155 0.34197 0.85925-0.92644
   0   0  -3  738.46  -26.40  12-0.05461 0.05462-0.99712 0.99731-0.05267-0.04881
   0   0   3 3427.25  -42.00  16-0.05839 0.05839-0.99700 0.99701 0.05080 0.05068
   2   0   3 2435.58   39.70  43-0.06447 0.38424-0.64763 0.64774 0.75923-0.65787
   2   0   3 2375.39   30.40 104 0.03330 0.28680 0.88573-0.88696 0.46300-0.36202
  -2   0   3 2456.97   31.50  26-0.06571-0.25396-0.93589 0.93577 0.34611-0.24460
  -2   0   3 2270.48   32.90  98 0.02279-0.34186 0.79377-0.79229 0.60780-0.50538
   1  -1   3201070.8   199.4  87 0.00161 0.15835 0.56164-0.66880 0.82738-0.72638
  -1  -1  -3200729.5  1917.5  38-0.06655-0.09329-0.74806 0.64124 0.66029-0.76165
   1   1  -3187360.7   984.5  97 0.02162 0.13826 0.78241-0.67581 0.62239-0.72399
   1   1   3188505.9   181.6  49-0.06009 0.22001-0.50474 0.61164 0.86118-0.75993
  -1  -1   3195672.9  1105.5  87 0.00204-0.16175 0.56689-0.67304 0.82379-0.72171
  -1   1  -3196862.4  1921.1  99 0.02416-0.18377 0.80669-0.69905 0.59049-0.69105
   1  -1  -3199311.6  2058.9  33-0.06730 0.22716-0.83778 0.73110 0.54184-0.64334
  -2  -1  -3 3008.47   23.10  32-0.06726-0.25220-0.85663 0.74921 0.51153-0.61243
   2   1  -3 3021.34   38.00 105 0.03508 0.28492 0.89948-0.79361 0.43555-0.53759
   2  -1   3 3225.98   38.50   5-0.04498 0.36458-0.96348 0.85651-0.26397 0.36534
   2  -1   3 3084.17   76.20  76-0.02022 0.34032 0.26481-0.37196 0.96409-0.86362
  -2   1   3   55.83  -43.70  52-0.05762-0.26228-0.43811 0.54523 0.89707-0.79620
   2   1   3 3074.72   43.20  60-0.04705 0.36717-0.19893 0.30598 0.97888-0.87839
  -2  -1   3 2932.84   54.20  79-0.01388-0.30556 0.35716-0.46348 0.93394-0.83176
   2  -1  -3 3282.72   50.60  21-0.06308 0.38288-0.97492 0.86844 0.21343-0.31499
  -3  -1  -310077.32  132.60  17-0.05978-0.41950-0.99378 0.88649 0.09399-0.19533
  -3   1   3 8819.67  138.50  69-0.03286-0.44576 0.06330 0.04332 0.99745-0.89410
  -3   1   3 9502.97  122.00 105 0.03482-0.51328 0.89749-0.78909 0.43965-0.33746
   3   1   3 9468.82  134.70  80-0.01252 0.49322 0.37636-0.27028 0.92639-0.82685
  -3  -1   3 9768.93  124.70  12-0.05425-0.42542-0.99662 0.89015-0.06171 0.16323
  -3  -1   310059.54  371.70  66-0.03873-0.44007-0.03953-0.06707 0.99847-0.89546
   0  -2  -3 1886.79   30.20  48-0.06104 0.06105-0.53244 0.31902 0.84427-0.94578
   0   2  -3 1984.29   37.00  86-0.00073 0.00073 0.53264-0.31918 0.84634-0.94769
   0   2   3 1987.80   38.20  56-0.05266 0.05266-0.31875 0.53221 0.94638-0.84497
   0  -2   3 1920.00   37.30  78-0.01652 0.01652 0.31931-0.53277 0.94751-0.84610
   1   2  -3 7496.52   71.30  88 0.00305 0.15691 0.57923-0.36606 0.81516-0.91727
  -1  -2  -3 7813.49   93.60  48-0.06129-0.09847-0.53986 0.32615 0.83952-0.94017
   1  -2   3 8069.12  217.40  75-0.02118 0.18116 0.25030-0.46406 0.96794-0.86708
  -1   2   3 8110.55  115.80  57-0.05194-0.10787-0.30262 0.51583 0.95170-0.84987
   1   2   3 7334.58   72.10  59-0.04864 0.20864-0.23151 0.44525 0.97162-0.87076
  -1   2  -3 7870.82   79.90  88 0.00293-0.16268 0.57781-0.36415 0.81616-0.91702
  -1  -2   3 7325.80  120.70  77-0.01830-0.14107 0.29327-0.50499 0.95585-0.85152
   1  -2  -3 7296.33   93.00  45-0.06352 0.22334-0.61238 0.39891 0.78801-0.88938
   2   2  -331170.94  112.70  93 0.01326 0.30676 0.69632-0.48338 0.71761-0.81990
  -2  -2  -330100.76  234.40  44-0.06415-0.25530-0.63550 0.42167 0.76943-0.87006
  -2   2   331602.54  258.20  61-0.04545-0.27421-0.16683 0.38019 0.98494-0.88333
  -2   2  -332355.64  100.70  94 0.01526-0.33452 0.71785-0.50375 0.69603-0.79645
   2  -2  -331419.04   80.30  37-0.06688 0.38679-0.77291 0.55978 0.63098-0.73284
   2   2   331548.83  343.30  66-0.03881 0.35892-0.04097 0.25469 0.99841-0.89795
  -3  -2  -3 5866.26   81.70  36-0.06713-0.41191-0.79778 0.58362 0.59921-0.69980
   3   2  -3 5734.81   78.10 102 0.02992 0.45079 0.85812-0.64636 0.51258-0.61564
   3  -2   3 5735.37   75.20  55-0.05403 0.53403-0.35025 0.13694 0.93510-0.83430
  -3   2   3 6265.54   95.20  71-0.02902-0.44997 0.12717 0.08614 0.99146-0.88888
   3   2   3 5760.06   92.20  76-0.02022 0.50065 0.26483-0.05150 0.96408-0.86412
  -3  -2   3 5389.66  103.00  64-0.04162-0.43698-0.09292-0.12025 0.99480-0.89140
   3  -2  -3 5998.30  139.30  24-0.06480 0.54424-0.95376 0.74018 0.29349-0.39488
  -4  -2  -3 4498.09   92.70  20-0.06209-0.57697-0.98272 0.76883 0.17438-0.27569
   4   2   3 4606.55   76.90  94 0.01602 0.62501 0.72583-0.51374 0.68769-0.58774
  -4  -2   3 4554.85   89.30  10-0.05180-0.58767-0.99134 0.77800-0.12069 0.22219
  -4  -2   3 4399.60   94.80  50-0.05954-0.57897-0.48934 0.27549 0.87006-0.76740
   0   3   342001.29  243.40  62-0.04395 0.04395-0.13728 0.45745 0.98956-0.88815
   0  -3   344129.27  253.40  72-0.02833 0.02832 0.13850-0.45851 0.98996-0.88824
  -1   3   334246.05  130.50  63-0.04311-0.11669-0.12112 0.44107 0.99170-0.88985
  -1  -3  -334020.27  417.10  51-0.05859-0.10114-0.46354 0.14325 0.88414-0.98451
   1   3  -332158.95 1038.40  84-0.00374 0.16364 0.49438-0.17429 0.86924-0.97100
  -1  -3   333096.07  139.90  71-0.02970-0.13004 0.11617-0.43593 0.99278-0.89054
  -1   3  -334067.68  134.00  84-0.00420-0.15554 0.48833-0.16807 0.87265-0.97343
   1   3   332664.28  290.10  64-0.04085 0.20076-0.07839 0.39864 0.99609-0.89487
   1  -3  -334949.46  377.30  49-0.06054 0.22044-0.51757 0.19748 0.85350-0.95520
   2  -3   318401.44   98.30  65-0.04001 0.36008-0.06283-0.25757 0.99722-0.89666
  -2  -3  -318258.17  252.30  48-0.06129-0.25834-0.53986 0.21967 0.83952-0.94075
   2   3  -318636.49  196.20  88 0.00405 0.31605 0.59128-0.27148 0.80646-0.90907
  -2   3   319480.70  219.50  66-0.03760-0.28203-0.01922 0.33927 0.99911-0.89741
   2   3   318920.06  109.40  69-0.03332 0.35334 0.05559 0.26478 0.99790-0.89724
  -2  -3   319268.33  244.70  68-0.03535-0.28396 0.02051-0.34018 0.99916-0.89646
  -2   3  -319104.72  184.20  88 0.00405-0.32331 0.59123-0.27073 0.80649-0.90674
   2  -3  -319207.66  355.50  43-0.06436 0.38425-0.64340 0.32342 0.76282-0.86472
   3   3  -3  157.48  -52.00  95 0.01635 0.46345 0.72929-0.40937 0.68401-0.78590
  -3   3  -3 8876.41 -194.90  96 0.01986-0.49878 0.76511-0.44441 0.64359-0.74412
   3  -3  -3 6441.58 -142.80  35-0.06726 0.54717-0.81880 0.49898 0.57013-0.67203
  -4  -3  -3 1084.13   30.90  33-0.06730-0.57178-0.84610 0.52566 0.52876-0.62988
   4   3  -3 1075.53   38.70 104 0.03437 0.60628 0.89402-0.57506 0.44670-0.54930
   4  -3   3  907.89   22.40   7-0.04777 0.68734-0.97688 0.65689-0.20840 0.30994
   4  -3   3  890.17   25.90  39-0.06636 0.70633-0.73630 0.41650 0.67340-0.57238
  -4   3   3  896.61   37.20  86-0.00057-0.63660 0.53469-0.21380 0.84505-0.74097
   4   3   3  926.71   43.10  87 0.00143 0.64010 0.55948-0.24014 0.82884-0.72979
  -4  -3   3 1021.29   37.60  53-0.05630-0.58157-0.40470 0.08434 0.91271-0.80911
   4  -3  -3  976.67   26.30  19-0.06141 0.70132-0.98690 0.66724 0.14920-0.25086
  -5  -3   3  675.33   21.80  17-0.05992-0.73940-0.99333 0.67326 0.09850 0.00298
  -5  -3   3  553.53   21.40  34-0.06728-0.73111-0.82375 0.50302 0.56294-0.46092
   0  -4  -3 3071.05   57.50  52-0.05760 0.05756-0.43743 0.01058 0.89740-0.99829
   0   4  -3 3232.08   71.00  82-0.00793 0.00793 0.43920-0.01236 0.89835-0.99989
   0   4   3 3171.27   79.10  67-0.03715 0.03717-0.01117 0.43818 0.99925-0.89812
   0  -4   3 2922.94   70.90  67-0.03644 0.03661 0.00143-0.43024 0.99933-0.90197
   1  -4   313304.37  100.30  66-0.03842 0.19841-0.03394-0.39317 0.99869-0.89780
  -1   4   313735.50  202.00  67-0.03633-0.12347 0.00335 0.42334 0.99933-0.89752
  -1  -4  -312944.85  125.00  51-0.05795-0.10192-0.44645 0.01961 0.89293-0.99460
   1   4  -313176.93  227.90  83-0.00576 0.16564 0.46807-0.04123 0.88367-0.98532
   1   4   314108.77  166.30  68-0.03466 0.19465 0.03261 0.39452 0.99887-0.89804
  -1  -4   313287.24  153.00  67-0.03676-0.12310-0.00415-0.42271 0.99932-0.89787
  -1   4  -313754.80  142.90  83-0.00620-0.15355 0.46228-0.03540 0.88671-0.98751
   1  -4  -313243.41  150.70  50-0.05942 0.21935-0.48583 0.05901 0.87203-0.97386
  -2  -4  -3  213.52   27.80  49-0.06006-0.25952-0.50399 0.07711 0.86162-0.96265
   2  -4   3   93.92   29.00  62-0.04442 0.36458-0.14650-0.28070 0.98821-0.88786
   2   4  -3  -39.61   59.10  87 0.00143 0.32079 0.55948-0.13368 0.82884-0.93767
   2  -4  -3  155.38   22.80  46-0.06275 0.38273-0.58597 0.15924 0.80790-0.91003
   2   4   3  198.41   53.80  71-0.02866 0.34865 0.13306 0.29402 0.99069-0.88994
  -2  -4   3  219.76   53.80  64-0.04072-0.27876-0.07601-0.35056 0.99628-0.89409
  -2   4  -3  373.62   48.00  86 0.00004-0.31937 0.54226-0.11528 0.84021-0.94059
  -3  -4  -3 4812.53   70.60  45-0.06344-0.41578-0.60955 0.18256 0.79020-0.89095
  -3   4   3 4875.48  108.10  75-0.02226-0.45636 0.23395 0.19250 0.97199-0.86873
   3   4  -3 4677.77  103.40  92 0.01041 0.47000 0.66497-0.23856 0.74680-0.84982
   3  -4   3 5902.35  -97.10  55-0.05335 0.53369-0.33457-0.09241 0.94086-0.84062
   3   4   3 4706.61  110.60  77-0.01832 0.49892 0.29310 0.13402 0.95591-0.85622
  -3  -4   3 4355.92   81.90  60-0.04740-0.43156-0.20601-0.22053 0.97740-0.87471
  -3   4  -3 5465.38  136.80  92 0.01158-0.49017 0.67800-0.25065 0.73498-0.83481
   3  -4  -3 4949.80   83.00  39-0.06625 0.54561-0.73014 0.30318 0.68008-0.78128
  -4  -4  -3 1634.79   44.70  38-0.06668-0.57220-0.75690 0.32975 0.65012-0.75090
   4   4  -3 1925.58   63.50  99 0.02475 0.61633 0.81222-0.38643 0.58282-0.68616
   4  -4   3 1615.21   41.70  45-0.06360 0.70370-0.61514 0.18848 0.78585-0.68505
  -4   4   3 1732.62   57.50  84-0.00455-0.63331 0.48379-0.05680 0.87517-0.77181
   4   4   3 1675.23   55.00  85-0.00259 0.64350 0.50916-0.08250 0.86067-0.76098
  -4  -4   3 1768.38   54.60  53-0.05611-0.58258-0.40000-0.02682 0.91480-0.81233
  -4   4  -3 1683.69   59.20 102 0.03064-0.66846 0.86414-0.43626 0.50232-0.60236
   4  -4  -3 1739.96   41.60  29-0.06667 0.70629-0.90490 0.47820 0.42037-0.52200
   0  -5  -3  670.64   56.50  51-0.05783 0.05774-0.44352-0.08990 0.89440-0.99428
   0   5  -3  518.82   61.70  83-0.00749 0.00748 0.44509 0.08839 0.89545-0.99606
   0   5   3  498.61   43.10  70-0.03142 0.03143 0.08757 0.44611 0.99566-0.89443
   0  -5   3  591.13   46.70  64-0.04134 0.04134-0.08750-0.44614 0.99531-0.89401
  -1  -5  -3  305.87   37.10  51-0.05816-0.10168-0.45215-0.08141 0.89005-0.99148
   1   5  -3  444.98   61.60  84-0.00555 0.16549 0.47081 0.06278 0.88222-0.98421
   1  -5   3  293.96   57.10  63-0.04353 0.20384-0.12921-0.40526 0.99066-0.89119
  -1   5   3  227.33   70.30  71-0.03035-0.12972 0.10540 0.42888 0.99397-0.89400
   1   5   3  211.23   42.70  71-0.02928 0.18938 0.12292 0.41117 0.99198-0.89167
   1  -5  -3  257.43   35.20  50-0.05938 0.21933-0.48492-0.04866 0.87254-0.97444
  -1  -5   3  348.39   62.40  64-0.04207-0.11794-0.10129-0.43286 0.99397-0.89371
  -1   5  -3  293.44   58.70  83-0.00582-0.15406 0.46718 0.06639 0.88414-0.98583
   2   5  -3 6409.00  130.80  86-0.00052 0.32059 0.53529-0.00174 0.84467-0.94722
  -2  -5  -3 6454.11  124.30  49-0.05990-0.25960-0.49924-0.03429 0.86439-0.96511
   2  -5   3 6881.56  135.60  60-0.04796 0.36806-0.21754-0.31636 0.97487-0.87433
  -2   5   3 6029.58  124.10  73-0.02647-0.29313 0.16831 0.36513 0.98538-0.88360
   2   5   3 6109.61  129.90  74-0.02422 0.34449 0.20369 0.33042 0.97874-0.87872
  -2   5  -3 6398.78  119.10  86-0.00091-0.31838 0.53043 0.00313 0.84773-0.94796
  -2  -5   3 6242.94  131.50  62-0.04489-0.27453-0.15572-0.37745 0.98678-0.88440
   2  -5  -3 5723.02   89.20  47-0.06211 0.38167-0.56518 0.03161 0.82262-0.92376
   3   5  -3   86.08   34.50  90 0.00780 0.47265 0.63536-0.10199 0.77218-0.87533
  -3   5   3   73.98   32.40  77-0.01852-0.46025 0.29010 0.24304 0.95682-0.85388
  -3  -5  -3  217.58   44.80  46-0.06295-0.41766-0.59279 0.05938 0.80289-0.90666
   3  -5   3  229.41   47.90  54-0.05505 0.53717-0.37430-0.16003 0.92567-0.82815
  -3  -5   3  133.96   34.60  58-0.05003-0.42891-0.26089-0.27227 0.96407-0.86134
   3   5   3  135.04   71.00  78-0.01544 0.49720 0.33493 0.19951 0.94212-0.84439
  -3   5  -3  291.59   42.90  90 0.00837-0.48705 0.64190-0.10815 0.76674-0.86665
   3  -5  -3  166.31   36.20  41-0.06535 0.54380-0.68486 0.15099 0.72574-0.82552
  -4  -5  -3   -9.57   43.20  40-0.06599-0.57443-0.71598 0.18275 0.69499-0.79789
   4   5  -3   57.83   54.60  97 0.02026 0.62325 0.76908-0.23708 0.63883-0.74522
   4  -5   3   63.12   34.80  45-0.06308 0.70777-0.59698 0.06389 0.79978-0.70355
  -4   5   3  145.35   48.60  84-0.00524-0.63043 0.47477 0.05844 0.88009-0.77404
   4  -5  -3   31.23   19.10  33-0.06730 0.70731-0.84324 0.30994 0.53331-0.63533
   4   5   3  -81.03   65.30  84-0.00456 0.63893 0.48376 0.04941 0.87519-0.76767
  -4  -5   3   35.54   49.50  52-0.05678-0.58192-0.41668-0.11674 0.90728-0.80483
  -4   5  -3   34.75   38.70  98 0.02293-0.65979 0.79506-0.26050 0.60609-0.70485
   0  -6  -319352.52  242.60  50-0.05879 0.05882-0.46875-0.17162 0.88137-0.98341
   0   6  -320004.25  290.40  83-0.00578 0.00578 0.46777 0.17245 0.88383-0.98500
   0   6   319250.60  236.30  73-0.02618 0.02619 0.17289 0.46761 0.98459-0.88355
   0  -6   318078.66  603.40  61-0.04575 0.04576-0.17265-0.46774 0.98392-0.88268
   1   6  -3 2375.67   96.60  84-0.00415 0.16417 0.48908 0.15135 0.87223-0.97475
   1  -6   3 2015.18   69.80  60-0.04741 0.20741-0.20618-0.43440 0.97736-0.87652
  -1   6   3 1876.50   72.90  73-0.02540-0.13438 0.18523 0.45479 0.98237-0.88040
  -1  -6  -3 1943.95   76.20  50-0.05925-0.10121-0.48126-0.15997 0.87457-0.98192
   1   6   3 1869.71   71.60  74-0.02442 0.18446 0.20062 0.44011 0.97936-0.87880
  -1  -6   3 2124.52   75.50  61-0.04613-0.11368-0.18037-0.45975 0.98252-0.88074
  -1   6  -3 1714.24   89.50  84-0.00446-0.15533 0.48498 0.15523 0.87451-0.97559
   1  -6  -3 2006.63   59.90  49-0.05995 0.21990-0.50068-0.13966 0.86356-0.96547
  -2  -6  -3 2786.79   80.00  49-0.06038-0.25925-0.51314-0.12710 0.85618-0.95741
   2  -6   3 2669.78   84.20  57-0.05109 0.37129-0.28386-0.35689 0.95750-0.85719
  -2   6   3 2545.54   89.50  75-0.02176-0.29760 0.24157 0.39824 0.97014-0.86766
   2   6  -3 2848.90  122.40  86 0.00020 0.32021 0.54429 0.09619 0.83890-0.94245
   2   6   3 2401.94  105.70  76-0.02004 0.34022 0.26752 0.37328 0.96335-0.86308
  -2  -6   3 2564.87   81.60  59-0.04849-0.27100-0.22846-0.41149 0.97234-0.87019
  -2   6  -3 2653.18   76.60  86-0.00020-0.31907 0.53926 0.10088 0.84214-0.94235
   2  -6  -3 2801.70   80.50  46-0.06228 0.38244-0.57072-0.06964 0.81878-0.92135
   3   6  -3  139.85   47.90  90 0.00723 0.47328 0.62875 0.01155 0.77758-0.88084
  -3   6   3  190.30   40.50  79-0.01468-0.46418 0.34576 0.29408 0.93821-0.83550
  -3  -6  -3  125.05   52.80  45-0.06298-0.41813-0.59353-0.04691 0.80234-0.90718
   3  -6   3  136.81   58.90  53-0.05667 0.53889-0.41392-0.22748 0.90855-0.81108
   3   6   3  244.07   50.50  80-0.01271 0.49334 0.37372 0.26714 0.92746-0.82780
  -3  -6   3   21.36   45.60  56-0.05259-0.42664-0.31709-0.32293 0.94693-0.84481
  -3   6  -3   67.09   37.80  90 0.00766-0.48648 0.63374 0.00652 0.77351-0.87366
   3  -6  -3   52.44   27.50  42-0.06513 0.54532-0.67487 0.03464 0.73506-0.83751
   0  -7  -3  517.83   61.90  49-0.05981 0.05975-0.49675-0.25000 0.86583-0.96640
   0   7  -3  448.76   70.20  85-0.00345 0.00345 0.49801 0.24894 0.86717-0.96851
   0   7   3  155.74   66.60  75-0.02118 0.02121 0.25027 0.49723 0.96795-0.86736
   0  -7   3 1069.60  -80.60  59-0.04934 0.04925-0.24635-0.49968 0.96792-0.86481
  -1  -7  -3  760.92   47.30  49-0.06000-0.09987-0.50203-0.24498 0.86276-0.96437
   1   7  -3  371.81   60.30  85-0.00212 0.16206 0.51514 0.23198 0.85710-0.95913
  -1   7   3  719.08   65.20  76-0.02045-0.13932 0.26130 0.48542 0.96504-0.86311
   1  -7   3  697.02   69.00  57-0.05084 0.21076-0.27849-0.46863 0.95909-0.85788
   1   7   3  255.79   57.30  76-0.01974 0.17973 0.27205 0.47530 0.96208-0.86127
  -1  -7   3  606.59   58.70  58-0.04977-0.11006-0.25551-0.49141 0.96552-0.86394
  -1   7  -3  705.30   64.30  85-0.00230-0.15745 0.51275 0.23408 0.85854-0.95938
   1  -7  -3  586.57   50.20  48-0.06085 0.22086-0.52667-0.22047 0.84789-0.95006
  -2  -7  -3  500.60   44.30  48-0.06119-0.25850-0.53685-0.21012 0.84146-0.94288
   2   7  -3  304.49   67.80  87 0.00168 0.31853 0.56251 0.18477 0.82679-0.92973
   2  -7   3  612.01   53.70  55-0.05386 0.37400-0.34618-0.40127 0.93662-0.83613
  -2   7   3  202.97   83.70  78-0.01637-0.30522 0.32145 0.42819 0.94678-0.85059
  -2  -7   3  383.64   58.10  57-0.05169-0.26799-0.29703-0.44991 0.95347-0.85192
  -2   7  -3  616.67   67.00  87 0.00153-0.32092 0.56064 0.18617 0.82806-0.92863
   2  -7  -3  395.62   45.70  46-0.06278 0.38290-0.58682-0.16034 0.80728-0.90977
   0  -8  -3  401.03   52.80  48-0.06109 0.06113-0.53391-0.32000 0.84333-0.94544
   0   8  -3  117.45   80.90  86-0.00066 0.00066 0.53353 0.32020 0.84578-0.94735
   0   8   3  217.08   59.20  78-0.01640 0.01641 0.32112 0.53293 0.94690-0.84600
   0  -8   3  545.16   56.00  56-0.05278 0.05282-0.32139-0.53271 0.94548-0.84465
  -2   0  -4 7066.34   98.20   2-0.04044-0.27916-0.93696 0.93662-0.34709 0.21171
  -2   0   4 7755.85   30.00  24-0.06474-0.25489-0.95471 0.95446 0.29040-0.15506
   2   0   4 7430.22  111.50  36-0.06709 0.38686-0.79333 0.79346 0.60508-0.46985
  -2   0   4 7312.84   72.50 102 0.03059-0.34960 0.86375-0.86204 0.50299-0.36697
  -3   0   414485.99  170.10  39-0.06631-0.41291-0.73345 0.73286 0.67650-0.54076
  -3   0   413677.13  242.00  83-0.00567-0.47297 0.46913-0.46823 0.88311-0.74637
   0  -1  -451348.27  428.30  34-0.06730 0.06728-0.83287 0.72594 0.54937-0.68446
   0   1  -453523.31  354.00 100 0.02720-0.02719 0.83444-0.72753 0.55043-0.68554
   0   1   453880.83 2664.50  39-0.06621 0.06620-0.72788 0.83445 0.68250-0.54710
   0  -1   455388.55 1126.80  95 0.01630-0.01630 0.72872-0.83545 0.68462-0.54933
   1   1  -4218746.3   225.6 102 0.03037 0.12958 0.86185-0.75568 0.50625-0.64200
  -1  -1  -4200650.2  2425.6  33-0.06730-0.09252-0.83925 0.73231 0.53957-0.67466
   1  -1   4193944.1  1608.9  92 0.01196 0.14796 0.68214-0.78918 0.73112-0.59607
   1   1   4206015.7   191.7  44-0.06392 0.22385-0.62679 0.73376 0.77656-0.64148
  -1   1  -4208011.1   204.4 104 0.03342-0.19312 0.88665-0.77935 0.46123-0.59608
   1  -1  -4195106.4   160.0  29-0.06674 0.22662-0.90172 0.79513 0.42713-0.56251
  -2  -1  -433539.48  415.60  28-0.06638-0.25323-0.91641 0.80942 0.39470-0.52982
   2  -1   433191.63  416.80   8-0.04946 0.36910-0.98370 0.87684-0.17285 0.30810
   2  -1   431134.84  453.70  84-0.00553 0.32568 0.47101-0.57851 0.88211-0.74783
  -2  -1   433698.71   73.20   2-0.04041-0.27926-0.93676 0.82996-0.34763 0.48288
   2  -1  -433241.35   64.50  19-0.06130 0.38107-0.98750 0.88096 0.14518-0.28054
   2   1   431380.41  336.30  54-0.05532 0.37526-0.38075 0.48776 0.92302-0.78821
  -2  -1   430804.55  278.30  85-0.00320-0.31608 0.50123-0.60713 0.86531-0.72903
  -3  -1  -4 3943.10   66.50  15-0.05784-0.42157-0.99772 0.89070 0.03487-0.17011
   3  -1   4 3789.08   64.80  33-0.06730 0.54710-0.83943 0.73303 0.53929-0.40416
   3  -1   4 3610.47   80.70  60-0.04721 0.52753-0.20216 0.09558 0.97821-0.84414
   3   1   4 3693.36   75.90  71-0.03006 0.51060 0.11011-0.00341 0.99346-0.85981
  -3  -1   4 4067.58   51.30  13-0.05552-0.42375-0.99803 0.89072-0.02927 0.16446
  -3  -1   4 3571.88   49.00  73-0.02636-0.45227 0.17011-0.27625 0.98507-0.84802
   1   2  -417925.49   89.60  92 0.01107 0.14884 0.67235-0.45912 0.74015-0.87582
  -1  -2  -419070.51  146.80  43-0.06438-0.09547-0.64420 0.43076 0.76214-0.89740
   1  -2   418499.99  146.10  80-0.01307 0.17297 0.36862-0.58222 0.92949-0.79442
  -1   2   417499.56  167.60  53-0.05651-0.10335-0.40979 0.62325 0.91043-0.77517
   1   2   418661.76   81.30  55-0.05370 0.21366-0.34259 0.55629 0.93795-0.80305
  -1  -2   418149.38  267.50  80-0.01188-0.14795 0.38524-0.59856 0.92274-0.78730
   1  -2  -417862.28  185.20  40-0.06582 0.22576-0.70700 0.49377 0.70415-0.83978
  -2  -2  -432242.29  339.30  40-0.06613-0.25342-0.72298 0.50923 0.68770-0.82248
   2   2  -431299.35  830.60  97 0.02034 0.29981 0.76989-0.55729 0.63785-0.77430
   2  -2   434765.83  425.30  73-0.02508 0.34518 0.19018-0.40407 0.98143-0.84710
  -2   2   433116.09  307.60  57-0.05178-0.26755-0.29911 0.51182 0.95281-0.81637
  -2  -2   4  220.80  -35.40  76-0.02060-0.29878 0.25911-0.47202 0.96563-0.82942
   2   2   433309.41 1260.90  61-0.04532 0.36531-0.16408 0.37780 0.98541-0.85078
  -2   2  -432999.63  315.40  98 0.02347-0.34289 0.80021-0.58630 0.59926-0.73395
   2  -2  -421107.27 -801.90  33-0.06730 0.38756-0.83893 0.62640 0.54007-0.67633
  -3  -2  -4 9525.04   99.60  32-0.06726-0.41191-0.85688 0.64286 0.51111-0.64581
   3   2  -4 8793.52  172.30 105 0.03496 0.44568 0.89852-0.68676 0.43754-0.57423
   3  -2   4 9149.50  182.20   5-0.04466 0.52441-0.96177 0.74862-0.27021 0.40566
   3  -2   4 8790.93  211.80  61-0.04552 0.52526-0.16805-0.04539 0.98473-0.84973
  -3   2   4 9199.07  139.70  66-0.03863-0.44033-0.03773 0.25082 0.99854-0.86209
   3   2   4 9484.26  223.00  71-0.02872 0.50907 0.13215 0.08140 0.99081-0.85686
   3  -2  -4 9779.95  115.40  22-0.06331 0.54294-0.97273 0.75941 0.22313-0.35848
  -4  -2  -4 1467.35   26.00  18-0.06016-0.57898-0.99250 0.77873 0.10639-0.24158
   4   2   4 1199.08   30.70  89 0.00444 0.63645 0.59594-0.38341 0.80302-0.66928
  -4  -2   4 1471.56   34.80  11-0.05354-0.58563-0.99541 0.78167-0.07935 0.21457
  -4  -2   4 1186.45   35.60  55-0.05388-0.58482-0.34663 0.13304 0.93646-0.80018
   0  -3  -472304.41  672.40  48-0.06136 0.06134-0.54190 0.22169 0.83820-0.97319
   0   3  -475256.84  592.40  86 0.00004-0.00004 0.54226-0.22202 0.84021-0.97504
   0   3   470949.57  489.70  59-0.04828 0.04826-0.22417 0.54405 0.97335-0.83766
   0  -3   421318.35-1581.30  74-0.02334 0.02339 0.21737-0.53861 0.97581-0.84223
   1  -3   448453.03  159.80  73-0.02629 0.18634 0.17117-0.49184 0.98489-0.85051
  -1   3   447734.83  155.60  60-0.04753-0.11229-0.20874 0.52875 0.97682-0.84132
  -1  -3  -448803.60  358.70  47-0.06161-0.09823-0.54964 0.22949 0.83312-0.96834
   1   3  -445727.14  297.10  88 0.00282 0.15723 0.57646-0.25665 0.81712-0.95363
  -1  -3   447596.16  165.60  74-0.02449-0.13528 0.19942-0.51927 0.97961-0.84384
   1   3   450459.95  326.90  61-0.04536 0.20523-0.16496 0.48513 0.98526-0.85002
  -1   3  -448747.96  766.90  88 0.00266-0.16244 0.57445-0.25421 0.81853-0.95341
   1  -3  -447126.82 1271.50  45-0.06311 0.22299-0.59811 0.27800 0.79893-0.93434
   2  -3   4  940.08   38.40  68-0.03442 0.35445 0.03662-0.35708 0.99874-0.86421
  -2   3   4 1124.43   34.60  63-0.04289-0.27654-0.11697 0.43667 0.99221-0.85606
  -2  -3  -4 1065.18   35.30  45-0.06354-0.25579-0.61308 0.29252 0.78746-0.92141
   2   3  -4 1058.82   52.60  91 0.01003 0.31019 0.66067-0.34110 0.75061-0.88738
   2   3   4  999.54   37.50  66-0.03841 0.35831-0.03376 0.35409 0.99869-0.86385
   2  -3  -4 1077.80   25.70  40-0.06591 0.38582-0.71147 0.39155 0.69962-0.83536
  -2  -3   4 1301.40   62.00  70-0.03039-0.28908 0.10476-0.42454 0.99403-0.85802
  -2   3  -4 1092.41   45.80  92 0.01066-0.32976 0.66779-0.34702 0.74428-0.87797
  -3  -3  -4 5489.93   69.80  39-0.06626-0.41260-0.73056 0.40974 0.67962-0.81356
   3   3  -4 5707.48  103.30  97 0.02174 0.45869 0.78362-0.46437 0.62086-0.75761
   3  -3   4 5200.72  107.10  60-0.04761 0.52782-0.21032-0.10995 0.97647-0.84221
  -3   3   4 5228.34   96.80  69-0.03231-0.44645 0.07260 0.24710 0.99684-0.86001
   3   3   4 5481.50   92.90  73-0.02570 0.50683 0.18044 0.14013 0.98325-0.85058
  -3  -3   4 5247.56  114.60  65-0.04004-0.43910-0.06352-0.25637 0.99718-0.86108
  -3   3  -4 5672.49   93.20  99 0.02568-0.50413 0.82072-0.49950 0.57076-0.70452
   3  -3  -4 5198.10  137.20  32-0.06723 0.54728-0.86299 0.54334 0.50073-0.63661
  -4  -3  -4 2538.35   52.00  30-0.06699-0.57242-0.88675 0.56663 0.45736-0.59267
   4  -3   4 2349.28   47.60   9-0.05089 0.69032-0.98866 0.66854-0.14130 0.27661
   4  -3   4 2090.34   46.00  44-0.06413 0.70462-0.63462 0.31497 0.77016-0.63585
  -4   3   4 2529.38   48.70  81-0.00976-0.62790 0.41441-0.09401 0.91004-0.77259
   4   3   4 2223.97   63.00  84-0.00523 0.64654 0.47491-0.15523 0.88002-0.74692
  -4  -3   4 3143.30  -71.70  56-0.05214-0.58460-0.30718-0.01290 0.95022-0.81122
   4  -3  -4 2342.19   50.50  18-0.06017 0.69958-0.99248 0.67235 0.10662-0.24192
   0  -4  -410716.90   82.90  49-0.06019 0.06019-0.50745 0.08060 0.85958-0.99493
   0   4  -410407.91  140.30  85-0.00270 0.00270 0.50766-0.08080 0.86156-0.99673
   0   4   410636.22  127.00  64-0.04094 0.04095-0.08004 0.50705 0.99595-0.86094
  -1  -4  -4 3361.11   56.70  49-0.06038-0.09945-0.51314 0.08627 0.85618-0.99130
   1   4  -4 3376.60   73.10  86-0.00061 0.16054 0.53411-0.10732 0.84541-0.98118
   1  -4   4 2989.09   69.40  68-0.03436 0.19432 0.03766-0.46476 0.99870-0.86385
  -1   4   4 3442.51   73.60  65-0.04026-0.11952-0.06754 0.49412 0.99690-0.86114
  -1  -4   4 3071.75   69.30  69-0.03282-0.12701 0.06412-0.49086 0.99740-0.86193
  -1   4  -4 2991.27   62.40  86-0.00085-0.15888 0.53117-0.10424 0.84727-0.98178
   1  -4  -4 3216.67   57.70  47-0.06169 0.22162-0.55219 0.12538 0.83144-0.96704
   2   4  -4 1175.53   50.90  89 0.00531 0.31487 0.60629-0.17972 0.79522-0.93196
  -2  -4  -4 1018.21   42.00  47-0.06209-0.25714-0.56462 0.13752 0.82301-0.95654
   2  -4   4 1121.47   59.10  65-0.04051 0.36070-0.07218-0.35514 0.99657-0.86242
  -2   4   4  995.98   54.20  67-0.03644-0.28217 0.00143 0.42377 0.99933-0.86070
  -2   4  -4 1268.65   45.00  89 0.00541-0.32469 0.60740-0.18032 0.79438-0.92847
   2   4   4 1186.53   56.10  69-0.03236 0.35341 0.07175 0.35646 0.99690-0.86489
  -2  -4   4  956.41   64.00  67-0.03644-0.28183 0.00143-0.42611 0.99933-0.85966
   2  -4  -4 1207.21   47.80  43-0.06436 0.38387-0.64343 0.21647 0.76280-0.89765
   3  -4   4 1492.53   46.10  58-0.04993 0.53046-0.25888-0.16828 0.96462-0.83084
  -3  -4  -4 1516.46   52.70  42-0.06491-0.41442-0.66569 0.23871 0.74340-0.87822
   3   4  -4 1480.10   67.40  94 0.01528 0.46633 0.71797-0.29241 0.69591-0.83488
  -3   4   4 1570.43   55.50  72-0.02705-0.45212 0.15906 0.26756 0.98690-0.85088
   3   4   4 1687.03   66.70  75-0.02278 0.50336 0.22593 0.20133 0.97388-0.84029
  -3  -4   4 1530.64   62.10  62-0.04394-0.43484-0.13703-0.28930 0.98959-0.85277
  -3   4  -4 1667.23   54.90  95 0.01649-0.49426 0.73068-0.30275 0.68252-0.81489
   3  -4  -4 1279.60   38.40  37-0.06697 0.54759-0.78090 0.35474 0.62106-0.75783
   4   4  -4   33.72   32.30 101 0.02853 0.61256 0.84615-0.42046 0.53217-0.66931
  -4  -4  -4   82.84   29.30  36-0.06716-0.57244-0.80209 0.37538 0.59341-0.72897
   4  -4   4   62.21   22.90  47-0.06158 0.70305-0.54860 0.12211 0.83382-0.70058
  -4   4   4  208.91   34.30  81-0.01138-0.62457 0.39216 0.03450 0.91983-0.78021
   4   4   4  -24.53   44.90  83-0.00655 0.65038 0.45764-0.03100 0.88912-0.75898
  -4  -4   4  236.75   39.30  56-0.05326-0.58536-0.33234-0.09438 0.94166-0.80526
  -4   4  -4  131.57   25.20 105 0.03490-0.67232 0.89809-0.46985 0.43843-0.57204
   4  -4  -4   40.77   19.20  26-0.06591 0.70664-0.93083 0.50493 0.35946-0.49568
   0  -5  -4 6370.63   89.20  49-0.06002 0.06003-0.50279-0.03077 0.86232-0.99772
   0   5  -4 6739.99  119.70  85-0.00308 0.00308 0.50285 0.03071 0.86437-0.99952
   0   5   4 6874.25  110.00  68-0.03473 0.03474 0.03139 0.50237 0.99890-0.86396
   0  -5   4 6285.70  109.70  66-0.03830 0.03832-0.03167-0.50215 0.99876-0.86393
  -1  -5  -4 7400.15  124.70  49-0.06019-0.09965-0.50760-0.02596 0.85949-0.99468
   1   5  -4 7524.97  123.50  86-0.00118 0.16131 0.52696 0.00661 0.84989-0.98688
   1  -5   4 7948.59  153.20  65-0.04022 0.20003-0.06674-0.46672 0.99696-0.86149
  -1   5   4 8110.81  143.90  68-0.03406-0.12569 0.04294 0.49022 0.99850-0.86249
   1   5   4 7865.25  162.80  69-0.03269 0.19269 0.06620 0.46771 0.99727-0.86262
  -1  -5   4 8031.63  185.30  66-0.03890-0.12092-0.04268-0.49078 0.99833-0.86285
  -1   5  -4 7836.95  158.00  86-0.00153-0.15824 0.52258 0.01097 0.85259-0.98734
   1  -5  -4 7583.87  145.70  48-0.06129 0.22123-0.53986 0.00630 0.83952-0.97520
  -2  -5  -4 6108.80  105.00  47-0.06169-0.25782-0.55219 0.01861 0.83144-0.96601
   2   5  -4 6107.50  110.00  88 0.00360 0.31658 0.58588-0.05241 0.81039-0.94712
   2  -5   4 5675.76  132.30  62-0.04504 0.36512-0.15854-0.37541 0.98632-0.85191
  -2   5   4 6017.23  121.00  71-0.03015-0.28941 0.10876 0.42459 0.99361-0.85788
   2   5   4 5814.85  128.00  72-0.02762 0.34811 0.14985 0.38457 0.98832-0.85494
  -2   5  -4 5970.85  114.80  88 0.00354-0.32285 0.58518-0.05156 0.81090-0.94504
  -2  -5   4 5912.50  160.20  64-0.04203-0.27739-0.10050-0.43261 0.99405-0.85785
   2  -5  -4 5919.28  153.10  44-0.06368 0.38371-0.61813 0.08464 0.78349-0.91957
   3   5  -4 1712.53   70.10  92 0.01160 0.46868 0.67825-0.14492 0.73474-0.87140
  -3  -5  -4 1453.94   63.10  44-0.06416-0.41515-0.63572 0.10210 0.76925-0.90401
   3  -5   4 1336.62   57.90  56-0.05220 0.53260-0.30847-0.22544 0.94980-0.81579
  -3   5   4 1537.77   73.30  75-0.02287-0.45494 0.22464 0.30773 0.97417-0.83566
  -3  -5   4 1416.24   56.80  60-0.04743-0.43156-0.20652-0.32661 0.97729-0.84088
   3  -5  -4 1343.64   44.20  39-0.06629 0.54630-0.73241 0.19902 0.67763-0.81360
   3   5   4 1461.94   72.10  76-0.01946 0.49980 0.27620 0.25776 0.96090-0.82690
  -3   5  -4 1467.56   61.90  93 0.01261-0.49083 0.68933-0.15535 0.72433-0.85729
   4   5  -4  105.91   36.60  98 0.02316 0.61790 0.79727-0.26442 0.60317-0.74046
  -4  -5  -4   71.88   40.70  38-0.06655-0.57091-0.74828 0.21399 0.66004-0.79264
   4  -5   4  131.60   36.70  48-0.06073 0.69977-0.52331-0.01024 0.84998-0.71430
  -4   5   4   34.20   47.90  82-0.00905-0.62950 0.42404 0.10937 0.90560-0.76926
   4   5   4   99.16   38.50  83-0.00669 0.64831 0.45578 0.07805 0.89007-0.75736
  -4  -5   4  151.16   47.80  54-0.05450-0.58349-0.36111-0.17203 0.93093-0.79369
  -4   5  -4  132.82   38.70 100 0.02749-0.66634 0.83701-0.30320 0.54649-0.68122
   4  -5  -4   41.17   27.50  31-0.06719 0.70512-0.86828 0.33402 0.49150-0.62549
   0   6  -4 6632.79  140.60  85-0.00209 0.00209 0.51544 0.12483 0.85692-0.99218
   0  -6  -4 6039.89  130.60  49-0.06044 0.06042-0.51471-0.12553 0.85523-0.99025
   0   6   4 6485.58  124.90  71-0.02912 0.02914 0.12551 0.51497 0.99166-0.85671
   0  -6   4 6558.46  155.00  63-0.04338 0.04342-0.12631-0.51439 0.99104-0.85646
   1   6  -410220.45  201.10  86-0.00062 0.16055 0.53397 0.10635 0.84550-0.98128
  -1  -6  -4 9251.07  233.00  49-0.06059-0.09924-0.51897-0.12126 0.85264-0.98765
   1  -6   4 9503.28  197.60  62-0.04501 0.20498-0.15808-0.48247 0.98640-0.85159
  -1   6   4 9955.16  196.10  72-0.02829-0.13165 0.13912 0.50146 0.98987-0.85511
   1   6   410494.03  228.20  72-0.02732 0.18743 0.15467 0.48627 0.98759-0.85347
  -1   6  -410160.58  227.60  86-0.00078-0.15897 0.53205 0.10814 0.84671-0.98134
  -1  -6   410345.73  197.00  62-0.04383-0.11607-0.13491-0.50557 0.98989-0.85494
   1  -6  -4 9485.24  160.90  47-0.06157 0.22175-0.54830-0.09210 0.83401-0.97074
  -2  -6  -4 1475.62   56.00  47-0.06186-0.25767-0.55726-0.08296 0.82803-0.96267
   2   6  -4 1250.84   67.20  88 0.00363 0.31659 0.58617 0.05419 0.81018-0.94701
   2  -6   4 1482.63   59.50  59-0.04885 0.36911-0.23592-0.40497 0.97054-0.83652
  -2   6   4 1465.95   79.10  74-0.02491-0.29449 0.19291 0.44689 0.98090-0.84473
  -2  -6   4 1396.92   67.90  61-0.04623-0.27324-0.18225-0.45762 0.98216-0.84612
  -2   6  -4 1431.63   63.90  88 0.00358-0.32293 0.58560 0.05461 0.81059-0.94485
   2   6   4 1522.42   90.40  74-0.02307 0.34316 0.22155 0.41920 0.97488-0.84054
   2  -6  -4 1622.78   69.40  45-0.06357 0.38379-0.61428-0.02603 0.78653-0.92305
  -3  -6  -4  848.48   52.10  44-0.06397-0.41531-0.62883-0.01144 0.77491-0.90961
  -3   6   4  836.40   62.20  77-0.01810-0.46075 0.29627 0.34348 0.95493-0.81838
   3   6  -4  515.87   70.70  92 0.01056 0.46990 0.66661-0.02639 0.74533-0.88233
   3  -6   4  793.70   58.50  55-0.05445 0.53471-0.36005-0.28059 0.93134-0.79709
  -3   6  -4  868.78   55.50  92 0.01135-0.49000 0.67543-0.03510 0.73733-0.87102
   3  -6  -4  691.15   43.80  40-0.06593 0.54603-0.71257 0.07237 0.69849-0.83463
   3   6   4  739.57   82.30  78-0.01559 0.49718 0.33285 0.30869 0.94285-0.81088
  -3  -6   4  810.28   69.20  58-0.05058-0.42891-0.27288-0.36733 0.96072-0.82529
   0  -7  -4   -0.57   46.60  48-0.06125 0.06128-0.53861-0.20847 0.84032-0.97611
   0   7  -4  232.77   63.50  86-0.00027 0.00027 0.53838 0.20860 0.84270-0.97800
   0   7   4  142.80   51.10  74-0.02386 0.02387 0.20932 0.53792 0.97756-0.84266
   0  -7   4   -9.42   58.80  60-0.04756 0.04757-0.20925-0.53790 0.97671-0.84167
   1   7  -4 1305.72   84.50  87 0.00103 0.15896 0.55456 0.19259 0.83214-0.96832
   1  -7   4 1104.78   60.60  59-0.04900 0.20908-0.23913-0.50840 0.96975-0.83535
  -1  -7  -4 1181.55   77.80  48-0.06104-0.09805-0.53229-0.21304 0.84436-0.97211
  -1   7   4 1245.35   86.60  74-0.02327-0.13631 0.21846 0.52746 0.97557-0.83857
   1   7   4 1364.08   84.30  75-0.02231 0.18238 0.23311 0.51448 0.97220-0.83788
  -1   7  -4 1229.09   74.10  87 0.00095-0.16076 0.55355 0.19338 0.83282-0.96786
  -1  -7   4 1140.10   81.90  60-0.04782-0.11192-0.21460-0.53186 0.97553-0.83940
   1  -7  -4 1361.85   71.40  47-0.06213 0.22209-0.56576-0.18132 0.82223-0.95802
  -2   7   4  386.80   57.90  76-0.01989-0.29946 0.26970 0.47673 0.96274-0.82647
  -2  -7  -4  405.27   60.80  46-0.06230-0.25655-0.57129-0.17511 0.81838-0.95053
   2   7  -4  590.82   85.70  89 0.00467 0.31536 0.59862 0.14851 0.80102-0.93728
   2  -7   4  388.30   73.80  56-0.05207 0.37216-0.30562-0.44182 0.95073-0.81627
   2   7   4  559.80   65.50  77-0.01845 0.33874 0.29110 0.45666 0.95651-0.82263
  -2  -7   4  419.70   59.90  58-0.04984-0.26966-0.25702-0.48960 0.96512-0.82920
   2  -7  -4  566.70   48.70  44-0.06384 0.38389-0.62381-0.12329 0.77897-0.91511
  -2   7  -4  379.55   82.00  89 0.00542-0.32688 0.60754 0.14020 0.79427-0.93461
   0  -8  -4   67.77   72.00  46-0.06261 0.06345-0.58145-0.27588 0.81117-0.95910
   0   8  -4  177.63   98.90  88 0.00245-0.00246 0.57197 0.28279 0.82027-0.95918
   0   8   4   -1.78   75.10  77-0.01876 0.01877 0.28660 0.56750 0.95787-0.82316
   0  -8   4   81.51   68.80  57-0.05123 0.05128-0.28703-0.56718 0.95655-0.82200
  -1   0  -5241331.0  2848.5  10-0.05225-0.10759-0.99254 0.99245-0.11017-0.05895
   1   0   5240284.3  2474.8  22-0.06327 0.22319-0.97307 0.97336 0.22167-0.05256
  -1   0   5252957.1 -6012.2  18-0.06006-0.09979-0.99286 0.99281 0.10306 0.06606
  -2   0  -536381.77  368.70   4-0.04337-0.27585-0.95468 0.95302-0.29445 0.12511
  -2   0   540938.13   73.80  23-0.06422-0.25544-0.96231 0.96214 0.26426-0.09512
   2   0   542528.51  614.30  32-0.06727 0.38700-0.85497 0.85503 0.51430-0.34520
  -2   0   543594.14  777.40 104 0.03451-0.35376 0.89514-0.89400 0.44446-0.27498
   3   0   5  415.61   13.50  54-0.05505 0.53507-0.37425 0.37458 0.92569-0.75723
   3   0   5  358.62   15.50  92 0.01040 0.47010 0.66488-0.66623 0.74688-0.57892
  -3   0   5  476.09   13.90  34-0.06726-0.41195-0.81968 0.81900 0.56887-0.39941
  -3   0   5  337.35   22.00  90 0.00741-0.48618 0.63084-0.62982 0.77588-0.60577
   0  -1  -569927.37  397.80  30-0.06691 0.06689-0.89220 0.78523 0.44666-0.61558
   0   1  -574510.53 1541.20 104 0.03429-0.03428 0.89348-0.78646 0.44780-0.61668
   0   1   571183.37  931.40  36-0.06704 0.06701-0.78785 0.89409 0.61220-0.44284
   0  -1   5 2136.41 -609.00  97 0.02187-0.02189 0.78484-0.89244 0.61932-0.45064
   1  -1   596097.81  163.60  96 0.01878 0.14118 0.75421-0.86157 0.65637-0.48761
   1  -1   585458.67  491.30   2-0.03975 0.19954-0.93250 0.82552-0.35897 0.52792
  -1   1   567292.31 5278.50  37-0.06697-0.09286-0.78063 0.88710 0.62140-0.45215
   1   1   585621.64  787.70  40-0.06587 0.22563-0.70970 0.81608 0.70142-0.53208
   1  -1  -584550.34 2547.90  26-0.06557 0.22541-0.93913 0.83236 0.33724-0.50633
  -2  -1  -522974.66  299.20  24-0.06498-0.25469-0.95075 0.84394 0.30306-0.47213
   2  -1   521527.62  506.20  10-0.05235 0.37201-0.99280 0.88598-0.10776 0.27685
   2  -1   519073.67  274.80  89 0.00497 0.31513 0.60220-0.70980 0.79833-0.62999
  -2   1   524142.73  513.00  41-0.06536-0.25420-0.68501 0.79126 0.72559-0.55614
   2   1   521231.44   70.30  49-0.06024 0.38015-0.50895 0.61600 0.85869-0.68995
  -2  -1   521807.32  199.80   5-0.04442-0.27505-0.96052 0.85309-0.27464 0.44339
   2  -1  -521832.10  370.20  17-0.05980 0.37944-0.99372 0.88685 0.09461-0.26369
  -3  -1  -5  533.84   13.50  14-0.05639-0.42300-0.99839 0.89133-0.00596-0.16311
   3  -1   5  541.26   12.20  29-0.06666 0.54655-0.90528 0.79905 0.41956-0.25059
   3  -1   5  545.41   20.40  72-0.02696 0.50745 0.16045-0.26766 0.98668-0.81906
  -3   1   5  677.59   20.60  52-0.05756-0.42112-0.43635 0.54194 0.89793-0.72730
   3   1   5  494.19   19.50  63-0.04248 0.52254-0.10913 0.21605 0.99312-0.82479
  -3  -1   5    1.35  -16.30  14-0.05652-0.42230-0.99840 0.89014-0.00238 0.17121
  -3  -1   5  514.84   29.10  78-0.01637-0.46258 0.32145-0.42761 0.94678-0.77664
   3  -1  -5  528.45   16.70   3-0.04182 0.52161-0.94557 0.83923-0.32272 0.15366
  -4  -1   5 1930.27   47.40  33-0.06730-0.57182-0.83873 0.73166 0.54037-0.37107
  -4  -1   5 1925.93   44.20  58-0.04981-0.58845-0.25627 0.14926 0.96532-0.79464
   0  -2   525894.24  118.60  85-0.00269 0.00269 0.50781-0.72140 0.86147-0.69251
   1  -2   527019.54  106.40  83-0.00631 0.16631 0.46073-0.67477 0.88752-0.71905
  -1  -2  -510872.71 -407.80  39-0.06622-0.09370-0.72802 0.51496 0.68235-0.85208
   1   2  -524847.76  569.50  96 0.01820 0.14174 0.74840-0.53533 0.66299-0.83267
  -1   2   527421.46  280.60  49-0.05988-0.09992-0.49882 0.71188 0.86463-0.69515
   1   2   526364.95   97.30  52-0.05747 0.21740-0.43403 0.64770 0.89906-0.73022
   1  -2  -526626.21   84.20  37-0.06695 0.22687-0.77905 0.56579 0.62338-0.79273
  -1  -2   5 6688.89 -200.90  83-0.00582-0.15417 0.46724-0.68127 0.88411-0.71562
  -2  -2  -5 8177.73   49.60  36-0.06708-0.25253-0.79196 0.57833 0.60688-0.77573
   2   2  -5 8314.33   81.80 100 0.02627 0.29383 0.82617-0.61358 0.56281-0.73293
  -2   2   5 8176.86   56.30  53-0.05605-0.26352-0.39856 0.61168 0.91543-0.74593
   2  -2   5 8161.31  127.40  78-0.01727 0.33743 0.30839-0.52251 0.95110-0.78302
  -2  -2   5 8496.65   90.70  79-0.01410-0.30527 0.35408-0.56689 0.93511-0.76515
   2   2   5 7766.10   86.60  58-0.05050 0.37035-0.27102 0.48464 0.96125-0.79244
  -2   2  -5 7954.24   86.10 102 0.02972-0.34870 0.85640-0.64163 0.51546-0.68317
   2  -2  -5 8640.03  200.40  30-0.06704 0.38689-0.88322 0.67006 0.46414-0.63351
  -3  -2  -5  933.32   20.40  29-0.06676-0.41256-0.90045 0.68664 0.42981-0.59860
  -3   2   5  863.51   25.00  61-0.04597-0.43291-0.17711 0.38993 0.98312-0.81274
   3  -2   5  881.71   17.90   7-0.04802 0.52718-0.97794 0.76394-0.20328 0.37212
   3  -2   5  920.93   34.10  67-0.03713 0.51742-0.01073-0.20298 0.99925-0.83131
  -3  -2   5  944.52   23.50   1-0.03861-0.44088-0.92486 0.71133-0.37834 0.54739
  -3  -2   5  753.47   33.50  72-0.02782-0.45047 0.14675-0.35916 0.98878-0.81736
   3   2   5  755.74   34.30  67-0.03644 0.51588 0.00143 0.21195 0.99933-0.83003
   3  -2  -5  928.05   20.60  20-0.06188 0.54150-0.98409 0.77075 0.16656-0.33573
  -4  -2  -5 2091.79   45.10  16-0.05846-0.58075-0.99688 0.78319 0.05309-0.22214
  -4   2   5 2172.95   56.10  78-0.01637-0.62162 0.32155-0.10788 0.94675-0.77585
   4   2   5 1954.96   52.60  83-0.00654 0.64748 0.45770-0.24486 0.88908-0.72167
  -4  -2   5 2264.54   46.50  13-0.05521-0.58445-0.99778 0.78470-0.03734 0.20656
  -4  -2   5 2251.13   47.60  60-0.04732-0.59076-0.20446-0.00894 0.97773-0.80680
   0  -3  -5 3678.89   83.20  44-0.06373 0.06376-0.61972 0.29975 0.78223-0.95189
   0   3  -5 3760.77   75.30  90 0.00642-0.00642 0.61931-0.29915 0.78512-0.95418
   0   3   5 3937.98   57.50  57-0.05175 0.05176-0.29853 0.61870 0.95300-0.78392
   0  -3   5 3913.87   59.70  77-0.01793 0.01793 0.29876-0.61901 0.95416-0.78518
  -1  -3  -5 9608.24   88.10  44-0.06383-0.09599-0.62353 0.30331 0.77919-0.94804
  -1   3   510141.17  121.40  57-0.05125-0.10856-0.28737 0.60728 0.95645-0.78703
   1   3  -5 8137.13  123.70  91 0.00878 0.15123 0.64658-0.32679 0.76280-0.93292
   1  -3   5 9911.02  242.00  76-0.02089 0.18081 0.25465-0.57497 0.96681-0.79794
   1   3   5 9202.14   92.80  59-0.04906 0.20908-0.24049 0.56107 0.96941-0.80093
  -1   3  -5 9007.78  114.70  91 0.00902-0.16878 0.64923-0.32891 0.76054-0.92916
   1  -3  -5 9196.27   62.10  42-0.06500 0.22492-0.66920 0.34918 0.74024-0.90966
  -1  -3   5 9406.84  303.60  76-0.01963-0.14020 0.27355-0.59362 0.96166-0.79244
   2   3  -513186.07  161.40  94 0.01538 0.30462 0.71906-0.39931 0.69478-0.86473
   2  -3   513565.75  203.80  71-0.02926 0.34977 0.12327-0.44442 0.99194-0.82471
  -2   3   513680.68   88.70  60-0.04720-0.27230-0.20192 0.52166 0.97826-0.80853
  -2  -3  -513311.24  189.30  42-0.06528-0.25421-0.68159 0.36116 0.72881-0.89719
   2   3   513158.50  152.40  63-0.04269 0.36289-0.11316 0.43389 0.99266-0.82465
  -2   3  -513659.26  162.10  95 0.01692-0.33618 0.73518-0.41450 0.67766-0.84568
   2  -3  -512861.56  281.70  37-0.06683 0.38677-0.76894 0.44907 0.63582-0.80544
   3   3  -5 6229.32   99.90 100 0.02640 0.45410 0.82734-0.50827 0.56108-0.73174
  -3  -3  -5 6003.48  136.50  36-0.06703-0.41239-0.78670 0.46641 0.61369-0.78256
   3  -3   5 5753.61  126.30  63-0.04243 0.52288-0.10810-0.21240 0.99323-0.82552
  -3   3   5 6152.59  120.90  66-0.03769-0.44179-0.02086 0.34094 0.99907-0.82981
   3   3   5 5808.73  129.00  70-0.03068 0.51278 0.09999 0.22124 0.99452-0.82952
  -3  -3   5 6140.68  142.40  68-0.03527-0.44355 0.02190-0.34147 0.99914-0.82865
  -3   3  -5 5976.27   92.20 102 0.03090-0.50927 0.86631-0.54490 0.49856-0.66613
   3  -3  -5 6468.93   85.20  29-0.06683 0.54671-0.89686 0.57706 0.43724-0.60672
  -4  -3  -5 2313.80   54.40  28-0.06641-0.57216-0.91560 0.59460 0.39657-0.56487
   4  -3   5 2059.22   43.90  11-0.05305 0.69179-0.99442 0.67363-0.09122 0.26010
   4  -3   5 2151.75   53.50  49-0.06046 0.70051-0.51529 0.19533 0.85488-0.68639
  -4   3   5 2241.20   69.60  77-0.01830-0.61943 0.29330 0.02676 0.95584-0.78460
   4   3   5 2381.88   60.70  80-0.01176 0.65268 0.38689-0.06692 0.92205-0.75467
  -4  -3   5 2477.03   50.50   2-0.04087-0.59827-0.93967 0.61925-0.33964 0.50853
  -4  -3   5 1934.03   67.70  59-0.04872-0.59077-0.23338-0.08677 0.97116-0.80216
   4  -3  -5 2205.70   45.80  16-0.05878 0.69874-0.99630 0.67670 0.06274-0.23205
   0  -4  -528399.84  505.40  46-0.06235 0.06240-0.57277 0.14605 0.81734-0.98731
   0   4  -528467.40  332.30  88 0.00245-0.00245 0.57196-0.14511 0.82028-0.98941
   0   4   528293.36  195.80  62-0.04429 0.04431-0.14392 0.57097 0.98860-0.81977
   0  -4   528411.72  155.60  72-0.02797 0.02797 0.14433-0.57134 0.98913-0.82024
  -1  -4  -5 5362.26   79.10  46-0.06244-0.09738-0.57577 0.14887 0.81523-0.98405
   1   4  -5 5205.04   98.40  88 0.00436 0.15558 0.59493-0.16818 0.80376-0.97340
   1  -4   5 4895.05  118.70  70-0.03048 0.19052 0.10329-0.53067 0.99418-0.82589
  -1   4   5 5729.15  118.20  62-0.04374-0.11605-0.13318 0.55971 0.99013-0.82052
   1   4   5 4983.60  109.40  64-0.04192 0.20202-0.09847 0.52597 0.99426-0.82616
  -1  -4   5 4986.81  125.80  71-0.02892-0.13081 0.12888-0.55522 0.99124-0.82135
  -1   4  -5 5342.64  104.00  88 0.00438-0.16411 0.59516-0.16819 0.80360-0.97200
   1  -4  -5 5115.44  110.40  45-0.06352 0.22333-0.61239 0.18551 0.78800-0.95693
  -2  -4  -5 1448.22   43.50  44-0.06389-0.25567-0.62557 0.19862 0.77755-0.94614
   2  -4   5 1538.49   48.20  67-0.03657 0.35669-0.00084-0.42651 0.99933-0.83118
  -2   4   5 1500.90   53.60  65-0.03986-0.27965-0.06005 0.48655 0.99740-0.82769
   2   4  -5 1515.23   61.60  91 0.01012 0.31032 0.66165-0.23536 0.74974-0.92104
   2   4   5 1499.97   50.90  67-0.03653 0.35651-0.00014 0.42732 0.99933-0.83085
  -2  -4   5 1592.57   59.80  69-0.03335-0.28619 0.05507-0.48164 0.99793-0.82832
   2  -4  -5 1612.08   39.10  41-0.06567 0.38566-0.69951 0.27287 0.71160-0.88137
  -2   4  -5 1327.01   55.70  92 0.01069-0.33019 0.66806-0.24107 0.74403-0.91261
  -3  -4  -5 4784.24   79.10  40-0.06599-0.41326-0.71586 0.28880 0.69512-0.86361
   3   4  -5 4407.70   97.00  96 0.01914 0.46133 0.75785-0.33166 0.65215-0.82290
   3  -4   5 4192.60   87.00  61-0.04633 0.52699-0.18429-0.24307 0.98178-0.81437
  -3   4   5 4741.85  101.30  70-0.03179-0.44690 0.08137 0.34481 0.99618-0.82546
   3   4   5 4283.13  106.20  72-0.02704 0.50735 0.15913 0.26812 0.98689-0.81897
  -3  -4   5 4653.82  116.70  64-0.04055-0.43842-0.07279-0.35358 0.99652-0.82629
  -3   4  -5 4285.40  120.70  97 0.02162-0.50017 0.78246-0.35490 0.62233-0.78986
   3  -4  -5 4747.49  103.00  35-0.06726 0.54726-0.81935 0.39281 0.56934-0.73906
   4   4  -5 1335.55   53.90 103 0.03201 0.60907 0.87542-0.44981 0.48230-0.65322
  -4  -4  -5 1249.38   45.90  33-0.06730-0.57195-0.83860 0.41164 0.54058-0.70952
   4  -4   5 1278.01   43.90  51-0.05874 0.69908-0.46747 0.04068 0.88205-0.71388
  -4   4   5 1343.60   53.40  78-0.01663-0.62080 0.31782 0.10868 0.94800-0.77640
   4   4   5 1239.04   59.20  80-0.01188 0.65330 0.38521 0.04177 0.92275-0.75595
  -4  -4   5 1215.40   60.00  58-0.05047-0.58923-0.27045-0.15647 0.96141-0.79267
   4  -4  -5 1137.23   40.90  25-0.06519 0.70427-0.94701 0.51993 0.31450-0.48341
   0  -5  -518120.36  118.60  47-0.06182 0.06182-0.55624 0.02269 0.82872-0.99783
   0   5  -519607.99  198.30  87 0.00123-0.00123 0.55703-0.02347 0.83049-0.99972
   0   5   518908.73  199.40  66-0.03781 0.03781-0.02296 0.55656 0.99902-0.82995
   0  -5   518989.89  151.20  68-0.03526 0.03528 0.02208-0.55594 0.99913-0.83047
  -1  -5  -5  192.24   30.40  47-0.06195-0.09787-0.56015 0.02658 0.82607-0.99484
   1   5  -5  291.93   49.30  88 0.00288 0.15711 0.57710-0.04358 0.81667-0.98662
   1  -5   5  237.50   60.40  66-0.03730 0.19735-0.01382-0.52025 0.99921-0.83090
  -1   5   5  134.72   59.40  66-0.03730-0.12233-0.01378 0.54635 0.99921-0.82858
   1   5   5  339.76   59.70  67-0.03566 0.19590 0.01523 0.51937 0.99925-0.83179
  -1  -5   5  204.41   67.30  67-0.03581-0.12387 0.01260-0.54539 0.99928-0.82898
  -1   5  -5  178.56   67.40  88 0.00282-0.16259 0.57646-0.04288 0.81712-0.98576
   1  -5  -5  157.27   47.60  46-0.06291 0.22276-0.59123 0.05768 0.80404-0.97317
  -2  -5  -5 2462.61   64.50  45-0.06325-0.25634-0.60277 0.06918 0.79540-0.96411
   2   5  -5 2473.86   78.60  90 0.00758 0.31255 0.63280-0.09937 0.77428-0.94469
   2  -5   5 2505.69   82.70  64-0.04210 0.36225-0.10185-0.43224 0.99391-0.82580
  -2   5   5 2323.43   83.70  69-0.03302-0.28780 0.06064 0.47477 0.99761-0.83172
   2   5   5 2652.91   80.10  70-0.03085 0.35141 0.09711 0.43752 0.99479-0.82770
  -2  -5   5 2730.22   90.30  65-0.03924-0.28036-0.04882-0.48456 0.99804-0.82861
  -2   5  -5 2454.21   76.00  90 0.00807-0.32781 0.63839-0.10484 0.76967-0.93891
   2  -5  -5 2385.04   87.00  42-0.06494 0.38530-0.66680 0.13347 0.74240-0.91309
   3   5  -5 1685.90   76.40  94 0.01533 0.46494 0.71857-0.18530 0.69528-0.86574
  -3  -5  -5 2002.63   72.50  42-0.06526-0.41408-0.68074 0.14711 0.72961-0.89827
   3  -5   5 1846.78   65.40  58-0.04949 0.52976-0.24956-0.28438 0.96709-0.79905
  -3   5   5 1830.68   70.90  73-0.02646-0.45199 0.16841 0.36426 0.98536-0.81426
  -3   5  -5 1597.43   64.30  95 0.01694-0.49554 0.73541-0.20147 0.67741-0.84490
   3  -5  -5 1699.71   50.00  37-0.06687 0.54692-0.77147 0.23813 0.63274-0.80260
   3   5   5 1841.74   85.70  75-0.02282 0.50359 0.22539 0.30892 0.97400-0.80683
  -3  -5   5 1719.25   70.20  62-0.04486-0.43448-0.15503-0.37834 0.98689-0.81736
   4   5  -5  330.53   47.10 100 0.02647 0.61470 0.82792-0.29521 0.56021-0.73144
  -4  -5  -5  852.51   46.30  36-0.06703-0.57090-0.78623 0.25202 0.61428-0.78138
   4  -5   5  506.65   41.00  50-0.05880 0.69868-0.46914-0.06447 0.88117-0.71252
  -4   5   5  659.24   57.10  79-0.01372-0.62399 0.35942 0.17367 0.93307-0.76189
   4   5   5  545.96   54.10  81-0.01048 0.65167 0.40452 0.12939 0.91447-0.74738
  -4  -5   5  701.27   53.10  56-0.05230-0.58634-0.31078-0.22250 0.94904-0.77891
  -4   5  -5  872.46   48.70 102 0.03089-0.66834 0.86627-0.33174 0.49862-0.66579
   4  -5  -5  658.82   32.60  29-0.06682 0.70716-0.89745 0.36437 0.43602-0.60594
   0  -6  -5 2786.60   71.20  47-0.06197 0.06197-0.56072-0.07956 0.82568-0.99490
   0   6  -5 2683.54   80.80  87 0.00158-0.00158 0.56136 0.07893 0.82757-0.99688
   0  -6   5 2359.27   92.80  64-0.04093 0.04094-0.07986-0.56058 0.99597-0.82709
   0   6   5 2604.47   95.90  70-0.03127 0.03148 0.09017 0.55388 0.99543-0.83200
   1   6  -5 4101.07  105.00  88 0.00299 0.15700 0.57852 0.06180 0.81566-0.98566
   1  -6   5 3215.61  102.90  63-0.04265 0.20269-0.11229-0.52847 0.99276-0.82440
  -1   6   5 4205.55  100.70  70-0.03124-0.12853 0.09070 0.54922 0.99539-0.82573
  -1  -6  -5 3855.21  100.30  47-0.06209-0.09778-0.56454-0.07574 0.82307-0.99232
  -1  -6   5 3371.64  110.00  64-0.04142-0.11842-0.08906-0.55115 0.99516-0.82596
  -1   6  -5 3711.82   97.80  88 0.00296-0.16275 0.57810 0.06215 0.81596-0.98471
   1   6   5 3530.00  124.50  71-0.03007 0.19022 0.10994 0.53116 0.99348-0.82564
   1  -6  -5 3113.66   87.70  46-0.06285 0.22246-0.58920-0.05102 0.80554-0.97361
  -2  -6  -5 1361.95   59.10  45-0.06319-0.25642-0.60068-0.03957 0.79699-0.96575
   2   6  -5 1166.38   72.10  90 0.00707 0.31309 0.62685 0.01344 0.77911-0.94963
  -2   6   5 1255.16   65.90  72-0.02794-0.29131 0.14468 0.49483 0.98908-0.81870
   2  -6   5 1139.36   75.40  61-0.04633 0.36564-0.18439-0.45538 0.98176-0.81175
   2   6   5 1407.51   74.80  73-0.02578 0.34634 0.17924 0.46218 0.98347-0.81636
  -2   6  -5 1407.55   65.70  90 0.00731-0.32672 0.62969 0.01057 0.77681-0.94506
   2  -6  -5 1111.06   53.50  43-0.06464 0.38461-0.65459 0.01433 0.75322-0.92297
  -2  -6   5 1265.40   79.80  62-0.04386-0.27525-0.13558-0.50361 0.98979-0.81891
   3  -6   5   36.53   34.40  56-0.05242 0.53286-0.31346-0.32736 0.94815-0.78032
  -3  -6  -5   41.63   54.50  43-0.06482-0.41237-0.66182 0.02143 0.74686-0.91076
   3   6  -5   44.00   74.60  93 0.01411 0.46750 0.70551-0.06552 0.70856-0.88156
  -3   6   5   59.00   75.60  76-0.02022-0.46308 0.26483 0.37850 0.96408-0.80143
  -3  -6   5   -7.93   52.90  59-0.04841-0.43057-0.22676-0.41295 0.97275-0.80255
  -3   6  -5   41.90   48.40  94 0.01499-0.49360 0.71494-0.07452 0.69903-0.86649
   3   6   5  200.96   70.50  76-0.01940 0.49711 0.27704 0.36189 0.96066-0.78862
   3  -6  -5   93.74   45.30  38-0.06653 0.54620-0.74696 0.10671 0.66153-0.83083
   0  -7  -5 2079.30   67.10  46-0.06249 0.06252-0.57747-0.16958 0.81401-0.98353
   0   7  -5 2144.49  102.10  88 0.00295-0.00295 0.57796 0.16910 0.81606-0.98560
   0   7   5 2054.44   93.90  73-0.02633 0.02635 0.17049 0.57687 0.98501-0.81641
   0  -7   5 2137.44   88.40  61-0.04563 0.04564-0.17025-0.57694 0.98434-0.81551
  -1  -7  -5  754.85   49.90  46-0.06257-0.09727-0.58017-0.16681 0.81209-0.98118
   1  -7   5  433.14   57.90  60-0.04707 0.20710-0.19936-0.54810 0.97880-0.81037
  -1   7   5  880.86   68.10  73-0.02565-0.13417 0.18129 0.56553 0.98309-0.81374
   1   7  -5  331.02   84.60  88 0.00343 0.15538 0.58377 0.16212 0.81191-0.97446
  -1  -7   5  497.74   58.10  61-0.04597-0.11386-0.17711-0.56979 0.98312-0.81387
   1  -7  -5  589.82   50.50  45-0.06328 0.22328-0.60402-0.14305 0.79445-0.96420
   1   7   5  363.93   78.50  74-0.02475 0.18493 0.19539 0.55255 0.98041-0.81270
  -1   7  -5  594.32   90.40  88 0.00343-0.16201 0.58377 0.16195 0.81191-0.97341
   2   7  -5 1086.82   80.90  90 0.00775 0.31242 0.63468 0.11247 0.77273-0.94326
   2  -7   5 1083.33   61.60  58-0.05030 0.37059-0.26678-0.48096 0.96244-0.79457
  -2   7   5 1064.51   79.60  75-0.02252-0.29691 0.22988 0.51662 0.97296-0.80309
  -2  -7  -5  865.27   68.50  45-0.06355-0.25644-0.61359-0.13355 0.78706-0.95729
   2   7   5 1202.91   96.40  76-0.02079 0.34178 0.25616 0.49267 0.96641-0.80029
  -2  -7   5  927.08   85.30  60-0.04797-0.27130-0.21764-0.52849 0.97485-0.80442
  -2   7  -5 1007.00   86.80  90 0.00810-0.32781 0.63875 0.10824 0.76937-0.93852
   2  -7  -5  921.29   70.40  43-0.06456 0.38182-0.65129-0.09508 0.75608-0.91933
   0  -8  -5   85.73   48.70  45-0.06322 0.06324-0.60180-0.25200 0.79614-0.96566
   0   8  -5   55.21   71.90  89 0.00500-0.00500 0.60255 0.25133 0.79807-0.96789
   0   8   5  243.48   81.60  76-0.02114 0.02112 0.25097 0.60226 0.96776-0.79802
   0  -8   5  212.28   74.00  59-0.04936 0.04914-0.24664-0.60437 0.96785-0.79519
   0   0   623078.29 1111.80  17-0.05990 0.05986-0.99340 0.99266 0.09781 0.10507
  -1   0  -6 7547.17   40.20  10-0.05167-0.10818-0.99098 0.99096-0.12363-0.07932
   1   0  -6 7378.06   65.50   7-0.04804 0.20792-0.97805 0.97815-0.20276-0.00019
  -1   0   6 7384.61   37.20  18-0.06044-0.09939-0.99145 0.99121 0.11562 0.08731
   1   0   6 7841.73  100.90  21-0.06307 0.22288-0.97499 0.97479 0.21312-0.01017
  -2   0  -615144.29  656.20   4-0.04392-0.27578-0.95780 0.95779-0.28407 0.08112
  -2   0   614134.09  264.00  23-0.06397-0.25574-0.96544 0.96547 0.25265-0.04970
   3   0   6 1455.62   29.30  46-0.06227 0.54225-0.57043 0.57087 0.81898-0.61651
   3   0   6 1386.49   31.50  97 0.02105 0.45954 0.77685-0.77860 0.62933-0.42733
  -3   0   6 1464.80   29.00  32-0.06725-0.41210-0.85951 0.85908 0.50668-0.30358
  -3   0   6 1458.57   37.40  94 0.01528-0.49400 0.71803-0.71682 0.69584-0.49206
  -4   0   6   84.69    8.20  54-0.05456-0.58408-0.36264 0.36216 0.93033-0.72643
  -4   0   6  107.72   11.70  70-0.03145-0.60625 0.08717-0.08693 0.99570-0.79051
   0  -1  -613807.75  157.30  26-0.06591 0.06592-0.93090 0.82430 0.35928-0.56230
   0   1   614697.50   58.20  34-0.06728 0.06728-0.82407 0.93071 0.56248-0.35951
   0  -1   614680.53   75.70 100 0.02621-0.02621 0.82558-0.93230 0.56368-0.36073
   0  -1   612997.33 -106.40   2-0.03967 0.03967-0.93197 0.82528-0.36037 0.56333
  -1  -1  -689267.45  126.50  26-0.06579-0.09405-0.93400 0.82716 0.35118-0.55404
   1  -1   686091.06  917.00   5-0.04432 0.20420-0.95994 0.85334-0.27669 0.47970
   1  -1   685952.71  804.60  98 0.02362 0.13629 0.80160-0.90869 0.59739-0.39460
  -1   1   691950.80 1520.50  34-0.06726-0.09256-0.81955 0.92600 0.56905-0.36600
   1   1   680710.74  130.00  38-0.06672 0.22664-0.76030 0.86724 0.64614-0.44331
  -1  -1   688189.10 1300.90   3-0.04113-0.11872-0.94131 0.83456-0.33504 0.53797
  -1  -1   687291.84 4804.20  97 0.02182-0.18159 0.78435-0.89067 0.61993-0.41680
  -2  -1  -6121176.4   142.9  22-0.06347-0.25617-0.97105 0.86415 0.23030-0.43315
   2  -1   6126905.1  1211.9  12-0.05457 0.37452-0.99707 0.89095-0.05367 0.25679
   2  -1   6125823.2   911.7  92 0.01217 0.30795 0.68453-0.79234 0.72888-0.52666
  -2   1   6123523.2  1162.7  39-0.06648-0.25309-0.74378 0.85005 0.66511-0.46191
  -2  -1   6128274.7   160.4   7-0.04776-0.27188-0.97681 0.86987-0.20874 0.41158
   2   1   6120146.7  1195.9  45-0.06310 0.38312-0.59781 0.70511 0.79915-0.59669
  -2  -1   6 7890.81-1168.90  92 0.01047-0.33006 0.66566-0.77211 0.74618-0.54305
   2  -1  -6119101.0  1533.2  16-0.05829 0.37824-0.99715 0.89102 0.04792-0.25104
  -3  -1  -6  573.31   14.60  13-0.05528-0.42383-0.99784 0.89018-0.03562-0.16716
   3  -1   6  645.12   15.90  27-0.06608 0.54630-0.92619 0.82048 0.37121-0.16846
   3  -1   6  656.78   22.80  80-0.01295 0.49326 0.37024-0.47768 0.92885-0.72700
  -3   1   6  496.93   21.00  47-0.06154-0.41768-0.54743 0.65362 0.83459-0.63113
   3   1   6  611.17   25.90  58-0.05008 0.53088-0.26207 0.36965 0.96375-0.76258
  -3  -1   6  678.80   20.00  15-0.05758-0.42129-0.99797 0.88981 0.02727 0.17540
  -3  -1   6  528.37   27.00  82-0.00810-0.47077 0.43692-0.54283 0.89947-0.69549
   3  -1  -6  665.61   20.50   4-0.04315 0.52289-0.95345 0.84703-0.29845 0.09553
  -4   1   6 1004.27   29.80  68-0.03420-0.60408 0.04042 0.06617 0.99860-0.79417
  -4   1   6 1152.67   27.20  86 0.00043-0.63810 0.54712-0.43922 0.83705-0.63238
  -4  -1   6 1186.32   27.30  30-0.06697-0.57196-0.88813 0.78077 0.45469-0.25153
  -4  -1   6 1139.58   35.70  66-0.03758-0.60069-0.01887-0.08768 0.99912-0.79466
   0  -2  -6 6361.32   54.20  36-0.06704 0.06707-0.78764 0.57446 0.61248-0.81578
   0   2  -6 5885.46  103.20  98 0.02236-0.02238 0.78960-0.57658 0.61321-0.81673
   0   2   6 1430.24 -317.30  46-0.06237 0.06237-0.57356 0.78697 0.81679-0.61383
   0  -2   6 6582.71  142.70  88 0.00282-0.00282 0.57646-0.78944 0.81712-0.61382
  -1  -2  -6 8202.39   51.40  36-0.06707-0.09277-0.79079 0.57729 0.60841-0.81125
   1  -2   6 8703.52  140.60  86-0.00049 0.16048 0.53559-0.74965 0.84448-0.64208
   1   2  -6 8008.60  129.00  99 0.02423 0.13567 0.80738-0.59420 0.58953-0.79280
  -1   2   6 8254.63  114.30  47-0.06209-0.09780-0.56454 0.77822 0.82307-0.62033
   1   2   6 8089.55   92.30  49-0.06019 0.22012-0.50745 0.72115 0.85958-0.65688
  -1  -2   6 8669.49   89.80  86-0.00019-0.15961 0.53940-0.75257 0.84205-0.63888
  -1   2  -6 8631.61  143.40  99 0.02570-0.18540 0.82093-0.60700 0.57046-0.77277
   1  -2  -6 8439.76  159.10  34-0.06730 0.22713-0.83393 0.62045 0.54775-0.75063
   2   2  -6  955.76   42.70 103 0.03134 0.28875 0.86994-0.65739 0.49216-0.69604
  -2  -2   6 1046.42   49.80  82-0.00833-0.31089 0.43378-0.64621 0.90098-0.69696
  -2   2  -6 1214.08   37.40 105 0.03523-0.35443 0.90063-0.68622 0.43316-0.63520
   2   2   6 1062.88   44.30  55-0.05442 0.37432-0.35924 0.57297 0.93166-0.72910
   2  -2  -6  764.22   28.70  28-0.06636 0.38619-0.91720 0.70401 0.39285-0.59600
  -3   2   6  879.92   27.70  57-0.05128-0.42778-0.28804 0.50087 0.95625-0.75242
  -3  -2  -6  954.30   25.00  26-0.06584-0.41382-0.93264 0.71941 0.35475-0.55785
   3  -2   6  972.47   23.60   9-0.05094 0.53039-0.98881 0.77523-0.14019 0.34308
   3  -2   6  680.66   33.80  71-0.02948 0.51077 0.11963-0.33419 0.99238-0.79211
  -3  -2   6  846.76   31.40  75-0.02187-0.45673 0.23988-0.45236 0.97056-0.76601
   3  -2  -6  953.27   21.30  18-0.06051 0.54020-0.99118 0.77795 0.11787-0.32090
   3   2   6  866.07   35.30  63-0.04215 0.52233-0.10277 0.31657 0.99381-0.79181
  -3  -2   6  922.26   27.70   3-0.04223-0.43742-0.94802 0.73475-0.31540 0.51846
  -4  -2  -6 2799.16   47.80  14-0.05687-0.58263-0.99835 0.78506 0.00728-0.21027
  -4   2   6 2266.38   71.20  71-0.02898-0.60996 0.12792 0.08544 0.99136-0.78781
   4   2   6 2513.96   62.20  78-0.01613 0.65762 0.32505-0.11198 0.94556-0.74498
  -4  -2   6 2640.24   57.60  14-0.05649-0.58335-0.99840 0.78556-0.00330 0.20641
  -4  -2   6 2302.35   49.80  64-0.04117-0.59741-0.08445-0.12880 0.99558-0.79153
   0  -3  -6 4880.23  114.40  42-0.06534 0.06533-0.68428 0.36408 0.72629-0.92908
   0   3  -6 5946.61  143.30  92 0.01232-0.01233 0.68615-0.36609 0.72735-0.93050
   0   3   6 1407.96  495.80  54-0.05468 0.05467-0.36556 0.68550 0.92918-0.72602
   1  -3   6 2030.29   54.10  78-0.01615 0.17613 0.32475-0.64538 0.94566-0.74328
  -1  -3  -6 1928.29   60.80  41-0.06541-0.09436-0.68738 0.36691 0.72335-0.92546
   1   3  -6 1911.89   61.30  93 0.01425 0.14568 0.70703-0.38710 0.70704-0.91046
  -1   3   6 1974.51   55.80  55-0.05427-0.10552-0.35587 0.67566 0.93296-0.72963
  -1   3  -6 1747.93   45.90  94 0.01484-0.17455 0.71335-0.39290 0.70065-0.90286
   1   3   6 1937.52   52.30  56-0.05219 0.21229-0.30817 0.62905 0.94990-0.74782
  -1  -3   6 2005.23   64.90  79-0.01502-0.14474 0.34093-0.66068 0.93997-0.73658
   1  -3  -6 1902.92   44.60  39-0.06625 0.22619-0.72993 0.40996 0.68030-0.88361
  -2  -3  -6 9591.47   99.00  39-0.06642-0.25316-0.74030 0.41996 0.66899-0.87152
   2  -3   6 9528.54  115.00  74-0.02401 0.34428 0.20693-0.52793 0.97806-0.77638
   2   3  -6 8539.35  115.90  97 0.02104 0.30008 0.77680-0.45884 0.62940-0.83631
  -2   3   6 9517.85  201.10  57-0.05081-0.26863-0.27788 0.59743 0.95927-0.75559
   2   3   6 9217.27  146.00  61-0.04650 0.36665-0.18770 0.50845 0.98113-0.77913
  -2  -3   6 8682.02  256.20  76-0.02085-0.29830 0.25536-0.57443 0.96662-0.76226
  -2   3  -6 8441.64  115.50  98 0.02236-0.34146 0.78960-0.46864 0.61321-0.81472
   2  -3  -6 9482.61  162.90  35-0.06725 0.38710-0.81617 0.49622 0.57389-0.77713
   3   3  -616918.95  210.70 102 0.03055 0.44992 0.86343-0.54442 0.50354-0.70794
   3  -3   615614.82  402.30  67-0.03715 0.51760-0.01115-0.30952 0.99925-0.79768
   3   3   615560.52  233.50  67-0.03592 0.51658 0.01056 0.31024 0.99930-0.79806
  -3  -3   616389.16  272.50  70-0.03073-0.44795 0.09911-0.41842 0.99460-0.79010
   3  -3  -615923.59  235.80  27-0.06621 0.54540-0.92221 0.60167 0.38099-0.58355
  -4  -3  -6 2193.17   50.60  26-0.06550-0.57346-0.94070 0.62008 0.33285-0.53539
   4  -3   6 1989.89   37.20  13-0.05529 0.69519-0.99785 0.67820-0.03511 0.23823
   4  -3   6 1784.17   48.70  53-0.05632 0.69754-0.40503 0.08512 0.91257-0.71147
  -4   3   6 1957.89   61.10  73-0.02584-0.61171 0.17824 0.14146 0.98365-0.77833
   4   3   6 1998.44   63.40  77-0.01782 0.65859 0.30044 0.01974 0.95363-0.75224
  -4  -3   6 2092.99   53.70   4-0.04369-0.59531-0.95646 0.63589-0.28856 0.49117
  -4  -3   6 2007.77   62.30  62-0.04440-0.59470-0.14616-0.17389 0.98826-0.78492
   4  -3  -6 2191.96   45.80  15-0.05765 0.69735-0.99791 0.67807 0.02917-0.23222
   0  -4  -615988.37   99.60  44-0.06400 0.06400-0.62977 0.20293 0.77414-0.97710
   0   4  -615576.27  117.60  90 0.00741-0.00741 0.63077-0.20394 0.77593-0.97895
   0   4   615970.04  111.10  60-0.04723 0.04724-0.20243 0.62954 0.97816-0.77553
   0  -4   615587.41  213.30  74-0.02426 0.02427 0.20301-0.63005 0.97888-0.77617
  -1  -4  -6 2858.51   54.20  44-0.06410-0.09572-0.63355 0.20665 0.77104-0.97372
   1   4  -6 2881.88   73.60  91 0.00916 0.15080 0.65082-0.22413 0.75918-0.96282
   1  -4   6 2892.80   81.70  73-0.02665 0.18663 0.16547-0.59274 0.98585-0.78347
  -1   4   6 3267.44   73.20  60-0.04686-0.11284-0.19491 0.62093 0.97970-0.77570
  -1   4  -6 3091.44   68.00  91 0.00941-0.16918 0.65372-0.22676 0.75668-0.95915
   1  -4  -6 3059.52   57.40  42-0.06499 0.22493-0.66894 0.24219 0.74047-0.94380
   1   4   6 2585.74   79.50  62-0.04501 0.20508-0.15799 0.58548 0.98641-0.78432
   2  -4   6 4324.83   91.20  69-0.03269 0.35271 0.06620-0.49349 0.99727-0.79503
  -2  -4  -6 4502.96   69.30  42-0.06525-0.25452-0.68024 0.25346 0.73008-0.93326
   2   4  -6 4383.85   95.40  94 0.01451 0.30577 0.70981-0.28350 0.70425-0.90892
  -2   4   6 4221.49   82.00  63-0.04337-0.27589-0.12610 0.55205 0.99107-0.78684
   2   4   6 4631.54   92.20  65-0.03991 0.35989-0.06109 0.48832 0.99733-0.79500
  -2  -4   6 4681.35   90.40  71-0.02964-0.28954 0.11704-0.54290 0.99268-0.78831
  -2   4  -6 4664.36   77.10  94 0.01544-0.33466 0.71966-0.29240 0.69415-0.89583
   2  -4  -6 4348.55  114.90  38-0.06653 0.38649-0.74719 0.32056 0.66127-0.86479
   3   4  -6 1789.60   63.70  98 0.02312 0.45736 0.79685-0.37075 0.60373-0.80831
  -3  -4  -6 1828.28   51.20  38-0.06676-0.41296-0.76279 0.33607 0.64320-0.84648
   3  -4   6 1792.02   61.70  63-0.04288 0.52453-0.11680-0.31129 0.99223-0.79244
  -3   4   6 1891.27   56.40  67-0.03585-0.44300 0.01190 0.41428 0.99929-0.79506
   3   4   6 2150.46   69.10  70-0.03065 0.51191 0.10048 0.32746 0.99447-0.79417
  -3  -4   6 1970.63   69.70  67-0.03709-0.44168-0.01014-0.41597 0.99926-0.79491
  -3   4  -6 1839.20   75.00 100 0.02608-0.50461 0.82442-0.39677 0.56537-0.76677
   3  -4  -6 1978.25   51.60  32-0.06728 0.54712-0.85352 0.42690 0.51669-0.72001
  -4  -4  -6 1949.18   43.40  31-0.06718-0.57179-0.87022 0.44304 0.48806-0.69049
   4   4  -6 1905.39   69.10 105 0.03503 0.60528 0.89907-0.47293 0.43639-0.64030
   4  -4   6 2166.45   52.00   3-0.04253 0.68141-0.94982 0.52258-0.30988 0.51244
   4  -4   6 2028.72   58.60  53-0.05578 0.69649-0.39190-0.03501 0.91831-0.71671
  -4   4   6 2277.70   82.20  75-0.02168-0.61662 0.24275 0.18376 0.96985-0.76552
   4   4   6 1989.88   67.30  78-0.01643 0.65745 0.32063 0.10648 0.94706-0.74594
  -4  -4   6 2107.37   70.40  60-0.04687-0.59018-0.19521-0.23072 0.97964-0.77360
   4  -4  -6 1925.02   50.50  23-0.06426 0.70320-0.96180 0.53459 0.26611-0.46875
   0  -5  -6  373.56   44.10  45-0.06337 0.06337-0.60693 0.07338 0.79223-0.99529
   0   5  -6  304.05   44.30  89 0.00544-0.00544 0.60781-0.07427 0.79406-0.99722
   0   5   6  563.80   54.90  64-0.04067 0.04064-0.07515 0.60821 0.99634-0.79274
   0  -5   6  455.37   58.50  69-0.03223 0.03222 0.07409-0.60754 0.99673-0.79363
  -1  -5  -6 5714.73   90.60  45-0.06346-0.09637-0.61024 0.07667 0.78967-0.99239
   1   5  -6 5862.54  122.10  90 0.00695 0.15302 0.62549-0.09201 0.78020-0.98393
   1  -5   6 5653.49  112.00  68-0.03428 0.19426 0.03906-0.57299 0.99865-0.79621
  -1   5   6 6099.86  109.40  65-0.03999-0.11983-0.06248 0.59588 0.99724-0.79408
  -1  -5   6 5830.95  119.20  69-0.03304-0.12679 0.06029-0.59377 0.99763-0.79458
  -1   5  -6 5766.73  116.40  90 0.00708-0.16686 0.62698-0.09339 0.77900-0.98155
   1   5   6 6379.72  132.70  66-0.03860 0.19864-0.03716 0.57126 0.99856-0.79637
   1  -5  -6 5997.31  149.20  43-0.06429 0.22429-0.64081 0.10732 0.76500-0.96859
  -2  -5  -6 2368.76   61.00  43-0.06452-0.25506-0.64971 0.11609 0.75744-0.95993
   2   5  -6 2283.28   72.00  92 0.01143 0.30858 0.67633-0.14291 0.73651-0.94040
  -2   5   6 2447.09   71.10  67-0.03665-0.28286-0.00223 0.53541 0.99933-0.79582
   2  -5   6 2114.76   81.60  65-0.03919 0.35946-0.04795-0.48637 0.99808-0.79638
  -2  -5   6 2263.85   75.10  67-0.03646-0.28320 0.00108-0.53456 0.99933-0.79627
   2   5   6 2279.45   86.60  68-0.03404 0.35403 0.04327 0.49068 0.99848-0.79618
  -2   5  -6 2325.85   76.70  92 0.01211-0.33144 0.68382-0.15009 0.72955-0.93146
   2  -5  -6 1982.82   53.70  40-0.06585 0.38569-0.70853 0.17504 0.70260-0.90587
   3   5  -6  423.27   43.90  96 0.01899 0.46151 0.75637-0.22327 0.65386-0.85858
  -3  -5  -6  416.38   46.80  40-0.06613-0.41349-0.72323 0.18970 0.68744-0.89053
   3  -5   6  751.79   63.50  60-0.04685 0.52765-0.19476-0.33960 0.97973-0.77862
  -3   5   6  633.79   56.70  71-0.03017-0.44761 0.10836 0.42352 0.99365-0.78758
   3   5   6  524.65   49.80  73-0.02597 0.50721 0.17615 0.35860 0.98402-0.78367
  -3   5  -6  449.37   40.20  97 0.02092-0.49939 0.77559-0.24151 0.63088-0.83203
  -3  -5   6  747.54   60.20  63-0.04225-0.43723-0.10464-0.42884 0.99361-0.79052
   3  -5  -6  681.15   42.50  35-0.06718 0.54649-0.80475 0.27107 0.58980-0.79238
  -4  -5  -6   75.54   35.10  34-0.06727-0.57120-0.82065 0.28662 0.56746-0.76914
   4   5  -6   90.72   52.60 102 0.03026 0.61428 0.86097-0.33017 0.50775-0.71669
   4  -5   6  115.44   41.40  53-0.05654 0.69613-0.41059-0.12301 0.91007-0.70730
  -4   5   6  338.17   57.70  77-0.01770-0.62082 0.30208 0.23115 0.95312-0.74910
  -4  -5   6  127.76   36.30  58-0.04988-0.58832-0.25787-0.27513 0.96489-0.76038
   4   5   6  247.78   59.40  79-0.01353 0.65715 0.36218 0.17248 0.93201-0.73376
  -4   5  -6  124.29   42.00 104 0.03441-0.67199 0.89433-0.35980 0.44608-0.64728
   4  -5  -6   79.15   26.00  28-0.06633 0.70641-0.91827 0.38508 0.39037-0.59389
   0  -6  -6   73.61   40.40  45-0.06329 0.06330-0.60430-0.03598 0.79424-0.99735
   0   6  -6   -4.67   62.20  89 0.00522-0.00522 0.60518 0.03510 0.79607-0.99937
   0   6   6  120.55   54.10  68-0.03442 0.03444 0.03662 0.60400 0.99874-0.79624
   0  -6   6   48.51   83.40  65-0.03900 0.03922-0.04449-0.59909 0.99825-0.79972
  -1  -6  -6 2915.44   75.70  45-0.06338-0.09647-0.60734-0.03292 0.79191-0.99479
   1   6  -6 1934.63  100.60  90 0.00741 0.15387 0.63077 0.00959 0.77593-0.98804
   1  -6   6 2488.51  103.70  65-0.04032 0.20048-0.06869-0.57244 0.99682-0.79506
  -1   6   6 2870.51   98.10  69-0.03384-0.12595 0.04665 0.59335 0.99834-0.79503
   1   6   6 2795.18   94.90  69-0.03272 0.19274 0.06568 0.57510 0.99730-0.79506
   1  -6  -6 2721.50   92.60  44-0.06410 0.22405-0.63342-0.00686 0.77115-0.97455
  -1  -6   6 2696.41  100.60  65-0.03922-0.12081-0.04844-0.59272 0.99806-0.79630
  -1   6  -6 2586.53   81.10  90 0.00678-0.16681 0.62344 0.01685 0.78184-0.98585
   2  -6   6  238.17   48.60  62-0.04425 0.36447-0.14306-0.49793 0.98873-0.78691
  -2  -6  -6  174.25   54.10  43-0.06456-0.25709-0.65129 0.01111 0.75608-0.96632
   2   6  -6  261.84   65.70  92 0.01048 0.30969 0.66572-0.02549 0.74612-0.95050
  -2   6   6  364.32   62.90  70-0.03052-0.28933 0.10252 0.53802 0.99426-0.79172
  -2  -6   6  223.51   45.20  64-0.04174-0.27780-0.09514-0.54483 0.99459-0.79119
  -2   6  -6  260.25   47.50  92 0.01091-0.33016 0.67054-0.03023 0.74179-0.94344
   2  -6  -6  354.56   36.00  41-0.06555 0.38564-0.69377 0.05356 0.71721-0.92109
   2   6   6  267.96   78.80  71-0.02867 0.34848 0.13287 0.50755 0.99072-0.78801
   3   6  -6   -5.03   52.20  95 0.01704 0.46340 0.73647-0.09639 0.67625-0.88089
   3  -6   6   54.99   37.00  58-0.05035 0.53098-0.26778-0.37324 0.96216-0.76076
  -3  -6  -6  166.56   46.40  40-0.06581-0.41391-0.70658 0.06634 0.70457-0.90790
  -3   6   6  333.29   66.60  74-0.02488-0.45209 0.19341 0.44432 0.98080-0.77343
   3   6   6  236.67   69.20  75-0.02117 0.50381 0.25047 0.39220 0.96789-0.76965
  -3  -6   6  127.96   85.10  60-0.04662-0.43404-0.19008-0.45134 0.98066-0.77968
  -3   6  -6  149.14   51.80  96 0.01824-0.49564 0.74876-0.10802 0.66259-0.86179
   3  -6  -6   73.59   46.70  37-0.06691 0.54431-0.77500 0.13420 0.62841-0.82808
   0  -7  -6 1853.45   96.70  45-0.06357 0.06354-0.61411-0.13280 0.78665-0.98910
   0   7  -6 1816.13  110.00  89 0.00604-0.00604 0.61481 0.13212 0.78865-0.99122
   0   7   6 2328.91  104.00  71-0.02879 0.02877 0.13103 0.61559 0.99096-0.78754
   0  -7   6 1800.24  102.20  62-0.04371 0.04373-0.13261-0.61464 0.99020-0.78760
   1   7  -6  230.43   53.50  90 0.00727 0.15274 0.62915 0.11795 0.77725-0.98120
  -1   7   6  174.96   52.10  72-0.02806-0.13173 0.14278 0.60394 0.98936-0.78607
  -1  -7  -6  106.49   53.00  44-0.06368-0.09623-0.61823-0.12884 0.78342-0.98699
   1  -7   6  329.10   74.10  62-0.04510 0.20493-0.15975-0.58717 0.98613-0.78309
  -1  -7   6  107.40   52.00  62-0.04408-0.11576-0.13978-0.60712 0.98920-0.78614
  -1   7  -6  122.46   49.00  90 0.00737-0.16719 0.63037 0.11659 0.77626-0.97901
   1   7   6  162.69   77.00  72-0.02681 0.18764 0.16294 0.58712 0.98627-0.78745
   1  -7  -6  166.20   51.90  44-0.06422 0.22369-0.63808-0.10872 0.76729-0.96858
  -2  -7  -6  100.58   40.50  43-0.06447-0.25515-0.64772-0.09923 0.75915-0.96179
   2  -7   6   53.15   58.40  59-0.04848 0.36881-0.22829-0.51957 0.97239-0.77073
   2   7  -6  272.81   81.10  91 0.01036 0.30849 0.66436 0.08239 0.74734-0.94765
  -2   7   6  120.58   86.50  74-0.02479-0.29544 0.19483 0.55313 0.98052-0.77895
  -2  -7   6   45.56   65.10  61-0.04621-0.27330-0.18191-0.56468 0.98223-0.77874
  -2   7  -6  -44.33   62.90  92 0.01116-0.33044 0.67338 0.07351 0.73922-0.94096
   2  -7  -6  165.29   42.00  41-0.06555 0.38570-0.69390-0.05315 0.71708-0.92109
   2   7   6  215.17   82.80  75-0.02304 0.34467 0.22196 0.52798 0.97478-0.77617
   0   0  -7 1494.02  564.80  10-0.05189 0.05190-0.99160 0.99162-0.11844-0.11834
   0   0   7 3860.45   72.40  18-0.06050 0.06048-0.99123 0.99102 0.11752 0.11923
   1   0  -7108104.0   146.7   7-0.04793 0.20780-0.97756 0.97766-0.20515-0.03163
  -1   0  -7114069.9  1161.9   9-0.05101-0.10887-0.98901 0.98921-0.13874-0.09805
   1   0   7 4414.70 -102.20  22-0.06353 0.22431-0.97048 0.97451 0.23267 0.00412
  -1   0   7106675.1  1155.9  18-0.06088-0.09896-0.98956 0.98942 0.13064 0.10612
  -2   0  -7 4115.12   62.30   5-0.04443-0.27529-0.96056 0.96062-0.27449 0.03772
   2   0   7 4343.80   54.10  29-0.06672 0.38654-0.90247 0.90274 0.42555-0.18883
   3   0   7  769.90   18.90  42-0.06502 0.54503-0.67028 0.67085 0.73925-0.50290
   3   0   7  670.13   26.60 100 0.02663 0.45379 0.82935-0.83093 0.55809-0.32192
  -3   0   7  885.68   22.10  30-0.06705-0.41223-0.88253 0.88195 0.46545-0.22853
  -3   0   7  919.61   35.60  97 0.02062-0.49885 0.77261-0.77057 0.63454-0.39671
  -4   0   7  111.44   13.60  46-0.06261-0.57660-0.58139 0.58119 0.81121-0.57424
  -4   0   7   99.15   18.80  79-0.01437-0.62410 0.35017-0.34964 0.93658-0.69875
   0  -1  -716972.36   61.00  24-0.06470 0.06470-0.95537 0.84864 0.28823-0.52500
   0   1   716778.29   64.20  33-0.06729 0.06729-0.84851 0.95523 0.52488-0.28810
   0  -1   717050.28  249.90 101 0.02901-0.02901 0.85036-0.95701 0.52540-0.28860
   1  -1   7 3909.36   63.70   7-0.04761 0.20746-0.97619 0.86943-0.21164 0.44839
   1  -1   7 4106.36   51.10 100 0.02680 0.13314 0.83093-0.93830 0.55573-0.31918
  -1   1   7 3930.31   50.90  33-0.06730-0.09253-0.84482 0.95133 0.53080-0.29396
  -1  -1  -7 3938.48   77.70  24-0.06457-0.09523-0.95745 0.85022 0.28129-0.51775
   1   1   7 4073.86   47.70  36-0.06712 0.22700-0.79629 0.90313 0.60119-0.36446
  -1  -1   7 4037.13   51.70   5-0.04477-0.11507-0.96238 0.85557-0.26801 0.50473
  -1  -1   7 3954.75   55.20  99 0.02511-0.18484 0.81555-0.92166 0.57813-0.34113
   1  -1  -7 4078.01   48.60  21-0.06277 0.22267-0.97761 0.87111 0.20083-0.43771
   2  -1   721328.03   89.70  95 0.01728 0.30282 0.73894-0.84677 0.67355-0.43735
  -2  -1  -720466.61  163.80  20-0.06186-0.25803-0.98422 0.87815 0.16577-0.40284
   2  -1   721933.16  518.20  14-0.05602 0.37574-0.99830 0.89161-0.01590 0.25268
  -2   1   721610.82  593.40  37-0.06699-0.25258-0.78288 0.88915 0.61855-0.38159
  -2  -1   722583.66   76.10   9-0.05031-0.26940-0.98673 0.88002-0.15437 0.39115
  -2  -1   720778.60   98.70  94 0.01515-0.33450 0.71664-0.82249 0.69728-0.46002
   2   1   721584.44  581.40  43-0.06483 0.38472-0.66237 0.76945 0.74637-0.50984
   2  -1  -720858.42  623.60  15-0.05711 0.37686-0.99827 0.89168 0.01396-0.25077
  -3  -1  -7  258.21   14.70  12-0.05404-0.42526-0.99628 0.88904-0.06706-0.16962
   3  -1   7  196.78   13.00  26-0.06565 0.54567-0.93733 0.83133 0.34221-0.10553
   3  -1   7  154.97   18.80  85-0.00349 0.48397 0.49757-0.60543 0.86742-0.63184
  -3   1   7  296.71   19.60  44-0.06379-0.41587-0.62208 0.72898 0.78035-0.54372
  -3  -1   7  203.77   12.40  16-0.05867-0.42081-0.99651 0.88963 0.05933 0.17741
   3   1   7  170.11   19.20  53-0.05566 0.53566-0.38885 0.49599 0.91962-0.68342
  -3  -1   7  145.29   25.40  86-0.00125-0.47693 0.52613-0.63101 0.85041-0.61186
   3  -1  -7  192.42   17.10   4-0.04337 0.52402-0.95468 0.84974-0.29445 0.05780
  -4   1   7 1047.57   34.80  59-0.04855-0.59001-0.22965 0.33587 0.97206-0.73422
  -4   1   7 1074.75   30.30  93 0.01306-0.65115 0.69423-0.58634 0.71963-0.48188
   4   1   7 1072.37   27.60  75-0.02266 0.66350 0.22776-0.12132 0.97345-0.73827
   4   1   7 1170.87   31.70  99 0.02418 0.61718 0.80693-0.70244 0.59015-0.35450
  -4  -1   7 1246.11   29.10  28-0.06660-0.57238-0.90806 0.80075 0.41351-0.17660
  -4  -1   7 1089.76   34.90  72-0.02790-0.61049 0.14545-0.25175 0.98897-0.75095
   0  -2  -7 1870.52  -38.20  33-0.06730 0.06732-0.83878 0.62553 0.54030-0.77729
   0   2  -7 1199.97   38.90 101 0.02787-0.02788 0.84043-0.62726 0.54121-0.77831
   0   2   7 1252.99   31.00  44-0.06386 0.06387-0.62476 0.83828 0.77820-0.54149
   0  -2   7 1160.47   39.50  90 0.00703-0.00703 0.62644-0.83991 0.77944-0.54269
  -1  -2  -7 9820.26   86.00  33-0.06730-0.09253-0.84146 0.62793 0.53611-0.77275
   1   2  -7 8680.88  -97.60 102 0.02961 0.13041 0.85543-0.64283 0.51708-0.75483
   1  -2   7 9647.07  123.00  88 0.00424 0.15576 0.59358-0.80778 0.80477-0.56854
  -1   2   7 9883.31  178.10  44-0.06374-0.09606-0.62013 0.83304 0.78191-0.54480
   1  -2  -7 9716.57   56.80  31-0.06711 0.22700-0.87689 0.66356 0.47598-0.71285
   1   2   7 9746.72  146.40  47-0.06209 0.22214-0.56454 0.77865 0.82307-0.58682
  -1  -2   7 9430.10  103.30  88 0.00418-0.16402 0.59280-0.80616 0.80534-0.56851
  -1   2  -7 9654.99  128.90 102 0.03106-0.19074 0.86762-0.65362 0.49626-0.73239
  -2  -2  -748024.64  114.50  30-0.06701-0.25260-0.88549 0.67182 0.45979-0.69631
   2   2  -748492.91  152.10 105 0.03559 0.28440 0.90332-0.69061 0.42749-0.66496
   2  -2   747909.46  150.20  84-0.00479 0.32501 0.48071-0.69523 0.87687-0.64111
   2  -2   747684.88  393.60   2-0.03975 0.35923-0.93248 0.71861-0.35903 0.59544
  -2   2   722005.31 -669.10  48-0.06135-0.25852-0.54159 0.75549 0.83840-0.60201
   2   2   747303.39  141.10  52-0.05739 0.37734-0.43199 0.64584 0.90005-0.66371
   2  -2  -750833.13  758.00  25-0.06544 0.38525-0.94200 0.72878 0.32917-0.56610
  -3  -2  -7 2288.55   35.20  24-0.06479-0.41459-0.95400 0.74025 0.29274-0.52928
  -3   2   7 2372.37   46.80  54-0.05517-0.42398-0.37720 0.59007 0.92449-0.68706
   3  -2   7 2324.16   41.30  11-0.05325 0.53310-0.99484 0.78185-0.08632 0.32328
   3  -2   7 2205.78   52.30  75-0.02163 0.50192 0.24348-0.45757 0.96966-0.73396
  -3  -2   7 2245.48   51.60  78-0.01652-0.46226 0.31931-0.53184 0.94751-0.70955
   3   2   7 2275.42   54.80  60-0.04698 0.52726-0.19751 0.41150 0.97917-0.74342
  -3  -2   7 2415.87   43.60   5-0.04530-0.43464-0.96515 0.75241-0.25773 0.49495
   3  -2  -7 2372.60   43.70  17-0.05923 0.53884-0.99530 0.78196 0.07656-0.31336
  -4  -2  -7 2633.48   46.70  13-0.05536-0.58468-0.99790 0.78533-0.03351-0.20349
   4  -2   7 2338.90   52.20  30-0.06706 0.70687-0.88204 0.66900 0.46638-0.22973
   4  -2   7 2440.06   72.10  57-0.05203 0.69262-0.30468 0.09141 0.95103-0.71548
  -4   2   7 2280.44   72.90  66-0.03810-0.60108-0.02821 0.24154 0.99888-0.76182
   4   2   7 2440.75   71.60  73-0.02507 0.66564 0.19033 0.02313 0.98140-0.74592
  -4  -2   7 2540.87   59.40  15-0.05746-0.58203-0.99807 0.78475 0.02373 0.21308
  -4  -2   7 2445.51   62.80  68-0.03498-0.60318 0.02695-0.23988 0.99902-0.76068
   4  -2  -7 2550.62   60.80   2-0.04063 0.68033-0.93815 0.72504-0.34385 0.10712
   0  -3  -740539.30  127.10  39-0.06644 0.06644-0.74146 0.42133 0.66769-0.90447
   0   3  -743707.95  169.10  95 0.01763-0.01763 0.74256-0.42239 0.66955-0.90624
   0   3   741531.68  145.20  52-0.05697 0.05698-0.42128 0.74154 0.90514-0.66848
   0  -3   739436.04  352.90  82-0.00913 0.00913 0.42300-0.74302 0.90608-0.66921
   1   3  -730226.60  143.70  96 0.01936 0.14057 0.76012-0.44024 0.64950-0.88681
  -1  -3  -729193.30  294.10  39-0.06648-0.09331-0.74411 0.42372 0.66474-0.90098
   1  -3   728600.18  691.30  80-0.01186 0.17191 0.38546-0.70639 0.92265-0.68663
  -1   3   729380.36  516.80  53-0.05666-0.10317-0.41355 0.73352 0.90872-0.67179
   1   3   730322.22  130.80  54-0.05484 0.21483-0.36928 0.68985 0.92770-0.69135
  -1  -3   728672.94  143.90  81-0.01096-0.14882 0.39798-0.71775 0.91733-0.68021
  -1   3  -729972.74  334.60  97 0.02020-0.17994 0.76853-0.44810 0.63949-0.87569
   1  -3  -729658.33  276.10  37-0.06697 0.22684-0.78074 0.46064 0.62126-0.85811
  -2  -3  -7 3237.52   49.20  36-0.06707-0.25256-0.79004 0.46976 0.60937-0.84589
   2   3  -7 3136.97   68.30  99 0.02503 0.29506 0.81475-0.49526 0.57927-0.81711
  -2   3   7 3061.17   53.50  55-0.05367-0.26588-0.34193 0.66171 0.93819-0.70103
   2  -3   7 2898.16   82.50  77-0.01926 0.33944 0.27916-0.60015 0.96005-0.72430
  -2  -3   7 3079.33   65.80  78-0.01685-0.30256 0.31452-0.63405 0.94910-0.71165
   2   3   7 3085.81   64.40  58-0.05008 0.36901-0.26207 0.58099 0.96375-0.72545
  -2   3  -7 3301.48   74.70 100 0.02734-0.34654 0.83571-0.51483 0.54849-0.78413
   2  -3  -7 3153.82   55.50  32-0.06727 0.38698-0.85492 0.53479 0.51437-0.75116
  -3  -3  -7  479.48   29.50  31-0.06719-0.41246-0.86920 0.54919 0.48987-0.72681
   3   3  -7  700.09   50.00 104 0.03439 0.44642 0.89421-0.57570 0.44633-0.68504
   3  -3   7  508.12   24.20   2-0.03979 0.51955-0.93273 0.61284-0.35838 0.59540
   3  -3   7  551.09   50.50  70-0.03207 0.51251 0.07679-0.39761 0.99653-0.76108
  -3   3   7  550.45   46.60  60-0.04675-0.43218-0.19271 0.51210 0.98014-0.74228
   3   3   7  678.85   47.50  65-0.04035 0.52003-0.06923 0.38946 0.99678-0.76019
  -3  -3   7  523.80   49.10  73-0.02651-0.45220 0.16760-0.48683 0.98550-0.74733
   3  -3  -7  633.57   30.70  25-0.06539 0.54447-0.94313 0.62246 0.32594-0.56223
  -4  -3  -7 1899.29   44.90  23-0.06444-0.57469-0.95930 0.63886 0.27493-0.51146
   4  -3   7 1459.77   32.30  14-0.05645 0.69505-0.99840 0.67747-0.00421 0.24071
   4  -3   7 1432.70   43.70  57-0.05139 0.69264-0.29042-0.02979 0.95552-0.72067
  -4   3   7 1643.51   64.50  70-0.03200-0.60597 0.07786 0.24170 0.99645-0.75788
  -4  -3   7 1563.94   50.60   6-0.04623-0.59295-0.96979 0.64942-0.23950 0.47610
   4   3   7 1486.10   48.00  74-0.02332 0.66413 0.21766 0.10269 0.97575-0.74053
  -4  -3   7 1646.88   65.10  65-0.03973-0.59753-0.05779-0.26141 0.99754-0.75804
   4  -3  -7  387.52 -114.20  14-0.05653 0.69612-0.99840 0.67844-0.00201-0.23482
   0  -4  -7 2811.20   88.60  42-0.06530 0.06530-0.68257 0.25570 0.72789-0.96455
   0   4  -7 2612.22   85.00  92 0.01202-0.01202 0.68288-0.25588 0.73043-0.96663
   0   4   7 2801.77   62.90  58-0.04978 0.04980-0.25568 0.68275 0.96548-0.72895
   0  -4   7 2521.44  103.90  76-0.02022 0.02014 0.26483-0.68899 0.96408-0.72449
   1   4  -7 7495.07  105.30  93 0.01365 0.14626 0.70056-0.27381 0.71347-0.95060
  -1  -4  -7 7617.80  143.10  41-0.06540-0.09450-0.68718 0.26047 0.72354-0.96085
   1  -4   7 7178.31  207.60  74-0.02311 0.18314 0.22087-0.64836 0.97503-0.73898
  -1   4   7 7496.65  134.30  59-0.04937-0.11046-0.24687 0.67356 0.96779-0.73084
   1   4   7 7393.56  102.40  60-0.04772 0.20775-0.21249 0.63988 0.97600-0.73986
  -1  -4   7 7329.09  108.50  75-0.02195-0.13785 0.23869-0.66527 0.97085-0.73377
   1  -4  -7 7268.57   90.80  40-0.06604 0.22596-0.71853 0.29177 0.69236-0.92941
  -1   4  -7 6685.21  141.10  93 0.01408-0.17377 0.70525-0.27813 0.70882-0.94469
   2  -4   7   56.57   38.90  71-0.02923 0.34979 0.12378-0.55198 0.99188-0.75695
  -2   4   7  -30.30   35.40  61-0.04624-0.27326-0.18242 0.60880 0.98213-0.74478
  -2  -4  -7  116.13   35.60  39-0.06620-0.25341-0.72731 0.30036 0.68311-0.91955
   2   4  -7  103.23   49.70  96 0.01827 0.30099 0.74907-0.32176 0.66224-0.89771
   2   4   7   16.57   42.50  63-0.04285 0.36308-0.11610 0.54375 0.99231-0.75664
  -2  -4   7   69.64   39.40  73-0.02628-0.29290 0.17134-0.59713 0.98486-0.74676
   2  -4  -7  104.45   22.20  36-0.06706 0.38701-0.78919 0.36257 0.61048-0.84780
  -2   4  -7   72.08   47.20  96 0.01988-0.33883 0.76533-0.33773 0.64333-0.87814
   3   4  -7 5544.32  116.80 100 0.02684 0.45366 0.83122-0.40522 0.55529-0.79372
  -3  -4  -7 5790.23  102.00  36-0.06716-0.41214-0.80133 0.37426 0.59443-0.83070
   3  -4   7 5423.91  142.90  66-0.03890 0.51941-0.04268-0.38487 0.99833-0.76295
  -3   4   7 5660.06  101.90  65-0.03922-0.44050-0.04835 0.47538 0.99806-0.76156
   3   4   7 5044.17  156.20  68-0.03441 0.51477 0.03679 0.39066 0.99873-0.76315
  -3   4  -7 5128.63   99.80 102 0.03013-0.50859 0.85991-0.43213 0.50955-0.74471
  -3  -4   7 5413.77  112.30  69-0.03382-0.44503 0.04700-0.47310 0.99832-0.76035
   3  -4  -7 5245.96  142.00  30-0.06705 0.54687-0.88284 0.45622 0.46487-0.70199
  -4  -4  -7 1612.19   51.30  29-0.06682-0.57205-0.89751 0.47022 0.43591-0.67205
   4  -4   7 1575.99   37.40   5-0.04549 0.68459-0.96609 0.53901-0.25415 0.49071
   4  -4   7 1390.16   54.10  56-0.05252 0.69325-0.31561-0.11145 0.94744-0.71202
  -4   4   7 1823.11   69.30  73-0.02666-0.61121 0.16530 0.26089 0.98588-0.74723
   4   4   7 1482.50   71.50  76-0.02068 0.66141 0.25782 0.16937 0.96597-0.73065
  -4  -4   7 1376.29   68.10  62-0.04400-0.59417-0.13838-0.28787 0.98940-0.75106
   4  -4  -7 1774.05   53.00  21-0.06318 0.70277-0.97399 0.54729 0.21762-0.45451
   0  -5  -7   17.12   29.10  43-0.06463 0.06463-0.65393 0.12038 0.75379-0.99062
   0   5  -7  178.50   39.60  91 0.00952-0.00952 0.65490-0.12136 0.75565-0.99256
   0   5   7  155.15   36.50  63-0.04306 0.04307-0.12008 0.65390 0.99183-0.75535
   0  -5   7   81.05   50.00  71-0.02944 0.02945 0.12032-0.65413 0.99230-0.75581
  -1  -5  -710093.61  154.70  43-0.06470-0.09513-0.65682 0.12323 0.75127-0.98781
   1   5  -7 8904.38  152.10  92 0.01086 0.14904 0.67002-0.13651 0.74226-0.97936
   1  -5   7 9592.48  164.40  70-0.03148 0.19161 0.08653-0.62097 0.99575-0.76005
  -1   5   7 9936.40  180.50  63-0.04255-0.11729-0.11039 0.64386 0.99298-0.75610
   1   5   710387.17  164.50  64-0.04118 0.20121-0.08455 0.61866 0.99557-0.75946
  -1   5  -7 9622.71  158.60  92 0.01115-0.17087 0.67325-0.13958 0.73933-0.97536
  -1  -5   7 9593.99  182.80  71-0.03018-0.12957 0.10824-0.64129 0.99367-0.75628
   1  -5  -7 9944.44  211.00  41-0.06538 0.22541-0.68592 0.15248 0.72473-0.96226
  -2  -5  -7 1290.47   46.80  41-0.06555-0.25411-0.69377 0.16019 0.71721-0.95382
   2   5  -7 1338.04   64.70  94 0.01518 0.30480 0.71700-0.18361 0.69691-0.93455
   2  -5   7 1231.35   58.00  67-0.03629 0.35649 0.00404-0.53834 0.99933-0.76361
  -2   5   7 1536.03   59.70  65-0.03945-0.28007-0.05257 0.58574 0.99784-0.76057
   2   5   7 1300.10   63.50  67-0.03679 0.35680-0.00467 0.53870 0.99931-0.76321
  -2  -5   7 1361.22   74.10  69-0.03302-0.28468 0.06064-0.59004 0.99761-0.75552
  -2   5  -7 1715.07   74.90  94 0.01611-0.33534 0.72680-0.19296 0.68666-0.92212
   2  -5  -7 1408.93   52.60  38-0.06656 0.38657-0.74900 0.21561 0.65922-0.89670
  -3   5   7  902.99   52.40  69-0.03299-0.44625 0.06116 0.47207 0.99758-0.76027
  -3  -5  -7 1055.33   58.40  38-0.06666-0.41116-0.75599 0.22150 0.65118-0.88424
   3   5  -7 1068.61   67.70  98 0.02224 0.45751 0.78843-0.25498 0.61472-0.85186
   3  -5   7  752.90   63.40  62-0.04440 0.52677-0.14616-0.38948 0.98826-0.75552
  -3  -5   7  827.33   55.40  65-0.03960-0.43969-0.05535-0.47792 0.99768-0.76044
  -3   5  -7  791.34   43.30  99 0.02472-0.50322 0.81192-0.27778 0.58324-0.81830
   3   5   7  635.55   68.90  71-0.02876 0.51120 0.13149 0.40435 0.99090-0.75841
   3  -5  -7  988.52   44.90  33-0.06730 0.54738-0.83765 0.30438 0.54204-0.77957
  -4  -5  -7  107.32   38.80  33-0.06729-0.57017-0.84839 0.31376 0.52507-0.75925
   4   5  -7  242.76   66.80 103 0.03286 0.61008 0.88228-0.35075 0.46958-0.71048
   4  -5   7  182.30   38.80  55-0.05439 0.69544-0.35849-0.17548 0.93195-0.69683
  -4   5   7  134.18   52.70  76-0.02102-0.61995 0.25273 0.28154 0.96731-0.73239
  -4  -5   7  187.04   37.60  60-0.04753-0.59080-0.20857-0.32440 0.97685-0.73873
   4  -5  -7   76.90   19.60  26-0.06572 0.70549-0.93583 0.40248 0.34627-0.58335
   4   5   7  195.32   57.80  77-0.01830 0.65529 0.29327 0.23941 0.95585-0.71643
   0  -6  -7 2675.61   73.80  43-0.06441 0.06443-0.64559 0.00533 0.76096-0.99791
   0   6  -7 2335.82  102.10  91 0.00939-0.00945 0.65346-0.01327 0.75691-0.99987
   0   6   7 2596.23   82.50  67-0.03682 0.03683-0.00537 0.64575 0.99931-0.76266
   0  -6   7 2739.96   88.40  67-0.03627 0.03630 0.00439-0.64518 0.99933-0.76317
  -1  -6  -7 2010.90   65.20  43-0.06448-0.09536-0.64825 0.00798 0.75869-0.99541
   1  -6   7 1886.54   67.90  66-0.03795 0.19799-0.02540-0.61545 0.99896-0.76290
  -1   6   7 1955.06   75.70  67-0.03624-0.12358 0.00491 0.63521 0.99933-0.76238
   1   6  -7 1696.75   95.80  91 0.01002 0.14999 0.66062-0.02037 0.75065-0.98848
   1   6   7 2097.01   81.20  68-0.03511 0.19516 0.02478 0.61613 0.99908-0.76309
  -1  -6   7 1788.54   72.60  67-0.03684-0.12305-0.00572-0.63480 0.99930-0.76282
   1  -6  -7 1744.61   76.10  42-0.06509 0.22507-0.67333 0.03307 0.73648-0.97378
  -1   6  -7 1987.35   95.20  91 0.01014-0.16981 0.66191-0.02162 0.74951-0.98524
   2   6  -7  405.10   56.60  93 0.01376 0.30624 0.70180-0.06159 0.71224-0.94996
  -2   6   7  606.20   67.10  69-0.03318-0.28646 0.05785 0.58229 0.99777-0.76084
  -2  -6  -7  647.02   55.90  42-0.06528-0.25456-0.68151 0.04126 0.72890-0.96618
   2  -6   7  741.74   70.60  64-0.04200 0.36238-0.10001-0.54128 0.99410-0.75875
   2   6   7  716.18   61.00  70-0.03096 0.35156 0.09521 0.54645 0.99498-0.76013
  -2  -6   7  533.57   58.30  65-0.03958-0.28012-0.05500-0.58526 0.99770-0.76092
  -2   6  -7  379.33   65.20  94 0.01448-0.33374 0.70948-0.06912 0.70458-0.94013
   2  -6  -7  694.76   52.10  39-0.06625 0.38628-0.72979 0.08960 0.68045-0.91802
  -3  -6  -7  182.82   37.90  39-0.06642-0.41290-0.74030 0.09997 0.66899-0.90527
  -3   6   7  192.20   50.20  72-0.02738-0.45105 0.15381 0.48524 0.98772-0.74906
   3   6  -7  226.48   65.90  97 0.02011 0.46012 0.76764-0.12756 0.64056-0.87864
   3  -6   7  200.30   64.90  59-0.04872 0.53257-0.23338-0.41019 0.97116-0.74035
   3   6   7  260.02   55.10  74-0.02422 0.50507 0.20369 0.43770 0.97874-0.74386
  -3  -6   7  355.98   60.50  62-0.04422-0.43473-0.14254-0.49704 0.98880-0.75098
   3  -6  -7  374.91   31.30  35-0.06722 0.54716-0.81025 0.17010 0.58221-0.81956
  -3   6  -7  309.37   65.70  97 0.02190-0.50029 0.78516-0.14455 0.61891-0.85370
   0  -7  -7  136.14   37.40  43-0.06456 0.06458-0.65116-0.09585 0.75619-0.99330
   0   7  -7  111.25   45.50  91 0.00925-0.00925 0.65187 0.09515 0.75827-0.99542
   0   7   7  159.33   51.50  70-0.03089 0.03091 0.09642 0.65093 0.99486-0.75851
   0  -7   7  295.12   72.00  63-0.04214 0.04235-0.10265-0.64756 0.99382-0.76084
  -1  -7  -7   45.47   50.30  43-0.06461-0.09524-0.65340-0.09358 0.75425-0.99105
   1  -7   7   93.48   55.10  63-0.04329 0.20336-0.12458-0.62306 0.99126-0.75528
   1   7  -7  633.09   81.60  91 0.01028 0.14962 0.66350 0.08351 0.74810-0.98521
  -1   7   7  231.78   85.30  71-0.03022-0.12971 0.10746 0.63990 0.99375-0.75743
   1   7   7  135.27   52.00  71-0.02934 0.18949 0.12205 0.62592 0.99209-0.75652
   1  -7  -7   58.13   32.60  42-0.06515 0.22516-0.67577-0.07127 0.73423-0.97171
  -1  -7   7   -6.92   84.50  63-0.04288-0.11806-0.11680-0.63609 0.99223-0.76253
  -1   7  -7   38.90   75.50  92 0.01136-0.17268 0.67556 0.07203 0.73722-0.98234
   2   7  -7  -43.43   70.40  93 0.01368 0.30632 0.70093 0.04610 0.71310-0.95081
  -2   7   7   48.46   72.80  72-0.02745-0.29183 0.15260 0.59352 0.98791-0.75005
  -2  -7  -7  133.03   69.00  42-0.06510-0.25244-0.67345-0.07290 0.73636-0.96486
   2  -7   7  337.39   73.20  61-0.04656 0.36639-0.18891-0.55827 0.98089-0.74438
   2   7   7  278.38   61.20  73-0.02558 0.34619 0.18232 0.56614 0.98291-0.74809
  -2  -7   7  422.15   62.30  62-0.04440-0.27509-0.14616-0.60037 0.98826-0.75092
  -2   7  -7  411.59   77.10  94 0.01433-0.33365 0.70787 0.03907 0.70620-0.94189
   2  -7  -7  146.76   51.50  39-0.06618 0.38635-0.72626-0.02075 0.68423-0.92212
   0   0  -850439.54 -749.10   9-0.05050 0.05070-0.98739 0.99135-0.15006-0.12102
   0   0   879250.48 -531.90  19-0.06105 0.06107-0.98876 0.98907 0.13646 0.13418
  -1   0  -8  391.75   17.80   9-0.05037-0.10949-0.98694 0.98701-0.15300-0.11761
   1   0  -8  507.00   18.40   7-0.04764 0.20752-0.97630 0.97642-0.21112-0.05948
  -1   0   8  411.68   16.10  19-0.06130-0.09852-0.98750 0.98720 0.14518 0.12538
   1   0   8  363.58   23.20  22-0.06328 0.22326-0.97298 0.97355 0.22206 0.04857
   2   0   846697.03  103.80  28-0.06649 0.38629-0.91249 0.91273 0.40365-0.13309
  -2   0   846099.56 1133.40  23-0.06386-0.25576-0.96675 0.96647 0.24762 0.02297
   3   0   8  227.82   16.40  39-0.06627 0.54603-0.73107 0.73135 0.67907-0.40863
   3   0   8  229.39   24.40 102 0.02983 0.45053 0.85731-0.85884 0.51394-0.24377
  -3   0   8  240.47   17.00  29-0.06685-0.41242-0.89588 0.89527 0.43923-0.16852
  -3   0   8  163.32   24.90  99 0.02389-0.50227 0.80418-0.80230 0.59390-0.32254
   4   0   8 2250.80   50.00  64-0.04105 0.68194-0.08222 0.08240 0.99577-0.72675
   4   0   8 2142.89   50.90  80-0.01299 0.65375 0.36972-0.37049 0.92905-0.65981
  -4   0   8 2048.81   66.10  42-0.06510-0.57422-0.67348 0.67337 0.73633-0.46566
  -4   0   8 2036.86   49.20  84-0.00464-0.63408 0.48271-0.48218 0.87577-0.60451
   0   1   841948.82  392.70  32-0.06722 0.06726-0.86405 0.97124 0.49889-0.22840
   0  -1   845415.63  425.30   6-0.04678 0.04676-0.97240 0.86536-0.22856 0.49897
   0  -1   843917.59  524.10 102 0.03090-0.03091 0.86633-0.97318 0.49851-0.22794
   1  -1   812492.67   58.80   9-0.05021 0.21003-0.98641 0.87954-0.15644 0.42697
  -1   1   812171.95   57.60  32-0.06724-0.09260-0.86164 0.96820 0.50304-0.23240
  -1  -1  -812693.18  145.30  21-0.06317-0.09669-0.97403 0.86741 0.21745-0.48810
   1  -1   811706.28  202.00 101 0.02905 0.13091 0.85069-0.95818 0.52486-0.25447
  -1  -1   812365.75   59.80   7-0.04767-0.11216-0.97644 0.86955-0.21044 0.48094
   1  -1  -812601.87   57.40  19-0.06139 0.22129-0.98698 0.88045 0.14863-0.41932
   1   1   813490.80  144.30  34-0.06727 0.22709-0.82124 0.92782 0.56660-0.29595
  -1  -1   811629.24  193.20 100 0.02737-0.18715 0.83598-0.94235 0.54808-0.27738
  -2  -1  -860721.78  120.20  18-0.06049-0.25922-0.99127 0.88456 0.11717-0.38777
   2  -1   858483.48  147.40  97 0.02086 0.29927 0.77505-0.88304 0.63156-0.36149
  -2   1   859954.99  124.30  35-0.06721-0.25240-0.80923 0.91563 0.58363-0.31292
   2  -1   859917.26  556.40  15-0.05727 0.37687-0.99819 0.89126 0.01829 0.25225
   2   1   861473.73  560.20  40-0.06584 0.38566-0.70784 0.81481 0.70329-0.43283
  -2  -1   863270.28  591.00  10-0.05229-0.26733-0.99264 0.88565-0.10920 0.37968
  -2  -1   857782.94  447.20  96 0.01854-0.33784 0.75177-0.85746 0.65916-0.38810
   2  -1  -844777.08 -993.10  13-0.05583 0.37588-0.99822 0.89233-0.02092-0.24991
  -3  -1  -8  611.55   20.40  11-0.05273-0.42716-0.99371 0.88769-0.09883-0.17191
   3  -1   8  590.24   20.90  25-0.06532 0.54448-0.94453 0.83721 0.32186-0.05122
   3  -1   8  544.91   30.80  88 0.00343 0.47697 0.58377-0.69170 0.81191-0.54227
  -3   1   8  616.86   23.90  42-0.06524-0.41397-0.67968 0.78574 0.73060-0.45961
  -3  -1   8  761.60   21.20  17-0.05940-0.41996-0.99486 0.88774 0.08195 0.18857
  -3  -1   8  569.40   28.10  88 0.00356-0.48212 0.58532-0.69061 0.81079-0.53909
   3   1   8  595.16   29.70  50-0.05925 0.53859-0.48126 0.58773 0.87457-0.60373
   3  -1  -8  665.70   22.80   4-0.04407 0.52363-0.95859 0.85188-0.28137 0.01077
   4  -1   8 3681.97   93.00  49-0.06017 0.70068-0.50700 0.40092 0.85985-0.59018
   4  -1   8 3923.98   91.80  66-0.03814 0.67909-0.02890-0.07798 0.99885-0.72990
  -4   1   8 3843.85   83.30  54-0.05491-0.58431-0.37082 0.47738 0.92708-0.65627
  -4   1   8 3766.68   88.10  96 0.01889-0.65767 0.75540-0.64807 0.65500-0.38403
   4   1   8 3939.59   64.90  67-0.03590 0.67659 0.01096 0.09593 0.99930-0.73008
   4   1   8 2808.81  -65.90 102 0.03003 0.61085 0.85906-0.75418 0.51099-0.24097
  -4  -1   8 4173.26   96.60  28-0.06634-0.57277-0.91793 0.81081 0.39115-0.12049
  -4  -1   8 3857.19   93.30  76-0.02022-0.61847 0.26474-0.37103 0.96411-0.69270
   0  -2  -846666.44  121.70  31-0.06710 0.06710-0.87839 0.66499 0.47321-0.74384
   0   2  -847289.75  153.40 103 0.03255-0.03255 0.87974-0.66633 0.47433-0.74495
   0   2   848128.99  284.60  42-0.06492 0.06489-0.66601 0.87905 0.74311-0.47230
   0  -2   843606.46  307.30  92 0.01063-0.01062 0.66740-0.88053 0.74462-0.47387
   1   2  -847341.39  154.90 104 0.03391 0.12601 0.89054-0.67750 0.45363-0.72465
  -1  -2  -821026.09 -819.60  30-0.06705-0.09292-0.88283 0.67019 0.46488-0.73635
   1  -2   841331.25  582.70  90 0.00804 0.15200 0.63811-0.85262 0.76991-0.49994
  -1  -2   845664.98  164.20  90 0.00790-0.16766 0.63643-0.84939 0.77129-0.50042
  -1   2  -843988.85  139.30 105 0.03557-0.19526 0.90317-0.68916 0.42781-0.69781
   1   2   844240.38  424.60  45-0.06352 0.22342-0.61238 0.82599 0.78801-0.51752
   1  -2  -845335.67  396.80  28-0.06656 0.22652-0.90980 0.69673 0.40967-0.68062
  -2  -2  -8 2969.45   41.30  28-0.06636-0.25338-0.91720 0.70390 0.39285-0.66357
   2  -2   8  792.34  258.30  86 0.00017 0.31971 0.54391-0.75775 0.83914-0.56885
  -2   2   8 3674.75   69.80  45-0.06302-0.25656-0.59496 0.80798 0.80128-0.53041
   2   2   8 2982.40   63.10  50-0.05953 0.37983-0.48912 0.70364 0.87018-0.60052
  -2  -2   8 3152.34   74.10  87 0.00051-0.31979 0.54816-0.76058 0.83637-0.56503
   2  -2  -8 2816.08   42.90  23-0.06435 0.38435-0.96059 0.74775 0.27041-0.54143
  -3  -2  -815943.44   67.80  22-0.06358-0.41582-0.96999 0.75627 0.23471-0.50512
   3  -2   816157.06  250.90  13-0.05493 0.53455-0.99750 0.78416-0.04456 0.31519
   3  -2   815627.51  291.60  78-0.01551 0.49605 0.33386-0.54837 0.94249-0.67322
  -3   2   815952.18  320.10  51-0.05799-0.42131-0.44756 0.66058 0.89237-0.62140
  -3  -2   816137.41   75.50   7-0.04762-0.43175-0.97622 0.76249-0.21146 0.48187
   3   2   815470.00  228.30  57-0.05087 0.53104-0.27901 0.49302 0.95894-0.68915
  -3  -2   815402.81  205.40  80-0.01182-0.46703 0.38608-0.59860 0.92239-0.65081
   3  -2  -816122.72  220.00  15-0.05798 0.53765-0.99756 0.78432 0.03881-0.30948
  -4  -2  -8  296.50   18.30  12-0.05425-0.58533-0.99662 0.78342-0.06175-0.20891
   4  -2   8  240.85   15.30  29-0.06671 0.70684-0.90322 0.69051 0.42396-0.15352
   4  -2   8  180.15   22.60  63-0.04287 0.68376-0.11655-0.09708 0.99226-0.72322
  -4   2   8  201.71   26.80  62-0.04487-0.59380-0.15536 0.36833 0.98684-0.71536
   4   2   8  218.55   31.60  70-0.03126 0.67394 0.09035 0.12368 0.99542-0.72836
  -4  -2   8  229.31   19.10  16-0.05822-0.58043-0.99724 0.78280 0.04597 0.22434
  -4  -2   8  249.93   35.30  71-0.02870-0.60731 0.13241-0.34391 0.99078-0.71617
   4  -2  -8  226.37   18.80   3-0.04183 0.68024-0.94564 0.73115-0.32250 0.05183
  -5  -2   8   87.14   10.80  33-0.06730-0.73134-0.84381 0.62985 0.53241-0.26159
  -5  -2   8  177.98   17.30  54-0.05561-0.74170-0.38762 0.17374 0.92014-0.64784
   0  -3  -8 4010.25   51.50  36-0.06707 0.06708-0.79004 0.46999 0.60937-0.88012
   0   3  -8 4132.44   67.40  98 0.02250-0.02250 0.79094-0.47074 0.61149-0.88198
   0   3   8 3862.14   70.60  50-0.05886 0.05884-0.47064 0.79054 0.88036-0.60958
   0  -3   8 3994.50   90.40  83-0.00556 0.00556 0.47064-0.79096 0.88231-0.61185
  -1  -3  -8 8321.47   87.40  36-0.06709-0.09275-0.79270 0.47252 0.60591-0.87643
   1  -3   8 8722.05  134.30  82-0.00799 0.16801 0.43833-0.75920 0.89878-0.62879
   1   3  -8 7766.88  119.90  99 0.02410 0.13593 0.80617-0.48668 0.59119-0.86294
  -1   3   8 8424.99  168.20  51-0.05858-0.10125-0.46314 0.78310 0.88435-0.61360
  -1   3  -8 8149.68  110.20  99 0.02499-0.18470 0.81445-0.49394 0.57970-0.84965
   1  -3  -8 8220.39  131.90  34-0.06728 0.22721-0.82426 0.50431 0.56219-0.83309
   1   3   8 7675.98   94.50  52-0.05725 0.21646-0.42853 0.74645 0.90171-0.62925
  -1  -3   8 7082.28  103.50  83-0.00725-0.15243 0.44832-0.76759 0.89384-0.62255
  -2  -3  -8  410.50   23.90  34-0.06730-0.25233-0.83176 0.51148 0.55104-0.82141
  -2   3   8  417.84   27.00  53-0.05600-0.26360-0.39728 0.71715 0.91599-0.64515
   2   3  -8  563.47   49.00 101 0.02912 0.29090 0.85127-0.53171 0.52393-0.79540
   2  -3   8  532.36   51.10  79-0.01502 0.33521 0.34093-0.66203 0.93997-0.67034
   2   3   8  446.78   31.40  56-0.05238 0.37243-0.31246 0.63318 0.94848-0.67851
  -2   3  -8  466.55   27.90 103 0.03170-0.35091 0.87290-0.55199 0.48687-0.75642
   2  -3  -8  434.31   21.50  30-0.06698 0.38680-0.88742 0.56746 0.45607-0.72690
  -2  -3   8  425.72   62.40  80-0.01329-0.30646 0.36544-0.68569 0.93074-0.66024
   3   3  -8 7175.61  110.10 106 0.03754 0.44275 0.91740-0.59825 0.39619-0.66789
   3  -3   8 7275.60  122.20  72-0.02758 0.50874 0.15054-0.47216 0.98822-0.71989
  -3   3   8 8042.18  115.10  58-0.05002-0.42892-0.26073 0.58003 0.96412-0.69252
  -3  -3  -8 7750.73  106.20  29-0.06682-0.41207-0.89729 0.57623 0.43635-0.70581
   3  -3   8 7383.84  144.50   4-0.04297 0.52241-0.95240 0.63213-0.30179 0.57227
   3   3   8 7959.34  129.60  62-0.04373 0.52408-0.13310 0.45392 0.99014-0.72062
  -3  -3   8 7065.27  125.10  75-0.02268-0.45626 0.22743-0.54683 0.97353-0.70200
   3  -3  -8 7406.84  170.70  23-0.06436 0.54414-0.96041 0.64054 0.27105-0.54187
  -4  -3  -8  456.86   26.40  22-0.06332-0.57554-0.97261 0.65185 0.22367-0.49380
   4  -3   8  436.31   18.60  15-0.05790 0.69727-0.99766 0.67749 0.03642 0.23417
   4  -3   8  573.01   32.40  61-0.04601 0.68627-0.17786-0.14245 0.98298-0.71326
  -4   3   8  503.08   36.60  67-0.03725-0.60083-0.01293 0.33233 0.99922-0.72702
   4   3   8  274.49   36.10  72-0.02829 0.66904 0.13904 0.18146 0.98988-0.72073
  -4  -3   8  618.53   30.90   7-0.04843-0.59074-0.97964 0.65924-0.19481 0.46522
  -4  -3   8  256.49   40.40  67-0.03591-0.60207 0.01084-0.33019 0.99930-0.72697
   4  -3  -8  437.89   20.20  13-0.05565 0.69412-0.99812 0.67707-0.02577-0.24450
   0  -4  -8 6773.64   93.90  39-0.06625 0.06625-0.73015 0.30328 0.68007-0.95060
   0   4  -8 7069.88  108.20  95 0.01657-0.01658 0.73161-0.30481 0.68153-0.95227
   0   4   8 7402.48  142.60  57-0.05197 0.05198-0.30323 0.73032 0.95150-0.68112
   0  -4   8 6952.37  135.20  77-0.01772 0.01775 0.30184-0.72970 0.95320-0.68354
  -1  -4  -8 7050.47   90.60  39-0.06630-0.09353-0.73300 0.30610 0.67698-0.94739
   1  -4   8 6604.62  218.10  76-0.01983 0.17990 0.27070-0.69841 0.96246-0.69271
  -1   4   8 6861.08  114.30  57-0.05162-0.10821-0.29553 0.72220 0.95394-0.68317
   1   4  -8 6307.55   99.90  95 0.01782 0.14197 0.74449-0.31750 0.66739-0.93757
   1   4   8 6945.05   99.90  58-0.05003 0.21008-0.26106 0.68856 0.96402-0.69408
  -1  -4   8 6367.45  108.30  77-0.01879-0.14101 0.28610-0.71269 0.95802-0.68716
  -1   4  -8 6625.16  140.60  96 0.01853-0.17822 0.75175-0.32460 0.65919-0.92891
   1  -4  -8 6495.68   89.30  38-0.06674 0.22652-0.76182 0.33486 0.64434-0.91464
   2   4  -8 5635.54  109.00  98 0.02260 0.29749 0.79189-0.36552 0.61024-0.88198
   2  -4   8 5149.27   94.80  73-0.02572 0.34618 0.18009-0.60826 0.98331-0.71427
  -2   4   8 5244.36   89.10  59-0.04880-0.27069-0.23490 0.66123 0.97079-0.69964
  -2  -4  -8 5545.02   85.60  37-0.06684-0.25261-0.76931 0.34212 0.63537-0.90506
   2  -4  -8 4570.92  203.90  34-0.06729 0.38722-0.82574 0.39913 0.56003-0.83112
   2   4   8 5346.23  115.60  61-0.04538 0.36607-0.16533 0.59378 0.98519-0.71653
  -2  -4   8 5018.92  110.80  74-0.02333-0.29633 0.21756-0.64429 0.97577-0.70504
  -2   4  -8 5170.81  107.70  99 0.02480-0.34539 0.81263-0.38678 0.58225-0.85505
   3   4  -8 1596.76   57.80 102 0.03028 0.45021 0.86115-0.43521 0.50745-0.77968
  -3  -4  -8 1645.62   48.20  33-0.06730-0.41216-0.83686 0.40993 0.54326-0.81368
   3  -4   8 1372.33   58.40  68-0.03475 0.51312 0.03105-0.45684 0.99891-0.72664
  -3   4   8 1462.06   63.80  63-0.04288-0.43516-0.11680 0.54176 0.99223-0.71912
  -3   4  -8 1320.62   49.20 104 0.03383-0.51228 0.88991-0.46207 0.45488-0.72392
   3   4   8 1581.68   69.00  66-0.03752 0.51817-0.01772 0.44551 0.99914-0.73008
  -3  -4   8 1386.63   73.70  70-0.03066-0.44813 0.10034-0.52628 0.99448-0.72264
   3  -4  -8 1669.38   51.60  28-0.06661 0.54647-0.90757 0.48099 0.41458-0.68557
  -4   4   8  118.61   26.70  70-0.03121-0.60579 0.09104 0.33448 0.99536-0.72190
  -4  -4  -8   -4.52   31.10  27-0.06612-0.57554-0.92516 0.50027 0.37377-0.64690
   4  -4   8  241.44   22.00   7-0.04809 0.68756-0.97825 0.55146-0.20175 0.47240
   4  -4   8   80.66   34.20  59-0.04872 0.68753-0.23338-0.19330 0.97116-0.69995
  -4  -4   8  248.42   24.10   2-0.04045-0.59884-0.93700 0.51005-0.34697 0.61745
   4  -4  -8  131.97   17.90  20-0.06210 0.70172-0.98264 0.55596 0.17480-0.44553
  -4  -4   8  105.73   59.50  64-0.04133-0.59862-0.08733-0.33983 0.99532-0.72538
   0  -5  -8  548.45   36.50  41-0.06563 0.06565-0.69777 0.16427 0.71331-0.98423
   0   5  -8  585.48   51.90  93 0.01342-0.01341 0.69807-0.16448 0.71590-0.98629
   0   5   8  463.19   58.30  61-0.04529 0.04531-0.16355 0.69743 0.98550-0.71522
   0  -5   8  816.59   75.00  72-0.02677 0.02678 0.16355-0.69755 0.98617-0.71603
  -1  -5  -8 2567.16   63.90  41-0.06568-0.09417-0.70026 0.16671 0.71086-0.98150
   1   5  -8 2489.17   94.80  94 0.01462 0.14519 0.71101-0.17740 0.70303-0.97337
   1  -5   8 2653.63   93.90  71-0.02872 0.18882 0.13210-0.66653 0.99082-0.72117
  -1   5   8 2756.60   89.50  62-0.04440-0.11601-0.14616 0.68301 0.98826-0.72114
  -1  -5   8 2658.06   80.40  72-0.02755-0.13223 0.15105-0.68425 0.98814-0.71716
  -1   5  -8 2498.66  103.30  94 0.01510-0.17481 0.71615-0.18244 0.69778-0.96755
   1   5   8 2529.09   89.20  63-0.04288 0.20429-0.11680 0.65535 0.99223-0.72717
   1  -5  -8 2614.91   73.20  39-0.06620 0.22622-0.72712 0.19371 0.68331-0.95462
  -2  -5  -8 2973.78   67.00  39-0.06631-0.25330-0.73371 0.20008 0.67621-0.94647
   2   5  -8 2995.15   86.60  96 0.01884 0.30127 0.75489-0.22163 0.65558-0.92743
   2  -5   8 2413.54   96.00  69-0.03357 0.35398 0.05121-0.58593 0.99812-0.72897
  -2   5   8 2567.73   79.00  64-0.04192-0.27775-0.09842 0.63190 0.99426-0.72357
  -2  -5   8 2670.98   82.40  70-0.03096-0.28824 0.09521-0.62769 0.99498-0.72313
  -2   5  -8 2992.33   88.00  96 0.01996-0.33913 0.76606-0.23214 0.64246-0.91165
   2  -5  -8 2996.24   73.60  36-0.06702 0.38700-0.78503 0.25165 0.61582-0.88707
  -3  -5  -8  582.46   36.10  36-0.06711-0.41231-0.79544 0.26180 0.60230-0.87262
   3  -5   8  534.16   41.90  64-0.04125 0.52159-0.08594-0.44829 0.99545-0.72593
   3   5  -8  545.74   59.70  99 0.02563 0.45457 0.82029-0.28714 0.57137-0.84316
  -3   5   8  785.49   61.00  67-0.03588-0.44355 0.01131 0.52210 0.99929-0.72848
  -3   5  -8  700.77   42.00 101 0.02828-0.50678 0.84402-0.30981 0.53557-0.80448
   3   5   8  594.98   81.00  70-0.03127 0.51524 0.09017 0.44722 0.99543-0.73111
  -3  -5   8  752.40   64.00  67-0.03701-0.44202-0.00859-0.52434 0.99928-0.72780
   3  -5  -8  582.86   43.00  32-0.06722 0.54693-0.86449 0.33103 0.49813-0.76895
   0  -6  -816250.42  292.40  41-0.06535 0.06539-0.68490 0.04465 0.72570-0.99686
   0   6  -815496.23  232.60  92 0.01221-0.01221 0.68491-0.04463 0.72852-0.99893
   0   6   811803.08  605.40  65-0.03898 0.03900-0.04412 0.68460 0.99827-0.72788
   0  -6   815241.13  335.00  68-0.03402 0.03404 0.04358-0.68433 0.99847-0.72838
   1   6  -8 1394.85   71.40  93 0.01336 0.14656 0.69745-0.05720 0.71651-0.98755
  -1   6   8 1229.28   67.10  66-0.03845-0.12140-0.03446 0.67470 0.99867-0.72804
  -1  -6  -8 1086.09   70.00  41-0.06543-0.09456-0.68852 0.04832 0.72226-0.99435
   1  -6   8  993.05   73.50  67-0.03574 0.19588 0.01378-0.65504 0.99927-0.72976
  -1  -6   8 1129.10   69.30  68-0.03459-0.12524 0.03366-0.67386 0.99883-0.72816
  -1   6  -8 1035.24   73.80  93 0.01367-0.17338 0.70081-0.06048 0.71322-0.98300
   1  -6  -8 1239.11   49.80  40-0.06589 0.22584-0.71049 0.07025 0.70061-0.97163
   1   6   8 1423.68   77.70  66-0.03738 0.19729-0.01519 0.65567 0.99919-0.72881
  -2  -6  -8  423.79   42.30  40-0.06601-0.25360-0.71695 0.07666 0.69399-0.96427
   2   6  -8  258.23   54.60  95 0.01704 0.30306 0.73647-0.09633 0.67625-0.94809
   2  -6   8  615.13   54.50  65-0.03973 0.35999-0.05779-0.58338 0.99754-0.72806
  -2   6   8  739.59   70.40  67-0.03576-0.28331 0.01345 0.62542 0.99927-0.72704
   2   6   8  531.94   62.10  69-0.03341 0.35356 0.05403 0.58699 0.99798-0.72831
  -2  -6   8  342.26   96.20  66-0.03740-0.28221-0.01565-0.62441 0.99918-0.72833
  -2   6  -8  790.98   78.60  95 0.01721-0.33425 0.73824-0.09719 0.67432-0.93746
   2  -6  -8  636.00   50.40  38-0.06676 0.38671-0.76314 0.12294 0.64278-0.91397
  -3  -6  -8  413.50   36.60  37-0.06688-0.41256-0.77302 0.13272 0.63085-0.90121
   3   6  -8  342.43   53.70  98 0.02319 0.45733 0.79759-0.15765 0.60276-0.87521
   3  -6   8  447.38   46.90  61-0.04607 0.52667-0.17917-0.46202 0.98274-0.71355
  -3   6   8  313.55   82.00  71-0.02948-0.45129 0.11963 0.52205 0.99238-0.72374
   3   6   8  394.52   81.70  72-0.02692 0.50681 0.16117 0.47942 0.98656-0.71644
  -3  -6   8  245.19   75.60  63-0.04220-0.43692-0.10375-0.53598 0.99371-0.72238
  -3   6  -8  232.35   60.50  99 0.02544-0.50502 0.81857-0.17831 0.57384-0.84449
   3  -6  -8  496.62   43.10  33-0.06730 0.54760-0.83818 0.19818 0.54122-0.81293
   0  -7  -8  105.46   61.40  42-0.06532 0.06521-0.68355-0.06332 0.72697-0.99586
   0   7  -8   47.34   89.30  92 0.01230-0.01230 0.68595 0.06103 0.72755-0.99806
   0   7   8  217.47   50.80  69-0.03293 0.03295 0.06220 0.68532 0.99752-0.72749
   0  -7   8   48.37   69.70  65-0.03999 0.04003-0.06248-0.68513 0.99724-0.72732
   1   7  -8  677.67   70.90  93 0.01332 0.14659 0.69707 0.04993 0.71688-0.98794
   1  -7   8  143.63   60.10  64-0.04142 0.20144-0.08906-0.65846 0.99516-0.72516
  -1  -7  -8  464.56   65.40  41-0.06537-0.09428-0.68538-0.06147 0.72525-0.99365
  -1   7   8  570.52   85.30  69-0.03232-0.12761 0.07243 0.67499 0.99685-0.72671
   1   7   8  189.64   54.60  70-0.03140 0.19158 0.08792 0.66018 0.99563-0.72626
  -1   7  -8  345.87   62.90  93 0.01361-0.17334 0.70018 0.04677 0.71383-0.98375
  -1  -7   8  396.27  103.30  65-0.03973-0.11906-0.05779-0.68312 0.99754-0.72053
   1  -7  -8  551.50   66.40  40-0.06599 0.22764-0.71598-0.03125 0.69499-0.97324
  -2  -7  -8  280.81   45.50  40-0.06597-0.25368-0.71464-0.03233 0.69637-0.96675
  -2   7   8  285.86   59.80  71-0.02967-0.28958 0.11652 0.62949 0.99275-0.72103
   2   7  -8  344.04   95.90  94 0.01624 0.30253 0.72810 0.01882 0.68528-0.95295
   2  -7   8  617.31   88.20  62-0.04440 0.36255-0.14616-0.59825 0.98826-0.71460
   2   7   8  165.43   60.40  72-0.02773 0.34833 0.14812 0.60041 0.98858-0.71984
  -2  -7   8  477.82   66.60  63-0.04265-0.27690-0.11229-0.63434 0.99276-0.72176
  -2   7  -8  157.29   53.90  95 0.01742-0.33675 0.74034 0.00663 0.67200-0.94157
   2  -7  -8  206.82   34.60  38-0.06667 0.38665-0.75622 0.00924 0.65092-0.92218
  -1   0  -9134369.0  1302.3   8-0.04916-0.11106-0.98256 0.98585-0.17931-0.12554
   1   0  -9138820.7  1298.2   7-0.04731 0.20709-0.97482 0.97449-0.21794-0.08646
   1   0   9137970.1   180.1  22-0.06341 0.22327-0.97169 0.97172 0.22758 0.07685
  -1   0   9134330.3  2403.6  20-0.06176-0.09810-0.98489 0.98490 0.16180 0.14263
  -2   0  -9 4482.51   49.00   5-0.04442-0.27538-0.96052 0.96087-0.27464-0.02980
   2   0  -9 4524.00   68.50   2-0.03960 0.35930-0.93148 0.93147-0.36162 0.05719
   2   0   9 4766.90   64.70  28-0.06635 0.38628-0.91769 0.91824 0.39172-0.08734
  -2   0   9 4782.77   55.00  23-0.06397-0.25571-0.96542 0.96537 0.25272 0.05170
   3   0   9 2245.81  -62.30  37-0.06683 0.54661-0.76830 0.76863 0.63659-0.33231
  -3   0   9  665.32 -108.50  29-0.06667-0.41227-0.90508 0.90372 0.41999-0.11539
   4   0   9 4001.70   99.00  55-0.05346 0.69372-0.33690 0.33731 0.94002-0.63638
   4   0   9 4055.35   80.90  87 0.00144 0.63955 0.55954-0.56093 0.82880-0.52568
  -4   0   9 4445.86   85.40  39-0.06625-0.57246-0.72971 0.72881 0.68054-0.37566
  -4   0   9 3965.22   99.60  88 0.00260-0.64003 0.57374-0.57198 0.81903-0.51303
   0  -1  -917517.75   70.40  20-0.06207 0.06207-0.98289 0.87623 0.17342-0.47788
   0   1   917300.02   73.90  31-0.06712 0.06712-0.87589 0.98256 0.47782-0.17338
   0  -1   917024.64   71.60   8-0.04937 0.04936-0.98339 0.87644-0.17467 0.47897
   0  -1   917098.04   90.40 103 0.03227-0.03227 0.87751-0.98421 0.47847-0.17404
   1  -1   9 6110.41   86.90 102 0.03066 0.12928 0.86431-0.97169 0.50203-0.19774
  -1   1   9 6045.56   89.70  31-0.06715-0.09268-0.87303 0.97956 0.48302-0.17855
  -1  -1  -9 5480.17   60.50  20-0.06186-0.09795-0.98422 0.87720 0.16577-0.47003
   1  -1   9 5903.60   96.00  10-0.05230 0.21207-0.99268 0.88562-0.10891 0.41317
   1   1   9 5994.52   84.60  33-0.06730 0.22709-0.83825 0.94469 0.54112-0.23663
  -1  -1   9 5791.60   69.20   9-0.05010-0.10976-0.98602 0.87934-0.15894 0.46338
  -1  -1   9 5409.15  112.70 101 0.02908-0.18882 0.85095-0.95708 0.52445-0.21989
   1  -1  -9 5710.62   66.20  18-0.06010 0.21990-0.99273 0.88584 0.10424-0.40858
   2  -1   929380.93  589.80  16-0.05838 0.37808-0.99701 0.89030 0.05062 0.25381
  -2   1   929485.74   94.80  34-0.06729-0.25228-0.82798 0.93422 0.55670-0.25215
  -2  -1  -9 8610.02 -291.50  16-0.05859-0.26233-0.99666 0.89410 0.05689-0.36300
   2  -1   928248.90  232.40  98 0.02357 0.29641 0.80119-0.90875 0.59795-0.29380
   2   1   929069.66   97.40  39-0.06641 0.38633-0.73971 0.84689 0.66964-0.36541
  -2  -1   930294.91  346.20  12-0.05398-0.26561-0.99619 0.88912-0.06843 0.37271
  -2  -1   927480.46  121.50  97 0.02108-0.34033 0.77713-0.88267 0.62899-0.32413
   2  -1  -929231.84  469.30  12-0.05482 0.37459-0.99737 0.89083-0.04736-0.25711
  -3  -1  -9 9976.69   53.30  10-0.05188-0.42760-0.99156 0.88471-0.11878-0.18561
  -3   1   910031.02   59.90  40-0.06602-0.41323-0.71732 0.82341 0.69361-0.38890
   3  -1   9 9600.57  180.70  25-0.06534 0.54534-0.94403 0.83800 0.32331-0.01890
   3  -1   9 8865.99  142.40  90 0.00831 0.47227 0.64112-0.74945 0.76740-0.46398
  -3  -1   9 9722.06  125.80  90 0.00743-0.48612 0.63104-0.73645 0.77571-0.47045
   3   1   9 9401.54  126.30  48-0.06129 0.54170-0.53980 0.64753 0.83956-0.53598
  -3  -1   9 9978.75  221.00  18-0.06014-0.41938-0.99258 0.88579 0.10568 0.19873
   3  -1  -910383.55  149.20   4-0.04401 0.52363-0.95826 0.85166-0.28248-0.02195
   4  -1   9  193.10   14.20  43-0.06456 0.70534-0.65120 0.54556 0.75616-0.45262
   4  -1   9  138.14   21.40  75-0.02298 0.66356 0.22281-0.33010 0.97459-0.67135
  -4   1   9  210.08   20.30  50-0.05905-0.57901-0.47587 0.58123 0.87753-0.57177
  -4   1   9  230.24   26.30  98 0.02309-0.66097 0.79657-0.68827 0.60411-0.29899
   4   1   9  236.08   20.10  62-0.04442 0.68407-0.14640 0.25321 0.98823-0.68405
   4   1   9  151.18   18.70 103 0.03281 0.60771 0.88186-0.77657 0.47037-0.16624
  -4  -1   9  269.58   16.40  27-0.06619-0.57314-0.92283 0.81602 0.37947-0.07503
  -4  -1   9  235.21   33.60  79-0.01367-0.62438 0.36014-0.46584 0.93280-0.62701
   0  -2  -918576.71  173.30  28-0.06656 0.06658-0.90980 0.69662 0.40967-0.71435
   0   2   918402.18   89.00  41-0.06560 0.06559-0.69615 0.90952 0.71489-0.41045
   0  -2   918168.62  110.50  93 0.01334-0.01334 0.69720-0.91088 0.71676-0.41245
  -1  -2  -9 2929.52   42.90  28-0.06651-0.09332-0.91157 0.69800 0.40573-0.71000
   1  -2   9 2813.56   61.60  92 0.01123 0.14874 0.67415-0.88833 0.73851-0.43445
  -1   2   9 2791.79   46.20  41-0.06551-0.09431-0.69214 0.90528 0.71878-0.41422
   1  -2   9 2568.85   46.60   2-0.03956 0.19947-0.93125 0.71802-0.36222 0.66683
   1   2   9 2294.04  116.00  43-0.06448 0.22443-0.64825 0.86203 0.75869-0.45446
   1  -2  -9 2803.51   40.20  26-0.06579 0.22566-0.93406 0.72070 0.35101-0.65550
   2  -2   930667.77  101.00   6-0.04637 0.36607-0.97045 0.75702-0.23679 0.54121
   2  -2   930374.65  131.90  88 0.00384 0.31632 0.58870-0.80329 0.80834-0.50464
  -2  -2  -928570.54  900.10  26-0.06553-0.25407-0.94016 0.72643 0.33438-0.63855
  -2   2   930686.27  283.10  44-0.06415-0.25527-0.63550 0.84799 0.76943-0.46449
   2   2   931275.99  350.10  48-0.06129 0.38120-0.53986 0.75369 0.83952-0.53538
  -2  -2   931017.17  304.50   3-0.04230-0.27743-0.94843 0.73508-0.31414 0.61862
  -2  -2   928096.04  143.70  88 0.00403-0.32306 0.59102-0.80278 0.80664-0.50118
   2  -2  -931334.79  316.10  22-0.06325 0.38301-0.97332 0.76001 0.22056-0.52506
   3  -2   9 9678.61  161.20  81-0.01026 0.49079 0.40755-0.62220 0.91313-0.60991
  -3   2   910298.56  140.00  49-0.06007-0.41923-0.50414 0.71712 0.86153-0.55676
  -3  -2  -9 9969.09  162.70  20-0.06231-0.41708-0.98120 0.76747 0.18264-0.48687
   3  -2   910590.57  154.50  14-0.05627 0.53541-0.99837 0.78433-0.00913 0.31331
   3   2   9 9638.20  118.50  55-0.05386 0.53412-0.34618 0.56035 0.93662-0.63303
  -3  -2   910326.08  179.70   8-0.04982-0.42965-0.98504 0.77146-0.16498 0.46931
  -3  -2   9 8995.01  224.70  82-0.00774-0.47109 0.44167-0.65409 0.89714-0.59181
   3  -2  -9 9935.68  173.20  14-0.05682 0.53636-0.99837 0.78492 0.00578-0.31020
  -4  -2  -9  198.82   19.30  11-0.05305-0.58658-0.99442 0.78130-0.09121-0.21330
   4  -2   9   85.81   17.50  28-0.06647 0.70677-0.91319 0.70065 0.40207-0.09777
   4  -2   9  222.20   25.30  68-0.03473 0.67528 0.03126-0.24509 0.99891-0.69565
  -4   2   9  198.01   26.40  58-0.04992-0.58767-0.25854 0.47050 0.96471-0.65824
   4   2   9   77.79   30.70  66-0.03810 0.67763-0.02819 0.24166 0.99888-0.69457
  -4  -2   9  184.81   19.40  17-0.05939-0.58096-0.99489 0.78275 0.08167 0.22312
  -4  -2   9  205.32   35.50  74-0.02463-0.61383 0.19726-0.41005 0.98004-0.67458
   4  -2  -9  227.61   19.50   3-0.04127 0.68230-0.94221 0.73053-0.33246 0.02810
   0   3  -914611.95  113.00 100 0.02691-0.02691 0.83190-0.51176 0.55428-0.85871
   1   3  -9 4374.04   77.30 101 0.02820 0.13175 0.84327-0.52351 0.53674-0.84177
   1  -3   9 4230.44   80.90  84-0.00463 0.16463 0.48284-0.80371 0.87569-0.57179
  -1   3   9 4617.40   74.70  49-0.06008-0.09977-0.50444 0.82456 0.86135-0.55691
  -1  -3  -9 4585.25   63.70  34-0.06730-0.09255-0.83318 0.51307 0.54888-0.85334
  -1  -3   9 4627.69   79.70  84-0.00417-0.15559 0.48878-0.80844 0.87240-0.56764
   1  -3  -9 4579.86   66.00  32-0.06725 0.22714-0.85997 0.53993 0.50590-0.81048
   1   3   9 4436.75  112.80  51-0.05858 0.21870-0.46311 0.78422 0.88436-0.58066
  -1   3  -9 4703.17   90.00 101 0.02929-0.18898 0.85271-0.53213 0.52156-0.82530
  -2  -3  -9 9447.98  135.70  32-0.06721-0.25241-0.86653 0.54620 0.49458-0.79872
   2   3  -910097.37  164.30 103 0.03285 0.28720 0.88215-0.56270 0.46981-0.77517
   2  -3   9 9911.67  153.70  81-0.01124 0.33137 0.39418-0.71523 0.91897-0.61533
  -2   3   9 9943.50  129.30  51-0.05791-0.26159-0.44541 0.76495 0.89345-0.58857
  -2   3  -910106.27  114.70 105 0.03552-0.35470 0.90280-0.58179 0.42859-0.73192
   2  -3  -910191.70   67.30  28-0.06647 0.38626-0.91341 0.59341 0.40158-0.70617
   2   3   910182.98  154.50  54-0.05461 0.37450-0.36371 0.68419 0.92991-0.62580
  -2  -3   910299.08  127.90  81-0.00986-0.30967 0.41308-0.73281 0.91064-0.60588
  -3  -3  -911199.54  201.90  27-0.06618-0.41315-0.92319 0.60272 0.37862-0.68267
   3  -3   910721.40  160.00   6-0.04593 0.52583-0.96831 0.64860-0.24551 0.55029
   3  -3   912169.90  298.10  75-0.02302 0.50356 0.22228-0.54348 0.97471-0.67160
   3   3   912562.12  178.40  60-0.04677 0.52714-0.19310 0.51403 0.98006-0.67668
  -3  -3   912856.68  209.70  77-0.01908-0.45975 0.28174-0.60093 0.95930-0.65385
   3  -3  -910603.69  145.50  22-0.06332 0.54308-0.97263 0.65273 0.22359-0.52821
  -4  -3  -9  203.16   19.00  20-0.06206-0.57716-0.98295 0.66260 0.17308-0.47735
   4  -3   9  191.71   15.80  16-0.05897 0.69836-0.99591 0.67575 0.06852 0.23590
   4  -3   9  232.70   37.80  64-0.04126 0.68218-0.08610-0.23456 0.99543-0.69254
  -4   3   9  213.95   33.60  64-0.04178-0.59574-0.09576 0.41458 0.99453-0.68791
  -4  -3   9   98.39   19.10   9-0.05041-0.58898-0.98710 0.66695-0.15196 0.45638
   4   3   9   57.85   39.40  70-0.03213 0.67496 0.07562 0.24576 0.99662-0.69572
  -4  -3   9  107.43   36.90  70-0.03198-0.60546 0.07823-0.39707 0.99642-0.68975
   4  -3  -9  186.31   19.40  12-0.05469 0.69249-0.99722 0.67552-0.05058-0.25325
   0  -4  -9  131.01   23.30  37-0.06688 0.06690-0.77269 0.34592 0.63125-0.93588
   0   4  -9  102.98   38.50  97 0.02071-0.02070 0.77351-0.34662 0.63345-0.93778
   0   4   9  171.00   33.20  55-0.05382 0.05384-0.34537 0.77250 0.93692-0.63273
   0  -4   9  199.30   40.80  79-0.01465 0.01465 0.34625-0.77335 0.93803-0.63381
  -1  -4  -9  239.91   22.50  37-0.06691-0.09294-0.77500 0.34815 0.62841-0.93282
   1  -4   9  182.91   39.80  78-0.01673 0.17673 0.31633-0.74380 0.94850-0.64461
   1   4  -9  394.46   57.40  97 0.02194 0.13796 0.78556-0.35883 0.61840-0.92315
  -1   4   9  358.84   49.30  55-0.05334-0.10675-0.33413 0.76262 0.94102-0.63797
  -1  -4   9   31.88   50.20  78-0.01590-0.14391 0.32837-0.75497 0.94441-0.63978
  -1   4  -9   87.19   35.60  98 0.02270-0.18240 0.79285-0.36570 0.60900-0.91268
   1   4   9  253.64   46.80  56-0.05212 0.21195-0.30660 0.73338 0.95041-0.64593
   1  -4  -9  191.04   37.30  36-0.06716 0.22704-0.80134 0.37455 0.59442-0.89898
  -2  -4  -9 6576.13   83.60  35-0.06721-0.25250-0.80842 0.38157 0.58476-0.88919
   2   4  -9 6502.08  127.90 100 0.02631 0.29382 0.82646-0.40019 0.56238-0.86805
   2  -4   9 6122.58  118.10  75-0.02245 0.34275 0.23107-0.65908 0.97268-0.66943
  -2   4   9 6550.37  101.10  57-0.05099-0.26850-0.28171 0.70799 0.95815-0.65320
  -2  -4   9 6216.16  178.00  76-0.02033-0.29915 0.26315-0.68949 0.96454-0.65963
  -2   4  -9 6446.84  125.80 101 0.02814-0.34736 0.84281-0.41537 0.53748-0.84072
   2  -4  -9 6331.20  113.40  32-0.06726 0.38710-0.85712 0.43042 0.51071-0.81541
   2   4   9 5929.22  122.40  60-0.04776 0.36827-0.21332 0.64158 0.97581-0.67287
   3   4  -9  523.21   43.00 104 0.03344 0.44693 0.88681-0.46081 0.46092-0.76675
  -3  -4  -9  477.27   35.30  32-0.06721-0.41200-0.86657 0.43935 0.49452-0.79827
   3  -4   9  388.09   51.80  70-0.03201 0.51281 0.07767-0.50575 0.99646-0.69372
  -3   4   9  637.11   55.20  61-0.04533-0.43384-0.16441 0.59073 0.98535-0.68032
  -3  -4   9  284.48   43.80  72-0.02758-0.45080 0.15054-0.57588 0.98822-0.68201
  -3   4  -9  465.26   33.80 106 0.03717-0.51557 0.91477-0.48683 0.40226-0.70511
   3   4   9  628.26   53.10  65-0.04039 0.52089-0.06989 0.49764 0.99674-0.69357
   3  -4  -9  456.10   33.10  27-0.06612 0.54403-0.92516 0.49682 0.37377-0.67616
  -4  -4  -9 1313.52   46.70  26-0.06553-0.57359-0.94012 0.51301 0.33450-0.63860
   4  -4   9 1122.01   40.00   9-0.05019 0.68911-0.98633 0.55909-0.15692 0.46102
   4  -4   9  916.88   50.20  61-0.04589 0.68739-0.17539-0.25222 0.98343-0.68108
  -4   4   9 1321.25   67.00  68-0.03429-0.60554 0.03892 0.38820 0.99865-0.69471
   4   4   9  983.36   60.00  72-0.02779 0.66999 0.14709 0.28093 0.98873-0.68717
  -4  -4   9 1194.09   54.80  66-0.03819-0.60082-0.02976-0.39682 0.99883-0.69394
  -4  -4   9 1137.84   48.00   4-0.04295-0.59652-0.95229 0.52550-0.30216 0.60665
   4  -4  -9 1079.66   41.10  19-0.06108 0.69991-0.98860 0.56129 0.13760-0.44167
   0  -5  -9 4718.29   85.40  39-0.06638 0.06638-0.73737 0.20383 0.67222-0.97675
   0   5  -9 4843.70   95.60  95 0.01721-0.01721 0.73824-0.20466 0.67432-0.97868
   0   5   9 4874.42   91.50  60-0.04727 0.04729-0.20328 0.73727 0.97798-0.67394
   0  -5   9 4241.56   94.80  74-0.02420 0.02421 0.20403-0.73788 0.97866-0.67450
  -1  -5  -911239.05  156.40  39-0.06641-0.09343-0.73960 0.20601 0.66977-0.97408
   1  -5   910987.64  182.10  73-0.02613 0.18623 0.17375-0.70827 0.98444-0.68094
   1   5  -910974.70  177.50  96 0.01853 0.14159 0.75176-0.21863 0.65918-0.96548
  -1   5   911537.42  153.30  60-0.04689-0.11294-0.19565 0.72910 0.97955-0.67502
   1   5   911125.25  187.30  61-0.04554 0.20562-0.16853 0.70286 0.98464-0.68096
  -1   5  -911882.90  211.20  96 0.01890-0.17861 0.75546-0.22174 0.65492-0.95861
  -1  -5   911055.72  230.90  73-0.02513-0.13476 0.18948-0.72324 0.98156-0.67733
   1  -5  -910636.25  199.90  38-0.06677 0.22665-0.76395 0.23042 0.64181-0.94633
  -2  -5  -9 1404.63   49.90  37-0.06686-0.25282-0.77070 0.23712 0.63368-0.93801
   2  -5   9 1385.17   59.50  70-0.03097 0.35156 0.09503-0.63017 0.99499-0.69230
  -2   5   9 1839.91   70.40  62-0.04422-0.27530-0.14254 0.67564 0.98880-0.68391
   2   5  -9 1348.20   81.90  98 0.02224 0.29772 0.78842-0.25508 0.61474-0.91994
   2   5   9 1789.56   72.30  64-0.04151 0.36172-0.09080 0.62524 0.99500-0.69155
  -2  -5   9 1742.94   85.30  72-0.02855-0.29083 0.13488-0.66770 0.99045-0.68527
  -2   5  -9 1496.26   64.00  98 0.02350-0.34233 0.80046-0.26623 0.59892-0.90107
   2  -5  -9 1606.56   66.80  35-0.06726 0.38726-0.81751 0.28417 0.57197-0.87708
  -3  -5  -9  257.40   31.50  34-0.06729-0.41212-0.82671 0.29306 0.55858-0.86271
   3   5  -9  349.17   44.10 101 0.02881 0.45172 0.84864-0.31577 0.52818-0.83441
   3  -5   9  127.11   61.90  66-0.03883 0.52032-0.04134-0.49405 0.99839-0.69655
  -3   5   9  269.02   57.00  66-0.03884-0.43929-0.04150 0.57320 0.99838-0.69171
   3   5   9  198.98   41.50  68-0.03461 0.51502 0.03348 0.50091 0.99884-0.69558
  -3  -5   9   94.71   39.50  68-0.03459-0.44453 0.03366-0.56667 0.99883-0.69374
   3  -5  -9  197.78   23.80  30-0.06696 0.54683-0.88893 0.35558 0.45312-0.75798
  -3   5  -9  110.39   52.70 103 0.03203-0.51231 0.87559-0.34252 0.48199-0.78754
   0  -6  -9 2890.86   77.30  40-0.06609 0.06610-0.72082 0.08056 0.68996-0.99456
   0   6  -9 3118.67  109.10  94 0.01560-0.01559 0.72135-0.08106 0.69239-0.99659
   0   6   9 3001.69   85.30  64-0.04094 0.04096-0.08004 0.72077 0.99595-0.69197
   0  -6   9 2546.38  100.60  70-0.03196 0.03201 0.07861-0.72010 0.99639-0.69314
  -1  -6  -9  564.75   59.60  40-0.06599-0.09323-0.71598 0.07521 0.69499-0.99280
   1   6  -9  719.62   76.80  95 0.01645 0.14315 0.73030-0.08987 0.68293-0.98561
   1  -6   9  341.17   69.00  69-0.03377 0.19435 0.04792-0.69078 0.99828-0.69646
  -1   6   9  670.89   77.60  65-0.04051-0.11929-0.07218 0.71214 0.99657-0.69183
   1   6   9  442.97   60.60  65-0.03938 0.19934-0.05135 0.69198 0.99790-0.69385
  -1   6  -9  556.87   61.20  95 0.01710-0.17685 0.73706-0.09674 0.67561-0.97947
  -1  -6   9  579.33   72.30  69-0.03229-0.12728 0.07296-0.71168 0.99681-0.69088
   1  -6  -9  819.37   53.60  39-0.06649 0.22623-0.74427 0.10395 0.66456-0.96851
  -2  -6  -9  672.79   40.90  38-0.06659-0.25303-0.75096 0.11065 0.65698-0.96111
  -2   6   9  834.08   59.30  66-0.03776-0.28184-0.02209 0.66213 0.99904-0.69437
   2   6  -9  284.98   77.90  97 0.02104 0.30171 0.77680-0.13793 0.62940-0.94337
   2  -6   9  525.22   73.40  66-0.03738 0.35695-0.01530-0.62473 0.99918-0.69448
  -2   6  -9  646.70   54.70  97 0.02124-0.34045 0.77877-0.13830 0.62695-0.93004
   2  -6  -9  778.42   40.30  36-0.06710 0.38714-0.79428 0.15415 0.60383-0.90904
   2   6   9  773.85   76.40  67-0.03565 0.35541 0.01525 0.62511 0.99925-0.69492
  -2  -6   9  632.66   83.10  68-0.03549-0.28464 0.01817-0.65942 0.99920-0.69581
  -3  -6  -9  115.26   56.80  36-0.06709-0.40825-0.79333 0.15150 0.60508-0.90021
   3   6  -9  118.83   70.70 100 0.02664 0.45645 0.82948-0.19069 0.55790-0.86907
   3  -6   9   62.37   60.80  62-0.04385 0.52379-0.13546-0.50518 0.98981-0.68589
  -3   6   9  199.05   66.70  70-0.03204-0.44835 0.07720 0.56412 0.99650-0.69337
  -3   6  -9    3.32   42.90 101 0.02834-0.50688 0.84448-0.20381 0.53483-0.83758
   3  -6  -9   -0.61   32.10  32-0.06724 0.54713-0.86217 0.22204 0.50214-0.80706
   3   6   9  199.70   81.40  72-0.02856 0.51210 0.13463 0.50959 0.99048-0.69143
  -3  -6   9   40.23   86.80  65-0.03973-0.43696-0.05779-0.57870 0.99754-0.68860
   0  -7  -9 2421.37   72.40  40-0.06604 0.06606-0.71828-0.02871 0.69261-0.99740
   0   7  -9 2420.07  120.60  94 0.01534-0.01534 0.71870 0.02828 0.69516-0.99948
   0   7   9 2449.17  108.00  68-0.03484 0.03486 0.02948 0.71808 0.99896-0.69509
   0  -7   9 1958.71   82.40  66-0.03819 0.03823-0.02976-0.71792 0.99883-0.69507
  -1  -7  -9  919.81   52.20  40-0.06607-0.09379-0.72010-0.02689 0.69072-0.99523
   1  -7   9  720.34   72.20  65-0.03966 0.19978-0.05639-0.69155 0.99762-0.69415
  -1   7   9  937.84   75.70  68-0.03430-0.12559 0.03871 0.70849 0.99866-0.69445
   1   7  -9  466.71   92.70  95 0.01635 0.14364 0.72922 0.01778 0.68408-0.98947
   1   7   9  732.63   75.60  69-0.03338 0.19344 0.05455 0.69320 0.99795-0.69430
   1  -7  -9  897.10   53.60  39-0.06642 0.22641-0.74030-0.00669 0.66899-0.97401
  -1  -7   9  862.45  106.50  66-0.03810-0.12092-0.02819-0.71390 0.99888-0.68973
  -1   7  -9  908.21  111.50  95 0.01660-0.17619 0.73186 0.01510 0.68126-0.98424
   2   7  -9  777.85   70.70  96 0.01951 0.30064 0.76158-0.01462 0.64777-0.95362
   2  -7   9  532.12   64.40  63-0.04307 0.36339-0.12043-0.62761 0.99179-0.68852
  -2  -7  -9  466.71   56.20  39-0.06650-0.25297-0.74480-0.00218 0.66396-0.96747
   2   7   9  579.33   74.20  71-0.02973 0.35038 0.11565 0.63304 0.99284-0.69029
  -2  -7   9  738.71   78.30  64-0.04094-0.27866-0.08004-0.66670 0.99595-0.69127
  -2   7  -9  756.47   94.40  97 0.02104-0.34263 0.77680-0.02998 0.62940-0.93899
   2  -7  -9  735.19   61.80  37-0.06701 0.38664-0.78392 0.03693 0.61724-0.92149
  -1   0 -10 2724.02   42.70   8-0.04892-0.11096-0.98162 0.98185-0.18445-0.15383
   1   0  10 2831.95   88.10  22-0.06363 0.22349-0.96940 0.96944 0.23708 0.10118
  -1   0  10 2770.16   38.70  20-0.06216-0.09767-0.98227 0.98205 0.17686 0.16136
  -2   0 -10  612.03  -28.30   5-0.04436-0.27510-0.96020 0.95939-0.27576-0.06243
   2   0 -10  913.63   32.30   2-0.04024 0.35901-0.93567 0.93325-0.35057 0.01229
   2   0  10  780.48   30.00  27-0.06625 0.38614-0.92087 0.92129 0.38421-0.04598
   3   0  10  656.56   21.20  36-0.06709 0.54691-0.79291 0.79330 0.60563-0.26751
   3   0  10  615.59   36.30 103 0.03287 0.44775 0.88233-0.88443 0.46947-0.13154
  -3   0  10  698.78   26.80  28-0.06660-0.41282-0.90797 0.90768 0.41371-0.07544
  -3   0  10  625.89   40.50 101 0.02796-0.50602 0.84123-0.83875 0.53996-0.20112
   4   0  10 6067.72  132.20  51-0.05840 0.69851-0.45840 0.45885 0.88683-0.54913
   4   0  10 6056.29  107.80  91 0.00861 0.63236 0.64458-0.64618 0.76449-0.42729
  -4   0  10 5983.37  159.60  38-0.06670-0.57288-0.75849 0.75871 0.64827-0.31011
  -4   0  10 5555.12  127.00  90 0.00726-0.64452 0.62903-0.62695 0.77735-0.43764
   0  -1 -10 8045.58   77.70  18-0.06071 0.06075-0.99031 0.88408 0.12488-0.46338
   0   1  10 8300.81   99.30  30-0.06703 0.06699-0.88383 0.98994 0.46298-0.12465
   0  -1  10 8055.35   93.30 104 0.03325-0.03323 0.88532-0.99154 0.46378-0.12547
  -1  -1 -1042283.98  112.60  18-0.06049-0.09938-0.99127 0.88468 0.11717-0.45549
   1  -1  1042354.82  111.40  12-0.05410 0.21392-0.99639 0.88955-0.06547 0.40366
   1  -1  1042331.99  147.50 103 0.03175 0.12818 0.87332-0.98065 0.48611-0.14795
  -1   1  1045512.92  519.80  31-0.06708-0.09277-0.88028 0.98697 0.46969-0.13144
  -1  -1  1044595.38  116.70  10-0.05207-0.10776-0.99208 0.88525-0.11428 0.45247
  -1  -1  1043374.93  151.70 102 0.03028-0.18999 0.86115-0.96712 0.50745-0.16907
   1  -1 -1042474.22  110.50  16-0.05879 0.21863-0.99628 0.88951 0.06298-0.40121
   1   1  1039266.18  369.00  33-0.06729 0.22722-0.84883 0.95588 0.52436-0.18617
  -2  -1 -10 7958.70   52.10  15-0.05779-0.26184-0.99778 0.89081 0.03319-0.37134
  -2   1  10 8230.92   92.00  33-0.06730-0.25230-0.84061 0.94694 0.53744-0.19910
   2  -1  10 7795.21   90.30  17-0.05926 0.37876-0.99523 0.88805 0.07751 0.26060
   2  -1  10 7229.83  168.90  99 0.02538 0.29468 0.81800-0.92582 0.57466-0.23669
  -2  -1  10 8240.30  105.30  13-0.05545-0.26418-0.99798 0.89104-0.03098 0.36913
  -2  -1  10 7667.31   87.90  98 0.02296-0.34220 0.79538-0.90087 0.60567-0.26706
   2   1  10 7590.54   94.30  38-0.06674 0.38695-0.76182 0.86967 0.64434-0.30649
   2  -1 -10 7315.53  151.30  12-0.05377 0.37348-0.99583 0.88913-0.07374-0.26452
  -3  -1 -1010265.54  169.70   9-0.05085-0.42873-0.98854 0.88189-0.14216-0.19610
   3  -1  1010130.31  146.00  25-0.06536 0.54556-0.94367 0.83796 0.32435 0.01391
   3  -1  1010058.92  115.30  92 0.01199 0.46860 0.68254-0.79100 0.73075-0.39337
  -3   1  10 9689.34  142.50  39-0.06649-0.41273-0.74464 0.85066 0.66414-0.32563
   3   1  10 9659.23  216.30  46-0.06286 0.54318-0.58966 0.69735 0.80520-0.46761
  -3  -1  1011020.87  180.00  18-0.06077-0.41869-0.99007 0.88317 0.12675 0.21146
  -3  -1  10 9844.70  144.40  92 0.01056-0.48915 0.66662-0.77181 0.74532-0.40627
   3  -1 -1010258.52  258.90   4-0.04382 0.52338-0.95720 0.85050-0.28609-0.05216
   4  -1  10 1105.26   30.20  40-0.06605 0.70635-0.71868 0.61275 0.69219-0.35439
   4  -1  10 1217.63   41.70  79-0.01468 0.65656 0.34574-0.45416 0.93821-0.60222
  -4   1  10 1262.59   35.70  48-0.06117-0.57783-0.53629 0.64256 0.84181-0.50321
  -4   1  10 1346.09   42.50  99 0.02557-0.66321 0.81977-0.71116 0.57212-0.23324
   4   1  10 1195.89   36.20  58-0.04951 0.68992-0.24988 0.35711 0.96701-0.62967
   4   1  10 1168.96   41.20 104 0.03377 0.60768 0.88944-0.78537 0.45581-0.11795
  -4  -1  10 1198.73   36.60  27-0.06606-0.57271-0.92679 0.81916 0.36974-0.03145
  -4  -1  10 1070.54   47.70  82-0.00853-0.62919 0.43113-0.53640 0.90225-0.56249
   0  -2 -1011488.26  104.40  26-0.06581 0.06581-0.93344 0.71998 0.35264-0.69086
   0   2  1011910.40   95.70  40-0.06607 0.06607-0.71986 0.93338 0.69097-0.35276
   0  -2  1011762.04   71.00   2-0.04006 0.04005-0.93451 0.72097-0.35367 0.69181
   0  -2  1011653.02  136.00  94 0.01558-0.01559 0.72123-0.93497 0.69252-0.35439
  -1  -2 -1030645.90  103.80  26-0.06574-0.09410-0.93534 0.72178 0.34758-0.68570
   1  -2  1030421.24  140.50  93 0.01370 0.14628 0.70118-0.91543 0.71285-0.37494
  -1   2  1031654.14  115.60  40-0.06600-0.09384-0.71635 0.92964 0.69462-0.35632
   1  -2  1030926.57  280.60   4-0.04283 0.20279-0.95159 0.73855-0.30439 0.64298
   1   2  1029298.80  114.30  42-0.06518 0.22510-0.67692 0.89065 0.73317-0.39505
  -1  -2  1030081.71  144.30  93 0.01317-0.17298 0.69545-0.90863 0.71845-0.38010
   1  -2 -1030641.90  101.70  24-0.06486 0.22472-0.95291 0.73952 0.29624-0.63452
  -1  -2  1030928.56  359.70   2-0.04087-0.11892-0.93970 0.72589-0.33955 0.67745
   2  -2  10  893.17   42.00  90 0.00702 0.31305 0.62631-0.84072 0.77955-0.44181
  -2  -2 -10  633.28   29.70  24-0.06455-0.25490-0.95765 0.74351 0.28059-0.61824
  -2   2  10  940.91   37.40  42-0.06487-0.25479-0.66411 0.87741 0.74481-0.40650
   2   2  10  553.22   33.10  46-0.06250 0.38253-0.57790 0.79198 0.81371-0.47586
  -2  -2  10  781.80   27.20   5-0.04500-0.27464-0.96357 0.74998-0.26364 0.60175
   2  -2 -10  741.43   25.80  20-0.06207 0.38184-0.98289 0.76961 0.17342-0.51177
  -2  -2  10  700.52   52.00  90 0.00671-0.32594 0.62266-0.83487 0.78246-0.44357
   3  -2  1016448.64   73.50  15-0.05764 0.53726-0.99792 0.78460 0.02884 0.30945
  -3  -2 -1014567.54  307.70  19-0.06102-0.41836-0.98892 0.77518 0.13531-0.47336
   3  -2  1014683.31  226.80  83-0.00588 0.48633 0.46646-0.68114 0.88452-0.54729
  -3   2  1015240.54  196.90  47-0.06159-0.41769-0.54900 0.76193 0.83355-0.49497
   3   2  1014559.11   90.20  53-0.05622 0.53639-0.40271 0.61684 0.91360-0.57601
  -3  -2  1015667.62   81.00  10-0.05170-0.42775-0.99107 0.77745-0.12294 0.46108
  -3  -2  1014733.45  197.00  84-0.00417-0.47434 0.48878-0.70067 0.87240-0.53298
  -4  -2 -10   50.53   17.00  10-0.05203-0.58714-0.99196 0.77822-0.11537-0.22279
   4  -2  10  128.79   13.20  27-0.06619 0.70455-0.92295 0.70847 0.37920-0.04088
   4  -2  10   21.58   30.60  72-0.02768 0.66738 0.14899-0.36257 0.98845-0.65049
  -4   2  10  141.91   28.00  56-0.05313-0.58519-0.32941 0.54182 0.94269-0.60331
  -4  -2  10  174.85   30.00  76-0.02013-0.61782 0.26617-0.47847 0.96372-0.62399
   4   2  10   99.28   31.60  63-0.04288 0.68152-0.11680 0.32985 0.99223-0.65324
  -4  -2  10   56.62   17.00  18-0.06003-0.57963-0.99296 0.77988 0.10211 0.23625
   0  -3 -10 4335.51   62.00  32-0.06722 0.06718-0.86405 0.54360 0.49889-0.83665
   0   3 -10 4487.43   72.00 102 0.03084-0.03083 0.86580-0.54555 0.49943-0.83751
   0   3  10 4551.13   97.60  47-0.06145 0.06145-0.54479 0.86495 0.83632-0.49808
   0  -3  10 4639.12   94.50  86 0.00029-0.00029 0.54531-0.86589 0.83823-0.50023
   1   3 -10  661.03   39.20 103 0.03197 0.12797 0.87509-0.55533 0.48291-0.82172
  -1  -3 -10  992.33   37.60  32-0.06721-0.09263-0.86671 0.54647 0.49426-0.83234
   1  -3  10  881.85   50.80  85-0.00172 0.16170 0.52022-0.84106 0.85403-0.51621
  -1   3  10  942.88   45.20  48-0.06131-0.09849-0.54033 0.86000 0.83922-0.50070
   1   3  10  934.17   36.10  49-0.05998 0.21994-0.50173 0.82224 0.86294-0.52493
   1  -3 -10  822.35   28.70  30-0.06695 0.22684-0.88972 0.56968 0.45157-0.78994
  -1  -3  10  718.89   56.00  86-0.00127-0.15832 0.52580-0.84456 0.85061-0.51152
  -1   3 -10  927.44   53.60 104 0.03325-0.19310 0.88532-0.56519 0.46378-0.80204
  -2   3  10 5172.60   90.20  50-0.05935-0.26027-0.48416 0.80406 0.87297-0.53456
  -2  -3 -10 5045.92   73.70  29-0.06685-0.25288-0.89592 0.57584 0.43915-0.77747
   2   3 -10 4895.29   94.90 105 0.03617 0.28383 0.90755-0.58802 0.41839-0.75742
   2  -3  10 4212.09  124.00  82-0.00793 0.32802 0.43919-0.76022 0.89836-0.56077
   2   3  10 4615.60   79.40  53-0.05636 0.37640-0.40621 0.72699 0.91204-0.57429
  -2  -3  10 4677.58   91.90  83-0.00680-0.31244 0.45423-0.77323 0.89086-0.55180
   2  -3 -10 4874.58   68.10  26-0.06577 0.38557-0.93449 0.61450 0.34987-0.68828
  -3  -3 -10 5337.66   78.20  25-0.06540-0.41386-0.94288 0.62230 0.32665-0.66442
   3  -3  10 4795.40   81.80   7-0.04826 0.52767-0.97895 0.65863-0.19834 0.53644
   3  -3  10 4215.43  104.90  77-0.01910 0.49957 0.28144-0.60267 0.95939-0.62227
  -3   3  10 4607.53   91.50  54-0.05470-0.42480-0.36596 0.68602 0.92902-0.59070
   3  -3 -10 5084.18   81.20  20-0.06223 0.54193-0.98177 0.66181 0.17960-0.51799
   3   3  10 4817.15  113.90  59-0.04936 0.52958-0.24679 0.56763 0.96781-0.63035
  -3  -3  10 5014.34   77.00   4-0.04289-0.43636-0.95195 0.63139-0.30322 0.64104
  -3  -3  10 4306.87  121.40  78-0.01637-0.46400 0.32145-0.64272 0.94678-0.60961
  -4  -3 -10 1103.61   39.90  18-0.06077-0.57864-0.99005 0.66993 0.12690-0.46516
   4  -3  10 1050.72   30.80  17-0.05989 0.69915-0.99345 0.67318 0.09734 0.24087
   4  -3  10  941.03   39.80  67-0.03677 0.67823-0.00432-0.31677 0.99931-0.66307
  -4   3  10 1159.13   55.00  62-0.04515-0.59309-0.16076 0.47995 0.98596-0.64644
   4   3  10  952.48   53.60  67-0.03644 0.67742 0.00143 0.31945 0.99933-0.66262
  -4  -3  10 1194.19   44.20  10-0.05216-0.58736-0.99231 0.67231-0.11222 0.45056
  -4  -3  10  924.75   65.90  71-0.02860-0.60933 0.13400-0.45304 0.99057-0.65075
   4  -3 -10  869.26   29.80  11-0.05344 0.69232-0.99521 0.67457-0.08182-0.25623
   0  -4 -10 7670.71  102.20  35-0.06722 0.06723-0.80985 0.38310 0.58278-0.92126
   0   4 -10 8252.04  130.60  99 0.02460-0.02460 0.81080-0.38395 0.58480-0.92303
   0  -4  10 6960.30  224.30  80-0.01200 0.01200 0.38355-0.81067 0.92344-0.58538
   0   4  10 7889.93  133.70  54-0.05540 0.05542-0.38260 0.80972 0.92225-0.58419
  -1  -4 -10 5028.53   71.80  35-0.06723-0.09264-0.81198 0.38519 0.57980-0.91818
   1  -4  10 4959.85  111.40  79-0.01398 0.17400 0.35571-0.78330 0.93449-0.59680
  -1   4  10 5111.50  101.30  54-0.05513-0.10472-0.37624 0.80307 0.92488-0.58662
   1   4 -10 5166.49  113.00 100 0.02573 0.13422 0.82119-0.39463 0.57007-0.90898
   1   4  10 5064.32   87.30  55-0.05375 0.21376-0.34373 0.77114 0.93753-0.59971
  -1   4 -10 4715.55   99.90 100 0.02656-0.18628 0.82870-0.40157 0.55906-0.89668
  -1  -4  10 4625.75  108.00  80-0.01316-0.14652 0.36736-0.79324 0.92999-0.59102
   1  -4 -10 5177.60  102.30  34-0.06730 0.22725-0.83562 0.40896 0.54516-0.88380
  -2  -4 -1021945.47  220.50  33-0.06730-0.25232-0.84118 0.41420 0.53655-0.87452
  -2   4  1020630.07  281.70  56-0.05283-0.26674-0.32254 0.74900 0.94508-0.60651
   2   4 -1019881.66  259.90 102 0.02971 0.29035 0.85635-0.43004 0.51554-0.85485
   2  -4  1021105.48  589.90  76-0.01946 0.33969 0.27612-0.70405 0.96093-0.62364
   2   4  1021450.42  288.10  58-0.04984 0.37009-0.25686 0.68472 0.96516-0.62785
  -2   4 -1020200.55  131.40 103 0.03173-0.35095 0.87315-0.44569 0.48642-0.82353
  -2  -4  1019663.60  452.70  77-0.01772-0.30193 0.30184-0.72856 0.95320-0.61484
   2  -4 -1021607.37  291.10  30-0.06703 0.38673-0.88400 0.45715 0.46266-0.80091
   3  -4  10  512.74   28.10   2-0.04044 0.51990-0.93694 0.51001-0.34714 0.68527
  -3  -4 -10  442.41   37.30  30-0.06689-0.41265-0.89349 0.46663 0.44407-0.78229
   3  -4  10  429.13   50.00  71-0.02871 0.50908 0.13232-0.56006 0.99079-0.65358
  -3   4  10  514.80   54.80  60-0.04796-0.43016-0.21744 0.64214 0.97490-0.63452
   3   4  10  453.03   43.60  63-0.04287 0.52351-0.11645 0.54443 0.99227-0.65539
   3  -4 -10  429.59   28.10  25-0.06530 0.54501-0.94495 0.51826 0.32062-0.65907
  -3  -4  10  295.43   62.90  74-0.02488-0.45370 0.19338-0.61890 0.98081-0.64119
  -4  -4 -10  391.05   26.90  24-0.06468-0.57438-0.95568 0.52851 0.28723-0.62511
  -4   4  10  399.59   37.10  66-0.03789-0.60092-0.02436 0.45076 0.99898-0.66008
   4  -4  10  314.48   25.90  10-0.05222 0.69165-0.99247 0.56564-0.11081 0.44908
   4  -4  10  329.92   37.70  63-0.04238 0.68312-0.10724-0.32023 0.99333-0.65636
   4   4  10  154.48   57.00  70-0.03082 0.67406 0.09753 0.33120 0.99475-0.66026
  -4  -4  10  532.90   40.30   5-0.04537-0.59500-0.96547 0.53950-0.25653 0.59575
  -4  -4  10  368.50   56.50  68-0.03552-0.60415 0.01767-0.44470 0.99921-0.66124
   4  -4 -10  437.88   29.80  17-0.05987 0.69951-0.99351 0.56686 0.09675-0.43515
   0  -5 -10  248.34   35.60  37-0.06690 0.06692-0.77390 0.24043 0.62976-0.96836
   0   5 -10  580.12   56.50  97 0.02082-0.02082 0.77461-0.24103 0.63210-0.97029
   0   5  10  577.63   49.40  59-0.04903 0.04905-0.23981 0.77372 0.96958-0.63162
   0  -5  10  391.93   58.80  75-0.02184 0.02185 0.24038-0.77428 0.97043-0.63246
  -1  -5 -10 3868.53   80.10  37-0.06692-0.09294-0.77577 0.24222 0.62746-0.96576
   1  -5  10 4210.88  102.60  74-0.02367 0.18373 0.21221-0.74660 0.97694-0.63940
  -1   5  10 4452.50   89.60  59-0.04868-0.11116-0.23253 0.76605 0.97137-0.63309
   1   5 -10 3798.49  133.60  97 0.02185 0.13804 0.78470-0.25121 0.61950-0.95804
   1   5  10 4226.34  102.20  60-0.04738 0.20746-0.20550 0.73987 0.97751-0.63996
  -1   5 -10 3903.86   98.60  98 0.02250-0.18221 0.79094-0.25718 0.61149-0.94903
  -1  -5  10 3746.49  101.50  75-0.02275-0.13709 0.22637-0.75986 0.97377-0.63547
   1  -5 -10 3939.46   78.80  36-0.06714 0.22724-0.79898 0.26571 0.59760-0.93689
  -2   5  10  178.29   38.40  61-0.04620-0.27334-0.18174 0.71487 0.98226-0.64362
  -2  -5 -10  119.94   47.90  35-0.06722-0.25425-0.81097 0.27935 0.58122-0.92592
   2   5 -10  210.04   65.80  99 0.02549 0.29440 0.81906-0.28568 0.57314-0.91198
   2  -5  10  288.20   67.60  72-0.02768 0.34578 0.14899-0.67939 0.98845-0.64720
  -2  -5  10  169.79   48.00  73-0.02617-0.29307 0.17306-0.70549 0.98456-0.64528
  -2   5 -10   54.91   42.40 100 0.02708-0.34633 0.83343-0.29948 0.55195-0.88903
   2  -5 -10  211.54   31.10  33-0.06730 0.38721-0.84621 0.31282 0.52858-0.86730
   2   5  10  327.96   62.10  63-0.04360 0.36358-0.13058 0.66464 0.99048-0.65273
   3   5 -10 1386.08   67.40 103 0.03174 0.44877 0.87324-0.34040 0.48626-0.82628
  -3  -5 -10 1304.72   58.30  32-0.06728-0.41187-0.85411 0.32023 0.51572-0.85312
   3  -5  10 1421.49   72.30  67-0.03582 0.51523 0.01232-0.54573 0.99928-0.66085
  -3   5  10 1627.03   67.80  64-0.04073-0.43942-0.07614 0.61053 0.99626-0.65891
   3   5  10 1172.78   76.80  67-0.03700 0.51717-0.00852 0.54272 0.99928-0.66181
  -3  -5  10 1178.51   84.40  69-0.03233-0.44704 0.07227-0.60559 0.99686-0.65835
  -3   5 -10 1311.39   69.70 105 0.03468-0.51303 0.89641-0.36201 0.44186-0.77830
   3  -5 -10 1519.12   54.70  28-0.06655 0.54645-0.90997 0.37664 0.40931-0.74802
   0  -6 -10 2780.81   72.00  38-0.06664 0.06665-0.75462 0.11437 0.65277-0.99120
   0   6 -10 2564.19   92.70  96 0.01890-0.01890 0.75546-0.11519 0.65492-0.99316
   0   6  10 2577.63   93.20  63-0.04274 0.04276-0.11403 0.75471 0.99256-0.65466
   0  -6  10 2808.40   98.80  71-0.02981 0.02983 0.11427-0.75495 0.99300-0.65511
  -1  -6 -10  985.21   48.20  38-0.06667-0.09318-0.75644 0.11617 0.65065-0.98885
   1  -6  10 1139.84   67.00  70-0.03151 0.19167 0.08618-0.72766 0.99578-0.65862
   1   6 -10 1164.85   83.20  96 0.01991 0.14007 0.76558-0.12542 0.64303-0.98217
  -1   6  10 1390.15   82.20  63-0.04234-0.11748-0.10641 0.74646 0.99342-0.65498
   1   6  10 1206.57   69.30  64-0.04118 0.20125-0.08455 0.72560 0.99557-0.65803
   1  -6 -10 1394.51   56.00  37-0.06694 0.22694-0.77752 0.13734 0.62528-0.96418
  -1  -6  10  895.70   81.70  70-0.03048-0.12938 0.10330-0.74362 0.99418-0.65597
  -1   6 -10 1150.59   90.60  97 0.02034-0.18001 0.76988-0.12947 0.63787-0.97511
   2   6 -10   93.43   53.00  98 0.02324 0.29688 0.79801-0.15796 0.60220-0.94176
  -2   6  10  356.89   53.00  65-0.03977-0.27976-0.05848 0.69833 0.99750-0.65884
  -2  -6 -10  408.87   49.80  37-0.06699-0.25254-0.78207 0.14170 0.61958-0.95715
   2  -6  10  358.56   85.20  68-0.03535 0.35513 0.02058-0.66098 0.99916-0.66105
  -2  -6  10  631.26   61.40  69-0.03335-0.28626 0.05507-0.69511 0.99793-0.65945
  -2   6 -10  294.73   49.10  99 0.02445-0.34368 0.80938-0.16888 0.58678-0.92378
   2   6  10  686.13   87.20  66-0.03746 0.35788-0.01673 0.65831 0.99916-0.66223
   2  -6 -10  469.80   48.00  34-0.06727 0.38685-0.82150 0.18117 0.56622-0.90417
  -3  -6 -10  267.87   37.10  34-0.06730-0.41219-0.83051 0.19020 0.55293-0.89103
   3   6 -10  117.48   45.50 101 0.02890 0.45168 0.84938-0.20958 0.52700-0.86722
  -3   6  10  168.63   58.20  68-0.03454-0.44472 0.03453 0.60535 0.99881-0.66013
   3  -6  10  298.70   64.40  64-0.04204 0.52340-0.10081-0.54133 0.99402-0.65804
   3   6  10   23.02   60.60  70-0.03114 0.51255 0.09226 0.55000 0.99525-0.65938
  -3  -6  10  211.68   54.50  66-0.03835-0.44116-0.03254-0.60765 0.99873-0.66041
  -3   6 -10  276.79   57.70 103 0.03135-0.51008 0.87000-0.22936 0.49206-0.82898
   3  -6 -10  261.49   41.70  30-0.06704 0.54619-0.88327 0.24282 0.46405-0.80170
   0  -7 -10  287.04   54.70  38-0.06653 0.06642-0.74718 0.00020 0.66128-0.99779
   0   7 -10  293.41   94.50  95 0.01817-0.01813 0.74802-0.00104 0.66343-0.99984
   0   7  10   29.30   47.60  67-0.03664 0.03665-0.00206 0.74926 0.99933-0.66127
   0  -7  10   61.09   77.60  67-0.03646 0.03650 0.00108-0.74883 0.99933-0.66176
  -1  -7 -10  307.99   39.00  38-0.06658-0.09327-0.75061 0.00363 0.65738-0.99563
   1   7 -10  248.94   59.20  96 0.01924 0.14072 0.75887-0.01190 0.65096-0.98998
   1  -7  10  729.94   76.90  66-0.03790 0.19799-0.02453-0.72332 0.99898-0.66152
  -1   7  10  192.51   56.00  67-0.03613-0.12371 0.00683 0.74010 0.99932-0.66102
   1   7  10   26.46   64.30  68-0.03516 0.19524 0.02391 0.72395 0.99910-0.66164
  -1  -7  10  180.52   89.30  67-0.03723-0.12316-0.01248-0.73767 0.99923-0.66383
   1  -7 -10  120.05   64.90  37-0.06691 0.22829-0.77500 0.02821 0.62841-0.97318
   0   0 -11   81.55  -39.00   8-0.04882 0.04883-0.98124 0.98141-0.18651-0.18560
   0   0  1110040.03 -544.80  20-0.06245 0.06251-0.98012 0.98095 0.18833 0.18391
   1   0 -11 7080.76   84.90   6-0.04619 0.20605-0.96959 0.96963-0.24035-0.13174
  -1   0 -11 6663.51  197.40   7-0.04820-0.11165-0.97869 0.97867-0.19960-0.17247
   1   0  11 7011.75  104.30  23-0.06389 0.22380-0.96650 0.96678 0.24860 0.12351
  -1   0  11 6161.58  182.50  21-0.06262-0.09728-0.97884 0.97933 0.19483 0.17733
  -2   0 -11 6041.87   87.60   4-0.04383-0.27589-0.95727 0.95732-0.28586-0.08622
   2   0 -11 6071.90   79.70   2-0.03975 0.35965-0.93250 0.93300-0.35897-0.01312
  -2   0  11 6366.18   69.10  23-0.06429-0.25538-0.96133 0.96120 0.26779 0.10427
   2   0  11 6331.63   81.00  27-0.06623 0.38620-0.92171 0.92236 0.38218-0.01011
   3   0  11 5367.74   86.60  35-0.06722 0.54687-0.81025 0.81040 0.58221-0.21017
   3   0  11 5360.16   91.00 104 0.03370 0.44673 0.88888-0.89062 0.45689-0.08498
  -3   0  11 5252.24   82.90  28-0.06655-0.41298-0.91004 0.90999 0.40913-0.03706
  -3   0  11 5187.62  112.40 101 0.02905-0.50716 0.85070-0.84828 0.52485-0.15234
   4   0  11  271.46   27.30  48-0.06103 0.70155-0.53192 0.53277 0.84459-0.47327
   4   0  11  175.91   25.80  93 0.01332 0.62709 0.69707-0.69820 0.71688-0.34536
  -4   0  11  277.85   22.80  37-0.06700-0.57197-0.78313 0.78253 0.61824-0.24597
  -4   0  11  309.47   34.30  92 0.01039-0.64827 0.66479-0.66322 0.74696-0.37400
   0  -1 -11 1772.26   32.10  17-0.05945 0.05946-0.99475 0.88824 0.08334-0.45552
   0   1  11 1890.95   40.30  30-0.06698 0.06698-0.88758 0.99424 0.45576-0.08368
   0  -1  11 1888.20   36.80  11-0.05331 0.05329-0.99496 0.88794-0.08495 0.45687
   0  -1  11 1567.50   44.90 104 0.03373-0.03373 0.88912-0.99586 0.45643-0.08435
   1  -1  1111166.64   62.20  13-0.05562 0.21547-0.99810 0.89141-0.02662 0.39871
   1  -1  1111890.03   85.20 103 0.03246 0.12747 0.87908-0.98642 0.47556-0.10355
  -1   1  1111004.77   63.70  30-0.06701-0.09282-0.88525 0.99177 0.46026-0.08816
  -1  -1 -1111191.15  132.70  17-0.05926-0.10050-0.99523 0.88776 0.07751-0.44920
   1   1  1111636.28   67.30  32-0.06726 0.22712-0.85721 0.96397 0.51056-0.13849
   1  -1 -1111777.65   67.70  15-0.05754 0.21737-0.99800 0.89122 0.02605-0.39809
  -1  -1  1111073.05  141.80  12-0.05389-0.10606-0.99605 0.89018-0.07061 0.44310
  -1  -1  1110777.44  148.00 102 0.03099-0.19081 0.86708-0.97362 0.49720-0.12510
  -2  -1 -11 3948.26   53.50  14-0.05649-0.26316-0.99840 0.89150-0.00325-0.36875
   2  -1  11 4097.57   60.30 100 0.02669 0.29341 0.82987-0.93782 0.55732-0.18549
   2  -1  11 3886.15   60.40  18-0.06045 0.38153-0.99141 0.88790 0.11596 0.25704
  -2   1  11 4061.50   61.30  33-0.06729-0.25242-0.84883 0.95556 0.52436-0.15228
  -2  -1  11 4285.67   70.40  14-0.05672-0.26294-0.99838 0.89154 0.00320 0.36882
  -2  -1  11 4250.66   74.10  99 0.02437-0.34359 0.80866-0.91409 0.58777-0.21539
   2   1  11 4112.97   61.40  37-0.06691 0.38805-0.77500 0.88500 0.62841-0.25729
   2  -1 -11 3992.55   63.80  11-0.05267 0.37255-0.99357 0.88727-0.10027-0.27194
  -3  -1 -11 1768.10   42.40   9-0.04990-0.42963-0.98531 0.87855-0.16331-0.20875
   3  -1  11 1781.21   35.40  25-0.06539 0.54532-0.94310 0.83696 0.32602 0.04609
   3  -1  11 1431.52   55.10  94 0.01473 0.46590 0.71217-0.82078 0.70185-0.33054
  -3   1  11 1350.57  -38.00  38-0.06675-0.41296-0.76216 0.86919 0.64394-0.27197
   3   1  11 1458.08   37.40  44-0.06396 0.54402-0.62815 0.73555 0.77546-0.40376
  -3  -1  11 1725.38   33.20  19-0.06134-0.41797-0.98730 0.88006 0.14656 0.22538
   3  -1 -11 1768.53   39.10   4-0.04344 0.52313-0.95509 0.84859-0.29312-0.07898
  -3  -1  11 1341.42   55.50  93 0.01332-0.49095 0.69707-0.80063 0.71688-0.34345
   4  -1  11  189.65   22.30  38-0.06665 0.70691-0.75538 0.64946 0.65188-0.28015
   4  -1  11  211.65   26.70  82-0.00785 0.64904 0.44020-0.54842 0.89786-0.52723
  -4   1  11  116.87   23.90  46-0.06285-0.57521-0.58931 0.69440 0.80546-0.43237
  -4   1  11  156.56   27.20 100 0.02664-0.66587 0.82948-0.72257 0.55790-0.18577
  -4  -1  11   63.19   30.70  84-0.00443-0.63307 0.48543-0.59037 0.87426-0.50068
   4   1  11  126.30   23.60  55-0.05347 0.69302-0.33723 0.44403 0.93990-0.56794
   4   1  11  147.30   24.90 105 0.03486 0.60582 0.89780-0.79277 0.43901-0.06708
  -4  -1  11  197.13   24.70  27-0.06598-0.57198-0.92902 0.82023 0.36411 0.00795
   0  -2 -11  573.89   25.40  24-0.06491 0.06490-0.95194 0.73837 0.29932-0.67126
   0   2  11  545.72   27.40  39-0.06639 0.06640-0.73842 0.95194 0.67106-0.29901
   0  -2  11  486.69   24.00   4-0.04306 0.04305-0.95293 0.73930-0.30011 0.67200
   0  -2  11  448.91   39.70  95 0.01740-0.01740 0.74011-0.95371 0.67226-0.30024
  -1  -2 -1115136.66   78.60  24-0.06481-0.09503-0.95369 0.74014 0.29374-0.66570
   1  -2  1116196.89  227.50  94 0.01568 0.14430 0.72219-0.93646 0.69151-0.31972
  -1   2  1115385.35   86.70  39-0.06634-0.09349-0.73537 0.94862 0.67441-0.30228
   1  -2  1115418.00  492.00   5-0.04549 0.20524-0.96608 0.75231-0.25422 0.62602
   1   2  1115406.86   87.40  41-0.06567 0.22557-0.69951 0.91313 0.71160-0.33959
  -1  -2  1115885.15   85.80   4-0.04376-0.11604-0.95690 0.74319-0.28711 0.65894
  -1  -2  1115170.30  147.80  94 0.01508-0.17489 0.71591-0.92910 0.69803-0.32587
   1  -2 -1115975.20  171.00  22-0.06380 0.22376-0.96751 0.75446 0.24465-0.61703
  -2  -2 -11    5.65   15.20  22-0.06342-0.25622-0.97161 0.75799 0.22792-0.59984
   2  -2  11   70.14   27.30  91 0.00954 0.31054 0.65517-0.86963 0.75542-0.38381
   2  -2  11   60.89   26.40   9-0.05114 0.37130-0.98943 0.77695-0.13572 0.50842
  -2   2  11   58.56   36.50  41-0.06557-0.25310-0.69502 0.90477 0.71599-0.34252
   2   2  11  107.46   24.30  45-0.06343 0.38342-0.60914 0.82318 0.79052-0.41876
  -2  -2  11   14.52   41.00  91 0.00895-0.32828 0.64843-0.86089 0.76122-0.38871
  -2  -2  11  108.92   26.00   7-0.04716-0.27191-0.97413 0.75893-0.22100 0.59169
   2  -2 -11    4.09   23.40  19-0.06130 0.37873-0.98748 0.76943 0.14536-0.51434
  -3  -2 -11 1825.89   40.70  17-0.05969-0.41984-0.99406 0.78060 0.09098-0.46303
   3  -2  11 1838.69   41.80  16-0.05870 0.53826-0.99645 0.78302 0.06037 0.31170
   3  -2  11 1793.34   52.90  85-0.00234 0.48291 0.51230-0.72725 0.85880-0.48775
  -3   2  11 1809.99   45.60  46-0.06272-0.41643-0.58512 0.79779 0.80852-0.43602
   3   2  11 1836.26   52.70  51-0.05793 0.53878-0.44590 0.66093 0.89320-0.52239
  -3  -2  11 2051.38   53.50  11-0.05345-0.42641-0.99523 0.78236-0.08158 0.45397
  -3  -2  11 1990.51   70.00  86-0.00117-0.47709 0.52710-0.73852 0.84980-0.47643
   3  -2 -11 1840.31   46.30  12-0.05462 0.53372-0.99713 0.78303-0.05241-0.31939
  -4  -2 -11 1227.71   33.00   9-0.05068-0.58941-0.98799 0.77547-0.14596-0.22638
   4  -2  11 1036.86   31.20  27-0.06624 0.70588-0.92144 0.70825 0.38282-0.01075
   4  -2  11  928.97   39.70  75-0.02245 0.66306 0.23107-0.44531 0.97268-0.60170
  -4   2  11 1169.99   44.00  53-0.05566-0.58278-0.38889 0.60131 0.91960-0.54662
  -4  -2  11 1021.62   45.10  78-0.01639-0.62165 0.32129-0.53353 0.94684-0.57350
   4   2  11 1134.01   57.40  61-0.04616 0.68626-0.18083 0.39466 0.98243-0.61098
  -4  -2  11 1246.24   40.30  18-0.06068-0.57862-0.99045 0.77689 0.12377 0.24826
   4  -2 -11 1180.40   38.00   3-0.04156 0.68114-0.94402 0.73078-0.32727-0.04482
   0  -3 -11 7521.60  200.50  30-0.06691 0.06686-0.89244 0.57186 0.44617-0.81762
   0   3 -11 8089.24   94.70 104 0.03437-0.03436 0.89408-0.57372 0.44658-0.81833
   0   3  11 8533.68  111.20  46-0.06238 0.06236-0.57381 0.89366 0.81661-0.44439
   0  -3  11 7727.53  107.90  88 0.00281-0.00281 0.57632-0.89565 0.81722-0.44474
   1   3 -11 4520.98  -74.60 105 0.03532 0.12456 0.90130-0.58135 0.43174-0.80406
  -1  -3 -11 5230.93   78.10  29-0.06686-0.09303-0.89542 0.57547 0.44017-0.81251
   1  -3  11 5142.73  102.40  87 0.00081 0.15912 0.55187-0.87244 0.83393-0.46209
  -1   3  11 5339.00  113.20  47-0.06222-0.09762-0.56861 0.88863 0.82025-0.44811
   1   3  11 5067.46   94.90  48-0.06106 0.22101-0.53288 0.85338 0.84399-0.47211
  -1  -3  11 5087.73   92.10  87 0.00091-0.16069 0.55311-0.87283 0.83310-0.46081
   1  -3 -11 5380.73   76.70  28-0.06644 0.22632-0.91425 0.59419 0.39966-0.77183
   2  -3  11  454.36   24.60   3-0.04207 0.36170-0.94709 0.62682-0.31819 0.69012
  -2  -3 -11  370.02   31.60  28-0.06630-0.25326-0.91917 0.59870 0.38823-0.75988
   2  -3  11  102.70   61.00  84-0.00456 0.32353 0.48376-0.80209 0.87519-0.50198
  -2   3  11  454.48   39.70  49-0.06047-0.25943-0.51551 0.83628 0.85475-0.48304
  -2  -3  11  336.38   29.00   1-0.03903-0.28061-0.92772 0.60745-0.37123 0.74314
  -2  -3  11  229.98   44.20  84-0.00427-0.31500 0.48741-0.80645 0.87316-0.50041
   2   3  11  239.90   42.40  51-0.05780 0.37794-0.44272 0.76374 0.89479-0.52332
   2  -3 -11  450.66   31.00  24-0.06494 0.38477-0.95145 0.63151 0.30088-0.67317
   3  -3  11  731.66   28.80   9-0.05039 0.52975-0.98702 0.66664-0.15248 0.52436
  -3  -3 -11  687.95   35.90  23-0.06445-0.41509-0.95911 0.63896 0.27558-0.64764
   3  -3  11  435.46   51.80  78-0.01578 0.49658 0.33005-0.65182 0.94383-0.57319
  -3   3  11  750.65   45.00  53-0.05652-0.42264-0.41009 0.72955 0.91029-0.53771
   3   3  11  428.48   34.80  57-0.05151 0.53173-0.29304 0.61395 0.95471-0.58338
  -3  -3  11  786.94   35.70   5-0.04541-0.43430-0.96571 0.64581-0.25564 0.62794
  -3  -3  11  592.90   62.60  80-0.01309-0.46591 0.36828-0.68760 0.92962-0.55689
   3  -3 -11  624.50   30.40  19-0.06099 0.54155-0.98903 0.67013 0.13456-0.50758
  -4  -3 -11 1245.91   34.80  17-0.05950-0.57985-0.99460 0.67440 0.08507-0.45711
   4  -3  11 1132.93   36.00  18-0.06075 0.70028-0.99015 0.67014 0.12612 0.24600
   4  -3  11 1031.28   50.80  69-0.03235 0.67329 0.07206-0.39309 0.99688-0.62623
  -4   3  11 1159.14   54.20  59-0.04807-0.59019-0.21972 0.53880 0.97438-0.60113
   4   3  11 1118.87   47.90  65-0.03985 0.68033-0.05987 0.38061 0.99741-0.62633
  -4  -3  11 1221.18   52.40  11-0.05364-0.58550-0.99560 0.67516-0.07685 0.44872
  -4  -3  11  872.58   61.20  73-0.02526-0.61207 0.18749-0.50591 0.98194-0.60780
   4  -3 -11 1132.94   34.20  10-0.05223 0.69205-0.99249 0.67276-0.11057-0.26166
   0  -4 -11 1618.82   46.20  33-0.06730 0.06731-0.84221 0.41542 0.53493-0.90714
   0   4 -11 1656.46   55.00 101 0.02821-0.02821 0.84337-0.41653 0.53660-0.90869
   0   4  11 1938.52   72.80  52-0.05675 0.05674-0.41580 0.84259 0.90768-0.53556
   0  -4  11 1530.72   81.30  81-0.00965 0.00965 0.41593-0.84319 0.90934-0.53753
  -1  -4 -11  433.99   34.90  33-0.06730-0.09254-0.84398 0.41710 0.53213-0.90414
   1   4 -11  553.06   62.80 101 0.02908 0.13072 0.85096-0.42396 0.52443-0.89620
   1  -4  11  374.29   65.80  81-0.01142 0.17132 0.39161-0.81867 0.92006-0.54812
  -1   4  11  594.10   49.00  53-0.05658-0.10315-0.41151 0.83731 0.90965-0.53691
   1   4  11  621.81   41.60  54-0.05519 0.21521-0.37769 0.80516 0.92429-0.55264
  -1  -4  11  423.62   52.00  81-0.01090-0.14889 0.39878-0.82531 0.91698-0.54470
  -1   4 -11  578.79   47.50 102 0.03011-0.18984 0.85974-0.43261 0.50985-0.88137
   1  -4 -11  697.16   39.20  32-0.06721 0.22725-0.86543 0.43895 0.49650-0.86930
   2  -4  11 3082.42   87.70  78-0.01677 0.33697 0.31567-0.74361 0.94872-0.57749
  -2  -4 -11 3323.02   73.40  31-0.06719-0.25225-0.86933 0.44202 0.48964-0.86081
   2   4 -11 3369.49   94.20 104 0.03291 0.28719 0.88264-0.45643 0.46889-0.84214
  -2   4  11 3211.90   90.10  55-0.05441-0.26513-0.35906 0.78542 0.93173-0.55930
   2   4  11 3208.98   81.30  57-0.05161 0.37167-0.29537 0.72291 0.95399-0.58247
  -2  -4  11 2917.32   92.50  79-0.01502-0.30395 0.34093-0.76594 0.93997-0.56653
  -2   4 -11 3169.10   73.80 105 0.03491-0.35380 0.89816-0.47023 0.43829-0.80852
   2  -4 -11 3427.57   73.10  28-0.06661 0.38653-0.90770 0.48113 0.41430-0.78683
  -3  -4 -11  996.57   40.20  28-0.06641-0.41294-0.91537 0.48828 0.39710-0.76880
   3  -4  11  945.41   38.20   4-0.04313 0.52257-0.95335 0.52638-0.29878 0.67071
   3  -4  11  793.38   45.90  73-0.02597 0.50714 0.17615-0.60492 0.98402-0.61390
  -3   4  11  788.44   53.70  58-0.04966-0.42987-0.25313 0.67994 0.96616-0.59405
  -3  -4  11 1155.11   37.00   1-0.03888-0.44059-0.92669 0.49974-0.37381 0.74575
  -3  -4  11  916.17   52.80  75-0.02237-0.45631 0.23226-0.65785 0.97240-0.59918
   3   4  11  939.12   65.70  62-0.04514 0.52539-0.16067 0.58830 0.98597-0.61471
   3  -4 -11  813.63   41.40  24-0.06447 0.54411-0.95884 0.53208 0.27654-0.64872
  -4  -4 -11  117.85   32.20  22-0.06384-0.57392-0.96703 0.53863 0.24654-0.61684
   4  -4  11   72.81   24.30  12-0.05366 0.69137-0.99564 0.56740-0.07631 0.44729
   4  -4  11    2.89   51.10  65-0.03973 0.68303-0.05779-0.37118 0.99754-0.62905
  -4   4  11   42.27   53.80  64-0.04133-0.59496-0.08733 0.51149 0.99532-0.62000
   4   4  11   99.23   49.20  69-0.03366 0.67739 0.04973 0.37954 0.99820-0.63015
  -4  -4  11  148.68   37.40   7-0.04718-0.59179-0.97426 0.54702-0.22042 0.59207
  -4  -4  11   58.20   58.70  69-0.03302-0.60741 0.06064-0.48831 0.99761-0.62659
   4  -4 -11   82.54   27.60  16-0.05897 0.69643-0.99591 0.56749 0.06840-0.43925
   0  -5 -11 3339.67   72.40  35-0.06720 0.06722-0.80668 0.27322 0.58716-0.95960
   0   5 -11 3389.02   97.10  99 0.02418-0.02417 0.80689-0.27316 0.59021-0.96167
   0   5  11 3188.71   96.00  58-0.05059 0.05060-0.27312 0.80680 0.96065-0.58866
   0  -5  11 2756.37  126.70  76-0.01960 0.01960 0.27404-0.80758 0.96152-0.58943
  -1  -5 -11 1037.09   42.70  35-0.06721-0.09266-0.80842 0.27490 0.58476-0.95700
   1   5 -11 1143.52   60.40  99 0.02521 0.13473 0.81646-0.28309 0.57685-0.94958
  -1   5  11 1115.37   53.60  58-0.05026-0.10959-0.26594 0.79949 0.96268-0.59060
   1  -5  11 1215.86   76.10  75-0.02136 0.18131 0.24758-0.78157 0.96863-0.59688
   1   5  11  929.39   55.80  59-0.04900 0.20907-0.23913 0.77351 0.96975-0.59831
  -1  -5  11 1090.47   76.50  76-0.02061-0.13926 0.25894-0.79258 0.96567-0.59365
   1  -5 -11 1147.04   44.10  34-0.06729 0.22726-0.82886 0.29545 0.55540-0.92794
  -1   5 -11 1188.12   63.10 100 0.02595-0.18576 0.82323-0.28960 0.56711-0.93895
   2   5 -11 2063.35   70.60 101 0.02869 0.29146 0.84754-0.31446 0.52996-0.90342
   2  -5  11 2190.26   78.80  73-0.02609 0.34658 0.17426-0.70943 0.98435-0.61367
  -2  -5 -11 2196.29   73.40  34-0.06730-0.25211-0.83287 0.29896 0.54937-0.92036
  -2   5  11 2500.43   97.10  60-0.04796-0.27157-0.21747 0.75055 0.97489-0.60243
  -2  -5  11 2704.36   95.40  74-0.02406-0.29534 0.20625-0.73903 0.97820-0.60549
  -2   5 -11 2106.84   72.20 102 0.03031-0.34953 0.86141-0.32740 0.50700-0.87786
   2  -5 -11 2408.76   58.70  31-0.06716 0.38703-0.87176 0.33835 0.48530-0.85775
   2   5  11 2267.54  117.40  61-0.04544 0.36530-0.16655 0.70041 0.98498-0.61317
  -3   5  11  821.00   58.50  63-0.04308-0.43594-0.12060 0.65336 0.99177-0.61893
  -3  -5 -11  816.71   54.70  31-0.06709-0.41207-0.87906 0.34517 0.47197-0.84324
   3   5 -11  483.36   73.80 104 0.03443 0.44574 0.89449-0.36142 0.44577-0.81896
   3  -5  11  719.35   69.60  69-0.03302 0.51077 0.06064-0.59210 0.99761-0.62333
  -3   5 -11  852.85   42.90 106 0.03756-0.51593 0.91754-0.38310 0.39587-0.76619
   3   5  11  536.83   72.90  65-0.03914 0.51923-0.04689 0.58106 0.99813-0.62671
  -3  -5  11  889.31   76.50  71-0.03015-0.44925 0.10862-0.64196 0.99363-0.62134
   3  -5 -11  683.80   45.40  27-0.06598 0.54678-0.92919 0.39653 0.36367-0.73743
   0  -6 -11  376.44   55.20  36-0.06703 0.06709-0.78644 0.14630 0.61402-0.98696
   0   6 -11  177.27   62.70  97 0.02196-0.02194 0.78575-0.14532 0.61815-0.98914
   0   6  11  214.72   49.30  62-0.04435 0.04438-0.14513 0.78591 0.98842-0.61675
   0  -6  11  196.51   58.20  72-0.02789 0.02791 0.14554-0.78627 0.98896-0.61725
   1   6 -11  129.46   49.70  98 0.02297 0.13698 0.79549-0.15533 0.60554-0.97832
   1  -6  11   -6.70   48.60  71-0.02955 0.18971 0.11859-0.76013 0.99250-0.62146
  -1  -6 -11   39.95   53.10  37-0.06700-0.09245-0.78364 0.14275 0.61759-0.98543
  -1   6  11  369.06   71.70  62-0.04370-0.11658-0.13244 0.77555 0.99023-0.62042
   1   6  11   -5.19   45.50  63-0.04284 0.20293-0.11593 0.75709 0.99233-0.62099
   1  -6 -11   33.39   38.00  35-0.06720 0.22717-0.80688 0.16670 0.58688-0.95948
  -1  -6  11   12.55   82.60  72-0.02768-0.13085 0.14899-0.78136 0.98845-0.61021
  -1   6 -11  223.28   70.50  99 0.02396-0.18452 0.80482-0.16519 0.59303-0.96885
  -2  -6 -11  -44.37   39.90  35-0.06723-0.25251-0.81178 0.17153 0.58008-0.95227
   2   6 -11  -63.54   59.80 100 0.02618 0.29399 0.82529-0.18531 0.56411-0.93767
   2  -6  11   58.40   50.70  69-0.03344 0.35353 0.05350-0.69453 0.99801-0.62661
  -2   6  11   -2.06   43.70  64-0.04153-0.27812-0.09115 0.73129 0.99497-0.62279
   2   6  11  148.19   50.90  65-0.03934 0.35941-0.05065 0.69162 0.99794-0.62649
  -2  -6  11   12.50   63.40  70-0.03136-0.28789 0.08861-0.72773 0.99557-0.62251
   2  -6 -11    2.25   30.50  33-0.06729 0.38723-0.84805 0.20791 0.52562-0.89824
  -2   6 -11  197.06   55.20 100 0.02746-0.34655 0.83679-0.19617 0.54684-0.91729
   0  -7 -11    7.02   49.10  37-0.06694 0.06698-0.77807 0.03110 0.62460-0.99727
   0   7 -11  124.70   56.00  97 0.02123-0.02123 0.77866-0.03168 0.62709-0.99927
   0   7  11   84.79   50.30  66-0.03826 0.03827-0.03098 0.77817 0.99879-0.62688
   0  -7  11   55.94   69.50  68-0.03477 0.03478 0.03070-0.77810 0.99892-0.62718
  -1  -7 -11   48.62   45.90  37-0.06696-0.09293-0.77959 0.03262 0.62269-0.99514
   1  -7  11  -13.37   74.50  67-0.03624 0.19636 0.00491-0.75293 0.99933-0.62812
  -1   7  11   53.41   49.80  66-0.03778-0.12207-0.02244 0.76943 0.99903-0.62696
   1   7 -11  126.16   74.30  97 0.02104 0.13723 0.77680-0.02948 0.62940-0.99010
   1   7  11   13.22   69.10  67-0.03684 0.19683-0.00572 0.75320 0.99930-0.62765
  -1   7 -11   11.97   67.10  98 0.02255-0.18229 0.79147-0.04446 0.61080-0.98224
   1  -7 -11  -69.67   43.90  36-0.06713 0.22714-0.79734 0.05039 0.59979-0.97256
  -1  -7  11  238.88   88.50  67-0.03573-0.12489 0.01397-0.76563 0.99926-0.63104
  -1   0 -1238275.76  118.20   7-0.04742-0.11243-0.97530 0.97529-0.21572-0.19017
   1   0 -1229932.70 1019.00   5-0.04534 0.20559-0.96532 0.96721-0.25709-0.14911
   1   0  1239007.73  114.00  23-0.06414 0.22404-0.96342 0.96363 0.26022 0.14571
  -1   0  1239766.21  118.90  21-0.06296-0.09685-0.97599 0.97555 0.20852 0.19730
  -2   0 -12   56.90   16.30   4-0.04335-0.27636-0.95458 0.95461-0.29479-0.11112
   2   0 -12   49.17   29.00   2-0.03962 0.35950-0.93162 0.93208-0.36126-0.04466
   2   0  12   60.47   21.60  27-0.06627 0.38673-0.92019 0.92198 0.38582 0.02012
  -2   0  12   38.30   22.30  24-0.06449-0.25517-0.95851 0.95836 0.27766 0.12822
   3   0  12 7732.57 -134.90  34-0.06727 0.54731-0.82035 0.82108 0.56789-0.16213
  -3   0  1211918.72 -276.20 102 0.02972-0.50806 0.85640-0.85436 0.51546-0.10930
   4   0  12  153.37   25.80  46-0.06277 0.70273-0.58666 0.58712 0.80740-0.40181
   4   0  12  158.15   32.30  94 0.01579 0.62578 0.72344-0.72596 0.69020-0.28529
  -4   0  12  246.65   23.50  36-0.06714-0.57139-0.79941 0.79819 0.59703-0.19083
  -4   0  12  407.63   41.40  93 0.01241-0.65191 0.68706-0.68717 0.72649-0.32064
   0   1  1213474.48   77.10  30-0.06694 0.06694-0.89004 0.99674 0.45094-0.04504
   0  -1  1214653.69  133.30 104 0.03406-0.03406 0.89164-0.99838 0.45146-0.04556
  -1   1  12 6206.57   78.10  30-0.06698-0.09286-0.88798 0.99447 0.45499-0.04907
  -1  -1 -12 6147.16   73.70  15-0.05789-0.10198-0.99766 0.89109 0.03625-0.44222
   1  -1  12 6137.49   66.50  14-0.05685 0.21654-0.99836 0.89101 0.00660 0.39901
   1  -1  12 6399.53  107.70 103 0.03285 0.12712 0.88220-0.98983 0.46974-0.06389
   1   1  12 6191.43   90.70  32-0.06723 0.22709-0.86243 0.96915 0.50168-0.09578
  -1  -1  12 6202.28   83.70  13-0.05526-0.10458-0.99782 0.89097-0.03603 0.44186
  -1  -1  12 6167.52  123.40 103 0.03161-0.19131 0.87214-0.97808 0.48824-0.08228
   1  -1 -12 6046.69   71.00  14-0.05632 0.21615-0.99838 0.89160-0.00796-0.39791
  -2  -1 -1210054.24  121.80  13-0.05525-0.26439-0.99781 0.89086-0.03638-0.36942
   2  -1  1210463.91  196.10  19-0.06088 0.38059-0.98955 0.88285 0.13071 0.27520
   2  -1  1210243.30  148.50 101 0.02757 0.29261 0.83774-0.94597 0.54538-0.13970
  -2   1  1210866.23  133.00  32-0.06727-0.25240-0.85492 0.96152 0.51437-0.10846
   2   1  12 9973.94   66.90  36-0.06710 0.38690-0.79344 0.90038 0.60494-0.19909
   2  -1 -1210674.31  138.20  10-0.05170 0.37139-0.99107 0.88431-0.12294-0.28295
  -2  -1  1210142.60   66.60  15-0.05789-0.26194-0.99766 0.89140 0.03625 0.36984
  -2  -1  12 9909.95  146.20  99 0.02536-0.34465 0.81781-0.92342 0.57493-0.16883
  -3  -1 -12 5377.69   98.40   8-0.04888-0.43079-0.98150 0.87502-0.18514-0.22082
   3  -1  12 5907.60   88.60  25-0.06547 0.54522-0.94135 0.83494 0.33101 0.07492
   3  -1  12 5373.16  105.50  95 0.01669 0.46419 0.73282-0.84193 0.68022-0.27511
  -3   1  12 5244.31  131.00  37-0.06697-0.41174-0.78067 0.88557 0.62134-0.21500
   3   1  12 5383.88  120.50  43-0.06473 0.54437-0.65811 0.76494 0.75014-0.34429
  -3  -1  12 5319.64   73.00  20-0.06186-0.41724-0.98422 0.87657 0.16577 0.23987
  -3  -1  12 5783.40  124.50  94 0.01463-0.49388 0.71107-0.81728 0.70297-0.29689
   3  -1 -12 5207.32   80.70   4-0.04288 0.52303-0.95188 0.84612-0.30346-0.10256
   4  -1  12 1181.30   44.90  37-0.06692 0.70782-0.77599 0.67069 0.62719-0.22175
   4  -1  12 1115.01   40.90  85-0.00297 0.64389 0.50419-0.61233 0.86359-0.45876
  -4   1  12 1332.25   43.00  44-0.06384-0.57439-0.62379 0.72901 0.77898-0.37231
  -4   1  12  965.99   44.90 101 0.02804-0.66623 0.84186-0.73382 0.53896-0.13282
   4   1  12 1226.07   50.00  53-0.05618 0.69542-0.40159 0.50818 0.91409-0.50807
   4   1  12 1250.11   38.70 105 0.03529 0.60514 0.90105-0.79568 0.43228-0.02642
  -4  -1  12 1407.35   43.80  27-0.06603-0.57218-0.92765 0.81923 0.36756 0.03826
  -4  -1  12 1050.81   57.70  86-0.00057-0.63492 0.53470-0.63748 0.84504-0.43645
   0  -2 -12 1300.02   38.30  23-0.06390 0.06389-0.96633 0.75283 0.24926-0.65510
   0   2  12 1405.32   36.50  38-0.06661 0.06662-0.75268 0.96618 0.65501-0.24913
   0  -2  12 1255.36   46.70  96 0.01880-0.01880 0.75444-0.96800 0.65610-0.25024
   0  -2  12 1356.65   36.90   6-0.04579 0.04581-0.96760 0.75460-0.24831 0.65458
   1  -2  12 4098.55   53.20   7-0.04794 0.20776-0.97759 0.76405-0.20498 0.61079
   1  -2  12 4287.46   81.20  95 0.01725 0.14271 0.73859-0.95272 0.67394-0.26824
  -1  -2 -12 4360.76   70.30  22-0.06373-0.09622-0.96833 0.75562 0.24140-0.64791
  -1   2  12 4425.78   80.40  38-0.06658-0.09325-0.75005 0.96321 0.65802-0.25205
   1   2  12 4278.44   81.70  40-0.06601 0.22594-0.71671 0.93046 0.69424-0.28844
  -1  -2  12 4506.59   62.60   6-0.04629-0.11353-0.97008 0.75649-0.23831 0.64407
   1  -2 -12 4371.52   59.60  21-0.06271 0.22263-0.97814 0.76497 0.19827-0.60437
  -1  -2  12 4085.15   92.80  95 0.01659-0.17641 0.73176-0.94500 0.68136-0.27540
  -2  -2 -12 3960.17   68.20  20-0.06225-0.25742-0.98161 0.76811 0.18046-0.58630
   2  -2  12 4063.79   70.70  11-0.05281 0.37238-0.99389 0.78018-0.09694 0.50265
   2  -2  12 4028.13   86.00  92 0.01151 0.30865 0.67723-0.89199 0.73568-0.33028
  -2   2  12 4250.54   80.80  40-0.06583-0.25369-0.70769 0.92045 0.70345-0.29734
   2   2  12 3704.96   67.60  44-0.06411 0.38409-0.63409 0.84811 0.77060-0.36495
   2  -2 -12 3883.94   62.90  17-0.05966 0.37949-0.99416 0.78100 0.08994-0.49601
  -2  -2  12 4094.11   79.90   8-0.04957-0.27025-0.98412 0.77102-0.17047 0.57662
  -2  -2  12 3833.04   87.50  92 0.01076-0.33021 0.66893-0.88166 0.74325-0.33709
  -3  -2 -12 6491.63  130.40  16-0.05841-0.42100-0.99695 0.78328 0.05167-0.45742
   3  -2  12 6824.78  116.50  17-0.05964 0.53905-0.99421 0.78058 0.08942 0.31640
   3  -2  12 7014.63  145.60  87 0.00057 0.48007 0.54890-0.76407 0.83589-0.43097
  -3   2  12 6596.98   87.90  45-0.06353-0.41574-0.61270 0.82556 0.78776-0.38160
  -3  -2  12 6767.85  113.40  87 0.00111-0.47983 0.55558-0.76766 0.83146-0.42482
   3   2  12 6512.66   94.10  50-0.05953 0.53916-0.48910 0.70262 0.87019-0.46436
  -3  -2  12 7071.33  120.50  12-0.05481-0.42461-0.99736 0.78369-0.04761 0.45336
   3  -2 -12 6606.28  107.80  11-0.05342 0.53297-0.99519 0.78175-0.08214-0.32376
  -4  -2 -12 1302.69   39.60   8-0.04976-0.58960-0.98482 0.77134-0.16627-0.23961
   4  -2  12 1286.23   34.80  27-0.06625 0.70591-0.92111 0.70795 0.38361 0.02230
   4  -2  12 1362.37   54.10  77-0.01795 0.65905 0.29851-0.51326 0.95424-0.54975
  -4   2  12 1245.36   45.70  52-0.05748-0.58152-0.43447 0.64744 0.89885-0.49260
  -4  -2  12 1352.34   38.80  19-0.06129-0.57768-0.98753 0.77352 0.14501 0.26069
   4   2  12 1262.30   62.20  59-0.04909 0.68922-0.24096 0.45486 0.96929-0.56399
  -4  -2  12 1117.60   54.60  80-0.01299-0.62451 0.36967-0.58133 0.92907-0.52158
   4  -2 -12 1166.10   38.20   3-0.04153 0.67985-0.94379 0.72921-0.32793-0.07785
   0  -3 -12  316.48  -25.30  28-0.06637 0.06637-0.91676 0.59661 0.39390-0.79978
   0   3 -12  795.94   46.30 106 0.03759-0.03757 0.91775-0.59743 0.39539-0.80104
   0   3  12  935.13   51.90  45-0.06308 0.06307-0.59710 0.91707 0.79968-0.39371
   0  -3  12  874.60   70.00  89 0.00467-0.00467 0.59862-0.91864 0.80102-0.39507
  -1  -3 -12 1706.89   44.10  28-0.06636-0.09334-0.91722 0.59613 0.39282-0.79745
   1  -3  12 1809.83   49.30   2-0.04024 0.20098-0.93567 0.61827-0.35057 0.75983
   1  -3  12 1719.33   73.10  88 0.00275 0.15738 0.57554-0.89722 0.81777-0.41258
  -1   3  12 1926.90   66.30  46-0.06295-0.09689-0.59264 0.91266 0.80301-0.39706
   1   3  12 1664.98   47.30  47-0.06189 0.22191-0.55841 0.87918 0.82725-0.42165
  -1  -3  12 1644.39   42.30   1-0.03834-0.12149-0.92301 0.60277-0.38286 0.78861
  -1  -3  12 1597.41   58.40  88 0.00293-0.16269 0.57781-0.89744 0.81616-0.41003
   1  -3 -12 1714.06   40.40  26-0.06578 0.22564-0.93436 0.61427 0.35020-0.75615
   2  -3  1211809.79  184.80   5-0.04474 0.36442-0.96219 0.64202-0.26868 0.67455
   2  -3  1212323.81  202.40  85-0.00271 0.32296 0.50751-0.82903 0.86164-0.45651
  -2  -3 -1211565.86  136.50  26-0.06558-0.25407-0.93898 0.61871 0.33767-0.74341
  -2   3  1212720.67  167.60  47-0.06149-0.25802-0.54600 0.86551 0.83552-0.42931
   2   3  1212244.80  159.00  50-0.05902 0.37900-0.47499 0.79570 0.87801-0.47246
  -2  -3  1211798.06   83.60   3-0.04176-0.27788-0.94520 0.62493-0.32381 0.72955
  -2  -3  1212531.92  238.60  85-0.00215-0.31730 0.51469-0.83416 0.85737-0.45111
   2  -3 -1211958.27  133.70  23-0.06403 0.38371-0.96469 0.64450 0.25550-0.66135
  -3  -3 -12 1436.69  -42.40  22-0.06345-0.41594-0.97125 0.65087 0.22945-0.63511
   3  -3  12 2734.23   89.80  80-0.01269 0.49326 0.37388-0.69544 0.92739-0.52256
   3  -3  12 2919.19   78.20  10-0.05239 0.53231-0.99288 0.67321-0.10700 0.51326
  -3   3  12 2400.47   74.60  51-0.05797-0.42090-0.44709 0.76598 0.89261-0.48592
  -3  -3  12 2954.57  103.20  81-0.01051-0.46824 0.40421-0.72309 0.91461-0.50783
   3   3  12 2819.14   74.70  55-0.05328 0.53358-0.33293 0.65397 0.94145-0.53629
   3  -3 -12 1969.01  -63.40  17-0.05998 0.53942-0.99313 0.67286 0.10044-0.50624
  -4  -3 -12 1007.00   37.00  16-0.05818-0.58142-0.99731 0.67740 0.04459-0.45064
   4  -3  12  702.04   42.80  19-0.06147 0.70081-0.98657 0.66638 0.15131 0.25457
   4  -3  12  748.65   51.40  72-0.02834 0.66868 0.13831-0.45909 0.98998-0.58490
  -4   3  12  894.37   47.60  58-0.05045-0.58779-0.27012 0.58909 0.96150-0.55451
   4   3  12  996.97   62.90  63-0.04254 0.68368-0.11022 0.43145 0.99300-0.58859
  -4  -3  12 1198.50   49.20  13-0.05505-0.58419-0.99762 0.67730-0.04142 0.44720
  -4  -3  12  842.22   64.80  75-0.02284-0.61651 0.22501-0.54510 0.97409-0.56814
   4  -3 -12 1090.09   38.60  10-0.05123 0.69085-0.98970 0.66977-0.13370-0.27229
   0  -4 -1214225.67  182.40  31-0.06718 0.06718-0.87040 0.44359 0.48774-0.89371
   0   4 -1214651.00  191.90 103 0.03154-0.03154 0.87163-0.44479 0.48916-0.89508
   0   4  1214811.29  246.90  51-0.05787 0.05785-0.44447 0.87101 0.89392-0.48785
   0  -4  1213901.55  248.10  83-0.00754 0.00754 0.44445-0.87165 0.89577-0.49007
  -1  -4 -12 6383.58   88.80  31-0.06716-0.09268-0.87202 0.44513 0.48485-0.89066
   1   4 -12 6456.47  119.10 103 0.03242 0.12752 0.87875-0.45224 0.47617-0.88273
   1  -4  12 5623.49  152.20  82-0.00922 0.16912 0.42174-0.84882 0.90667-0.50091
  -1   4  12 6277.23  119.30  52-0.05760-0.10231-0.43739 0.86469 0.89743-0.49178
   1   4  12 6688.86  117.70  53-0.05641 0.21643-0.40749 0.83497 0.91147-0.50595
  -1  -4  12 6818.35  131.60  82-0.00879-0.15099 0.42765-0.85407 0.90390-0.49775
  -1   4 -12 6056.22  105.20 104 0.03337-0.19306 0.88625-0.45902 0.46201-0.86719
   1  -4 -12 6364.55   95.90  30-0.06694 0.22684-0.89027 0.46352 0.45048-0.85656
   2   4 -12 2363.61   72.80 105 0.03580 0.28416 0.90487-0.47847 0.42418-0.83085
   2  -4  12 2147.24   78.10  79-0.01437 0.33458 0.35017-0.77819 0.93658-0.53148
  -2  -4 -12 2243.75   61.40  29-0.06686-0.25287-0.89523 0.46843 0.44056-0.84654
  -2   4  12 1968.71   69.80  53-0.05575-0.26373-0.39116 0.81731 0.91863-0.51229
   2  -4 -12 2094.67   67.20  27-0.06605 0.38587-0.92712 0.50042 0.36891-0.77504
   2   4  12 2077.07   76.80  56-0.05308 0.37320-0.32829 0.75598 0.94308-0.53778
  -2  -4  12 2103.61   83.90  80-0.01316-0.30664 0.36736-0.79444 0.92999-0.52424
  -3  -4 -12 3622.36   78.70  26-0.06578-0.41356-0.93418 0.50708 0.35069-0.75620
  -3   4  12 3753.02   88.10  57-0.05148-0.42762-0.29254 0.71862 0.95487-0.54838
   3  -4  12 4067.95   80.90   5-0.04558 0.52504-0.96656 0.53962-0.25235 0.65813
   3  -4  12 3793.09  100.30  74-0.02312 0.50370 0.22068-0.64885 0.97507-0.57033
  -3  -4  12 3781.17  111.50  76-0.02011-0.45879 0.26651-0.69236 0.96362-0.55692
   3  -4 -12 3876.13   73.30  22-0.06356 0.54321-0.97015 0.54339 0.23403-0.64004
   3   4  12 3678.78  111.20  60-0.04689 0.52810-0.19568 0.62448 0.97955-0.57544
  -3  -4  12 3581.69   74.50   3-0.04135-0.43791-0.94267 0.51548-0.33114 0.73655
   4  -4  12  271.63   18.90  13-0.05547 0.69501-0.99799 0.57125-0.03063 0.43662
  -4  -4 -12  293.39   36.40  21-0.06260-0.57758-0.97903 0.55292 0.19386-0.60056
   4  -4  12  345.74   50.80  68-0.03556 0.67342 0.01697-0.44281 0.99922-0.59197
  -4   4  12  280.68   52.30  63-0.04352-0.59411-0.12897 0.55416 0.99069-0.58305
  -4  -4  12   99.82   27.00   8-0.04912-0.59012-0.98241 0.55540-0.18017 0.58590
   4  -4 -12  301.12   23.30  15-0.05759 0.69703-0.99796 0.57114 0.02762-0.43354
   4   4  12  180.21   59.00  67-0.03711 0.67618-0.01049 0.43712 0.99926-0.59305
  -4  -4  12  323.95   66.60  71-0.03023-0.60854 0.10741-0.53370 0.99376-0.58724
   0  -5 -12 1656.00   63.60  33-0.06730 0.06735-0.83630 0.30293 0.54412-0.95063
   0   5 -12 2067.53   85.50 100 0.02748-0.02748 0.83697-0.30341 0.54656-0.95246
   0   5  12 1797.83   81.50  57-0.05190 0.05194-0.30175 0.83588 0.95197-0.54644
   0  -5  12 1547.18   98.70  77-0.01761 0.01761 0.30343-0.83706 0.95269-0.54683
   1   5 -12  665.20   51.50 101 0.02836 0.13159 0.84467-0.31135 0.53453-0.94114
  -1   5  12  732.13   53.60  57-0.05165-0.10819-0.29620 0.82963 0.95373-0.54774
  -1  -5 -12  672.91   56.90  33-0.06730-0.09257-0.83767 0.30417 0.54202-0.94811
   1  -5  12  400.66   74.00  76-0.01930 0.17926 0.27848-0.81252 0.96025-0.55468
   1   5  12  729.54   48.40  58-0.05042 0.21051-0.26929 0.80376 0.96174-0.55646
  -1  -5  12  660.05   59.60  77-0.01860-0.14123 0.28894-0.82235 0.95717-0.55117
   1  -5 -12  713.56   34.30  32-0.06727 0.22718-0.85587 0.32239 0.51280-0.91894
  -1   5 -12  751.27   64.90 101 0.02913-0.18887 0.85132-0.31759 0.52384-0.92923
  -2  -5 -12  739.83   38.80  32-0.06724-0.25244-0.86059 0.32700 0.50485-0.91068
   2   5 -12  652.04   52.70 103 0.03161 0.28851 0.87214-0.33906 0.48824-0.89543
   2  -5  12  468.69   52.80  74-0.02388 0.34422 0.20898-0.74392 0.97763-0.57279
  -2   5  12  905.72   64.30  58-0.04948-0.27009-0.24937 0.78254 0.96714-0.56096
  -2  -5  12  815.21   66.30  75-0.02206-0.29735 0.23700-0.76980 0.97126-0.56480
   2   5  12  999.51   80.90  60-0.04676 0.36796-0.19300 0.72953 0.98008-0.57653
   2  -5 -12  976.95   52.60  30-0.06687 0.38684-0.89453 0.36122 0.44197-0.84845
  -3  -5 -12  175.50   32.10  29-0.06674-0.41262-0.90135 0.36762 0.42792-0.83343
   3   5 -12   45.02   40.50 106 0.03705 0.44323 0.91393-0.38100 0.40418-0.81141
   3  -5  12  182.24   29.70   2-0.04043 0.51989-0.93688 0.40325-0.34730 0.75306
   3  -5  12  193.29   41.50  70-0.03154 0.51298 0.08566-0.62151 0.99582-0.59210
  -3   5  12  208.64   57.40  62-0.04507-0.43328-0.15928 0.69092 0.98620-0.57870
   3   5  12   58.07   42.20  64-0.04097 0.52147-0.08073 0.61540 0.99589-0.59106
  -3  -5  12   32.09   49.90  72-0.02790-0.45055 0.14537-0.67726 0.98898-0.58165
   3  -5 -12  121.01   44.50  25-0.06525 0.54728-0.94579 0.41410 0.31814-0.72733
   0  -6 -12  104.15   48.50  35-0.06724 0.06728-0.81471 0.17453 0.57596-0.98235
   0   6 -12  297.31   59.60  99 0.02510-0.02510 0.81545-0.17519 0.57828-0.98421
   0   6  12  478.25   60.20  61-0.04580 0.04583-0.17368 0.81456 0.98374-0.57827
   0  -6  12  382.79   65.10  73-0.02608 0.02610 0.17443-0.81511 0.98432-0.57871
   1  -6  12 2106.67   83.50  72-0.02771 0.18787 0.14847-0.79003 0.98853-0.58358
  -1  -6 -12 1854.00   83.40  35-0.06722-0.09207-0.81097 0.16967 0.58122-0.98119
   1   6 -12 1836.90   83.30 100 0.02601 0.13406 0.82380-0.18383 0.56628-0.97377
  -1   6  12 2361.21  103.40  61-0.04533-0.11474-0.16429 0.80608 0.98537-0.58057
   1   6  12 1700.02   81.20  62-0.04433 0.20445-0.14478 0.78608 0.98847-0.58333
  -1   6 -12 1751.82   80.90 100 0.02657-0.18631 0.82880-0.18842 0.55891-0.96425
  -1  -6  12 1610.65   94.10  73-0.02672-0.13302 0.16428-0.80391 0.98605-0.57968
   1  -6 -12 2057.08   72.30  34-0.06730 0.22708-0.83311 0.19278 0.54900-0.95461
   2  -6  12  153.89   61.10  70-0.03171 0.35239 0.08271-0.72498 0.99607-0.59180
  -2   6  12  146.72   49.70  63-0.04317-0.27639-0.12233 0.76222 0.99155-0.58535
  -2  -6 -12  110.97   50.10  34-0.06730-0.25166-0.83583 0.19499 0.54484-0.94797
   2   6 -12  191.09   68.20 102 0.02948 0.29239 0.85435-0.21567 0.51887-0.93166
   2   6  12  105.06   59.90  64-0.04093 0.36120-0.07986 0.72128 0.99597-0.59100
  -2  -6  12   34.90   71.20  71-0.02960-0.28968 0.11773-0.75689 0.99260-0.58584
  -2   6 -12  115.33   51.10 102 0.03042-0.34968 0.86229-0.22174 0.50549-0.91025
   2  -6 -12   60.96   31.40  31-0.06717 0.38708-0.87125 0.23111 0.48622-0.89261
   0  -7 -12   78.65   69.20  35-0.06722 0.06780-0.81097 0.06453 0.58122-0.99561
   0   7 -12  140.08   69.90  98 0.02382-0.02376 0.80349-0.05636 0.59484-0.99813
   0   7  12  275.71   55.90  65-0.03973 0.03975-0.05779 0.80506 0.99754-0.59185
   0  -7  12   64.47   78.80  69-0.03319 0.03321 0.05768-0.80510 0.99778-0.59220
  -1  -7 -12  427.09   46.20  35-0.06719-0.09270-0.80637 0.05941 0.58759-0.99392
   1   7 -12  291.92   62.00  99 0.02482 0.13514 0.81283-0.06590 0.58197-0.98863
   1  -7  12  266.22   67.60  68-0.03462 0.19464 0.03331-0.78097 0.99885-0.59346
  -1   7  12  531.71   68.10  65-0.03930-0.12054-0.04996 0.79686 0.99798-0.59202
   1   7  12  281.74   66.20  66-0.03836 0.19832-0.03289 0.78029 0.99872-0.59314
  -1  -7  12  762.63   99.50  69-0.03302-0.12568 0.06064-0.80027 0.99761-0.58633
  -1   7 -12  471.96   88.80  99 0.02550-0.18556 0.81916-0.07225 0.57300-0.97997
   1  -7 -12  704.93   59.60  34-0.06727 0.22687-0.82148 0.07442 0.56625-0.97108
   0   0 -13 4373.66 -105.00   7-0.04715 0.04717-0.97409 0.97466-0.22117-0.21868
   0   0  13  716.83  -34.50  21-0.06306 0.06285-0.97512 0.97199 0.21252 0.22647
  -1   0 -13  420.64   28.60   6-0.04662-0.11323-0.97163 0.97159-0.23187-0.20784
   1   0 -13  417.26   25.10   5-0.04491 0.20477-0.96311 0.96315-0.26532-0.17441
  -1   0  13  453.74   25.80  22-0.06336-0.09647-0.97217 0.97202 0.22554 0.21415
   1   0  13  429.76   30.50  23-0.06416 0.22295-0.96310 0.95854 0.26140 0.17748
  -2   0 -13  864.47   32.80   4-0.04287-0.27669-0.95179 0.95130-0.30374-0.13592
  -2   0  13  883.04   27.30  24-0.06470-0.25491-0.95537 0.95503 0.28823 0.15144
   2   0  13  932.26   32.80  27-0.06625 0.38584-0.92112 0.92086 0.38360 0.05611
   3   0  13 8897.27  146.90  34-0.06729 0.54704-0.82876 0.82905 0.55554-0.11586
  -3   0  13 8894.16  128.10 102 0.03017-0.50857 0.86018-0.85823 0.50910-0.06922
   3   0  13 9235.21  159.80 104 0.03428 0.44607 0.89336-0.89496 0.44803-0.00832
  -3   0  13 9145.98  146.30  28-0.06655-0.41310-0.90997 0.91018 0.40931 0.03042
   4   0  13  405.60   31.40  44-0.06382 0.70379-0.62333 0.62382 0.77935-0.33989
   4   0  13  348.05   32.40  95 0.01798 0.62333 0.74615-0.74844 0.66554-0.22650
  -4   0  13  461.83   31.40  35-0.06719-0.57249-0.80598 0.80636 0.58812-0.14847
  -4   0  13  492.73   42.70  94 0.01480-0.65273 0.71290-0.71129 0.70111-0.26079
   0  -1 -1386821.22  965.10  14-0.05691 0.05694-0.99834 0.89207 0.00835-0.44829
   0   1  1382297.91  184.40  30-0.06693 0.06692-0.89106 0.99772 0.44892-0.00919
   0  -1  1384617.93  184.90  14-0.05626 0.05626-0.99837 0.89164-0.00953 0.44925
   0  -1  1386730.45  236.60 104 0.03418-0.03418 0.89258-0.99937 0.44959-0.00986
  -1  -1 -13 2138.41   38.70  14-0.05666-0.10317-0.99839 0.89151 0.00146-0.44110
  -1   1  13 2325.22   47.70  30-0.06696-0.09287-0.88909 0.99559 0.45281-0.01308
   1  -1  13 2052.01   48.30  15-0.05803 0.21782-0.99750 0.89053 0.04022 0.39939
   1  -1  13 2189.59   63.20 104 0.03313 0.12678 0.88440-0.99159 0.46556-0.02584
  -1  -1  13 2171.72   38.30  14-0.05657-0.10328-0.99840 0.89162-0.00116 0.44085
  -1  -1  13 2317.32   67.70 103 0.03191-0.19160 0.87458-0.98048 0.48382-0.04406
   1  -1 -13 2019.72   39.50  13-0.05512 0.21496-0.99769 0.89094-0.03969-0.40002
   1   1  13 2007.24   46.20  32-0.06722 0.22737-0.86405 0.97201 0.49889-0.05924
  -2  -1 -13  708.67   26.30  12-0.05401-0.26566-0.99624 0.88943-0.06773-0.37195
   2  -1  13  648.07   36.70 101 0.02824 0.29184 0.84365-0.95158 0.53615-0.09655
  -2   1  13  598.83   25.80  32-0.06725-0.25235-0.85890 0.96525 0.50770-0.06795
   2  -1  13  601.24   30.30  19-0.06159 0.38151-0.98586 0.87964 0.15586 0.28403
  -2  -1  13  593.44   27.70  16-0.05883-0.26084-0.99620 0.88937 0.06420 0.37547
   2  -1 -13  496.86   25.20   9-0.05069 0.37034-0.98802 0.88117-0.14575-0.29393
   2   1  13  569.78   36.30  35-0.06717 0.38695-0.80234 0.90925 0.59307-0.15338
  -2  -1  13  643.07   48.60 100 0.02598-0.34553 0.82346-0.92977 0.56678-0.12700
  -3  -1 -13 6685.51   86.20   7-0.04797-0.43150-0.97773 0.87086-0.20430-0.23538
   3  -1  13 6700.46  130.00  26-0.06559 0.54517-0.93882 0.83215 0.33811 0.10162
   3  -1  13 6632.07  117.10  96 0.01834 0.46226 0.74981-0.85846 0.66140-0.22218
  -3   1  13 6661.78  104.10  36-0.06704-0.41248-0.78785 0.89449 0.61220-0.17246
   3   1  13 6323.92  112.60  42-0.06510 0.54649-0.67345 0.78280 0.73636-0.29763
  -3  -1  13 6976.21   99.50  20-0.06243-0.41695-0.98030 0.87323 0.18739 0.25224
  -3  -1  13 6772.24  134.70  95 0.01632-0.49487 0.72892-0.83395 0.68440-0.24418
   3  -1 -13 6283.57  110.90   3-0.04249 0.52212-0.94962 0.84302-0.31051-0.12923
   4  -1  13  479.67   25.80  36-0.06712 0.70607-0.79686 0.68970 0.60042-0.16059
   4  -1  13  528.33   37.70  87 0.00064 0.64022 0.54976-0.65796 0.83532-0.39650
  -4   1  13  554.57   41.40  43-0.06439-0.57535-0.64460 0.75174 0.76181-0.32227
  -4   1  13  473.23   40.00 101 0.02915-0.66566 0.85151-0.74158 0.52353-0.08344
  -4  -1  13  474.10   25.90  27-0.06614-0.57286-0.92444 0.81714 0.37555 0.06413
  -4  -1  13  333.97   37.80  87 0.00135-0.63917 0.55847-0.66353 0.82952-0.38883
   4   1  13  585.77   36.40  51-0.05796 0.69807-0.44689 0.55416 0.89271-0.45344
   4   1  13  497.37   33.30 105 0.03516 0.60591 0.90005-0.79552 0.43437 0.00537
   0  -2 -1312456.75   77.60  21-0.06280 0.06282-0.97733 0.76407 0.20220-0.64207
   0  -2  1312269.99  109.50   7-0.04800 0.04799-0.97787 0.76423-0.20362 0.64316
   0   2  1311697.93  189.70  38-0.06675 0.06680-0.76258 0.97672 0.64344-0.20386
   0  -2  1311775.65  162.00  96 0.01983-0.01984 0.76481-0.97870 0.64395-0.20433
  -1  -2 -13 3227.87   61.40  21-0.06267-0.09719-0.97845 0.76511 0.19673-0.63652
  -1   2  13 3103.05   59.80  38-0.06673-0.09311-0.76086 0.97417 0.64548-0.20572
   1  -2  13 3348.24   63.10   9-0.05009 0.20999-0.98599 0.77276-0.15908 0.59895
   1  -2  13 2850.76   77.70  96 0.01853 0.14135 0.75171-0.96531 0.65923-0.21954
   1   2  13 3401.24   67.00  39-0.06636 0.22534-0.73631 0.94607 0.67338-0.23276
  -1  -2  13 3204.39   71.90   8-0.04855-0.11132-0.98013 0.76683-0.19230 0.63212
  -1  -2  13 3036.61   80.40  95 0.01795-0.17754 0.74584-0.95785 0.66589-0.22583
   1  -2 -13 3506.82   68.30  19-0.06130 0.22222-0.98748 0.77780 0.14536-0.58791
   2  -2  1311454.75  183.70  12-0.05445 0.37409-0.99690 0.78335-0.05677 0.49641
   2  -2  1310707.63  187.20  93 0.01312 0.30706 0.69482-0.90964 0.71906-0.27976
  -2  -2 -1311067.64  170.20  19-0.06105-0.25865-0.98876 0.77532 0.13646-0.57618
  -2   2  1310342.64  150.00  40-0.06611-0.25335-0.72239 0.93495 0.68832-0.24836
   2   2  1311586.99   87.40  43-0.06463 0.38459-0.65393 0.86794 0.75379-0.31428
   2  -2 -1310995.76   72.00  16-0.05848 0.37813-0.99684 0.78330 0.05376-0.49341
  -2  -2  1310536.37  162.10  10-0.05141-0.26835-0.99023 0.77699-0.12960 0.56946
  -2  -2  1311422.18  208.90  92 0.01231-0.33168 0.68597-0.89851 0.72752-0.28751
   3  -2  13 7286.97  129.80  18-0.06049 0.53989-0.99125 0.77759 0.11735 0.32228
  -3  -2 -13 7270.27  129.70  15-0.05711-0.42240-0.99827 0.78476 0.01389-0.45357
   3  -2  13 6767.83  122.50  88 0.00283 0.47822 0.57659-0.79250 0.81703-0.37849
  -3   2  13 7211.52   96.20  44-0.06415-0.41500-0.63550 0.84811 0.76943-0.32938
  -3  -2  13 6597.77  120.40  88 0.00318-0.48179 0.58079-0.79266 0.81404-0.37358
   3   2  13 7304.76  157.10  49-0.06055 0.54072-0.51805 0.73230 0.85321-0.41395
  -3  -2  13 7076.68  121.70  14-0.05619-0.42361-0.99836 0.78538-0.01138 0.45137
   3  -2 -13 7067.68  112.30  10-0.05230 0.53200-0.99266 0.77946-0.10903-0.33079
  -4  -2 -13 1374.79   45.40   8-0.04864-0.59086-0.98053 0.76723-0.19026-0.24950
   4  -2  13 1181.59   38.70  27-0.06628 0.70558-0.92012 0.70659 0.38598 0.05374
   4  -2  13 1175.72   51.10  79-0.01394 0.65466 0.35628-0.57085 0.93427-0.49554
  -4   2  13 1165.35   55.40  50-0.05925-0.57778-0.48126 0.69183 0.87457-0.43306
   4   2  13 1315.83   56.40  57-0.05110 0.69314-0.28420 0.49952 0.95740-0.51965
  -4  -2  13 1519.18   45.60  20-0.06190-0.57708-0.98396 0.76998 0.16730 0.27223
  -4  -2  13 1405.25   66.30  81-0.00985-0.62621 0.41322-0.62331 0.91058-0.46835
   4  -2 -13 1146.69   44.20   2-0.04078 0.68052-0.93913 0.72606-0.34114-0.09863
   0  -3 -13 2950.64   51.20  26-0.06570 0.06570-0.93619 0.61603 0.34529-0.78498
   0  -3  13 3131.78   56.70   2-0.04048 0.04048-0.93724 0.61701-0.34632 0.78592
   0   3  13 3171.32   88.30  45-0.06362 0.06363-0.61590 0.93622 0.78525-0.34560
   0  -3  13 2719.34   88.20  89 0.00619-0.00620 0.61661-0.93754 0.78724-0.34781
  -1  -3 -13 5416.11   79.70  26-0.06564-0.09419-0.93758 0.61730 0.34152-0.78107
   1  -3  13 5499.17   91.50   3-0.04245 0.20220-0.94933 0.62889-0.31139 0.75074
   1  -3  13 4679.41   99.10  89 0.00469 0.15523 0.59893-0.91947 0.80079-0.36122
  -1   3  13 5223.43   91.10  45-0.06352-0.09632-0.61238 0.93244 0.78801-0.34825
   1   3  13 5778.43   93.90  46-0.06258 0.22256-0.58031 0.90096 0.81199-0.37247
  -1  -3  13 5348.90  110.90   3-0.04116-0.11872-0.94153 0.62156-0.33440 0.77432
  -1  -3  13 4707.55  106.30  89 0.00472-0.16436 0.59926-0.91822 0.80054-0.36035
   1  -3 -13 5408.86   91.80  24-0.06496 0.22497-0.95115 0.63146 0.30181-0.74206
  -2  -3 -13 4897.40   86.10  24-0.06474-0.25488-0.95476 0.63444 0.29023-0.72974
   2  -3  13 4502.69   91.70  86-0.00064 0.32089 0.53382-0.85542 0.84560-0.40656
   2  -3  13 4695.63  121.30   7-0.04709 0.36675-0.97383 0.65362-0.22236 0.66202
  -2   3  13 4600.88  103.70  47-0.06222-0.25736-0.56861 0.88832 0.82025-0.38034
   2   3  13 4612.35   98.90  49-0.05998 0.37996-0.50158 0.82231 0.86303-0.42361
  -2  -3  13 4547.62   99.30  86-0.00027-0.31920 0.53838-0.85788 0.84270-0.40268
  -2  -3  13 4513.57   86.40   5-0.04425-0.27549-0.95960 0.63955-0.27788 0.71770
   2  -3 -13 4404.98   93.50  21-0.06306 0.38258-0.97512 0.65468 0.21252-0.65194
   3  -3  13 3059.38   86.10  81-0.01009 0.49066 0.40993-0.73159 0.91206-0.47332
  -3  -3 -13 2740.62   64.60  20-0.06234-0.41728-0.98096 0.66093 0.18392-0.62374
   3  -3  13 2499.76   73.50  12-0.05389 0.53295-0.99605 0.67528-0.07061 0.50986
  -3   3  13 2770.61   77.40  50-0.05893-0.42091-0.47264 0.79332 0.87928-0.43986
  -3  -3  13 2724.18   81.50  82-0.00825-0.47026 0.43488-0.75334 0.90045-0.45970
   3  -3 -13 2715.51   63.10  16-0.05881 0.53831-0.99625 0.67604 0.06351-0.50318
   3   3  13 2705.24   72.80  54-0.05467 0.53560-0.36530 0.68719 0.92928-0.49081
  -3  -3  13 2746.43   80.00   8-0.04957-0.43040-0.98412 0.66462-0.17047 0.61077
   4  -3  13 1155.66   43.40  20-0.06214 0.70152-0.98237 0.66220 0.17634 0.26337
  -4  -3 -13 1360.72   42.20  14-0.05685-0.58299-0.99836 0.67873 0.00653-0.44659
   4  -3  13 1256.11   59.20  73-0.02511 0.66616 0.18973-0.51113 0.98151-0.54312
  -4   3  13 1480.79   58.60  56-0.05266-0.58409-0.31875 0.63598 0.94638-0.50435
  -4  -3  13 1059.41   59.80  76-0.01995-0.61809 0.26886-0.58769 0.96297-0.52209
   4   3  13 1469.33   72.00  62-0.04506 0.68559-0.15894 0.47987 0.98626-0.54744
   4  -3 -13 1219.12   43.20   9-0.05019 0.68982-0.98634 0.66642-0.15691-0.28291
   0  -4 -13  997.94   47.00  29-0.06686 0.06689-0.89504 0.46836 0.44095-0.88100
   0   4 -13 1189.90   69.60 105 0.03465-0.03466 0.89619-0.46947 0.44231-0.88227
   0   4  13 1051.09   63.80  51-0.05875 0.05877-0.46770 0.89490 0.88193-0.44238
   0  -4  13 1329.92   90.70  83-0.00574 0.00575 0.46826-0.89589 0.88357-0.44424
   1   4 -1313566.40  184.60 105 0.03535 0.12453 0.90153-0.47481 0.43127-0.87123
  -1  -4 -1314051.22  207.10  29-0.06683-0.09311-0.89706 0.47067 0.43682-0.87738
   1  -4  1312395.15  211.60  83-0.00733 0.16729 0.44721-0.87465 0.89440-0.45498
  -1   4  1314306.49  251.60  51-0.05858-0.10128-0.46309 0.88996 0.88437-0.44465
   1   4  1314426.81  216.70  52-0.05745 0.21742-0.43372 0.86103 0.89921-0.45974
  -1  -4  1312906.67  188.10  83-0.00693-0.15285 0.45252-0.87894 0.89173-0.45178
   1  -4 -1314291.05   95.00  28-0.06650 0.22638-0.91200 0.48520 0.40477-0.84459
  -2  -4 -13  639.21   32.50  28-0.06639-0.25322-0.91620 0.48918 0.39518-0.83461
   2  -4  13  323.71   46.50  80-0.01224 0.33248 0.38017-0.80831 0.92484-0.48589
   2  -4  13  784.54   42.30   2-0.04086 0.36048-0.93965 0.51268-0.33970 0.77924
  -2   4  13  697.45   53.10  52-0.05683-0.26276-0.41797 0.84445 0.90668-0.46675
  -2  -4  13  647.89   36.50   1-0.03842-0.28123-0.92354 0.49661-0.38157 0.82115
   2  -4 -13  821.83   35.80  25-0.06536 0.38517-0.94360 0.51688 0.32459-0.76451
   2   4  13  448.26   61.50  55-0.05436 0.37439-0.35788 0.78542 0.93219-0.49290
  -2  -4  13  690.11   78.90  81-0.01125-0.30867 0.39392-0.82135 0.91908-0.47969
   3  -4  13  139.52   24.10   7-0.04780 0.52731-0.97698 0.55010-0.20788 0.64756
  -3   4  13  168.57   32.80  56-0.05294-0.42623-0.32501 0.75118 0.94423-0.50404
  -3  -4 -13  176.09   33.70  25-0.06504-0.41411-0.94967 0.52232 0.30643-0.74545
   3  -4  13  148.28   67.50  76-0.02109 0.50324 0.25170-0.68207 0.96758-0.53059
   3   4  13  184.13   34.10  59-0.04865 0.52934-0.23185 0.66012 0.97153-0.53295
  -3  -4  13  192.92   29.10   4-0.04367-0.43563-0.95640 0.52925-0.28878 0.72809
  -3  -4  13  132.76   43.30  77-0.01799-0.46082 0.29793-0.72360 0.95442-0.51386
   3  -4 -13   78.19   37.60  21-0.06284 0.53946-0.97701 0.54718 0.20374-0.63998
   0  -5 -13  139.99   27.70  32-0.06724 0.06725-0.86217 0.32868 0.50214-0.94205
   0   5 -13  143.18   45.50 102 0.03054-0.03055 0.86335-0.32983 0.50369-0.94354
   0  -5  13  263.16   48.00  78-0.01583 0.01583 0.32936-0.86325 0.94407-0.50454
   0   5  13  355.76   64.10  55-0.05331 0.05314-0.33352 0.86441 0.94124-0.49997
  -1  -5 -13 6861.56  140.60  32-0.06723-0.09263-0.86366 0.33013 0.49957-0.93938
  -1   5  13 7173.38  135.30  56-0.05283-0.10702-0.32271 0.85628 0.94502-0.50530
   1   5 -13 6982.36  155.40 103 0.03150 0.12870 0.87124-0.33860 0.48984-0.93209
   1  -5  13 7318.32  158.90  77-0.01747 0.17751 0.30547-0.83992 0.95204-0.51286
   1   5  13 7384.11  162.70  57-0.05169 0.21167-0.29720 0.83126 0.95342-0.51400
  -1  -5  13 5750.07  182.70  78-0.01680-0.14304 0.31534-0.84878 0.94883-0.50903
  -1   5 -13 6329.60  258.20 103 0.03213-0.19187 0.87643-0.34267 0.48046-0.91965
   1  -5 -13 6939.83  110.40  31-0.06710 0.22655-0.87851 0.34435 0.47298-0.91110
   2  -5  13 2493.60  112.50  75-0.02190 0.34229 0.23937-0.77447 0.97068-0.53201
  -2  -5 -13 2735.07   77.00  30-0.06703-0.25249-0.88384 0.35004 0.46297-0.90206
   2   5 -13 2064.63  119.00 104 0.03441 0.28586 0.89439-0.36154 0.44597-0.88745
  -2   5  13 2935.97  107.40  57-0.05086-0.26859-0.27886 0.81164 0.95898-0.51876
   2   5  13 2879.25  113.60  59-0.04837 0.36870-0.22592 0.76077 0.97295-0.53413
  -2  -5  13 2815.19  114.60  76-0.02026-0.29927 0.26416-0.79725 0.96427-0.52424
   2  -5 -13 2838.46   74.80  28-0.06645 0.38626-0.91397 0.38051 0.40030-0.84025
  -2   5 -13 3491.13   96.80 105 0.03617-0.35536 0.90754-0.37344 0.41840-0.85689
   3  -5  13  258.44   50.00  71-0.02941 0.51087 0.12084-0.65685 0.99224-0.55458
  -3  -5 -13  140.35   46.20  27-0.06626-0.41313-0.92052 0.38681 0.38503-0.82444
   3  -5  13  234.20   39.10   4-0.04271 0.52123-0.95087 0.41649-0.30663 0.74488
  -3   5  13  156.02   57.00  61-0.04652-0.43272-0.18818 0.72122 0.98103-0.54092
   3   5  13   96.81   60.50  63-0.04265 0.52334-0.11229 0.64726 0.99276-0.55423
  -3  -5  13  242.10   56.20  73-0.02600-0.45238 0.17581-0.70751 0.98408-0.54294
   3  -5 -13  212.09   29.10  24-0.06463 0.54435-0.95653 0.42310 0.28439-0.72434
   0  -6 -13   92.60   36.60  33-0.06730 0.06732-0.84061 0.20039 0.53744-0.97740
   0   6 -13   32.07   56.50 101 0.02802-0.02802 0.84168-0.20144 0.53924-0.97910
   0   6  13    9.81   53.40  60-0.04710 0.04713-0.19987 0.84076 0.97869-0.53936
   0  -6  13    7.82   67.80  74-0.02442 0.02443 0.20062-0.84135 0.97936-0.53993
  -1  -6 -13   98.60   37.20  33-0.06730-0.09256-0.84202 0.20177 0.53523-0.97505
   1   6 -13  114.69   43.20 101 0.02878 0.13119 0.84837-0.20828 0.52863-0.96923
   1  -6  13  219.26   55.90  73-0.02599 0.18611 0.17598-0.81744 0.98405-0.54512
  -1   6  13  172.06   82.80  60-0.04667-0.11337-0.19126 0.83294 0.98043-0.54162
   1   6  13   93.88   45.90  61-0.04569 0.20579-0.17145 0.81273 0.98413-0.54509
   1  -6 -13   64.77   32.50  32-0.06726 0.22720-0.85810 0.21792 0.50906-0.94915
  -1  -6  13  130.42   94.70  73-0.02584-0.13511 0.17821-0.82522 0.98365-0.54841
  -1   6 -13  239.72   64.90 102 0.02940-0.18902 0.85365-0.21312 0.52001-0.95857
  -2  -6 -13   43.25   29.60  32-0.06724-0.25249-0.86226 0.22201 0.50199-0.94179
   2   6 -13   63.20   60.90 103 0.03165 0.28850 0.87247-0.23257 0.48763-0.92880
  -2   6  13  116.01   50.10  62-0.04462-0.27497-0.15030 0.79022 0.98763-0.54767
   2  -6  13  189.95   90.30  71-0.03030 0.35232 0.10625-0.75147 0.99388-0.55782
  -2  -6  13  315.22   62.00  72-0.02795-0.29134 0.14450-0.78367 0.98911-0.54861
   2   6  13   96.80   70.60  63-0.04218 0.36352-0.10348 0.74710 0.99374-0.55651
  -2   6 -13  216.45   63.70 104 0.03298-0.35145 0.88321-0.24208 0.46783-0.90437
   2  -6 -13   49.37   45.20  30-0.06691 0.38705-0.89250 0.25251 0.44607-0.88681
   0  -7 -13   33.00   44.70  34-0.06730 0.06734-0.82983 0.08290 0.55395-0.99428
   0   7 -13   97.20   48.70 100 0.02677-0.02678 0.83064-0.08368 0.55616-0.99613
   0   7  13  210.34   50.50  64-0.04105 0.04108-0.08212 0.82981 0.99578-0.55653
   0  -7  13   31.66   74.10  70-0.03173 0.03176 0.08236-0.83002 0.99610-0.55682
  -1   0 -14 5527.23  116.00   6-0.04588-0.11387-0.96808 0.96723-0.24640-0.22695
   1   0 -14 6087.74  126.60   5-0.04421 0.20406-0.95938 0.95936-0.27863-0.19492
   1   0  14 6527.54   80.20  24-0.06465 0.22450-0.95618 0.95617 0.28556 0.18799
  -1   0  14 6612.99   83.20  22-0.06374-0.09610-0.96820 0.96806 0.24194 0.23158
  -2   0 -14 6128.03   88.40   3-0.04218-0.27752-0.94775 0.94775-0.31621-0.15734
   2   0  14 6016.05  106.70  28-0.06636 0.38668-0.91720 0.91866 0.39285 0.08083
  -2   0  14 6628.79   94.90  24-0.06493-0.25467-0.95173 0.95134 0.30000 0.17348
  -3   0  14  794.65   42.10 102 0.03042-0.50879 0.86229-0.86030 0.50549-0.03187
   3   0  14  797.44   35.30  34-0.06730 0.54694-0.83371 0.83384 0.54808-0.07454
   3   0  14  684.85   43.90 104 0.03438 0.44552 0.89416-0.89486 0.44642 0.02715
  -3   0  14  704.33   34.80  28-0.06658-0.41283-0.90901 0.90869 0.41142 0.06211
   4   0  14  472.17   33.40  43-0.06456 0.70412-0.65129 0.65143 0.75608-0.28259
   4   0  14  498.29   40.10  96 0.01961 0.62113 0.76265-0.76430 0.64651-0.17333
  -4   0  14  476.44   34.70  35-0.06725-0.57120-0.81603 0.81465 0.57409-0.10037
  -4   0  14  481.97   46.60  95 0.01629-0.65393 0.72862-0.72666 0.68472-0.21060
   0  -1 -14  254.23   25.10  13-0.05573 0.05573-0.99817 0.89136-0.02366-0.44985
   0   1  14  401.85   25.80  30-0.06693 0.06693-0.89083 0.99747 0.44939 0.02416
   0  -1  14  316.81   25.40  15-0.05746 0.05746-0.99806 0.89131 0.02378 0.44975
   0  -1  14  295.48   42.30 104 0.03415-0.03415 0.89235-0.99914 0.45006 0.02350
  -1  -1 -14 1343.45   33.40  13-0.05543-0.10440-0.99796 0.89103-0.03168-0.44177
  -1   1  14 1347.01   35.00  30-0.06696-0.09287-0.88901 0.99547 0.45297 0.02058
   1  -1  14 1258.71   45.70  16-0.05906 0.21891-0.99570 0.88898 0.07132 0.40223
   1  -1  14 1174.18   64.10 104 0.03377 0.12555 0.88944-0.99193 0.45581 0.01767
  -1  -1  14 1415.08   33.30  15-0.05771-0.10212-0.99785 0.89100 0.03110 0.44238
  -1  -1  14 1448.66   57.70 103 0.03202-0.19171 0.87551-0.98141 0.48214-0.00858
   1   1  14 1311.00   41.70  32-0.06721 0.22714-0.86658 0.97364 0.49450-0.02096
   1  -1 -14 1405.61   40.90  12-0.05385 0.21393-0.99597 0.89020-0.07177-0.40221
  -2  -1 -1419411.43   96.50  11-0.05279-0.26696-0.99384 0.88727-0.09746-0.37615
   2  -1  1421219.08   98.10  20-0.06216 0.38181-0.98224 0.87540 0.17703 0.29648
   2  -1  1420351.77  123.20 101 0.02861 0.29147 0.84689-0.95485 0.53099-0.05752
  -2   1  1419874.36   99.50  32-0.06724-0.25237-0.86076 0.96713 0.50455-0.03098
   2   1  1419741.21   98.50  35-0.06721 0.38694-0.80862 0.91541 0.58448-0.11093
  -2  -1  1420708.71   98.90  17-0.05969-0.25985-0.99405 0.88680 0.09115 0.38217
  -2  -1  1420396.44  134.50 100 0.02661-0.34579 0.82919-0.93449 0.55834-0.08466
   2  -1 -1419668.93  402.60   8-0.04958 0.36961-0.98415 0.87821-0.17028-0.30354
   3  -1  14 3326.61   75.70  26-0.06574 0.54546-0.93516 0.82869 0.34807 0.12552
  -3   1  14 3225.38   59.50  36-0.06712-0.41210-0.79618 0.90215 0.60132-0.12767
  -3  -1 -14 3374.91   73.60   6-0.04693-0.43276-0.97311 0.86669-0.22549-0.24814
   3  -1  14 3141.13   75.80  96 0.01971 0.46020 0.76363-0.87101 0.64535-0.17193
   3   1  14 3204.23   75.60  41-0.06557 0.54551-0.69490 0.80218 0.71611-0.24273
  -3  -1  14 3494.65   84.00  21-0.06290-0.41631-0.97650 0.86907 0.20613 0.26720
  -3  -1  14 3552.18   92.00  95 0.01741-0.49604 0.74023-0.84537 0.67213-0.19821
   3  -1 -14 3042.79   71.90   3-0.04193 0.52144-0.94626 0.83948-0.32067-0.15287
   4  -1  14  102.46   26.20  35-0.06722 0.70421-0.81097 0.70184 0.58122-0.10730
   4  -1  14   81.51   36.30  88 0.00248 0.64120 0.57224-0.68350 0.82008-0.34885
  -4   1  14   16.94   34.10  42-0.06495-0.57420-0.66709 0.77345 0.74214-0.26847
  -4   1  14  166.54   44.00 101 0.02908-0.66739 0.85090-0.74297 0.52452-0.05088
  -4  -1  14   64.70   32.90  88 0.00351-0.64116 0.58476-0.68958 0.81120-0.33673
   4   1  14   62.07   27.40  50-0.05957 0.69841-0.49010 0.59633 0.86963-0.39575
   4   1  14   99.67   33.80 105 0.03485 0.60689 0.89770-0.79404 0.43923 0.03445
  -4  -1  14   52.92   27.10  28-0.06630-0.57427-0.91923 0.81417 0.38810 0.08562
   0  -2 -14 7215.21  213.70  19-0.06166 0.06169-0.98544 0.77231 0.15846-0.63225
   0   2  14 7457.64  221.80  37-0.06687 0.06686-0.77170 0.98503 0.63247-0.15890
   0  -2  14 6848.71  148.30  97 0.02068-0.02069 0.77328-0.98687 0.63372-0.16020
   0  -2  14 7668.81   88.40   9-0.05010 0.05011-0.98602 0.77280-0.15894 0.63266
  -1  -2 -14 8275.98  237.80  19-0.06152-0.09835-0.98629 0.77298 0.15312-0.62676
   1  -2  14 8606.38  100.10  10-0.05192 0.21173-0.99167 0.77811-0.11792 0.59137
   1  -2  14 8075.51  141.20  96 0.01935 0.14062 0.76000-0.97425 0.64963-0.17623
  -1   2  14 7938.71  188.60  37-0.06684-0.09298-0.76931 0.98244 0.63537-0.16177
   1   2  14 7807.80  108.60  39-0.06643 0.22635-0.74053 0.95428 0.66873-0.19525
  -1  -2  14 8669.63  113.40   9-0.05048-0.10935-0.98733 0.77382-0.15041 0.62389
  -1  -2  14 8063.47  142.20  96 0.01874-0.17849 0.75387-0.96675 0.65676-0.18311
   1  -2 -14 7883.07  112.90  18-0.06039 0.22031-0.99164 0.77844 0.11406-0.58778
  -2   2  14 5204.55   85.20  39-0.06630-0.25330-0.73265 0.94569 0.67737-0.20373
  -2  -2 -14 5186.33   94.50  17-0.05983-0.25986-0.99363 0.78015 0.09555-0.56906
   2  -2  14 5341.37   79.50  13-0.05586 0.37540-0.99823 0.78448-0.02027 0.49362
   2  -2  14 5255.38  139.30  94 0.01438 0.30581 0.70839-0.92327 0.70568-0.23250
   2   2  14 5024.50  111.20  42-0.06501 0.38494-0.66972 0.88367 0.73977-0.26637
  -2  -2  14 5045.64  146.30  11-0.05301-0.26656-0.99432 0.78049-0.09225 0.56550
  -2  -2  14 5227.61  119.40  93 0.01350-0.33291 0.69894-0.91157 0.71505-0.24129
   2  -2 -14 4894.26   89.40  15-0.05727 0.37699-0.99819 0.78482 0.01829-0.49187
   3  -2  14 1783.40   45.90  19-0.06126 0.54066-0.98768 0.77403 0.14398 0.32948
  -3   2  14 1867.20   69.70  43-0.06459-0.41467-0.65261 0.86544 0.75493-0.28119
  -3  -2 -14 1741.84   51.70  13-0.05579-0.42391-0.99820 0.78505-0.02205-0.45166
   3  -2  14 1434.18   60.00  89 0.00482 0.47616 0.60039-0.81625 0.79969-0.32712
   3   2  14 2058.60   61.30  48-0.06142 0.54153-0.54365 0.75785 0.83706-0.36388
  -3  -2  14 1892.19   50.50  15-0.05758-0.42351-0.99797 0.78741 0.02727 0.44791
  -3  -2  14 1678.69   67.80  89 0.00474-0.48376 0.59954-0.81206 0.80033-0.32641
   3  -2 -14 1538.60   50.80  10-0.05122 0.53088-0.98966 0.77640-0.13397-0.33965
  -4   2  14 1200.73   57.50  49-0.06010-0.57880-0.50489 0.71768 0.86109-0.38719
  -4  -2 -14 1146.55   39.80   7-0.04743-0.59269-0.97536 0.76285-0.21547-0.25839
   4  -2  14  795.78   33.30  28-0.06640 0.70674-0.91573 0.70323 0.39627 0.07739
   4  -2  14  882.22   56.00  81-0.01051 0.65044 0.40421-0.61813 0.91461-0.44141
   4  -2 -14  946.25   32.10   2-0.04034 0.67967-0.93634 0.72283-0.34877-0.12476
   4   2  14 1019.77   53.90  55-0.05335 0.69327-0.33447 0.54830 0.94089-0.46769
  -4  -2  14 1168.23   45.60  20-0.06247-0.57653-0.97998 0.76602 0.18903 0.28432
  -4  -2  14 1185.37   65.40  82-0.00783-0.62956 0.44049-0.65182 0.89773-0.42282
   0  -3 -14 3439.05   55.30  24-0.06490 0.06490-0.95212 0.63195 0.29877-0.77228
   0   3  14 3498.52   70.60  44-0.06405 0.06407-0.63180 0.95211 0.77248-0.29898
   0  -3  14 3464.27   61.80   4-0.04306 0.04304-0.95293 0.63253-0.30011 0.77334
   0  -3  14 3429.27   85.50  90 0.00765-0.00765 0.63361-0.95387 0.77362-0.30011
  -1  -3 -14  905.47   34.40  24-0.06483-0.09501-0.95338 0.63315 0.29474-0.76818
   1  -3  14  955.01   36.20   5-0.04496 0.20480-0.96339 0.64320-0.26431 0.73780
  -1   3  14  961.61   41.80  44-0.06397-0.09588-0.62856 0.94862 0.77513-0.30155
   1  -3  14  900.95   73.10  89 0.00542 0.15542 0.60754-0.93363 0.79427-0.32278
  -1  -3  14  980.03   37.20   4-0.04360-0.11619-0.95600 0.63554-0.29012 0.76328
   1  -3 -14  862.67   33.70  23-0.06410 0.22389-0.96387 0.64357 0.25854-0.73190
   1   3  14 1105.83   57.90  45-0.06332 0.22222-0.60527 0.92148 0.79350-0.31859
  -1  -3  14  793.05   76.40  89 0.00542-0.16604 0.60754-0.93199 0.79427-0.32221
   2  -3  14 1533.80   42.70   8-0.04916 0.36866-0.98256 0.66207-0.17931 0.65250
   2  -3  14 1571.24   62.90  87 0.00116 0.31899 0.55616-0.87753 0.83108-0.35803
  -2   3  14 1471.85   50.70  46-0.06280-0.25679-0.58752 0.90726 0.80677-0.33307
  -2  -3 -14 1448.00   49.60  22-0.06376-0.25613-0.96794 0.64828 0.24295-0.71703
  -2  -3  14 1441.06   45.80   6-0.04645-0.27319-0.97082 0.65053-0.23526 0.70865
  -2  -3  14 1164.63   65.20  87 0.00137-0.32074 0.55876-0.87796 0.82933-0.35540
   2  -3 -14 1523.54   43.30  20-0.06197 0.38177-0.98356 0.66359 0.16964-0.64336
   2   3  14 1501.14   63.40  48-0.06104 0.37902-0.53229 0.84858 0.84436-0.36913
  -3  -3 -14 2066.92   57.90  19-0.06121-0.41834-0.98796 0.66783 0.14208-0.61563
   3  -3  14 2217.55   61.30  13-0.05547 0.53509-0.99800 0.67794-0.03046 0.50407
   3  -3  14 1913.74   74.30  82-0.00784 0.48841 0.44035-0.76206 0.89779-0.42512
  -3   3  14 1994.42   86.00  49-0.05989-0.41964-0.49912 0.81921 0.86446-0.39088
   3   3  14 2376.86   79.70  53-0.05601 0.53625-0.39744 0.71850 0.91592-0.44294
  -3  -3  14 1901.48   74.90  83-0.00635-0.47214 0.46027-0.77864 0.88776-0.41327
   3  -3 -14 2222.07   57.80  15-0.05762 0.53717-0.99793 0.67779 0.02849-0.50204
  -3  -3  14 2136.31   63.90  10-0.05123-0.42821-0.98969 0.66938-0.13371 0.60710
   4  -3  14   43.36   28.00  75-0.02222 0.66374 0.23446-0.55636 0.97187-0.49991
  -4   3  14    0.32   32.60  55-0.05391-0.58476-0.34749 0.66679 0.93613-0.46200
  -4  -3 -14   98.29   32.40  13-0.05541-0.58533-0.99795 0.67937-0.03203-0.44254
   4  -3  14   33.90   24.00  21-0.06251 0.69919-0.97969 0.65700 0.19052 0.28193
  -4  -3  14   60.73   21.60  15-0.05745-0.58170-0.99807 0.67764 0.02343 0.44992
   4  -3 -14  167.92   23.00   8-0.04921 0.68846-0.98275 0.66247-0.17828-0.29521
   4   3  14   42.89   54.00  61-0.04648 0.69084-0.18741 0.51120 0.98118-0.51129
  -4  -3  14  179.34   56.10  77-0.01752-0.61989 0.30481-0.62294 0.95225-0.47716
   0  -4 -14  120.63   24.90  28-0.06640 0.06640-0.91572 0.48886 0.39630-0.86983
   0   4 -14  136.75   35.00 106 0.03744-0.03743 0.91671-0.48972 0.39779-0.87108
   0  -4  14  -31.91   56.20  84-0.00405 0.00405 0.49030-0.91734 0.87154-0.39808
   0   4  14  166.54   52.80  50-0.05965 0.05952-0.49235 0.91720 0.86835-0.39395
  -1   4  14 1620.49   56.60  50-0.05937-0.10049-0.48446 0.91132 0.87280-0.39925
  -1  -4 -14 1310.41   53.70  28-0.06646-0.09290-0.91362 0.48419 0.40110-0.87001
   1  -4  14 1296.35   80.30  83-0.00571 0.16578 0.46869-0.89674 0.88334-0.41034
   1   4  14 1461.82   70.70  51-0.05831 0.21829-0.45603 0.88337 0.88805-0.41474
  -1  -4  14 1236.57   89.50  84-0.00456-0.15417 0.48376-0.90402 0.87519-0.39873
   1  -4 -14 1344.63   52.30  26-0.06592 0.22585-0.93070 0.50404 0.35978-0.83363
  -2  -4 -14 6339.44  112.70  26-0.06578-0.25385-0.93436 0.50736 0.35020-0.82350
   2  -4  14 6557.29  176.50   4-0.04335 0.36294-0.95458 0.52756-0.29479 0.76809
   2  -4  14 5844.38  140.40  81-0.01034 0.33055 0.40644-0.83456 0.91362-0.44074
  -2   4  14 6017.75  167.60  51-0.05777-0.26179-0.44188 0.86825 0.89521-0.42143
   2   4  14 5741.90  146.00  54-0.05542 0.37550-0.38320 0.81086 0.92200-0.44890
  -2  -4  14 6717.69  120.90   2-0.04092-0.27866-0.93998 0.51291-0.33877 0.81196
  -2  -4  14 5139.23  154.10  82-0.00928-0.30995 0.42096-0.84652 0.90703-0.43282
   2  -4 -14 5992.42  127.70  24-0.06456 0.38451-0.95751 0.53099 0.28109-0.75512
  -3  -4 -14  762.43   35.90  23-0.06418-0.41507-0.96282 0.53559 0.26241-0.73543
   3  -4  14  770.47   56.00  77-0.01853 0.49922 0.28994-0.71842 0.95687-0.48442
   3  -4  14  737.99   43.00   8-0.04981 0.52945-0.98501 0.55825-0.16513 0.63878
  -3   4  14  580.98   62.90  55-0.05388-0.42700-0.34667 0.77593 0.93644-0.46433
   3   4  14  559.25   48.30  58-0.05010 0.53077-0.26241 0.69071 0.96366-0.49114
  -3  -4  14  635.65   55.70  78-0.01612-0.46275 0.32508-0.75082 0.94555-0.47130
  -3  -4  14  736.62   42.40   6-0.04580-0.43347-0.96767 0.54046-0.24804 0.72112
   3  -4 -14  509.27   43.50  19-0.06130 0.54361-0.98748 0.56349 0.14536-0.62206
   0  -5 -14 9004.01  171.10  30-0.06701 0.06702-0.88541 0.35190 0.45995-0.93363
   0   5 -14 8875.51  166.60 104 0.03339-0.03338 0.88641-0.35280 0.46170-0.93510
   0   5  14 8994.79  170.60  55-0.05409 0.05412-0.35157 0.88560 0.93460-0.46129
   0  -5  14 8791.15  173.60  79-0.01420 0.01421 0.35261-0.88659 0.93566-0.46233
  -1  -5 -14  710.70   39.20  30-0.06699-0.09285-0.88670 0.35312 0.45747-0.93096
   1   5 -14  728.34   57.10 104 0.03409 0.12583 0.89188-0.35850 0.45099-0.92501
  -1   5  14  603.00   47.10  55-0.05387-0.10599-0.34635 0.87998 0.93656-0.46304
   1  -5  14  189.65   86.60  78-0.01637 0.17747 0.32145-0.86104 0.94678-0.47657
   1   5  14  863.46   54.30  56-0.05276 0.21278-0.32106 0.85530 0.94559-0.47242
   1  -5 -14  631.73   38.60  29-0.06675 0.22663-0.90120 0.36769 0.42823-0.90191
  -1  -5  14  441.58   93.70  79-0.01443-0.14432 0.34935-0.87621 0.93688-0.45981
  -1   5 -14  625.00   74.40 105 0.03482-0.19427 0.89752-0.36320 0.43959-0.91123
   2   5 -14 1608.15   85.20 106 0.03692 0.28306 0.91302-0.37984 0.40625-0.88068
   2  -5  14 2411.24   66.50   1-0.03892 0.35857-0.92695 0.39333-0.37317 0.84659
   2  -5  14 1549.87  104.90  76-0.02011 0.34053 0.26651-0.80177 0.96362-0.49112
  -2  -5 -14 2312.99   70.30  29-0.06665-0.25337-0.90603 0.37294 0.41793-0.89259
  -2   5  14 2447.23   92.30  57-0.05200-0.26752-0.30401 0.83699 0.95125-0.47737
  -2  -5  14 1600.35   85.50  77-0.01856-0.30088 0.28944-0.82228 0.95702-0.48304
   2   5  14 2369.91   95.40  58-0.04964 0.36982-0.25274 0.78731 0.96626-0.49334
   2  -5 -14 2169.55   65.10  26-0.06590 0.38581-0.93125 0.39791 0.35837-0.83236
  -3  -5 -14  124.17   29.00  26-0.06566-0.41371-0.93704 0.40331 0.34300-0.81620
   3  -5  14  117.67   29.40   5-0.04516 0.52473-0.96439 0.43085-0.26061 0.73419
   3  -5  14  236.77   48.50  72-0.02741 0.50869 0.15329-0.68919 0.98780-0.51600
  -3   5  14  124.07   73.10  60-0.04790-0.43160-0.21633 0.74980 0.97514-0.50153
   3   5  14   90.49   50.30  62-0.04416 0.52492-0.14133 0.67644 0.98898-0.51661
  -3  -5  14   31.79   34.20   3-0.04161-0.43783-0.94430 0.41064-0.32645 0.79980
  -3  -5  14   98.40   66.10  74-0.02435-0.45444 0.20164-0.73397 0.97916-0.50475
   3  -5 -14  125.98   39.90  22-0.06380 0.54344-0.96744 0.43394 0.24493-0.71859
   0  -6 -14  891.27   64.00  32-0.06725 0.06680-0.85952 0.21780 0.50665-0.97370
   0   6 -14 1407.20   90.40 102 0.03026-0.03007 0.86097-0.21933 0.50775-0.97519
   0   6  14 1778.91  -90.60  59-0.04824 0.04829-0.22320 0.86436 0.97358-0.50054
   0  -6  14 1053.19  118.50  75-0.02276 0.02274 0.22627-0.86582 0.97380-0.49983
   1  -6  14   32.74   71.20  74-0.02439 0.18449 0.20096-0.84233 0.97930-0.50640
  -1  -6 -14  169.29   60.00  32-0.06725-0.09180-0.85952 0.21737 0.50665-0.97176
   1   6 -14  162.68   73.80 103 0.03117 0.12830 0.86858-0.22764 0.49456-0.96526
  -1   6  14    6.94   90.10  60-0.04733-0.11364-0.20448 0.85313 0.97773-0.50918
  -1  -6  14  118.38   60.50  74-0.02360-0.13623 0.21323-0.85342 0.97672-0.50311
  -1   6 -14   18.24   42.80 103 0.03221-0.19196 0.87701-0.23662 0.47939-0.95245
   1   6  14  168.12   82.50  60-0.04733 0.20608-0.20448 0.84026 0.97773-0.50150
   1  -6 -14  226.25   51.80  31-0.06707 0.22716-0.88057 0.24055 0.46915-0.94368
   2   6 -14  234.49   60.70 104 0.03417 0.28587 0.89250-0.25253 0.44974-0.92439
  -2   6  14   -1.46   60.40  61-0.04590-0.27370-0.17574 0.81570 0.98337-0.50962
  -2  -6 -14  219.76   51.40  30-0.06705-0.25203-0.88231 0.24145 0.46587-0.93711
   2  -6  14  192.07   75.60  72-0.02842 0.34950 0.13693-0.78028 0.99017-0.51867
  -2   6 -14  264.24   53.30 105 0.03577-0.35494 0.90465-0.26398 0.42465-0.89685
   2  -6 -14  108.20   31.20  28-0.06654 0.38638-0.91057 0.27040 0.40796-0.88182
   2   6  14  193.61   77.80  62-0.04369 0.36416-0.13220 0.77412 0.99026-0.51781
  -2  -6  14  111.59   99.60  72-0.02698-0.29424 0.16018-0.80458 0.98672-0.51582
   0   0 -15 1358.42   52.90   5-0.04535 0.04542-0.96537 0.96695-0.25690-0.25088
   0   0  15  293.19  163.50  23-0.06400 0.06401-0.96509 0.96523 0.25399 0.25343
  -1   0 -15  562.66   27.90   5-0.04496-0.11488-0.96334 0.96323-0.26448-0.24287
   1   0 -15  610.14   30.30   4-0.04344 0.20335-0.95509 0.95536-0.29312-0.21432
  -1   0  15  613.33   26.70  23-0.06410-0.09575-0.96383 0.96384 0.25871 0.24867
   1   0  15  668.75   33.60  24-0.06494 0.22493-0.95154 0.95215 0.30058 0.20693
  -2   0 -15  299.42   25.20   3-0.04151-0.27819-0.94367 0.94368-0.32826-0.17912
   2   0 -15  375.61   27.00   1-0.03858 0.35830-0.92466 0.92471-0.37882-0.12856
   2   0  15  421.36   24.20  28-0.06641 0.38618-0.91558 0.91575 0.39662 0.11078
  -2   0  15  297.49   25.30  25-0.06516-0.25446-0.94762 0.94730 0.31268 0.19463
   3   0  15  881.05  224.60 104 0.03402 0.44643 0.89133-0.89310 0.45208 0.05541
   3   0  15 2006.16   69.70  34-0.06730 0.54706-0.83596 0.83626 0.54465-0.03729
  -3   0  15 2585.49   75.80  29-0.06662-0.41261-0.90701 0.90630 0.41581 0.09150
  -4   0  15   75.67   33.70  95 0.01729-0.65505 0.73906-0.73720 0.67342-0.16563
   4   0  15  -10.82   32.20  42-0.06510 0.70369-0.67345 0.67268 0.73636-0.22872
   4   0  15  139.99   40.60  97 0.02012 0.62222 0.76769-0.77133 0.64051-0.13376
  -4   0  15   40.92   25.70  34-0.06727-0.57076-0.82093 0.81895 0.56706-0.05954
   0  -1 -15 7508.24  199.50  12-0.05450 0.05451-0.99697 0.89040-0.05555-0.45190
   0   1  15 8069.02  107.00  30-0.06695 0.06695-0.88956 0.99621 0.45188 0.05550
   0  -1  15 8074.04   85.70  16-0.05853 0.05853-0.99676 0.88999 0.05515 0.45220
   0  -1  15 7744.62  108.30 104 0.03400-0.03400 0.89117-0.99791 0.45239 0.05499
  -1  -1 -15 3218.03   73.90  12-0.05418-0.10568-0.99651 0.88985-0.06356-0.44385
  -1   1  15 3505.60   64.80  30-0.06698-0.09285-0.88782 0.99432 0.45530 0.05207
   1  -1  15 3381.33   89.00  17-0.05995 0.21974-0.99323 0.88625 0.09949 0.40777
   1  -1  15 3522.04   90.50 104 0.03303 0.12691 0.88363-0.99109 0.46702 0.04038
  -1  -1  15 1050.30  -36.40  16-0.05876-0.10109-0.99635 0.88960 0.06194 0.44542
  -1  -1  15 3507.70   94.90 103 0.03199-0.19168 0.87526-0.98115 0.48260 0.02475
   1  -1 -15 3321.87   66.70  11-0.05276 0.21266-0.99377 0.88726-0.09815-0.40932
   1   1  15 3739.67   74.20  32-0.06720 0.22711-0.86684 0.97378 0.49403 0.01335
  -2  -1 -15 2396.49   47.90  10-0.05163-0.26804-0.99088 0.88407-0.12450-0.38284
   2  -1  15 2603.91   52.20  21-0.06272 0.38233-0.97800 0.87106 0.19895 0.30834
   2  -1  15 2593.11   60.60 101 0.02879 0.29129 0.84846-0.95640 0.52848-0.02113
  -2   1  15 2535.90   58.90  32-0.06724-0.25236-0.86129 0.96763 0.50364 0.00373
   2   1  15 2611.02   58.60  35-0.06723 0.38694-0.81259 0.91932 0.57895-0.07157
  -2  -1  15 2666.47   51.50  18-0.06051-0.25904-0.99118 0.88395 0.11787 0.38928
  -2  -1  15 2571.90   77.50 100 0.02689-0.34608 0.83170-0.93702 0.55457-0.04712
   2  -1 -15 2255.03   54.80   8-0.04868 0.36828-0.98067 0.87373-0.18954-0.31775
  -3  -1 -15  288.16   30.40   6-0.04584-0.43431-0.96784 0.86231-0.24735-0.26038
   3  -1  15  227.64   27.60  26-0.06589 0.54545-0.93142 0.82471 0.35794 0.14944
   3  -1  15  171.48   45.90  97 0.02104 0.45721 0.77680-0.88100 0.62940-0.12167
  -3   1  15  246.89   33.00  36-0.06716-0.41207-0.80096 0.90694 0.59494-0.08749
   3   1  15  795.90  -40.60  40-0.06583 0.54571-0.70743 0.81462 0.70371-0.19645
  -3  -1  15  262.76   31.60  22-0.06328-0.41519-0.97301 0.86404 0.22192 0.28471
  -3  -1  15  257.17   46.80  96 0.01835-0.49657 0.74989-0.85431 0.66131-0.15352
   3  -1 -15  257.56   35.90   3-0.04182 0.51887-0.94559 0.83485-0.32265-0.18384
   4  -1  15  232.93   32.80  89 0.00543 0.63572 0.60768-0.71635 0.79417-0.28758
   4  -1  15  383.83   28.10  35-0.06719 0.70858-0.80566 0.70091 0.58856-0.08141
  -4   1  15  208.41   34.70  42-0.06533-0.57330-0.68388 0.78953 0.72666-0.21899
  -4   1  15  316.95   46.80 102 0.02966-0.66607 0.85589-0.74583 0.51630-0.00888
  -4  -1  15  182.09   42.20  89 0.00523-0.64277 0.60532-0.70997 0.79596-0.28775
   4   1  15  301.59   34.20  49-0.06041 0.70115-0.51385 0.62175 0.85575-0.34903
   4   1  15  377.14   42.50 105 0.03472 0.60646 0.89673-0.79234 0.44122 0.06635
  -4  -1  15  414.98   33.10  28-0.06633-0.57279-0.91839 0.81127 0.39008 0.11724
   0  -2 -15 5036.65   68.50  18-0.06051 0.06052-0.99118 0.77795 0.11787-0.62540
   0   2  15 4869.92   97.80  37-0.06694 0.06692-0.77752 0.99077 0.62528-0.11789
   0  -2  15 5153.23   69.40  10-0.05188 0.05187-0.99156 0.77803-0.11878 0.62608
   0  -2  15 5119.76   95.00  97 0.02128-0.02128 0.77909-0.99264 0.62655-0.11918
  -1  -2 -15 3155.51   60.30  18-0.06034-0.09953-0.99186 0.77856 0.11215-0.61963
  -1   2  15 3012.00  125.60  37-0.06691-0.09291-0.77522 0.98833 0.62814-0.12072
   1  -2  15 3286.10   71.00  11-0.05355 0.21329-0.99543 0.78160-0.07911 0.58618
   1  -2  15 3217.40   95.50  96 0.01997 0.14007 0.76617-0.98088 0.64233-0.13513
  -1  -2  15 3180.65   81.30  96 0.01942-0.17918 0.76068-0.97360 0.64884-0.14139
   1   2  15 3363.75   75.30  38-0.06656 0.22635-0.74900 0.96215 0.65922-0.15179
  -1  -2  15 2975.61   55.60  10-0.05180-0.10745-0.99134 0.77356-0.12069 0.62455
   1  -2 -15 2952.89   63.20  17-0.05926 0.21897-0.99523 0.78129 0.07751-0.58450
  -2  -2 -15 1399.83   42.10  16-0.05861-0.26102-0.99663 0.78298 0.05741-0.56463
   2  -2  15 1485.42   60.90  94 0.01536 0.30482 0.71882-0.93368 0.69503-0.18794
  -2   2  15 1326.39   40.60  39-0.06643-0.25315-0.74100 0.95398 0.66821-0.16076
   2  -2  15 1409.81   45.70  15-0.05726 0.37748-0.99819 0.78585 0.01820 0.48985
  -2  -2  15 1491.93   42.40  12-0.05450-0.26505-0.99697 0.78309-0.05555 0.56260
   2   2  15 1337.75   55.30  42-0.06526 0.38551-0.68078 0.89547 0.72958-0.22251
  -2  -2  15 1151.79   70.20  94 0.01453-0.33371 0.71002-0.92200 0.70404-0.19635
   2  -2 -15 1402.28   43.30  14-0.05610 0.37563-0.99833 0.78454-0.01379-0.49336
   3  -2  15   39.00   18.10  20-0.06197 0.54146-0.98353 0.77000 0.16981 0.33752
  -3  -2 -15   90.11   26.60  12-0.05476-0.42369-0.99731 0.78184-0.04879-0.45739
   3  -2  15  300.28   48.00  90 0.00647 0.47423 0.61992-0.83538 0.78464-0.27794
  -3   2  15  101.38   32.10  42-0.06485-0.41529-0.66316 0.87783 0.74566-0.23862
   3   2  15  122.67   37.90  46-0.06224 0.54076-0.56934 0.78127 0.81974-0.31177
  -3  -2  15   55.04   36.30  15-0.05801-0.41919-0.99753 0.77973 0.03968 0.46509
  -3  -2  15  153.96   56.70  89 0.00632-0.48462 0.61812-0.82939 0.78606-0.27796
   3  -2 -15   40.34   32.50   9-0.04988 0.53098-0.98526 0.77409-0.16364-0.34474
   4  -2  15  905.74   29.50  28-0.06647 0.70617-0.91327 0.70014 0.40190 0.10552
  -4   2  15 1117.82   49.50  48-0.06097-0.57780-0.53037 0.74298 0.84557-0.33782
  -4  -2 -15  890.22   44.20   6-0.04678-0.59114-0.97241 0.75709-0.22853-0.27815
   4  -2  15  829.13   50.90  82-0.00817 0.64916 0.43595-0.65095 0.89994-0.39352
   4   2  15  967.59   49.00  54-0.05473 0.69555-0.36674 0.58134 0.92871-0.42219
  -4  -2  15  610.68   35.40  21-0.06308-0.57680-0.97491 0.76210 0.21349 0.29412
  -4  -2  15  919.07   62.40  83-0.00592-0.63183 0.46589-0.67754 0.88482-0.37646
   4  -2 -15  945.37   39.60   2-0.03973 0.67915-0.93233 0.71893-0.35942-0.14796
   0  -3 -15 5961.51   88.00  23-0.06402 0.06400-0.96486 0.64449 0.25483-0.76193
   0   3  15 6258.17  145.50  43-0.06439 0.06441-0.64446 0.96489 0.76192-0.25462
   0  -3  15 7306.90 -115.80   5-0.04545 0.04545-0.96590 0.64573-0.25488 0.76221
   0  -3  15 5575.81  141.90  91 0.00879-0.00879 0.64662-0.96680 0.76276-0.25540
   1  -3  15   77.65   55.90  90 0.00735 0.15261 0.63010-0.95089 0.77648-0.26929
  -1  -3 -15  316.40   39.60  23-0.06387-0.09610-0.96669 0.64733 0.24784-0.75612
   1  -3  15  272.26   39.50   7-0.04714 0.20684-0.97406 0.65344-0.22134 0.72818
  -1   3  15  153.16   38.80  43-0.06430-0.09558-0.64112 0.96155 0.76474-0.25745
  -1  -3  15   65.04   54.90  90 0.00721-0.16699 0.62847-0.94819 0.77780-0.27030
   1   3  15  246.13   46.40  45-0.06361 0.22316-0.61544 0.93434 0.78561-0.27786
  -1  -3  15  108.43   39.10   6-0.04634-0.11407-0.97033 0.65341-0.23730 0.74836
   1  -3 -15  309.57   42.80  21-0.06315 0.22283-0.97425 0.65362 0.21644-0.72327
  -2  -3 -15  420.30   27.70  21-0.06277-0.25695-0.97761 0.65753 0.20083-0.70826
  -2   3  15  476.91   42.00  45-0.06325-0.25637-0.60291 0.92273 0.79530-0.28782
   2  -3  15  560.78   38.10   9-0.05106 0.37061-0.98920 0.66877-0.13741 0.64451
   2  -3  15  418.30   66.40  88 0.00251 0.31793 0.57271-0.89493 0.81975-0.31310
   2   3  15  458.27   55.10  48-0.06104 0.38360-0.53229 0.85883 0.84436-0.33951
  -2  -3  15  408.03   36.60   8-0.04852-0.27129-0.98005 0.66018-0.19274 0.70040
  -2  -3  15  495.86   65.30  88 0.00265-0.32221 0.57433-0.89408 0.81862-0.31111
   2  -3 -15  450.18   37.00  18-0.06087 0.38064-0.98961 0.66960 0.13028-0.63777
  -3  -3 -15  152.51   30.90  18-0.06005-0.41932-0.99289 0.67247 0.10277-0.60988
   3  -3  15  408.22   41.80  14-0.05692 0.53742-0.99834 0.67939 0.00864 0.49961
   3  -3  15  941.25   65.30  83-0.00570 0.48547 0.46873-0.78922 0.88332-0.37611
  -3   3  15  683.15   49.50  49-0.06059-0.41916-0.51916 0.83969 0.85252-0.34531
   3   3  15  408.03   43.30  52-0.05704 0.53715-0.42317 0.74407 0.90425-0.39728
  -3  -3  15  630.61   34.70  11-0.05281-0.42648-0.99389 0.67333-0.09694 0.60394
  -3  -3  15  803.51   64.40  84-0.00473-0.47382 0.48147-0.79991 0.87645-0.36829
   3  -3 -15  282.58   25.40  14-0.05644 0.53593-0.99840 0.67818-0.00447-0.50284
   0  -4 -15   60.21   28.30  26-0.06581 0.06580-0.93356 0.50667 0.35232-0.85962
   0   4  15  -17.34   40.90  49-0.06015 0.06018-0.50655 0.93374 0.86011-0.35287
   0  -4  15   54.40   24.60   2-0.04007 0.04006-0.93457 0.50760-0.35351 0.86066
   0  -4  15   51.16   55.00  85-0.00270 0.00270 0.50766-0.93509 0.86156-0.35440
  -1  -4 -15 5269.91  109.50  26-0.06576-0.09408-0.93479 0.50786 0.34905-0.85629
   1  -4  15 5694.91  128.40   3-0.04175 0.20156-0.94514 0.51819-0.32397 0.83118
   1  -4  15 5111.70  140.50  84-0.00419 0.16420 0.48848-0.91620 0.87257-0.36554
  -1   4  15 5096.78  144.00  49-0.06001-0.09985-0.50249 0.92945 0.86250-0.35517
   1   4  15 5339.48  148.10  50-0.05902 0.21901-0.47514 0.90253 0.87793-0.37078
  -1  -4  15 5398.64   97.20   2-0.04062-0.11921-0.93808 0.51111-0.34403 0.85121
   1  -4 -15 5745.86  109.10  25-0.06523 0.22511-0.94624 0.51946 0.31682-0.82431
  -1  -4  15 5161.85  129.10  84-0.00390-0.15588 0.49224-0.91869 0.87045-0.36292
   2  -4  15 1287.00   64.20  82-0.00873 0.32904 0.42844-0.85686 0.90353-0.39688
  -2  -4 -15 1121.02   49.00  25-0.06506-0.25448-0.94945 0.52226 0.30709-0.81393
   2  -4  15 1374.09   53.00   6-0.04565 0.36531-0.96692 0.54001-0.25096 0.75825
   2   4  15 1104.01   53.90  53-0.05632 0.37642-0.40526 0.83298 0.91247-0.40552
  -2  -4  15 1096.76   45.00   4-0.04323-0.27631-0.95391 0.52676-0.29695 0.80386
  -2  -4  15  941.64   80.00  82-0.00778-0.31147 0.44124-0.86681 0.89736-0.38941
   2  -4 -15 1234.90   49.30  22-0.06375 0.38299-0.96801 0.54050 0.24267-0.74912
   3  -4  15  758.14   38.90  10-0.05160 0.53108-0.99079 0.56386-0.12519 0.63247
   3  -4  15  551.34   53.70  78-0.01657 0.49717 0.31865-0.74706 0.94773-0.44128
  -3   4  15  363.11   37.90  54-0.05520-0.42406-0.37785 0.80415 0.92422-0.41656
  -3  -4 -15  468.91   40.70  22-0.06325-0.41587-0.97328 0.54587 0.22075-0.72738
   3   4  15  233.23   46.00  57-0.05139 0.53165-0.29054 0.71834 0.95548-0.44870
  -3  -4  15  727.58   38.80   7-0.04778-0.43154-0.97691 0.54977-0.20822 0.71521
  -3  -4  15  378.70   57.60  79-0.01445-0.46443 0.34903-0.77476 0.93700-0.42901
   3  -4 -15  681.22   33.30  18-0.06046 0.54026-0.99139 0.56480 0.11613-0.62380
   0  -5 -15  385.44   48.00  29-0.06663 0.06671-0.90658 0.37347 0.41674-0.92524
   0   5 -15  174.96   76.30 105 0.03629-0.03637 0.90842-0.37574 0.41647-0.92601
   0   5  15  178.24   48.90  54-0.05496 0.05499-0.37203 0.90611 0.92659-0.41945
   0  -5  15  179.64   50.30  80-0.01274 0.01275 0.37323-0.90722 0.92765-0.42047
   1  -5  15 1658.99   80.80  79-0.01426 0.17430 0.35180-0.88631 0.93597-0.42905
  -1   5  15 1805.62   87.40  54-0.05475-0.10511-0.36718 0.90085 0.92854-0.42121
  -1  -5 -15 1457.13   64.10  29-0.06662-0.09320-0.90694 0.37327 0.41595-0.92303
   1   5  15 1849.85   73.30  55-0.05369 0.21374-0.34226 0.87663 0.93807-0.43109
  -1   5 -15 2020.82   73.30 106 0.03757-0.19722 0.91761-0.38366 0.39571-0.90217
  -1  -5  15 1857.83   99.50  79-0.01370-0.14612 0.35976-0.89310 0.93294-0.42546
   1  -5 -15 1510.77   67.00  27-0.06628 0.22621-0.91993 0.38651 0.38643-0.89411
  -2  -5 -15   95.93   43.20  27-0.06618-0.25345-0.92332 0.38964 0.37829-0.88540
   2  -5  15   84.31   66.70  77-0.01843 0.33871 0.29144-0.82641 0.95641-0.44980
   2  -5  15   94.21   42.70   3-0.04112 0.35971-0.94128 0.40645-0.33512 0.83988
   2  -5 -15   18.42   35.20  25-0.06525 0.38507-0.94585 0.41242 0.31798-0.82561
   2   5  15   50.41   59.70  57-0.05139 0.36786-0.29054 0.81692 0.95548-0.44420
  -2  -5  15  152.24   93.40  78-0.01722-0.30273 0.30917-0.84342 0.95085-0.44384
   0  -6 -15  150.33   32.50  30-0.06701 0.06702-0.88565 0.24544 0.45948-0.96709
   0   6 -15  109.80   54.00 104 0.03341-0.03340 0.88657-0.24626 0.46139-0.96863
   0   6  15  289.20   81.60  59-0.04941 0.04934-0.24772 0.88677 0.96757-0.45956
   0  -6  15  141.78  100.20  75-0.02211 0.02229 0.23615-0.88353 0.97146-0.46785
  -1  -6 -15   14.20   39.70  30-0.06699-0.09286-0.88678 0.24651 0.45731-0.96468
   1   6 -15   77.81   53.40 104 0.03404 0.12588 0.89149-0.25135 0.45177-0.95967
  -1   6  15   66.78   46.70  59-0.04901-0.11086-0.23930 0.87971 0.96971-0.46240
   1  -6  15   95.61   86.00  74-0.02399 0.18632 0.20727-0.85896 0.97799-0.47695
  -1  -6  15  -30.18   55.50  75-0.02221-0.13763 0.23463-0.87485 0.97183-0.46443
   1  -6 -15   29.85   39.70  29-0.06677 0.22669-0.89985 0.25965 0.43107-0.93872
   1   6  15    3.53   96.90  60-0.04733 0.20952-0.20448 0.85430 0.97773-0.47567
  -1   6 -15  223.62   81.30 104 0.03460-0.19381 0.89578-0.25468 0.44314-0.94741
   0   0 -1613768.83  149.00   5-0.04464 0.04464-0.96168 0.96164-0.27053-0.27066
  -1   0 -16 1632.27   49.40   4-0.04402-0.11591-0.95830 0.95889-0.28235-0.25902
   1   0 -16 1373.79   47.20   4-0.04273 0.20251-0.95101 0.95068-0.30618-0.23494
   1   0  16 1320.41   70.20  25-0.06517 0.22503-0.94735 0.94737 0.31351 0.22770
  -1   0  16 1553.18   46.70  23-0.06443-0.09539-0.95938 0.95911 0.27466 0.26647
  -2   0 -1610666.15  149.20   2-0.04076-0.27904-0.93897 0.93929-0.34159-0.19968
   2   0  1611023.19  202.50  28-0.06650 0.38630-0.91200 0.91222 0.40477 0.13647
  -2   0  1611237.68  219.20  25-0.06541-0.25443-0.94262 0.94313 0.32739 0.21393
   3   0  16  117.52   33.40 104 0.03371 0.44670 0.88896-0.89067 0.45674 0.08463
  -3   0  16   60.92   22.40  29-0.06670-0.41261-0.90373 0.90320 0.42287 0.11826
  -3   0  16   63.47   45.30 102 0.03041-0.50876 0.86221-0.86018 0.50564 0.03547
   3   0  16  181.56   34.70  33-0.06730 0.54678-0.83740 0.83728 0.54243-0.00122
   4   0  16  295.50   34.90  97 0.02112 0.61999 0.77757-0.77971 0.62845-0.08749
   4   0  16  148.27   34.40  42-0.06528 0.70603-0.68144 0.68274 0.72896-0.18811
  -4   0  16  236.80   33.30  34-0.06727-0.57201-0.81997 0.81979 0.56844-0.02723
  -4   0  16  257.15   56.60  95 0.01784-0.65648 0.74463-0.74377 0.66724-0.12589
   0  -1 -16 3072.32   59.40  11-0.05329 0.05330-0.99491 0.88845-0.08547-0.45586
   0   1  16 3210.00   55.70  30-0.06698 0.06698-0.88750 0.99410 0.45592 0.08528
   0  -1  16 3391.96   90.50 104 0.03373-0.03373 0.88912-0.99583 0.45643 0.08477
  -1  -1 -16 8346.65  127.00  11-0.05296-0.10692-0.99421 0.88770-0.09346-0.44784
  -1   1  16 8391.43  129.90  30-0.06701-0.09282-0.88582 0.99230 0.45917 0.08201
   1  -1  16 8433.08  137.10  18-0.06075 0.22047-0.99013 0.88286 0.12628 0.41466
   1  -1  16 8518.04  140.40 103 0.03278 0.12721 0.88158-0.98937 0.47089 0.07039
  -1  -1  16 8474.19  119.50  17-0.05966-0.10014-0.99414 0.88696 0.09011 0.45085
  -1  -1  16 8203.04  188.10 103 0.03183-0.19152 0.87400-0.97987 0.48489 0.05626
   1  -1 -16 7882.88  104.60  10-0.05163 0.21147-0.99088 0.88411-0.12450-0.41668
   1   1  16 7828.58  127.70  32-0.06722 0.22738-0.86479 0.97283 0.49762 0.04364
  -2  -1 -16 1178.90   39.00   9-0.05045-0.26925-0.98723 0.88052-0.15110-0.39011
   2  -1  16 1313.11   47.90 101 0.02881 0.29125 0.84864-0.95656 0.52818 0.01304
  -2   1  16 1338.70   41.60  32-0.06724-0.25237-0.86059 0.96695 0.50485 0.03634
   2  -1  16 1340.77   43.60  22-0.06330 0.38335-0.97280 0.86688 0.22282 0.31867
   2   1  16 1229.60   42.10  35-0.06724 0.38695-0.81471 0.92144 0.57596-0.03476
  -2  -1  16 1286.56   37.20  19-0.06125-0.25829-0.98776 0.88050 0.14346 0.39750
  -2  -1  16 1285.84   57.90 100 0.02702-0.34618 0.83286-0.93810 0.55283-0.01161
   2  -1 -16 1187.10   38.70   7-0.04762 0.36738-0.97622 0.86964-0.21146-0.32979
  -3  -1 -16 2444.09   56.20   5-0.04503-0.43440-0.96371 0.85675-0.26313-0.27799
   3  -1  16 2362.48   63.90  27-0.06606 0.54576-0.92673 0.82023 0.36988 0.17136
   3  -1  16 2103.39   62.10  97 0.02084 0.45969 0.77483-0.88342 0.63183-0.09082
  -3   1  16 2548.04   71.70  35-0.06718-0.41211-0.80363 0.90975 0.59133-0.05010
   3   1  16 2363.12   72.70  40-0.06600 0.54598-0.71622 0.82358 0.69474-0.15366
  -3  -1  16 2303.26   85.70  96 0.01885-0.49741 0.75501-0.85999 0.65544-0.11401
   3  -1 -16 2307.84   53.80   2-0.04059 0.52011-0.93790 0.83114-0.34452-0.19667
  -3  -1  16 2600.34   62.30  22-0.06381-0.41547-0.96741 0.86012 0.24505 0.29595
  -4   1  16   19.72   25.30  41-0.06557-0.57308-0.69502 0.80069 0.71599-0.17456
   4  -1  16   40.60   43.90  89 0.00614 0.63837 0.61598-0.72851 0.78774-0.24852
  -4   1  16  -29.37   47.10 102 0.03026-0.66356 0.86097-0.74739 0.50775 0.03315
  -4  -1  16  -10.51   22.40  28-0.06643-0.57253-0.91474 0.80740 0.39854 0.14255
   4   1  16   38.57   30.40  48-0.06139 0.70044-0.54299 0.64937 0.83749-0.29614
   4   1  16  -49.87   50.20 104 0.03377 0.60969 0.88944-0.78797 0.45581 0.08597
  -4  -1  16  123.64   51.20  90 0.00645-0.64453 0.61967-0.72489 0.78483-0.24313
   0  -2 -16  393.22   26.40  17-0.05931 0.05933-0.99510 0.78191 0.07916-0.62056
   0   2  16  251.15   44.60  37-0.06699 0.06692-0.78230 0.99470 0.61929-0.07801
   0  -2  16  395.84   34.30  11-0.05355 0.05356-0.99542 0.78228-0.07920 0.62062
   0  -2  16  652.30   65.50  98 0.02200-0.02194 0.78610-0.99684 0.61770-0.07629
  -1   2  16 8007.06  166.80  37-0.06696-0.09286-0.77927 0.99231 0.62310-0.08187
  -1  -2 -16 7856.79  135.10  17-0.05917-0.10064-0.99546 0.78168 0.07459-0.61551
   1  -2  16 7994.47  121.10  13-0.05506 0.21488-0.99763 0.78408-0.04118 0.58228
   1  -2  16 7885.56  136.60  97 0.02047 0.13954 0.77113-0.98563 0.63635-0.09525
   1   2  16 7903.88  142.30  38-0.06663 0.22656-0.75371 0.96746 0.65382-0.11266
  -1  -2  16 8007.28  133.90  12-0.05389-0.10606-0.99605 0.78339-0.07061 0.61241
  -1  -2  16 7931.45  161.00  96 0.01972-0.17977 0.76366-0.97817 0.64531-0.10423
   1  -2 -16 8054.26  160.50  15-0.05795 0.21805-0.99760 0.78507 0.03790-0.57976
  -2  -2 -16 2892.33   70.70  15-0.05737-0.26223-0.99813 0.78438 0.02116-0.56213
   2  -2  16 2933.51   76.70  16-0.05828 0.37787-0.99716 0.78349 0.04773 0.49332
   2  -2  16 2797.16   96.80  94 0.01607 0.30415 0.72633-0.94134 0.68716-0.14620
  -2   2  16 2892.23   83.20  38-0.06653-0.25300-0.74721 0.96000 0.66125-0.11996
   2   2  16 2954.47   87.80  41-0.06550 0.38535-0.69164 0.90541 0.71927-0.17813
  -2  -2  16 2876.45   93.60  94 0.01516-0.33458 0.71676-0.92939 0.69716-0.15582
  -2  -2  16 3084.33   67.50  13-0.05584-0.26369-0.99822 0.78429-0.02073 0.56156
   2  -2 -16 2771.76   72.40  13-0.05485 0.37464-0.99740 0.78418-0.04665-0.49468
  -3  -2 -16  403.90   25.90  11-0.05327-0.42633-0.99489 0.78155-0.08582-0.45543
  -3   2  16  194.69   26.80  42-0.06518-0.41404-0.67718 0.88987 0.73293-0.19157
   3  -2  16  335.91   35.30  21-0.06258 0.54178-0.97915 0.76522 0.19326 0.34772
   3  -2  16  178.89   55.80  90 0.00741 0.47436 0.63077-0.84815 0.77593-0.23583
   3   2  16  168.64   30.70  46-0.06259 0.54279-0.58060 0.79497 0.81178-0.27091
  -3  -2  16  170.62   45.00  90 0.00731-0.48604 0.62969-0.84169 0.77681-0.23521
   3  -2 -16  335.26   28.40   8-0.04907 0.52860-0.98222 0.76876-0.18120-0.35999
  -4  -2 -16  508.72   35.90   5-0.04546-0.59363-0.96593 0.75210-0.25479-0.28625
   4  -2  16  365.16   30.00  28-0.06657 0.70604-0.90938 0.69602 0.41060 0.13062
   4  -2  16  704.30   54.90  83-0.00577 0.64587 0.46793-0.68210 0.88374-0.34291
  -4   2  16  368.27   45.20  47-0.06151-0.57848-0.54660 0.76079 0.83513-0.29423
  -4  -2  16  529.72   30.70  22-0.06350-0.57553-0.97080 0.75688 0.23131 0.30968
  -4  -2  16  379.38   48.90  84-0.00419-0.63333 0.48848-0.69982 0.87257-0.33038
   4   2  16  362.95   45.90  53-0.05575 0.69824-0.39113 0.60724 0.91864-0.37912
   0  -3 -16  908.05   36.30  21-0.06302 0.06304-0.97544 0.65553 0.21107-0.75254
   0   3  16 1004.37   60.10  43-0.06465 0.06466-0.65485 0.97517 0.75299-0.21183
   0  -3  16  986.99   38.00   7-0.04757 0.04755-0.97597 0.65561-0.21266 0.75360
   0  -3  16 1086.37   60.70  91 0.00969-0.00969 0.65687-0.97706 0.75394-0.21275
  -1  -3 -16 4784.88   99.50  21-0.06292-0.09696-0.97636 0.65637 0.20681-0.74818
   1  -3  16 5230.41  100.30   8-0.04917 0.20890-0.98263 0.66208-0.17897 0.71973
  -1   3  16 4792.82  192.40  43-0.06458-0.09526-0.65208 0.97214 0.75539-0.21417
   1  -3  16 4428.21  115.70  90 0.00824 0.15184 0.64034-0.96194 0.76805-0.22719
   1   3  16 4860.06  106.40  44-0.06386 0.22382-0.62476 0.94535 0.77820-0.23711
  -1  -3  16 4875.91   93.10   7-0.04797-0.11184-0.97773 0.65736-0.20430 0.74523
   1  -3 -16 5122.94   97.70  20-0.06208 0.22197-0.98283 0.66283 0.17377-0.71511
  -1  -3  16 4670.92  115.60  90 0.00801-0.16802 0.63770-0.95875 0.77024-0.22926
   2  -3  16 3444.98   97.40  11-0.05277 0.37231-0.99381 0.67337-0.09780 0.63872
   2  -3  16 3545.34   89.70  88 0.00383 0.31636 0.58856-0.91010 0.80844-0.26765
  -2  -3 -16 3421.09   80.90  19-0.06168-0.25812-0.98536 0.66546 0.15894-0.70039
  -2   3  16 3330.38   90.60  45-0.06361-0.25598-0.61562 0.93534 0.78547-0.24416
   2   3  16 3747.00   88.30  47-0.06186 0.38200-0.55726 0.87841 0.82803-0.28716
  -2  -3  16 3510.77   85.90   9-0.05032-0.26934-0.98678 0.66654-0.15403 0.69512
  -2  -3  16 2821.72   86.70  88 0.00386-0.32317 0.58898-0.90801 0.80813-0.26661
   2  -3 -16 2919.48   76.80  17-0.05973 0.37958-0.99395 0.67409 0.09220-0.63366
   3  -3  16  599.14   52.70  84-0.00436 0.48508 0.48635-0.80844 0.87375-0.33336
  -3  -3 -16  829.97   44.40  16-0.05894-0.41968-0.99596 0.67434 0.06770-0.60756
   3  -3  16  709.73   38.90  15-0.05791 0.53684-0.99764 0.67672 0.03679 0.50383
  -3   3  16  603.62   49.50  48-0.06135-0.41695-0.54176 0.85932 0.83829-0.29620
  -3  -3  16  839.03   39.40  12-0.05427-0.42496-0.99664 0.67599-0.06129 0.60204
   3  -3 -16  426.48  -26.50  13-0.05524 0.53482-0.99780 0.67770-0.03656-0.50467
   3   3  16  709.56   59.30  51-0.05785 0.53816-0.44391 0.76512 0.89420-0.35350
  -3  -3  16  753.93   69.40  85-0.00333-0.47517 0.49962-0.81794 0.86624-0.32432
   0  -4 -16 3914.79   79.40  25-0.06508 0.06512-0.94903 0.52252 0.30839-0.85014
   0   4  16 4973.39  130.40  48-0.06071 0.06069-0.52267 0.94911 0.85037-0.30904
   0  -4  16 5138.71  101.80   3-0.04248 0.04246-0.94954 0.52247-0.31076 0.85160
   0  -4  16 3569.76  103.50  86-0.00127 0.00127 0.52579-0.95109 0.85062-0.30891
   1  -4  16 2218.81   87.70  85-0.00296 0.16302 0.50435-0.93236 0.86349-0.32269
  -1  -4 -16 2615.95   63.10  25-0.06504-0.09477-0.94969 0.52265 0.30636-0.84726
   1  -4  16 3036.06   88.30   4-0.04408 0.20386-0.95864 0.53161-0.28117 0.82209
  -1   4  16 2725.28   90.30  49-0.06054-0.09935-0.51757 0.94474 0.85350-0.31240
  -1  -4  16 2729.08   74.80   4-0.04295-0.11684-0.95230 0.52521-0.30211 0.84291
  -1  -4  16 2018.92   90.00  85-0.00274-0.15712 0.50721-0.93408 0.86182-0.32063
   1   4  16 2347.98   95.10  50-0.05925 0.22090-0.48126 0.91555 0.87457-0.33611
   1  -4 -16 2395.47   87.60  23-0.06442 0.22441-0.95953 0.53301 0.27412-0.81581
  -2  -4 -16   87.26   29.60  23-0.06423-0.25532-0.96222 0.53505 0.26460-0.80532
   2  -4  16  177.88   31.30   7-0.04774 0.36739-0.97673 0.54980-0.20908 0.75016
  -2   4  16  204.20   41.40  50-0.05917-0.26049-0.47897 0.90565 0.87584-0.33458
   2  -4  16  155.83   71.40  83-0.00728 0.32753 0.44793-0.87625 0.89404-0.35343
   2   4  16  281.10   46.30  52-0.05710 0.37713-0.42459 0.85219 0.90358-0.36270
  -2  -4  16  220.83   58.00  83-0.00648-0.31279 0.45857-0.88419 0.88864-0.34695
   2  -4 -16  182.37   28.70  21-0.06274 0.38265-0.97782 0.55127 0.19981-0.74140
  -2  -4  16  228.93   45.30   5-0.04545-0.27430-0.96587 0.53911-0.25500 0.79632
  -3  -4 -16  253.33   30.50  20-0.06220-0.41727-0.98196 0.55500 0.17857-0.71963
   3  -4  16  128.69   27.60  11-0.05323 0.53255-0.99480 0.56770-0.08686 0.62778
  -3   4  16  169.55   37.60  53-0.05607-0.42325-0.39888 0.82527 0.91529-0.37388
   3  -4  16  237.26   60.60  79-0.01533 0.49790 0.33652-0.76802 0.94155-0.40279
   3   4  16  154.05   44.10  56-0.05244 0.53277-0.31379 0.74172 0.94804-0.40744
   3  -4 -16  220.69   27.40  17-0.05934 0.53912-0.99502 0.56841 0.08003-0.62149
  -3  -4  16  121.89   36.40   8-0.04979-0.43066-0.98492 0.55923-0.16570 0.70837
  -3  -4  16  216.89   79.20  79-0.01349-0.46768 0.36264-0.79223 0.93183-0.39199
   0  -5 -16 3729.69  129.80  27-0.06616 0.06616-0.92378 0.39021 0.37716-0.91834
   0  -5  16 5068.36  115.10   1-0.03860 0.03859-0.92480 0.39116-0.37850 0.91951
   0   5  16 5605.04  146.30  53-0.05574 0.05573-0.39094 0.92435 0.91873-0.37746
   0  -5  16 4239.66  131.80  81-0.01134 0.01133 0.39278-0.92570 0.91956-0.37810
  -1  -5 -16  642.61   42.70  27-0.06612-0.09371-0.92490 0.39129 0.37441-0.91549
   1  -5  16  792.91   49.40   2-0.04011 0.19993-0.93482 0.40119-0.35286 0.89391
   1  -5  16  542.24   74.60  80-0.01291 0.17295 0.37081-0.90535 0.92862-0.38784
  -1   5  16  869.24   69.00  54-0.05550-0.10440-0.38503 0.91899 0.92123-0.38020
  -1  -5  16  741.43   68.50  80-0.01241-0.14742 0.37791-0.91129 0.92576-0.38448
   1  -5 -16  741.73   43.00  26-0.06571 0.22558-0.93595 0.40243 0.34594-0.88722
   1   5  16  723.12   73.20  54-0.05453 0.21445-0.36179 0.89567 0.93066-0.38960
   2  -5  16  301.49   39.10   4-0.04364 0.36323-0.95620 0.42251-0.28945 0.83039
  -2   5  16  172.24   45.80  55-0.05384-0.26579-0.34586 0.87919 0.93674-0.39544
  -2  -5 -16  374.83   52.70  26-0.06557-0.25409-0.93923 0.40560 0.33698-0.87803
   2  -5  16  114.75   79.20  77-0.01737 0.33903 0.30696-0.84540 0.95156-0.41274
   2   5  16  246.60   57.80  57-0.05169 0.37177-0.29720 0.83158 0.95342-0.41262
  -2  -5  16  304.08   33.40   3-0.04156-0.27810-0.94396 0.41033-0.32744 0.86850
  -2  -5  16  172.79   92.20  78-0.01637-0.30523 0.32145-0.86038 0.94678-0.40813
   2  -5 -16  309.99   43.80  24-0.06449 0.38455-0.95864 0.42548 0.27722-0.81920
   0  -6 -16  656.10   44.10  29-0.06667 0.06668-0.90469 0.26445 0.42081-0.96209
   0   6 -16  403.57   58.00 105 0.03590-0.03589 0.90561-0.26526 0.42260-0.96351
   0   6  16  960.57   71.50  58-0.05017 0.05021-0.26409 0.90506 0.96319-0.42232
   0  -6  16  475.91   79.70  76-0.02024 0.02026 0.26449-0.90571 0.96418-0.42342
   1  -6  16  277.50   66.50  75-0.02165 0.18175 0.24326-0.88477 0.96972-0.42912
  -1   6  16    4.09   67.50  58-0.04993-0.10993-0.25888 0.89922 0.96462-0.42345
  -1  -6 -16  163.46   49.50  29-0.06662-0.09348-0.90729 0.26774 0.41519-0.95895
   1   6  16  209.08   51.40  59-0.04890 0.20902-0.23710 0.87850 0.97025-0.42960
  -1   6 -16  -12.76   59.20 106 0.03725-0.19691 0.91540-0.27486 0.40083-0.94111
  -1  -6  16  -43.93  114.10  76-0.02022-0.13843 0.26483-0.89727 0.96408-0.41922
   1  -6 -16  128.54   49.90  28-0.06631 0.22692-0.91903 0.27970 0.38857-0.93289
   0   0 -17  415.25   34.50   4-0.04372 0.04373-0.95665 0.95689-0.28795-0.28715
   0   0  17  683.15   34.10  24-0.06468 0.06467-0.95568 0.95552 0.28723 0.28775
  -1   0 -17 1858.74   54.90   4-0.04318-0.11669-0.95360 0.95373-0.29795-0.27711
   1   0 -17 1938.41   50.40   3-0.04190 0.20174-0.94604 0.94601-0.32133-0.25369
  -1   0  17 1793.26   45.20  24-0.06476-0.09506-0.95446 0.95419 0.29124 0.28371
   1   0  17 1689.55   79.40  25-0.06525 0.22386-0.94579 0.94055 0.31814 0.25546
  -2   0 -17   -4.97   31.90   2-0.04003-0.27968-0.93433 0.93434-0.35416-0.22087
  -2   0  17    7.40   21.70  26-0.06560-0.25400-0.93841 0.93804 0.33923 0.23571
  -2   0  17   52.86   32.00 106 0.03760-0.35688 0.91781-0.91673 0.39523 0.17959
   2   0  17   60.51   29.70  29-0.06661 0.38661-0.90750 0.90819 0.41474 0.16041
  -3   0  17 3817.19  124.20  29-0.06677-0.41254-0.90000 0.89946 0.43075 0.14419
  -3   0  17 3934.68   96.00 102 0.03020-0.50858 0.86044-0.85846 0.50865 0.06623
   3   0  17 3786.21   91.40  33-0.06730 0.54702-0.83629 0.83655 0.54414 0.03090
   3   0  17 3495.83   92.30 104 0.03322 0.44750 0.88507-0.88736 0.46428 0.11104
   4   0  17  177.67   25.90  41-0.06554 0.70558-0.69352 0.69414 0.71745-0.14255
   4   0  17  296.54   47.60  97 0.02189 0.61762 0.78512-0.78525 0.61896-0.04394
  -4   0  17  208.24   31.80  34-0.06727-0.57145-0.82158 0.82059 0.56611 0.00891
  -4   0  17  149.72   52.80  96 0.01833-0.65706 0.74964-0.74886 0.66160-0.08648
   0  -1 -1719887.48  109.20  10-0.05213 0.05212-0.99222 0.88540-0.11307-0.46190
   0   1  1719722.79  108.50  30-0.06702 0.06701-0.88469 0.99126 0.46134 0.11367
   0  -1  1719992.40  104.50  18-0.06035 0.06032-0.99182 0.88467 0.11250 0.46230
   0  -1  1718965.15  218.30 104 0.03337-0.03337 0.88625-0.99303 0.46201 0.11303
  -1  -1 -17 6222.96  100.30  10-0.05178-0.10805-0.99130 0.88446-0.12103-0.45393
   1  -1  17 7140.92  109.40  19-0.06151 0.22127-0.98632 0.87923 0.15295 0.42190
  -1   1  17 6912.94  120.40  30-0.06703-0.09273-0.88368 0.98941 0.46327 0.11164
  -1  -1  17 6624.79  106.40  18-0.06051-0.09929-0.99118 0.88396 0.11787 0.45690
  -1  -1  17 6699.08  162.60 103 0.03158-0.19126 0.87188-0.97774 0.48870 0.08625
   1  -1 -17 6897.18  107.60   9-0.05049 0.21032-0.98736 0.88055-0.15024-0.42474
   1   1  17 6470.79  107.00  32-0.06722 0.22710-0.86405 0.97089 0.49889 0.07615
  -2  -1 -17 2703.92   72.60   8-0.04926-0.27053-0.98296 0.87655-0.17708-0.39808
   2  -1  17 2705.46   78.30 101 0.02870 0.29137 0.84763-0.95554 0.52981 0.04527
  -2   1  17 2607.45   65.30  32-0.06725-0.25234-0.85899 0.96529 0.50755 0.06744
   2  -1  17 2711.22   61.40  22-0.06375 0.38359-0.96801 0.86159 0.24268 0.33246
  -2  -1  17 2512.25   62.90  20-0.06193-0.25764-0.98376 0.87662 0.16844 0.40639
  -2  -1  17 2807.66   86.90 100 0.02700-0.34616 0.83267-0.93792 0.55312 0.02188
   2  -1 -17 2591.50   84.70   6-0.04662 0.36632-0.97163 0.86491-0.23187-0.34315
   3  -1  17  157.19   35.00  97 0.02118 0.45934 0.77811-0.88669 0.62777-0.05285
  -3  -1 -17  129.44   35.40   4-0.04399-0.43556-0.95815 0.85143-0.28288-0.29215
   3  -1  17   86.43   32.60  27-0.06612 0.54347-0.92516 0.81515 0.37377 0.20045
  -3   1  17  149.58   39.40  35-0.06718-0.41239-0.80414 0.91088 0.59063-0.01560
  -3  -1  17  106.42   21.70  23-0.06423-0.41521-0.96217 0.85522 0.26477 0.31017
  -3  -1  17  137.81   39.00  96 0.01926-0.49778 0.75910-0.86401 0.65069-0.07551
   3   1  17  130.04   38.40  39-0.06619 0.54461-0.72666 0.83163 0.68381-0.10855
   3  -1 -17   83.41   39.80   2-0.04024 0.51779-0.93567 0.82577-0.35057-0.22359
   4  -1  17   -3.53   28.90  35-0.06722 0.70828-0.81097 0.70590 0.58122-0.00621
   4  -1  17   52.87   39.70  90 0.00811 0.63380 0.63883-0.74850 0.76930-0.19505
  -4   1  17   84.43   35.50  41-0.06577-0.57241-0.70440 0.80937 0.70675-0.13144
  -4   1  17   60.31   53.60 102 0.02943-0.66594 0.85391-0.74396 0.51958 0.05520
   4   1  17    0.89   22.20  47-0.06186 0.70245-0.55726 0.66509 0.82803-0.25343
   4   1  17   34.44   27.70 104 0.03386 0.60706 0.89015-0.78540 0.45441 0.12092
  -4  -1  17  230.06   47.50  90 0.00756-0.64541 0.63253-0.73746 0.77450-0.19899
  -4  -1  17   -1.32   35.20  28-0.06646-0.57021-0.91362 0.80306 0.40110 0.17310
   0  -2 -17  958.23   42.20  16-0.05813 0.05812-0.99738 0.78393 0.04311-0.61812
   0   2  17 1091.51   51.90  37-0.06699 0.06703-0.78284 0.99680 0.61861-0.04360
   0  -2  17 1096.51   42.70  13-0.05501 0.05503-0.99758 0.78444-0.04252 0.61776
   0  -2  17  877.08   70.20  97 0.02180-0.02183 0.78421-0.99874 0.62011-0.04513
   1  -2  17 4551.77   93.00  14-0.05640 0.21623-0.99839 0.78490-0.00569 0.58067
   1  -2  17 4058.94   99.70  97 0.02080 0.13917 0.77439-0.98860 0.63237-0.05739
  -1  -2 -17 4195.74   95.80  15-0.05789-0.10201-0.99766 0.78460 0.03625-0.61155
  -1   2  17 4478.08  105.10  37-0.06697-0.09293-0.78063 0.99459 0.62140-0.04640
   1   2  17 4521.10   98.40  38-0.06668 0.22661-0.75735 0.97112 0.64959-0.07459
  -1  -2  17 4556.27   79.40  13-0.05523-0.10460-0.99780 0.78420-0.03673 0.61163
   1  -2 -17 4344.28   86.70  14-0.05681 0.21664-0.99837 0.78484 0.00564-0.58059
  -1  -2  17 5006.19  116.70  97 0.02027-0.17994 0.76913-0.98161 0.63877-0.06368
  -2   2  17 4822.55  107.70  38-0.06659-0.25301-0.75096 0.96399 0.65698-0.08192
  -2  -2 -17 4478.42  100.10  14-0.05612-0.26344-0.99834 0.78449-0.01332-0.56141
   2  -2  17 4432.62  127.40  95 0.01662 0.30352 0.73212-0.94690 0.68098-0.10610
   2   2  17 5329.41  128.80  41-0.06565 0.38550-0.69864 0.91241 0.71245-0.13748
  -2  -2  17 4739.30  122.50  94 0.01569-0.33512 0.72231-0.93498 0.69139-0.11626
  -2  -2  17 4988.29  120.90  15-0.05711-0.26261-0.99827 0.78489 0.01382 0.56123
   2  -2 -17 4899.81  102.80  11-0.05364 0.37348-0.99559 0.78246-0.07695-0.49826
  -3  -2 -17  379.14   27.80  10-0.05204-0.42743-0.99198 0.77840-0.11515-0.45978
   3  -2  17  295.57   32.90  21-0.06319 0.54268-0.97387 0.76036 0.21813 0.35686
   3  -2  17  245.84   56.10  91 0.00853 0.47277 0.64366-0.86025 0.76526-0.19094
  -3   2  17  270.79   41.60  41-0.06539-0.41348-0.68630 0.89822 0.72437-0.14909
   3  -2 -17  350.70   30.40   7-0.04796 0.52760-0.97770 0.76439-0.20447-0.37061
   3   2  17  165.46   46.30  45-0.06301 0.54293-0.59464 0.80861 0.80152-0.22665
  -3  -2  17  397.47   37.60  18-0.06007-0.41822-0.99285 0.77706 0.10320 0.47040
  -3  -2  17  157.98   78.60  90 0.00741-0.48937 0.63077-0.84838 0.77593-0.20190
   0  -3 -17 7408.68  170.70  20-0.06199 0.06200-0.98338 0.66331 0.17067-0.74577
   0  -3  17 7998.49  134.90   8-0.04949 0.04947-0.98384 0.66332-0.17210 0.74670
   0   3  17 7940.73  201.60  42-0.06485 0.06485-0.66292 0.98316 0.74588-0.17087
   0  -3  17 7779.04  163.60  91 0.01037-0.01037 0.66450-0.98500 0.74721-0.17225
   1  -3  17  503.67   53.90  91 0.00912 0.15083 0.65042-0.97117 0.75952-0.18461
  -1  -3 -17  740.10   45.90  20-0.06210-0.09724-0.98268 0.65909 0.17462-0.74575
   1  -3  17  866.18   46.00   9-0.05103 0.21080-0.98908 0.66870-0.13826 0.71302
  -1   3  17  775.10   60.20  43-0.06476-0.09513-0.65956 0.98016 0.74886-0.17391
   1   3  17  926.68   48.20  44-0.06411 0.22408-0.63409 0.95472 0.77060-0.19567
  -1  -3  17  653.53   52.70  91 0.00893-0.16870 0.64830-0.96792 0.76133-0.18620
  -1  -3  17  680.59   43.20   9-0.04994-0.10999-0.98545 0.66577-0.16247 0.73800
   1  -3 -17  894.82   47.50  19-0.06103 0.22075-0.98887 0.66835 0.13572-0.71034
  -2  -3 -17  303.37   28.40  18-0.06056-0.25919-0.99097 0.67094 0.11960-0.69474
   2  -3  17  398.42   30.10  12-0.05434 0.37397-0.99675 0.67647-0.05955 0.63445
  -2   3  17  391.87   37.70  44-0.06388-0.25574-0.62544 0.94528 0.77765-0.20257
   2  -3  17  357.65   61.20  89 0.00457 0.31630 0.59741-0.92092 0.80192-0.22773
  -2  -3  17  373.56   31.50  10-0.05200-0.26764-0.99189 0.67160-0.11601 0.69088
   2  -3 -17  494.70   31.20  16-0.05859 0.37824-0.99665 0.67641 0.05707-0.63199
   2   3  17  399.36   48.80  46-0.06233 0.38184-0.57212 0.89181 0.81780-0.24265
  -2  -3  17  212.47   74.40  89 0.00464-0.32435 0.59833-0.91849 0.80124-0.22622
  -3  -3 -17  479.67   32.50  15-0.05761-0.42172-0.99795 0.67745 0.02796-0.60267
  -3   3  17  563.93   54.70  47-0.06169-0.41759-0.55219 0.87176 0.83144-0.25624
   3  -3  17  820.58  -41.10  16-0.05906 0.53854-0.99571 0.67548 0.07127 0.50369
   3  -3  17  495.94   61.50  85-0.00338 0.48559 0.49891-0.82354 0.86665-0.29322
  -3  -3  17  590.80   39.20  13-0.05563-0.42373-0.99811 0.67766-0.02627 0.60102
  -3  -3  17  465.96   56.40  85-0.00226-0.47666 0.51335-0.83237 0.85818-0.28277
   3  -3 -17  510.39   34.20  12-0.05402 0.53374-0.99625 0.67633-0.06756-0.50763
   3   3  17  544.10   61.50  51-0.05867 0.53767-0.46570 0.78502 0.88299-0.30765
   0  -4 -17 4348.13   89.10  23-0.06430 0.06428-0.96119 0.53411 0.26830-0.84297
   0   4  17 4262.22  137.30  48-0.06111 0.06112-0.53435 0.96145 0.84305-0.26809
   0  -4  17 4704.79   97.20   5-0.04474 0.04473-0.96219 0.53523-0.26868 0.84352
   0  -4  17 4086.12  108.20  86-0.00051 0.00051 0.53544-0.96294 0.84457-0.26973
  -1  -4 -17 3003.50   71.30  23-0.06423-0.09557-0.96217 0.53507 0.26477-0.83939
   1  -4  17 3231.14  111.70   6-0.04625 0.20608-0.96988 0.54296-0.23916 0.81408
  -1   4  17 3122.78  133.00  48-0.06099-0.09885-0.53096 0.95773 0.84520-0.27015
   1  -4  17 2989.65  111.70  85-0.00188 0.16193 0.51809-0.94606 0.85532-0.28063
   1   4  17 2884.33  119.70  49-0.06011 0.22009-0.50519 0.93260 0.86091-0.28605
  -1  -4  17 3159.55  105.60   5-0.04516-0.11467-0.96439 0.53744-0.26061 0.83547
   1  -4 -17 3229.80   77.20  22-0.06356 0.22343-0.97011 0.54329 0.23420-0.80927
  -1  -4  17 2890.71  109.90  85-0.00171-0.15815 0.52029-0.94719 0.85399-0.27897
   2  -4  17  692.66   59.50  83-0.00607 0.32638 0.46397-0.89248 0.88583-0.31138
  -2  -4 -17 1040.56   58.10  22-0.06328-0.25649-0.97297 0.54628 0.22211-0.79737
   2  -4  17  977.56   57.00   8-0.04965 0.36926-0.98441 0.55741-0.16876 0.74360
  -2   4  17 1088.94   63.80  49-0.05972-0.25981-0.49421 0.92043 0.86729-0.29206
   2   4  17  773.82   69.30  52-0.05770 0.37797-0.44003 0.86818 0.89613-0.32158
  -2  -4  17  659.58  105.40  84-0.00456-0.31225 0.48376-0.90225 0.87519-0.29741
   2  -4 -17  666.01   42.00  20-0.06181 0.38106-0.98457 0.55706 0.16373-0.73788
  -3  -4 -17  424.74   34.30  19-0.06111-0.41849-0.98846 0.56167 0.13862-0.71372
   3  -4  17  675.41   44.30  12-0.05473 0.53400-0.99727 0.57012-0.04964 0.62434
   3  -4  17  437.44   70.50  80-0.01335 0.49383 0.36471-0.79305 0.93102-0.35667
  -3   4  17  487.93   59.10  52-0.05690-0.42169-0.41959 0.84450 0.90593-0.33015
   3   4  17  361.07   64.50  55-0.05337 0.53345-0.33491 0.76251 0.94074-0.36607
  -3  -4  17  361.87   47.70  10-0.05180-0.43086-0.99134 0.56859-0.12069 0.70076
  -3  -4  17  759.31   97.70  80-0.01150-0.46654 0.39051-0.81470 0.92053-0.34438
   3  -4 -17  332.93   45.60  16-0.05829 0.53715-0.99715 0.56957 0.04792-0.62214
   0  -5 -17   79.23   48.60  25-0.06548 0.06574-0.94118 0.40921 0.33150-0.91007
   0   5  17   21.77   52.50  53-0.05634 0.05637-0.40558 0.93964 0.91232-0.33748
   0  -5  17  104.08   58.10  81-0.01030 0.01030 0.40707-0.94094 0.91334-0.33842
   0  -5  17   34.07   43.40   3-0.04182 0.04230-0.94559 0.41678-0.32265 0.90802
  -1   5  17  488.45   50.80  53-0.05616-0.10372-0.40111 0.93492 0.91431-0.33937
  -1  -5 -17  700.80   51.00  26-0.06558-0.09398-0.93898 0.40416 0.33767-0.90985
   1  -5  17  719.00   62.50   3-0.04182 0.20005-0.94559 0.40872-0.32265 0.89046
   1  -5  17  688.64  105.20  80-0.01168 0.17163 0.38804-0.92212 0.92157-0.34674
   1   5  17  757.14   65.20  54-0.05518 0.21524-0.37736 0.91179 0.92442-0.34973
  -1  -5  17  783.14   50.50   3-0.04143-0.11840-0.94316 0.40952-0.32974 0.90459
  -1  -5  17  572.21   88.30  81-0.01128-0.14856 0.39358-0.92708 0.91922-0.34417
   1  -5 -17  628.94   48.70  25-0.06509 0.22446-0.94889 0.41445 0.30882-0.88196
  -2  -5 -17  221.85   34.70  24-0.06486-0.25479-0.95281 0.41916 0.29657-0.87143
   2  -5  17  437.05   48.00   6-0.04574 0.36526-0.96738 0.43360-0.24916 0.82376
   2  -5  17  172.98   91.90  78-0.01561 0.33566 0.33253-0.86699 0.94296-0.36832
  -2   5  17  115.93   71.90  54-0.05505-0.26240-0.37430 0.90015 0.92567-0.34767
   2   5  17  280.34   55.30  56-0.05250 0.37265-0.31511 0.84970 0.94760-0.37303
  -2  -5  17  434.66   44.10   4-0.04367-0.27587-0.95640 0.42260-0.28878 0.86331
  -2  -5  17   77.11   76.10  79-0.01453-0.30496 0.34788-0.88083 0.93743-0.36214
   2  -5 -17  207.00   35.60  22-0.06368 0.38346-0.96886 0.43540 0.23928-0.81448
   0  -6 -17  398.12   53.40  27-0.06627 0.06611-0.92047 0.27953 0.38514-0.95786
   0  -6  17  710.57   50.60   1-0.03829 0.03829-0.92268 0.28237-0.38366 0.95854
   0   6  17  359.04   84.20  58-0.05071 0.05098-0.27561 0.92070 0.95993-0.38693
   0  -6  17  467.34   93.30  77-0.01916 0.01919 0.28062-0.92259 0.95963-0.38531
   0   0 -18  651.89   49.20   4-0.04279 0.04281-0.95138 0.95173-0.30503-0.30393
   0   0  18 1061.81   50.10  25-0.06508 0.06523-0.94909 0.95129 0.30822 0.30133
  -1   0 -18 7557.32  226.70   3-0.04182-0.11862-0.94559 0.95036-0.32265-0.28764
   1   0 -18 8430.86  165.70   2-0.04102 0.20096-0.94066 0.94105-0.33686-0.27210
   1   0  18 8918.38  160.70  26-0.06566 0.22551-0.93716 0.93717 0.34267 0.26619
  -1   0  18 7222.79  303.60  25-0.06510-0.09482-0.94866 0.94936 0.30953 0.29954
   2   0  18  213.27   29.00  29-0.06670 0.38651-0.90329 0.90352 0.42382 0.18509
  -2   0  18  212.74   29.30  26-0.06582-0.25378-0.93325 0.93288 0.35313 0.25561
  -2   0  18  190.53   37.80 106 0.03695-0.35622 0.91323-0.91212 0.40577 0.20283
  -3   0  18  471.17   49.80 102 0.02989-0.50826 0.85787-0.85588 0.51300 0.09563
   3   0  18  583.70   43.00  34-0.06730 0.54743-0.83375 0.83463 0.54802 0.06089
   3   0  18  497.83   51.10 103 0.03280 0.44758 0.88180-0.88343 0.47049 0.13862
  -3   0  18  365.69   37.70  29-0.06686-0.41269-0.89521 0.89520 0.44059 0.16826
   0  -1 -18 3485.38   76.40   9-0.05090 0.05092-0.98869 0.88228-0.14106-0.46796
   0  -1  18 3635.49   64.60  19-0.06114 0.06111-0.98831 0.88112 0.13966 0.46894
   0   1  18 4086.09   95.30  31-0.06707 0.06707-0.88099 0.98780 0.46835 0.14052
   0  -1  18 4046.18  132.50 103 0.03289-0.03291 0.88253-0.98963 0.46910 0.13980
  -1  -1 -18 7951.79  134.90   9-0.05058-0.10927-0.98764 0.88091-0.14834-0.46050
   1  -1  18 8294.67  126.40  20-0.06220 0.22200-0.98196 0.87503 0.17857 0.43017
   1  -1  18 8050.38  205.80 103 0.03211 0.12780 0.87626-0.98349 0.48077 0.12815
  -1   1  18 8360.22  142.90  31-0.06710-0.09286-0.87851 0.98634 0.47298 0.13602
   1   1  18 8228.62  138.60  32-0.06724 0.22708-0.86147 0.96814 0.50334 0.10551
  -1  -1  18 8288.89  140.10  19-0.06128-0.09851-0.98761 0.88031 0.14449 0.46405
   1  -1 -18 7495.89  139.60   8-0.04933 0.20922-0.98321 0.87666-0.17570-0.43323
  -1  -1  18 8313.68  223.70 103 0.03120-0.19093 0.86877-0.97490 0.49423 0.11456
   2  -1  18 1537.03   50.10  23-0.06420 0.38403-0.96259 0.85616 0.26325 0.34571
   2  -1  18 1288.33   57.60 101 0.02846 0.29161 0.84560-0.95352 0.53306 0.07589
  -2   1  18 1440.09   52.80  32-0.06727-0.25232-0.85649 0.96276 0.51176 0.09705
   2   1  18 1660.03   52.90  35-0.06724 0.38694-0.81481 0.92151 0.57581 0.03304
  -2  -1  18 1424.26   66.40 100 0.02686-0.34603 0.83141-0.93668 0.55500 0.05377
  -2  -1  18 1494.25   56.80  21-0.06259-0.25717-0.97909 0.87255 0.19357 0.41537
   2  -1 -18 1288.70   55.50   5-0.04553 0.36548-0.96629 0.86017-0.25339-0.35570
   3  -1  18  840.62   47.70  97 0.02132 0.45922 0.77953-0.88815 0.62600-0.01719
  -3  -1 -18  851.86   48.80   4-0.04287-0.43712-0.95181 0.84594-0.30369-0.30547
   3  -1  18  797.53   44.40  28-0.06636 0.54537-0.91736 0.80985 0.39249 0.21615
  -3   1  18 1035.00   52.70  35-0.06722-0.40970-0.81097 0.91181 0.58122 0.02746
  -3  -1  18  931.19   38.80  24-0.06460-0.41470-0.95693 0.84971 0.28305 0.32561
  -3  -1  18  856.54   55.10  96 0.01949-0.49802 0.76136-0.86629 0.64804-0.03911
   3   1  18  917.53   53.90  39-0.06620 0.54614-0.72707 0.83437 0.68336-0.07456
   0  -2 -18  729.79   41.40  14-0.05694 0.05690-0.99834 0.78447 0.00904-0.61755
   0  -2  18  769.69   34.30  14-0.05630 0.05630-0.99838 0.78487-0.00831 0.61710
   0   2  18  716.31   46.80  37-0.06701 0.06703-0.78391 0.99772 0.61725-0.00840
   0  -2  18  565.47   74.20  97 0.02194-0.02196 0.78556-0.99971 0.61840-0.00956
  -1  -2 -18 6857.63  138.60  14-0.05670-0.10312-0.99839 0.78474 0.00250-0.61118
   1  -2  18 7887.99  203.90  15-0.05761 0.21746-0.99794 0.78452 0.02814 0.58072
   1  -2  18 7272.77  137.10  97 0.02094 0.13902 0.77581-0.99005 0.63061-0.02178
  -1   2  18 7278.16  143.90  37-0.06697-0.09302-0.78063 0.99558 0.62140-0.01256
   1   2  18 7138.98  137.20  38-0.06671 0.22663-0.75951 0.97323 0.64707-0.03823
  -1  -2  18 7634.38  200.90  14-0.05653-0.10331-0.99840 0.78488-0.00221 0.61098
   1  -2 -18 7262.71  157.70  13-0.05559 0.21543-0.99808 0.78462-0.02749-0.58134
  -1  -2  18 6703.18  136.40  97 0.02047-0.18008 0.77113-0.98327 0.63635-0.02746
   2  -2  18  735.63   33.60  18-0.06024 0.37977-0.99223 0.77846 0.10886 0.49977
   2  -2  18  750.05   53.30  95 0.01698 0.30314 0.73577-0.95050 0.67702-0.06826
  -2   2  18  687.21   38.10  38-0.06662-0.25298-0.75336 0.96641 0.65422-0.04535
  -2  -2 -18  609.22   41.20  12-0.05477-0.26514-0.99731 0.78449-0.04869-0.56060
   2   2  18  785.52   55.00  41-0.06572 0.38600-0.70227 0.91705 0.70887-0.10017
  -2  -2  18  222.30  -38.40  15-0.05805-0.26089-0.99748 0.78177 0.04083 0.56637
  -2  -2  18  543.60   82.50  94 0.01605-0.33547 0.72615-0.93878 0.68735-0.07843
   2  -2 -18  732.05   45.20  10-0.05241 0.37237-0.99295 0.78005-0.10634-0.50285
  -3  -2 -18  524.61   33.40   9-0.05076-0.42882-0.98822 0.77483-0.14437-0.46450
   3  -2  18  731.75   52.10  91 0.00952 0.47087 0.65490-0.86986 0.75565-0.14706
  -3   2  18  591.06   40.80  41-0.06549-0.41366-0.69114 0.90367 0.71975-0.11079
   3  -2  18  691.24   40.20  22-0.06374 0.54347-0.96817 0.75499 0.24206 0.36691
   3   2  18  618.90   46.20  45-0.06329 0.54342-0.60444 0.81872 0.79414-0.18548
  -3  -2  18  643.37   48.30  19-0.06104-0.41851-0.98883 0.77539 0.13596 0.47288
  -3  -2  18  663.89   76.30  91 0.00855-0.48867 0.64393-0.85834 0.76504-0.15636
   3  -2 -18  509.77   41.70   6-0.04688 0.52642-0.97287 0.75943-0.22654-0.38230
   0  -3 -18  216.05   42.20  19-0.06098 0.06088-0.98909 0.66788 0.13411-0.74177
   0   3  18  622.31   40.50  42-0.06499 0.06500-0.66894 0.98917 0.74047-0.13163
   0  -3  18  216.53   49.70  92 0.01090-0.01090 0.67041-0.99104 0.74191-0.13312
   0  -3  18  576.96   44.00  10-0.05120 0.05111-0.98960 0.66837-0.13444 0.74207
   1  -3  18   26.44   57.30  91 0.00971 0.15024 0.65714-0.97796 0.75371-0.14496
  -1  -3 -18   41.83   47.10  19-0.06130-0.09739-0.98748 0.65951 0.14536-0.74536
   1  -3  18   39.12   35.60  10-0.05239 0.21120-0.99289 0.66944-0.10688 0.71221
  -1   3  18   29.38   56.50  43-0.06456-0.09653-0.65129 0.98409 0.75608-0.14914
  -1  -3  18   47.40   33.00  10-0.05159-0.10823-0.99077 0.67045-0.12536 0.73402
  -1  -3  18   26.30   52.70  91 0.00952-0.16929 0.65490-0.97458 0.75565-0.14673
   1   3  18  163.76   56.40  44-0.06426 0.22459-0.63943 0.96162 0.76616-0.15764
   1  -3 -18   81.37   42.50  18-0.06045 0.21765-0.99141 0.66320 0.11596-0.71609
  -2  -3 -18  629.59   33.80  17-0.05939-0.26037-0.99491 0.67492 0.08142-0.69043
   2  -3  18  571.43   55.90  89 0.00561 0.31455 0.60975-0.93124 0.79258-0.18399
  -2   3  18  720.46   44.90  44-0.06409-0.25552-0.63328 0.95308 0.77126-0.16235
   2  -3  18  640.91   42.20  13-0.05582 0.37595-0.99822 0.67884-0.02118 0.63074
   2   3  18  782.85   52.00  46-0.06258 0.38262-0.58031 0.90126 0.81199-0.20332
  -2  -3  18  398.48   56.10  89 0.00554-0.32477 0.60892-0.92770 0.79321-0.18409
   2  -3 -18  459.08   32.80  15-0.05740 0.37709-0.99810 0.67794 0.02221-0.63103
  -2  -3  18  704.54   47.90  11-0.05356-0.26617-0.99545 0.67538-0.07883 0.68776
  -3  -3 -18   90.92   26.40  14-0.05634-0.42304-0.99838 0.67797-0.00744-0.60116
   3  -3  18  284.90   36.90  18-0.06011 0.54029-0.99268 0.67333 0.10475 0.50469
   3  -3  18  649.34   72.60  85-0.00159 0.48112 0.52185-0.84196 0.85303-0.24417
  -3   3  18  511.43   61.80  47-0.06185-0.41936-0.55711 0.88072 0.82813-0.22015
   3   3  18  164.88   53.70  50-0.05911 0.53920-0.47744 0.79837 0.87668-0.26809
   3  -3 -18  100.02   26.50  11-0.05281 0.53252-0.99389 0.67395-0.09694-0.51207
  -3  -3  18  487.34   42.20  14-0.05694-0.42297-0.99834 0.67877 0.00904 0.60031
  -3  -3  18  284.22   89.10  86-0.00123-0.47748 0.52630-0.84494 0.85030-0.24102
   0  -4 -18  542.47   35.60  22-0.06340 0.06340-0.97177 0.54492 0.22724-0.83609
   0   4  18  358.42   55.40  48-0.06145 0.06147-0.54475 0.97182 0.83635-0.22755
   0  -4  18  569.49   51.00   6-0.04687 0.04691-0.97282 0.54637-0.22676 0.83623
   0  -4  18  294.70   78.70  86 0.00033-0.00033 0.54583-0.97338 0.83790-0.22921
   1  -4  18 1288.54   68.80  86-0.00100 0.16106 0.52925-0.95734 0.84847-0.23993
  -1  -4 -18 1544.39   66.30  22-0.06332-0.09653-0.97264 0.54579 0.22350-0.83234
   1  -4  18 1542.66   65.50   7-0.04826 0.20815-0.97896 0.55222-0.19829 0.80730
  -1   4  18 1579.60   77.70  48-0.06134-0.09853-0.54121 0.96823 0.83865-0.22984
  -1  -4  18 1307.32   77.90  86-0.00085-0.15901 0.53117-0.95806 0.84727-0.23842
   1   4  18 1333.45   74.00  49-0.06046 0.22067-0.51536 0.94372 0.85484-0.24638
  -1  -4  18 1084.79   55.10   7-0.04726-0.11271-0.97462 0.54839-0.21881 0.82859
   1  -4 -18 1418.25   56.60  21-0.06262 0.22245-0.97881 0.55190 0.19494-0.80369
   2  -4  18  556.73   60.50  84-0.00501 0.32528 0.47780-0.90623 0.87845-0.27007
  -2   4  18  663.43   49.80  49-0.06012-0.25954-0.50564 0.93234 0.86064-0.25175
  -2  -4 -18  777.60   55.30  20-0.06236-0.25698-0.98082 0.55320 0.18468-0.79242
   2  -4  18  689.16   50.80  10-0.05129 0.37028-0.98989 0.56196-0.13223 0.73966
   2   4  18  374.25   52.50  51-0.05826 0.37826-0.45478 0.88232 0.88869-0.28006
  -2  -4  18  795.56   46.40   8-0.04923-0.27033-0.98284 0.55570-0.17776 0.78620
  -2  -4  18  213.62   59.20  84-0.00440-0.31489 0.48574-0.91141 0.87409-0.26490
   2  -4 -18  760.61   54.10  18-0.06045 0.38234-0.99141 0.56781 0.11596-0.72898
   0  -5 -18 4695.35  108.60  24-0.06487 0.06486-0.95275 0.41919 0.29674-0.90558
   0  -5  18 4623.98  188.40   4-0.04317 0.04315-0.95355 0.41981-0.29812 0.90658
   0   5  18 5378.87  152.70  52-0.05689 0.05690-0.41933 0.95310 0.90605-0.29726
   0  -5  18 4183.29  140.70  82-0.00853 0.00846 0.43111-0.95669 0.90226-0.29098
  -1  -5 -18 1112.71   51.20  24-0.06481-0.09503-0.95369 0.42008 0.29374-0.90250
   1  -5  18 1240.93   60.50   5-0.04458 0.20441-0.96135 0.42775-0.27170 0.88048
   1  -5  18  878.59   78.30  81-0.01069 0.17072 0.40166-0.93621 0.91573-0.30720
  -1   5  18 1543.43   92.50  53-0.05670-0.10320-0.41454 0.94849 0.90826-0.29954
  -1  -5  18 1307.99   64.50   4-0.04357-0.11622-0.95580 0.42199-0.29078 0.89912
  -1  -5  18 1159.38   84.40  81-0.01027-0.14955 0.40739-0.94077 0.91320-0.30429
   1  -5 -18 1106.22   47.50  23-0.06428 0.22405-0.96152 0.42781 0.26712-0.87566
   1   5  18  646.25   78.70  53-0.05571 0.21601-0.39011 0.92558 0.91908-0.31087
  -2  -5 -18   52.59   28.40  23-0.06408-0.25545-0.96414 0.43029 0.25753-0.86579
   2  -5  18   96.91   47.70  79-0.01453 0.33480 0.34788-0.88294 0.93743-0.32913
  -2   5  18   -7.92   57.00  54-0.05521-0.26445-0.37801 0.91142 0.92415-0.31525
   2  -5 -18   18.62   26.40  21-0.06277 0.38270-0.97765 0.44435 0.20066-0.81000
  -2  -5  18  221.05   78.00  79-0.01351-0.30606 0.36238-0.89556 0.93193-0.32295
   0   0 -19  296.58   47.00   3-0.04190 0.04190-0.94604 0.94604-0.32133-0.32134
   1   0 -19  149.95   30.40   2-0.04020 0.20005-0.93543 0.93543-0.35122-0.29146
  -1   0 -19  184.45   44.00   3-0.04123-0.11879-0.94197 0.94330-0.33316-0.30995
  -1   0  19   98.88   27.40  25-0.06536-0.09447-0.94360 0.94337 0.32459 0.31802
   1   0  19   72.94   38.50  26-0.06571 0.22392-0.93589 0.92908 0.34611 0.29441
  -2   0 -19  -27.67   29.20   1-0.03841-0.28129-0.92348 0.92346-0.38173-0.26095
   2   0  19   67.60   24.90  29-0.06680 0.38658-0.89825 0.89842 0.43437 0.20835
  -2   0  19   33.36   23.30  27-0.06603-0.25356-0.92776 0.92733 0.36729 0.27526
  -2   0  19   52.44   53.90 105 0.03612-0.35590 0.90719-0.90739 0.41916 0.22356
   3   0  19  194.33   34.10 103 0.03223 0.44816 0.87718-0.87880 0.47908 0.16390
  -3   0  19  126.20   26.80  30-0.06693-0.41234-0.89090 0.89029 0.44923 0.19331
   3   0  19  208.21   41.60  34-0.06730 0.54500-0.83562 0.83278 0.54518 0.09717
  -3   0  19  163.59   58.60 102 0.02937-0.50833 0.85345-0.85245 0.52034 0.12219
   0  -1 -19  431.25   36.90   8-0.04971 0.04973-0.98463 0.87832-0.16741-0.47549
   0   1  19  382.85   30.40  31-0.06711 0.06711-0.87706 0.98367 0.47567 0.16699
   0  -1  19  280.57   47.60 103 0.03244-0.03244 0.87892-0.98546 0.47587 0.16678
   0  -1  19  312.22   36.60  20-0.06177 0.06159-0.98482 0.87560 0.16221 0.47909
  -1  -1 -19 3336.27   84.20   8-0.04936-0.11053-0.98333 0.87689-0.17502-0.46781
   1  -1  19 2978.41   96.50  21-0.06282 0.22256-0.97722 0.87010 0.20271 0.43976
   1  -1  19 3125.35   98.50 103 0.03163 0.12830 0.87230-0.97958 0.48794 0.15483
  -1   1  19 3156.86   72.50  31-0.06713-0.09269-0.87564 0.98204 0.47827 0.16435
   1   1  19 3168.34   72.50  32-0.06726 0.22710-0.85801 0.96468 0.50921 0.13347
  -1  -1  19 3253.39   75.90  20-0.06199-0.09781-0.98338 0.87627 0.17067 0.47179
  -1  -1  19 2880.42  114.10 102 0.03026-0.19100 0.86097-0.97219 0.50775 0.13556
   1  -1 -19 2819.89   64.50   7-0.04823 0.20799-0.97884 0.87175-0.19887-0.44362
   2  -1  19 2386.15   68.40  24-0.06460 0.38433-0.95693 0.85026 0.28305 0.35965
   2  -1  19 2513.77   84.80 101 0.02813 0.29194 0.84271-0.95063 0.53763 0.10519
  -2  -1 -19 2277.67   71.20   6-0.04690-0.27304-0.97295 0.86700-0.22619-0.41685
  -2   1  19 2329.34   66.00  32-0.06728-0.25226-0.85339 0.95946 0.51691 0.12568
   2   1  19 2100.31   75.60  35-0.06723 0.38691-0.81320 0.91985 0.57809 0.06458
  -2  -1  19 2042.05   85.50 100 0.02662-0.34578 0.82929-0.93452 0.55819 0.08435
   2  -1 -19 2224.10   65.30   5-0.04455 0.36424-0.96121 0.85446-0.27221-0.37045
  -2  -1  19 2491.03   92.30  21-0.06314-0.25650-0.97431 0.86740 0.21617 0.42641
  -3  -1 -19  284.82   31.90   3-0.04194-0.43756-0.94632 0.83951-0.32051-0.32213
   3  -1  19  626.38   48.00  97 0.02132 0.45923 0.77953-0.88816 0.62600 0.01671
   3  -1  19  444.15   39.20  28-0.06646 0.54395-0.91362 0.80386 0.40110 0.24067
  -3   1  19  386.44   49.90  35-0.06718-0.41195-0.80397 0.90974 0.59087 0.05176
  -3  -1  19  354.91   48.40  96 0.01956-0.49811 0.76215-0.86710 0.64711-0.00442
   3  -1 -19  307.78   32.90   1-0.03825 0.51779-0.92235 0.81561-0.38447-0.25821
   3   1  19  543.44   46.90  39-0.06624 0.54616-0.72955 0.83682 0.68071-0.03806
  -3  -1  19  403.63   38.40  24-0.06497-0.41454-0.95090 0.84411 0.30259 0.34005
   0  -2 -19  547.06   31.80  13-0.05568 0.05567-0.99813 0.78458-0.02505-0.61752
   0  -2  19  450.26   33.00  15-0.05751 0.05750-0.99803 0.78452 0.02518 0.61743
   0   2  19  371.62   45.60  37-0.06701 0.06700-0.78415 0.99742 0.61695 0.02573
   0  -2  19  651.58   71.10  97 0.02196-0.02197 0.78578-0.99946 0.61811 0.02457
  -1  -2 -19  217.16   27.30  13-0.05545-0.10437-0.99798 0.78432-0.03098-0.61151
   1  -2  19  330.85   28.20  16-0.05870 0.21853-0.99646 0.78296 0.06020 0.58242
   1  -2  19  126.49   44.40  97 0.02095 0.13902 0.77592-0.99021 0.63048 0.01221
  -1   2  19  319.02   47.60  37-0.06691-0.09361-0.77500 0.99551 0.62841 0.01437
   1   2  19  458.04   33.40  38-0.06672 0.22663-0.76030 0.97397 0.64614-0.00346
  -1  -2  19  207.10   30.60  15-0.05770-0.10214-0.99786 0.78435 0.03075 0.61185
   1  -2 -19  146.03   25.60  12-0.05434 0.21424-0.99675 0.78352-0.05955-0.58327
  -1  -2  19  163.59   73.80  97 0.02024-0.18033 0.76887-0.98360 0.63909 0.00360
   2  -2  19 2774.10   88.50  95 0.01717 0.30294 0.73777-0.95247 0.67484-0.03220
  -2   2  19 3016.04   84.00  38-0.06664-0.25296-0.75439 0.96742 0.65303-0.01035
  -2  -2 -19 2769.34   84.40  11-0.05349-0.26644-0.99532 0.78257-0.08048-0.56267
   2  -2  19 2737.16   79.40  19-0.06104 0.38019-0.98882 0.77427 0.13601 0.50593
   2   2  19 2542.34  113.60  40-0.06581 0.38573-0.70659 0.92053 0.70456-0.06191
  -2  -2  19 2675.98   77.00  17-0.05955-0.26185-0.99447 0.78614 0.08646 0.55984
  -2  -2  19 2413.15   96.00  95 0.01634-0.33552 0.72916-0.94112 0.68415-0.04141
   2  -2 -19 2316.79   67.20  10-0.05138 0.37043-0.99014 0.77536-0.13033-0.51146
   3  -2  19    0.27   29.00  23-0.06423 0.54402-0.96217 0.74907 0.26477 0.37807
  -3   2  19   51.71   30.40  41-0.06557-0.41356-0.69502 0.90753 0.71599-0.07324
  -3  -2 -19   28.46   36.90   8-0.04916-0.43223-0.98256 0.77242-0.17931-0.46534
   3  -2  19  115.03   67.20  91 0.01025 0.46935 0.66316-0.87666 0.74841-0.10574
  -3  -2  19   70.11   63.60  91 0.00939-0.48807 0.65346-0.86533 0.75691-0.11402
   3   2  19  245.87   52.20  45-0.06362 0.54231-0.61592 0.82803 0.78523-0.14233
  -3  -2  19   85.24   41.30  20-0.06177-0.41774-0.98479 0.77129 0.16242 0.48021
   3  -2 -19  134.84   37.30   6-0.04577 0.52535-0.96752 0.75413-0.24862-0.39408
   0  -3 -19  721.51   32.70  17-0.05976 0.05979-0.99383 0.67394 0.09341-0.73636
   0   3  19  845.18   45.30  42-0.06509 0.06510-0.67320 0.99345 0.73659-0.09393
   0  -3  19  989.34   51.90  11-0.05289 0.05286-0.99407 0.67353-0.09503 0.73726
   0  -3  19  578.09   60.30  92 0.01129-0.01130 0.67479-0.99539 0.73792-0.09529
  -1  -3 -19 3015.26   80.70  17-0.05962-0.10026-0.99427 0.67432 0.08872-0.73160
   1  -3  19 3243.95  124.40  12-0.05422 0.21400-0.99657 0.67620-0.06251 0.70495
  -1   3  19 3606.90  107.10  42-0.06504-0.09480-0.67088 0.99085 0.73871-0.09602
   1  -3  19 4034.55  116.50  91 0.01006 0.15003 0.66108-0.98279 0.75025-0.10775
   1   3  19 2699.23  140.50  43-0.06445 0.22441-0.64679 0.96741 0.75994-0.11732
  -1  -3  19 3217.06  119.20  11-0.05315-0.10663-0.99463 0.67404-0.08877 0.73096
   1  -3 -19 3208.17   84.40  16-0.05873 0.21854-0.99640 0.67614 0.06107-0.70361
  -2  -3 -19   72.27   33.30  16-0.05812-0.26194-0.99738 0.67819 0.04299-0.68662
   2  -3  19  144.43   34.10  15-0.05708 0.37714-0.99828 0.67878 0.01318 0.63009
   2  -3  19   78.28   68.60  89 0.00627 0.31373 0.61751-0.93853 0.78653-0.14399
  -2   3  19   -8.68   51.40  44-0.06397-0.25794-0.62856 0.95688 0.77513-0.13359
   2   3  19   36.21   60.10  45-0.06300 0.38119-0.59429 0.91081 0.80178-0.15847
  -2  -3  19   38.88   33.20  13-0.05486-0.26439-0.99742 0.67613-0.04621 0.68771
  -2  -3  19  195.78   82.10  89 0.00632-0.32487 0.61809-0.93490 0.78608-0.14290
   2  -3 -19   60.80   39.10  14-0.05604 0.37679-0.99831 0.68006-0.01550-0.62893
   3  -3  19  235.75   48.40  86-0.00096 0.48164 0.52969-0.85181 0.84819-0.20599
  -3  -3 -19  288.43   39.90  13-0.05495-0.42510-0.99752 0.67819-0.04393-0.59946
   3  -3  19  304.12   42.50  19-0.06130 0.54490-0.98748 0.67234 0.14536 0.50104
  -3   3  19   92.89   54.80  46-0.06230-0.41737-0.57119 0.89156 0.81845-0.17582
  -3  -3  19  111.34   51.00  86-0.00048-0.47842 0.53573-0.85471 0.84439-0.20144
   3  -3 -19  247.86   33.40  10-0.05162 0.53109-0.99085 0.67060-0.12467-0.51792
   3   3  19   88.44   59.00  50-0.05956 0.53954-0.48995 0.81072 0.86971-0.22721
  -3  -3  19  367.02   43.20  15-0.05801-0.42151-0.99753 0.67733 0.03966 0.60296
   0  -4 -19   86.02   40.90  21-0.06252 0.06239-0.97965 0.55168 0.19073-0.83172
   0   4  19   49.35   48.80  47-0.06171 0.06175-0.55277 0.98014 0.83105-0.18847
   0  -4  19   61.94   59.00  87 0.00104-0.00104 0.55471-0.98189 0.83204-0.18943
   0  -4  19   58.56   47.90   8-0.04916 0.04948-0.98256 0.55939-0.17931 0.82742
   1  -4  19 2156.88   80.50  86-0.00026 0.16031 0.53852-0.96656 0.84261-0.20018
  -1  -4 -19 2193.10   68.10  20-0.06237-0.09742-0.98076 0.55355 0.18497-0.82710
   1  -4  19 1996.51   82.90   9-0.05050 0.21174-0.98739 0.56425-0.15006 0.79799
  -1   4  19 1999.37   90.00  47-0.06161-0.09827-0.54964 0.97676 0.83312-0.19050
   1   4  19 1964.43   92.00  48-0.06083 0.22079-0.52608 0.95339 0.84826-0.20568
  -1  -4  19 1713.36   79.90   8-0.04902-0.11078-0.98203 0.55492-0.18223 0.82450
  -1  -4  19 1896.07   87.70  86-0.00014-0.15972 0.53999-0.96690 0.84167-0.19900
   1  -4 -19 1844.58   72.40  19-0.06156 0.22170-0.98606 0.55996 0.15457-0.79830
  -2  -4 -19  778.84   41.90  19-0.06125-0.25849-0.98773 0.56098 0.14363-0.78644
   2  -4  19  639.52   45.50  11-0.05301 0.37251-0.99432 0.56718-0.09225 0.73454
   2  -4  19  863.47   69.10  84-0.00415 0.32442 0.48908-0.91754 0.87223-0.22995
  -2   4  19  712.15   69.80  49-0.06055-0.25861-0.51799 0.94285 0.85324-0.21012
   2  -4 -19  643.80   38.30  17-0.05958 0.37945-0.99438 0.56778 0.08751-0.73051
   2   4  19  538.09   70.90  51-0.05871 0.37860-0.46661 0.89391 0.88251-0.23996
  -2  -4  19  550.73   50.30   9-0.05093-0.26861-0.98879 0.56160-0.14038 0.78259
  -2  -4  19  731.14   91.00  84-0.00358-0.31562 0.49645-0.92182 0.86806-0.22502
   0  -5 -19 2720.52   68.00  23-0.06409 0.06406-0.96396 0.43020 0.25820-0.90046
   0   5  19 2327.18  124.80  52-0.05733 0.05735-0.43042 0.96438 0.90081-0.25824
   0  -5  19 2834.23  101.60   5-0.04526 0.04525-0.96493 0.43128-0.25859 0.90108
   0  -5  19 2787.21  100.70  82-0.00848 0.00849 0.43174-0.96573 0.90196-0.25940
  -1  -5 -19  253.34   35.60  23-0.06402-0.09578-0.96482 0.43105 0.25500-0.89723
   1  -5  19  145.38   36.30   6-0.04659 0.20643-0.97151 0.43792-0.23238 0.87499
  -1   5  19  141.81   49.60  52-0.05717-0.10269-0.42648 0.96012 0.90269-0.26003
   1  -5  19  275.03   89.40  81-0.00960 0.16923 0.41664-0.94900 0.90902-0.26600
   1   5  19  120.44   46.00  53-0.05626 0.21630-0.40366 0.93804 0.91318-0.27073
   1  -5 -19  188.10   38.90  22-0.06342 0.22328-0.97157 0.43803 0.22809-0.87079
  -1  -5  19  158.25   52.30   6-0.04569-0.11426-0.96710 0.43391-0.25025 0.89368
  -1  -5  19  212.18   95.70  82-0.00853-0.14977 0.43111-0.95476 0.90226-0.25691
   0   0 -2011638.96  160.50   2-0.04086 0.04090-0.93963 0.94058-0.33975-0.33709
   0   0  2012907.08  157.80  26-0.06571 0.06607-0.93589 0.94090 0.34611 0.33216
  -1   0 -20  638.38   47.30   2-0.04041-0.11945-0.93676 0.93679-0.34763-0.32888
   1   0  20  868.63   41.90  27-0.06610 0.22596-0.92556 0.92558 0.37280 0.30371
  -1   0  20  817.16   42.50  26-0.06564-0.09419-0.93770 0.93742 0.34120 0.33521
   2   0  20 1123.79   57.10 106 0.03742 0.28267 0.91658-0.91782 0.39811 0.27877
  -2   0  20 1061.96   56.80 105 0.03550-0.35481 0.90265-0.90164 0.42891 0.24732
   2   0  20 1467.67   57.10  30-0.06690 0.38660-0.89283 0.89282 0.44539 0.23111
  -2   0  20 1495.05   51.50  27-0.06623-0.25349-0.92154 0.92160 0.38258 0.29394
   3   0  20  820.90   45.60  34-0.06729 0.54697-0.82827 0.82847 0.55627 0.12026
  -3   0  20  821.92   43.40  30-0.06701-0.41224-0.88557 0.88493 0.45964 0.21671
   3   0  20  900.05   77.00 103 0.03144 0.44956 0.87077-0.87358 0.49069 0.18641
  -3   0  20  818.61   72.20 101 0.02923-0.50653 0.85223-0.84845 0.52235 0.15347
   0  -1 -20  143.00   40.10   7-0.04841 0.04851-0.97959 0.87462-0.19509-0.48238
   0   1  20  183.38   31.20  31-0.06716 0.06715-0.87244 0.97902 0.48408 0.19239
   0  -1  20  127.78   49.60 103 0.03188-0.03187 0.87433-0.98084 0.48428 0.19218
   0  -1  20  419.78   47.40  21-0.06253 0.06250-0.97951 0.87237 0.19143 0.48484
   1  -1  20 1140.21   54.50  22-0.06340 0.22323-0.97181 0.86500 0.22707 0.44938
  -1   1  20 1000.70   42.60  31-0.06717-0.09266-0.87100 0.97745 0.48668 0.18978
  -1  -1 -20 1089.99   56.90   7-0.04826-0.11149-0.97895 0.87140-0.19830-0.47774
   1  -1  20 1125.74   80.70 102 0.03103 0.12895 0.86742-0.97516 0.49660 0.18009
  -1  -1  20  717.78   62.70 102 0.03029-0.18998 0.86124-0.96712 0.50730 0.16906
   1   1  20 1270.62   57.00  32-0.06727 0.22687-0.85477 0.96041 0.51463 0.16169
   1  -1 -20 1213.59   52.20   6-0.04705 0.20691-0.97364 0.86699-0.22319-0.45334
  -2  -1 -20  573.53   51.90   6-0.04634-0.27154-0.97033 0.85786-0.23730-0.43628
   2  -1  20  801.78   46.50  24-0.06499 0.38481-0.95064 0.84418 0.30341 0.37321
   2  -1  20  862.32   66.00 101 0.02774 0.29225 0.83929-0.94695 0.54298 0.13366
  -2   1  20  563.12   48.60  33-0.06729-0.25188-0.85064 0.95531 0.52143 0.15474
   2   1  20  731.93   50.20  35-0.06722 0.38691-0.81056 0.91724 0.58179 0.09471
  -2  -1  20  807.99   41.20  22-0.06366-0.25592-0.96903 0.86193 0.23860 0.43770
  -2  -1  20  850.89   53.70 100 0.02629-0.34545 0.82627-0.93153 0.56267 0.11366
   2  -1 -20  567.81   39.90   4-0.04348 0.36327-0.95529 0.84880-0.29245-0.38415
   3  -1  20   -3.81   39.40  97 0.02120 0.45932 0.77833-0.88691 0.62750 0.04911
  -3   1  20   32.42   42.40 106 0.03757-0.51614 0.91761-0.80935 0.39571 0.28026
  -3  -1 -20   97.58   41.70   3-0.04107-0.43758-0.94095 0.83252-0.33606-0.33975
   3  -1  20   97.59   36.40  29-0.06661 0.54400-0.90747 0.79757 0.41481 0.26066
  -3   1  20   91.38   37.10  35-0.06717-0.41166-0.80241 0.90752 0.59298 0.08338
  -3  -1  20  -47.39   29.60  25-0.06529-0.41403-0.94501 0.83783 0.32046 0.35584
  -3  -1  20   58.67   57.60  96 0.01952-0.49807 0.76169-0.86666 0.64764 0.02880
   3   1  20   83.67   44.20  40-0.06618 0.54819-0.72585 0.83631 0.68466-0.00819
   0  -2 -20 6753.99  209.90  12-0.05441 0.05442-0.99685 0.78354-0.05764-0.61895
   0  -2  20 8236.36  124.00  16-0.05861 0.05860-0.99663 0.78316 0.05741 0.61905
   0   2  20 7817.45  163.20  37-0.06697 0.06712-0.78063 0.99622 0.62140 0.05522
   0  -2  20 8205.86  173.50  97 0.02172-0.02175 0.78344-0.99822 0.62108 0.05550
  -1  -2 -20 2678.70   63.60  12-0.05417-0.10569-0.99650 0.78313-0.06373-0.61281
   1  -2  20 3072.56  107.00  17-0.05967 0.21937-0.99413 0.78018 0.09029 0.58583
   1  -2  20 2726.68   89.20  97 0.02086 0.13910 0.77505-0.98926 0.63156 0.04498
  -1   2  20 3245.87  100.10  37-0.06697-0.09287-0.78084 0.99414 0.62112 0.05537
   1   2  20 3029.25   78.70  38-0.06672 0.22663-0.75984 0.97352 0.64667 0.02984
  -1  -2  20   81.24  -24.30  16-0.05877-0.10107-0.99632 0.78282 0.06246 0.61398
   1  -2 -20 2809.86   74.00  11-0.05310 0.21301-0.99453 0.78131-0.08999-0.58667
  -1  -2  20 2469.36  106.60  97 0.02040-0.18007 0.77042-0.98287 0.63721 0.03926
   2  -2  20  158.40   48.20  95 0.01721 0.30292 0.73824-0.95301 0.67432 0.00218
  -2   2  20  217.71   35.30  38-0.06664-0.25297-0.75416 0.96720 0.65330 0.02320
  -2  -2 -20   79.69   39.40  11-0.05244-0.26659-0.99302 0.77763-0.10566-0.56940
   2  -2  20  153.51   41.70  20-0.06210 0.38384-0.98268 0.77336 0.17462 0.50456
   2   2  20  393.85   48.50  40-0.06579 0.38663-0.70565 0.92178 0.70550-0.02908
  -2  -2  20  162.51   38.20  18-0.06005-0.25912-0.99289 0.77786 0.10279 0.57253
  -2  -2  20  321.69   71.80  95 0.01626-0.33599 0.72831-0.94183 0.68505-0.00855
   2  -2 -20  276.88   47.50   9-0.04997 0.37008-0.98556 0.77298-0.16176-0.51530
   3  -2  20   39.70   25.20  24-0.06466 0.54425-0.95598 0.74260 0.28623 0.39030
  -3   2  20   73.35   30.10  41-0.06562-0.41350-0.69727 0.90974 0.71380-0.03725
  -3  -2 -20   89.44   38.00   7-0.04843-0.43004-0.97966 0.76430-0.19475-0.48054
   3  -2  20  192.97   64.40  91 0.01030 0.47051 0.66371-0.87948 0.74792-0.07161
  -3  -2  20   67.81   63.00  91 0.00974-0.48840 0.65740-0.86923 0.75348-0.07684
   3  -2 -20  225.47   34.40   5-0.04467 0.52419-0.96182 0.74835-0.27003-0.40645
   3   2  20  195.46   51.50  45-0.06360 0.54491-0.61518 0.83129 0.78581-0.10967
  -3  -2  20   67.47   36.20  20-0.06246-0.41714-0.98007 0.76673 0.18859 0.48797
   0  -3 -20   82.65   22.50  16-0.05862 0.05861-0.99660 0.67631 0.05794-0.73428
   0   3  20  -50.09   42.00  42-0.06515 0.06516-0.67602 0.99622 0.73399-0.05750
   0  -3  20   50.02   30.20  12-0.05438 0.05435-0.99680 0.67630-0.05851 0.73461
   0  -3  20   50.97   67.10  92 0.01154-0.01154 0.67748-0.99819 0.73545-0.05898
  -1  -3 -20  121.19   28.40  16-0.05846-0.10136-0.99688 0.67657 0.05306-0.72937
   1  -3  20  133.12   26.90  13-0.05563 0.21545-0.99810 0.67790-0.02645 0.70288
  -1   3  20  157.30   34.00  42-0.06510-0.09472-0.67384 0.99372 0.73600-0.05949
   1  -3  20  269.82   76.80  92 0.01045 0.14951 0.66544-0.98629 0.74638-0.06993
   1   3  20  168.71   34.30  43-0.06454 0.22451-0.65050 0.97116 0.75676-0.08030
   1  -3 -20   60.89   26.90  15-0.05754 0.21735-0.99800 0.67775 0.02605-0.70243
  -1  -3  20  107.27   36.90  12-0.05482-0.10537-0.99738 0.67944-0.04727 0.72613
  -1  -3  20   99.96   82.50  91 0.01026-0.17001 0.66332-0.98283 0.74827-0.07172
  -2  -3 -20  919.78   54.10  14-0.05690-0.26309-0.99835 0.67895 0.00817-0.68542
   2  -3  20 1158.68   64.10  16-0.05823 0.37818-0.99724 0.67754 0.04611 0.63080
   2  -3  20  808.21   88.20  90 0.00668 0.31341 0.62235-0.94365 0.78271-0.10634
  -2   3  20  367.73   58.20  43-0.06433-0.25549-0.64231 0.96287 0.76374-0.08728
  -2  -3  20  704.73   45.20  14-0.05625-0.26339-0.99837 0.67805-0.00988 0.68620
   2   3  20  845.79   62.70  45-0.06299 0.38312-0.59395 0.91511 0.80203-0.12567
  -2  -3  20  986.07   90.60  90 0.00667-0.32544 0.62216-0.93960 0.78286-0.10606
   2  -3 -20  853.09   47.70  13-0.05501 0.37447-0.99758 0.67701-0.04250-0.63359
   0  -4 -20  761.48   44.10  19-0.06141 0.06143-0.98691 0.56030 0.14915-0.82601
   0   4  20  917.74   59.50  47-0.06192 0.06196-0.55928 0.98670 0.82666-0.15025
   0  -4  20  855.60   49.50   9-0.05048 0.05047-0.98733 0.56035-0.15041 0.82671
   0  -4  20  463.28   71.80  87 0.00158-0.00158 0.56136-0.98851 0.82757-0.15112
  -1  -4 -20  299.33   37.80  19-0.06130-0.09858-0.98748 0.56078 0.14536-0.82208
   1  -4  20  372.42   38.30  10-0.05175 0.21156-0.99121 0.56424-0.12173 0.79805
  -1   4  20  408.33   44.10  47-0.06183-0.09805-0.55639 0.98348 0.82862-0.15215
   1  -4  20  380.04   98.70  86 0.00038 0.15956 0.54655-0.97397 0.83742-0.16101
   1   4  20  638.94   57.10  48-0.06108 0.22105-0.53347 0.96082 0.84361-0.16720
  -1  -4  20  484.44   39.20   9-0.05077-0.10906-0.98827 0.56132-0.14403 0.82038
   1  -4 -20  515.34   37.40  18-0.06053 0.22048-0.99110 0.56452 0.11856-0.79543
  -1  -4  20  469.49   92.10  87 0.00061-0.16014 0.54932-0.97424 0.83561-0.15879
   2  -4  20  130.15   31.10  12-0.05451 0.37412-0.99699 0.57000-0.05520 0.73153
  -2  -4 -20  116.49   48.40  18-0.06045-0.25746-0.99141 0.56067 0.11596-0.78700
   2  -4  20   11.87   87.20  84-0.00456 0.32859 0.48376-0.92276 0.87519-0.20134
  -2   4  20  168.43   64.10  49-0.06059-0.26002-0.51913 0.94931 0.85254-0.17666
   2   4  20  157.15   45.00  50-0.05904 0.37906-0.47560 0.90320 0.87768-0.20134
  -2  -4  20  114.36   67.30  85-0.00302-0.31650 0.50360-0.92991 0.86393-0.18732
   2  -4 -20   21.67   36.60  16-0.05847 0.37808-0.99687 0.56989 0.05323-0.72957
  -2  -4  20   41.06   46.60  10-0.05180-0.26450-0.99134 0.55731-0.12069 0.78705
   0  -5 -20  343.19   53.90  22-0.06328 0.06314-0.97301 0.43850 0.22194-0.89651
   0   5  20  368.24   87.30  52-0.05773 0.05771-0.44083 0.97399 0.89573-0.21914
   0  -5  20  361.58   55.30   7-0.04777 0.04821-0.97688 0.44740-0.20840 0.89304
   0  -5  20  795.69  104.70  82-0.00758 0.00757 0.44381-0.97565 0.89609-0.21920
   0   0 -21  437.35   36.30   2-0.03998 0.03998-0.93396 0.93394-0.35514-0.35518
   0   0  21  638.82   54.30  26-0.06585 0.06585-0.93249 0.93248 0.35514 0.35518
   1   0 -21 1034.14   55.70   1-0.03840 0.19827-0.92341 0.92347-0.38189-0.32846
   1   0  21 1440.95   58.50  28-0.06630 0.22617-0.91921 0.91926 0.38815 0.32220
  -1   0  21 1357.74   53.40  26-0.06588-0.09390-0.93164 0.93101 0.35737 0.35272
   2   0  21   58.16   25.20  30-0.06699 0.38675-0.88670 0.88683 0.45747 0.25290
  -2   0  21   32.51   32.20  28-0.06641-0.25319-0.91558 0.91519 0.39662 0.31357
  -2   0  21  -53.84   80.20 104 0.03377-0.35691 0.88944-0.89809 0.45581 0.25700
  -3   0  21  180.83   50.40 101 0.02847-0.50682 0.84569-0.84368 0.53291 0.17699
   3   0  21  196.21   59.00  34-0.06727 0.54842-0.82127 0.82367 0.56655 0.14419
   3   0  21  734.38   76.50 102 0.03080 0.44995 0.86548-0.86779 0.49999 0.21090
  -3   0  21  533.10   51.60  31-0.06708-0.41205-0.87995 0.87905 0.47031 0.23977
   0   1  21 3383.43  -92.20  31-0.06720 0.06719-0.86729 0.97385 0.49324 0.21705
   0  -1  21 1563.36   65.20  22-0.06322 0.06333-0.97358 0.86841 0.21940 0.49179
   0  -1  21 1942.21   83.00 103 0.03149-0.03140 0.87118-0.97505 0.48995 0.21974
   1  -1  21 1745.94   88.30 102 0.03048 0.12943 0.86282-0.96999 0.50459 0.20583
  -1  -1 -21 1987.58   68.80   6-0.04691-0.11308-0.97298 0.86727-0.22607-0.48482
   1  -1  21 1850.41   75.10  23-0.06395 0.22394-0.96577 0.85962 0.25139 0.45924
  -1   1  21 1711.49   58.00  32-0.06722-0.09276-0.86467 0.97268 0.49782 0.21280
   1   1  21 1736.57   80.10  33-0.06729 0.22694-0.84984 0.95570 0.52272 0.18744
  -1  -1  21 1782.09   68.90  22-0.06353-0.09713-0.97048 0.87097 0.23267 0.48164
  -1  -1  21 1714.34   98.30 102 0.02958-0.18958 0.85524-0.96269 0.51739 0.19309
   1  -1 -21 1816.04   63.00   6-0.04634 0.20496-0.97033 0.85844-0.23730-0.47019
  -2  -1 -21  119.46   29.90   5-0.04466-0.27498-0.96177 0.85485-0.27019-0.44003
   2  -1  21  202.13   33.00  25-0.06533 0.38506-0.94422 0.83756 0.32277 0.38758
  -2   1  21  304.44   38.20  33-0.06730-0.25226-0.84473 0.95091 0.53095 0.17928
   2  -1  21  189.54   72.20 100 0.02744 0.29198 0.83661-0.94242 0.54710 0.16307
   2   1  21  175.92   35.60  35-0.06720 0.38685-0.80719 0.91379 0.58646 0.12386
  -2  -1  21  306.65   32.40  23-0.06416-0.25551-0.96310 0.85628 0.26140 0.44888
  -2  -1  21   80.75   71.50 100 0.02664-0.34299 0.82948-0.92713 0.55790 0.15095
   2  -1 -21  236.57   46.90   3-0.04239 0.36228-0.94902 0.84274-0.31235-0.39818
   3  -1  21  185.31   44.80  97 0.02095 0.45958 0.77592-0.88452 0.63048 0.08002
  -3  -1 -21   62.36   48.60   2-0.04024-0.43722-0.93567 0.82501-0.35057-0.35804
   3  -1  21  134.67   37.80  29-0.06686 0.54848-0.89500 0.79126 0.44103 0.27031
  -3   1  21   50.81   43.80  36-0.06709-0.41427-0.79333 0.90399 0.60508 0.10571
  -3  -1  21  155.97   62.30  96 0.01936-0.49792 0.76012-0.86510 0.64950 0.06071
   3   1  21  211.83   47.40  39-0.06622 0.54703-0.72800 0.83664 0.68237 0.02802
  -3  -1  21  188.87   38.40  26-0.06551-0.41227-0.94048 0.83020 0.33348 0.37524
   0  -2 -21 1744.07   54.20  11-0.05315 0.05317-0.99463 0.78143-0.08877-0.62173
   0  -2  21 1959.14   86.10  17-0.05958 0.05954-0.99438 0.78043 0.08751 0.62240
   0   2  21 1934.85   69.50  37-0.06691 0.06731-0.77500 0.99432 0.62841 0.08241
   0  -2  21 1748.88   91.00  97 0.02172-0.02170 0.78340-0.99579 0.62114 0.08910
  -1  -2 -21 2283.69   65.40  11-0.05289-0.10699-0.99407 0.78086-0.09503-0.61547
   1  -2  21 2078.40   95.70  18-0.06058 0.22030-0.99089 0.77700 0.12029 0.58969
   1  -2  21 2027.37   78.80  97 0.02066 0.13930 0.77306-0.98730 0.63399 0.07640
  -1   2  21 2490.06   82.40  37-0.06695-0.09286-0.77894 0.99189 0.62351 0.08677
   1   2  21 2388.05   75.00  38-0.06669 0.22662-0.75826 0.97202 0.64853 0.06182
  -1  -2  21 2360.08   65.80  17-0.05972-0.10005-0.99396 0.77993 0.09202 0.61782
   1  -2 -21 1864.92   70.00  10-0.05188 0.21170-0.99156 0.77804-0.11878-0.59147
  -1  -2  21 2152.82   99.70  97 0.02025-0.17987 0.76896-0.98111 0.63898 0.07126
   2  -2  21  759.03   66.10  95 0.01716 0.30295 0.73765-0.95235 0.67497 0.03541
  -2   2  21 1097.00   54.90  38-0.06662-0.25297-0.75291 0.96588 0.65475 0.05555
  -2  -2 -21 1109.91   52.60   9-0.05097-0.26881-0.98890 0.77572-0.13954-0.57096
   2  -2  21  926.37   62.40  21-0.06257 0.38218-0.97925 0.76564 0.19276 0.51744
   2  -2 -21  831.04   43.70   8-0.04882 0.36857-0.98124 0.76792-0.18651-0.52389
   2   2  21  898.71   64.10  40-0.06599 0.38325-0.71598 0.92352 0.69499 0.01524
  -2  -2  21 1107.50   54.80  19-0.06103-0.25891-0.98884 0.77614 0.13591 0.57495
  -2  -2  21 1019.79   85.00  95 0.01649-0.33531 0.73078-0.94170 0.68242 0.02784
   0  -3 -21 1940.58   68.10  15-0.05743 0.05741-0.99809 0.67776 0.02291-0.73303
   0   3  21 2641.30   88.00  42-0.06519 0.06519-0.67743 0.99762 0.73269-0.02236
   0  -3  21 2115.92   83.80  92 0.01167-0.01168 0.67902-0.99965 0.73403-0.02371
   0  -3  21 2744.27   82.50  13-0.05581 0.05586-0.99821 0.67860-0.02148 0.73238
  -1   3  21  336.53   42.30  42-0.06514-0.09470-0.67525 0.99521 0.73470-0.02437
  -1  -3 -21  154.31   46.60  15-0.05758-0.10156-0.99797 0.67315 0.02727-0.73250
   1  -3  21  478.06   52.10  14-0.05652 0.21479-0.99840 0.67330-0.00238 0.70749
   1  -3  21  372.99   89.80  92 0.01136 0.14745 0.67556-0.98871 0.73722-0.02670
   1   3  21  452.49   52.90  43-0.06460 0.22455-0.65288 0.97345 0.75471-0.04440
   1  -3 -21  649.01   38.20  14-0.05632 0.21614-0.99838 0.67814-0.00779-0.70243
  -1  -3  21  401.13   45.00  13-0.05595-0.10385-0.99827 0.67780-0.01790 0.72787
  -1  -3  21  416.63   92.70  92 0.01055-0.17009 0.66648-0.98481 0.74545-0.03506
   2  -3  21  474.55   60.80  90 0.00699 0.31309 0.62590-0.94717 0.77987-0.06963
  -2   3  21  354.56   52.90  43-0.06442-0.25521-0.64573 0.96557 0.76085-0.05050
  -2  -3 -21  425.74   49.20  13-0.05591-0.26280-0.99826 0.67557-0.01884-0.68888
   2  -3  21  626.46   49.40  17-0.05920 0.37840-0.99539 0.67438 0.07544 0.63406
  -2  -3  21  725.39   44.20  15-0.05744-0.26220-0.99808 0.67779 0.02326 0.68691
   2   3  21  482.28   65.20  45-0.06302 0.38417-0.59517 0.91875 0.80112-0.09114
  -2  -3  21  278.23   92.30  90 0.00741-0.32460 0.63077-0.94361 0.77593-0.06510
   2  -3 -21  334.45   41.30  12-0.05375 0.37330-0.99580 0.67539-0.07407-0.63600
   0  -4 -21  641.19   38.90  18-0.06034 0.06036-0.99186 0.56520 0.11215-0.82275
   0  -4  21  825.01   52.40  10-0.05213 0.05212-0.99222 0.56528-0.11307 0.82325
   0   4  21  770.61   68.00  47-0.06213 0.06207-0.56583 0.99180 0.82218-0.11175
   0  -4  21  695.94  105.40  87 0.00231-0.00230 0.57024-0.99384 0.82147-0.11078
  -1  -4 -21  239.39   34.60  18-0.06021-0.09967-0.99233 0.56567 0.10799-0.81859
   1  -4  21  300.98   38.00  11-0.05329 0.21299-0.99491 0.56766-0.08547 0.79523
  -1   4  21  209.48   43.30  47-0.06199-0.09789-0.56144 0.98854 0.82519-0.11489
   1  -4  21  139.89  103.50  87 0.00143 0.15748 0.55948-0.98047 0.82884-0.11781
   1  -4 -21  202.83   37.80  17-0.05942 0.21936-0.99482 0.56820 0.08247-0.79311
  -1  -4  21  297.60   46.60  10-0.05239-0.10748-0.99290 0.56613-0.10683 0.81728
  -1  -4  21  428.19  112.30  87 0.00061-0.16091 0.54938-0.97895 0.83557-0.12559
   0   0 -22  328.79   40.10   1-0.03899 0.03899-0.92740 0.92737-0.37203-0.37211
   0   0  22  673.65   43.10  27-0.06609 0.06608-0.92595 0.92577 0.37183 0.37226
  -1   0 -22 1243.77   69.80   1-0.03845-0.12141-0.92374 0.92381-0.38108-0.36310
   1   0  22 1825.76   84.40  28-0.06649 0.22633-0.91256 0.91254 0.40349 0.34065
  -1   0  22 2274.99   64.40  27-0.06613-0.09369-0.92483 0.92452 0.37458 0.36945
  -1   0  22 1499.67   68.30 106 0.03752-0.19725 0.91726-0.91672 0.39651 0.34744
   2   0  22 1869.21  -85.20 105 0.03561 0.28445 0.90347-0.90463 0.42718 0.31739
  -2   0  22 2427.62   89.60 104 0.03394-0.35311 0.89070-0.88937 0.45332 0.29040
   2   0  22 2750.50   88.80  31-0.06709 0.38751-0.87901 0.88064 0.47206 0.27260
  -2   0  22 2691.15   84.20  28-0.06658-0.25302-0.90894 0.90855 0.41158 0.33243
   0  -1 -22 9078.02  182.40   6-0.04618 0.04618-0.96955 0.86272-0.24052-0.50357
   0   1  2210441.63  209.90  32-0.06724 0.06723-0.86164 0.96818 0.50304 0.24107
   0  -1  22 8511.82  237.30 102 0.03057-0.03057 0.86361-0.97008 0.50323 0.24086
   0  -1  22 8904.09  333.10  22-0.06373 0.06375-0.96833 0.86196 0.24140 0.50295
   1  -1  22  194.02   54.50 102 0.02982 0.13009 0.85725-0.96440 0.51404 0.23022
  -1   1  22  122.80   28.40  32-0.06725-0.09257-0.86032 0.96666 0.50530 0.23876
  -1  -1 -22  210.33   53.40   6-0.04585-0.11390-0.96792 0.86044-0.24705-0.49666
   1  -1  22   66.42   43.40  23-0.06416 0.22217-0.96310 0.84935 0.26140 0.47879
   1   1  22   96.63   43.80  33-0.06730 0.22716-0.84380 0.95056 0.53243 0.21174
   1  -1 -22   35.59   38.70   5-0.04475 0.20460-0.96224 0.85552-0.26851-0.47564
  -1  -1  22  190.42   50.30  22-0.06381-0.09609-0.96740 0.86108 0.24507 0.49931
  -1  -1  22  265.24   70.70 101 0.02928-0.18860 0.85267-0.95666 0.52162 0.22190
  -2  -1 -22  141.78   36.10   4-0.04346-0.27625-0.95519 0.84850-0.29279-0.45138
   2  -1  22  406.68   38.90  26-0.06565 0.38540-0.93728 0.83065 0.34234 0.40185
   2  -1  22  184.58   60.50 100 0.02667 0.29336 0.82977-0.93755 0.55747 0.18690
  -2   1  22  362.74   48.90  33-0.06730-0.25281-0.83781 0.94605 0.54180 0.20268
  -2  -1  22  538.16   38.60  24-0.06459-0.25498-0.95703 0.84987 0.28271 0.46120
   2   1  22  252.23   53.90  35-0.06717 0.38686-0.80287 0.90956 0.59236 0.15179
  -2  -1  22  265.64   83.80  99 0.02567-0.34378 0.82063-0.92308 0.57088 0.17247
   2  -1 -22  323.73   53.90   3-0.04110 0.36198-0.94117 0.83716-0.33543-0.41004
   0  -2 -22  452.22   33.80  10-0.05191 0.05190-0.99165 0.77811-0.11809-0.62598
   0   2  22  583.72   40.70  37-0.06694 0.06692-0.77752 0.99066 0.62528 0.11883
   0  -2  22  616.79   39.30  18-0.06049 0.06044-0.99125 0.77722 0.11735 0.62632
   0  -2  22  569.08   62.00  97 0.02129-0.02129 0.77920-0.99281 0.62641 0.11776
  -1  -2 -22 3021.90   76.00  10-0.05164-0.10819-0.99090 0.77733-0.12432-0.61972
   1  -2  22 3096.49  111.30  19-0.06141 0.22112-0.98691 0.77300 0.14915 0.59463
  -1   2  22 3399.04  110.10  37-0.06692-0.09289-0.77588 0.98881 0.62732 0.11677
   1  -2  22 2726.25  113.00  97 0.02104 0.13792 0.77680-0.98386 0.62940 0.11402
   1   2  22 3279.57  103.60  38-0.06666 0.22657-0.75587 0.96956 0.65131 0.09286
  -1  -2  22 3196.30  110.00  18-0.06062-0.09916-0.99072 0.77671 0.12168 0.62201
   1  -2 -22 3311.60   88.90   9-0.05063 0.21044-0.98782 0.77423-0.14713-0.59689
  -1  -2  22 2645.89  110.90  96 0.01975-0.17983 0.76398-0.97867 0.64494 0.09934
   2  -2  22  267.88   55.60  95 0.01699 0.30312 0.73588-0.95057 0.67689 0.06735
  -2  -2 -22  121.15   42.80   8-0.04982-0.26942-0.98502 0.77025-0.16510-0.57804
   2  -2  22   32.12   45.50  22-0.06323 0.38307-0.97350 0.76034 0.21979 0.52454
  -2   2  22  121.84   51.40  38-0.06655-0.25365-0.74832 0.96361 0.65999 0.08433
   2  -2 -22   79.50   31.90   7-0.04760 0.36733-0.97611 0.76276-0.21198-0.53222
   2   2  22  227.24   53.10  40-0.06580 0.38639-0.70597 0.92151 0.70517 0.03907
  -2  -2  22   80.83   49.90  19-0.06162-0.25705-0.98571 0.76920 0.15679 0.58502
  -2  -2  22  163.37   81.40  94 0.01610-0.33584 0.72664-0.94017 0.68683 0.05733
   0  -3 -22 1328.78   58.70  14-0.05611 0.05620-0.99833 0.67929-0.01361-0.73172
   0   3  22 1118.62   60.80  42-0.06519 0.06520-0.67756 0.99781 0.73257 0.01158
   0  -3  22  953.42   78.20  92 0.01170-0.01170 0.67927-0.99988 0.73379 0.01037
   0  -3  22 1089.90   64.70  14-0.05703 0.05704-0.99830 0.67826 0.01164 0.73261
  -1   3  22   27.01   45.70  42-0.06514-0.09469-0.67551 0.99546 0.73447 0.00968
  -1  -3 -22   33.28   54.00  13-0.05541-0.10564-0.99795 0.68558-0.03203-0.72029
   1  -3  22   94.81   39.30  16-0.05859 0.22091-0.99666 0.68419 0.05689 0.69504
   1  -3  22  149.22   84.60  92 0.01136 0.14750 0.67556-0.98904 0.73722 0.00689
   1   3  22   18.66   50.90  43-0.06462 0.22458-0.65380 0.97441 0.75390-0.00976
  -1  -3  22  -15.61   51.00  14-0.05652-0.10191-0.99840 0.66895-0.00238 0.73629
  -1  -3  22  242.55   94.50  91 0.01033-0.17038 0.66409-0.98537 0.74758-0.00343
   1  -3 -22   13.09   51.50  12-0.05426 0.21747-0.99662 0.68712-0.06164-0.69324
  -2  -3 -22   90.78   27.60  12-0.05443-0.26526-0.99687 0.67670-0.05729-0.68682
   2  -3  22   42.51   69.10  90 0.00716 0.31290 0.62793-0.94917 0.77823-0.03412
   2  -3  22   80.52   44.00  17-0.05983 0.37606-0.99364 0.66735 0.09541 0.64282
  -2  -3  22   80.19   31.40  16-0.05854-0.26110-0.99675 0.67645 0.05532 0.68866
  -2  -3  22   50.80   73.80  90 0.00695-0.32629 0.62549-0.94458 0.78020-0.03601
   2  -3 -22   94.12   47.10  10-0.05234 0.37291-0.99276 0.67419-0.10813-0.63751
   0  -4 -22  886.56   56.00  17-0.05924 0.05922-0.99529 0.56832 0.07669-0.82067
   0   4  22  828.21   74.40  47-0.06220 0.06222-0.56792 0.99512 0.82073-0.07660
   0  -4  22  715.74   53.30  12-0.05375 0.05385-0.99579 0.56999-0.07422 0.81988
   0  -4  22  706.73  108.40  87 0.00229-0.00229 0.57000-0.99699 0.82164-0.07750
  -1  -4  22   89.20   79.60  87 0.00120-0.16100 0.55659-0.98315 0.83079-0.08661
  -1  -4  22   48.76   38.30  12-0.05367-0.10578-0.99565 0.56665-0.07610 0.81714
   0   0  23  591.94   58.20  28-0.06636 0.06654-0.91735 0.91987 0.39250 0.38653
   1   0  23   53.47   55.30 106 0.03738 0.12257 0.91630-0.91702 0.39875 0.37953
   1   0  23  107.21   44.20  29-0.06663 0.22595-0.90688 0.90476 0.41609 0.36104
  -1   0  23  107.97   44.70  27-0.06628-0.09318-0.91993 0.91612 0.38645 0.38991
  -1   0  23  206.72   74.90 105 0.03628-0.19670 0.90837-0.91102 0.41660 0.36243
   2   0  23   13.60   41.40  31-0.06715 0.38689-0.87337 0.87346 0.48240 0.29560
  -2   0  23   84.54   31.10  29-0.06673-0.25285-0.90195 0.90153 0.42666 0.35116
   2   0  23  221.42   76.50 104 0.03455 0.28592 0.89541-0.89780 0.44391 0.33496
  -2   0  23  200.01   92.20 104 0.03294-0.35269 0.88290-0.88303 0.46840 0.30963
   0  -1 -23  116.55   39.70   5-0.04498 0.04498-0.96348 0.85665-0.26397-0.51393
   0   1  23   68.94   32.70  32-0.06727 0.06726-0.85551 0.96203 0.51340 0.26452
   0  -1  23   73.94   36.60  23-0.06423 0.06424-0.96222 0.85569 0.26460 0.51349
   0  -1  23   96.86   51.30 102 0.02985-0.02984 0.85751-0.96397 0.51360 0.26431
  -1  -1 -23 2431.34   67.50   5-0.04459-0.11525-0.96139 0.85458-0.27154-0.50638
   1  -1  23 1217.98  -48.50  24-0.06483 0.22465-0.95327 0.84641 0.29507 0.48282
   1  -1  23 2009.95   90.50 101 0.02915 0.13069 0.85154-0.95820 0.52348 0.25449
  -1   1  23 2960.96   87.30  32-0.06727-0.09250-0.85456 0.96041 0.51497 0.26277
  -1  -1  23 2752.57   87.10  23-0.06429-0.09557-0.96133 0.85471 0.26779 0.51024
  -1  -1  23 2172.30   86.10 101 0.02844-0.18812 0.84541-0.95125 0.53335 0.24440
   1  -1 -23 2483.35   75.80   4-0.04356 0.20347-0.95575 0.84928-0.29095-0.48717
   1   1  23 2852.52  113.90  33-0.06730 0.22716-0.83799 0.94471 0.54152 0.23646
  -2  -1 -23   98.55   52.70   3-0.04257-0.27606-0.95005 0.84007-0.30918-0.46698
   2  -1  23   62.16   47.90  26-0.06590 0.38473-0.93123 0.82265 0.35843 0.41860
   2  -1  23  218.65   71.10  99 0.02563 0.29579 0.82026-0.93238 0.57141 0.20777
  -2   1  23  113.79   49.60  33-0.06730-0.25100-0.83764 0.93912 0.54206 0.23461
  -2  -1  23   72.95   54.70  99 0.02483-0.34403 0.81293-0.91830 0.58183 0.19586
   2  -1 -23   63.50   36.30   2-0.04027 0.35994-0.93585 0.82908-0.35008-0.42787
   2   1  23  165.93   64.00  35-0.06717 0.38472-0.80276 0.90442 0.59251 0.18444
  -2  -1  23    9.11   37.60  25-0.06525-0.25700-0.94579 0.84749 0.31814 0.46444
   0  -2 -23  679.89   46.20   9-0.05063 0.05063-0.98782 0.77431-0.14713-0.63078
   0   2  23  895.70   55.90  37-0.06689 0.06687-0.77357 0.98676 0.63017 0.14777
   0  -2  23  777.48   47.10  19-0.06133 0.06128-0.98732 0.77329 0.14639 0.63109
   0  -2  23  941.00   67.40  97 0.02090-0.02090 0.77537-0.98894 0.63116 0.14684
  -1  -2 -23  152.17   42.80   9-0.05034-0.10950-0.98686 0.77338-0.15351-0.62442
   1  -2  23   95.48   31.40  20-0.06218 0.22194-0.98215 0.76843 0.17754 0.60021
  -1   2  23   46.12   46.50  37-0.06687-0.09293-0.77203 0.98493 0.63206 0.14584
   1  -2  23  263.85   77.90  97 0.02010 0.13972 0.76745-0.98065 0.64079 0.13716
   1   2  23  163.35   36.10  38-0.06661 0.22652-0.75256 0.96623 0.65514 0.12287
  -1  -2  23  112.98   30.70  19-0.06144-0.09833-0.98672 0.77269 0.15036 0.62712
  -1  -2  23  132.19   62.20  96 0.01956-0.17932 0.76215-0.97506 0.64711 0.13080
   1  -2 -23  103.74   48.30   8-0.04934 0.20924-0.98327 0.77001-0.17536-0.60275
  -2  -2 -23   75.81   42.10   7-0.04842-0.27118-0.97964 0.76594-0.19485-0.58292
   2  -2  23  -14.66   44.90  22-0.06353 0.37995-0.97048 0.75057 0.23267 0.54063
   2  -2  23  210.05   88.90  94 0.01611 0.30598 0.72677-0.94758 0.68669 0.09201
  -2   2  23   46.71   47.40  39-0.06649-0.25388-0.74454 0.96049 0.66426 0.11402
   2  -2 -23  100.12   34.40   6-0.04638 0.36604-0.97049 0.75698-0.23662-0.54129
   2   2  23   36.58   50.40  40-0.06587 0.38429-0.70970 0.92005 0.70142 0.07630
  -2  -2  23   -9.24   44.10  20-0.06210-0.25480-0.98268 0.76087 0.17462 0.59678
  -2  -2  23  108.83   94.50  94 0.01612-0.33494 0.72686-0.93782 0.68660 0.09114
   0  -3 -23 3115.05   78.70  13-0.05507 0.05493-0.99764 0.67576-0.04100-0.73507
   0   3  23 3787.43  126.30  42-0.06517 0.06517-0.67666 0.99688 0.73340 0.04458
   0  -3  23 3299.54  106.60  92 0.01162-0.01162 0.67838-0.99899 0.73462 0.04338
   0  -3  23 3629.37  142.70  16-0.05827 0.05839-0.99718 0.67849 0.04726 0.73228
  -1   3  23  196.70   39.60  42-0.06512-0.09471-0.67461 0.99459 0.73530 0.04268
  -1  -3 -23  179.32   45.50  12-0.05472-0.10514-0.99726 0.67719-0.04980-0.72825
   1  -3  23   92.15   40.90  17-0.05914 0.21896-0.99553 0.67531 0.07362 0.70428
   1  -3  23   78.05   98.50  92 0.01044 0.14984 0.66528-0.98821 0.74652 0.03155
   1   3  23  188.15   42.70  43-0.06462 0.22458-0.65353 0.97416 0.75413 0.02386
  -1  -3  23  -26.57   35.50  16-0.05832-0.10151-0.99711 0.67682 0.04870 0.72911
  -1  -3  23  138.76   95.20  91 0.01035-0.17029 0.66426-0.98492 0.74743 0.03056
   1  -3 -23   98.53   55.20  12-0.05426 0.21235-0.99662 0.67094-0.06164-0.71046
   0   0  24 2044.69   93.00  28-0.06651 0.06650-0.91157 0.91144 0.40573 0.40602
   0   0  24 2355.29   85.50 106 0.03693-0.03694 0.91309-0.91323 0.40609 0.40577
   1   0  24 1227.28   72.60  29-0.06681 0.22667-0.89803 0.89806 0.43484 0.37698
  -1   0  24 1043.33   66.50  28-0.06654-0.09328-0.91050 0.91019 0.40812 0.40355
  -1   0  24 1204.50   72.10 105 0.03556-0.19531 0.90310-0.90260 0.42796 0.38363
  -2   0  24  137.78   63.10 103 0.03221-0.35130 0.87701-0.87549 0.47939 0.33183
   0  -1 -24    7.24   35.30   4-0.04374 0.04376-0.95680 0.85029-0.28744-0.52449
   0  -1  24   -7.96   38.40  24-0.06468 0.06466-0.95578 0.84880 0.28689 0.52475
   0   1  24  180.76   47.90  32-0.06728 0.06697-0.85207 0.95427 0.51908 0.29135
   0  -1  24  -63.28   81.20 101 0.02846-0.02867 0.84560-0.95934 0.53306 0.28080
  -1  -1 -24  197.73   38.00   4-0.04335-0.11651-0.95458 0.84797-0.29479-0.51708
   1  -1  24  207.50   37.10  25-0.06523 0.22506-0.94618 0.83938 0.31699 0.49476
   1  -1  24   28.71   65.10 101 0.02835 0.13157 0.84458-0.95175 0.53468 0.27725
  -1   1  24  111.39   36.50  33-0.06729-0.09252-0.84759 0.95395 0.52636 0.28534
   1   1  24  202.40   41.80  34-0.06730 0.22711-0.83176 0.93832 0.55104 0.26072
  -1  -1  24  137.56   34.60  24-0.06473-0.09508-0.95486 0.84782 0.28990 0.52170
  -1  -1  24  407.57   91.40 101 0.02758-0.18758 0.83786-0.94531 0.54519 0.26682
   1  -1 -24  347.54   61.30   3-0.04258 0.20191-0.95013 0.84122-0.30892-0.50157
   0  -2 -24  534.04   41.30   8-0.04933 0.04934-0.98321 0.76993-0.17570-0.63622
   0  -2  24  338.70   37.10  20-0.06211 0.06207-0.98261 0.76878 0.17497 0.63650
   0   2  24  556.95   65.50  37-0.06691 0.06641-0.77500 0.98105 0.62841 0.18203
   0  -2  24  640.85  104.00  97 0.02029-0.02033 0.76940-0.98459 0.63844 0.17367
  -1  -2 -24  620.24   45.30   8-0.04902-0.11086-0.98203 0.76884-0.18223-0.62976
   1  -2  24  416.15   41.50  21-0.06286 0.22256-0.97686 0.76292 0.20442 0.60697
   1  -2  24  700.85   67.70  96 0.01955 0.14042 0.76203-0.97630 0.64724 0.16470
  -1   2  24  850.52   66.60  37-0.06681-0.09303-0.76706 0.98039 0.63808 0.17370
  -1  -2  24  638.76   43.10  20-0.06220-0.09759-0.98196 0.76809 0.17857 0.63286
  -1  -2  24  445.25   68.10  96 0.01915-0.17889 0.75796-0.97082 0.65201 0.15970
   1  -2 -24  681.85   46.70   7-0.04808 0.20794-0.97819 0.76482-0.20208-0.60977
   1   2  24   98.24  -58.10  39-0.06651 0.22718-0.74545 0.96237 0.66323 0.14911
   0  -3 -24  188.43   41.20  11-0.05364 0.05366-0.99560 0.67569-0.07682-0.73523
   0   3  24  195.68   40.40  42-0.06513 0.06513-0.67474 0.99493 0.73518 0.07663
   0   0  25  408.94   41.20  29-0.06669 0.06668-0.90388 0.90368 0.42255 0.42298
   0   0  25  387.95   55.80 105 0.03588-0.03589 0.90546-0.90554 0.42291 0.42275
   1   0  25 1315.73   73.50  30-0.06694 0.22677-0.89027 0.89020 0.45048 0.39512
   1   0  25  869.78   75.10 105 0.03530 0.12463 0.90115-0.90177 0.43206 0.41385
  -1   0  25 1526.18   89.20  29-0.06672-0.09311-0.90277 0.90247 0.42492 0.42057
  -1   0  25 1266.54   96.60 104 0.03457-0.19427 0.89558-0.89490 0.44355 0.40177
   0  -1 -25   80.99   57.90   4-0.04266 0.04258-0.95057 0.84241-0.30756-0.53715
   0   1  25  -90.07   46.40  33-0.06730 0.06729-0.84183 0.94834 0.53552 0.31004
   0  -1  25  -52.45   69.70 101 0.02827-0.02826 0.84393-0.95037 0.53571 0.30983
   0  -1  25  145.49   54.10  25-0.06503 0.06482-0.94986 0.84042 0.30583 0.53805
  -1  -1 -25   78.05   37.10   3-0.04214-0.11771-0.94748 0.84070-0.31704-0.52855
  -1   1  25   61.22   48.70  33-0.06730-0.09252-0.84052 0.94690 0.53758 0.30794
   1  -1  25  103.51   44.40  25-0.06548 0.22403-0.94121 0.82971 0.33141 0.51127
   1  -1  25  175.07   88.90 100 0.02746 0.13259 0.83680-0.94492 0.54683 0.29925
   1   1  25  114.66   36.00  34-0.06728 0.22708-0.82495 0.93143 0.56118 0.28437
  -1  -1  25   36.91   35.10  25-0.06515-0.09467-0.94773 0.84074 0.31235 0.53310
  -1  -1  25   21.69   71.00 100 0.02695-0.18664 0.83228-0.93814 0.55370 0.29166
   1  -1 -25   35.01   66.70   2-0.04102 0.20142-0.94064 0.83620-0.33691-0.51010
   0  -2 -25  844.91   51.20   7-0.04804 0.04804-0.97801 0.76460-0.20293-0.64271
   0   2  25 1096.11   72.60  38-0.06676 0.06679-0.76303 0.97693 0.64290 0.20283
   0  -2  25  873.95  102.30  96 0.01993-0.01992 0.76577-0.97902 0.64281 0.20279
;
_shelx_hkl_checksum              41988
loop_
_space_group_symop_operation_xyz
'x, y, z'
'-x+1/2, -y, z+1/2'
'x+1/2, -y+1/2, -z'
'-x, y+1/2, -z+1/2'
loop_
_atom_site_label
_atom_site_type_symbol
_atom_site_fract_x
_atom_site_fract_y
_atom_site_fract_z
_atom_site_U_iso_or_equiv
_atom_site_adp_type
_atom_site_occupancy
_atom_site_site_symmetry_order
_atom_site_calc_flag
_atom_site_refinement_flags_posn
_atom_site_refinement_flags_adp
_atom_site_refinement_flags_occupancy
_atom_site_disorder_assembly
_atom_site_disorder_group
C1 C 0.0504(6) 1.0109(4) 0.65083(12) 0.0501(6) Uani 1 1 d . . . . .
C2 C -0.0790(8) 1.1976(4) 0.64493(16) 0.0654(8) Uani 1 1 d . . . . .
H2 H -0.037487 1.300678 0.673522 0.078 Uiso 1 1 calc R U . . .
C3 C -0.2736(8) 1.2245(5) 0.59442(18) 0.0736(10) Uani 1 1 d . . . . .
H3 H -0.365800 1.348805 0.589053 0.088 Uiso 1 1 calc R U . . .
C4 C -0.3350(8) 1.0737(6) 0.55200(16) 0.0718(9) Uani 1 1 d . . . . .
H4 H -0.467288 1.098329 0.518598 0.086 Uiso 1 1 calc R U . . .
C5 C -0.2054(8) 0.8865(6) 0.55766(13) 0.0640(8) Uani 1 1 d . . . . .
H5 H -0.246721 0.783485 0.529026 0.077 Uiso 1 1 calc R U . . .
C6 C -0.0123(6) 0.8603(4) 0.60774(12) 0.0501(6) Uani 1 1 d . . . . .
C7 C 0.3140(7) 0.7351(5) 0.67685(13) 0.0603(8) Uani 1 1 d . . . . .
N3 N 0.2544(6) 0.9266(4) 0.69362(11) 0.0598(7) Uani 1 1 d . . . . .
H3N1 H 0.330815 0.987627 0.725880 0.072 Uiso 1 1 calc R U . . .
O1 O 0.4796(6) 0.6129(4) 0.70124(12) 0.0875(8) Uani 1 1 d . . . . .
O2 O 0.1483(5) 0.6893(3) 0.62376(9) 0.0600(6) Uani 1 1 d . . . . .
loop_
_atom_site_aniso_label
_atom_site_aniso_U_11
_atom_site_aniso_U_22
_atom_site_aniso_U_33
_atom_site_aniso_U_23
_atom_site_aniso_U_13
_atom_site_aniso_U_12
C1 0.0494(14) 0.0519(13) 0.0491(13) 0.0011(11) 0.0035(11) -0.0039(11)
C2 0.069(2) 0.0535(16) 0.0735(18) -0.0028(14) 0.0142(15) -0.0048(14)
C3 0.068(2) 0.0658(18) 0.087(2) 0.0229(17) 0.0151(17) 0.0115(16)
C4 0.0601(19) 0.090(2) 0.0653(18) 0.0180(17) -0.0008(14) 0.0070(16)
C5 0.0602(17) 0.0789(19) 0.0528(15) -0.0038(14) -0.0044(12) -0.0013(15)
C6 0.0499(15) 0.0525(14) 0.0478(12) 0.0005(10) 0.0021(10) -0.0005(10)
C7 0.0663(19) 0.0627(17) 0.0521(14) 0.0061(12) -0.0033(12) 0.0035(14)
N3 0.0670(16) 0.0634(14) 0.0490(12) -0.0038(10) -0.0074(11) -0.0038(12)
O1 0.101(2) 0.0890(16) 0.0722(14) 0.0157(12) -0.0152(13) 0.0265(15)
O2 0.0670(13) 0.0534(11) 0.0596(12) -0.0051(8) -0.0072(9) 0.0062(9)
loop_
_atom_type_symbol
_atom_type_description
_atom_type_scat_dispersion_real
_atom_type_scat_dispersion_imag
_atom_type_scat_source
C C 0.0033 0.0016 'International Tables Vol C Tables 4.2.6.8 and 6.1.1.4'
H H 0.0000 0.0000 'International Tables Vol C Tables 4.2.6.8 and 6.1.1.4'
N N 0.0061 0.0033 'International Tables Vol C Tables 4.2.6.8 and 6.1.1.4'
O O 0.0106 0.0060 'International Tables Vol C Tables 4.2.6.8 and 6.1.1.4'
loop_
_geom_angle_atom_site_label_1
_geom_angle_atom_site_label_2
_geom_angle_atom_site_label_3
_geom_angle
_geom_angle_site_symmetry_1
_geom_angle_site_symmetry_3
_geom_angle_publ_flag
C2 C1 C6 120.8(3) . . ?
C2 C1 N3 133.9(3) . . ?
C6 C1 N3 105.2(2) . . ?
C1 C2 C3 116.6(3) . . ?
C1 C2 H2 121.7 . . ?
C3 C2 H2 121.7 . . ?
C4 C3 C2 122.0(3) . . ?
C4 C3 H3 119.0 . . ?
C2 C3 H3 119.0 . . ?
C3 C4 C5 121.5(3) . . ?
C3 C4 H4 119.2 . . ?
C5 C4 H4 119.2 . . ?
C6 C5 C4 116.3(3) . . ?
C6 C5 H5 121.8 . . ?
C4 C5 H5 121.8 . . ?
C5 C6 C1 122.6(3) . . ?
C5 C6 O2 127.9(3) . . ?
C1 C6 O2 109.4(2) . . ?
O1 C7 N3 130.0(3) . . ?
O1 C7 O2 121.5(3) . . ?
N3 C7 O2 108.5(3) . . ?
C7 N3 C1 109.8(2) . . ?
C7 N3 H3N1 125.1 . . ?
C1 N3 H3N1 125.1 . . ?
C7 O2 C6 107.0(2) . . ?
loop_
_geom_bond_atom_site_label_1
_geom_bond_atom_site_label_2
_geom_bond_distance
_geom_bond_site_symmetry_2
_geom_bond_publ_flag
C1 C2 1.375(4) . ?
C1 C6 1.379(4) . ?
C1 N3 1.395(4) . ?
C2 C3 1.381(5) . ?
C2 H2 0.9300 . ?
C3 C4 1.369(5) . ?
C3 H3 0.9300 . ?
C4 C5 1.378(5) . ?
C4 H4 0.9300 . ?
C5 C6 1.369(4) . ?
C5 H5 0.9300 . ?
C6 O2 1.385(3) . ?
C7 O1 1.210(4) . ?
C7 N3 1.348(5) . ?
C7 O2 1.371(4) . ?
N3 H3N1 0.8600 . ?
loop_
_geom_torsion_atom_site_label_1
_geom_torsion_atom_site_label_2
_geom_torsion_atom_site_label_3
_geom_torsion_atom_site_label_4
_geom_torsion
_geom_torsion_site_symmetry_1
_geom_torsion_site_symmetry_2
_geom_torsion_site_symmetry_3
_geom_torsion_site_symmetry_4
_geom_torsion_publ_flag
C6 C1 C2 C3 0.4(4) . . . . ?
N3 C1 C2 C3 179.3(3) . . . . ?
C1 C2 C3 C4 -0.2(5) . . . . ?
C2 C3 C4 C5 0.1(5) . . . . ?
C3 C4 C5 C6 -0.2(5) . . . . ?
C4 C5 C6 C1 0.4(4) . . . . ?
C4 C5 C6 O2 -179.3(3) . . . . ?
C2 C1 C6 C5 -0.5(4) . . . . ?
N3 C1 C6 C5 -179.7(3) . . . . ?
C2 C1 C6 O2 179.2(3) . . . . ?
N3 C1 C6 O2 0.0(3) . . . . ?
O1 C7 N3 C1 179.3(3) . . . . ?
O2 C7 N3 C1 -0.9(3) . . . . ?
C2 C1 N3 C7 -178.5(3) . . . . ?
C6 C1 N3 C7 0.5(3) . . . . ?
O1 C7 O2 C6 -179.3(3) . . . . ?
N3 C7 O2 C6 0.9(3) . . . . ?
C5 C6 O2 C7 179.2(3) . . . . ?
C1 C6 O2 C7 -0.6(3) . . . . ?
