#------------------------------------------------------------------------------
#$Date: 2021-04-28 00:41:21 +0300 (Wed, 28 Apr 2021) $
#$Revision: 264597 $
#$URL: file:///home/coder/svn-repositories/cod/cif/4/51/86/4518635.cif $
#------------------------------------------------------------------------------
#
# This file is available in the Crystallography Open Database (COD),
# http://www.crystallography.net/
#
# All data on this site have been placed in the public domain by the
# contributors.
#
data_4518635
loop_
_publ_author_name
'Yan, Siyu'
'Tang, Kaixin'
'Lin, Yuejian'
'Ren, Yuanhang'
'Tian, Wanli'
'Chen, Hua'
'Lin, Tingting'
'Qiu, Longzhen'
'Pan, Xiaoyong'
'Wang, Weizhi'
_publ_section_title
;
 Light-Emitting Diodes with Manganese Halide Tetrahedron Embedded in
 Anti-Perovskites
;
_journal_name_full               'ACS Energy Letters'
_journal_page_first              1901
_journal_page_last               1911
_journal_paper_doi               10.1021/acsenergylett.1c00250
_journal_year                    2021
_chemical_formula_sum            'Br3 Cl2 Cs3 Mn'
_chemical_formula_weight         764.30
_space_group_crystal_system      tetragonal
_space_group_IT_number           140
_space_group_name_Hall           '-I 4 2c'
_space_group_name_H-M_alt        'I 4/m c m'
_audit_creation_method           SHELXL-2016/6
_cell_angle_alpha                90
_cell_angle_beta                 90
_cell_angle_gamma                90
_cell_formula_units_Z            4
_cell_length_a                   9.4990(5)
_cell_length_b                   9.4990(5)
_cell_length_c                   15.0890(13)
_cell_measurement_reflns_used    1566
_cell_measurement_temperature    293(2)
_cell_measurement_theta_max      27.30
_cell_measurement_theta_min      4.06
_cell_volume                     1361.50(16)
_computing_cell_refinement       'Bruker SAINT'
_computing_data_collection       'Bruker APEX2'
_computing_data_reduction        'Bruker SAINT'
_computing_molecular_graphics    'Bruker SHELXTL'
_computing_publication_material  'Bruker SHELXTL'
_computing_structure_refinement  'SHELXL-2016/6 (Sheldrick, 2016)'
_computing_structure_solution    'SHELXT 2018/2 (Sheldrick, 2018)'
_diffrn_ambient_temperature      293(2)
_diffrn_measured_fraction_theta_full 1.000
_diffrn_measured_fraction_theta_max 1.000
_diffrn_measurement_device_type  'Bruker APEX-II CCD'
_diffrn_measurement_method       '\f and \w scans'
_diffrn_radiation_type           MoK\a
_diffrn_radiation_wavelength     0.71073
_diffrn_reflns_av_R_equivalents  0.0988
_diffrn_reflns_av_unetI/netI     0.0305
_diffrn_reflns_Laue_measured_fraction_full 1.000
_diffrn_reflns_Laue_measured_fraction_max 1.000
_diffrn_reflns_limit_h_max       13
_diffrn_reflns_limit_h_min       -13
_diffrn_reflns_limit_k_max       13
_diffrn_reflns_limit_k_min       -13
_diffrn_reflns_limit_l_max       20
_diffrn_reflns_limit_l_min       -20
_diffrn_reflns_number            15835
_diffrn_reflns_point_group_measured_fraction_full 1.000
_diffrn_reflns_point_group_measured_fraction_max 1.000
_diffrn_reflns_theta_full        25.242
_diffrn_reflns_theta_max         29.483
_diffrn_reflns_theta_min         2.700
_exptl_absorpt_coefficient_mu    18.014
_exptl_absorpt_correction_T_max  0.746
_exptl_absorpt_correction_T_min  0.192
_exptl_absorpt_correction_type   multi-scan
_exptl_absorpt_process_details   sadabs
_exptl_crystal_colour            colourless
_exptl_crystal_density_diffrn    3.729
_exptl_crystal_description       block
_exptl_crystal_F_000             1316
_exptl_crystal_size_max          0.260
_exptl_crystal_size_mid          0.240
_exptl_crystal_size_min          0.200
_refine_diff_density_max         0.776
_refine_diff_density_min         -0.757
_refine_diff_density_rms         0.169
_refine_ls_extinction_coef       0.00174(13)
_refine_ls_extinction_expression Fc^*^=kFc[1+0.001xFc^2^\l^3^/sin(2\q)]^-1/4^
_refine_ls_extinction_method     'SHELXL-2016/6 (Sheldrick 2016)'
_refine_ls_goodness_of_fit_ref   1.113
_refine_ls_hydrogen_treatment    undef
_refine_ls_matrix_type           full
_refine_ls_number_parameters     18
_refine_ls_number_reflns         535
_refine_ls_number_restraints     0
_refine_ls_restrained_S_all      1.113
_refine_ls_R_factor_all          0.0351
_refine_ls_R_factor_gt           0.0275
_refine_ls_shift/su_max          0.000
_refine_ls_shift/su_mean         0.000
_refine_ls_structure_factor_coef Fsqd
_refine_ls_weighting_details
'w=1/[\s^2^(Fo^2^)+(0.0163P)^2^+6.7915P] where P=(Fo^2^+2Fc^2^)/3'
_refine_ls_weighting_scheme      calc
_refine_ls_wR_factor_gt          0.0565
_refine_ls_wR_factor_ref         0.0588
_reflns_Friedel_coverage         0.000
_reflns_number_gt                456
_reflns_number_total             535
_reflns_threshold_expression     'I > 2\s(I)'
_cod_data_source_file            nz1c00250_si_005.cif
_cod_data_source_block           mo_200916d_a
_cod_original_cell_volume        1361.50(19)
_cod_database_code               4518635
_shelx_shelxl_version_number     2016/6
_shelx_space_group_comment
; 
The symmetry employed for this shelxl refinement is uniquely defined 
by the following loop, which should always be used as a source of 
symmetry information in preference to the above space-group names. 
They are only intended as comments. 
;
_shelx_estimated_absorpt_t_min   0.089
_shelx_estimated_absorpt_t_max   0.123
_shelx_res_file
; 
TITL mo_200916d_a.res in I4/mcm 
    mo_200916d_a.res 
    created by SHELXL-2016/6 at 17:12:06 on 24-Sep-2020 
CELL  0.71073   9.4990   9.4990  15.0890   90.000   90.000   90.000 
ZERR    4.000   0.0005   0.0005   0.0013    0.000    0.000    0.000 
LATT 2 
SYMM -X, -Y, Z 
SYMM -Y, X, Z 
SYMM Y, -X, Z 
SYMM -X, Y, 1/2-Z 
SYMM X, -Y, 1/2-Z 
SYMM Y, X, 1/2-Z 
SYMM -Y, -X, 1/2-Z 
SFAC Br Cl Cs Mn 
UNIT 12 8 12 4 
OMIT  -2.00  59.00 
L.S. 4 
ACTA 
BOND 
FMAP 2 
PLAN 5 
EXYZ Cl1 Br2 
EADP Cl1 Br2 
SIZE 0.20 0.24 0.26 
CONF 
TEMP 19.850 
WGHT    0.016300    6.791500 
EXTI    0.001745 
FVAR       0.17242 
CS1   3    0.162246    0.662246    0.500000    10.25000    0.02806    0.02806 = 
         0.04579    0.00000    0.00000   -0.00009 
CS2   3    0.500000    0.500000    0.750000    10.12500    0.04813    0.04813 = 
         0.04251    0.00000    0.00000    0.00000 
BR1   1    0.500000    0.500000    0.500000    10.12500    0.02951    0.02951 = 
         0.05346    0.00000    0.00000    0.00000 
MN1   4    0.500000    1.000000    0.750000    10.12500    0.03188    0.03188 = 
         0.02618    0.00000    0.00000    0.00000 
CL1   2    0.354841    0.854841    0.655096    10.25000    0.04927    0.04927 = 
         0.04812   -0.00905   -0.00905   -0.01258 
BR2   1    0.354841    0.854841    0.655096    10.25000    0.04927    0.04927 = 
         0.04812   -0.00905   -0.00905   -0.01258 
HKLF 4 
  
  
  
  
REM  mo_200916d_a.res in I4/mcm 
REM R1 =  0.0275 for     456 Fo > 4sig(Fo)  and  0.0351 for all     535 data 
REM     18 parameters refined using      0 restraints 
  
END 
  
WGHT      0.0159      6.8607 
  
REM Highest difference peak  0.776,  deepest hole -0.757,  1-sigma level  0.169 
Q1    1   0.0000  0.5000  0.4434  10.25000  0.05    0.78 
Q2    1   0.5000  1.0000  0.7837  10.25000  0.05    0.65 
Q3    1   0.2085  0.5873  0.5000  10.50000  0.05    0.62 
Q4    1   0.1783  0.6783  0.5359  10.50000  0.05    0.61 
Q5    1   0.2194  0.7194  0.5000  10.25000  0.05    0.57 
;
_shelx_res_checksum              20894
_shelx_hkl_file
; 
  -1  -1   0    6.30    1.10 
  -1   1   0   12.90    1.80 
   1  -1   0    8.20    1.60 
  -1  -1   0   11.10    2.00 
  -1   1   0   11.20    1.80 
   1  -1   0    9.50    1.60 
   1   1   0    8.60    1.90 
  -1  -1   0   16.30    5.20 
  -1   1   0    6.80    3.90 
   1  -1   0    9.30    4.40 
  -1  -1   0    9.00    1.90 
  -1  -1   0    9.00    4.40 
   1   1   0    8.10    1.60 
   1   1   0    7.50    4.30 
   1   1   0    1.30    3.10 
   0  -2   0  572.64   55.09 
  -2   0   0  472.05   50.39 
  -2   0   0  538.55   50.39 
  -2   0   0  432.46   52.49 
  -2   0   0  556.74   50.49 
   0  -2   0  522.85   50.89 
   2   0   0  462.45   50.49 
   0   2   0  437.16   50.89 
   0   2   0  497.35   51.29 
   0   2   0  428.56   55.79 
   0   2   0  437.46   53.99 
   2   0   0  417.46   52.69 
   2   0   0  516.65   50.79 
   0  -2   0  571.94   51.09 
  -2   2   0 4762.82  496.95 
   2   2   0 5108.59  497.75 
   2   2   0 4418.26  504.95 
   2  -2   0 5106.79  497.05 
  -2  -2   0 5032.80  503.85 
   2   2   0 5145.39  497.85 
   2   2   0 5300.77  497.05 
   2   2   0 4723.53  503.85 
   2  -2   0 5218.28  496.95 
  -2   2   0 4300.27  501.35 
   3   1   0 5275.97  614.84 
   3   1   0 5213.88  607.94 
  -1   3   0 5528.55  616.64 
  -1   3   0 6483.65  609.54 
   3   1   0 6745.32  611.84 
  -1   3   0 5327.97  611.74 
  -3  -1   0 6633.74  614.84 
   3   1   0 7026.10  607.54 
  -1   3   0 5900.31  608.84 
   1   3   0 5783.22  582.04 
   3  -1   0 6151.38  581.94 
  -3   1   0 5916.91  582.54 
   1   3   0 5341.87  588.64 
   1   3   0 6473.05  582.74 
   3  -1   0 4967.40  581.24 
   1   3   0 5690.53  591.14 
  -3   1   0 5646.13  581.44 
   3  -3   0 3358.46  325.57 
   3   3   0 3179.58  323.67 
   3   3   0 2917.31  324.67 
   3  -3   0 3173.68  323.57 
  -3  -3   0 3536.25  324.77 
  -3  -3   0 3385.16  333.77 
  -3  -3   0 3371.86  322.27 
  -3   3   0 3018.80  323.87 
   3   3   0 3249.57  335.07 
   3  -3   0 3125.99  323.77 
  -3  -3   0 3321.37  324.47 
   3   3   0 3194.18  336.87 
   3  -3   0 2958.20  323.47 
   3   3   0 2942.21  324.87 
  -2   4   0 4653.43  489.85 
   4   2   0 4602.04  497.45 
   2  -4   0 5026.00  489.35 
   2  -4   0 5526.65  490.75 
   4   2   0 4610.44  489.35 
  -4  -2   0 5028.10  489.15 
  -4  -2   0 4840.02  497.35 
   4   2   0 4463.25  500.45 
   4   2   0 4715.33  489.65 
  -4  -2   0 5103.69  489.15 
   2  -4   0 4786.32  488.75 
  -4  -2   0 5168.48  487.95 
   4   2   0 4217.98  488.25 
   4   0   0  241.08   34.50 
   0  -4   0  285.97   29.60 
   0  -4   0  293.87   29.80 
   4   0   0  271.47   29.90 
  -4   0   0  291.17   34.10 
   0   4   0  239.28   41.60 
  -4   0   0  303.87   29.10 
   0  -4   0  325.87   30.20 
   4   0   0  270.67   29.10 
   0   4   0  229.08   35.90 
   4   0   0  241.28   28.80 
   0   4   0  255.97   31.00 
  -4   0   0  273.47   29.10 
   0   4   0  241.68   30.20 
  -4   0   0  252.57   29.30 
   2   4   0 4463.45  469.85 
   4  -2   0 4102.49  468.75 
  -2  -4   0 5010.00  468.65 
  -2  -4   0 4949.21  469.05 
   2   4   0 4168.18  469.05 
  -2  -4   0 4400.66  467.15 
   2   4   0 4666.93  482.35 
  -4   2   0 4795.42  467.85 
   4  -2   0 5131.89  467.65 
  -4   2   0 4538.65  467.65 
  -4   2   0 4213.78  469.95 
   2   4   0 4788.82  481.35 
   2   4   0 4773.82  469.25 
   4  -2   0 4543.45  467.55 
  -4   2   0 4768.32  467.65 
   4   4   0 5467.15  565.54 
  -4   4   0 5550.74  566.24 
  -4  -4   0 5894.91  566.44 
   4   4   0 5442.06  567.64 
  -4   4   0 5596.74  575.04 
   4   4   0 5244.68  567.34 
   4  -4   0 5620.94  565.34 
   4  -4   0 5851.81  565.54 
   4  -4   0 5585.14  565.64 
   3  -5   0 1106.49  104.59 
  -5  -3   0 1050.29  104.99 
  -3   5   0 1029.90  106.29 
   5   3   0  971.60  104.09 
  -5  -3   0 1110.59  116.39 
  -3   5   0  909.41  117.49 
   3  -5   0  972.10  105.89 
  -5  -3   0 1119.59  103.39 
   3  -5   0 1014.60  105.19 
  -5  -3   0 1072.79  104.99 
  -3   5   0  885.61  107.19 
   5   3   0  907.11  105.39 
   5   3   0  957.50  105.59 
   5   1   0  294.77   39.00 
  -1   5   0  294.07   43.20 
   1  -5   0  339.27   36.30 
   5   1   0  325.37   36.60 
  -1   5   0  321.77   37.00 
   1  -5   0  319.37   35.60 
  -1   5   0  246.08   48.50 
   5   1   0  279.17   45.80 
   5   1   0  313.97   35.30 
  -5  -1   0  375.66   43.80 
  -5  -1   0  354.96   35.50 
   1  -5   0  407.06   37.10 
  -1   5   0  310.77   37.80 
  -5  -1   0  346.97   35.70 
   5  -1   0  272.17   34.50 
   1   5   0  341.47   51.89 
   1   5   0  276.27   36.70 
   1   5   0  304.87   46.30 
  -1  -5   0  363.56   34.40 
  -1  -5   0  339.77   35.10 
  -5   1   0  388.56   39.10 
   5  -1   0  273.87   33.70 
  -5   1   0  316.47   34.20 
  -5   1   0  340.27   34.10 
  -5   1   0  302.97   34.80 
   5  -1   0  287.47   38.20 
   1   5   0  266.07   35.60 
  -5   1   0  323.87   33.90 
  -1  -5   0  324.57   34.90 
   5  -3   0  970.90  104.99 
   5  -3   0 1062.89  105.19 
  -3  -5   0  976.10  104.19 
   3   5   0  958.00  107.29 
  -5   3   0 1050.09  105.49 
  -5   3   0 1011.30  105.59 
   3   5   0 1048.50  106.99 
   5  -3   0 1137.89  108.09 
  -3  -5   0 1066.69  106.89 
   3   5   0  907.11  108.09 
  -5   3   0 1151.78  110.89 
  -5   3   0  907.41  106.99 
  -5   5   0  285.47   44.50 
  -5  -5   0  243.18   28.10 
   5  -5   0  240.38   26.50 
  -5  -5   0  243.38   27.80 
  -5  -5   0  307.47   43.20 
   5   5   0  226.98   29.30 
   5   5   0  211.78   26.90 
   5   5   0  174.38   28.80 
   5  -5   0  221.48   26.70 
  -5   5   0  230.88   29.20 
   5  -5   0  229.08   27.00 
   4  -6   0   25.30    6.10 
   6   4   0   14.50    7.70 
  -6  -4   0   15.90    6.20 
   6   4   0   29.40   29.10 
  -4   6   0   24.20   26.10 
  -4   6   0    3.70    7.10 
  -4   6   0   23.70    9.90 
  -6  -4   0   26.50   17.90 
   6   4   0   48.90   10.30 
   4  -6   0   20.60    7.00 
   4  -6   0   43.40   11.30 
   6   4   0   25.00    7.30 
   6   2   0  170.28   26.20 
  -6  -2   0  226.48   26.60 
  -6  -2   0  253.77   36.70 
   2  -6   0  243.68   26.30 
   6   2   0  228.18   32.70 
  -2   6   0  242.98   31.20 
   2  -6   0  291.37   28.80 
   6   2   0  308.77   65.79 
  -2   6   0  192.68   33.90 
  -2   6   0  257.37   52.99 
  -2   6   0  222.48   27.80 
   2  -6   0  239.68   27.80 
  -6  -2   0  242.68   24.80 
   6   2   0  205.18   26.40 
  -6  -2   0  223.08   26.10 
   6   0   0 8313.47  912.91 
  -6   0   0 9286.37  912.81 
   0  -6   0 9347.96  913.41 
  -6   0   0 8570.54  912.61 
   6   0   0 8347.96  920.61 
   0  -6   0 9271.27  913.51 
   6   0   0 8719.53  912.61 
  -6   0   0 9999.00  920.61 
   0   6   0 9848.11  927.11 
   0   6   0 8986.30  932.51 
   0   6   0 7732.83  915.91 
   6   0   0 9906.71  914.81 
   2   6   0  183.98   29.90 
  -6   2   0  231.18   26.50 
  -6   2   0  225.08   26.70 
  -6   2   0  220.98   28.40 
   6  -2   0  238.28   29.60 
   2   6   0  287.57   53.89 
  -2  -6   0  233.78   27.80 
  -2  -6   0  221.88   27.50 
   6  -2   0  261.47   27.20 
   2   6   0  189.78   28.60 
  -2  -6   0  265.97   26.40 
   2   6   0  345.07   51.29 
   6  -2   0  214.78   28.20 
   6  -4   0   17.60    5.40 
  -6   4   0   22.20   15.30 
  -4  -6   0   25.00    4.50 
  -6   4   0   16.10    7.70 
   6  -4   0   29.60    9.90 
   6  -4   0   29.70    7.30 
   4   6   0   42.20   12.80 
   4   6   0   62.89   36.20 
   4   6   0   28.30    9.20 
  -4  -6   0   43.70   22.00 
   4   6   0   19.90    8.50 
  -6   4   0   26.80   11.90 
  -4  -6   0   12.60    6.60 
   6  -6   0 3424.46  313.67 
   6  -6   0 2871.21  313.37 
   6   6   0 3070.19  317.27 
  -6  -6   0 3461.25  315.67 
  -6   6   0 2775.42  314.97 
   6   6   0 2930.21  317.67 
   6   6   0 2966.60  313.87 
   5  -7   0   93.99   13.90 
  -7  -5   0   73.49   14.90 
   5  -7   0  120.79   21.20 
   7   5   0   86.89   15.30 
  -7  -5   0  134.89   34.10 
   7   5   0   65.79   17.30 
  -5   7   0  114.29   19.80 
   5  -7   0   84.59   15.10 
   7   3   0 2875.51  303.37 
  -3   7   0 2733.23  305.07 
  -7  -3   0 3193.28  302.67 
  -3   7   0 3063.79  309.27 
   3  -7   0 2752.62  302.57 
  -7  -3   0 3114.49  301.87 
   7   3   0 2795.32  308.97 
   3  -7   0 3354.46  301.97 
   7   3   0 2449.16  301.97 
  -7  -3   0 3170.78  299.77 
   7   1   0   80.99   14.10 
   1  -7   0  125.89   14.40 
  -1   7   0   62.69   15.90 
  -1   7   0   75.79   15.70 
  -7  -1   0   82.89   12.40 
  -7  -1   0  122.69   27.10 
  -7  -1   0   72.69   12.70 
  -1   7   0  123.99   32.70 
  -7  -1   0  106.29   14.20 
   1  -7   0   93.99   12.80 
   7   1   0   85.99   29.70 
   7   1   0   68.79   10.80 
   7   1   0   84.09   15.90 
  -7  -1   0   68.99   11.10 
   7  -1   0   83.59   14.00 
  -7   1   0   98.59   20.20 
  -1  -7   0  107.69   13.70 
   1   7   0  111.49   37.00 
  -7   1   0   60.49   11.90 
   1   7   0   70.89   17.60 
   7  -1   0   68.69   12.40 
  -7   1   0   95.89   12.50 
  -7   1   0   69.69   13.60 
   1   7   0   70.99   15.60 
   7  -1   0   94.29   20.00 
  -1  -7   0   82.29   12.10 
  -7   3   0 3224.88  305.47 
   7  -3   0 2606.44  304.47 
   7  -3   0 3122.09  307.87 
  -3  -7   0 3154.48  306.67 
   3   7   0 2688.73  308.27 
   3   7   0 2899.91  310.87 
   3   7   0 2698.93  307.87 
  -7   3   0 3133.99  305.67 
  -7   3   0 3160.78  307.17 
  -3  -7   0 3190.78  304.07 
   7  -5   0   63.59   11.50 
   5   7   0   78.99   17.00 
  -5  -7   0   91.69   16.30 
   7  -5   0   99.29   18.90 
  -7   5   0  101.59   27.50 
  -7   5   0   81.29   14.40 
   7  -5   0   61.59   12.10 
   5   7   0   74.19   16.30 
   5   7   0  124.09   23.40 
   7   7   0  126.79   21.60 
   7  -7   0  118.09   19.50 
   7  -7   0  146.99   19.60 
  -7  -7   0  220.98   46.60 
  -7  -7   0  123.19   22.20 
   7   7   0  140.29   26.70 
  -7   7   0  125.89   22.70 
   7  -7   0  179.28   28.10 
   7   7   0  156.58   28.70 
   8   6   0  370.96   39.50 
   8   6   0  219.18   40.50 
   6  -8   0  357.16   37.50 
  -8  -6   0  305.97   39.00 
  -8  -6   0  374.66   56.69 
   8   6   0  256.27   42.90 
   8   4   0  292.97   40.70 
   8   4   0  361.66   44.30 
   4  -8   0  376.36   42.40 
  -8  -4   0  407.16   41.50 
   8   4   0  294.47   41.80 
  -8  -4   0  378.76   42.80 
   4  -8   0  418.86   41.10 
  -4   8   0  319.47   45.70 
  -2   8   0  716.83   73.19 
  -2   8   0  673.23   87.69 
  -8  -2   0  650.13   68.89 
  -8  -2   0  625.74   69.99 
   8   2   0  604.74   70.59 
  -8  -2   0  664.33   66.99 
   8   2   0  617.94   70.59 
  -8  -2   0  552.94   68.39 
  -2   8   0  529.55   73.09 
  -8  -2   0  823.12   84.49 
   2  -8   0  671.63   70.69 
  -8   0   0  784.52   76.49 
   8   0   0  681.63   75.29 
   8   0   0  721.33   74.39 
   0  -8   0  776.32   75.29 
  -8   0   0  756.52   74.89 
  -8   0   0  639.54   74.19 
   8   0   0  700.73   86.39 
  -8   0   0  628.64   73.59 
   0   8   0  649.64   77.89 
   0   8   0  690.13   80.79 
  -8   2   0  783.92   70.49 
   8  -2   0  535.35   67.69 
  -8   2   0  622.64   68.09 
   2   8   0  503.95   71.89 
  -2  -8   0  635.84   68.89 
   2   8   0  539.65   73.99 
   8  -2   0  640.74   69.09 
  -2  -8   0  740.03   67.69 
  -8   2   0  672.53   68.59 
  -8   4   0  430.96   44.60 
   8  -4   0  499.05   49.60 
   4   8   0  419.46   49.20 
  -4  -8   0  374.46   45.00 
  -8   4   0  408.36   45.10 
   4   8   0  360.76   49.50 
   4   8   0  374.66   51.89 
   8  -4   0  318.67   42.80 
  -4  -8   0  383.16   41.60 
   6   8   0  256.07   39.30 
   8  -6   0  252.17   31.20 
   8  -6   0  279.97   31.10 
   6   8   0  259.57   42.80 
  -8   6   0  228.08   32.90 
   6   8   0  271.77   36.90 
  -6  -8   0  269.77   34.50 
  -8   8   0  113.29   30.00 
   8  -8   0  163.28   27.10 
  -8  -8   0  218.68   31.90 
   8   8   0  188.78   38.00 
  -8  -8   0  313.77   53.89 
   8   8   0  258.67   32.50 
   8   8   0  230.78   38.80 
   7  -9   0  279.37   40.70 
   9   7   0  382.66   51.69 
  -7   9   0  266.27   45.50 
   9   7   0  469.65   55.59 
  -9  -7   0  389.06   44.00 
  -9  -5   0  171.48   25.30 
   9   5   0  168.68   30.00 
   9   5   0  120.59   26.90 
   9   5   0  209.58   27.60 
  -9  -5   0  225.58   43.30 
  -5   9   0  116.89   29.40 
   5  -9   0  194.48   24.40 
  -9  -3   0  248.68   33.10 
  -3   9   0  226.88   39.10 
   3  -9   0  223.88   31.30 
   9   3   0  234.78   34.20 
  -9  -3   0  220.78   29.70 
  -9  -3   0  255.87   27.30 
   3  -9   0  293.77   30.40 
  -9  -3   0  275.87   45.80 
  -9  -3   0  206.68   29.20 
  -9  -1   0  780.12   81.39 
   9   1   0  703.13   80.89 
  -1   9   0  716.03   90.69 
   1  -9   0  930.41   83.99 
  -9  -1   0  847.12   85.69 
  -9  -1   0  717.13   82.79 
   9   1   0  747.93   84.79 
  -9  -1   0  870.31   83.59 
  -1   9   0  702.63   86.89 
  -9   1   0  808.92   82.99 
  -9   1   0  844.02   83.39 
  -9   1   0  766.42   82.89 
   1   9   0  678.03   90.59 
   9  -1   0  824.62   89.59 
   9  -1   0  755.62   83.69 
   1   9   0  691.33   86.69 
   9  -1   0  772.72   83.69 
  -9   1   0  792.42   84.89 
   9  -3   0  250.27   34.10 
   3   9   0  238.68   40.90 
  -9   3   0  259.97   31.90 
   3   9   0  235.48   43.10 
  -3  -9   0  262.97   28.80 
   9  -3   0  218.38   30.40 
   3   9   0  251.27   36.00 
  -3  -9   0  258.27   31.50 
  -9   3   0  271.27   31.40 
   5   9   0  204.48   32.20 
   9  -5   0  150.08   22.20 
   9  -5   0  142.39   22.60 
   5   9   0  159.38   31.60 
   9  -5   0  220.08   32.70 
   5   9   0  145.09   32.40 
  -5  -9   0  159.98   19.20 
  -5  -9   0  177.18   25.30 
  -9   5   0  196.08   24.70 
   9  -7   0  602.34   60.59 
   7   9   0  503.05   64.09 
   7   9   0  348.17   63.99 
   7   9   0  489.05   57.99 
  -7  -9   0  351.06   53.59 
   9  -9   0   66.49   24.10 
   9   9   0    6.80   28.90 
  -9  -9   0   22.70   33.90 
  -8  10   0   18.90   17.70 
  10   8   0   81.79   34.30 
   8 -10   0   89.29   25.60 
 -10  -8   0   83.99   37.30 
  -6  10   0   10.80   17.80 
 -10  -6   0   10.10   12.70 
  10   6   0   33.80   16.20 
   6 -10   0    8.00   12.40 
 -10  -6   0   18.60   27.90 
  10   6   0   17.80   23.80 
  10   6   0    9.00   17.70 
   4 -10   0  815.82   89.19 
  10   4   0  968.80   94.49 
 -10  -4   0  840.52   87.69 
  -4  10   0  715.43   94.99 
 -10  -4   0  730.63   86.99 
 -10  -2   0  607.54   65.19 
 -10  -2   0  655.93   69.89 
 -10  -2   0  608.64   62.29 
 -10  -2   0  546.45   64.69 
  -2  10   0  578.14   78.09 
  10   2   0  541.85   67.89 
   0 -10   0   88.69   15.60 
  10   0   0   86.49   15.70 
   0 -10   0  117.59   17.50 
 -10   0   0   81.99   20.10 
   0  10   0   63.99   24.10 
  10   0   0   74.49   35.80 
 -10   0   0   74.09   15.50 
  10   0   0   95.49   17.70 
 -10   0   0  110.79   17.00 
  -2 -10   0  691.23   65.99 
 -10   2   0  616.74   67.19 
 -10   2   0  528.85   69.69 
  -2 -10   0  684.43   68.09 
  10  -2   0  543.95   67.29 
  10  -2   0  636.34   69.09 
   2  10   0  570.54   77.59 
   2  10   0  566.74   76.09 
 -10   2   0  633.84   67.99 
   2  10   0  573.64   72.99 
  -4 -10   0  845.12   93.99 
 -10   4   0  872.61   97.19 
   4  10   0  938.71  103.39 
   4  10   0  873.41  104.69 
  10  -4   0  934.11   97.69 
 -10   4   0  772.32   93.29 
 -10   4   0  904.31   93.89 
   4  10   0 1047.60  102.99 
  -4 -10   0  894.41   90.59 
  10  -4   0  756.72   92.79 
  10  -6   0   29.60   16.10 
   6  10   0   15.40   26.50 
 -10   6   0   15.30   11.30 
  10  -6   0    7.80   10.00 
  -6 -10   0    0.10   12.00 
   6  10   0   -8.70   22.10 
   6  10   0   10.80   23.90 
  10  -8   0   99.29   25.70 
  -8 -10   0  118.09   44.40 
  10  -8   0   28.60   16.50 
 -10   8   0   46.70   17.10 
   8  10   0   13.90   36.40 
   8  10   0   49.00   26.90 
  -7  11   0   -3.10   18.20 
 -11  -7   0   75.19   38.60 
  11   5   0   36.00   26.60 
 -11  -5   0   54.89   36.30 
  -5  11   0   -4.60   33.70 
   5 -11   0   30.00   15.80 
   5 -11   0   49.99   17.10 
 -11  -5   0   17.90   11.30 
 -11  -3   0   -1.50   10.50 
   3 -11   0   15.60   13.10 
   3 -11   0   24.00   12.90 
 -11  -3   0   23.40   10.50 
 -11  -3   0  -18.80   28.10 
  11   3   0   41.70   19.80 
  -3  11   0   27.20   21.40 
  11   1   0   59.09   11.20 
 -11  -1   0   59.99   14.40 
 -11  -1   0   68.59   27.20 
 -11  -1   0   66.69   14.00 
 -11  -1   0  121.09   36.40 
  -1  11   0   78.29   29.20 
 -11  -1   0   83.09   16.40 
  11   1   0   69.99   19.40 
 -11   1   0  157.68   30.70 
  -1 -11   0  104.49   16.30 
 -11   1   0   66.19   23.90 
   1  11   0   78.29   29.50 
   1  11   0   59.49   33.70 
  -1 -11   0   73.19   15.70 
 -11   1   0   88.59   18.70 
   1  11   0   84.29   23.70 
 -11   1   0   73.29   17.40 
  11  -1   0   78.89   18.40 
  11  -1   0   84.79   18.30 
 -11   3   0    6.70   13.00 
  -3 -11   0   41.30   35.60 
   3  11   0   53.39   26.50 
   3  11   0  -19.40   21.40 
  11  -3   0   17.50   15.00 
  -3 -11   0   19.70   11.40 
  11  -3   0   18.00   12.40 
   3  11   0   16.70   21.40 
 -11   3   0   30.50   13.80 
  -3 -11   0   15.60    7.70 
  11  -5   0   30.30   19.20 
  -5 -11   0   25.10   20.10 
  -5 -11   0   18.30   33.90 
  -5 -11   0   17.90    7.30 
   5  11   0   -0.80   28.10 
 -11   5   0   40.20   12.60 
  11  -5   0   31.00   14.00 
  11  -7   0    4.20   21.40 
   7  11   0   32.70   35.90 
   7  11   0   19.80   33.40 
 -12  -6   0  177.78   29.80 
  -6  12   0   87.29   33.40 
 -12  -6   0  345.87   63.09 
 -12  -4   0  -14.00   34.60 
  -4  12   0  -18.10   23.30 
   4 -12   0   17.20   15.40 
 -12  -4   0    0.30    9.60 
  -2  12   0   28.70   24.80 
   2 -12   0   60.99   32.30 
   2 -12   0   36.30   13.20 
  12   2   0    7.90   22.50 
 -12  -2   0   22.10   35.40 
 -12  -2   0   13.20   11.10 
 -12   0   0  431.56   54.99 
  12   0   0  374.96   53.09 
  12   0   0  545.15   60.29 
 -12   0   0  485.95   53.79 
   0  12   0  550.84   70.59 
   2  12   0   17.60   27.90 
  -2 -12   0   81.59   46.70 
  -2 -12   0   11.20    8.90 
 -12   2   0   23.20   11.70 
  12  -2   0   15.80   15.90 
   2  12   0   39.90   28.90 
   4  12   0   26.90   30.30 
  12  -4   0  -15.90   25.40 
  -4 -12   0   -6.70    7.20 
 -12   4   0    5.60   11.50 
  -4 -12   0    6.90   37.40 
  12  -4   0    8.00   18.30 
   4  12   0    0.10   32.30 
  12  -6   0  261.87   43.70 
   6  12   0  230.78   55.99 
  -3  13   0  155.38   47.70 
 -13  -3   0  339.97   70.49 
 -13  -1   0    4.30   12.00 
 -13  -1   0    7.50   33.90 
   1 -13   0   10.90   10.90 
   1 -13   0   18.70   41.80 
 -13   1   0   14.20   12.50 
  13  -1   0   -9.60   14.80 
   1  13   0   -0.60   37.00 
  -1 -13   0   22.80   10.80 
   3  13   0  209.78   52.99 
  13  -3   0  202.28   35.40 
 -13   3   0  149.59   27.10 
   3  13   0  259.27   54.89 
  -3 -13   0  207.78   26.30 
   0   1  -1    0.40    0.60 
   0  -1  -1    2.50    1.20 
  -1   0  -1    0.50    0.50 
   0   1  -1    8.20    1.80 
  -1   0  -1    1.70    1.10 
   1   0  -1    8.60    3.10 
   1   0  -1    2.00    1.20 
   0   1  -1    2.70    2.60 
   0   1  -1    3.70    1.10 
   0  -1  -1    0.40    1.60 
  -1   0  -1    1.30    1.50 
  -1   0  -1    2.60    0.60 
   0  -1  -1    1.20    2.50 
   1   0  -1    0.70    0.70 
  -1   0  -1    3.50    0.80 
   1   0   1    2.20    0.60 
   0  -1   1    2.30    2.50 
   1   0   1    0.90    0.60 
   0  -1   1    2.80    0.90 
   0   1   1    0.90    0.70 
   0   1   1    0.40    1.30 
  -1   0   1    6.40    1.20 
   0   1   1    1.40    1.00 
   0   1   1    2.50    1.80 
  -1   0   1    0.70    1.00 
  -1   0   1    1.60    1.90 
  -1   0   1    1.80    0.90 
   0   1   1    0.90    2.50 
  -1   0   1    0.50    0.80 
   1   0   1    1.20    1.10 
   0  -1   1    1.50    0.80 
  -2  -1  -1  515.65   59.99 
   2   1  -1  570.74   58.29 
  -1   2  -1  649.34   61.09 
   1  -2  -1  544.45   57.99 
  -2  -1  -1  626.64   58.09 
  -1   2  -1  532.75   58.19 
  -2  -1  -1  597.54   57.19 
   1  -2  -1  490.35   59.49 
  -2  -1  -1  599.64   58.09 
   2   1  -1  583.14   57.99 
  -2  -1   1  628.14   57.79 
  -1   2   1  472.45   62.29 
  -2  -1   1  607.54   58.19 
   2   1   1  619.84   57.19 
   1  -2   1  513.85   57.79 
   1  -2   1  524.55   58.39 
  -2  -1   1  650.53   58.29 
  -1   2   1  570.34   58.29 
  -2  -1   1  591.54   62.89 
   2   1   1  503.45   60.39 
   1  -2   1  565.94   57.99 
   2   1   1  469.35   61.79 
   2   1   1  585.94   58.09 
  -1   2   1  487.65   58.89 
   2  -1  -1  583.84   59.39 
  -2   1  -1  561.74   58.89 
   2  -1  -1  549.85   60.79 
   1   2  -1  562.64   58.69 
  -2   1  -1  554.34   57.79 
   1   2  -1  609.94   58.79 
   2  -1  -1  590.54   58.89 
  -1  -2  -1  530.65   58.79 
   1   2  -1  587.44   58.89 
  -2   1  -1  597.04   57.79 
  -1  -2  -1  547.25   58.89 
   1   2  -1  481.05   57.99 
   1   2   1  545.35   59.29 
   2  -1   1  637.64   57.79 
   2  -1   1  559.94   58.69 
  -1  -2   1  623.54   59.19 
  -2   1   1  487.35   58.89 
   1   2   1  453.65   63.29 
  -2   1   1  530.05   59.79 
  -1  -2   1  623.44   64.39 
  -2   1   1  549.05   58.39 
  -1  -2   1  637.84   58.79 
  -2   1   1  584.04   58.39 
  -1  -2   1  632.64   58.09 
   2  -1   1  561.54   57.79 
   3   2  -1   34.30    6.10 
   3   2  -1   59.89   16.00 
   3   2  -1   36.50    4.40 
   2  -3  -1   36.40    6.40 
  -3  -2  -1   37.20   10.90 
   2  -3  -1   37.00    5.80 
  -3  -2  -1   41.10    4.30 
  -2   3  -1   38.10   14.40 
   3   2  -1   34.90    6.60 
  -2   3  -1   50.09    7.40 
  -2   3  -1   47.20    9.90 
   3   2  -1   52.79    6.90 
  -3  -2  -1   35.70   12.30 
   2  -3  -1   88.89   21.00 
   3   2  -1   28.90   14.50 
   2  -3  -1   54.59    9.10 
  -3  -2  -1   44.80    6.30 
  -2   3   1   36.60    6.80 
   3   2   1   16.80   13.40 
  -2   3   1   35.20   12.80 
   2  -3   1   48.80    6.30 
  -2   3   1   29.50    8.20 
  -3  -2   1   37.80    5.70 
   3   2   1   42.20    5.10 
   2  -3   1   46.00    5.60 
  -2   3   1   44.00    7.10 
  -3  -2   1   41.10    6.60 
   3   2   1   51.19    7.70 
   3   2   1   34.40   13.10 
  -3  -2   1   48.30   14.40 
   2  -3   1   37.40    7.40 
  -3  -2   1   46.60    6.20 
   3   2   1   26.90    6.10 
   3   0  -1    2.90    2.80 
   3   0  -1    3.30    1.70 
   3   0  -1   -2.30    6.20 
   0   3  -1    4.10    6.30 
  -3   0  -1    3.20    4.60 
   0   3  -1   -1.70    2.50 
  -3   0  -1    6.50    2.50 
  -3   0  -1    6.40    2.20 
   0  -3  -1    3.00    6.60 
   0  -3  -1   11.70    9.00 
   0   3  -1   -2.60    8.90 
   0  -3  -1    1.40    1.60 
   0  -3  -1    1.00    2.50 
  -3   0  -1    0.60    1.10 
  -3   0  -1    7.40    1.90 
  -3   0  -1    1.20    1.50 
  -3   0   1    1.20    1.60 
   0  -3   1    3.00    2.10 
   0  -3   1   -2.80    1.20 
   0   3   1    2.90    2.90 
   3   0   1   -2.20    4.10 
  -3   0   1   -1.30    2.00 
   0   3   1   -9.60    6.50 
   0  -3   1   -2.60    1.30 
   0   3   1   -1.50    7.40 
  -3   0   1    2.10    1.70 
   0  -3   1   -2.80    5.30 
  -3   0   1    3.20    4.40 
   2   3  -1   28.00    6.80 
   3  -2  -1   42.20    5.90 
  -2  -3  -1   37.70    7.00 
   3  -2  -1   42.50    6.00 
  -2  -3  -1   73.39   16.30 
   3  -2  -1   75.39   15.90 
   2   3  -1   49.99   17.80 
   2   3  -1   45.90   17.10 
  -2  -3  -1   40.00   13.00 
  -2  -3  -1   51.29    7.80 
   2   3  -1   39.60    6.80 
  -3   2  -1   39.70    6.00 
  -3   2  -1   47.40    5.60 
   2   3  -1   36.20    7.00 
  -3   2  -1   42.60    5.50 
  -3   2  -1   44.20   12.00 
  -3   2   1   33.70    7.60 
   3  -2   1   24.40    6.40 
   2   3   1   40.20    8.10 
   2   3   1   20.30   14.90 
   3  -2   1   35.70    5.10 
   2   3   1   28.70   15.00 
  -3   2   1   37.20    6.30 
  -2  -3   1   60.99   16.70 
  -3   2   1   40.70   10.20 
   2   3   1   33.60    7.30 
  -2  -3   1   37.20    5.00 
   3  -2   1   37.40    5.30 
  -2  -3   1   48.10    7.20 
  -3   2   1   49.40    6.10 
  -3   4  -1    0.50   13.00 
  -4  -3  -1    4.30    3.10 
   3  -4  -1    4.60    2.80 
  -4  -3  -1    5.70    3.80 
  -3   4  -1   10.30    6.60 
   3  -4  -1   19.80    5.80 
   3  -4  -1    4.80    3.60 
   4   3  -1    5.70    4.10 
   4   3  -1    4.00    3.40 
  -4  -3  -1    7.60    8.70 
   4   3  -1   -2.80   16.40 
   3  -4  -1   14.90   15.40 
   3  -4  -1    5.40    3.60 
  -4  -3  -1    2.70    9.30 
  -3   4  -1    8.00    4.20 
   4   3  -1    5.60    4.20 
   4   3   1    8.40    2.80 
  -4  -3   1    1.30    2.60 
  -3   4   1   11.00    3.80 
   3  -4   1    4.40    3.50 
  -4  -3   1    7.00   10.60 
   3  -4   1    5.20    4.40 
  -4  -3   1    8.40    4.00 
   3  -4   1    4.80    3.00 
  -4  -3   1    7.00    3.50 
   4   3   1    7.20   17.60 
  -3   4   1    6.50   13.50 
  -3   4   1    1.80    3.10 
   3  -4   1    5.70    2.40 
   4   3   1    5.00    3.60 
  -3   4   1   14.70    7.80 
   4   3   1   16.80    5.80 
   4   1  -1  676.03   77.89 
  -1   4  -1  681.63   76.29 
   4   1  -1  640.04   74.69 
   4   1  -1  665.33   83.99 
  -4  -1  -1  590.04   79.39 
  -1   4  -1  654.43   85.59 
   1  -4  -1  777.82   75.69 
  -4  -1  -1  772.62   74.49 
  -4  -1  -1  790.52   73.59 
   1  -4  -1  720.93   74.89 
   4   1  -1  742.33   75.19 
  -4  -1  -1  773.02   74.69 
  -4  -1  -1  843.92   77.19 
  -1   4  -1  609.44   79.69 
   4   1   1  639.44   73.99 
   1  -4   1  742.23   74.79 
   4   1   1  652.13   82.19 
  -4  -1   1  838.92   82.69 
   4   1   1  709.43   75.59 
  -1   4   1  643.04   75.39 
  -4  -1   1  701.53   74.69 
   4   1   1  709.13   73.49 
   4   1   1  723.73   74.79 
   1  -4   1  764.62   75.69 
  -4  -1   1  797.72   74.99 
  -1   4   1  674.83   75.99 
   1  -4   1  829.72   75.39 
  -4  -1   1  806.42   74.99 
  -1   4   1  554.94   83.89 
  -4  -1   1  792.42   74.39 
  -1  -4  -1  726.73   74.79 
  -4   1  -1  754.72   73.49 
  -1  -4  -1  853.31   84.29 
   4  -1  -1  677.43   73.89 
   1   4  -1  711.13   75.89 
  -4   1  -1  751.02   73.49 
   4  -1  -1  766.12   74.19 
  -4   1  -1  696.03   74.59 
   1   4  -1  643.34   86.09 
  -4   1  -1  731.63   73.39 
   1   4  -1  564.74   82.19 
  -4   1  -1  620.44   73.99 
   4  -1  -1  767.12   75.69 
  -1  -4  -1  733.53   74.79 
  -4   1  -1  711.93   73.49 
   4  -1  -1  640.84   76.69 
   1   4  -1  601.24   74.59 
   1   4   1  589.54   75.09 
  -1  -4   1  765.72   74.79 
  -1  -4   1  787.52   74.59 
  -4   1   1  761.92   73.39 
   4  -1   1  708.03   74.39 
   4  -1   1  701.63   73.39 
  -4   1   1  724.53   74.79 
  -4   1   1  739.03   73.99 
   1   4   1  674.93   76.09 
  -1  -4   1  730.43   73.89 
  -4   1   1  759.42   73.99 
   4  -1   1  758.72   75.79 
  -3  -4  -1   -1.50    9.40 
  -4   3  -1    3.00    2.90 
   3   4  -1    3.40   18.10 
  -3  -4  -1    7.50    4.40 
  -3  -4  -1    3.40    4.10 
  -3  -4  -1    7.50    2.10 
  -3  -4  -1    3.00   10.00 
  -4   3  -1   15.90    4.70 
  -4   3  -1    2.40   10.10 
   3   4  -1    7.00    5.00 
   3   4  -1    8.20    4.20 
   4  -3  -1    3.80   12.50 
   4  -3  -1    5.80    3.80 
   3   4  -1    2.20   16.10 
   3   4  -1    3.40    3.90 
   4  -3  -1    3.10    2.70 
  -4   3  -1    5.90    2.90 
  -4   3   1    2.10    3.10 
  -3  -4   1    4.70    3.50 
  -4   3   1    7.00    3.50 
  -4   3   1    6.30    8.80 
   3   4   1    6.20    4.70 
   4  -3   1   11.10    3.10 
   4  -3   1    3.30    4.00 
   3   4   1    4.30    3.90 
  -3  -4   1    6.60    1.90 
  -4   3   1    3.60    5.60 
  -3  -4   1   -2.50    9.50 
   3   4   1   15.60    6.20 
   3   4   1   -5.50   17.30 
   3   4   1    7.40   16.50 
  -3  -4   1    4.70    3.60 
  -5  -4  -1  441.66   48.50 
  -4   5  -1  443.76   49.70 
   4  -5  -1  413.36   48.20 
   4  -5  -1  429.06   48.10 
  -4   5  -1  447.16   49.20 
   5   4  -1  402.86   50.59 
   5   4  -1  426.56   48.00 
   5   4  -1  400.46   49.40 
  -4   5  -1  468.95   63.59 
  -5  -4  -1  513.15   49.00 
   5   4   1  410.06   49.40 
   5   4   1  440.46   47.10 
   4  -5   1  490.75   47.60 
   4  -5   1  439.26   47.90 
  -5  -4   1  469.95   48.50 
  -4   5   1  524.15   63.49 
   4  -5   1  449.95   50.09 
  -4   5   1  422.26   51.99 
  -5  -4   1  484.55   48.80 
  -4   5   1  405.36   48.70 
   5   2  -1  443.76   48.00 
   2  -5  -1  372.96   39.60 
  -2   5  -1  367.36   38.50 
   5   2  -1  320.67   35.10 
  -2   5  -1  385.06   54.69 
  -5  -2  -1  275.17   43.80 
  -2   5  -1  320.67   39.40 
  -5  -2  -1  348.77   37.20 
   5   2  -1  420.86   55.39 
  -5  -2  -1  370.56   35.60 
   5   2  -1  304.57   38.10 
   5   2  -1  292.77   37.30 
  -2   5  -1  319.87   43.00 
  -5  -2  -1  351.56   37.70 
   5   2  -1  336.57   38.10 
   2  -5  -1  344.47   37.40 
   2  -5   1  397.96   54.39 
  -5  -2   1  363.46   36.40 
   5   2   1  322.57   37.40 
   2  -5   1  377.16   38.00 
   5   2   1  297.97   50.49 
  -2   5   1  336.07   38.90 
  -5  -2   1  408.86   48.10 
  -5  -2   1  366.46   37.70 
  -2   5   1  338.07   42.50 
   5   2   1  309.37   42.50 
   2  -5   1  428.96   39.50 
   2  -5   1  349.37   37.10 
   5   2   1  272.47   36.20 
  -5  -2   1  383.36   37.70 
  -2   5   1  281.47   49.50 
  -5   0  -1    4.30    7.50 
   0  -5  -1    8.90   10.40 
   5   0  -1   -0.40    2.60 
  -5   0  -1    2.50    2.40 
   0  -5  -1   -2.40    3.90 
   0  -5  -1    0.00    2.60 
   0   5  -1   12.40    6.00 
   0   5  -1   -3.80   18.70 
   0   5  -1   -1.30   11.20 
   5   0  -1    3.80    5.00 
   5   0  -1    2.00   12.30 
   0   5  -1    0.20    3.50 
  -5   0  -1    0.60    2.00 
   0  -5  -1    3.10   11.50 
  -5   0  -1    6.30    3.30 
   0   5   1    0.40   11.40 
   0   5   1   -1.60   15.80 
   5   0   1    4.70    2.80 
   5   0   1    4.00    2.80 
   0  -5   1   -0.60    2.90 
   0  -5   1    0.60    2.30 
   0  -5   1    4.60   10.90 
  -5   0   1    5.70    3.60 
  -5   0   1    1.90    3.30 
  -5   0   1    2.00    2.60 
   0   5   1    4.00    4.50 
   0   5   1    5.60    5.20 
  -5   0   1    2.20    2.40 
  -5   0   1   -7.80    6.20 
   0  -5   1   -1.30    3.80 
   2   5  -1  293.17   37.20 
  -2  -5  -1  346.87   36.90 
  -2  -5  -1  330.97   36.90 
  -5   2  -1  325.97   35.50 
   5  -2  -1  303.57   35.60 
  -5   2  -1  324.27   38.10 
   5  -2  -1  338.67   35.40 
   2   5  -1  345.17   38.40 
   2   5  -1  269.17   37.90 
   5  -2  -1  373.26   36.20 
  -5   2  -1  396.26   35.60 
  -5   2  -1  287.87   36.70 
  -2  -5  -1  325.77   35.20 
   2   5  -1  317.67   54.29 
   2   5  -1  312.57   54.09 
   2   5   1  356.86   55.79 
  -2  -5   1  353.96   35.40 
   5  -2   1  299.87   36.80 
   5  -2   1  304.17   35.00 
   2   5   1  270.17   38.90 
   2   5   1  277.57   38.50 
  -2  -5   1  365.76   36.70 
  -5   2   1  346.87   36.00 
   2   5   1  337.67   51.89 
  -2  -5   1  344.37   37.00 
  -5   2   1  338.47   37.40 
  -5   2   1  379.96   36.30 
   4   5  -1  420.36   49.70 
   5  -4  -1  435.46   49.00 
   5  -4  -1  494.05   49.30 
  -5   4  -1  462.95   59.19 
  -4  -5  -1  514.45   50.79 
   4   5  -1  608.24   78.89 
  -4  -5  -1  470.65   51.29 
   4   5  -1  431.36   51.59 
  -5   4  -1  361.16   51.39 
  -5   4  -1  453.35   49.30 
   4   5  -1  464.05   51.09 
  -4  -5  -1  435.46   46.90 
   4   5   1  456.05   49.50 
  -5   4   1  439.16   49.40 
   5  -4   1  531.85   52.59 
  -4  -5   1  494.05   50.29 
   4   5   1  387.46   50.69 
  -5   4   1  428.46   52.19 
  -4  -5   1  492.55   49.80 
   4   5   1  441.66   52.19 
  -4  -5   1  474.45   46.90 
   5  -4   1  432.76   48.20 
   5  -4   1  470.55   48.30 
   5  -4   1  461.85   48.30 
   5  -6  -1   18.00    6.80 
   6   5  -1   13.40    7.70 
   6   5  -1   25.70   10.50 
  -6  -5  -1   19.20    8.10 
  -5   6  -1   13.40    8.30 
  -5   6  -1   54.19   28.10 
   5  -6  -1   22.70   11.10 
   6   5  -1    2.70    7.10 
  -6  -5  -1   34.00   19.20 
  -5   6   1   21.80    8.90 
  -6  -5   1   29.40    7.80 
   6   5   1   18.90    6.50 
  -6  -5   1   36.80   21.00 
   5  -6   1   14.70    5.80 
  -5   6   1   45.50   27.50 
   6   5   1   16.80    9.40 
   5  -6   1    6.40    7.80 
   6   5   1   14.40    8.30 
   5  -6   1   17.90   10.10 
  -3   6  -1   17.80   13.20 
   3  -6  -1    7.40    5.90 
   3  -6  -1   12.60    7.50 
   6   3  -1   11.30   27.40 
   3  -6  -1   11.10   27.10 
   6   3  -1    1.90    5.30 
   3  -6  -1   11.50    4.80 
   6   3  -1   24.40   21.70 
  -3   6  -1   15.10   24.00 
  -6  -3  -1   12.20    4.80 
   6   3  -1   22.20    6.90 
  -6  -3  -1    0.20    5.10 
   3  -6  -1   25.20   11.90 
  -6  -3  -1   17.40   14.40 
   6   3  -1   10.10    6.40 
  -6  -3   1    1.20    6.30 
   3  -6   1    6.90    6.30 
   3  -6   1   14.60    4.50 
   6   3   1    8.10    5.80 
  -3   6   1   19.40    8.30 
   3  -6   1   17.70    7.50 
   3  -6   1   15.90    5.60 
  -6  -3   1   11.20    5.00 
   6   3   1    4.20   26.20 
  -6  -3   1   14.90   14.70 
  -3   6   1   27.10   23.90 
  -3   6   1   20.60   10.40 
   6   3   1   12.20   19.00 
  -6  -3   1   14.50    4.10 
   6   3   1   12.30    6.00 
   6   3   1    6.90    5.40 
  -6  -1  -1   17.30   12.30 
  -6  -1  -1   24.40    5.40 
  -6  -1  -1   22.40    6.10 
   1  -6  -1   61.99   29.70 
   6   1  -1   30.90   22.60 
   1  -6  -1   20.60    6.90 
  -1   6  -1    7.30   16.10 
  -1   6  -1   12.20    8.20 
  -1   6  -1   10.80    6.40 
   1  -6  -1   21.10    6.50 
   6   1  -1   18.70    4.90 
   1  -6  -1   23.50    5.70 
   6   1  -1   18.20    7.90 
  -1   6  -1   13.50   24.30 
  -6  -1  -1   20.70    6.90 
  -6  -1   1   40.70   16.30 
  -1   6   1   16.50    7.20 
  -1   6   1   23.80   16.90 
  -1   6   1   20.60    8.60 
  -6  -1   1   27.10    6.90 
  -6  -1   1   18.40    5.40 
   6   1   1   21.40    5.80 
   1  -6   1   53.39   19.40 
  -6  -1   1   15.60    5.20 
  -6  -1   1   27.90    6.30 
   1  -6   1   31.70    7.30 
  -1   6   1   40.80   27.10 
   1  -6   1   19.40    5.40 
   6   1   1   14.00   19.00 
   6   1   1   17.10    4.10 
   1  -6   1   31.90    7.40 
  -1  -6  -1   21.50    5.80 
   1   6  -1    9.20   19.90 
  -1  -6  -1   20.40    6.00 
  -6   1  -1   25.90    7.30 
  -6   1  -1   22.10    5.20 
  -1  -6  -1   14.10    6.30 
  -6   1  -1   19.30    5.90 
  -6   1  -1   23.10   10.90 
  -1  -6  -1   47.80   19.90 
   6  -1  -1   14.50   11.70 
   1   6  -1   12.00    6.70 
   1   6  -1   42.70   26.20 
   6  -1  -1   10.60    4.90 
  -1  -6  -1   68.19   28.00 
   6  -1  -1   20.50   10.50 
   1   6  -1    7.50    8.10 
  -6   1   1   39.00    6.80 
   1   6   1   20.50    9.00 
   1   6   1   39.10   25.70 
  -1  -6   1   26.90    6.90 
  -6   1   1   18.10    5.80 
   6  -1   1   19.50    5.20 
  -1  -6   1   15.70    5.80 
  -6   1   1   30.60   10.70 
  -1  -6   1   33.90   19.90 
   6  -1   1   15.60    9.30 
   1   6   1   12.80    7.00 
  -1  -6   1   16.50    5.30 
  -6   1   1   22.60    5.80 
  -6   1   1   50.19    9.50 
  -6   3  -1    6.60    4.50 
  -3  -6  -1    3.80    5.80 
   6  -3  -1    4.80    5.30 
   6  -3  -1    8.90    4.50 
   3   6  -1   10.30    7.00 
  -3  -6  -1   10.30    5.50 
   3   6  -1   23.80    9.30 
   6  -3  -1    7.40    7.60 
  -6   3  -1   17.00    5.00 
  -6   3  -1    7.60    5.30 
   3   6  -1   14.70   30.20 
  -3  -6  -1   21.10   16.90 
  -3  -6  -1    5.40    3.50 
   3   6  -1    3.60    6.30 
  -3  -6  -1   38.50   25.60 
  -6   3  -1   18.80   11.40 
   6  -3   1   10.30    3.70 
  -3  -6   1   10.10    5.70 
  -6   3   1   14.40    5.30 
  -6   3   1   10.60    5.20 
  -3  -6   1   24.50   18.40 
  -6   3   1   17.50    8.70 
   6  -3   1   13.00    6.50 
   3   6   1    6.00    7.20 
   3   6   1    9.20    8.90 
   3   6   1   14.60    8.80 
   3   6   1    1.00   32.30 
  -6   3   1   20.50    9.80 
  -3  -6   1   15.00    4.20 
  -5  -6  -1   20.30    7.70 
  -6   5  -1   12.70    6.80 
  -5  -6  -1   15.40   17.20 
   5   6  -1   31.00   45.80 
   6  -5  -1   16.60    9.40 
   5   6  -1    8.00    8.40 
  -6   5  -1    7.70   21.30 
   5   6  -1   13.20    8.50 
   5   6  -1   20.30   10.80 
   6  -5   1    6.80    4.80 
   6  -5   1   23.30   10.20 
  -5  -6   1   17.40    7.00 
  -6   5   1   19.90   19.10 
   5   6   1   19.70    7.90 
   5   6   1   23.90    9.50 
  -5  -6   1   23.10   19.90 
   5   6   1   41.70   46.30 
  -6   5   1   12.20    6.90 
   6  -7  -1    9.30    6.40 
   7   6  -1   -8.60   10.30 
  -7  -6  -1    0.60    7.70 
   7   6  -1   -4.40   10.90 
   7   6  -1   -6.20    9.40 
  -7  -6  -1   13.50   20.00 
   6  -7  -1   16.70   12.90 
   6  -7  -1  -10.90    6.00 
  -6   7  -1   -5.00    8.80 
   7   6   1   14.40   12.00 
   6  -7   1   10.80   10.60 
  -7  -6   1    3.70    7.30 
  -7  -6   1   21.50   21.90 
   7   6   1   -3.60   10.90 
   6  -7   1   -4.00    4.90 
  -6   7   1    6.10    9.10 
   7   6   1   11.40    8.20 
   6  -7   1    3.90    5.80 
   7   4  -1  276.47   38.50 
   7   4  -1  325.57   40.90 
  -7  -4  -1  378.46   52.09 
   4  -7  -1  416.86   39.20 
  -7  -4  -1  367.46   38.60 
  -4   7  -1  283.27   41.30 
  -4   7  -1  338.37   45.30 
  -7  -4  -1  361.06   41.00 
   7   4  -1  299.87   39.70 
   4  -7  -1  335.87   39.50 
   4  -7   1  364.66   40.80 
   4  -7   1  405.36   38.10 
   7   4   1  283.57   37.10 
   7   4   1  342.47   40.70 
  -4   7   1  301.17   41.40 
  -7  -4   1  374.86   39.00 
  -7  -4   1  332.77   39.00 
   7   4   1  293.97   39.50 
   7   4   1  317.37   59.29 
  -7  -2  -1  485.25   49.80 
  -7  -2  -1  484.25   60.09 
   7   2  -1  424.86   52.39 
   7   2  -1  392.86   46.00 
  -7  -2  -1  420.86   48.00 
   7   2  -1  419.76   50.19 
  -7  -2  -1  441.96   48.50 
  -2   7  -1  405.16   52.69 
   2  -7  -1  513.55   49.40 
   7   2  -1  415.66   49.90 
  -2   7  -1  477.05   60.89 
  -2   7  -1  465.15   51.59 
  -7  -2   1  486.45   49.10 
  -7  -2   1  464.75   49.99 
  -2   7   1  437.76   52.99 
   7   2   1  459.15   70.49 
  -7  -2   1  384.56   48.40 
   7   2   1  420.56   49.10 
   7   2   1  429.16   49.90 
   2  -7   1  521.45   49.10 
  -2   7   1  493.95   60.09 
  -7  -2   1  485.25   47.70 
   7   2   1  467.35   49.20 
  -7   0  -1    4.30    6.40 
  -7   0  -1   -0.90    3.80 
   7   0  -1    6.50    4.90 
   0  -7  -1    1.20    4.80 
   7   0  -1   13.10    9.90 
   0   7  -1   10.00   20.20 
   0  -7  -1    5.70   15.90 
   7   0  -1    3.70    4.80 
   0   7  -1    5.50    7.80 
  -7   0  -1    1.40   12.60 
   7   0  -1   19.90   21.00 
  -7   0  -1   -0.30    3.60 
   0   7  -1    0.60   10.00 
   0  -7  -1    2.20    4.00 
   0  -7  -1    4.90   20.40 
  -7   0  -1   -1.40    4.40 
   0   7   1    2.80    6.80 
  -7   0   1   -3.50    3.80 
  -7   0   1    4.90   10.60 
   0  -7   1   -3.50    4.30 
   7   0   1    6.50    4.50 
   7   0   1    7.50   14.40 
   0  -7   1   -9.30   16.70 
   0   7   1  -12.30   19.40 
   0   7   1   27.90   10.80 
   7   0   1    2.20    4.30 
  -7   0   1    3.30    5.20 
  -7   0   1    4.50    6.50 
  -7   0   1    1.60    4.00 
   7  -2  -1  434.86   48.40 
  -7   2  -1  467.05   47.60 
   2   7  -1  354.06   49.70 
  -7   2  -1  534.55   52.69 
  -2  -7  -1  503.55   47.30 
   7  -2  -1  371.16   47.40 
   7  -2  -1  400.86   49.40 
  -2  -7  -1  466.05   48.90 
  -7   2  -1  452.95   48.20 
   2   7  -1  404.66   54.79 
  -7   2  -1  443.06   49.00 
   2   7  -1  459.05   53.59 
  -2  -7   1  431.76   48.60 
  -7   2   1  520.35   49.99 
  -7   2   1  454.85   48.20 
  -2  -7   1  455.15   47.00 
   2   7   1  369.06   52.19 
   7  -2   1  399.86   47.00 
   2   7   1  341.17   50.09 
   7  -2   1  417.86   49.00 
  -7   2   1  460.15   48.00 
   4   7  -1  291.47   43.20 
   7  -4  -1  433.76   43.20 
   7  -4  -1  319.77   38.00 
  -4  -7  -1  326.47   39.40 
   4   7  -1  351.46   42.00 
  -4  -7  -1  328.77   36.00 
  -7   4  -1  343.97   38.30 
   4   7  -1  337.47   43.70 
   7  -4   1  374.86   41.50 
   4   7   1  327.17   41.50 
  -7   4   1  311.97   39.20 
  -4  -7   1  382.86   36.30 
  -4  -7   1  374.86   40.10 
   4   7   1  321.17   41.90 
  -7   4   1  341.77   38.80 
   4   7   1  277.67   43.30 
   7  -4   1  307.37   37.00 
   7  -6  -1   13.10    6.30 
   7  -6  -1   12.90   11.90 
   6   7  -1   -3.90   10.80 
  -7   6  -1    3.90    8.20 
  -6  -7  -1    4.10   19.20 
   6   7  -1   15.30   12.70 
  -7   6  -1    3.70   30.40 
   7  -6  -1   -6.10    5.80 
   6   7  -1    9.20   10.50 
  -6  -7  -1   -1.70    7.10 
  -7   6   1   -4.20   27.30 
  -7   6   1   -0.70    8.10 
   6   7   1    5.50   12.80 
   6   7   1    1.90   11.30 
  -6  -7   1    3.70    7.50 
   7  -6   1   -1.60    4.40 
  -6  -7   1   -0.50   19.20 
   7  -6   1    9.60    5.80 
   7  -6   1    4.10   10.70 
   6   7   1   21.70    9.70 
   8   7  -1  207.68   34.20 
   8   7  -1  135.59   29.10 
   7  -8  -1  127.09   21.70 
   8   7  -1  214.28   28.70 
  -7   8  -1  129.49   24.50 
  -8  -7  -1  164.88   25.60 
  -8  -7   1  205.88   26.20 
   7  -8   1  110.09   20.20 
  -7   8   1  114.29   25.90 
   8   7   1  199.18   33.80 
   8   7   1  256.27   35.50 
   5  -8  -1  182.18   27.50 
  -8  -5  -1  192.48   26.50 
   8   5  -1  144.99   28.80 
  -5   8  -1  192.58   32.50 
  -8  -5  -1  234.98   43.40 
   8   5  -1  251.57   29.60 
   8   5  -1  190.28   31.50 
   8   5   1  209.58   26.40 
  -8  -5   1  240.38   44.50 
   8   5   1  185.88   28.90 
   5  -8   1  242.28   26.30 
  -5   8   1  237.48   31.70 
  -8  -5   1  221.68   27.40 
   5  -8   1  152.28   25.90 
   8   5   1  385.66   74.39 
   8   5   1  205.08   30.80 
  -8  -3  -1   12.30    8.90 
  -8  -3  -1    3.70    5.50 
  -3   8  -1   21.50   12.60 
   3  -8  -1   10.50    6.00 
  -8  -3  -1    5.90   15.70 
   8   3  -1    0.50   10.40 
   3  -8  -1    5.40    7.80 
   8   3  -1   15.90   23.30 
   3  -8  -1   -1.00   12.90 
  -3   8  -1    8.20   21.40 
   8   3  -1   10.10    8.40 
  -3   8   1   -4.20   18.70 
  -3   8   1    3.00   10.00 
   8   3   1   -0.30    9.00 
   8   3   1    3.70    7.50 
   3  -8   1   18.10    6.30 
   8   3   1   11.60   18.60 
  -8  -3   1    4.20    5.80 
  -8  -3   1    1.80    4.90 
  -8  -3   1   -4.50    8.40 
  -8  -3   1    3.90   16.00 
  -8  -3   1    7.40    5.60 
   3  -8   1   14.00    9.50 
  -8  -1  -1  318.47   33.70 
  -8  -1  -1  349.96   47.10 
  -8  -1  -1  289.87   33.50 
   8   1  -1  265.57   34.70 
  -8  -1  -1  347.67   35.90 
   8   1  -1  298.47   32.40 
   8   1  -1  306.37   38.70 
  -1   8  -1  228.98   41.10 
  -1   8  -1  294.67   37.20 
   8   1  -1  299.67   55.19 
   1  -8  -1  339.07   34.50 
  -1   8  -1  389.06   54.09 
  -8  -1  -1  263.97   31.70 
   8   1   1  325.07   55.19 
  -8  -1   1  262.97   32.60 
  -8  -1   1  275.47   33.50 
   8   1   1  264.57   34.40 
  -1   8   1  260.07   39.20 
   1  -8   1  320.17   33.80 
  -1   8   1  253.37   49.50 
   8   1   1  238.68   31.50 
  -8  -1   1  307.97   34.00 
  -8  -1   1  324.27   35.70 
  -1   8   1  329.57   39.00 
  -8   1  -1  311.97   34.90 
   1   8  -1  211.38   35.70 
  -1  -8  -1  342.97   34.70 
   8  -1  -1  299.37   42.40 
  -8   1  -1  308.07   33.20 
   8  -1  -1  237.28   33.40 
  -8   1  -1  303.67   33.40 
   8  -1  -1  260.97   34.30 
  -8   1  -1  336.87   34.20 
   1   8  -1  285.27   41.70 
   8  -1   1  313.37   34.30 
   8  -1   1  260.37   33.30 
   8  -1   1  298.17   39.60 
   1   8   1  265.27   37.30 
  -8   1   1  275.87   35.50 
  -8   1   1  310.07   35.10 
  -8   1   1  308.27   34.00 
   1   8   1  315.47   40.70 
  -8   1   1  271.67   33.20 
  -1  -8   1  300.97   34.10 
  -3  -8  -1    3.60    5.90 
   3   8  -1   19.20   11.10 
  -3  -8  -1   12.10   21.50 
  -3  -8  -1    5.90    4.50 
   3   8  -1   -3.20   12.20 
   8  -3  -1   -1.70    5.40 
   8  -3  -1   -2.00    7.40 
  -8   3  -1   10.50    6.90 
   3   8  -1    0.40   11.50 
  -8   3  -1    1.50    7.60 
  -8   3  -1    3.30    5.90 
   3   8   1    3.40    9.20 
  -3  -8   1   11.90    4.90 
   8  -3   1   12.40    5.40 
   8  -3   1   -2.40    8.00 
  -8   3   1    7.20    7.30 
   3   8   1  -13.20    9.80 
   3   8   1    6.40   12.00 
  -8   3   1   -0.20    5.90 
  -3  -8   1    1.20   21.20 
  -3  -8   1    9.40    6.70 
  -5  -8  -1  220.68   27.30 
   8  -5  -1  313.97   33.70 
  -8   5  -1  148.29   25.10 
   8  -5  -1  138.29   24.30 
   5   8  -1  153.38   32.30 
   5   8  -1  169.28   30.90 
   5   8  -1  210.78   32.70 
  -5  -8  -1  211.38   21.70 
  -5  -8   1  199.88   27.30 
  -8   5   1  188.58   26.40 
   5   8   1  193.18   32.50 
   5   8   1  203.28   33.30 
   8  -5   1  180.08   23.90 
   5   8   1  176.08   34.80 
   8  -5   1  174.68   24.50 
  -5  -8   1  229.08   21.90 
   8  -5   1  248.28   30.10 
   7   8  -1  237.28   35.30 
   8  -7  -1  166.08   25.40 
   7   8  -1  166.78   35.50 
  -8   7  -1  124.59   25.50 
   7   8  -1  253.87   32.70 
  -7  -8  -1  173.18   28.00 
   7   8   1  206.88   29.70 
  -7  -8   1  213.88   29.90 
   7   8   1  282.17   38.90 
   8  -7   1  156.58   24.00 
   7   8   1  214.68   38.00 
  -8   7   1  162.08   28.60 
   8  -7   1  275.37   33.80 
   9   8  -1   11.10   23.40 
  -8   9  -1   -5.80   12.10 
   8  -9  -1   11.40   12.20 
   9   8  -1   -1.60   25.20 
  -9  -8  -1   -6.50   14.90 
  -9  -8  -1   -1.90   29.00 
   8  -9  -1   -8.00   16.00 
  -9  -8   1   16.30   15.80 
   9   8   1  -10.50   14.50 
  -8   9   1    8.70   14.40 
   9   8   1    9.10   24.00 
   9   8   1   16.50   26.10 
   8  -9   1   12.10   17.10 
   8  -9   1    9.40    9.90 
  -9  -8   1   17.60   27.70 
   9   6  -1   11.90   14.20 
  -9  -6  -1   32.20   26.70 
   6  -9  -1   12.60   15.40 
   6  -9  -1    7.90   11.50 
  -6   9  -1   -3.50   13.20 
   9   6  -1   -5.70   16.90 
   9   6  -1    7.80  107.19 
  -9  -6  -1   22.20   16.50 
   9   6  -1    3.90   14.70 
  -9  -6   1   19.40   24.30 
   6  -9   1    8.40   12.60 
  -6   9   1   -8.70   14.20 
   9   6   1   36.10   20.00 
   9   6   1   10.30   16.50 
   6  -9   1   11.10    9.60 
  -9  -6   1   11.40   10.60 
   9   4  -1   15.40   12.40 
   4  -9  -1   -4.90    6.10 
   4  -9  -1    1.90    9.70 
   9   4  -1   26.20   27.90 
  -4   9  -1   -4.60   13.80 
  -4   9  -1    1.50   25.10 
   4  -9  -1    7.00    9.30 
  -9  -4  -1   -2.80   19.30 
  -9  -4  -1   13.30   15.90 
   9   4  -1   19.80   13.80 
  -9  -4  -1    9.50    7.20 
  -9  -4   1    8.20   20.00 
  -9  -4   1    0.50    6.90 
   4  -9   1   -0.80    8.10 
  -9  -4   1   11.70    8.00 
   9   4   1  -10.80    9.00 
   4  -9   1    6.80    9.90 
   9   4   1   16.70   13.70 
   9   4   1   16.10   22.10 
  -4   9   1   -8.50   20.10 
   4  -9   1    2.00    6.20 
  -4   9   1   -1.40   13.30 
  -9  -2  -1   -5.40    4.80 
   2  -9  -1    5.30    6.20 
  -9  -2  -1   11.20   11.60 
   2  -9  -1   19.80    9.40 
  -2   9  -1   26.20   16.20 
  -9  -2  -1    5.10    5.40 
  -2   9  -1   30.20   31.40 
  -9  -2  -1   14.00    6.30 
   9   2  -1    0.80   14.10 
  -9  -2  -1    6.80   17.70 
   2  -9  -1   17.60   21.20 
  -2   9   1    1.30   28.00 
  -2   9   1    2.80   11.80 
  -9  -2   1   -0.40    6.70 
   9   2   1    3.40    8.80 
  -9  -2   1   -8.30    6.10 
   2  -9   1    9.90    5.90 
  -9  -2   1   -0.70   19.00 
   2  -9   1    9.80    8.30 
  -9  -2   1    8.20    6.10 
  -9  -2   1   16.90   11.50 
   0  -9  -1   -4.70    5.30 
  -9   0  -1    3.30    6.70 
  -9   0  -1    6.10   10.50 
   9   0  -1    5.20    7.50 
   0  -9  -1  -16.60   22.10 
  -9   0  -1    8.60   16.30 
   9   0  -1    4.70    7.00 
   0  -9  -1    1.40    5.80 
   9   0  -1   -1.90   30.10 
  -9   0  -1    0.20    5.80 
  -9   0  -1    7.10    6.30 
   0   9  -1   24.90   14.70 
   0   9  -1   -7.50    9.40 
   9   0   1    4.20    6.30 
   0  -9   1   -5.40    5.70 
  -9   0   1  -11.30    8.10 
   9   0   1   18.20   22.30 
  -9   0   1   -3.30    6.40 
   9   0   1    0.10    7.30 
   0  -9   1    2.70   22.10 
   0   9   1   -8.80   12.10 
  -9   0   1    4.50   14.20 
  -9   0   1   -9.10    5.40 
  -9   0   1    1.70   11.30 
   0  -9   1    4.40    5.60 
   0   9   1  -16.40   10.40 
  -9   2  -1   -6.30    6.20 
  -2  -9  -1   17.00   25.20 
   9  -2  -1   10.50    7.10 
   2   9  -1   -6.60   12.80 
  -9   2  -1    9.90   11.30 
   9  -2  -1    1.80    9.70 
   9  -2  -1    8.40    9.20 
   2   9  -1   12.00   11.70 
  -9   2  -1    7.40   12.70 
  -2  -9  -1    7.20    5.50 
  -2  -9  -1    7.00    6.60 
  -9   2  -1   -2.80   10.20 
   2   9  -1  -15.10   13.20 
  -9   2  -1    5.60    6.90 
   9  -2   1   16.60    7.20 
  -9   2   1    6.80   11.00 
   2   9   1   12.60   11.90 
   9  -2   1    5.90    8.90 
  -9   2   1   -0.50    7.70 
  -9   2   1    4.80   11.40 
  -2  -9   1    6.10    9.10 
   2   9   1   -0.40   13.60 
  -2  -9   1   13.60   28.60 
  -9   2   1    7.00    7.40 
  -2  -9   1   10.40    5.80 
  -9   4  -1  -13.30    6.90 
   4   9  -1   -1.50   13.20 
   4   9  -1    4.80   16.40 
  -4  -9  -1   13.20   23.30 
  -9   4  -1    5.10    8.40 
  -9   4  -1    1.40   10.30 
  -4  -9  -1   13.30    8.30 
   9  -4  -1    0.50   11.70 
   9  -4  -1    1.10    6.80 
   4   9  -1    6.10   16.20 
  -4  -9  -1   -2.50    4.20 
  -9   4   1   -1.40    9.60 
   4   9   1   -0.20   15.40 
   9  -4   1    4.00    6.90 
   9  -4   1    1.20   10.40 
  -4  -9   1    5.10    4.80 
   4   9   1   15.30   14.40 
  -4  -9   1    0.10   23.80 
  -9   4   1   -8.70    7.80 
  -4  -9   1    7.20    7.90 
   4   9   1   -8.70   16.10 
   9  -6  -1   10.60    9.40 
  -6  -9  -1   -5.00   23.00 
   6   9  -1   45.00   19.70 
   6   9  -1  -18.90   16.90 
  -9   6  -1    1.70    8.50 
  -6  -9  -1   -5.60   10.80 
  -9   6  -1   38.50   29.70 
   9  -6   1   -3.20    7.50 
   6   9   1    9.20   17.20 
  -6  -9   1  -11.30   10.00 
  -6  -9   1   32.80   29.50 
  -9   6   1   -9.70   20.10 
  -9   6   1   21.40   11.20 
   6   9   1    7.60   21.30 
   9  -8  -1    5.90   18.40 
   8   9  -1   13.10   25.20 
   8   9  -1    9.10   20.50 
  -8  -9  -1    7.20   14.60 
  -9   8  -1    1.90   10.80 
   9  -8  -1   -0.30   11.40 
  -8  -9  -1  -11.40   25.00 
   8   9  -1  -21.40   25.60 
  -8  -9   1   -7.40   14.90 
  -9   8   1   -5.60   13.10 
  -8  -9   1  -10.60   27.10 
   8   9   1   -0.30   26.50 
   8   9   1  -47.50   25.60 
   9  -8   1    6.80   16.60 
   9 -10  -1   -1.40   20.00 
  10   9  -1  -19.70   33.30 
 -10  -9  -1    3.60   31.40 
  -9  10  -1    5.60   13.50 
 -10  -9   1   12.00   33.30 
  -9  10   1   12.40   18.10 
   9 -10   1   17.50   23.60 
  10   7  -1   66.49   31.90 
   7 -10  -1   70.89   22.20 
  -7  10  -1   11.90   16.60 
  10   7  -1   34.90   24.10 
 -10  -7  -1   73.29   34.50 
   7 -10  -1   32.80   16.20 
  10   7  -1  128.39   23.00 
  10   7   1   28.90   23.50 
   7 -10   1  114.39   24.90 
 -10  -7   1  105.89   40.40 
  -5  10  -1  120.89   28.80 
 -10  -5  -1  106.79   20.70 
   5 -10  -1  111.89   32.70 
  10   5  -1  202.98   33.80 
 -10  -5  -1  166.08   43.00 
 -10  -5   1  118.09   21.80 
 -10  -5   1  191.58   25.80 
  10   5   1  141.79   29.50 
  -5  10   1  108.79   29.10 
  10   5   1  160.78   41.00 
   5 -10   1  119.19   22.60 
 -10  -5   1  241.08   57.29 
 -10  -3  -1   -8.80    7.70 
  10   3  -1  -11.10   17.20 
   3 -10  -1  -11.80   10.70 
   3 -10  -1    5.30   17.80 
 -10  -3  -1   12.30   21.60 
   3 -10  -1    8.10    8.20 
 -10  -3  -1    7.60   16.10 
   3 -10   1   -6.60    6.60 
  -3  10   1  -26.90   14.70 
 -10  -3   1    2.00    8.50 
 -10  -3   1    2.70    7.70 
   3 -10   1   -1.00    9.20 
  10   3   1    3.90   12.60 
   3 -10   1   -2.60   10.00 
 -10  -3   1  -18.20   23.10 
 -10  -3   1    2.50    8.20 
 -10  -1  -1  271.37   45.10 
 -10  -1  -1  189.88   31.20 
  -1  10  -1  151.58   36.00 
   1 -10  -1  200.38   28.60 
  -1  10  -1  149.09   29.90 
 -10  -1  -1  229.18   26.80 
 -10  -1  -1  165.98   25.20 
  10   1  -1  188.38   23.50 
   1 -10  -1  255.87   27.50 
  10   1  -1  181.88   29.50 
 -10  -1  -1  179.78   23.50 
  10   1   1  206.88   29.00 
  -1  10   1  175.68   36.20 
 -10  -1   1  215.88   26.90 
 -10  -1   1  171.78   25.00 
   1 -10   1  267.47   27.80 
  10   1   1  159.78   22.80 
   1 -10   1  220.68   26.10 
 -10   1  -1  213.18   28.70 
 -10   1  -1  193.78   27.90 
   1  10  -1  219.68   41.90 
  10  -1  -1  201.08   28.80 
  10  -1  -1  175.18   28.70 
 -10   1  -1  212.98   27.20 
   1  10  -1  194.68   40.30 
 -10   1  -1  272.57   38.70 
  -1 -10  -1  252.57   27.00 
 -10   1  -1  175.98   30.80 
  -1 -10  -1  224.58   27.50 
  10  -1  -1  207.48   39.70 
 -10   1   1  221.98   28.70 
  -1 -10   1  240.08   26.50 
 -10   1   1  295.67   38.10 
  -1 -10   1  193.08   27.40 
   1  10   1  204.98   41.10 
   1  10   1  147.89   31.50 
 -10   1   1  168.28   30.90 
  10  -1   1  209.98   28.60 
  10  -1   1  190.18   27.60 
 -10   1   1  166.38   26.90 
 -10   3  -1    2.90    8.10 
  10  -3  -1   -5.70    9.10 
   3  10  -1    3.60   15.30 
  10  -3  -1  -12.40   11.90 
  -3 -10  -1    2.40    7.90 
   3  10  -1   -0.70   20.30 
  -3 -10  -1    0.10   24.60 
 -10   3  -1   -0.60    9.30 
  -3 -10  -1    6.00    5.90 
   3  10  -1   16.60   19.80 
 -10   3  -1   20.30   13.90 
  -3 -10   1   12.70   27.30 
  10  -3   1  -15.10    9.70 
  10  -3   1   -2.50    7.80 
 -10   3   1   13.80   11.40 
 -10   3   1   12.10    9.30 
  -3 -10   1   -4.40    7.80 
  -3 -10   1    4.10    5.90 
   3  10   1   -2.60   18.40 
   3  10   1    1.20   16.40 
 -10   3   1    7.50   14.60 
  -5 -10  -1  144.29   17.30 
 -10   5  -1  110.89   23.30 
  10  -5  -1   83.49   19.90 
   5  10  -1  107.49   31.90 
  10  -5  -1  176.48   31.30 
   5  10  -1  161.68   31.70 
 -10   5  -1  126.19   20.90 
   5  10  -1  194.38   36.80 
   5  10   1  225.58   37.20 
  -5 -10   1  154.38   24.50 
  10  -5   1  131.89   20.60 
  10  -5   1  187.58   33.70 
  -5 -10   1  140.49   17.60 
   5  10   1  169.28   32.10 
   5  10   1  194.68   38.70 
  -7 -10  -1   49.10   18.10 
  10  -7  -1   44.10   15.20 
   7  10  -1   92.29   37.00 
   7  10  -1  134.69   33.50 
  -7 -10  -1  108.49   39.20 
   7  10  -1   75.89   29.30 
 -10   7  -1   30.50   12.50 
  10  -7   1   30.60   13.10 
   7  10   1  101.89   32.60 
  -7 -10   1   73.89   19.50 
  10  -7   1   86.39   39.70 
   7  10   1   50.09   25.10 
 -10   7   1   47.90   16.30 
  -7 -10   1  125.39   42.00 
   7  10   1   71.89   35.80 
  10  -9  -1   18.10   24.40 
 -10   9  -1   -2.10   12.30 
   9  10  -1   15.50   40.80 
  -9 -10  -1   12.10   36.50 
  -9 -10   1    7.10   34.50 
   9  10   1   25.40   40.10 
  10  -9   1   -8.10   21.40 
 -10   9   1  -23.60   14.90 
 -11  -6  -1    1.00   29.40 
   6 -11  -1   -2.80   15.70 
  -6  11  -1   -5.40   17.40 
 -11  -6  -1  -11.20   11.20 
   6 -11   1   -0.50   15.20 
 -11  -6   1   41.60   35.90 
  -6  11   1   29.50   21.90 
 -11  -6   1   15.40   12.30 
  11   4  -1  116.89   28.40 
   4 -11  -1  140.59   25.10 
 -11  -4  -1  112.29   22.10 
 -11  -4  -1  198.68   49.50 
  -4  11  -1  115.49   32.30 
   4 -11  -1  233.18   33.90 
  -4  11   1  119.69   36.50 
   4 -11   1  209.58   30.20 
   4 -11   1  117.59   22.20 
 -11  -4   1   80.59   20.20 
  11   4   1  144.89   31.90 
 -11  -4   1  207.98   49.70 
 -11  -2  -1  111.19   35.70 
  11   2  -1   99.89   24.70 
 -11  -2  -1  107.69   20.30 
   2 -11  -1  111.69   21.80 
 -11  -2  -1  119.99   21.00 
 -11  -2  -1  219.48   46.60 
  -2  11  -1   88.39   30.00 
 -11  -2   1  115.99   21.50 
 -11  -2   1  108.49   20.90 
 -11  -2   1  203.18   45.10 
  11   2   1  124.29   25.70 
   2 -11   1  190.88   24.50 
  -2  11   1  156.28   36.40 
   0 -11  -1    8.80   32.90 
 -11   0  -1  -16.70   10.10 
 -11   0  -1    0.80   23.10 
   0 -11  -1    2.90    8.70 
   0 -11  -1    6.40    8.80 
 -11   0  -1   -8.50    9.50 
 -11   0  -1    1.70   18.90 
  11   0  -1  -12.70    8.80 
   0  11  -1   -3.70   22.50 
   0  11  -1  -30.80   22.00 
   0  11  -1  -13.20   16.90 
  11   0  -1   12.20   13.70 
   0 -11   1   14.00    8.80 
  11   0   1  -12.10   11.20 
 -11   0   1  -12.90   20.60 
 -11   0   1   -5.70    8.60 
   0 -11   1   -6.20   26.70 
 -11   0   1   -0.90   20.10 
   0  11   1  -12.50   21.40 
 -11   0   1    3.80   10.30 
  11   0   1   -0.80    8.20 
   0 -11   1    5.10    7.70 
   0  11   1    9.80   17.50 
   2  11  -1  135.69   29.50 
 -11   2  -1  206.38   30.70 
  11  -2  -1  106.19   22.80 
   2  11  -1  174.88   39.30 
   2  11  -1  123.59   43.10 
 -11   2  -1  114.19   20.10 
  -2 -11  -1  113.99   20.70 
  11  -2  -1  150.58   26.10 
 -11   2  -1  128.89   21.20 
  -2 -11  -1  144.39   19.80 
  11  -2   1  113.19   22.00 
 -11   2   1  150.68   23.20 
 -11   2   1  128.79   28.70 
  11  -2   1  145.69   24.60 
  -2 -11   1  150.88   22.50 
  -2 -11   1  137.19   19.50 
   2  11   1  109.49   33.60 
   2  11   1  127.39   32.30 
   2  11   1  134.29   36.30 
 -11   2   1  105.99   21.00 
   4  11  -1  165.78   34.30 
  11  -4  -1   91.79   21.10 
  -4 -11  -1  115.69   16.30 
  -4 -11  -1  121.29   21.20 
  11  -4  -1  101.19   24.00 
   4  11  -1   91.39   46.80 
   4  11  -1  155.78   45.30 
   4  11   1  101.39   36.50 
 -11   4   1   95.09   22.00 
 -11   4   1  127.79   21.40 
   4  11   1  165.28   34.80 
  -4 -11   1   97.79   20.20 
  11  -4   1   96.09   19.00 
  11  -4   1  161.08   26.40 
  -4 -11   1  116.49   16.60 
  -6 -11  -1  -15.40   13.40 
   6  11  -1  -48.60   30.10 
 -11   6  -1   -0.70    9.30 
   6  11  -1   -3.60   33.20 
  11  -6  -1   -6.80   14.70 
  -6 -11  -1    3.70   32.50 
   6  11  -1   47.60   33.00 
 -11   6   1  -20.20   11.50 
  -6 -11   1   -3.50   32.40 
   6  11   1   -6.10   30.20 
   6  11   1   28.30   31.40 
   6  11   1  -38.50   50.29 
  11  -6   1    6.20   12.80 
  -6 -11   1   -4.00   14.20 
 -12  -5  -1   -4.90   10.90 
 -12  -5  -1    3.70   34.30 
  -5  12  -1   13.70   23.70 
   5 -12  -1   -8.20   14.00 
  -5  12   1  -17.00   25.10 
 -12  -5   1   -0.90   19.50 
   5 -12   1   -5.00   15.70 
 -12  -5   1  -34.40   37.10 
 -12  -3  -1   -0.70   10.70 
   3 -12  -1    0.50   13.60 
  -3  12  -1   45.10   26.00 
 -12  -3  -1    7.80   31.50 
 -12  -3   1  -14.80   35.10 
   3 -12   1    1.10   12.50 
 -12  -3   1   -8.50   10.30 
  -3  12   1   19.70   25.50 
  -1  12  -1   -1.90   28.90 
  12   1  -1   -9.30   19.10 
   1 -12  -1   -8.90   10.50 
 -12  -1  -1  -29.60   12.00 
 -12  -1  -1   -9.80   10.10 
  12   1  -1    0.40    7.30 
   1 -12  -1   13.50   31.70 
 -12  -1  -1    7.00   29.20 
   1 -12   1  -26.70   31.40 
 -12  -1   1   11.70   12.00 
  -1  12   1   24.50   27.90 
 -12  -1   1   -9.10   29.20 
   1 -12   1    1.50   10.00 
  12   1   1  -23.70   17.70 
  12  -1  -1  -34.40   17.00 
  -1 -12  -1   17.60   38.60 
 -12   1  -1   -2.70    9.80 
  -1 -12  -1    9.90    9.60 
   1  12  -1  -39.80   23.50 
   1  12  -1   20.60   31.90 
  12  -1  -1   -0.90   13.30 
 -12   1   1  -18.90    9.70 
 -12   1   1  -17.80   13.80 
   1  12   1  -15.90   25.50 
   1  12   1   27.40   30.30 
  12  -1   1    0.00   12.20 
  -1 -12   1    1.70   34.50 
  -1 -12   1   -3.50    8.30 
  -3 -12  -1    8.40   38.10 
  12  -3  -1  -33.40   16.60 
 -12   3  -1   -7.00    9.80 
   3  12  -1    7.80   28.30 
  -3 -12  -1    2.90    7.80 
   3  12  -1   -1.90   31.90 
 -12   3  -1   16.80   13.30 
  12  -3   1  -26.60   15.60 
  12  -3   1   23.80   20.30 
   3  12   1   33.30   29.10 
  -3 -12   1   -3.10    7.30 
 -12   3   1   -3.90   12.60 
  -3 -12   1    7.00   37.70 
   3  12   1    7.40   29.00 
 -12   5  -1  -10.50    9.60 
   5  12  -1  -14.80   32.70 
  -5 -12  -1    5.10   36.50 
   5  12  -1    6.40   35.90 
   5  12   1  -52.09   35.20 
  12  -5   1   -8.20   19.10 
 -12   5   1    9.00   12.90 
   5  12   1    2.00   34.00 
   5  12   1    0.00   51.49 
  -5 -12   1  -25.40   40.20 
   2 -13  -1  157.28   43.40 
   2 -13  -1   61.59   17.20 
 -13  -2  -1   42.10   15.70 
 -13  -2  -1   71.69   46.80 
   2 -13   1   72.09   17.10 
  -2  13   1   -7.70   53.79 
 -13  -2   1   57.59   16.90 
   0  13  -1   65.09   57.49 
 -13   0  -1   -6.60   11.10 
 -13   0  -1   -0.60   33.30 
   0 -13  -1   -0.60   39.70 
   0  13  -1  -13.70   39.50 
 -13   0   1    0.30   12.40 
   0  13   1    0.80   33.10 
   0 -13   1    8.70   40.20 
 -13   0   1   19.20   30.90 
   2  13  -1   42.80   39.80 
  -2 -13  -1  115.19   51.79 
  -2 -13  -1   72.49   14.20 
  13  -2  -1   -3.30   20.30 
   2  13  -1  123.79   66.89 
 -13   2  -1   52.19   14.50 
  -2 -13   1  186.88   59.89 
 -13   2   1   32.00   14.30 
  -2 -13   1   52.89   12.70 
  13  -2   1   15.80   18.70 
   2  13   1   54.69   35.10 
   0   0  -2  277.37   29.10 
   0   0  -2  284.77   29.30 
   0   0  -2  287.87   30.60 
   0   0  -2  258.37   29.10 
   0   0   2  288.27   29.10 
   0   0   2  302.27   29.30 
   0   0   2  297.07   30.50 
   0   0   2  270.07   29.10 
   1  -1  -2   56.49    6.60 
   1   1  -2   56.89   10.40 
  -1   1  -2   54.99    5.70 
  -1  -1  -2   52.09    9.20 
  -1  -1  -2   50.69    8.60 
   1   1  -2   49.10    6.50 
   1  -1  -2   69.79    7.60 
  -1  -1  -2   46.80    6.40 
   1  -1  -2   49.20    8.70 
  -1   1  -2   46.10    6.40 
  -1  -1  -2   46.70    6.10 
   1  -1  -2   62.59    6.80 
   1   1  -2   48.40    6.40 
  -1   1  -2   58.69    6.80 
  -1  -1  -2   52.79    6.80 
  -1   1  -2   50.89    5.70 
   1   1   2   60.19    9.60 
  -1   1   2   52.39    7.30 
   1  -1   2   65.19    5.70 
  -1  -1   2   57.19    6.50 
   1   1   2   47.70    6.80 
   1  -1   2   50.89    6.50 
  -1  -1   2   54.69    6.50 
   1   1   2   43.40    6.10 
  -1  -1   2   76.29   12.20 
  -1   1   2   50.29    8.70 
  -1   1   2   50.59    6.80 
   1   1   2   50.99    8.70 
   1  -1   2   57.99    5.70 
  -1  -1   2   56.99    6.50 
   1  -1   2   53.49    5.70 
   2   0  -2 1835.72  221.08 
   0  -2  -2 1875.91  223.28 
   0   2  -2 2232.88  225.78 
  -2   0  -2 2312.97  220.48 
   2   0  -2 2214.88  221.68 
   0  -2  -2 2043.40  225.78 
   0   2  -2 2033.60  220.78 
  -2   0  -2 2100.49  221.68 
  -2   0  -2 2275.07  220.28 
   0   2  -2 2136.19  221.28 
   0  -2  -2 2101.69  220.98 
   0  -2  -2 2432.06  221.58 
   0   2  -2 2246.18  220.98 
   2   0  -2 2124.79  221.08 
   0   2  -2 2367.06  221.68 
  -2   0  -2 2284.17  220.58 
  -2   0  -2 1939.61  222.68 
   0   2   2 2061.69  223.38 
   0   2   2 1881.11  221.38 
   0  -2   2 2334.67  221.28 
   2   0   2 2274.07  223.08 
   0   2   2 2094.39  221.18 
   2   0   2 2311.97  221.68 
  -2   0   2 2370.26  221.78 
  -2   0   2 1979.90  220.98 
   0  -2   2 2359.06  220.88 
   0  -2   2 2319.57  221.08 
   0   2   2 2264.97  221.48 
  -2   0   2 2327.67  221.08 
  -2   0   2 2269.77  221.08 
   2   0   2 2081.09  220.38 
   2   0   2 2204.88  220.98 
  -2  -2  -2  151.48   17.80 
   2  -2  -2  181.38   23.60 
   2   2  -2  141.39   17.70 
   2   2  -2  152.58   17.60 
   2   2  -2  160.38   16.70 
   2   2  -2  156.98   17.80 
   2  -2  -2  161.38   17.60 
  -2  -2  -2  118.09   21.00 
  -2   2  -2  148.49   16.90 
  -2  -2  -2  169.78   18.20 
   2  -2  -2  184.78   19.50 
   2  -2  -2  164.78   17.70 
  -2   2  -2  129.09   17.50 
  -2  -2  -2  147.89   21.90 
   2  -2  -2  171.28   17.80 
   2   2  -2  116.49   23.70 
  -2  -2   2  182.08   24.40 
   2  -2   2  161.78   16.50 
   2   2   2  151.68   24.10 
  -2   2   2  148.69   17.50 
  -2  -2   2  191.38   17.50 
   2   2   2  164.48   23.80 
   2   2   2  129.19   17.80 
  -2   2   2  129.99   18.50 
  -2   2   2  176.78   17.90 
   2  -2   2  167.68   18.00 
   2  -2   2  140.99   16.50 
  -2  -2   2  170.18   17.60 
   2  -2   2  164.08   16.60 
   2   2   2  163.58   18.30 
  -2  -2   2  178.68   17.70 
  -1   3  -2  395.46   50.79 
   1  -3  -2  465.95   54.29 
   3   1  -2  464.15   51.29 
   1  -3  -2  466.65   50.99 
   3   1  -2  485.05   51.29 
  -1   3  -2  504.95   57.59 
  -3  -1  -2  525.55   50.69 
   1  -3  -2  533.95   51.79 
   3   1  -2  387.46   56.89 
  -3  -1  -2  545.75   51.09 
  -3  -1  -2  510.35   50.09 
  -1   3  -2  460.05   51.39 
  -3  -1   2  546.25   50.99 
  -1   3   2  412.66   52.09 
  -3  -1   2  466.25   50.99 
   3   1   2  497.45   50.99 
  -3  -1   2  508.05   51.19 
   3   1   2  463.65   56.09 
  -1   3   2  506.25   51.69 
   1  -3   2  496.85   51.49 
   3   1   2  525.35   50.89 
   1  -3   2  519.55   50.89 
   1  -3   2  489.65   50.79 
  -1   3   2  480.95   53.29 
  -1   3   2  443.06   58.19 
   3   1   2  474.75   52.69 
  -3  -1   2  562.74   51.29 
   1   3  -2  517.45   52.29 
   3  -1  -2  468.75   52.49 
   3  -1  -2  427.86   53.39 
   3  -1  -2  517.15   51.49 
  -3   1  -2  402.96   51.09 
   1   3  -2  481.95   59.39 
   3  -1  -2  454.45   53.59 
  -1  -3  -2  467.85   51.79 
   1   3  -2  504.25   51.79 
  -1  -3  -2  434.56   56.39 
  -1  -3  -2  605.64   60.19 
   1   3  -2  512.95   52.19 
  -3   1  -2  532.15   52.49 
  -3   1  -2  530.85   50.29 
  -3   1  -2  464.75   52.89 
  -3   1  -2  514.25   50.29 
  -3   1  -2  483.95   50.29 
  -1  -3  -2  497.05   52.19 
  -1  -3   2  602.84   60.39 
  -1  -3   2  536.55   51.09 
  -3   1   2  529.65   52.29 
  -3   1   2  503.05   51.39 
   1   3   2  471.65   52.89 
  -1  -3   2  511.15   51.59 
   1   3   2  421.56   57.09 
  -1  -3   2  542.15   51.49 
   3  -1   2  509.35   50.39 
   1   3   2  395.66   59.39 
  -3   1   2  520.85   51.59 
  -3   1   2  444.06   51.99 
   1   3   2  412.46   52.09 
   3  -1   2  515.45   51.49 
  -3  -3  -2 1128.39  114.89 
   3  -3  -2 1129.99  114.39 
   3   3  -2 1110.09  114.49 
  -3   3  -2 1142.59  113.99 
  -3  -3  -2 1217.18  115.19 
   3   3  -2  907.11  113.99 
   3   3  -2 1049.40  115.09 
   3   3  -2 1102.69  115.19 
  -3  -3   2 1258.77  113.99 
   3  -3   2 1184.88  115.49 
  -3   3   2  891.31  115.39 
  -3  -3   2 1204.58  114.69 
  -3   3   2 1062.49  114.39 
   3  -3   2 1168.98  113.39 
  -3   3   2 1162.48  114.79 
   3   3   2 1101.99  115.49 
   3  -3   2 1028.90  113.09 
  -3  -3   2 1151.38  114.39 
   3   3   2  951.50  123.69 
  -3   3   2 1227.38  121.19 
   3  -3   2 1140.39  113.19 
   4   2  -2   67.89   11.50 
   2  -4  -2   75.19   13.00 
  -2   4  -2   80.29   24.10 
  -4  -2  -2   87.19    8.80 
   4   2  -2   71.69   10.90 
  -4  -2  -2   85.29   10.40 
  -4  -2  -2   46.40   16.00 
   4   2  -2   64.19   10.40 
  -2   4  -2   79.69   15.80 
   2  -4  -2   68.89   10.70 
   2  -4  -2  112.29   16.60 
  -4  -2  -2   83.69   14.90 
   2  -4  -2   92.39   10.70 
  -2   4  -2   67.19   10.20 
  -4  -2  -2   85.49   11.60 
  -2   4  -2   69.99   12.20 
   4   2  -2   52.89   22.10 
  -2   4   2   69.59   12.10 
   4   2   2   78.39   10.60 
   2  -4   2   67.39   10.90 
   4   2   2   84.49   25.50 
  -2   4   2   74.29   14.20 
  -2   4   2   80.29   11.40 
  -4  -2   2   84.99   10.00 
   2  -4   2   76.49   10.30 
  -4  -2   2   89.29   10.80 
  -4  -2   2   92.39   10.90 
  -4  -2   2  107.79   19.80 
   2  -4   2   72.69    9.70 
  -2   4   2   53.49   20.30 
   0  -4  -2 1232.48  129.49 
   0   4  -2 1065.59  129.49 
   0  -4  -2 1319.67  130.19 
  -4   0  -2 1104.69  128.19 
   4   0  -2 1212.28  129.39 
   0   4  -2 1175.48  137.09 
   0  -4  -2 1456.05  137.19 
  -4   0  -2 1416.76  128.49 
  -4   0  -2 1345.27  128.69 
   4   0  -2 1296.67  129.19 
  -4   0  -2 1319.17  129.59 
   4   0  -2 1171.48  129.89 
   4   0  -2 1030.80  134.49 
   0   4  -2 1246.78  130.59 
   4   0   2 1268.87  128.59 
  -4   0   2 1288.07  129.29 
   0   4   2 1206.98  130.79 
   4   0   2 1261.27  128.59 
   4   0   2 1323.87  133.59 
  -4   0   2 1230.48  129.29 
   0   4   2 1296.17  130.59 
   0  -4   2 1338.07  129.29 
  -4   0   2 1389.86  129.49 
   0  -4   2 1280.87  129.39 
   0   4   2 1122.99  140.59 
   0  -4   2 1367.76  129.59 
   0   4   2 1203.28  135.79 
   4  -2  -2   79.89   14.10 
  -4   2  -2   86.19   12.00 
  -4   2  -2   85.59    9.50 
   2   4  -2   56.49   10.80 
   2   4  -2   88.19   12.50 
  -4   2  -2   83.99    9.60 
   2   4  -2   69.29   23.20 
   4  -2  -2   70.89   11.80 
  -2  -4  -2   79.99   11.50 
   2   4  -2   81.69   11.60 
   4  -2  -2  114.79   18.70 
   4  -2  -2   92.29   10.90 
   2   4  -2   92.69   12.00 
  -2  -4  -2  130.29   21.90 
   2   4  -2   96.39   28.20 
  -2  -4  -2   78.09   20.10 
   2   4   2   61.89   22.20 
  -4   2   2   82.79   10.80 
   2   4   2   65.59   13.20 
  -4   2   2   91.29   13.80 
   4  -2   2   75.39   11.30 
   4  -2   2   65.69    9.10 
   2   4   2   85.19   13.80 
  -2  -4   2  128.89   27.50 
  -2  -4   2   78.99   10.70 
  -2  -4   2   81.59    9.70 
  -4   2   2   79.79   13.50 
   2   4   2   85.79   26.50 
  -4   2   2   70.39   10.50 
  -2  -4   2   71.49   10.70 
  -4   4  -2   80.59   13.20 
   4   4  -2   62.89   12.00 
   4   4  -2   64.39   28.90 
   4  -4  -2  111.59   29.30 
   4   4  -2   61.39   11.00 
   4   4  -2   60.79   28.20 
  -4  -4  -2   81.19   12.30 
  -4  -4  -2   92.09   22.30 
  -4  -4  -2   62.59   11.40 
  -4   4  -2   65.59   22.40 
  -4   4  -2   65.19   10.70 
  -4  -4  -2   67.59   20.30 
   4  -4  -2   70.79   11.00 
   4  -4  -2   76.29   11.50 
   4   4  -2   67.79   11.90 
   4  -4   2   57.09    8.40 
  -4  -4   2   71.99   10.40 
  -4  -4   2   69.49    9.50 
  -4   4   2  116.09   24.70 
   4   4   2   67.89   27.60 
   4  -4   2   68.89    8.90 
   4   4   2   50.69   25.20 
   4   4   2   45.90   11.20 
   4   4   2   54.69    9.20 
   4  -4   2   78.69   12.90 
  -4  -4   2  100.99   27.00 
  -4   4   2   80.09   15.10 
  -4   4   2   65.09   11.20 
  -4  -4   2   49.99   10.20 
   4   4   2   79.99   13.40 
   4  -4   2   58.59    8.70 
  -5  -3  -2  331.87   50.49 
   3  -5  -2  388.76   43.30 
  -3   5  -2  386.26   58.59 
   3  -5  -2  385.56   42.80 
  -3   5  -2  382.86   44.50 
   5   3  -2  347.07   42.90 
  -5  -3  -2  482.15   50.99 
  -5  -3  -2  398.06   43.40 
   5   3  -2  410.26   58.09 
   5   3  -2  385.36   43.90 
   5   3  -2  372.36   60.89 
   5   3  -2  317.77   43.10 
  -5  -3  -2  419.36   43.00 
  -3   5  -2  408.26   48.00 
  -5  -3   2  372.26   43.00 
  -3   5   2  388.86   43.90 
  -3   5   2  326.27   45.80 
  -3   5   2  423.56   57.79 
   5   3   2  372.36   40.90 
  -5  -3   2  448.86   43.50 
   5   3   2  350.76   43.40 
   5   3   2  366.66   54.49 
   3  -5   2  456.85   44.90 
   5   3   2  357.06   43.40 
   3  -5   2  403.46   42.50 
  -5  -3   2  425.66   41.90 
  -3   5   2  464.65   44.20 
   3  -5   2  419.76   42.10 
   5   3   2  413.36   60.99 
  -1   5  -2   31.90    7.90 
   5   1  -2   34.50    8.80 
  -5  -1  -2   47.60    6.60 
   1  -5  -2   97.39   27.70 
  -5  -1  -2   40.70    5.20 
   5   1  -2   31.70    7.50 
  -1   5  -2   33.90   15.70 
   1  -5  -2   50.09   16.90 
   5   1  -2   45.40    7.50 
  -1   5  -2   34.50   18.90 
   5   1  -2   42.30   20.70 
   1  -5  -2   43.60    9.40 
  -5  -1  -2   23.70   12.60 
   1  -5  -2   39.20    7.50 
  -5  -1  -2   44.10    7.70 
  -5  -1  -2   48.30   10.10 
  -1   5  -2   38.00    9.60 
   1  -5   2   43.50    7.50 
   5   1   2   48.20    8.80 
  -5  -1   2   43.70    8.60 
   5   1   2   32.40    6.50 
   1  -5   2   39.90    7.70 
   1  -5   2   45.10    8.50 
   5   1   2   39.00    7.40 
  -5  -1   2   58.49   16.50 
  -1   5   2   41.10    8.70 
  -1   5   2   38.60   14.60 
   5   1   2   38.30    5.70 
  -5  -1   2   32.60    7.30 
  -1   5   2   56.19   22.50 
   5   1   2   42.10   16.30 
  -5  -1   2   47.70    7.90 
  -5  -1   2   44.80    7.80 
   1  -5   2   51.59   16.80 
  -1   5   2   41.30    9.60 
   5  -1  -2   38.70   10.10 
  -5   1  -2   38.80    6.20 
  -5   1  -2   31.10   10.70 
   5  -1  -2   46.20   11.30 
   1   5  -2   46.90   10.40 
   5  -1  -2   43.90    7.90 
  -1  -5  -2   63.29   19.30 
   1   5  -2   40.40   21.00 
   1   5  -2   28.30    9.40 
   1   5  -2   42.30   22.30 
  -5   1  -2   41.10    7.80 
  -1  -5  -2   23.40    7.60 
  -1  -5  -2   69.69   22.90 
  -5   1  -2   34.80    6.20 
  -5   1  -2   50.79    6.90 
  -5   1  -2   42.00    6.90 
   1   5  -2   21.00    7.00 
  -1  -5  -2   52.09    8.50 
  -5   1   2   60.79   10.60 
  -1  -5   2   58.59   20.50 
  -1  -5   2   52.29    8.70 
   1   5   2   45.40   24.00 
  -5   1   2   32.40    6.90 
   1   5   2   43.40    9.60 
   1   5   2   26.60   17.00 
  -1  -5   2   37.90    7.10 
   1   5   2   31.40    9.60 
   5  -1   2   38.50   10.40 
  -5   1   2   63.19   13.10 
  -1  -5   2   42.90    7.80 
   5  -1   2   32.20    5.90 
   5  -1   2   37.70    7.30 
  -5   3  -2  450.75   51.59 
  -5   3  -2  335.07   44.60 
  -3  -5  -2  396.36   44.00 
   3   5  -2  364.76   59.19 
  -3  -5  -2  434.06   54.89 
   5  -3  -2  403.66   43.10 
   3   5  -2  387.26   44.60 
   3   5  -2  369.16   44.40 
   3   5  -2  358.96   45.20 
   5  -3  -2  372.86   42.90 
  -3  -5  -2  389.06   43.80 
   3   5  -2  336.97   68.99 
  -5   3  -2  418.06   42.30 
  -5   3   2  408.86   43.20 
  -5   3   2  388.26   43.30 
   3   5   2  365.16   46.00 
   5  -3   2  396.36   44.40 
   3   5   2  409.26   61.49 
   5  -3   2  424.16   41.70 
  -3  -5   2  420.26   44.00 
   3   5   2  389.96   68.89 
  -3  -5   2  436.06   41.70 
   5  -3   2  370.16   41.50 
  -3  -5   2  427.16   43.40 
   5   5  -2   23.50   35.80 
  -5  -5  -2    9.60    6.70 
  -5   5  -2   23.30   20.90 
  -5  -5  -2   18.50    6.40 
   5   5  -2    1.90    5.90 
  -5   5  -2   20.50    7.10 
   5   5  -2   25.90   11.00 
  -5   5  -2    5.20    7.50 
  -5   5  -2    6.00    5.40 
   5  -5  -2    8.00   26.10 
   5   5  -2    6.10    6.80 
   5  -5  -2    0.70    3.90 
   5  -5  -2    5.70    4.70 
  -5  -5  -2   39.10   18.70 
  -5  -5  -2   23.20   15.90 
   5  -5   2    9.20    3.60 
   5   5   2   -4.50    6.20 
   5   5   2  -37.10   33.60 
  -5   5   2    2.50   18.40 
   5  -5   2    9.10    6.70 
  -5  -5   2    4.30   13.00 
   5  -5   2   16.20    4.50 
   5   5   2   10.30    4.80 
   5  -5   2    4.80    4.40 
  -5   5   2    4.30    5.10 
  -5  -5   2   12.00    6.20 
   5   5   2   16.80    8.70 
   6   4  -2  702.53   83.19 
  -6  -4  -2  525.55   57.39 
  -6  -4  -2  574.24   56.89 
  -4   6  -2  449.16   57.99 
   6   4  -2  486.85   58.09 
  -6  -4  -2  492.25   67.29 
   6   4  -2  417.16   58.89 
   4  -6  -2  606.44   56.89 
   4  -6  -2  471.35   56.89 
  -4   6  -2  521.05   76.79 
  -4   6  -2  536.15   60.99 
   6   4  -2  462.85   56.79 
  -4   6   2  568.84   58.69 
   4  -6   2  561.34   55.39 
  -6  -4   2  548.35   56.79 
   6   4   2  509.05   58.19 
  -6  -4   2  546.85   55.09 
   4  -6   2  522.75   56.09 
   6   4   2  485.25   74.39 
   6   4   2  486.85   57.99 
   4  -6   2  492.35   55.69 
  -6  -4   2  538.65   56.79 
  -2   6  -2  679.83   83.49 
  -6  -2  -2  726.43   75.59 
   6   2  -2  694.23   76.29 
   6   2  -2  624.24   75.79 
  -2   6  -2  653.83   78.29 
   2  -6  -2  632.94   76.19 
  -6  -2  -2  758.82   74.89 
   2  -6  -2  833.62   75.99 
  -6  -2  -2  585.94   82.49 
  -2   6  -2  610.24   91.49 
   6   2   2  678.73   75.69 
  -6  -2   2  694.83   75.29 
  -2   6   2  834.72   82.99 
  -6  -2   2  748.53   74.39 
   2  -6   2  811.62   76.49 
   6   2   2  627.64   74.89 
  -2   6   2  771.52   95.39 
   2  -6   2  821.42   75.79 
  -2   6   2  640.04   81.49 
  -6  -2   2  782.02   75.99 
  -2   6   2  666.73   77.29 
  -6  -2   2  765.42   75.49 
   6   0  -2  355.16   48.70 
  -6   0  -2  264.37   34.20 
   0   6  -2  323.07   48.80 
   0  -6  -2  329.67   36.00 
  -6   0  -2  368.76   35.60 
  -6   0  -2  314.57   34.60 
   0   6  -2  264.17   54.69 
   0  -6  -2  360.56   37.00 
  -6   0  -2  287.57   41.40 
   0   6  -2  274.17   38.90 
   0  -6   2  357.86   35.90 
   0   6   2  304.17   47.50 
  -6   0   2  318.97   35.40 
  -6   0   2  355.56   36.30 
   6   0   2  345.67   43.00 
   0   6   2  328.47   38.10 
  -6   0   2  338.27   35.60 
   0   6   2  271.57   55.89 
   0  -6   2  329.27   35.80 
   6   0   2  299.67   34.60 
   0  -6   2  379.06   36.10 
  -6   0   2  303.37   35.40 
   6   0   2  287.17   34.80 
   0   6   2  306.27   38.50 
   6  -2  -2  702.93   76.99 
  -6   2  -2  739.13   75.09 
   2   6  -2  728.53  102.39 
  -6   2  -2  622.14   76.19 
  -6   2  -2  700.23   79.49 
   6  -2  -2  661.23   75.89 
  -2  -6  -2  757.22   76.99 
   2   6  -2  612.24   77.29 
   2   6  -2  687.13   79.69 
   6  -2  -2  742.33   76.39 
   2   6  -2  674.93   94.19 
   2   6  -2  665.33   78.99 
  -6   2  -2  739.23   75.39 
  -2  -6  -2  823.32   77.29 
  -6   2  -2  786.12   75.19 
  -6   2  -2  693.13   77.59 
   6  -2   2  761.62   77.09 
  -6   2   2  847.12   75.79 
   2   6   2  571.94   77.79 
   2   6   2  753.22   94.79 
  -2  -6   2  754.62   77.39 
   2   6   2  651.13   79.49 
   2   6   2  867.61  104.59 
  -6   2   2  741.33   76.99 
  -2  -6   2  727.93   75.29 
   6  -2   2  708.93   74.79 
  -6   2   2  774.52   76.49 
  -2  -6   2  723.63   76.89 
  -4  -6  -2  502.55   57.59 
   4   6  -2  516.05   58.29 
  -6   4  -2  493.45   55.89 
  -6   4  -2  568.14   55.99 
  -4  -6  -2  539.15   54.29 
  -4  -6  -2  446.86   56.79 
   4   6  -2  509.65   58.99 
  -6   4  -2  582.84   67.89 
  -6   4  -2  449.06   58.69 
   4   6  -2  516.15   60.29 
   4   6  -2  859.81  141.29 
   6  -4  -2  455.15   56.09 
  -6   4   2  505.35   56.89 
  -4  -6   2  554.74   57.69 
   6  -4   2  539.55   54.89 
  -6   4   2  553.74   57.59 
   4   6   2  495.65   57.59 
   6  -4   2  597.34   59.39 
   6  -4   2  502.85   54.89 
  -4  -6   2  582.74   54.39 
   4   6   2  482.55   59.19 
  -6  -6  -2  353.36   49.50 
  -6   6  -2  333.57   59.49 
   6   6  -2  268.37   36.30 
   6  -6  -2  317.17   32.80 
   6  -6  -2  238.98   32.60 
  -6  -6  -2  335.17   34.90 
   6   6  -2  287.17   34.50 
  -6   6  -2  198.98   32.50 
  -6   6   2  271.47   34.30 
   6   6   2  247.78   31.60 
   6  -6   2  332.37   31.50 
   6   6   2  294.07   36.40 
   6  -6   2  244.48   30.80 
  -6  -6   2  274.57   33.50 
   6   6   2  243.28   36.80 
  -7  -5  -2   14.00    7.20 
  -7  -5  -2    6.10   10.90 
   5  -7  -2   17.10   10.60 
   5  -7  -2    9.90    5.90 
  -5   7  -2    5.30   10.00 
   7   5  -2  103.09   50.39 
   7   5  -2    7.90   10.00 
  -7  -5  -2   30.70   19.90 
   7   5  -2    6.20    9.40 
   5  -7  -2   17.80    8.10 
   7   5  -2    4.40    9.80 
   7   5   2   19.90   12.30 
  -5   7   2   16.30   10.00 
   7   5   2   25.10   11.10 
   5  -7   2   13.80    6.00 
   5  -7   2   17.40    5.60 
   7   5   2   17.30    9.60 
   7   5   2   40.10   41.40 
   5  -7   2   10.20    9.80 
  -7  -5   2   28.70   22.10 
  -7  -5   2   10.80    7.00 
  -7  -3  -2  299.97   31.60 
   7   3  -2  266.37   33.80 
  -3   7  -2  273.47   42.60 
   7   3  -2  243.88   33.10 
  -7  -3  -2  260.77   42.20 
   3  -7  -2  264.87   33.00 
   3  -7  -2  323.37   32.50 
  -3   7  -2  220.48   34.90 
  -7  -3  -2  322.47   33.70 
  -7  -3   2  277.47   32.60 
  -3   7   2  244.88   34.20 
  -7  -3   2  230.48   31.20 
   3  -7   2  326.47   31.50 
  -7  -3   2  370.26   48.20 
  -7  -3   2  282.87   31.90 
   7   3   2  238.38   32.80 
  -7  -3   2  280.97   30.30 
   7   3   2  258.77   39.80 
   7   3   2  212.58   31.70 
  -7  -1  -2    7.30    4.30 
   7   1  -2    6.20    4.90 
   1  -7  -2   12.70    6.10 
  -7  -1  -2   14.80   14.40 
  -7  -1  -2    8.50    6.70 
   7   1  -2   20.30   28.30 
  -1   7  -2   11.40    7.40 
   1  -7  -2   14.80   17.30 
   7   1  -2    8.10    9.90 
  -7  -1  -2    7.90    4.50 
  -1   7  -2   28.10   12.00 
   7   1  -2   13.80    6.60 
   1  -7  -2   28.60   24.10 
  -7  -1   2    7.20    5.20 
  -1   7   2    4.80   19.00 
   1  -7   2   10.70    6.60 
   1  -7   2   23.60   17.20 
  -7  -1   2   22.90   15.60 
   7   1   2   -3.80   21.00 
   7   1   2   10.70    4.00 
  -7  -1   2   12.20    5.20 
  -1   7   2    8.40    7.70 
  -7  -1   2   16.30    6.00 
  -1   7   2   10.60    8.60 
   1  -7   2   13.20    5.10 
  -7  -1   2   28.60    8.70 
   7   1   2    7.00    5.10 
  -7   1  -2    9.10    6.00 
  -7   1  -2    7.30    4.00 
   1   7  -2    6.20    7.40 
  -7   1  -2   13.20    6.40 
  -1  -7  -2   27.00   21.90 
   7  -1  -2   18.90   15.40 
  -1  -7  -2   11.90    5.50 
   7  -1  -2   12.60    6.70 
   7  -1  -2    3.90   10.30 
  -7   1  -2   19.30    5.40 
   1   7  -2   28.80   13.90 
  -7   1  -2   37.10   14.90 
   7  -1  -2    0.00    4.90 
   1   7  -2   11.90    9.20 
  -7   1   2   21.40   11.30 
   7  -1   2    8.90    4.80 
   1   7   2   30.00    9.60 
   1   7   2   22.90   26.90 
  -1  -7   2   22.60   21.60 
  -1  -7   2   14.30    5.50 
  -7   1   2    4.80    4.70 
   1   7   2   12.10    9.10 
   7  -1   2   21.00   10.90 
  -7   1   2    6.70    6.90 
  -7   1   2   10.70    5.20 
   7  -1   2   11.10    5.90 
  -7   3  -2  314.77   35.00 
   7  -3  -2  309.37   34.90 
  -7   3  -2  278.17   31.00 
  -7   3  -2  299.97   33.40 
   3   7  -2  255.47   37.00 
  -3  -7  -2  271.97   32.80 
   3   7  -2  249.08   34.40 
  -7   3  -2  308.07   31.30 
  -7   3  -2  238.68   31.10 
   3   7  -2  260.67   37.90 
  -7   3  -2  251.37   34.00 
  -3  -7  -2  318.47   30.40 
   7  -3  -2  203.48   31.00 
  -3  -7   2  284.77   32.90 
  -7   3   2  304.27   32.90 
   7  -3   2  288.17   33.70 
  -3  -7   2  282.07   30.40 
   3   7   2  219.78   34.30 
   3   7   2  241.38   36.70 
   7  -3   2  247.98   30.20 
  -7   3   2  281.47   32.30 
   7  -5  -2   20.80   11.90 
  -5  -7  -2   12.70   18.80 
  -7   5  -2   17.10   23.60 
  -5  -7  -2   39.90   10.50 
  -7   5  -2    7.80    6.90 
   5   7  -2   27.60   11.60 
  -5  -7  -2    7.10    3.30 
   5   7  -2   -0.80   11.10 
   5   7  -2    9.00   10.80 
   5   7   2    7.50   13.40 
   5   7   2   26.00   10.30 
  -5  -7   2   38.00   25.20 
  -5  -7   2   16.30    8.10 
   7  -5   2    9.80    4.90 
   7  -5   2   16.00    5.20 
  -7   5   2    9.70    7.90 
   7  -5   2   15.50    9.50 
   5   7   2   22.10   11.60 
  -7   5   2    7.80   18.30 
   7   7  -2   -8.30   13.20 
   7   7  -2    7.30   12.00 
  -7  -7  -2   28.40   10.70 
   7   7  -2  -21.00   12.30 
   7  -7  -2   -4.60    7.30 
  -7  -7  -2   -0.70   20.00 
   7  -7  -2   -5.30    6.40 
   7  -7  -2    1.80   12.20 
  -7   7  -2   -4.60    8.50 
   7  -7   2    3.80   10.80 
  -7  -7   2   -2.10   22.20 
  -7   7   2    0.30    9.80 
  -7  -7   2    6.20    9.00 
   7   7   2    7.00   13.70 
   7   7   2   -4.80    8.60 
   7  -7   2   10.80    5.70 
   7   7   2   20.60   16.50 
   7  -7   2   -2.80    5.30 
  -8  -6  -2  180.98   43.00 
  -8  -6  -2  191.08   25.70 
  -6   8  -2   80.09   22.80 
   8   6  -2  151.48   29.00 
   6  -8  -2  176.58   22.50 
   8   6  -2  187.08   27.50 
   8   6  -2  130.09   26.70 
   6  -8  -2   99.79   21.40 
   6  -8  -2  252.57   30.50 
  -6   8   2  128.69   26.60 
  -8  -6   2  279.27   47.20 
  -8  -6   2  176.68   24.70 
   8   6   2  124.89   26.70 
   6  -8   2  267.37   31.20 
   8   6   2  126.89   26.50 
   6  -8   2  129.69   20.80 
   6  -8   2  187.08   21.30 
  -8  -4  -2   12.70   10.20 
   8   4  -2    3.80   10.90 
  -8  -4  -2    2.00    5.60 
   4  -8  -2   -2.30    8.30 
  -8  -4  -2  -11.80   15.60 
   4  -8  -2   -2.20    8.60 
  -4   8  -2    1.60   20.10 
  -4   8  -2   10.70   11.50 
   8   4  -2   -7.30   34.00 
   4  -8  -2    0.70    6.10 
  -8  -4   2   -0.90    5.40 
  -4   8   2    9.00   11.70 
  -8  -4   2    5.10    6.00 
   4  -8   2    4.60    7.30 
   4  -8   2    3.10    8.90 
  -8  -4   2   -4.30    5.20 
   8   4   2   -4.40   23.90 
  -8  -4   2   22.00   20.50 
   4  -8   2    0.60    5.10 
   8   4   2    0.80    8.20 
  -4   8   2   12.00   13.20 
  -8  -2  -2    3.50    9.10 
  -2   8  -2   37.80   26.10 
   8   2  -2  -12.70    7.40 
   2  -8  -2    7.30    7.90 
   2  -8  -2   -3.60   18.90 
   8   2  -2    2.20    5.70 
   8   2  -2    6.50   11.50 
  -2   8  -2    8.00    8.20 
  -8  -2  -2    4.80    5.20 
   2  -8  -2   13.80   30.60 
   2  -8  -2    7.10    5.80 
  -8  -2  -2    0.20   14.80 
  -2   8  -2   -0.90   11.00 
  -8  -2   2    8.40    5.90 
  -2   8   2   -2.50   21.20 
   2  -8   2    1.80    7.30 
  -8  -2   2   29.10   10.80 
   2  -8   2   21.30   16.70 
  -8  -2   2    2.80    6.00 
   2  -8   2    8.70    5.00 
  -8  -2   2    9.50    6.00 
  -2   8   2    8.40   11.20 
  -8  -2   2    3.40   17.40 
   8   2   2   -5.60    6.10 
  -8   0  -2  348.37   40.20 
   0  -8  -2  479.85   43.40 
   0   8  -2  272.17   43.60 
   0  -8  -2  423.96   42.80 
   8   0  -2  358.06   60.69 
  -8   0  -2  402.36   41.50 
  -8   0  -2  386.86   41.30 
  -8   0  -2  380.26   52.09 
   0   8  -2  350.26   49.20 
   8   0  -2  340.07   42.00 
  -8   0  -2  439.46   43.50 
   8   0  -2  311.27   42.30 
   0   8   2  365.86   46.30 
  -8   0   2  387.86   42.30 
  -8   0   2  372.86   43.80 
   0   8   2  289.27   45.90 
   8   0   2  373.96   42.00 
   0  -8   2  470.85   42.70 
   8   0   2  342.77   40.80 
   0  -8   2  427.86   42.60 
  -8   0   2  314.27   41.50 
  -2  -8  -2    6.90    5.70 
  -2  -8  -2    7.20    5.10 
   2   8  -2    1.50   12.20 
  -8   2  -2    3.00    7.30 
  -8   2  -2    7.60    5.70 
  -2  -8  -2   24.50   20.90 
   2   8  -2   -0.30    8.20 
  -8   2  -2   26.50   10.40 
   8  -2  -2    3.70    8.40 
   8  -2  -2   -2.80    5.30 
  -8   2  -2    4.60    5.50 
  -2  -8  -2    0.30   22.90 
  -8   2  -2   -4.70   12.50 
   2   8  -2   -3.70   11.30 
   8  -2   2   12.40    5.10 
  -8   2   2    5.40    6.60 
  -2  -8   2   -7.10   20.40 
  -8   2   2   12.80    9.20 
   2   8   2   10.40    9.60 
  -2  -8   2   12.40    6.20 
  -2  -8   2    6.10    5.00 
  -8   2   2   -4.10    5.00 
   8  -2   2   20.40    8.30 
   2   8   2    4.10   10.30 
  -8   4  -2    7.70   14.90 
  -8   4  -2    2.60    6.30 
   4   8  -2   -0.70   10.20 
  -4  -8  -2   12.40    7.20 
  -8   4  -2    3.60    7.20 
  -4  -8  -2    4.50   21.00 
   8  -4  -2   -1.90    5.40 
   4   8  -2   -0.30   13.30 
   8  -4  -2    8.00   11.00 
   4   8  -2   -5.50   12.50 
  -4  -8  -2   -1.80    4.00 
  -8   4   2   -0.30    6.50 
   8  -4   2    0.30    4.70 
  -4  -8   2   -4.10   20.80 
   8  -4   2   -8.30    7.10 
   4   8   2   -0.60   12.60 
  -8   4   2   10.80    9.40 
   4   8   2   13.80   11.90 
  -8   4   2   -8.70    8.10 
  -4  -8   2    3.00    4.30 
  -4  -8   2    4.80    6.90 
   4   8   2   -2.00   12.80 
   8  -6  -2  137.09   21.60 
   8  -6  -2  143.89   20.30 
   6   8  -2  206.48   45.10 
  -6  -8  -2  136.99   23.40 
   6   8  -2  125.99   26.00 
  -8   6  -2   93.49   19.40 
   8  -6  -2  220.88   31.30 
  -8   6  -2  249.38   50.99 
  -6  -8  -2  183.88   46.90 
   8  -6   2  201.18   27.20 
   8  -6   2  122.89   23.40 
   6   8   2  175.58   29.40 
   8  -6   2  162.48   19.30 
  -6  -8   2  183.88   24.40 
  -8   6   2  124.39   23.40 
   6   8   2  120.49   32.00 
   6   8   2  124.49   23.20 
  -8   8  -2   11.80    9.60 
   8  -8  -2    3.10   15.90 
  -8  -8  -2    6.10   12.10 
  -8  -8  -2   10.80   26.80 
   8   8  -2   -5.30   22.50 
   8   8  -2    5.40   17.60 
   8  -8  -2   -2.80   10.70 
   8   8   2   15.90   12.00 
   8  -8   2   12.80   15.90 
  -8  -8   2    0.90   25.60 
   8   8   2  -32.30   19.60 
  -8   8   2    2.60   12.90 
   8  -8   2    8.90    8.10 
   8   8   2  -20.80   20.40 
   7  -9  -2   67.49   19.20 
   9   7  -2  100.09   30.00 
  -9  -7  -2  135.09   23.50 
   9   7  -2  100.19   27.60 
  -9  -7  -2  223.38   48.50 
  -7   9   2   71.39   24.20 
  -9  -7   2  201.38   47.70 
   9   7   2  114.69   29.90 
  -9  -7   2  114.29   22.00 
   7  -9   2  102.39   17.20 
   9   7   2  148.39   32.60 
  -9  -5  -2   78.79   18.30 
   5  -9  -2   95.29   20.90 
  -5   9  -2   68.39   22.50 
   9   5  -2  164.48   28.00 
   5  -9  -2  142.59   20.10 
  -5   9  -2  158.48   33.00 
  -9  -5  -2  158.08   39.40 
   9   5  -2  195.28   25.70 
   9   5   2  132.09   24.80 
  -9  -5   2  190.88   44.60 
   9   5   2  148.99   43.60 
  -5   9   2  157.88   32.10 
   5  -9   2  209.98   26.10 
  -9  -5   2  111.99   19.40 
   5  -9   2   82.19   17.50 
  -9  -5   2  121.79   20.60 
   9   5   2  114.19   22.30 
   3  -9  -2  209.38   32.60 
  -3   9  -2  338.17   55.69 
   9   3  -2  248.38   35.30 
   3  -9  -2  309.67   32.10 
  -9  -3  -2  296.37   31.10 
  -9  -3  -2  310.07   47.30 
  -3   9  -2  221.18   39.50 
   9   3  -2  247.48   36.20 
   9   3  -2  251.97   34.70 
  -9  -3  -2  268.57   34.50 
   9   3   2  310.37   35.10 
   9   3   2  205.28   29.60 
  -9  -3   2  196.88   29.80 
  -3   9   2  232.48   39.40 
  -9  -3   2  243.48   29.90 
  -9  -3   2  261.37   31.30 
  -1   9  -2  161.68   29.40 
  -9  -1  -2  213.38   25.90 
  -9  -1  -2  186.58   25.40 
   1  -9  -2  223.38   26.80 
   9   1  -2  214.08   25.20 
   9   1  -2  277.47   35.40 
  -1   9  -2  226.48   38.10 
  -9  -1  -2  239.48   30.00 
   9   1  -2  151.18   30.00 
  -9  -1  -2  218.78   41.10 
  -9  -1   2  209.48   26.00 
  -1   9   2  249.38   33.40 
   9   1   2  216.88   27.90 
  -1   9   2  228.58   36.70 
   1  -9   2  264.67   27.90 
   9   1   2  171.98   23.50 
  -9  -1   2  219.98   27.00 
  -9  -1   2  151.08   25.80 
   1  -9   2  244.78   26.30 
  -1  -9  -2  266.37   26.70 
  -9   1  -2  289.67   39.10 
   1   9  -2  176.48   35.70 
  -9   1  -2  214.48   25.90 
  -9   1  -2  196.88   25.60 
   9  -1  -2  218.78   40.00 
  -9   1  -2  209.68   28.80 
  -1  -9  -2  240.98   27.10 
   9  -1  -2  182.38   27.40 
   9  -1  -2  153.18   26.80 
   1   9  -2  177.58   36.70 
   1   9  -2  168.78   30.20 
  -9   1  -2  253.97   26.70 
   9  -1   2  225.18   26.40 
   9  -1   2  192.48   26.50 
  -9   1   2  186.68   28.90 
  -9   1   2  213.38   27.50 
  -9   1   2  175.68   25.70 
  -1  -9   2  210.88   26.60 
   1   9   2  215.78   33.60 
  -1  -9   2  208.28   25.40 
   1   9   2  201.98   35.70 
   9  -1   2  193.78   34.00 
  -9   3  -2  254.47   32.40 
  -9   3  -2  260.27   32.50 
   3   9  -2  296.97   47.40 
   9  -3  -2  222.38   33.30 
  -3  -9  -2  305.47   34.50 
  -9   3  -2  351.86   35.90 
   9  -3  -2  239.68   36.10 
  -3  -9  -2  317.67   31.70 
   3   9  -2  243.38   38.80 
  -9   3  -2  263.47   34.40 
   3   9  -2  192.18   41.30 
   3   9   2  303.47   41.70 
   3   9   2  279.57   39.30 
  -3  -9   2  270.47   31.30 
   3   9   2  249.18   43.20 
  -9   3   2  266.77   35.00 
   9  -3   2  270.37   32.10 
  -9   3   2  289.17   34.30 
   9  -3   2  300.37   36.10 
   5   9  -2  131.19   28.30 
   5   9  -2   94.59   30.00 
  -9   5  -2  137.09   20.80 
   9  -5  -2   90.79   18.60 
   5   9  -2  120.19   26.90 
  -5  -9  -2  200.28   52.69 
  -9   5  -2   70.99   16.70 
   9  -5  -2  193.88   28.70 
  -5  -9  -2  125.69   15.40 
  -9   5  -2  208.78   34.40 
   5   9   2  104.99   26.40 
   5   9   2  105.99   29.40 
   9  -5   2  119.09   17.10 
  -5  -9   2  252.07   61.29 
   5   9   2  175.68   33.30 
   9  -5   2  152.88   26.40 
  -5  -9   2  114.09   21.00 
  -9   5   2  174.48   22.50 
   9  -5   2  123.89   18.00 
  -7  -9  -2  217.68   53.09 
   9  -7  -2  192.68   31.50 
  -7  -9  -2  133.39   24.50 
   9  -7  -2   81.49   21.20 
   7   9  -2  173.88   32.60 
   7   9  -2   87.19   33.20 
   7   9  -2  217.18   35.90 
  -7  -9   2  213.98   49.50 
   7   9   2  169.18   33.80 
   7   9   2  138.29   40.10 
   9  -7   2  175.58   32.00 
  -7  -9   2  145.19   26.10 
  -9   7   2  158.98   26.20 
   9  -7   2  110.19   19.80 
   9   9  -2  122.59   30.50 
   9  -9  -2  126.99   30.80 
  -9  -9  -2  137.69   44.70 
  -9  -9   2  117.29   44.90 
   9  -9   2   93.99   26.80 
  -9   9   2   55.99   22.40 
   9   9   2   69.09   39.60 
   8 -10  -2    3.00   18.60 
  10   8  -2   12.30   26.90 
  10   8  -2   15.00   23.50 
  -8  10  -2    2.70   13.40 
 -10  -8  -2    6.20   28.60 
   8 -10   2   -7.00   19.70 
  10   8   2    2.10   26.40 
   8 -10   2    7.80   11.40 
 -10  -8   2   18.60   32.40 
  -8  10   2  -10.20   18.50 
   6 -10  -2  193.48   33.90 
 -10  -6  -2   82.69   19.60 
  10   6  -2  113.29   30.50 
  -6  10  -2   57.49   21.00 
   6 -10  -2   72.89   19.70 
 -10  -6  -2  151.78   41.40 
  10   6  -2  170.28   26.60 
  -6  10   2   58.79   24.50 
 -10  -6   2   76.39   22.00 
  10   6   2  113.89   28.60 
   6 -10   2  143.29   29.90 
 -10  -6   2  148.39   45.30 
   6 -10   2   84.29   16.90 
 -10  -6   2  114.59   20.90 
  10   6   2  127.79   27.40 
  -4  10  -2  -13.40   33.00 
  10   4  -2    1.30   15.80 
   4 -10  -2    4.90   10.80 
   4 -10  -2   10.80   15.30 
 -10  -4  -2    8.10    8.50 
  -4  10  -2  -14.00   17.50 
  10   4  -2    7.40   18.30 
 -10  -4  -2   12.30   26.40 
 -10  -4   2   -0.30   22.40 
   4 -10   2   13.60   10.90 
  -4  10   2   -1.80   16.00 
   4 -10   2  -15.50    9.40 
 -10  -4   2    5.20    9.60 
  -4  10   2   14.10   26.40 
 -10  -4   2    5.40    8.50 
  10   4   2   17.60   15.20 
   2 -10  -2    5.40    7.60 
  -2  10  -2    6.20   16.70 
   2 -10  -2    5.90    9.70 
  -2  10  -2    3.50   13.50 
   2 -10  -2   -1.80    8.30 
  10   2  -2   14.70   19.80 
   2 -10  -2  -10.00   23.00 
 -10  -2  -2    8.70    7.60 
 -10  -2  -2  -17.10   16.00 
 -10  -2  -2    4.00    7.70 
 -10  -2  -2   38.00   25.00 
 -10  -2   2    2.90    8.80 
 -10  -2   2    0.00   22.70 
 -10  -2   2  -15.00    9.10 
   2 -10   2    3.40    8.50 
   2 -10   2   17.70    7.70 
  10   2   2    2.30   10.10 
   0  10  -2  207.48   41.90 
   0 -10  -2  229.78   26.20 
  10   0  -2  179.28   27.90 
  10   0  -2  214.38   52.19 
 -10   0  -2  178.58   24.30 
   0  10  -2  168.18   37.60 
 -10   0  -2  178.58   23.40 
   0  10  -2  171.98   32.50 
 -10   0  -2  174.98   29.40 
  10   0  -2  198.78   25.90 
 -10   0  -2  173.58   25.10 
 -10   0   2  218.48   26.90 
  10   0   2  155.88   23.70 
  10   0   2  215.78   27.20 
   0  10   2  194.08   32.60 
 -10   0   2  147.09   24.80 
   0  10   2  146.79   33.70 
   0 -10   2  254.17   25.80 
   0 -10   2  184.18   25.10 
  10  -2  -2    5.80   12.60 
 -10   2  -2    5.80    8.60 
  -2 -10  -2    1.10    7.10 
 -10   2  -2   -1.50   12.50 
  10  -2  -2   -1.40    8.80 
 -10   2  -2    9.10   16.40 
  -2 -10  -2    4.20    6.10 
  10  -2  -2   16.20   11.60 
 -10   2  -2   -1.50   13.60 
 -10   2  -2   -4.90    7.10 
  -2 -10  -2   -9.50   23.60 
   2  10  -2    3.00   17.80 
  -2 -10   2    7.50    7.70 
   2  10   2    2.60   15.20 
  10  -2   2  -16.70    7.40 
  -2 -10   2    0.80   27.90 
 -10   2   2    0.00   15.70 
 -10   2   2    4.80    8.30 
  10  -2   2   13.80   10.00 
 -10   2   2  -10.80    9.30 
   2  10   2   17.80   16.20 
  -2 -10   2   -2.50    5.70 
 -10   4  -2   12.00   13.20 
  10  -4  -2    0.00   10.00 
 -10   4  -2    2.20    7.60 
  -4 -10  -2    0.60    5.30 
  10  -4  -2  -11.80   13.10 
  -4 -10  -2   -7.70   24.20 
   4  10  -2   -3.00   21.70 
   4  10  -2   15.80   18.30 
  -4 -10  -2   -1.60    9.10 
   4  10  -2    3.80   19.10 
  10  -4   2   11.60    7.70 
 -10   4   2   24.70   12.50 
  -4 -10   2    2.60    6.10 
 -10   4   2   -6.90   16.50 
   4  10   2    8.40   20.10 
  -4 -10   2   20.70   31.10 
   4  10   2   -9.40   16.70 
  -4 -10   2    3.70    9.30 
  10  -4   2   12.70   12.30 
   4  10   2   -3.20   19.90 
  -6 -10  -2   97.49   20.70 
   6  10  -2  172.18   34.90 
  10  -6  -2   59.59   18.40 
  10  -6  -2  124.79   25.70 
   6  10  -2   87.79   32.70 
   6  10  -2  174.18   34.30 
 -10   6  -2   93.19   21.10 
   6  10   2  106.79   31.00 
  10  -6   2  120.49   25.00 
  -6 -10   2  137.09   23.80 
  10  -6   2  122.29   17.20 
   6  10   2  109.79   34.20 
  -6 -10   2  255.97   65.49 
 -10   6   2   88.89   21.30 
   6  10   2  153.08   31.60 
   8  10  -2   21.70   32.70 
   8  10  -2  -29.00   48.30 
   8  10  -2   37.30   29.00 
  -8 -10  -2   20.10   30.00 
  10  -8  -2   34.40   23.10 
 -10   8  -2    1.00    9.20 
  10  -8   2   20.40   21.10 
 -10   8   2    0.30   14.50 
  10  -8   2  -11.90   10.50 
  -8 -10   2   10.60   32.80 
 -11  -7  -2   -4.60   32.70 
  -7  11  -2   -6.80   15.40 
  11   7   2  -18.20   28.00 
  -7  11   2    2.50   21.40 
 -11  -7   2   19.90   34.30 
   5 -11  -2   46.00   28.00 
  -5  11  -2  -24.30   19.00 
  11   5  -2  -17.00   22.60 
 -11  -5  -2   -4.90   27.90 
   5 -11  -2   10.80   15.40 
 -11  -5  -2    1.30   10.40 
  -5  11   2   17.60   22.60 
   5 -11   2   -7.70   12.10 
   5 -11   2   -0.70   14.10 
 -11  -5   2   -6.40   33.00 
 -11  -5   2  -12.20    9.10 
 -11  -3  -2  103.19   37.70 
 -11  -3  -2   46.50   14.20 
  -3  11  -2  106.79   29.10 
  11   3  -2   42.90   19.70 
  11   3  -2   81.99   27.30 
   3 -11  -2   49.70   17.30 
 -11  -3   2   62.39   15.40 
 -11  -3   2   60.49   16.30 
 -11  -3   2  146.99   43.80 
   3 -11   2  102.09   19.90 
  -3  11   2   86.09   29.60 
  11   3   2   81.89   23.40 
  11   1  -2    1.60   15.40 
  -1  11  -2  -11.00   23.80 
 -11  -1  -2    5.20    8.40 
 -11  -1  -2   15.10   10.10 
  11   1  -2    7.30    7.60 
   1 -11  -2    9.30   30.20 
 -11  -1  -2   25.30   28.70 
   1 -11  -2    7.10    9.10 
 -11  -1  -2   -8.20   19.70 
   1 -11  -2    8.20   11.50 
 -11  -1   2  -10.30   23.80 
  -1  11   2    1.90   19.60 
 -11  -1   2    9.40    8.50 
   1 -11   2  -10.60    8.70 
   1 -11   2  -24.30   26.00 
  11   1   2    0.10   12.70 
 -11  -1   2    0.00   10.00 
  -1 -11  -2    8.00    7.90 
  -1 -11  -2    7.10    8.60 
  11  -1  -2    4.20   13.70 
  -1 -11  -2    9.10   29.60 
  11  -1  -2    1.70   11.60 
   1  11  -2   14.20   23.00 
 -11   1  -2   -7.20    8.10 
 -11   1  -2   -1.60   10.20 
 -11   1  -2   10.40   22.90 
 -11   1  -2  -13.30   16.40 
   1  11  -2   24.90   18.50 
  -1 -11   2    1.20    8.80 
  11  -1   2    1.70   10.30 
  -1 -11   2    1.00    6.80 
  11  -1   2    3.60   10.80 
   1  11   2    5.10   19.50 
  -1 -11   2   18.80   35.10 
 -11   1   2  -13.20    8.80 
 -11   1   2   -7.00   11.10 
   1  11   2    6.00   18.30 
  11  -3  -2   53.89   18.10 
 -11   3  -2   44.70   12.70 
   3  11  -2   52.39   28.50 
 -11   3  -2   66.49   14.50 
   3  11  -2   66.89   31.20 
   3  11  -2  124.39   27.90 
  11  -3  -2   77.89   20.10 
  -3 -11  -2  169.88   48.20 
  -3 -11  -2   81.99   13.10 
  -3 -11  -2   72.59   16.40 
 -11   3  -2   42.90   18.40 
  11  -3   2   99.79   20.10 
  -3 -11   2   56.19   16.40 
 -11   3   2   77.69   19.10 
  11  -3   2   62.59   16.80 
   3  11   2   75.19   26.50 
   3  11   2  115.59   32.80 
  -3 -11   2   79.49   13.20 
 -11   3   2   68.79   17.10 
   5  11  -2   45.00   33.30 
 -11   5  -2   -4.50    7.60 
  11  -5  -2    2.50   13.90 
  -5 -11  -2    7.80   12.20 
   5  11  -2   11.30   27.60 
  -5 -11  -2   -1.30    6.20 
  -5 -11  -2    9.30   32.30 
  11  -5  -2    3.00   16.80 
   5  11  -2   21.90   32.50 
   5  11   2   12.60   25.40 
  -5 -11   2   14.40   35.20 
  11  -5   2   23.90   18.50 
 -11   5   2   -8.00   12.60 
  -5 -11   2   -7.10   12.30 
   5  11   2  -22.30   27.50 
  11  -5   2   -4.50   11.40 
   7  11  -2   10.60   39.80 
   7  11  -2   17.20   38.50 
  11  -7  -2  -32.70   20.10 
   7  11  -2  -82.29   30.90 
 -11   7  -2    0.40    8.50 
   7  11   2    5.80   30.10 
  -7 -11   2   -3.90   22.80 
   7  11   2  -63.39   35.30 
  11  -7   2  -29.00   19.70 
 -11   7   2   -2.20   14.60 
  -6  12  -2   30.40   22.00 
   6 -12  -2  118.99   26.80 
 -12  -6  -2  127.49   47.30 
  -6  12   2   46.90   32.20 
 -12  -6   2   92.99   45.50 
 -12  -6   2   87.79   20.70 
   6 -12   2  136.99   28.40 
  -4  12  -2    3.30   24.00 
 -12  -4  -2  102.69   45.50 
   4 -12  -2  107.69   23.40 
  -4  12   2   94.29   32.10 
 -12  -4   2  118.89   47.70 
   4 -12   2   77.39   20.80 
   2 -12  -2  123.29   39.40 
   2 -12  -2   71.89   25.70 
  -2  12  -2   65.09   31.20 
 -12  -2  -2   86.59   40.30 
 -12  -2   2   36.40   13.40 
  12   2   2   86.59   26.10 
   2 -12   2   93.19   25.30 
  -2  12   2   44.40   27.60 
 -12  -2   2   69.69   37.10 
   0  12  -2  144.59   48.80 
   0 -12  -2  179.68   25.10 
   0  12  -2  141.99   39.40 
 -12   0  -2  187.08   45.60 
  12   0  -2   80.79   27.50 
   0  12   2  146.89   36.30 
   0 -12   2  151.98   22.80 
   0 -12   2  352.56   75.79 
 -12   0   2   99.59   25.30 
 -12   0   2  238.68   44.60 
   2  12  -2   52.39   37.20 
 -12   2  -2   29.00   13.90 
   2  12  -2   55.99   33.70 
 -12   2  -2   76.59   25.40 
  12  -2  -2   80.69   21.00 
  12  -2  -2   34.60   19.50 
  -2 -12  -2  140.19   44.00 
 -12   2  -2   41.60   12.60 
  -2 -12  -2   63.59   13.50 
  -2 -12   2   48.90   12.00 
   2  12   2   68.79   29.80 
  12  -2   2   68.49   18.30 
  -2 -12   2  171.78   54.99 
  12  -2   2   43.80   16.90 
   2  12   2   48.90   30.70 
  -4 -12  -2   45.90   10.90 
  12  -4  -2   25.80   20.40 
 -12   4  -2   31.30   10.90 
   4  12  -2   35.80   37.80 
  -4 -12  -2  115.29   50.39 
  -4 -12  -2   71.19   17.10 
   4  12  -2   62.49   38.30 
  12  -4   2   31.70   19.80 
 -12   4   2   45.00   16.30 
  12  -4   2   41.80   15.40 
  -4 -12   2  189.38   57.59 
   4  12   2   76.79   34.00 
   4  12   2   76.49   34.50 
   4  12   2  -27.60   49.70 
  -4 -12   2   49.20   11.10 
  -6 -12  -2  136.69   51.59 
 -12   6  -2    7.70    9.20 
  12  -6  -2   41.00   24.10 
   6  12  -2   66.49   47.00 
   6  12  -2  106.59   52.39 
 -12   6   2   44.10   17.00 
  -6 -12   2  173.28   54.99 
   6  12   2   16.40   39.60 
  12  -6   2   74.89   27.70 
 -13  -3  -2  139.59   56.49 
   3 -13  -2  125.59   26.40 
  -3  13  -2  119.69   47.70 
 -13  -3  -2   66.19   25.70 
  -3  13  -2   83.79   50.79 
 -13  -3   2  118.49   47.50 
  -3  13   2   58.29   35.40 
   3 -13   2   89.79   19.70 
 -13  -3   2   47.80   17.40 
   1 -13  -2   -7.60   12.20 
   1 -13  -2    6.50   39.50 
 -13  -1  -2  -10.80   38.20 
 -13  -1  -2   -0.40   11.60 
  -1  13  -2   46.60   44.70 
 -13  -1   2   -3.30   12.00 
   1 -13   2    2.90   11.30 
 -13  -1   2  -11.20   33.00 
  -1 -13  -2   11.80   11.10 
 -13   1  -2   16.20   11.20 
   1  13  -2    3.00   36.40 
  13  -1  -2    5.00   16.90 
   1  13   2  -10.20   29.80 
  -1 -13   2   -9.40    8.90 
  13  -1   2    4.80   14.80 
  -1 -13   2   -0.30   39.60 
 -13   1   2    5.00   12.80 
  -3 -13  -2  178.38   57.09 
   3  13  -2   86.99   45.10 
   3  13  -2   37.10   38.40 
  -3 -13  -2   65.49   14.10 
  13  -3  -2   48.50   24.60 
  -3 -13   2   63.49   14.00 
   3  13   2   79.49   39.90 
 -13   3   2   51.09   17.70 
   3  13   2   86.19   41.90 
  13  -3   2   62.59   23.10 
  -1   0  -3    0.20    0.80 
   1   0  -3    2.50    1.90 
   1   0  -3    7.80    3.50 
   0   1  -3   -0.10    1.40 
   1   0  -3    2.20    1.40 
  -1   0  -3    3.00    1.30 
   0   1  -3    2.10    1.20 
  -1   0  -3    6.70    3.30 
   0  -1  -3    3.40    1.60 
  -1   0  -3    3.50    2.70 
   0   1  -3    1.20    0.90 
   0  -1  -3    7.80    2.20 
  -1   0  -3    2.00    1.30 
   0  -1  -3    0.10    2.30 
  -1   0  -3    1.50    1.10 
   0   1  -3    2.70    1.60 
   0  -1  -3    6.30    4.00 
   0  -1   3    1.00    0.90 
   0   1   3    0.70    1.20 
   0   1   3    5.40    4.10 
  -1   0   3    1.50    2.70 
   1   0   3    1.10    1.30 
   0  -1   3    0.10    0.90 
  -1   0   3    3.60    1.60 
  -1   0   3    1.20    1.50 
   1   0   3    1.00    1.10 
   0  -1   3    8.10    1.80 
   0  -1   3    1.80    1.30 
   0   1   3    0.00    1.80 
   0   1   3    5.40    1.80 
   1   0   3    9.30    3.70 
  -2  -1  -3 5052.89  585.54 
   1  -2  -3 5574.34  584.74 
   1  -2  -3 6421.06  583.54 
  -2  -1  -3 4867.51  586.14 
   1  -2  -3 6428.26  583.74 
   1  -2  -3 5912.61  584.24 
  -2  -1  -3 5447.46  582.94 
   2   1  -3 5835.82  583.44 
   1  -2  -3 5012.50  587.64 
  -2  -1  -3 5907.41  583.34 
   2   1   3 5899.41  583.24 
   2   1   3 5864.91  586.94 
  -1   2   3 6373.56  584.84 
   2   1   3 5649.93  585.74 
  -2  -1   3 6024.10  583.34 
  -1   2   3 5895.21  588.24 
  -1   2   3 6411.36  583.54 
   2   1   3 5238.98  582.84 
  -1  -2  -3 6624.64  601.84 
   2  -1  -3 4880.71  601.44 
  -2   1  -3 6749.02  601.14 
   2  -1  -3 5346.27  603.24 
  -1  -2  -3 5577.04  601.04 
   2  -1  -3 6073.09  601.24 
   1   2  -3 6357.06  608.74 
   1   2   3 5677.33  604.84 
   1   2   3 5553.64  601.24 
  -2   1   3 6207.58  601.24 
   1   2   3 6329.77  601.94 
  -2   1   3 5529.55  602.74 
   1   2   3 5608.34  606.44 
  -2   1   3 6738.43  601.34 
   2  -3  -3  455.95   49.60 
   3   2  -3  323.47   39.80 
   2  -3  -3  474.45   42.70 
  -3  -2  -3  364.26   40.30 
   3   2  -3  348.97   40.30 
   2  -3  -3  341.17   42.40 
   2  -3  -3  373.96   40.30 
  -3  -2  -3  307.37   43.60 
   3   2  -3  392.86   40.20 
   3   2  -3  300.77   48.00 
  -2   3  -3  299.07   39.80 
   2  -3  -3  365.86   40.10 
  -2   3  -3  350.56   39.40 
  -2   3  -3  335.87   39.00 
  -3  -2  -3  425.06   40.20 
  -3  -2   3  409.66   39.60 
   3   2   3  371.26   40.30 
  -2   3   3  434.56   48.10 
  -3  -2   3  389.46   39.90 
   3   2   3  396.56   38.00 
   2  -3   3  412.36   39.00 
   3   2   3  378.26   45.50 
   2  -3   3  406.06   40.50 
   3   2   3  390.36   47.40 
  -2   3   3  331.57   41.30 
   2  -3   3  380.86   38.80 
  -2   3   3  377.06   40.20 
   0  -3  -3    6.30    7.80 
  -3   0  -3   -0.20    1.70 
  -3   0  -3   -0.50    2.80 
   0  -3  -3   -0.10    1.70 
   3   0  -3    5.20    2.80 
   3   0  -3    1.70    2.90 
  -3   0  -3    2.50    1.10 
  -3   0  -3    1.60    1.50 
   3   0  -3    1.90    2.60 
   0   3  -3    0.00    2.40 
  -3   0  -3    1.20    1.30 
   0   3  -3    1.50    1.80 
   0  -3  -3    0.00    2.80 
  -3   0  -3    8.10    4.90 
   3   0  -3    1.90    3.30 
   3   0  -3   19.50   10.20 
   0   3  -3    6.90    8.20 
   0  -3  -3    7.20    5.90 
   0   3  -3    2.00    3.20 
   0   3  -3   -2.60    1.90 
  -3   0   3   -0.20    2.90 
  -3   0   3    2.90    2.10 
  -3   0   3   -0.60    1.80 
   0  -3   3   -0.40    1.70 
   0   3   3   -0.50    2.00 
   3   0   3   -3.20    3.80 
   3   0   3   -0.60    1.50 
   0  -3   3    1.40    1.90 
   0  -3   3   -0.60    1.40 
   0   3   3    6.60    9.40 
   3   0   3   -0.30    3.00 
   0   3   3   -4.90    4.80 
   0   3   3    3.00    2.80 
   0  -3   3    2.10    7.10 
   3   0   3    2.10    1.40 
   0   3   3    1.40    4.50 
  -3   2  -3  307.17   40.60 
   2   3  -3  357.26   50.69 
   2   3  -3  375.46   41.30 
  -2  -3  -3  370.16   41.50 
  -2  -3  -3  380.96   41.20 
   3  -2  -3  379.86   46.40 
  -2  -3  -3  452.75   49.20 
   2   3  -3  386.76   41.30 
  -3   2  -3  409.76   42.90 
   3  -2  -3  410.36   42.70 
   2   3  -3  363.16   41.30 
  -3   2  -3  417.06   39.30 
   3  -2  -3  395.16   40.90 
   3  -2  -3  388.06   41.00 
  -3   2   3  385.46   42.40 
  -3   2   3  376.26   40.90 
   2   3   3  352.96   47.80 
   2   3   3  323.77   40.90 
   3  -2   3  375.96   38.90 
  -2  -3   3  435.76   40.80 
  -2  -3   3  416.76   40.90 
  -2  -3   3  409.96   39.90 
   2   3   3  348.17   50.19 
  -3   2   3  395.06   40.90 
   3  -2   3  365.96   40.90 
  -3   2   3  435.36   44.90 
   2   3   3  322.47   41.80 
   3  -2   3  338.47   38.90 
  -2  -3   3  425.26   40.70 
   4   3  -3  109.09   15.60 
  -4  -3  -3  114.89   15.50 
   4   3  -3  116.59   13.70 
   4   3  -3  123.39   16.30 
   4   3  -3  116.09   33.60 
  -4  -3  -3  119.49   13.50 
   3  -4  -3  138.89   17.10 
   3  -4  -3  132.69   15.50 
  -3   4  -3  161.18   22.00 
   4   3  -3  110.49   16.10 
  -4  -3  -3  125.19   21.80 
  -4  -3  -3  135.29   16.60 
  -3   4  -3  121.09   16.10 
  -4  -3  -3  108.89   22.70 
   3  -4  -3  109.19   15.70 
   3  -4   3  120.39   14.20 
  -4  -3   3  127.59   15.60 
   4   3   3  125.19   13.30 
  -4  -3   3  168.58   27.60 
   4   3   3  103.49   16.10 
   4   3   3  134.09   30.20 
  -4  -3   3  131.19   15.80 
   4   3   3  147.19   33.40 
   3  -4   3  164.98   17.30 
  -3   4   3  167.78   31.10 
   3  -4   3  144.19   14.70 
  -3   4   3  118.29   15.70 
   3  -4   3  127.79   14.40 
   4   3   3  109.89   14.10 
  -4  -3   3  120.69   14.70 
   4   1  -3 1956.20  219.18 
   4   1  -3 2052.29  219.58 
  -4  -1  -3 1953.10  221.18 
   1  -4  -3 2219.88  219.08 
  -4  -1  -3 2319.27  218.18 
   1  -4  -3 2214.08  223.98 
   1  -4  -3 2384.46  219.98 
  -4  -1  -3 2341.17  218.88 
   4   1  -3 1734.63  226.38 
   1  -4  -3 2147.39  219.88 
  -1   4  -3 2108.39  219.58 
   4   1  -3 1985.10  219.08 
  -1   4  -3 2366.66  227.08 
  -4  -1   3 2231.28  219.08 
  -4  -1   3 2334.77  219.08 
  -1   4   3 1787.12  220.18 
  -1   4   3 2157.98  219.78 
   4   1   3 1842.32  218.38 
  -1   4   3 2323.27  222.78 
  -4  -1   3 2124.79  218.88 
  -4  -1   3 2243.58  218.68 
   4   1   3 2180.28  225.38 
   1  -4   3 2278.07  218.38 
   1  -4   3 2165.78  219.18 
  -1   4   3 2204.98  230.68 
  -1  -4  -3 1988.90  218.78 
  -4   1  -3 2212.38  216.98 
   1   4  -3 2047.50  218.88 
   1   4  -3 2213.38  220.08 
   1   4  -3 2107.79  219.68 
   4  -1  -3 2220.28  220.18 
   4  -1  -3 2059.29  219.88 
  -4   1  -3 1877.01  218.18 
  -4   1  -3 2334.97  217.28 
   4  -1  -3 2006.00  220.78 
  -4   1  -3 2134.89  219.48 
  -1  -4  -3 2370.76  219.98 
  -4   1  -3 1890.21  220.88 
  -1  -4  -3 1973.70  225.08 
   4  -1  -3 2421.36  219.08 
   1   4  -3 1978.20  228.78 
  -4   1  -3 2284.47  217.08 
   1   4   3 1866.41  219.58 
  -1  -4   3 2396.26  218.48 
  -4   1   3 2246.88  218.78 
  -4   1   3 2284.87  219.38 
  -1  -4   3 2437.96  218.28 
   1   4   3 1905.81  221.08 
  -1  -4   3 2383.36  218.88 
  -4   1   3 2276.17  218.78 
   1   4   3 2000.50  231.38 
   1   4   3 2160.08  226.88 
  -4   1   3 1989.80  219.18 
   1   4   3 1972.20  220.18 
   4  -1   3 2114.59  216.98 
   4  -1   3 2162.38  218.38 
   4  -3  -3  158.38   19.40 
   3   4  -3  126.49   16.10 
   4  -3  -3  139.09   15.60 
  -3  -4  -3  129.49   28.00 
  -3  -4  -3  115.99   15.70 
   3   4  -3  103.69   14.00 
   4  -3  -3   91.79   14.60 
   3   4  -3  108.09   16.00 
   4  -3  -3  118.69   13.90 
  -4   3  -3  143.69   17.20 
  -3  -4  -3  171.38   26.30 
   3   4  -3  100.09   15.50 
  -3  -4  -3  100.59   15.60 
   4  -3  -3  110.89   14.50 
  -4   3  -3  124.99   13.90 
  -3  -4   3  127.69   15.30 
   4  -3   3  111.29   12.90 
  -4   3   3  158.18   22.50 
  -4   3   3  139.69   18.10 
  -4   3   3  124.79   15.20 
   4  -3   3  119.19   15.70 
  -3  -4   3  174.28   28.90 
  -4   3   3  115.99   15.30 
   3   4   3   88.79   30.40 
   4  -3   3  123.89   12.90 
   3   4   3   94.69   17.70 
  -3  -4   3  139.49   14.90 
  -3  -4   3  117.39   14.90 
   4  -3   3  113.99   12.90 
   3   4   3   86.49   16.60 
   5   4  -3 1266.37  150.08 
  -5  -4  -3 1516.55  149.88 
   5   4  -3 1409.86  150.48 
   5   4  -3 1323.67  149.29 
  -5  -4  -3 1562.04  149.79 
  -4   5  -3 1547.55  169.68 
  -5  -4  -3 1521.75  146.19 
   5   4  -3 1277.27  146.49 
  -5  -4  -3 1284.57  158.38 
   5   4   3 1507.65  165.78 
   4  -5   3 1499.15  147.79 
  -5  -4   3 1507.35  149.29 
   4  -5   3 1633.34  147.69 
  -5  -4   3 1498.65  149.09 
  -5  -4   3 1602.14  148.29 
   5   4   3 1393.56  147.59 
  -4   5   3 1372.96  149.69 
   5   4   3 1434.96  150.68 
   5   4   3 1451.15  146.69 
   4  -5   3 1389.86  147.39 
   5   4   3 1244.58  150.08 
   4  -5   3 1523.05  150.88 
  -2   5  -3 3588.14  386.96 
   2  -5  -3 4045.50  385.66 
  -5  -2  -3 4096.39  384.96 
  -2   5  -3 4028.90  393.26 
   2  -5  -3 3618.74  386.26 
  -2   5  -3 3510.65  385.46 
   5   2  -3 3319.67  385.66 
  -5  -2  -3 4081.59  387.06 
   2  -5  -3 3924.81  386.26 
   5   2  -3 3593.64  386.06 
   5   2  -3 3335.57  398.46 
  -5  -2  -3 3771.32  388.96 
  -5  -2  -3 3802.02  383.56 
   5   2   3 3716.33  388.66 
  -5  -2   3 4100.69  385.76 
  -5  -2   3 3586.94  385.26 
  -2   5   3 3621.24  386.36 
   2  -5   3 3764.22  384.66 
  -5  -2   3 4175.98  384.86 
   2  -5   3 3634.14  385.96 
   5   2   3 4128.49  398.16 
   5   2   3 3576.34  384.96 
  -5  -2   3 4150.98  385.66 
   2  -5   3 4206.48  384.96 
   5   2   3 3392.96  385.36 
  -5   0  -3    6.00    3.20 
   0  -5  -3    7.00   12.40 
   5   0  -3    0.20    3.00 
   5   0  -3    9.90   14.30 
   0  -5  -3   -4.10    4.40 
   0  -5  -3    1.00   10.60 
  -5   0  -3    0.80    7.30 
  -5   0  -3    5.10    3.30 
  -5   0  -3    6.10    6.20 
  -5   0  -3    7.10    3.70 
   0   5  -3   -2.80    5.80 
   0  -5  -3    1.40    3.00 
  -5   0  -3    0.30    1.80 
   0   5  -3   14.50    5.10 
   5   0  -3    0.30    5.80 
   0   5  -3    3.40   15.50 
   0   5  -3   -0.40    3.10 
   0   5  -3  -10.50    4.80 
  -5   0   3   -1.70    3.80 
  -5   0   3    6.70    4.30 
  -5   0   3    3.30    3.20 
  -5   0   3   -0.60    7.50 
   0  -5   3   -3.40    9.80 
   0  -5   3    5.40    3.60 
   0  -5   3    1.40    2.80 
   0   5   3    5.80   10.00 
   0  -5   3    2.00    3.30 
   0   5   3    5.60    5.30 
   0   5   3   -2.30    4.50 
   5   0   3    9.90    3.00 
  -5   0   3    0.50    2.90 
   5   0   3    1.50    2.30 
   0   5   3    2.70    7.70 
  -5   2  -3 3861.81  397.76 
   2   5  -3 3653.13  401.36 
  -2  -5  -3 4058.49  400.26 
  -5   2  -3 3931.31  397.86 
  -2  -5  -3 4215.48  410.36 
   5  -2  -3 3739.13  401.66 
   2   5  -3 3615.74  443.16 
   2   5  -3 3755.42  401.16 
  -5   2  -3 3843.72  401.16 
  -2  -5  -3 4337.37  400.66 
  -5   2  -3 4118.59  398.06 
   5  -2  -3 4250.87  399.86 
   2   5  -3 3551.04  400.26 
  -5   2  -3 3563.84  401.76 
   2   5   3 3518.25  402.16 
  -2  -5   3 4202.48  400.06 
  -5   2   3 4557.84  401.36 
  -5   2   3 3970.90  399.76 
  -2  -5   3 4041.60  399.36 
  -5   2   3 3867.91  399.56 
  -2  -5   3 4232.88  398.66 
  -5   2   3 4090.09  401.16 
   5  -2   3 3904.11  397.96 
   5  -2   3 3920.41  399.86 
   2   5   3 3340.57  401.06 
  -5   4  -3 1662.83  163.58 
  -4  -5  -3 1445.86  152.08 
   4   5  -3 1371.26  152.68 
  -5   4  -3 1343.27  150.28 
   4   5  -3 1369.26  152.18 
  -4  -5  -3 1453.95  162.58 
  -4  -5  -3 1544.65  152.58 
  -5   4  -3 1708.63  153.08 
   4   5  -3 1577.54  175.58 
   5  -4   3 1385.76  149.19 
   5  -4   3 1553.14  149.19 
   5  -4   3 1507.95  149.29 
  -5   4   3 1414.16  151.78 
   4   5   3 1340.87  172.88 
   5  -4   3 1548.65  153.18 
  -4  -5   3 1431.36  151.08 
   4   5   3 1417.16  150.88 
  -4  -5   3 1566.54  151.98 
   4   5   3 1413.86  154.58 
   4   5   3 1231.08  152.78 
  -5   4   3 1497.65  151.78 
   6   5  -3  431.66   74.69 
  -5   6  -3  248.18   37.90 
  -5   6  -3  311.77   61.99 
  -6  -5  -3  364.56   38.60 
   5  -6  -3  288.27   37.90 
   6   5  -3  297.87   38.50 
  -5   6  -3  356.26   41.70 
  -6  -5  -3  313.37   38.30 
   6   5  -3  328.17   40.00 
   6   5  -3  288.27   39.30 
  -6  -5  -3  320.37   49.90 
   5  -6  -3  369.76   43.20 
   6   5   3  371.16   37.50 
  -5   6   3  313.57   38.50 
   6   5   3  291.77   40.40 
   5  -6   3  297.57   35.50 
   5  -6   3  415.86   41.00 
   5  -6   3  302.37   35.60 
   5  -6   3  387.26   35.90 
   6   5   3  408.36   71.69 
  -6  -5   3  341.57   37.90 
   6   5   3  278.37   39.00 
   6   3  -3   44.20   10.00 
  -3   6  -3   25.20    7.60 
   6   3  -3   44.60   37.30 
  -3   6  -3   27.60   10.30 
   6   3  -3   55.89   28.90 
  -3   6  -3   33.00   25.40 
  -6  -3  -3   40.80   10.30 
  -6  -3  -3   54.89   16.00 
   3  -6  -3   34.10    9.60 
   3  -6  -3   37.40   10.10 
   6   3  -3   28.50    9.90 
   6   3  -3   33.10    4.80 
  -6  -3  -3   36.40    7.60 
  -6  -3  -3   37.90   17.20 
  -3   6  -3   59.09   19.30 
   3  -6   3   44.90   10.30 
  -6  -3   3   31.00    7.20 
   6   3   3   26.90    9.00 
  -3   6   3   40.60   12.10 
   6   3   3   37.60    9.00 
  -6  -3   3   31.80    7.60 
  -3   6   3   80.59   29.90 
  -3   6   3   26.20    9.40 
   6   3   3   48.20   19.20 
   3  -6   3   45.20    7.40 
  -6  -3   3   29.80    8.40 
   3  -6   3   27.70    7.90 
  -6  -3   3   22.40    6.90 
  -6  -1  -3  453.25   42.30 
  -6  -1  -3  451.75   45.70 
  -1   6  -3  375.66   56.89 
  -6  -1  -3  479.15   44.60 
  -6  -1  -3  325.97   50.89 
   6   1  -3  416.26   46.00 
   6   1  -3  368.16   60.59 
  -1   6  -3  381.86   46.10 
  -1   6  -3  375.66   48.40 
   6   1  -3  354.06   45.70 
   1  -6  -3  442.76   46.90 
  -1   6  -3  381.76   64.29 
   1  -6  -3  453.55   45.90 
  -1   6   3  390.26   49.90 
  -6  -1   3  471.75   46.50 
   6   1   3  361.16   45.10 
  -6  -1   3  366.16   46.20 
   1  -6   3  469.65   45.30 
   1  -6   3  406.76   45.80 
   1  -6   3  414.36   45.70 
  -1   6   3  458.15   70.59 
   6   1   3  356.06   43.90 
   6   1   3  397.76   45.00 
   6   1   3  398.66   43.70 
  -6  -1   3  424.46   45.10 
  -6  -1   3  453.45   45.60 
   6   1   3  495.95   56.99 
  -1   6   3  508.95   55.59 
  -1  -6  -3  417.36   47.00 
   6  -1  -3  455.45   47.60 
   1   6  -3  358.26   51.59 
   1   6  -3  374.56   49.80 
   6  -1  -3  392.26   55.49 
  -6   1  -3  482.25   46.50 
   6  -1  -3  538.25   50.39 
  -6   1  -3  333.37   50.59 
  -6   1  -3  435.76   45.20 
   6  -1  -3  516.45   54.59 
   1   6  -3  359.16   47.30 
  -6   1  -3  390.86   46.00 
   1   6  -3  442.46   70.19 
  -6   1  -3  458.15   45.90 
   1   6  -3  423.26   63.39 
  -1  -6  -3  515.75   48.40 
  -6   1  -3  454.45   45.30 
  -1  -6   3  419.86   46.40 
  -1  -6   3  425.46   46.30 
  -6   1   3  428.66   47.70 
   1   6   3  375.16   48.90 
   6  -1   3  439.86   45.30 
   1   6   3  403.96   49.90 
  -6   1   3  451.55   47.00 
   1   6   3  340.47   58.09 
  -1  -6   3  435.86   47.10 
   6  -1   3  466.05   50.59 
   1   6   3  411.56   70.19 
  -3  -6  -3   83.59   26.60 
   3   6  -3   30.10    9.60 
  -6   3  -3   37.90   10.80 
  -6   3  -3   38.70    7.00 
  -3  -6  -3   43.40   10.50 
   3   6  -3   29.40   11.20 
  -3  -6  -3   38.60    9.00 
  -6   3  -3   40.80   16.70 
   6  -3  -3   70.49   23.70 
  -6   3  -3   30.80    6.60 
  -3  -6  -3   33.90   19.50 
   3   6  -3   47.00   11.50 
  -6   3  -3   48.20   12.60 
   6  -3  -3   32.60    7.80 
   3   6   3   34.70   10.90 
  -3  -6   3  117.99   32.50 
   6  -3   3   32.30   10.30 
  -3  -6   3   34.10    6.50 
  -6   3   3   56.29   12.70 
  -6   3   3   32.10    8.40 
  -6   3   3   57.99   13.00 
   3   6   3   38.10   12.40 
  -6   3   3   35.60    8.30 
   6  -3   3   32.50    5.70 
  -3  -6   3   18.90    7.50 
   5   6  -3  321.67   38.60 
  -6   5  -3  261.27   35.20 
   6  -5  -3  313.27   36.60 
  -5  -6  -3  312.97   34.20 
  -5  -6  -3  374.86   38.20 
   5   6  -3  274.47   39.30 
  -6   5  -3  329.47   54.89 
  -5  -6  -3  402.16   52.69 
   5   6  -3  305.07   39.20 
   6  -5   3  285.47   33.70 
  -6   5   3  307.17   37.00 
   6  -5   3  325.77   33.90 
   6  -5   3  337.57   39.20 
   5   6   3  311.87   36.00 
   5   6   3  342.97   44.80 
  -5  -6   3  349.77   37.50 
   5   6   3  303.67   39.40 
   6  -7  -3   25.60   10.40 
  -6   7  -3   24.40   10.70 
  -7  -6  -3   75.99   27.20 
  -6   7  -3   45.50   13.80 
   7   6  -3   40.50   14.80 
   7   6  -3   28.00   13.90 
   7   6  -3   18.00   14.50 
   6  -7  -3   93.89   18.50 
  -7  -6  -3   42.80   11.70 
   6  -7  -3   38.80    9.90 
   7   6   3   45.00   15.30 
   6  -7   3   30.20    8.00 
   7   6   3   61.89   12.90 
  -7  -6   3  110.79   34.80 
  -7  -6   3   42.60   11.20 
   6  -7   3   79.89   18.20 
  -6   7   3   45.50   13.90 
   7   6   3   95.89   20.40 
   4  -7  -3  327.77   37.20 
  -7  -4  -3  199.78   39.60 
   4  -7  -3  224.38   31.00 
  -4   7  -3  297.57   40.10 
  -7  -4  -3  272.37   31.70 
   7   4  -3  263.97   32.80 
  -7  -4  -3  274.47   29.70 
  -4   7  -3  174.28   32.60 
   7   4  -3  205.58   31.10 
   7   4   3  203.68   30.20 
  -4   7   3  206.78   31.80 
   7   4   3  267.97   47.40 
   4  -7   3  227.78   28.80 
   4  -7   3  279.77   28.30 
  -7  -4   3  267.77   30.00 
  -7  -4   3  210.28   29.10 
   4  -7   3  314.27   32.80 
   7   2  -3  491.55   61.99 
  -7  -2  -3  568.84   61.89 
   7   2  -3  483.35   60.69 
  -2   7  -3  540.35   65.59 
   2  -7  -3  508.85   62.19 
  -7  -2  -3  612.94   60.29 
  -2   7  -3  577.44   62.79 
   7   2  -3  716.13   82.69 
   2  -7  -3  635.54   61.79 
  -7  -2  -3  466.15   68.99 
  -2   7  -3  578.54   73.39 
   7   2  -3  517.15   62.79 
   7   2   3  562.74   63.09 
  -7  -2   3  677.63   64.39 
  -7  -2   3  525.45   60.79 
   7   2   3  496.35   60.19 
  -7  -2   3  617.44   60.39 
   2  -7   3  645.04   60.79 
   7   2   3  578.84   61.79 
  -2   7   3  573.24   64.39 
  -7  -2   3  620.34   61.49 
   0   7  -3  -10.40    8.80 
  -7   0  -3    1.20    4.00 
   7   0  -3    0.10    4.50 
  -7   0  -3   -3.80    5.80 
   0  -7  -3    0.30    4.20 
   7   0  -3    1.60    9.70 
   0   7  -3   10.70    7.00 
  -7   0  -3   -2.20    3.40 
  -7   0  -3   -7.20    9.80 
   0   7  -3   35.70   25.60 
   0  -7  -3   -0.40   17.20 
   7   0  -3   -2.80   22.10 
   0   7  -3    6.50   11.00 
  -7   0  -3    6.90    3.70 
   0  -7   3    1.60    4.00 
   7   0   3    1.80    3.70 
  -7   0   3    5.70    5.00 
   0   7   3   14.10   19.90 
  -7   0   3   -1.70    4.10 
   0  -7   3    1.20    4.80 
   0  -7   3   -8.80   16.60 
   0   7   3    4.20    7.90 
   7   0   3    2.70    3.90 
   0   7   3    4.90    7.70 
  -7   0   3   -2.70    7.00 
   7   0   3    5.70   14.10 
  -7   0   3    0.50   11.00 
  -2  -7  -3  666.53   64.79 
  -7   2  -3  625.54   65.19 
   2   7  -3  528.35   67.99 
   2   7  -3  526.75   67.89 
  -7   2  -3  619.84   62.29 
  -7   2  -3  580.34   62.09 
   7  -2  -3  512.35   63.49 
  -7   2  -3  648.54   63.19 
  -7   2  -3  591.34   69.19 
  -7   2  -3  508.75   63.59 
  -7   2   3  614.64   64.09 
   7  -2   3  592.94   61.89 
  -7   2   3  634.14   64.39 
   2   7   3  538.05   68.09 
  -2  -7   3  554.54   65.59 
  -7   2   3  739.03   66.79 
   7  -2   3  612.24   64.49 
  -2  -7   3  594.34   62.69 
   2   7   3  523.35   66.39 
   7  -4  -3  205.78   29.90 
   4   7  -3  272.47   36.30 
  -7   4  -3  321.97   44.60 
  -4  -7  -3  317.57   47.80 
  -4  -7  -3  252.67   27.70 
  -7   4  -3  204.48   28.40 
   4   7  -3  237.78   34.60 
  -4  -7  -3  293.37   31.90 
  -7   4  -3  278.47   34.20 
   4   7  -3  241.68   33.80 
   7  -4   3  236.08   31.80 
  -4  -7   3  297.67   28.20 
  -7   4   3  233.48   30.40 
   7  -4   3  254.07   27.60 
  -4  -7   3  276.97   31.70 
   7  -4   3  248.88   27.80 
  -7   4   3  266.17   32.00 
   4   7   3  233.18   34.10 
   4   7   3  222.38   33.20 
   6   7  -3   57.89   17.10 
   6   7  -3   27.00   13.90 
  -6  -7  -3   22.10   23.10 
  -7   6  -3   55.69   37.90 
   7  -6  -3   80.29   18.70 
   6   7  -3   41.40   15.20 
  -6  -7  -3   50.19   12.80 
   7  -6  -3   29.80   10.50 
   7  -6  -3   59.89   16.60 
  -7   6   3   67.59   27.30 
   7  -6   3   51.59    8.40 
   6   7   3   45.30   11.30 
  -6  -7   3   92.59   34.00 
   6   7   3   17.50   15.80 
   6   7   3   59.09   16.70 
  -7   6   3   38.00   12.60 
   7  -6   3   37.30   14.20 
  -6  -7   3   74.29   14.70 
   8   7  -3  186.78   28.60 
   8   7  -3   80.19   24.80 
   7  -8  -3  150.38   32.10 
   8   7  -3  179.78   30.10 
  -8  -7  -3  187.48   44.20 
   7  -8   3  102.39   16.90 
   8   7   3  122.99   27.60 
  -7   8   3  102.79   23.20 
  -8  -7   3  155.28   23.30 
   8   7   3   99.39   26.30 
   8   5  -3  962.80  101.19 
   5  -8  -3  798.62   97.79 
  -5   8  -3 1112.89  105.09 
  -8  -5  -3  923.01   96.99 
  -8  -5  -3  818.62  100.19 
   8   5  -3 1011.70   99.59 
  -8  -5  -3  973.00  112.39 
   8   5   3  815.82   98.39 
   8   5   3  954.60  100.69 
  -5   8   3  898.71  100.79 
  -8  -5   3  836.52   96.79 
   5  -8   3  799.72   95.29 
  -8  -5   3  944.31   97.19 
   8   5   3  911.61  117.89 
  -8  -3  -3   64.49   12.40 
   8   3  -3   70.09   17.60 
   8   3  -3   58.69   14.80 
   3  -8  -3   76.39   16.30 
   3  -8  -3   81.69   14.20 
   8   3  -3   89.89   17.00 
  -3   8  -3   53.19   18.30 
  -3   8   3  105.29   25.50 
   8   3   3   91.59   20.20 
   3  -8   3   77.49   12.20 
  -8  -3   3   68.19   12.40 
   8   3   3   54.89   13.30 
  -8  -3   3   67.69   13.30 
  -8  -3   3   75.29   13.50 
  -3   8   3   65.39   17.20 
  -8  -3   3  119.59   33.30 
   8   1  -3 1242.68  125.99 
   8   1  -3  983.60  121.39 
   8   1  -3 1058.89  123.59 
  -8  -1  -3 1251.07  121.79 
  -8  -1  -3 1063.29  121.39 
  -8  -1  -3 1291.37  139.49 
   1  -8  -3 1386.66  123.69 
  -8  -1  -3 1201.08  118.99 
  -1   8  -3  977.80  123.89 
  -1   8  -3 1129.99  129.49 
   1  -8   3 1310.77  122.69 
  -1   8   3 1173.58  127.29 
  -8  -1   3 1348.07  123.39 
   8   1   3 1151.38  122.69 
  -8  -1   3 1110.09  122.49 
  -8  -1   3 1091.59  121.69 
  -1   8   3 1455.05  139.39 
   8   1   3  982.00  120.29 
   8   1   3 1328.27  142.89 
  -8   1  -3 1133.69  122.09 
   1   8  -3  972.10  127.59 
  -8   1  -3 1246.58  132.39 
   8  -1  -3  952.80  123.39 
   8  -1  -3 1205.08  133.29 
   1   8  -3 1060.69  129.59 
  -8   1  -3 1321.47  122.69 
   1   8  -3 1171.38  130.39 
  -8   1  -3 1239.28  123.59 
  -1  -8  -3 1329.47  124.49 
  -8   1  -3 1196.58  122.19 
   8  -1   3 1139.89  122.29 
   8  -1   3 1260.57  128.79 
  -1  -8   3 1178.08  123.69 
  -8   1   3 1103.59  123.49 
  -1  -8   3 1226.78  122.99 
   1   8   3 1194.08  129.39 
   8  -1   3 1159.78  123.29 
  -8   1   3 1313.97  124.39 
   1   8   3 1209.98  127.89 
  -8   1   3 1150.18  124.59 
  -3  -8  -3   87.09   14.70 
  -3  -8  -3  133.59   35.60 
   3   8  -3   82.19   21.50 
  -8   3  -3  111.19   22.50 
   3   8  -3   53.09   16.50 
  -3  -8  -3   80.69   11.60 
  -8   3  -3  105.49   18.60 
   8  -3  -3   55.99   12.50 
  -8   3  -3   65.59   11.40 
  -8   3  -3   69.39   13.30 
  -8   3  -3   75.09   16.90 
   8  -3  -3   66.89   16.10 
  -8   3  -3   69.59   11.60 
  -3  -8   3   72.89   14.30 
  -3  -8   3   69.49   11.80 
  -8   3   3   91.89   14.40 
   8  -3   3   72.09   11.10 
  -8   3   3   63.69   13.60 
   3   8   3   77.89   20.70 
  -8   3   3   82.69   15.00 
  -3  -8   3  203.18   47.20 
   8  -3   3   56.39   14.70 
   3   8   3   60.59   17.50 
   5   8  -3  857.81  103.79 
  -5  -8  -3  909.51  100.39 
  -5  -8  -3  962.40   95.99 
   8  -5  -3  812.92   99.59 
   5   8  -3  905.81  106.49 
   5   8  -3  952.50  104.19 
  -5  -8   3  922.31  100.59 
   5   8   3  925.61  102.19 
   8  -5   3  993.50  102.79 
   8  -5   3 1066.69   97.79 
   5   8   3  964.50  104.69 
  -8   5   3 1003.40  101.79 
   5   8   3  851.11  106.29 
   8  -5   3  901.61   96.59 
   7   8  -3   74.69   25.90 
   7   8  -3  166.78   30.40 
   8  -7  -3   99.99   21.20 
  -7  -8  -3  156.18   25.10 
  -7  -8  -3  237.58   49.80 
   7   8  -3  134.79   27.30 
   7   8   3  120.69   20.90 
  -8   7   3  112.59   24.20 
  -7  -8   3  179.98   26.00 
   8  -7   3  154.58   27.30 
   7   8   3  139.59   32.10 
   7   8   3  166.08   30.60 
   8  -9  -3  142.19   28.30 
   8  -9  -3   40.50   19.70 
   9   8  -3   80.49   33.30 
  -9  -8  -3  114.39   40.30 
   9   8  -3  162.78   30.30 
   9   8  -3  130.59   33.90 
   9   8   3   55.79   34.20 
  -9  -8   3   49.00   19.30 
  -9  -8   3  148.89   46.00 
   8  -9   3   70.99   13.80 
   8  -9   3   94.19   24.70 
   9   8   3   69.39   30.10 
  -8   9   3   63.59   22.80 
   9   6  -3   41.90   21.00 
  -6   9  -3   26.10   14.00 
  -9  -6  -3   69.29   30.60 
   9   6  -3   58.39   20.10 
  -9  -6  -3   43.80   13.40 
   6  -9  -3   45.40   15.00 
   6  -9  -3   50.09   17.30 
  -6   9   3   19.30   16.50 
  -9  -6   3   58.69   32.00 
  -9  -6   3   30.30   12.50 
  -9  -6   3   37.50   12.30 
   6  -9   3   50.69   16.10 
   9   6   3   50.49   19.40 
   6  -9   3   15.50   11.40 
   9   6   3   52.29   19.50 
  -4   9  -3   65.69   20.60 
  -9  -4  -3   92.89   16.20 
  -9  -4  -3   95.29   22.70 
  -9  -4  -3  123.99   35.30 
   9   4  -3  109.49   22.50 
   4  -9  -3   72.39   18.60 
   4  -9  -3  136.99   23.10 
   9   4  -3   92.39   20.40 
   4  -9  -3  142.39   19.30 
   9   4  -3   94.89   21.40 
   9   4   3   82.79   19.50 
   4  -9   3  141.39   16.50 
  -4   9   3  121.19   25.10 
   9   4   3   50.39   17.30 
  -9  -4   3   89.39   16.80 
  -9  -4   3  161.08   40.70 
   4  -9   3  130.99   22.20 
  -9  -4   3   91.49   16.00 
   9   4   3  102.79   28.70 
   4  -9   3   75.89   15.70 
  -9  -4   3   99.09   17.20 
  -2   9  -3  216.38   42.10 
  -9  -2  -3  233.28   33.10 
  -9  -2  -3  310.17   50.09 
   9   2  -3  295.27   31.50 
  -9  -2  -3  273.87   33.50 
   9   2  -3  318.37   41.40 
  -9  -2  -3  262.77   37.50 
   2  -9  -3  293.67   36.80 
   2  -9  -3  330.07   35.30 
   9   2  -3  237.48   37.00 
   2  -9   3  324.97   35.80 
   9   2   3  296.97   36.70 
  -9  -2   3  275.07   34.80 
  -2   9   3  431.16   56.99 
  -9  -2   3  268.07   34.50 
  -9  -2   3  272.87   33.90 
  -2   9   3  290.57   40.50 
   2  -9   3  346.97   36.60 
  -9   0  -3    5.50    5.60 
   9   0  -3  -13.00   32.50 
   0  -9  -3    1.50    5.90 
  -9   0  -3    9.20    6.20 
   0  -9  -3   -1.80   21.30 
   0   9  -3   14.80   16.50 
   0   9  -3    1.10    9.90 
   0  -9  -3   41.10   35.70 
   0   9  -3   15.90   19.40 
   0  -9  -3    2.20    5.80 
  -9   0  -3   -8.30    5.50 
  -9   0  -3   12.00   10.30 
   9   0  -3    6.00   17.10 
   9   0  -3    2.40    8.60 
   9   0   3   13.30   22.20 
   0  -9   3   -1.60   21.50 
   0  -9   3    2.70    5.90 
  -9   0   3  -21.80   14.60 
   0   9   3   -7.00   12.10 
   0   9   3    2.90   11.90 
  -9   0   3   10.10   13.50 
  -9   0   3   -3.30    6.70 
   9   0   3    2.00    5.90 
  -9   0   3    2.30    6.60 
   9   0   3    9.00    6.40 
   0  -9   3   -3.30    5.60 
  -2  -9  -3  331.67   35.10 
   2   9  -3  270.97   46.30 
   9  -2  -3  241.88   36.30 
   9  -2  -3  239.78   34.80 
  -9   2  -3  270.17   34.80 
  -9   2  -3  330.37   44.20 
  -9   2  -3  285.87   32.90 
  -9   2  -3  371.06   38.50 
   2   9  -3  274.17   38.40 
  -2  -9  -3  323.27   33.20 
   2   9  -3  244.88   44.80 
   9  -2  -3  276.67   37.80 
  -9   2  -3  270.17   33.00 
  -9   2   3  337.27   36.30 
   2   9   3  275.57   41.60 
  -9   2   3  266.57   34.60 
   2   9   3  308.27   41.10 
   9  -2   3  262.47   32.50 
  -9   2   3  304.47   37.90 
  -2  -9   3  278.17   34.30 
  -2  -9   3  268.07   32.60 
   9  -2   3  300.77   35.40 
  -4  -9  -3  185.48   43.80 
  -9   4  -3   66.29   16.10 
   4   9  -3  131.29   25.10 
  -9   4  -3   69.39   13.70 
  -4  -9  -3  105.89   13.80 
   4   9  -3  106.19   26.60 
   4   9  -3   86.39   26.30 
   9  -4  -3  146.39   24.20 
   9  -4  -3   61.59   15.60 
   4   9   3   69.39   22.60 
  -4  -9   3  123.59   19.70 
   4   9   3  108.29   27.20 
  -4  -9   3  236.28   54.39 
  -9   4   3  135.09   20.40 
   9  -4   3   93.89   13.30 
  -4  -9   3  108.09   14.40 
   9  -4   3   89.99   18.90 
   4   9   3   80.89   22.90 
   9  -4   3  120.79   14.50 
   9  -6  -3   67.39   19.40 
  -6  -9  -3   29.40   12.80 
   9  -6  -3   30.40   11.80 
   6   9  -3   33.00   21.60 
  -9   6  -3   15.90    8.00 
   6   9  -3   50.29   21.40 
   6   9  -3   44.00   22.80 
  -6  -9  -3   74.09   34.10 
  -6  -9   3   54.99   34.80 
  -6  -9   3   58.59   15.70 
   6   9   3  144.89   44.90 
  -9   6   3   39.00   14.30 
   9  -6   3   37.40   14.60 
   6   9   3   54.09   29.30 
   6   9   3   47.40   21.60 
   9  -6   3   41.00    8.60 
   6   9   3   58.29   27.30 
   8   9  -3  105.19   32.90 
   8   9  -3   59.09   31.30 
   8   9  -3  107.79   29.70 
  -8  -9  -3   61.79   21.60 
   9  -8  -3   40.90   18.90 
  -8  -9  -3  126.89   40.10 
   9  -8  -3  148.19   28.50 
   9  -8   3  121.59   26.30 
  -8  -9   3  115.69   42.40 
  -8  -9   3   61.59   21.80 
   8   9   3  109.49   33.10 
   8   9   3  104.79   35.50 
   8   9   3  100.79   18.60 
  -7  10  -3   -7.40   12.40 
   7 -10  -3   70.69   22.00 
  10   7  -3   65.79   24.60 
 -10  -7  -3   44.50   32.80 
  10   7  -3   38.60   32.80 
   7 -10   3   20.40   12.30 
  10   7   3   18.10   25.40 
   7 -10   3   36.50   19.00 
  -7  10   3    3.10   19.90 
 -10  -7   3    3.90   34.50 
 -10  -7   3   14.30   12.80 
 -10  -5  -3   66.09   33.00 
  10   5  -3   86.89   23.60 
   5 -10  -3  116.29   22.50 
 -10  -5  -3   79.19   16.20 
  10   5  -3   31.30   22.30 
  -5  10  -3    1.60   16.50 
  10   5  -3   26.20   19.70 
   5 -10  -3   36.30   16.10 
  10   5   3   58.89   19.90 
 -10  -5   3   53.29   14.80 
   5 -10   3   99.39   20.50 
  -5  10   3   39.70   20.60 
  10   5   3   83.79   23.10 
   5 -10   3   51.79   12.90 
 -10  -5   3  124.59   40.90 
 -10  -5   3   84.09   16.80 
 -10  -3  -3   -7.30    7.40 
 -10  -3  -3   -4.10   23.90 
  10   3  -3   -2.70   33.10 
   3 -10  -3   23.80   23.40 
 -10  -3  -3   23.90   19.80 
   3 -10  -3   12.50    9.30 
  10   3  -3   10.30   14.30 
   3 -10  -3    3.80   10.50 
  -3  10  -3   -0.60   17.90 
   3 -10  -3   -0.20   12.50 
 -10  -3   3    2.10    7.60 
  -3  10   3   -5.80   14.60 
  -3  10   3   19.60   32.90 
 -10  -3   3   -0.10   25.10 
  10   3   3   10.20   13.20 
 -10  -3   3   13.70    9.80 
  -1  10  -3   57.39   29.00 
 -10  -1  -3   88.09   15.50 
 -10  -1  -3  107.99   35.50 
   1 -10  -3  146.19   20.30 
  10   1  -3   93.39   15.70 
  10   1  -3   68.79   25.70 
  -1  10  -3   53.19   23.60 
   1 -10  -3  104.59   17.40 
 -10  -1  -3   83.69   15.60 
 -10  -1  -3   85.29   21.70 
  -1  10  -3   71.99   19.50 
 -10  -1   3  100.39   17.50 
   1 -10   3   83.49   15.50 
 -10  -1   3  167.78   36.40 
   1 -10   3  113.79   18.30 
 -10  -1   3  103.99   19.10 
  10   1   3   75.89   16.70 
  -1 -10  -3  197.38   47.90 
  10  -1  -3   72.59   17.40 
 -10   1  -3   70.69   13.90 
 -10   1  -3   93.89   15.30 
  10  -1  -3  111.99   34.40 
   1  10  -3   83.89   29.50 
  10  -1  -3   48.90   16.00 
 -10   1  -3   83.09   19.00 
   1  10  -3   91.49   23.60 
 -10   1  -3   86.99   14.40 
  -1 -10  -3  107.59   17.10 
 -10   1  -3  136.69   33.10 
 -10   1   3   72.59   15.20 
 -10   1   3   88.29   16.50 
  10  -1   3   79.79   15.40 
  -1 -10   3   77.29   14.50 
  10  -1   3   68.29   15.50 
   1  10   3   73.69   23.10 
 -10   1   3   89.29   22.50 
  -1 -10   3   95.89   16.40 
   1  10   3  107.79   26.80 
   3  10  -3   -4.20   20.10 
 -10   3  -3   -1.60    6.60 
  10  -3  -3   -5.50   13.00 
  -3 -10  -3    5.50    9.80 
  10  -3  -3   -7.70    9.70 
 -10   3  -3    4.80   11.00 
 -10   3  -3   -2.00   14.10 
  -3 -10  -3    0.50   25.80 
   3  10  -3    2.70   20.40 
  -3 -10  -3    8.60    6.30 
 -10   3  -3    2.00    6.80 
 -10   3   3    2.60   12.10 
 -10   3   3    8.50   17.20 
  10  -3   3    5.80    6.90 
  -3 -10   3    3.60    6.00 
  -3 -10   3   13.40    9.00 
   3  10   3   23.90   18.40 
  10  -3   3    0.00   10.90 
  -5 -10  -3   65.09   10.30 
  -5 -10  -3   51.59   16.20 
  10  -5  -3   77.69   23.10 
   5  10  -3   85.19   29.50 
   5  10  -3   54.99   28.80 
  -5 -10  -3  131.69   44.20 
  10  -5  -3   41.90   15.00 
  -5 -10   3  190.38   51.39 
  -5 -10   3   67.89   16.70 
   5  10   3   48.70   24.70 
 -10   5   3   40.10   18.30 
  10  -5   3   63.19   11.00 
 -10   5   3   54.49   16.50 
   5  10   3   66.49   27.00 
   5  10   3  110.29   28.60 
  10  -7  -3   23.00   24.20 
  -7 -10  -3   30.50   32.20 
  -7 -10  -3   31.00   16.20 
  10  -7  -3   45.60   21.30 
 -10   7  -3    5.10    7.40 
 -10   7  -3   27.60   31.10 
   7  10  -3    9.10   28.90 
   7  10  -3    9.70   26.90 
   7  10   3   43.20   30.90 
  10  -7   3   22.40   17.60 
   7  10   3    5.50   20.20 
  -7 -10   3   26.10   16.60 
  -7 -10   3   45.10   37.10 
   7  10   3   32.70   33.70 
 -10   7   3   19.80   15.70 
   6 -11  -3   49.90   19.20 
 -11  -6  -3   22.50   31.40 
  11   6  -3   88.79   27.60 
 -11  -6   3   10.10   13.80 
   6 -11   3   53.49   19.80 
 -11  -6   3   50.59   37.10 
  -6  11   3   39.40   24.70 
 -11  -4  -3  128.39   43.90 
   4 -11  -3  126.49   27.10 
  11   4  -3  205.28   33.40 
  11   4  -3  107.79   30.00 
 -11  -4  -3  163.88   30.80 
  -4  11  -3  121.99   29.10 
  11   4   3  154.88   32.00 
  -4  11   3  136.79   33.90 
   4 -11   3  155.78   23.40 
 -11  -4   3  116.79   22.40 
  11   2  -3  306.37   46.60 
   2 -11  -3  367.16   44.60 
  -2  11  -3  256.07   52.89 
 -11  -2  -3  263.77   38.50 
 -11  -2  -3  483.45   65.79 
 -11  -2  -3  353.36   39.90 
  -2  11  -3  272.17   61.49 
 -11  -2   3  329.67   41.60 
  -2  11   3  232.18   48.60 
  11   2   3  381.86   46.20 
 -11  -2   3  327.47   40.00 
 -11   0  -3  -16.30    8.60 
   0 -11  -3   13.80    9.70 
   0 -11  -3  -11.30   28.60 
   0 -11  -3    4.10    8.80 
   0  11  -3   27.80   29.50 
  11   0  -3    0.00   13.50 
 -11   0  -3   -7.10   24.20 
 -11   0  -3   -1.30    7.90 
   0  11  -3   -5.20   26.10 
  11   0   3  -17.30   11.60 
 -11   0   3   20.60   12.30 
   0  11   3  -22.60   18.30 
   0 -11   3   10.00    8.00 
  11   0   3   -1.30   12.70 
   0  11   3  -17.20   19.70 
 -11   0   3    2.00    9.80 
   0 -11   3  -12.20   31.70 
 -11   2  -3  218.28   41.10 
  -2 -11  -3  369.46   40.70 
   2  11  -3  361.86   57.69 
   2  11  -3  391.16   60.99 
  11  -2  -3  376.36   44.60 
 -11   2  -3  290.07   37.50 
  11  -2  -3  325.27   49.30 
  11  -2  -3  251.17   42.60 
 -11   2  -3  283.67   37.80 
  -2 -11   3  350.16   37.80 
 -11   2   3  403.56   43.70 
 -11   2   3  352.66   41.30 
  11  -2   3  362.96   42.10 
  -2 -11   3  326.57   47.00 
   2  11   3  373.56   57.09 
   4  11  -3  155.28   36.40 
   4  11  -3  157.38   39.50 
  -4 -11  -3  293.67   64.59 
  11  -4  -3  122.29   25.10 
   4  11  -3  106.49   38.80 
  -4 -11  -3  110.59   22.20 
  -4 -11  -3  157.08   19.50 
 -11   4   3  161.48   28.60 
   4  11   3  185.28   36.80 
   4  11   3  103.19   34.40 
   4  11   3  174.78   37.00 
 -11   4   3  118.49   24.10 
  -4 -11   3  133.39   19.50 
  -4 -11   3  157.98   25.50 
  11  -6  -3   40.70   21.10 
 -11   6  -3    9.90    6.90 
  -6 -11  -3   15.60   15.50 
   6  11  -3   17.80   33.60 
  -6 -11  -3   42.40   36.00 
   6  11  -3   27.80   37.70 
   6  11  -3   35.00   34.50 
  11  -6   3   26.90   19.00 
   6  11   3   61.99   31.40 
   6  11   3   -2.00   31.10 
  -6 -11   3  103.39   47.50 
 -11   6   3   31.30   15.60 
   6  11   3   38.50   32.80 
  -6 -11   3    2.40   16.90 
   5 -12  -3  123.09   35.80 
 -12  -5  -3   42.90   16.80 
 -12  -5  -3   80.79   38.50 
  -5  12  -3   48.00   21.50 
 -12  -5   3  138.69   52.09 
 -12  -3  -3    0.20   11.00 
  -3  12  -3   23.70   37.00 
 -12  -3  -3   42.50   38.50 
   3 -12  -3   29.00   28.30 
   3 -12  -3   24.10   15.30 
  12   3  -3   40.50   30.50 
  -3  12  -3   25.90   26.10 
   3 -12   3   10.70   12.00 
 -12  -3   3    1.60   10.60 
 -12  -3   3  -32.30   32.30 
  -3  12   3   40.60   28.40 
   1 -12  -3   86.19   21.10 
 -12  -1  -3   89.59   40.40 
   1 -12  -3   66.29   16.30 
  12   1  -3   49.00   12.80 
  -1  12  -3   82.09   43.30 
  -1  12  -3   87.09   34.00 
 -12  -1  -3   61.79   14.90 
   1 -12   3   95.99   17.10 
  -1  12   3   82.99   29.90 
 -12  -1   3  124.49   37.80 
 -12  -1   3   65.09   16.50 
  12  -1  -3   77.29   19.10 
 -12   1  -3   39.70   12.60 
   1  12  -3   34.60   32.00 
 -12   1  -3   54.99   14.50 
  12  -1  -3   22.10   24.20 
 -12   1  -3  108.39   34.50 
   1  12  -3  109.29   43.90 
  12  -1   3   61.49   17.50 
   1  12   3   57.89   29.40 
  12  -1   3   58.59   16.10 
 -12   1   3   52.19   16.20 
  12  -3  -3    1.30   18.10 
   3  12  -3   -4.70   31.90 
  -3 -12  -3   13.50   13.00 
  -3 -12  -3   17.10    9.30 
  -3 -12  -3   20.90   34.10 
   3  12   3   39.60   28.00 
  -3 -12   3    3.30    8.50 
   3  12   3   36.50   29.40 
  12  -3   3   -5.70   11.60 
  12  -3   3    5.00   15.50 
  -3 -12   3   10.10   40.00 
   3  12   3   -6.30   24.70 
 -12   3   3    5.90   12.20 
  12  -5  -3   57.29   26.90 
 -12   5   3   71.09   20.00 
   5  12   3  117.29   43.60 
   5  12   3  110.59   42.00 
  -5 -12   3  143.59   56.39 
  12  -5   3   55.39   26.90 
 -13  -2  -3   26.40   43.60 
   2 -13  -3   -9.20   13.60 
 -13  -2  -3    2.90   12.50 
   2 -13  -3   64.19   41.30 
  -2  13  -3   49.50   54.59 
 -13  -2   3   11.20   13.60 
 -13  -2   3   16.00   39.40 
   2 -13   3   18.80   12.40 
  -2  13   3   37.50   34.60 
   0 -13  -3    9.90   13.80 
   0 -13  -3   -1.20   39.50 
 -13   0  -3  -22.10   36.30 
 -13   0  -3    4.20   11.10 
 -13   0   3   -6.40   13.20 
   0 -13   3  -12.10   10.60 
   2  13  -3   37.90   40.30 
 -13   2  -3   10.70   10.10 
  -2 -13  -3   20.70   11.60 
  13  -2  -3   33.90   20.90 
   2  13  -3   -7.00   37.10 
  -2 -13  -3   33.70   40.20 
  -2 -13   3   20.30   10.40 
  13  -2   3   17.70   17.70 
 -13   2   3   15.70   14.50 
  -2 -13   3   33.20   51.69 
   2  13   3  -31.90   37.80 
   2  13   3  -17.90   31.80 
   0   0  -4 6196.18  590.14 
   0   0  -4 5623.34  592.94 
   0   0  -4 5214.48  590.54 
   0   0   4 6597.84  590.24 
   0   0   4 5560.84  592.44 
  -1  -1  -4  939.51  106.39 
   1   1  -4 1001.80  109.29 
   1  -1  -4  884.21  106.99 
  -1   1  -4 1129.99  106.79 
  -1  -1  -4 1080.99  106.79 
   1   1  -4  981.20  106.69 
  -1  -1  -4 1071.09  106.89 
  -1   1  -4 1046.00  109.59 
   1  -1  -4  972.10  106.79 
   1   1  -4 1058.99  106.79 
  -1   1  -4  975.30  105.79 
  -1   1  -4 1079.69  106.79 
   1  -1  -4 1020.00  109.89 
  -1  -1  -4  998.20  109.89 
  -1  -1  -4  969.70  109.49 
   1  -1  -4 1065.89  106.89 
   1   1  -4 1057.39  106.99 
  -1   1  -4 1083.49  105.89 
  -1   1   4 1073.49  106.79 
   1  -1   4 1117.19  106.79 
  -1   1   4 1023.50  106.79 
   1  -1   4 1169.08  107.09 
   1   1   4 1059.99  106.69 
  -1  -1   4 1040.00  106.69 
   1   1   4 1102.49  109.99 
  -1  -1   4 1054.69  106.69 
  -1  -1   4 1124.59  106.79 
   1   1   4 1075.29  110.09 
   1   1   4 1072.89  106.49 
   1  -1   4 1000.20  105.79 
  -1   1   4  955.80  107.19 
  -1   1   4 1086.29  109.89 
   0  -2  -4 1473.05  166.28 
   0   2  -4 1418.16  165.48 
  -2   0  -4 1540.15  168.78 
   0  -2  -4 1703.63  166.38 
  -2   0  -4 1683.33  165.78 
  -2   0  -4 1371.56  164.98 
   0   2  -4 1671.43  165.58 
   0   2  -4 1573.34  165.88 
   2   0  -4 1457.95  166.38 
   0   2  -4 1781.22  166.58 
  -2   0  -4 1614.44  168.38 
   0  -2  -4 1605.94  166.68 
   0  -2  -4 1550.84  165.98 
  -2   0  -4 1674.43  165.18 
   2   0  -4 1583.74  168.18 
  -2   0  -4 1755.42  165.28 
   0  -2  -4 1487.35  170.78 
  -2   0  -4 1772.42  165.38 
   0  -2  -4 1524.95  168.78 
   2   0  -4 1492.55  166.08 
   2   0  -4 1780.72  166.38 
   2   0   4 1721.03  168.18 
   0   2   4 1725.83  171.78 
  -2   0   4 1728.53  168.08 
  -2   0   4 1673.23  166.08 
   2   0   4 1816.22  165.28 
   0  -2   4 1688.23  165.78 
   0   2   4 1666.93  166.28 
   0   2   4 1691.73  168.98 
   0  -2   4 1796.42  165.58 
  -2   0   4 1677.73  166.38 
   0   2   4 1406.46  166.38 
  -2   0   4 1637.94  166.08 
   0  -2   4 1488.25  165.38 
   0  -2   4 1739.93  165.38 
   2   2  -4 3744.73  375.96 
   2  -2  -4 3518.95  381.36 
  -2   2  -4 3137.99  374.76 
  -2  -2  -4 4025.40  377.16 
   2  -2  -4 3850.01  377.86 
   2  -2  -4 4011.50  376.76 
  -2   2  -4 3388.16  376.26 
  -2  -2  -4 3163.28  380.86 
  -2   2  -4 4025.80  377.16 
  -2  -2  -4 3377.76  376.36 
   2  -2  -4 3806.62  376.76 
   2   2  -4 3725.63  376.66 
   2  -2  -4 3801.72  377.66 
   2   2  -4 4058.39  386.76 
  -2  -2  -4 3715.03  375.56 
   2   2  -4 3592.34  376.66 
  -2  -2   4 4023.30  376.26 
  -2  -2   4 3508.95  376.26 
   2   2   4 3468.25  377.06 
   2  -2   4 3749.72  374.76 
   2  -2   4 3764.52  374.76 
  -2   2   4 4055.09  381.26 
  -2  -2   4 3981.40  376.26 
  -2   2   4 3187.08  377.36 
  -2   2   4 4024.80  376.86 
   2  -2   4 3917.21  376.46 
  -2  -2   4 4065.29  376.56 
   2   2   4 3644.34  381.76 
   2   2   4 3169.18  375.46 
   2  -2   4 3541.95  374.56 
   2   2   4 3846.62  381.96 
  -2   2   4 3993.80  376.66 
   3   1  -4 1294.97  143.29 
  -3  -1  -4 1236.58  145.59 
  -1   3  -4 1486.25  144.39 
   1  -3  -4 1266.67  150.08 
   3   1  -4 1275.17  143.09 
  -1   3  -4 1496.35  150.08 
  -1   3  -4 1279.57  142.09 
  -3  -1  -4 1398.66  143.09 
  -1   3  -4 1394.46  142.39 
   1  -3  -4 1389.16  143.39 
   1  -3  -4 1331.57  145.99 
  -3  -1  -4 1475.25  142.59 
   1  -3  -4 1392.36  142.99 
  -3  -1  -4 1456.05  142.19 
   1  -3  -4 1603.44  144.79 
   3   1  -4 1331.17  144.69 
  -1   3  -4 1314.37  142.99 
   1  -3  -4 1378.76  143.59 
   3   1  -4 1456.75  151.88 
   3   1   4 1399.56  145.59 
   1  -3   4 1477.95  142.99 
  -3  -1   4 1385.56  142.99 
   3   1   4 1192.58  142.19 
   1  -3   4 1481.15  141.99 
   1  -3   4 1505.15  141.99 
  -1   3   4 1585.54  151.98 
  -3  -1   4 1523.35  143.09 
  -1   3   4 1365.76  143.29 
  -3  -1   4 1395.86  142.99 
  -1   3   4 1459.15  145.39 
   3   1   4 1484.55  148.19 
  -1   3   4 1188.48  143.99 
   3   1   4 1404.96  142.49 
  -3   1  -4 1344.27  141.99 
   1   3  -4 1418.56  151.68 
  -3   1  -4 1409.26  144.59 
   3  -1  -4 1280.27  143.19 
  -3   1  -4 1460.85  140.29 
   1   3  -4 1360.96  142.29 
   1   3  -4 1287.67  142.29 
  -1  -3  -4 1293.17  149.49 
   3  -1  -4 1369.76  145.19 
   3  -1  -4 1326.17  142.39 
  -3   1  -4 1284.67  144.79 
   1   3  -4 1465.45  143.29 
  -1  -3  -4 1280.37  142.29 
  -1  -3  -4 1484.65  143.29 
   1   3  -4 1354.16  141.89 
   3  -1  -4 1582.84  142.69 
  -1  -3  -4 1165.28  146.79 
  -3   1  -4 1505.65  141.89 
  -1  -3   4 1524.25  142.09 
  -1  -3   4 1497.25  141.79 
   1   3   4 1395.26  147.59 
   1   3   4 1333.37  150.88 
   1   3   4 1338.97  143.19 
   1   3   4 1263.07  142.49 
  -3   1   4 1482.05  142.59 
   3  -1   4 1382.06  141.89 
  -1  -3   4 1533.05  141.79 
  -3   1   4 1269.97  142.89 
  -3   1   4 1448.36  144.29 
  -3   1   4 1452.25  142.39 
   3  -3  -4   10.90    6.70 
   3   3  -4   16.50   15.60 
  -3  -3  -4   21.10   10.70 
  -3  -3  -4    4.00    8.40 
  -3   3  -4    3.50    4.00 
   3  -3  -4    5.10    3.80 
  -3  -3  -4   10.60    4.30 
  -3  -3  -4   24.60    6.30 
   3   3  -4    3.80    4.00 
   3  -3  -4    4.40    9.90 
   3   3  -4    0.50    3.20 
   3   3  -4    3.20    3.50 
   3  -3  -4   10.10    3.90 
   3   3  -4   11.00    3.10 
  -3   3  -4    3.50    2.20 
   3   3   4    3.10    3.90 
  -3  -3   4   -0.30    2.80 
  -3   3   4    3.30    6.60 
   3  -3   4    3.20    3.10 
  -3  -3   4    2.20    9.50 
   3   3   4   14.30    5.90 
   3   3   4   -4.20   12.40 
   3  -3   4    2.60    1.30 
  -3  -3   4   10.80    3.80 
  -3   3   4    9.10    8.70 
  -3   3   4    6.30    3.90 
  -3   3   4    1.00    2.70 
   3   3   4   -0.20    3.30 
   3   3   4   11.70    9.60 
  -3  -3   4    5.40    3.70 
   3  -3   4    4.20    1.30 
  -4  -2  -4 2357.36  243.78 
   4   2  -4 2172.48  243.58 
  -2   4  -4 1990.40  242.38 
   2  -4  -4 2333.37  243.68 
  -2   4  -4 2552.14  250.67 
  -4  -2  -4 2050.29  247.38 
  -4  -2  -4 2508.95  243.08 
  -2   4  -4 2319.57  243.08 
   2  -4  -4 2358.86  243.98 
   2  -4  -4 2309.97  243.18 
   2  -4  -4 2239.88  246.58 
  -4  -2  -4 2468.55  241.78 
   4   2  -4 2126.99  255.07 
  -4  -2   4 2743.93  243.68 
  -4  -2   4 2640.04  243.58 
  -4  -2   4 2544.55  242.98 
  -2   4   4 2699.63  245.58 
   2  -4   4 2640.14  242.28 
  -2   4   4 2319.67  243.78 
   2  -4   4 2518.75  243.88 
  -4  -2   4 2234.58  243.18 
   4   2   4 2391.66  251.97 
   4   2   4 2292.87  250.17 
   4   2   4 2389.76  243.18 
  -2   4   4 2275.17  245.28 
   2  -4   4 2454.05  242.08 
   0   4  -4 1788.62  192.48 
  -4   0  -4 1616.74  184.28 
  -4   0  -4 1965.50  181.38 
   4   0  -4 1960.90  183.68 
   0   4  -4 1839.22  184.88 
   0  -4  -4 1993.10  183.48 
   0  -4  -4 1617.54  188.28 
   0  -4  -4 1914.61  184.18 
   4   0  -4 1653.63  183.88 
   0   4  -4 1750.42  183.48 
   0   4  -4 1506.65  182.68 
   4   0  -4 1658.33  184.28 
  -4   0  -4 1919.91  181.48 
  -4   0  -4 1661.83  182.28 
   0   4  -4 1696.93  182.78 
   4   0  -4 1590.14  184.18 
   4   0  -4 1664.53  190.08 
  -4   0  -4 1772.82  182.28 
   0   4   4 1889.11  184.38 
   0  -4   4 1890.31  182.58 
   0  -4   4 1997.90  182.98 
   0   4   4 1935.81  196.08 
   0   4   4 1646.14  183.48 
  -4   0   4 1731.43  183.18 
   0  -4   4 1996.10  182.48 
   4   0   4 1914.11  187.48 
  -4   0   4 1814.72  183.08 
   0   4   4 1516.05  184.28 
  -4   0   4 1780.72  182.98 
   4   0   4 1806.52  182.28 
   0   4   4 1965.20  188.88 
  -2  -4  -4 2397.56  243.68 
  -2  -4  -4 1976.80  249.68 
   2   4  -4 2105.59  243.88 
   4  -2  -4 2542.75  243.58 
   2   4  -4 2428.56  244.48 
   2   4  -4 2271.27  243.68 
   4  -2  -4 2542.15  249.58 
  -2  -4  -4 2499.45  244.38 
   2   4  -4 2179.68  255.57 
  -4   2  -4 2403.36  246.18 
   4  -2  -4 2309.47  243.38 
   4  -2  -4 2556.84  246.58 
  -4   2  -4 2522.55  246.98 
  -2  -4   4 2425.66  242.78 
  -4   2   4 2376.26  244.78 
   2   4   4 2345.27  256.97 
  -2  -4   4 2558.14  242.28 
  -2  -4   4 2586.54  243.38 
   2   4   4 2436.66  253.17 
  -4   2   4 2467.15  243.48 
   2   4   4 2236.18  245.18 
  -4   2   4 2478.75  243.58 
   2   4   4 2047.80  244.18 
   4  -2   4 2449.85  243.38 
   4   4  -4  923.41  130.79 
   4  -4  -4 1055.09  114.79 
   4   4  -4 1036.90  115.39 
  -4  -4  -4 1034.60  127.39 
   4  -4  -4 1162.38  114.99 
   4  -4  -4 1011.20  114.59 
  -4  -4  -4 1228.68  115.79 
   4   4  -4 1112.79  115.39 
  -4   4  -4  975.80  113.39 
   4   4  -4 1024.60  112.69 
   4   4  -4  990.00  115.39 
  -4  -4  -4 1152.38  115.19 
   4  -4   4 1159.08  112.19 
  -4  -4   4 1269.17  113.99 
   4   4   4 1229.18  131.69 
  -4   4   4 1043.90  114.79 
   4  -4   4 1132.29  115.39 
   4   4   4 1172.68  130.49 
  -4   4   4 1135.49  114.99 
  -4  -4   4 1181.08  114.39 
   4  -4   4 1023.20  112.09 
  -4  -4   4 1261.77  114.89 
   4   4   4 1069.49  116.39 
  -4   4   4 1165.38  117.49 
   4  -4   4 1135.19  111.89 
   4   4   4 1008.70  113.49 
   3  -5  -4 1354.46  143.59 
  -5  -3  -4 1513.15  142.99 
   3  -5  -4 1392.46  142.89 
   5   3  -4 1279.87  143.69 
  -3   5  -4 1525.05  150.38 
   5   3  -4 1203.38  140.99 
  -3   5  -4 1499.75  143.19 
   5   3  -4 1300.37  143.39 
  -3   5  -4 1231.38  143.39 
  -5  -3  -4 1371.76  143.69 
   3  -5  -4 1324.07  143.59 
   5   3  -4 1248.38  160.18 
  -5  -3  -4 1465.25  149.49 
  -3   5   4 1339.77  147.19 
  -5  -3   4 1431.86  142.89 
   5   3   4 1484.25  151.78 
  -3   5   4 1236.68  144.89 
   5   3   4 1382.46  143.39 
  -5  -3   4 1567.14  142.29 
   3  -5   4 1432.96  141.49 
   3  -5   4 1234.78  144.89 
   5   3   4 1507.75  158.78 
  -5  -3   4 1314.27  142.79 
  -5  -3   4 1512.25  143.09 
   1  -5  -4  131.39   21.40 
  -5  -1  -4  133.09   15.60 
   1  -5  -4  153.18   25.10 
   5   1  -4  122.79   17.40 
  -5  -1  -4  142.89   15.90 
  -1   5  -4  132.59   18.70 
  -1   5  -4  105.69   16.50 
   5   1  -4  126.29   18.90 
  -1   5  -4  171.58   22.20 
   1  -5  -4  137.69   17.20 
  -5  -1  -4  128.39   20.80 
  -5  -1  -4  134.99   17.40 
  -1   5  -4  150.18   32.30 
  -5  -1  -4  103.09   21.90 
   1  -5  -4  130.09   18.50 
   5   1  -4  128.59   18.30 
  -5  -1   4  147.59   17.40 
  -1   5   4  160.58   23.20 
   1  -5   4  145.89   17.30 
  -1   5   4  123.19   18.10 
  -5  -1   4  147.69   17.40 
  -5  -1   4  131.49   17.00 
   5   1   4  138.79   24.70 
   1  -5   4  137.09   16.30 
   5   1   4  147.29   16.00 
   5   1   4  137.79   19.20 
  -1   5   4  191.68   41.30 
   1  -5   4  124.69   16.20 
  -5  -1   4  146.49   17.70 
   5  -1  -4  143.39   18.00 
  -5   1  -4  108.79   20.40 
   5  -1  -4  114.19   25.30 
   1   5  -4  128.49   17.50 
   5  -1  -4  122.69   17.00 
   5  -1  -4  168.98   20.30 
  -5   1  -4  148.49   15.00 
  -5   1  -4  133.79   15.70 
  -5   1  -4  109.39   17.90 
   5  -1  -4  121.19   21.20 
   1   5  -4  157.48   20.00 
  -1  -5  -4  157.68   27.20 
   1   5  -4  130.69   18.50 
  -1  -5  -4  133.39   17.20 
  -5   1  -4  107.99   16.30 
  -5   1  -4  151.28   14.80 
  -5   1   4  146.09   18.20 
   5  -1   4  138.79   16.40 
   5  -1   4  112.99   14.70 
  -5   1   4  158.18   17.50 
  -1  -5   4  211.48   32.30 
  -5   1   4  145.49   17.30 
   1   5   4  144.09   19.50 
   1   5   4  141.39   26.50 
   1   5   4  179.48   42.80 
  -5   1   4  121.69   17.90 
   1   5   4  137.29   18.70 
  -1  -5   4  126.59   16.60 
  -1  -5   4  139.59   16.40 
  -1  -5   4  143.79   16.80 
   5  -3  -4 1303.87  146.39 
   5  -3  -4 1481.55  146.79 
   5  -3  -4 1533.85  146.89 
   5  -3  -4 1505.75  145.09 
   3   5  -4 1210.88  166.88 
  -5   3  -4 1246.28  143.89 
   3   5  -4 1398.86  150.68 
  -5   3  -4 1475.75  149.19 
   3   5  -4 1456.05  148.19 
  -3  -5  -4 1477.15  147.39 
  -5   3   4 1407.36  146.79 
   5  -3   4 1521.45  147.29 
  -3  -5   4 1545.45  146.79 
   3   5   4 1170.08  147.19 
   3   5   4 1141.19  147.59 
   3   5   4 1319.77  149.29 
  -5   3   4 1674.73  149.39 
  -3  -5   4 1515.45  144.89 
   3   5   4 1487.75  163.08 
   3   5   4 1398.76  166.38 
  -3  -5   4 1433.46  145.89 
  -5   5  -4  151.88   36.10 
   5   5  -4  135.69   48.10 
   5   5  -4   71.99   16.40 
   5   5  -4   66.39   16.90 
  -5  -5  -4  111.19   17.40 
  -5   5  -4  127.69   22.90 
  -5   5  -4  136.09   20.60 
  -5   5  -4   84.99   15.30 
  -5  -5  -4  135.39   29.70 
  -5  -5  -4  108.99   28.80 
   5   5  -4  103.69   18.60 
   5  -5  -4   88.29   16.20 
  -5   5   4  107.59   15.80 
   5  -5   4  111.49   12.70 
   5   5   4  145.39   46.50 
   5   5   4  103.19   13.40 
  -5  -5   4  159.68   37.80 
   5   5   4  100.59   19.80 
  -5  -5   4  115.09   15.20 
   5  -5   4  116.59   12.90 
   5  -5   4   84.89   17.20 
   5  -5   4  111.29   12.70 
   5   5   4   73.19   17.00 
   5   5   4   91.49   17.50 
  -5  -5   4  115.09   15.80 
  -5   5   4  183.18   33.20 
   6   4  -4  366.16   38.80 
  -6  -4  -4  477.75   52.99 
  -4   6  -4  278.87   42.90 
  -6  -4  -4  346.87   52.59 
   6   4  -4  331.27   42.90 
  -6  -4  -4  386.76   43.30 
  -6  -4  -4  441.86   42.60 
   6   4  -4  360.96   43.70 
  -6  -4  -4  369.56   38.60 
  -4   6  -4  412.96   50.29 
   4  -6  -4  351.76   42.80 
   6   4  -4  489.85   74.09 
   4  -6  -4  384.56   42.00 
   4  -6   4  388.36   43.50 
   4  -6   4  327.47   40.00 
   6   4   4  335.87   42.90 
   4  -6   4  383.26   40.50 
  -4   6   4  313.17   42.70 
  -6  -4   4  320.67   41.50 
   4  -6   4  449.46   40.50 
   6   4   4  406.56   59.69 
  -6  -4   4  375.46   42.00 
  -6  -4   4  393.06   41.00 
  -2   6  -4  388.06   51.29 
   2  -6  -4  387.96   39.50 
   6   2  -4  258.77   55.69 
   2  -6  -4  290.67   40.00 
  -6  -2  -4  335.17   36.90 
  -2   6  -4  352.36   39.50 
   6   2  -4  290.67   41.60 
  -6  -2  -4  388.46   38.10 
  -2   6  -4  326.07   41.60 
  -6  -2  -4  317.07   42.50 
   6   2  -4  339.17   40.40 
  -6  -2  -4  390.16   41.90 
   6   2   4  408.26   82.89 
   6   2   4  298.77   38.00 
  -6  -2   4  401.56   39.40 
  -2   6   4  308.17   40.10 
   6   2   4  334.17   39.20 
  -6  -2   4  330.97   38.80 
  -6  -2   4  392.46   38.80 
   2  -6   4  357.96   39.60 
   6   2   4  400.56   43.50 
  -6  -2   4  394.06   41.30 
   2  -6   4  338.87   37.90 
  -6   0  -4 3322.27  312.37 
  -6   0  -4 2543.55  317.67 
   0  -6  -4 3306.47  313.17 
   0   6  -4 2772.12  317.57 
  -6   0  -4 3516.15  311.17 
  -6   0  -4 2594.44  311.47 
   0   6  -4 2915.81  316.87 
   6   0  -4 2708.03  312.77 
   0   6  -4 3012.80  326.57 
  -6   0  -4 2912.61  310.47 
   6   0  -4 2873.61  313.57 
   6   0  -4 3074.09  314.57 
   0  -6  -4 3277.17  314.07 
   0   6   4 3426.16  315.47 
  -6   0   4 3131.39  312.77 
   0  -6   4 3218.58  312.07 
  -6   0   4 3397.36  313.07 
   6   0   4 2892.81  311.37 
   0  -6   4 3287.27  313.97 
   6   0   4 3077.39  311.57 
  -6   0   4 2952.70  312.77 
   6   0   4 3389.56  319.37 
  -6   0   4 3300.97  313.97 
   0   6   4 2657.93  315.27 
   2   6  -4  282.57   43.20 
  -6   2  -4  291.97   39.60 
   2   6  -4  322.07   42.10 
   2   6  -4  364.56   41.30 
  -6   2  -4  374.76   37.30 
  -2  -6  -4  452.75   53.69 
  -2  -6  -4  355.86   40.00 
   6  -2  -4  311.37   39.50 
  -6   2  -4  319.97   40.90 
  -2  -6  -4  383.26   41.00 
  -6   2  -4  346.07   37.10 
  -6   2  -4  324.77   43.70 
  -6   2  -4  350.96   37.60 
   2   6   4  306.07   42.00 
   6  -2   4  341.57   36.80 
   6  -2   4  391.96   40.00 
  -6   2   4  417.26   41.20 
  -6   2   4  393.36   40.30 
   2   6   4  295.17   43.40 
  -6   2   4  361.66   39.70 
   2   6   4  328.67   42.80 
  -2  -6   4  378.76   38.70 
  -2  -6   4  377.06   40.00 
  -6   2   4  456.85   43.30 
  -6   4  -4  484.75   58.39 
  -4  -6  -4  384.06   44.10 
   4   6  -4  332.47   45.90 
  -6   4  -4  450.25   46.80 
  -4  -6  -4  379.16   44.50 
   4   6  -4  356.96   45.20 
   4   6  -4  377.36   46.00 
  -4  -6  -4  484.45   58.99 
   6  -4   4  405.86   40.10 
   4   6   4  313.77   46.50 
  -4  -6   4  412.76   44.20 
  -6   4   4  376.36   44.10 
   4   6   4  320.27   45.70 
   6  -4   4  376.86   40.00 
   6  -4   4  377.16   44.70 
   4   6   4  356.96   48.20 
  -6   4   4  389.36   43.70 
   6   6  -4 1709.83  184.98 
  -6  -6  -4 1893.21  197.88 
   6  -6  -4 1874.51  182.08 
  -6  -6  -4 1882.41  183.48 
   6   6  -4 1679.13  183.88 
  -6   6   4 1495.35  182.58 
  -6  -6   4 1936.31  183.08 
   6  -6   4 1915.01  185.18 
   6   6   4 1656.43  179.28 
   6   6   4 1811.72  185.88 
   6  -6   4 1727.13  179.58 
   6   6   4 1694.43  186.38 
   6  -6   4 1678.33  178.88 
  -5   7  -4    0.10    9.40 
  -5   7  -4   14.40   17.40 
   5  -7  -4   16.10    7.40 
  -7  -5  -4   10.20    7.20 
  -7  -5  -4   18.60   18.40 
   5  -7  -4   51.19   36.30 
   7   5  -4    9.50   11.60 
  -7  -5  -4   24.60   11.80 
   7   5  -4   66.09   54.39 
   7   5  -4   22.90   10.50 
  -7  -5  -4   25.60   19.60 
   5  -7  -4    7.80    9.30 
   7   5  -4   -4.00   10.30 
  -7  -5   4    6.00    7.00 
   5  -7   4   42.10    6.90 
   7   5   4   32.90   36.90 
  -5   7   4   21.50    9.40 
  -7  -5   4   10.80   21.70 
  -7  -5   4   19.30    8.20 
   5  -7   4    5.90    5.30 
   5  -7   4   16.50    9.60 
   7   5   4    2.60   10.30 
   7   5   4   30.10   12.10 
  -7  -3  -4  365.86   56.79 
   3  -7  -4  499.95   47.60 
   7   3  -4  549.45   72.79 
   3  -7  -4  367.86   48.00 
  -7  -3  -4  498.95   54.59 
  -3   7  -4  515.15   60.29 
  -3   7  -4  320.97   49.60 
  -3   7  -4  451.95   48.20 
   7   3  -4  354.26   43.30 
  -7  -3  -4  457.15   48.40 
  -7  -3  -4  446.66   46.00 
   7   3  -4  384.96   48.10 
   7   3  -4  384.76   49.20 
   7   3  -4  359.46   48.90 
   7   3   4  445.76   54.69 
   7   3   4  372.36   46.40 
  -7  -3   4  357.56   46.20 
  -7  -3   4  456.05   47.00 
   7   3   4  434.96   48.30 
   3  -7   4  470.25   48.30 
  -7  -3   4  436.76   46.00 
  -3   7   4  402.16   48.70 
   3  -7   4  450.25   45.50 
  -1   7  -4  196.68   45.40 
  -7  -1  -4  176.88   32.70 
  -1   7  -4  177.38   35.10 
   7   1  -4  230.38   51.59 
  -1   7  -4  228.48   31.70 
  -7  -1  -4  205.98   27.10 
  -1   7  -4  157.38   25.50 
  -7  -1  -4  237.88   23.90 
  -7  -1  -4  231.68   26.50 
   7   1  -4  172.58   25.70 
   7   1  -4  194.48   25.80 
   1  -7  -4  234.48   25.90 
   7   1  -4  184.18   28.60 
   1  -7   4  202.78   24.40 
   7   1   4  195.78   24.70 
  -7  -1   4  222.78   25.50 
   1  -7   4  210.68   25.60 
  -7  -1   4  195.88   24.80 
   7   1   4  194.68   37.10 
  -7  -1   4  238.28   35.60 
  -7  -1   4  202.98   25.10 
  -1   7   4  252.27   29.20 
  -7   1  -4  214.08   25.20 
   1   7  -4  223.38   31.50 
  -7   1  -4  220.98   23.70 
  -7   1  -4  210.28   23.70 
   7  -1  -4  213.38   39.40 
   1   7  -4  211.48   27.10 
   1   7  -4  197.68   30.00 
  -1  -7  -4  239.58   26.40 
  -7   1  -4  194.48   24.80 
   7  -1  -4  172.78   25.40 
  -7   1  -4  203.48   33.10 
  -1  -7   4  250.97   25.60 
   1   7   4  248.68   30.30 
   7  -1   4  191.78   24.90 
  -7   1   4  242.18   26.30 
   7  -1   4  204.78   23.70 
   1   7   4  182.68   28.90 
  -7   1   4  192.48   27.40 
   1   7   4  217.58   35.60 
  -1  -7   4  220.38   25.80 
  -7   1   4  191.98   25.20 
  -7   3  -4  453.35   53.39 
   3   7  -4  394.36   51.99 
  -3  -7  -4  471.95   48.90 
   3   7  -4  398.66   53.09 
   3   7  -4  422.06   50.49 
  -7   3  -4  487.75   51.19 
  -7   3  -4  400.46   49.50 
  -3  -7   4  456.15   48.80 
   3   7   4  384.46   51.09 
  -7   3   4  481.95   49.30 
   7  -3   4  402.16   44.70 
   3   7   4  384.96   52.59 
   7  -3   4  402.36   44.50 
  -3  -7   4  469.15   46.50 
   7  -3   4  438.16   48.80 
  -7   3   4  432.06   48.50 
   5   7  -4    3.10   11.70 
   7  -5  -4   15.30   29.20 
  -7   5  -4   17.20   12.10 
  -7   5  -4   10.80   12.10 
  -7   5  -4   14.70    5.80 
  -5  -7  -4    4.90    7.00 
   5   7  -4   -8.90   10.50 
  -5  -7  -4   15.50    4.20 
  -5  -7  -4   34.10   22.30 
   7  -5  -4   12.60    7.80 
  -5  -7  -4   19.20   21.60 
  -7   5   4    8.50    8.30 
   7  -5   4   30.70    5.40 
   5   7   4   24.80   18.20 
   7  -5   4    6.60    8.90 
   7  -5   4   14.10    3.80 
   5   7   4    6.30   11.10 
  -7   5   4   12.10    9.30 
   5   7   4   15.30    9.80 
   5   7   4  -12.80   12.60 
  -5  -7   4   38.40   27.30 
  -5  -7   4    9.80    9.00 
   7  -7  -4   76.49   14.20 
   7  -7  -4   50.69   14.60 
   7   7  -4   60.09   21.40 
   7   7  -4   74.99   20.10 
   7  -7  -4  101.59   22.10 
   7   7  -4   57.99   19.10 
  -7  -7  -4   46.70   14.70 
   7  -7   4   66.29   10.80 
   7   7   4   90.29   25.70 
   7  -7   4   81.09   11.70 
   7   7   4   80.49   12.50 
  -7   7   4   77.09   17.30 
   7   7   4  118.49   23.90 
  -7  -7   4  105.79   41.20 
   7  -7   4  110.99   20.80 
   6  -8  -4   39.70   11.30 
  -6   8  -4   78.29   20.80 
  -8  -6  -4   56.79   13.90 
  -6   8  -4   -1.40   10.40 
   8   6  -4   44.50   17.10 
  -6   8  -4   52.69   22.00 
   6  -8  -4   84.79   30.00 
   8   6  -4   16.40   15.90 
   6  -8  -4   15.00   12.20 
  -8  -6  -4   61.39   29.80 
   6  -8   4   32.00    7.90 
   6  -8   4   28.10    7.70 
   8   6   4   55.79   17.90 
   6  -8   4   39.70   16.70 
  -8  -6   4   27.60   11.40 
   8   6   4   13.30   17.50 
  -8  -6   4   68.09   33.20 
  -8  -6   4    9.90    9.20 
   4  -8  -4  680.03   82.29 
   8   4  -4  756.52   83.59 
  -8  -4  -4  774.62   82.79 
  -8  -4  -4  831.52   80.29 
   8   4  -4  724.43   86.19 
  -8  -4  -4  651.43   91.89 
   8   4   4  778.72   81.59 
  -4   8   4  753.62   84.29 
   8   4   4  760.62   91.99 
   8   4   4  728.93   82.89 
  -8  -4   4  690.83   80.29 
   4  -8   4  694.43   79.09 
  -8  -4   4  858.11   81.09 
   8   2  -4  677.23   82.39 
   8   2  -4  678.23   84.09 
   8   2  -4  753.12   88.39 
  -2   8  -4  746.03   84.29 
  -8  -2  -4  703.93   93.79 
   2  -8  -4  611.34   83.79 
  -8  -2  -4  775.42   84.19 
  -8  -2  -4  821.02   81.49 
  -2   8  -4  867.21  100.79 
  -2   8  -4  707.23   88.59 
   2  -8   4  874.31   82.09 
  -8  -2   4  823.42   81.99 
  -8  -2   4  905.61   83.39 
   8   2   4  753.92   83.39 
  -8  -2   4  740.33   82.39 
  -2   8   4  764.02   86.39 
   8   2   4  882.01   85.79 
  -8   0  -4   77.19   25.30 
   0   8  -4   39.50   18.70 
   0   8  -4   83.19   21.10 
   0   8  -4   39.60   13.80 
   8   0  -4   92.59   34.60 
  -8   0  -4   79.89   11.70 
   8   0  -4   48.10   13.00 
   8   0  -4  109.59   21.40 
  -8   0  -4   84.69   11.80 
   0  -8  -4  179.48   43.50 
  -8   0  -4   95.69   15.40 
   0  -8  -4   74.39   13.60 
  -8   0   4   53.29   12.50 
   8   0   4   93.59   24.80 
   0  -8   4   80.39   13.60 
  -8   0   4  142.19   27.60 
   8   0   4   71.59   12.30 
   0   8   4   72.99   19.80 
   8   0   4   60.49   11.60 
   0  -8   4  191.28   41.70 
  -8   0   4   71.09   15.80 
   0   8   4   41.00   15.20 
   0  -8   4   82.49   13.80 
  -8   0   4   81.79   13.90 
  -8   2  -4  898.91   93.19 
   2   8  -4  687.53   89.99 
  -8   2  -4  878.31   83.69 
  -2  -8  -4  905.41   85.09 
   2   8  -4  719.03   89.69 
  -8   2  -4  713.33   82.59 
  -8   2  -4  816.12   84.09 
   2   8  -4  743.23   86.79 
  -8   2  -4  715.63   81.59 
   2   8   4  732.93   88.19 
   8  -2   4  825.52   84.79 
  -8   2   4  872.01   85.19 
   2   8   4  779.52   89.69 
  -2  -8   4  717.33   84.09 
   8  -2   4  747.93   81.59 
  -8   2   4  810.82   84.69 
   4   8  -4  801.52   93.59 
  -4  -8  -4  865.51   88.99 
   4   8  -4  734.03   91.19 
  -8   4  -4 1008.70   93.29 
  -4  -8  -4  818.42   85.39 
   8  -4  -4  693.83   87.79 
   4   8  -4  682.53   93.49 
   4   8   4  721.23   91.69 
   8  -4   4  805.52   89.89 
   4   8   4 1024.60   97.29 
  -4  -8   4  812.72   88.79 
  -4  -8   4  855.51   85.89 
   4   8   4  844.32   91.49 
  -8   4   4  895.61   90.09 
  -8   4   4  829.72   89.09 
   8  -4   4  777.72   84.19 
   4   8   4  851.11   95.29 
   6   8  -4   32.00   17.60 
   8  -6  -4   37.30   11.50 
   8  -6  -4   45.00   10.70 
   8  -6  -4   50.59   16.00 
  -6  -8  -4   67.29   34.60 
   6   8  -4    4.90   16.20 
  -6  -8  -4   61.89   33.80 
  -6  -8  -4   36.40   12.70 
   6   8  -4    9.00   16.40 
  -8   6  -4   45.70   44.80 
   6   8   4   40.10   26.20 
  -8   6   4   18.60   11.50 
  -8   6   4   57.09   26.90 
  -6  -8   4  103.89   44.50 
   6   8   4   27.20   13.40 
   8  -6   4   28.10   12.90 
  -6  -8   4   38.00   12.30 
   6   8   4   49.50   18.00 
   6   8   4   32.40   20.40 
   8  -6   4   40.70    6.60 
   8  -6   4   23.20    5.90 
   8  -8  -4  205.98   33.50 
   8   8  -4  133.39   32.40 
  -8  -8  -4  118.89   25.70 
   8   8  -4  176.08   36.10 
   8   8  -4  228.58   35.10 
   8   8   4  177.08   35.40 
   8   8   4  167.68   38.00 
   8  -8   4  146.89   20.80 
  -8  -8   4  154.88   26.50 
  -8  -8   4  256.17   59.29 
   8  -8   4  144.79   29.30 
  -8   8   4   92.19   26.50 
  -9  -7  -4  193.28   30.00 
   9   7  -4  286.57   37.60 
  -9  -7  -4  264.27   55.79 
   9   7  -4  200.38   41.20 
   7  -9  -4  130.09   28.10 
   9   7   4  195.58   37.90 
  -9  -7   4  176.48   30.30 
   7  -9   4  138.79   21.80 
  -7   9   4  157.08   31.30 
  -5   9  -4  342.47   52.99 
  -9  -5  -4  268.67   32.70 
   5  -9  -4  173.38   33.50 
   9   5  -4  332.87   41.40 
   5  -9  -4  325.87   33.80 
  -5   9  -4  146.59   32.90 
   9   5  -4  384.86   42.00 
  -9  -5  -4  309.07   54.79 
   9   5   4  218.88   34.00 
  -9  -5   4  261.47   32.80 
  -9  -5   4  215.68   31.10 
   9   5   4  309.57   39.20 
   9   5   4  247.68   54.49 
   5  -9   4  182.88   29.40 
  -5   9   4  248.88   37.30 
   3  -9  -4   76.39   14.90 
  -3   9  -4   91.59   23.30 
   3  -9  -4   64.29   17.00 
   9   3  -4   56.69   16.00 
  -9  -3  -4   89.59   20.40 
   9   3  -4   56.19   17.20 
  -9  -3  -4   83.39   14.70 
  -9  -3  -4   77.19   28.70 
   9   3  -4   62.99   20.00 
  -3   9  -4  121.69   20.10 
  -3   9   4  111.89   22.70 
   9   3   4   56.59   17.00 
  -9  -3   4  158.88   37.00 
   9   3   4   92.79   17.90 
   3  -9   4   76.89   12.80 
   3  -9   4  118.49   18.60 
  -9  -3   4   74.19   14.70 
   9   3   4   67.79   14.80 
  -9  -3   4   85.39   15.20 
  -9  -1  -4  398.66   44.20 
   9   1  -4  361.06   47.80 
  -9  -1  -4  407.36   44.30 
  -1   9  -4  321.77   60.29 
   9   1  -4  475.75   54.19 
   9   1  -4  326.57   44.50 
  -9  -1  -4  355.96   58.59 
  -1   9  -4  388.76   54.79 
   1  -9  -4  462.05   46.70 
  -9  -1  -4  383.76   47.10 
  -9  -1   4  423.36   46.30 
   1  -9   4  477.35   45.80 
   9   1   4  376.36   46.10 
  -9  -1   4  340.67   45.40 
  -1   9   4  374.46   50.99 
   1  -9   4  477.35   46.50 
  -1  -9  -4  430.76   47.40 
   1   9  -4  398.06   56.39 
  -9   1  -4  488.55   45.70 
  -9   1  -4  426.26   45.20 
   9  -1  -4  556.74   66.79 
  -9   1  -4  355.36   46.70 
   1   9  -4  320.37   49.70 
  -9   1  -4  538.65   62.09 
  -9   1  -4  368.66   44.80 
   1   9  -4  425.46   56.69 
  -9   1   4  435.96   49.60 
   1   9   4  385.16   52.59 
  -9   1   4  417.56   47.40 
   9  -1   4  361.76   46.10 
   1   9   4  383.46   52.79 
  -1  -9   4  428.26   46.90 
  -1  -9   4  392.26   45.80 
  -9   1   4  431.66   47.80 
   9  -1   4  371.76   45.10 
   3   9  -4   79.19   20.30 
   3   9  -4  105.79   26.30 
   9  -3  -4   98.39   19.70 
  -9   3  -4  131.39   27.40 
  -9   3  -4   66.89   12.10 
   3   9  -4   84.19   25.30 
  -3  -9  -4  198.78   43.30 
  -3  -9  -4   86.69   13.60 
   9  -3  -4   86.79   16.70 
   9  -3   4   99.49   18.00 
  -3  -9   4   71.69   15.70 
   9  -3   4   78.89   11.90 
  -3  -9   4   81.59   14.00 
  -9   3   4   96.29   18.00 
   3   9   4   83.99   22.90 
  -9   3   4   87.19   16.60 
  -5  -9  -4  289.87   31.10 
   9  -5  -4  343.87   40.00 
  -5  -9  -4  317.27   36.80 
   9  -5  -4  217.28   35.40 
   5   9  -4  355.26   44.00 
   5   9  -4  235.78   46.80 
   5   9  -4  268.17   46.00 
  -5  -9   4  243.68   36.50 
   5   9   4  287.87   43.10 
   9  -5   4  302.97   38.90 
   5   9   4  357.46   52.79 
  -9   5   4  258.47   39.40 
   5   9   4  272.17   42.30 
  -9   7  -4  155.38   24.60 
   7   9  -4  265.47   40.50 
   7   9  -4  202.38   37.40 
   9  -7  -4  111.49   26.50 
   7   9  -4  152.08   36.60 
   9  -7  -4  288.87   35.70 
  -7  -9  -4  166.98   29.30 
   7   9   4  220.98   30.10 
   9  -7   4  235.78   35.50 
  -9   7   4  175.98   30.70 
  -7  -9   4  194.88   30.90 
   7   9   4  272.47   42.00 
   7   9   4  201.28   40.60 
  -9   9  -4   30.50   15.10 
   9   9  -4   13.60   33.30 
  -9  -9  -4   87.89   42.70 
   9  -9  -4   66.09   23.00 
   9   9  -4  106.49   33.30 
  -9   9   4   78.99   24.50 
   9   9   4  107.59   37.90 
  -9  -9   4   76.39   43.30 
   9  -9   4   51.49   21.90 
  10   8  -4  299.87   43.30 
 -10  -8  -4  188.58   55.79 
  10   8   4  164.68   45.50 
  -8  10   4  129.09   34.10 
 -10  -8   4  229.28   61.09 
 -10  -8   4  146.79   30.40 
 -10  -6  -4   10.80   29.00 
  10   6  -4   14.40   24.10 
   6 -10  -4    1.10   15.80 
   6 -10  -4   20.80   15.10 
  -6  10  -4   10.60   12.80 
 -10  -6  -4    0.60   13.80 
  10   6  -4   34.40   22.00 
 -10  -6   4   30.70   13.30 
  10   6   4   25.20   18.80 
   6 -10   4    5.80    8.50 
 -10  -6   4  -12.30    9.50 
 -10  -6   4   24.70   34.40 
   6 -10   4   24.00   14.70 
  -6  10   4   -1.40   17.80 
  10   4  -4  271.07   36.60 
   4 -10  -4  271.17   32.20 
  10   4  -4  222.38   34.60 
  10   4  -4  155.28   30.60 
 -10  -4  -4  107.49   32.30 
   4 -10  -4  173.28   29.30 
  -4  10   4  217.78   36.50 
   4 -10   4  169.68   25.40 
 -10  -4   4  304.37   54.89 
 -10  -4   4  198.38   27.50 
  10   4   4  156.78   30.80 
  10   4   4  130.79   26.20 
 -10  -4   4  168.58   25.30 
  10   2  -4  499.15   53.89 
   2 -10  -4  357.76   47.30 
   2 -10  -4  436.86   47.10 
 -10  -2  -4  396.86   43.70 
 -10  -2  -4  345.17   42.80 
  -2  10  -4  309.47   58.99 
  -2  10  -4  334.87   64.99 
 -10  -2  -4  414.76   62.89 
  10   2  -4  349.17   41.00 
  10   2  -4  291.37   47.80 
 -10  -2  -4  349.37   48.70 
   2 -10   4  460.05   45.70 
  10   2   4  391.66   47.40 
 -10  -2   4  363.36   44.30 
 -10  -2   4  415.46   45.60 
  -2  10   4  344.67   51.29 
   0  10  -4   91.19   34.30 
 -10   0  -4   47.90   16.70 
   0 -10  -4  167.38   44.70 
  10   0  -4   80.99   17.70 
  10   0  -4  129.69   27.90 
   0 -10  -4  107.09   17.50 
 -10   0  -4   95.29   14.90 
   0  10  -4   63.99   22.30 
   0 -10  -4  279.37   94.59 
   0 -10  -4  113.59   17.90 
 -10   0  -4   66.19   13.50 
 -10   0  -4  113.39   34.90 
  10   0  -4  114.69   52.19 
  10   0   4   57.09   14.90 
 -10   0   4   97.59   17.10 
   0 -10   4   94.59   15.30 
  10   0   4   79.49   14.60 
   0 -10   4   78.49   15.10 
  10  -2  -4  374.06   48.30 
   2  10  -4  394.26   50.69 
   2  10  -4  390.86   61.59 
  10  -2  -4  331.77   45.10 
   2  10  -4  364.66   54.69 
 -10   2  -4  306.37   39.90 
 -10   2  -4  478.95   58.19 
 -10   2  -4  348.47   40.40 
  10  -2  -4  281.47   43.70 
   2  10   4  313.47   50.99 
 -10   2   4  432.86   49.99 
  10  -2   4  353.06   41.10 
  -2 -10   4  386.96   41.70 
  -2 -10   4  413.56   44.10 
  10  -2   4  396.76   44.40 
 -10   2   4  399.36   45.60 
  10  -4  -4  240.88   34.90 
   4  10  -4  178.18   39.20 
  -4 -10  -4  230.68   25.80 
   4  10  -4  295.77   58.89 
  -4 -10  -4  235.48   30.40 
   4  10  -4  220.18   46.10 
   4  10   4  179.78   42.80 
   4  10   4  248.98   40.40 
  -4 -10   4  205.38   25.90 
 -10   4   4  239.78   31.30 
  10  -4   4  218.38   32.30 
  -4 -10   4  167.08   31.20 
   4  10   4  171.88   35.30 
  10  -6  -4    3.50   14.10 
  10  -6  -4    2.30   14.60 
   6  10  -4   19.50   40.80 
 -10   6  -4    4.00   23.00 
  -6 -10  -4   -8.10   31.40 
 -10   6  -4    0.30    4.80 
  -6 -10  -4    5.20    5.10 
   6  10  -4   22.20   28.10 
 -10   6  -4   -1.90    6.20 
  -6 -10  -4   11.30   12.90 
   6  10   4   10.70   21.60 
  -6 -10   4   10.20   16.50 
   6  10   4   16.80   24.70 
   6  10   4    9.90   26.30 
 -10   6   4   17.90   15.10 
  -6 -10   4   11.80   34.20 
  10  -6   4   10.50   13.80 
   8  10  -4  168.88   49.90 
   8  10  -4  105.49   43.80 
  10  -8  -4  228.28   36.90 
   8  10   4  147.89   47.70 
 -10   8   4  132.09   31.10 
  10  -8   4  170.88   34.90 
   7 -11  -4   -5.60   15.80 
  -7  11  -4   14.90   13.30 
 -11  -7  -4   -0.30   33.90 
  11   7  -4   -9.10   28.90 
  11   7   4   27.90   30.60 
 -11  -7   4   16.60   15.50 
 -11  -7   4  -18.30   40.10 
   7 -11   4   12.60   16.90 
  -5  11  -4    1.40   16.50 
  11   5  -4   51.39   26.00 
   5 -11  -4   46.10   17.70 
   5 -11   4   18.00   12.40 
   5 -11   4   12.20   13.90 
  -5  11   4   22.10   24.20 
 -11  -5   4   30.20   35.40 
 -11  -5   4   16.00   11.30 
 -11  -3  -4  151.08   24.00 
 -11  -3  -4  173.98   25.60 
   3 -11  -4  259.67   29.60 
  11   3  -4  243.28   37.20 
  11   3  -4  105.39   29.10 
  -3  11  -4   69.09   30.80 
  11   3   4  162.68   30.40 
 -11  -3   4  143.39   26.20 
 -11  -1  -4    0.00   28.00 
   1 -11  -4   40.50   33.10 
 -11  -1  -4    5.20   17.90 
  -1  11  -4   24.00   32.80 
   1 -11  -4    8.30   12.90 
  11   1  -4  -17.00   14.80 
  11   1  -4   24.20   26.00 
   1 -11  -4    3.20    9.90 
 -11  -1  -4   -8.20    9.40 
  -1  11  -4   21.80   22.50 
  11   1  -4    7.80   10.50 
   1 -11  -4   -5.10   10.10 
  11   1   4    5.70   13.10 
 -11  -1   4    6.80    9.30 
  -1  11   4    5.10   17.40 
   1 -11   4    3.10    7.70 
 -11  -1   4    3.40   11.80 
 -11  -1   4   15.00   23.60 
  -1 -11  -4    9.20   27.90 
   1  11  -4    4.70   24.60 
  11  -1  -4   -7.40   13.30 
 -11   1  -4    7.70   26.60 
  -1 -11  -4    6.00    8.50 
 -11   1  -4    5.70    8.20 
 -11   1  -4   -1.60    7.80 
  11  -1  -4   -3.50   13.50 
 -11   1  -4   15.10   13.80 
   1  11  -4    4.60   27.10 
 -11   1   4  -17.90   12.00 
 -11   1   4    5.40    8.80 
  11  -1   4   11.00   10.80 
  -1 -11   4   -0.10    7.20 
   1  11   4   13.90   19.60 
   3  11  -4  180.68   42.00 
 -11   3  -4  113.89   20.50 
  11  -3  -4  168.58   30.00 
  -3 -11  -4  189.08   27.40 
  11  -3  -4  138.09   27.70 
  -3 -11  -4  208.78   23.40 
 -11   3  -4  239.18   35.70 
  -3 -11   4  178.78   23.00 
 -11   3   4  210.38   30.90 
   3  11   4  250.07   49.50 
  11  -3   4  163.48   27.60 
   3  11   4  173.08   36.50 
 -11   3   4  130.49   25.60 
  -3 -11   4  540.05  134.69 
  11  -5  -4   23.70   18.20 
  -5 -11  -4   17.30   13.60 
   5  11  -4   30.80   33.30 
 -11   5  -4    7.60    4.60 
  -5 -11  -4   52.29   36.60 
   5  11  -4   65.89   34.00 
   5  11   4   52.79   29.20 
 -11   5   4   28.50   15.20 
  11  -5   4   26.70   17.60 
  -5 -11   4   39.70   40.30 
   5  11   4    6.70   27.80 
   7  11  -4   67.89   37.90 
  -7 -11  -4   35.20   35.50 
  11  -7  -4   -3.70   21.20 
   7  11  -4    3.20   38.90 
  11  -7   4   -0.20   20.20 
 -11   7   4    3.70   17.50 
  -7 -11   4    0.70   39.90 
   7  11   4  -14.60   41.70 
 -12  -4  -4   -4.90   11.40 
  -4  12  -4   23.20   41.70 
  12   4  -4   65.69   31.50 
   4 -12  -4    6.80   15.00 
  -4  12  -4   -6.30   20.90 
 -12  -4   4   18.10   34.30 
  -4  12   4  -15.20   25.10 
   4 -12   4    6.70   14.60 
 -12  -4   4    3.00   11.50 
  -2  12  -4   -2.50   26.90 
   2 -12  -4   45.60   35.40 
  12   2  -4  -22.90   30.20 
   2 -12  -4    9.40   14.50 
  -2  12  -4   -7.10   35.90 
 -12  -2   4   15.10   11.20 
   2 -12   4   15.30   11.20 
  -2  12   4   44.50   25.10 
 -12  -2   4   -0.50   30.40 
  12   0  -4  503.85   55.89 
 -12   0  -4  405.86   53.29 
   0  12  -4  478.55   79.69 
   0  12  -4  451.35   75.79 
   0  12   4  462.75   70.89 
  12   0   4  544.55   59.79 
 -12   2  -4   18.60   51.49 
  12  -2  -4  -30.40   16.40 
 -12   2  -4    3.00    8.40 
  -2 -12  -4    9.20   13.20 
   2  12  -4   -0.20   35.80 
  -2 -12  -4    2.60   32.50 
   2  12  -4  -12.30   30.80 
  -2 -12  -4   18.30   10.30 
 -12   2  -4    7.30    8.30 
  12  -2   4   27.20   12.90 
   2  12   4   63.29   27.10 
   2  12   4   36.00   29.50 
  12  -2   4   -9.10   14.20 
 -12   2   4   18.50   12.80 
  -2 -12   4    8.40    9.00 
  12  -4  -4   -9.70   18.40 
 -12   4  -4    1.90    4.90 
   4  12  -4   -9.90   36.90 
   4  12  -4   49.30   40.70 
  -4 -12  -4  -18.00   32.10 
  -4 -12  -4   -1.50   13.90 
  -4 -12  -4   -0.40    8.50 
   4  12   4   44.00   35.60 
   4  12   4  -27.40   27.90 
  12  -4   4    0.90   17.00 
  -4 -12   4   -7.40    8.60 
 -12   4   4    5.90   13.90 
   4  12   4  -12.30   28.60 
  -4 -12   4   40.10   44.90 
 -13  -1  -4    2.80   11.80 
  -1  13  -4  -35.10   46.20 
   1 -13  -4   12.40   12.60 
   1 -13  -4  -24.70   37.70 
 -13  -1   4    6.10   13.20 
   1 -13   4   -9.50    9.10 
  -1  13   4  -11.70   27.30 
  -1 -13  -4    5.90   37.80 
  13  -1  -4  -13.60   19.20 
   1  13  -4   50.09   44.10 
  -1 -13  -4    9.10   12.20 
 -13   1  -4   15.70   10.00 
   1  13  -4   -7.90   40.20 
  -1 -13   4    8.00    9.90 
   1  13   4   -5.60   35.40 
  13  -1   4   -0.40   15.00 
  -1   0  -5    1.20    1.30 
  -1   0  -5    4.30    2.00 
   0   1  -5    1.40    1.40 
   0  -1  -5    1.60    2.00 
   1   0  -5    5.00    4.90 
   0   1  -5    1.10    1.90 
   0  -1  -5    3.60    2.40 
   0   1  -5    0.70    3.60 
  -1   0  -5   -0.60    4.20 
   0  -1  -5    0.50    2.50 
  -1   0  -5    0.70    2.00 
   0   1  -5    0.50    2.20 
   1   0  -5    1.40    2.30 
   0  -1  -5    2.50    4.10 
   1   0  -5    0.80    1.80 
   0  -1  -5    0.40    4.20 
   0  -1   5   -0.60    1.20 
  -1   0   5   -2.10    2.20 
   0   1   5   -1.10    4.30 
  -1   0   5    1.30    1.90 
   0  -1   5    2.50    1.80 
   1   0   5    7.80    2.10 
   0   1   5    0.70    2.90 
   1   0   5    3.40    4.70 
  -1   0   5   -3.10    3.60 
   1   0   5    3.20    2.20 
  -1   0   5   -0.20    1.90 
   1   0   5   -1.20    1.10 
   0   1   5   -0.80    1.70 
   0   1   5    0.50    1.70 
  -1   2  -5 1135.69  114.19 
   1  -2  -5 1090.89  117.49 
  -1   2  -5 1137.19  115.29 
   2   1  -5 1040.60  115.29 
   2   1  -5 1032.40  115.49 
   2   1  -5 1268.87  123.99 
  -2  -1  -5  999.30  118.79 
   2   1  -5 1142.49  115.49 
  -1   2  -5 1124.29  115.49 
  -2  -1  -5  986.30  114.59 
  -2  -1  -5  986.20  114.59 
   1  -2  -5 1052.09  120.39 
   1  -2  -5 1106.49  115.59 
  -2  -1  -5 1003.00  118.39 
   1  -2  -5 1009.60  115.79 
   1  -2  -5 1084.19  115.29 
   2   1  -5 1094.19  118.09 
  -2  -1  -5 1185.98  115.19 
  -2  -1   5 1078.99  115.09 
   2   1   5 1094.59  115.09 
   1  -2   5 1101.69  114.09 
   2   1   5 1241.28  119.99 
  -2  -1   5 1238.38  115.39 
  -1   2   5 1024.90  116.19 
   2   1   5 1162.38  118.99 
   1  -2   5 1160.28  115.09 
  -1   2   5 1210.88  120.89 
  -1   2   5 1211.98  115.59 
   2   1   5 1240.78  114.39 
   1  -2   5 1285.27  115.39 
  -2  -1   5 1148.29  115.19 
  -1   2   5 1154.98  115.39 
   1  -2   5 1173.98  113.89 
  -2   1  -5 1112.49  118.59 
  -2   1  -5 1070.99  113.59 
   1   2  -5 1090.59  115.59 
  -2   1  -5 1167.58  115.19 
   1   2  -5 1198.58  123.89 
  -1  -2  -5 1141.99  115.69 
  -1  -2  -5 1145.39  115.79 
  -2   1  -5 1145.09  113.69 
  -1  -2  -5 1002.30  119.99 
   2  -1  -5 1140.49  115.29 
   1   2  -5 1152.38  115.09 
   1   2  -5 1059.39  114.99 
  -1  -2  -5  951.50  114.69 
  -1  -2  -5 1063.29  114.99 
   2  -1  -5 1142.79  118.99 
   2  -1  -5  993.00  115.79 
  -2   1  -5 1162.08  114.79 
  -1  -2  -5  982.90  118.79 
  -1  -2   5 1201.28  114.99 
  -2   1   5 1103.39  115.99 
  -1  -2   5 1059.19  114.79 
   1   2   5 1188.18  121.29 
   2  -1   5 1158.28  113.69 
   1   2   5 1047.60  115.19 
  -2   1   5 1111.69  115.29 
   1   2   5 1139.09  115.49 
  -2   1   5 1124.39  115.29 
   1   2   5 1178.58  119.59 
   2  -1   5 1270.97  114.99 
  -1  -2   5 1156.88  114.69 
  -1  -2   5 1183.88  115.09 
  -2   1   5 1185.18  118.59 
   2  -1   5 1146.39  114.99 
  -3  -2  -5   23.20    6.20 
  -3  -2  -5   -2.40    7.30 
   3   2  -5    7.70    3.70 
   2  -3  -5    6.40    5.50 
  -3  -2  -5   21.50   10.30 
   2  -3  -5   21.00   11.40 
  -2   3  -5    7.30    4.20 
  -2   3  -5    8.80    2.50 
   3   2  -5   13.80   14.30 
  -2   3  -5   10.00    2.50 
  -3  -2  -5    7.20    2.80 
   2  -3  -5    5.00    4.20 
   2  -3  -5    6.40    4.10 
  -2   3  -5    6.20    4.80 
  -3  -2  -5    5.10    3.30 
   2  -3  -5    6.40    5.40 
   3   2  -5    8.10    4.60 
   3   2   5    8.80   10.10 
   3   2   5    2.90    4.30 
  -2   3   5    2.20    6.00 
   2  -3   5    7.30    2.30 
  -2   3   5    6.00    4.20 
  -3  -2   5    0.60    2.70 
  -2   3   5    6.70    3.80 
   2  -3   5    4.70    2.00 
   3   2   5    6.80    9.10 
  -3  -2   5   12.20    4.10 
   2  -3   5    6.70    1.90 
  -2   3   5   -2.40    9.20 
   2  -3   5    7.90    3.80 
  -3  -2   5    2.60    3.40 
   3   2   5   10.90    2.70 
  -3  -2   5    4.10    3.40 
   3   2   5    3.40    2.80 
   0  -3  -5    0.50    5.40 
   3   0  -5    3.50    4.90 
   0  -3  -5    3.50    3.90 
   0   3  -5    0.10    3.30 
  -3   0  -5    1.10    2.30 
  -3   0  -5   -4.30    4.70 
   0   3  -5    0.80    3.30 
  -3   0  -5    1.80    2.20 
  -3   0  -5    5.20    1.90 
  -3   0  -5    8.40    2.30 
   3   0  -5   -0.10    3.60 
   0   3  -5    1.90    9.30 
   0   3  -5   -0.10    2.70 
   0  -3  -5   -8.20    6.90 
   0  -3  -5    4.40    4.00 
   3   0  -5    8.50   10.40 
   3   0  -5    2.00    2.80 
   0  -3  -5    1.10    3.10 
   0   3  -5   -0.60    1.80 
   3   0  -5    0.20    2.60 
  -3   0  -5    3.00    4.70 
   0  -3  -5   -1.90    2.20 
   0  -3   5   13.90    3.20 
   3   0   5    3.30    4.80 
  -3   0   5    0.20    2.50 
   0   3   5    0.30    5.80 
  -3   0   5    0.10    4.60 
   0   3   5    2.60    3.10 
  -3   0   5   -2.40    2.10 
   0   3   5   16.00   11.70 
   0  -3   5   -0.20    1.90 
  -3   0   5   -0.20    3.60 
   3  -2  -5    2.70    3.70 
  -3   2  -5   13.00    7.50 
  -3   2  -5    9.70    4.60 
   3  -2  -5    9.80    5.90 
  -2  -3  -5    4.00    7.10 
   3  -2  -5   14.50    9.50 
  -2  -3  -5   12.10    5.20 
   2   3  -5    7.70    4.10 
   2   3  -5    7.40    4.70 
   2   3  -5    5.00    3.40 
  -2  -3  -5    7.70    9.00 
  -3   2  -5   13.70    4.60 
  -2  -3  -5   10.00    3.90 
   3  -2  -5    2.60    3.20 
   2   3  -5    5.00   11.10 
   2   3  -5    7.00    3.80 
  -3   2   5    8.10    4.00 
   2   3   5    8.10    3.70 
  -3   2   5    7.10    3.60 
   2   3   5    7.80    4.80 
   2   3   5    4.20   12.20 
   2   3   5   10.10    5.30 
   3  -2   5    6.80    3.30 
  -3   2   5   12.20    7.60 
  -2  -3   5   10.50    4.10 
   2   3   5    6.10   10.30 
  -2  -3   5    9.80    3.70 
  -2  -3   5    2.10    2.60 
  -2  -3   5    6.70    3.40 
  -3   4  -5    1.60    2.40 
  -3   4  -5    9.50    8.00 
   4   3  -5    8.10    5.20 
   4   3  -5    2.80    3.30 
  -3   4  -5    0.00    3.30 
   4   3  -5    2.70   20.20 
  -4  -3  -5   10.60   11.10 
   3  -4  -5    0.80    4.30 
   3  -4  -5    8.10   11.80 
   3  -4  -5    7.00    7.60 
   3  -4  -5    7.50    7.00 
  -3   4  -5   -6.70    5.40 
  -4  -3  -5    2.90    3.60 
  -4  -3  -5   11.10    6.80 
  -4  -3  -5    0.60   10.50 
   3  -4  -5    4.40    5.30 
   4   3  -5    1.60    4.40 
  -4  -3   5   12.20   12.90 
   3  -4   5    5.90    2.60 
   4   3   5    7.70    4.50 
   3  -4   5    2.80    4.10 
   4   3   5    5.10   13.10 
  -4  -3   5    1.00    3.50 
   4   3   5    6.90    2.10 
   4   3   5    1.60    4.90 
  -4  -3   5    7.70    4.80 
  -4  -3   5    4.00    3.70 
  -3   4   5   -1.10   12.60 
   3  -4   5    5.90    2.00 
  -4  -3   5    4.60    4.30 
   4   3   5    2.90   13.40 
  -3   4   5    1.20    8.30 
  -3   4   5    2.40    3.80 
   1  -4  -5  817.22   83.99 
  -4  -1  -5  560.24   76.39 
   1  -4  -5  620.84   76.09 
  -1   4  -5  730.33   73.99 
   4   1  -5  631.94   72.49 
  -4  -1  -5  676.83   70.59 
   1  -4  -5  705.33   74.89 
  -4  -1  -5  688.93   71.89 
   1  -4  -5  703.03   71.89 
  -1   4  -5  604.94   71.79 
   1  -4  -5  706.23   72.59 
  -1   4  -5  687.13   71.59 
  -4  -1  -5  623.04   74.89 
   4   1  -5  666.73   73.99 
  -1   4  -5  693.23   80.59 
   4   1  -5  690.73   82.69 
  -1   4  -5  588.34   70.69 
  -4  -1  -5  716.03   70.69 
   4   1   5  662.33   70.59 
   1  -4   5  712.43   70.59 
  -4  -1   5  690.53   71.79 
  -1   4   5  617.74   73.89 
   4   1   5  756.22   78.59 
  -1   4   5  793.92   84.49 
  -4  -1   5  747.63   71.89 
  -4  -1   5  689.23   71.79 
   1  -4   5  717.73   71.69 
  -1   4   5  651.43   72.19 
   4   1   5  586.84   70.79 
   4   1   5  702.83   74.79 
  -4  -1   5  756.12   71.99 
   1  -4   5  732.83   70.49 
   1   4  -5  613.94   73.29 
  -1  -4  -5  630.94   79.39 
   4  -1  -5  729.93   79.69 
   4  -1  -5  669.23   73.19 
  -1  -4  -5  775.02   74.49 
   1   4  -5  590.54   72.39 
  -1  -4  -5  675.53   73.09 
   4  -1  -5  650.73   74.29 
   1   4  -5  679.53   74.29 
  -1  -4  -5  763.82   84.19 
  -4   1  -5  714.43   70.69 
   1   4  -5  717.33   73.19 
  -4   1  -5  629.24   72.39 
   4  -1  -5  787.82   73.69 
  -4   1  -5  715.33   72.09 
   4  -1  -5  618.84   75.89 
  -4   1  -5  659.23   76.69 
   1   4  -5  648.54   83.89 
  -4   1  -5  665.53   75.59 
   4  -1   5  695.63   72.49 
  -1  -4   5  703.13   72.09 
  -4   1   5  711.63   73.09 
   1   4   5  645.84   73.49 
  -4   1   5  772.02   75.39 
   1   4   5  645.24   74.59 
   1   4   5  679.73   74.29 
  -1  -4   5  740.63   72.39 
  -4   1   5  685.53   73.89 
   1   4   5  734.93   80.19 
  -4   1   5  758.82   73.39 
  -1  -4   5  768.12   72.69 
   1   4   5  779.82   86.99 
   3   4  -5    3.10    4.60 
   4  -3  -5   11.80   12.10 
  -3  -4  -5    6.70   12.10 
   4  -3  -5   -0.90    7.00 
  -3  -4  -5    9.10   11.20 
   3   4  -5   -1.90    5.00 
  -3  -4  -5    7.10    4.50 
  -3  -4  -5   12.10    6.90 
   4  -3  -5   -9.90    4.70 
   4  -3  -5    1.70    4.50 
   3   4  -5    0.20    3.60 
   4  -3  -5    6.80    4.40 
   3   4  -5   -6.80   19.60 
  -4   3  -5   -1.00    5.30 
  -4   3  -5   24.20   10.70 
   3   4  -5    6.30    4.80 
  -4   3   5    2.20    3.50 
  -4   3   5    8.00    4.30 
  -3  -4   5   -5.50   11.20 
  -4   3   5    3.90    9.10 
   3   4   5   11.60    6.50 
   3   4   5   -5.60    5.10 
   4  -3   5    5.60    4.10 
   3   4   5    0.70   19.40 
   3   4   5   10.90    5.90 
  -4   3   5    9.40    8.40 
  -3  -4   5    3.50    3.70 
  -3  -4   5    1.20    3.20 
   3   4   5   12.30   15.70 
  -4   5  -5  581.24   59.39 
   5   4  -5  398.56   47.60 
   5   4  -5  368.36   50.49 
   5   4  -5  389.96   50.59 
  -5  -4  -5  488.85   51.69 
  -5  -4  -5  464.65   47.50 
  -5  -4  -5  575.34   61.19 
   4  -5  -5  419.86   50.49 
  -5  -4  -5  369.86   58.39 
  -5  -4  -5  505.15   50.69 
  -4   5  -5  403.86   48.90 
   4  -5   5  439.16   47.00 
   4  -5   5  490.65   51.09 
  -5  -4   5  441.56   49.70 
  -5  -4   5  491.75   49.99 
   4  -5   5  474.85   47.30 
   4  -5   5  473.85   47.40 
   5   4   5  465.05   51.89 
  -4   5   5  442.16   50.29 
  -5  -4   5  467.55   49.10 
   5   2  -5  615.44   73.09 
  -2   5  -5  608.84   71.39 
  -5  -2  -5  599.54   76.99 
  -2   5  -5  682.73   81.79 
  -5  -2  -5  693.13   70.49 
   5   2  -5  610.94   74.39 
   2  -5  -5  673.03   73.09 
   5   2  -5  624.64   72.79 
  -2   5  -5  664.33   72.69 
  -5  -2  -5  738.83   71.49 
  -2   5  -5  667.13   76.99 
   2  -5  -5  712.33   77.79 
   2  -5  -5  581.34   72.99 
   2  -5  -5  658.13   72.19 
  -5  -2  -5  708.43   73.29 
  -5  -2  -5  533.55   78.29 
   5   2   5  695.73   71.79 
  -5  -2   5  624.74   71.99 
  -5  -2   5  763.52   72.49 
  -2   5   5  698.33   73.09 
  -5  -2   5  704.33   73.69 
  -2   5   5  653.13   75.29 
   5   2   5  683.73   76.69 
   5   2   5  735.43   83.19 
  -2   5   5  807.92   76.09 
   2  -5   5  708.93   72.79 
  -5  -2   5  761.82   72.69 
   2  -5   5  717.83   70.89 
   2  -5   5  781.02   70.99 
   5   0  -5    3.10    3.80 
   5   0  -5    4.30    5.50 
   0  -5  -5   -1.70    3.10 
  -5   0  -5    8.30    6.60 
   0   5  -5    0.50    3.30 
  -5   0  -5    0.20    1.70 
  -5   0  -5    5.30    4.20 
   0   5  -5   -6.90    4.80 
   0  -5  -5   -4.70    5.80 
   0   5  -5   -6.90    5.80 
  -5   0  -5    1.10    4.20 
   5   0  -5   -1.90    6.10 
   0  -5  -5    7.90   12.80 
   5   0  -5    1.00    7.10 
   0  -5  -5   -2.40   10.70 
   0   5  -5    0.20    4.30 
  -5   0  -5    0.10    8.30 
   5   0  -5  -17.70   14.60 
  -5   0   5    3.90    3.80 
  -5   0   5    4.40    6.20 
   0   5   5  -18.20   18.40 
   0  -5   5   15.70    5.00 
   0   5   5    2.50   10.00 
   5   0   5    2.20    2.30 
   0   5   5   -7.70    4.40 
   0  -5   5    1.40    2.80 
   0  -5   5    0.60    3.20 
   0   5   5    6.10   10.30 
   5   0   5    0.00    1.90 
  -5   0   5    7.20    4.20 
   5   0   5    7.40    3.60 
   2   5  -5  686.03   73.89 
   5  -2  -5  815.32   80.29 
  -5   2  -5  670.63   75.89 
  -2  -5  -5  666.03   81.49 
  -5   2  -5  547.25   71.39 
   5  -2  -5  699.63   72.29 
   2   5  -5  606.84   71.19 
   5  -2  -5  637.84   71.99 
   2   5  -5  653.03   88.69 
   5  -2  -5  594.14   75.69 
  -2  -5  -5  718.43   73.49 
  -5   2  -5  654.33   74.99 
   2   5  -5  682.43   72.69 
  -2  -5  -5  688.53   72.19 
   2   5   5  734.43   84.29 
   2   5   5  623.24   73.99 
  -5   2   5  717.93   72.29 
   2   5   5  610.84   73.49 
  -2  -5   5  757.92   71.99 
  -5   2   5  732.63   73.89 
   2   5   5  609.44   73.89 
  -2  -5   5  734.93   71.29 
   2   5   5  740.13   94.79 
   5  -2   5  663.83   71.69 
  -2  -5   5  756.62   70.89 
  -5   2   5  670.43   73.09 
   4   5  -5  378.66   50.49 
   5  -4  -5  384.76   48.80 
  -4  -5  -5  461.15   49.90 
  -4  -5  -5  457.25   60.89 
  -4  -5  -5  521.95   51.19 
   4   5  -5  444.16   50.69 
   5  -4  -5  407.46   49.20 
   4   5  -5  415.26   47.80 
   5  -4  -5  518.45   54.29 
  -5   4  -5  540.85   54.89 
   5  -4   5  474.95   50.39 
   4   5   5  417.16   49.99 
   4   5   5  407.66   52.09 
  -5   4   5  445.86   49.90 
  -4  -5   5  507.55   48.80 
  -5   4   5  460.25   49.60 
  -4  -5   5  476.15   49.40 
   4   5   5  492.55   76.39 
   4   5   5  342.87   50.39 
  -5   6  -5    4.60    7.30 
   6   5  -5   -0.50    9.50 
  -6  -5  -5   19.30   12.70 
   5  -6  -5   27.80    7.60 
  -5   6  -5    6.40   16.60 
   6   5  -5   16.50   10.10 
  -6  -5  -5   10.30   17.10 
   5  -6  -5   15.80    8.10 
  -6  -5  -5    7.10    6.40 
   5  -6  -5   21.20   27.80 
   6   5  -5  -26.20   42.30 
   6   5  -5    3.00    8.20 
  -6  -5   5    8.30    7.00 
   6   5   5    8.60   34.30 
   5  -6   5   12.00    3.70 
   6   5   5    1.40    9.70 
   5  -6   5    4.10    8.50 
  -6  -5   5    9.90    6.30 
  -5   6   5   37.70   10.20 
   5  -6   5    9.30    3.80 
  -6  -5   5   24.10   21.50 
   6   5   5    2.60    8.70 
   3  -6  -5    6.10   20.30 
   6   3  -5  -11.00    5.80 
  -6  -3  -5   -0.30    3.80 
   3  -6  -5    8.20   12.80 
  -3   6  -5    6.70    5.20 
  -6  -3  -5   -3.40    7.90 
  -3   6  -5   -9.70    6.90 
  -6  -3  -5    0.30    3.40 
   6   3  -5   -6.20    8.10 
  -6  -3  -5   -1.70   10.20 
   3  -6  -5    1.30    6.70 
  -3   6  -5  -10.80   16.00 
   6   3  -5    7.80    4.60 
  -6  -3  -5    9.80   14.10 
   3  -6   5    2.30    3.00 
   6   3   5    8.20   15.70 
  -6  -3   5   -9.40    4.70 
   6   3   5   -2.30    5.40 
  -6  -3   5    3.80    4.70 
  -6  -3   5   12.70    5.90 
   6   3   5   -4.40    5.60 
  -6  -3   5   -1.50   14.80 
   3  -6   5    4.40    6.00 
  -3   6   5    8.00    5.80 
   3  -6   5   -5.60    5.00 
  -6  -1  -5   -2.30    6.20 
  -6  -1  -5   18.90    5.50 
  -6  -1  -5   10.00   11.70 
  -6  -1  -5   15.10    4.20 
   1  -6  -5   11.70    5.60 
  -6  -1  -5   15.90   10.30 
   6   1  -5    4.20    7.70 
   6   1  -5   11.00    8.00 
   6   1  -5   17.50   21.70 
  -1   6  -5    7.30    9.10 
  -1   6  -5   10.50    5.10 
   1  -6  -5   16.60    7.40 
   1  -6  -5   37.40   17.40 
  -1   6  -5    8.50   20.50 
  -1   6  -5   21.40   10.10 
   1  -6  -5   12.20   16.50 
  -1   6  -5    6.90    8.60 
   6   1   5   15.10   17.30 
  -6  -1   5   13.40    5.60 
   6   1   5    6.10    4.30 
  -1   6   5   14.30   13.70 
   1  -6   5   15.10    6.40 
  -6  -1   5    4.20    6.60 
   6   1   5   13.00    4.30 
  -6  -1   5   19.30   15.20 
  -1   6   5   24.50   14.40 
  -1   6   5   30.50    8.60 
  -6  -1   5    7.00    6.90 
   1  -6   5   11.50    5.10 
   1  -6   5   14.40    5.10 
   6   1   5    9.20    8.20 
  -6  -1   5    2.70    4.10 
   1   6  -5    8.60    7.90 
  -1  -6  -5   29.70   19.70 
  -6   1  -5   14.70    5.30 
   6  -1  -5   10.40    5.40 
  -1  -6  -5   21.10   15.90 
  -6   1  -5   18.50    3.80 
   1   6  -5   17.30    7.60 
  -1  -6  -5   13.90    8.40 
  -6   1  -5    8.90   10.60 
   6  -1  -5   24.50   12.80 
  -6   1  -5    5.50    4.90 
   6  -1  -5   31.30   10.70 
   1   6  -5   13.90    9.20 
   6  -1  -5   18.10   16.70 
  -6   1  -5   12.50    5.80 
  -1  -6  -5    9.30    5.40 
  -6   1  -5   13.70    3.20 
  -6   1  -5   13.40    7.20 
  -6   1  -5   19.20    8.40 
  -1  -6   5   13.10    5.10 
  -6   1   5   18.60    8.80 
   1   6   5   12.50    7.50 
   6  -1   5    9.10    2.90 
  -1  -6   5   33.40   21.90 
  -6   1   5   10.70    5.20 
  -6   1   5    7.60    5.00 
   1   6   5   10.50   17.60 
  -1  -6   5   19.40    6.70 
   1   6   5    7.50    8.10 
  -6   3  -5    7.70    9.30 
  -3  -6  -5    2.40    5.40 
  -6   3  -5   -3.30    8.50 
   3   6  -5   10.70    7.40 
  -3  -6  -5    8.30    8.40 
   6  -3  -5    1.70    4.90 
  -3  -6  -5    2.80   14.70 
   6  -3  -5    4.60   16.90 
   6  -3  -5   -7.30   11.10 
  -3  -6  -5    8.00   16.90 
   6  -3  -5   -7.90   10.40 
   3   6  -5  -14.40    6.60 
   3   6  -5   11.90    9.30 
   3   6  -5    1.60    6.70 
  -6   3   5    4.10    9.40 
   3   6   5  -15.30   11.80 
  -3  -6   5    3.90    3.80 
   6  -3   5    1.50    5.60 
  -6   3   5    7.00    5.40 
   3   6   5    4.00    7.60 
  -3  -6   5    4.00    4.80 
  -6   3   5    6.00    5.80 
  -3  -6   5  -16.20   15.40 
  -5  -6  -5    3.10   17.50 
   5   6  -5    1.50    6.70 
  -5  -6  -5    4.60    6.80 
  -6   5  -5   -0.70    4.40 
   5   6  -5    7.60   10.00 
  -5  -6  -5    0.30   17.70 
  -5  -6  -5   -0.50   10.40 
  -6   5  -5   14.60   26.80 
  -6   5  -5   11.60   11.70 
  -6   5  -5   16.90   16.70 
   5   6  -5    0.60    9.10 
   6  -5  -5   14.40    7.60 
   5   6  -5   10.70    9.80 
   6  -5  -5   31.50   28.00 
  -6   5   5    7.60    8.30 
   5   6   5    9.70    9.50 
   6  -5   5   13.50    8.20 
   5   6   5   14.20   12.90 
  -5  -6   5   26.80   23.40 
  -6   5   5    2.20    6.50 
   5   6   5   14.60    7.10 
  -5  -6   5   13.70    7.20 
  -6   5   5   23.10   17.00 
   7   6  -5    0.60   10.50 
   6  -7  -5    3.20    8.10 
  -6   7  -5    5.90   18.10 
  -7  -6  -5   12.40   20.80 
  -6   7  -5    5.20   15.80 
  -7  -6  -5   10.10    8.60 
   6  -7  -5    7.40    8.70 
  -6   7  -5    2.30    7.70 
   7   6  -5   -4.40   13.00 
   6  -7  -5   17.00   36.20 
   7   6  -5   22.50   14.10 
  -7  -6  -5    3.70   20.20 
   6  -7   5    4.10   10.00 
  -7  -6   5  -11.40    7.20 
  -7  -6   5    9.00   24.40 
   7   6   5    1.90   12.60 
  -6   7   5    8.40    9.30 
  -7  -6   5   13.50    8.10 
   7   6   5  -10.90   12.90 
   6  -7   5    0.20    3.70 
   6  -7   5   -3.60    8.40 
  -7  -4  -5  223.98   25.40 
   7   4  -5  205.08   28.60 
  -4   7  -5  144.29   27.90 
  -7  -4  -5  160.18   39.90 
   7   4  -5  194.98   21.80 
  -4   7  -5  214.18   40.60 
  -7  -4  -5  270.87   37.30 
  -7  -4  -5  183.48   21.30 
   4  -7  -5  181.58   27.20 
   7   4  -5  200.08   29.10 
  -7  -4  -5  209.58   29.80 
   4  -7   5  220.48   23.40 
  -7  -4   5  179.58   25.40 
  -7  -4   5  240.68   26.20 
   4  -7   5  172.58   23.40 
   7   4   5  189.28   26.90 
   4  -7   5  219.08   27.10 
   7   4   5  200.08   28.20 
  -4   7   5  204.98   27.20 
  -2   7  -5  323.97   52.39 
   7   2  -5  288.47   35.70 
  -7  -2  -5  319.57   32.70 
   2  -7  -5  330.47   34.70 
  -2   7  -5  251.47   38.50 
  -7  -2  -5  255.17   31.80 
  -2   7  -5  319.37   45.60 
   7   2  -5  263.37   35.90 
  -2   7  -5  285.47   34.90 
   2  -7  -5  307.97   36.40 
  -7  -2  -5  255.77   44.80 
  -7  -2  -5  321.17   39.50 
   2  -7   5  323.27   35.20 
  -7  -2   5  348.97   34.50 
   7   2   5  228.88   33.70 
  -2   7   5  294.97   36.40 
   2  -7   5  321.87   33.20 
   7   2   5  250.57   32.70 
  -7  -2   5  301.17   34.30 
   7   2   5  315.07   38.20 
  -7  -2   5  264.27   33.60 
  -7   0  -5    9.10    3.80 
  -7   0  -5    3.50    3.50 
   0   7  -5    0.90    6.00 
  -7   0  -5    2.00   13.70 
   0   7  -5   12.20   12.80 
  -7   0  -5   -3.20    5.60 
   7   0  -5   -9.40   10.70 
  -7   0  -5    2.40    9.10 
   7   0  -5   -1.20    5.40 
   7   0  -5   15.20   23.80 
   0   7  -5    1.70    8.60 
  -7   0  -5    5.50    7.10 
  -7   0  -5   -2.70    3.50 
   0  -7  -5    4.00   21.00 
   0  -7  -5    1.80    5.20 
  -7   0   5    4.30    7.50 
   0   7   5    1.60   21.00 
   7   0   5   -1.70   13.20 
   7   0   5   -5.90    3.60 
   7   0   5    9.40    4.70 
  -7   0   5   12.30    6.30 
   0  -7   5    6.50    4.50 
   0  -7   5    3.10    4.90 
  -7   0   5   -3.20    4.00 
   0   7   5    7.60    8.40 
  -7   2  -5  334.27   38.40 
   2   7  -5  278.87   38.10 
  -7   2  -5  321.47   43.80 
   7  -2  -5  271.47   36.30 
  -7   2  -5  321.37   33.00 
  -2  -7  -5  366.56   37.20 
   2   7  -5  296.27   41.10 
   2   7  -5  293.77   40.50 
  -7   2  -5  276.57   36.30 
   7  -2  -5  328.27   45.50 
  -2  -7   5  319.37   36.50 
   2   7   5  269.27   44.00 
   7  -2   5  275.67   35.90 
  -7   2   5  359.56   37.30 
  -2  -7   5  321.57   35.10 
  -7   2   5  323.07   36.30 
   2   7   5  312.47   39.90 
   2   7   5  324.37   40.60 
   4   7  -5  248.78   32.40 
   7  -4  -5  190.88   28.60 
  -7   4  -5  236.08   46.00 
   4   7  -5  207.08   33.00 
  -7   4  -5  197.38   35.90 
  -7   4  -5  280.77   35.90 
  -4  -7  -5  307.47   46.70 
  -4  -7  -5  251.17   29.60 
   4   7   5  188.38   33.60 
  -7   4   5  227.68   28.90 
   4   7   5  228.58   37.10 
  -7   4   5  207.38   29.60 
   4   7   5  263.07   38.20 
  -4  -7   5  262.37   29.90 
   7  -4   5  216.28   29.90 
  -7   6  -5    5.40   13.70 
  -6  -7  -5    4.50    8.90 
  -6  -7  -5    8.80   21.70 
   7  -6  -5   30.50   36.00 
   6   7  -5  -16.70   11.90 
   6   7  -5   -4.70   12.50 
  -6  -7  -5   20.00   22.20 
   6   7  -5    3.80   12.50 
  -6  -7  -5    9.90    5.40 
  -7   6  -5   14.10   15.90 
   6   7   5    3.80    7.60 
  -6  -7   5   17.00    9.30 
   6   7   5    3.20   12.90 
   6   7   5   14.20   15.70 
   6   7   5    5.10   17.60 
   7  -6   5    6.40    8.80 
  -7   6   5    2.90    9.10 
  -6  -7   5   -3.00   23.30 
  -8  -7  -5  124.19   22.60 
   8   7  -5  178.38   30.80 
  -8  -7  -5  125.49   40.40 
   8   7  -5  154.78   29.00 
   7  -8  -5   88.99   21.00 
   7  -8  -5  137.99   25.20 
   8   7   5  101.89   27.30 
   7  -8   5  107.79   24.00 
  -8  -7   5  266.07   57.09 
  -7   8   5  131.99   24.60 
   8   7   5  159.98   31.20 
  -8  -7   5   70.99   18.90 
   7  -8   5  100.99   14.90 
  -8  -7   5  136.59   22.40 
  -8  -5  -5  203.08   30.30 
   8   5  -5  272.67   36.40 
  -5   8  -5  278.57   52.09 
   5  -8  -5  201.98   32.80 
  -8  -5  -5  275.57   37.60 
   8   5  -5  448.86   89.29 
  -8  -5  -5  211.88   47.40 
   8   5  -5  222.28   35.30 
   8   5   5  244.18   35.70 
   5  -8   5  240.58   32.80 
  -5   8   5  219.28   34.10 
   8   5   5  263.37   56.09 
   8   5   5  283.37   35.30 
  -8  -5   5  273.67   31.80 
   5  -8   5  291.17   28.60 
   5  -8   5  194.08   27.70 
  -8  -5   5  213.88   30.20 
  -3   8  -5    7.60   12.90 
   3  -8  -5   13.20   19.70 
  -8  -3  -5   11.10   18.40 
   8   3  -5    9.90   39.10 
   3  -8  -5    6.80    6.90 
   8   3  -5    1.30   12.80 
   8   3  -5   13.40    9.80 
  -3   8  -5   -2.00   26.70 
   3  -8  -5   35.00   31.80 
  -8  -3  -5   15.00   14.50 
  -3   8  -5   -1.40   19.30 
   8   3  -5   -3.50   10.30 
  -8  -3  -5    0.30    8.60 
  -8  -3  -5   12.00   13.00 
   3  -8  -5    7.40   12.90 
  -3   8   5    0.70    9.00 
  -8  -3   5    7.00   19.80 
   8   3   5    3.30    8.90 
   8   3   5    6.30    8.10 
   3  -8   5   -2.40    6.50 
  -3   8   5   17.70   17.40 
   8   3   5   -0.30   16.20 
   3  -8   5   -7.30    4.40 
  -8  -3   5    0.70    6.10 
  -8  -3   5    1.50    7.00 
   8   1  -5  284.27   38.20 
   1  -8  -5  290.17   39.00 
   8   1  -5  326.97   42.60 
   8   1  -5  328.47   65.29 
   8   1  -5  314.37   39.70 
  -8  -1  -5  333.57   35.20 
  -1   8  -5  352.96   50.59 
  -1   8  -5  268.47   38.00 
  -1   8  -5  321.57   45.00 
  -8  -1  -5  387.16   40.30 
  -8  -1  -5  290.27   48.00 
  -8  -1  -5  289.97   38.40 
   1  -8  -5  375.36   38.20 
   1  -8   5  308.47   37.00 
   8   1   5  259.67   36.20 
   1  -8   5  335.97   36.50 
  -1   8   5  295.27   40.40 
  -8  -1   5  358.46   37.80 
  -8  -1   5  277.27   36.80 
  -8   1  -5  247.88   36.50 
  -8   1  -5  315.27   36.40 
  -1  -8  -5  385.56   39.00 
  -8   1  -5  350.76   36.60 
  -8   1  -5  386.36   37.60 
   8  -1  -5  403.36   57.19 
   1   8  -5  298.77   39.90 
  -8   1  -5  344.27   48.60 
   1   8  -5  334.47   46.00 
   8  -1  -5  285.77   38.30 
   1   8  -5  303.37   45.40 
  -8   1  -5  323.37   35.20 
  -1  -8   5  319.47   37.80 
   1   8   5  305.17   42.50 
  -1  -8   5  318.67   37.00 
   8  -1   5  277.47   35.20 
  -8   1   5  325.17   38.20 
   1   8   5  350.86   43.40 
  -8   1   5  354.86   39.60 
  -8   1   5  360.66   38.70 
   3   8  -5   12.00   11.20 
   8  -3  -5    9.60    9.30 
   3   8  -5    9.40   13.70 
   3   8  -5   -8.00   14.40 
  -8   3  -5    1.00   18.70 
   8  -3  -5    6.20   22.00 
  -3  -8  -5    0.50    6.60 
  -8   3  -5   -3.40    3.50 
  -8   3  -5   11.50   12.90 
  -3  -8  -5    9.90   21.10 
  -3  -8  -5    5.00   22.60 
  -8   3  -5    3.20    2.90 
  -8   3  -5   -4.30   10.70 
  -8   3  -5   18.40   17.30 
   3   8   5   -3.50   13.00 
  -8   3   5    4.10    7.70 
  -8   3   5   -1.10   10.20 
  -3  -8   5    3.10    5.20 
   8  -3   5   13.30    8.60 
   3   8   5   11.70   11.90 
  -3  -8   5   -2.10    7.10 
  -8   3   5    5.30    6.60 
  -3  -8   5   -0.10   26.00 
   5   8  -5  240.58   40.40 
  -8   5  -5  338.47   40.00 
   5   8  -5  170.38   38.70 
  -8   5  -5  303.87   78.79 
  -5  -8  -5  231.08   32.60 
  -8   5  -5  328.37   45.50 
   8  -5  -5  182.08   32.40 
  -5  -8  -5  368.96   56.49 
   5   8  -5  204.78   36.80 
   5   8   5  270.57   44.40 
   5   8   5  259.47   35.90 
  -8   5   5  293.77   35.90 
   5   8   5  264.37   38.90 
   8  -5   5  259.87   33.90 
  -8   5   5  235.08   32.90 
   7   8  -5   77.69   27.40 
   8  -7  -5  109.09   23.10 
   7   8  -5  181.78   31.60 
   7   8  -5  169.88   31.50 
  -7  -8  -5  145.89   24.20 
  -7  -8  -5  166.68   44.00 
  -7  -8   5  215.58   53.59 
   7   8   5  146.99   30.40 
   7   8   5   80.39   28.50 
   7   8   5  101.69   16.50 
  -8   7   5   95.69   23.30 
   8  -7   5  167.68   28.00 
   9   8  -5  -29.80   25.20 
  -8   9  -5   -4.70    8.40 
   8  -9  -5   22.50   15.70 
  -9  -8  -5    6.50   29.30 
   9   8  -5   -4.90   29.20 
   8  -9   5   -4.90   14.90 
  -9  -8   5   14.10   13.30 
  -9  -8   5   -1.70   15.80 
  -8   9   5   19.80   17.60 
   9   8   5  -19.00   28.60 
  -9  -8   5   36.50   39.70 
   9   6  -5   15.70   19.90 
   9   6  -5    8.40   20.20 
  -9  -6  -5   -4.10   10.50 
  -9  -6  -5    6.50   24.30 
   6  -9  -5    6.80   11.90 
   6  -9  -5   -7.80   14.20 
  -6   9  -5    6.10   10.80 
  -9  -6   5    5.60   29.10 
  -6   9   5  -12.60   12.70 
   9   6   5  -12.50   17.50 
   6  -9   5    0.90   11.40 
  -9  -6   5    5.40    9.30 
  -9  -6   5  -16.30   10.30 
   9   4  -5   -1.00   14.90 
   4  -9  -5   28.70   40.00 
  -4   9  -5   -4.60   13.80 
   9   4  -5   51.49   52.39 
  -9  -4  -5   10.60    7.70 
   9   4  -5   36.50   17.50 
   4  -9  -5   -6.10    8.10 
  -9  -4  -5   18.60   18.10 
  -9  -4  -5  -12.10   23.00 
   9   4  -5   -2.70   13.70 
   4  -9  -5   21.50   18.20 
   4  -9  -5    5.00   12.50 
   9   4   5   10.50   11.30 
  -9  -4   5   13.30    9.70 
   9   4   5   36.20   26.90 
   9   4   5  -11.00   21.70 
   4  -9   5   18.60    7.50 
  -9  -4   5   40.40   25.60 
  -4   9   5   30.40   14.00 
   9   2  -5   10.40   11.40 
  -9  -2  -5   14.20    6.90 
   2  -9  -5    4.50   34.50 
   2  -9  -5   13.20   11.90 
   9   2  -5   17.80   13.60 
  -9  -2  -5    9.40   19.50 
  -2   9  -5   19.90   22.30 
  -9  -2  -5   12.40   13.70 
   9   2  -5   19.20   18.60 
   2  -9  -5   19.90   26.00 
  -2   9  -5  -15.90   16.20 
   2  -9  -5   12.10    8.50 
  -2   9  -5   23.30   11.10 
  -2   9   5    0.80   11.50 
   9   2   5    9.20   10.10 
  -9  -2   5    9.30    8.20 
   2  -9   5   21.90    9.30 
  -9  -2   5   38.30   24.60 
  -9  -2   5   16.70    8.90 
   2  -9   5   12.00    7.20 
  -9   0  -5    4.60   10.60 
   0  -9  -5    5.40   27.00 
   9   0  -5   -8.40    8.60 
   9   0  -5    5.60   16.90 
   0   9  -5   24.80   19.10 
  -9   0  -5   -0.40    5.50 
   0  -9  -5    3.70   23.30 
   0  -9  -5    3.50    7.10 
   0   9  -5  -53.89   18.00 
  -9   0  -5   -9.40   19.40 
   9   0  -5   14.90   36.80 
  -9   0  -5   -2.80    5.40 
  -9   0  -5   -2.00    3.30 
   9   0   5   -1.30    6.30 
   0  -9   5   -3.50    5.70 
   9   0   5    2.40    6.30 
   0  -9   5    4.00    6.20 
   0   9   5   14.10   12.70 
  -9   0   5   -3.70    7.10 
  -9   0   5   -1.10    7.00 
  -9   2  -5    6.90    7.40 
   9  -2  -5  -14.70   18.70 
  -2  -9  -5   19.60   31.50 
   2   9  -5    7.30   17.00 
  -2  -9  -5    9.90    8.30 
  -9   2  -5   38.70   22.50 
   9  -2  -5   27.40   22.50 
  -9   2  -5    5.50    5.30 
  -9   2  -5    9.40    4.50 
   2   9  -5   16.40   16.70 
  -9   2  -5   32.20   12.30 
   2   9   5    5.40   14.40 
  -2  -9   5    4.90    6.80 
   2   9   5    9.00   14.40 
   9  -2   5   13.70    5.70 
  -9   2   5   -0.30   13.40 
  -2  -9   5   49.40   34.30 
  -9   2   5   20.10    9.90 
  -9   2   5    6.40    7.60 
   9  -2   5   34.00   10.30 
  -2  -9   5    9.60    7.70 
  -9   4  -5    6.30   19.60 
   4   9  -5  -15.50   14.10 
  -9   4  -5    6.50   24.00 
  -4  -9  -5    4.30   29.90 
   4   9  -5   -4.00   16.60 
  -4  -9  -5    2.40   26.20 
   9  -4  -5    4.50    9.30 
  -4  -9  -5   12.00    9.20 
  -9   4  -5   14.00   14.20 
  -4  -9  -5    3.60    5.40 
   4   9   5   13.00   16.50 
   9  -4   5   18.90   11.10 
   4   9   5  -12.90   15.20 
  -9   4   5   20.30   12.00 
  -4  -9   5   -3.20    9.00 
  -9   4   5    1.30   13.80 
   9  -6  -5   -3.90   13.60 
  -6  -9  -5    1.70    4.40 
  -6  -9  -5   -6.80   10.50 
  -9   6  -5  -18.00   25.90 
   6   9  -5   -9.90   20.90 
  -6  -9  -5  -23.40   24.80 
   6   9  -5  -37.80   19.00 
   9  -6  -5    5.10   12.10 
   6   9  -5    0.50   19.50 
   6   9   5   -5.60   24.80 
   6   9   5   17.40   16.10 
  -6  -9   5   -8.20   11.20 
  -6  -9   5   10.50   35.10 
  -9   6   5   -0.40   11.80 
   9  -6   5   22.80   13.20 
   6   9   5  -12.60   20.20 
  -8  -9  -5   53.09   33.50 
   9  -8  -5   15.70   18.90 
   8   9  -5  -35.90   26.00 
   8   9  -5  -22.00   27.20 
  -8  -9   5    6.70   16.30 
  -9   8   5   -5.70   15.70 
   9  -8   5    2.00   16.10 
  -8  -9   5   27.90   35.70 
  -7  10  -5   12.90   11.80 
   7 -10  -5   53.19   19.30 
 -10  -7  -5   78.69   37.60 
  10   7  -5   88.29   30.50 
   7 -10   5   39.70   20.20 
   7 -10   5   15.40    8.80 
 -10  -7   5   80.09   41.70 
  -7  10   5   52.19   22.30 
 -10  -7   5   25.90   16.50 
  10   7   5   49.90   29.20 
  -5  10  -5   33.90   19.00 
 -10  -5  -5   83.29   17.00 
  10   5  -5   53.79   24.40 
 -10  -5  -5   69.19   34.30 
   5 -10  -5   52.99   19.40 
  10   5  -5  116.39   28.30 
  10   5  -5   73.09   26.10 
  10   5   5   39.90   22.40 
 -10  -5   5  168.58   49.20 
  10   5   5   68.89   22.90 
   5 -10   5   52.79   12.00 
 -10  -5   5   66.99   16.90 
 -10  -5   5   61.89   17.00 
 -10  -3  -5    6.30   26.10 
  -3  10  -5    8.30   27.70 
  10   3  -5    3.10   16.30 
 -10  -3  -5   -4.20    8.10 
   3 -10  -5   11.90   38.20 
   3 -10  -5   14.50   10.50 
 -10  -3  -5   21.40   20.00 
   3 -10  -5    4.00   14.30 
   3 -10  -5   -9.00    8.90 
  10   3  -5   18.50   21.90 
 -10  -3   5    5.70   25.60 
 -10  -3   5    2.30    8.10 
   3 -10   5   -6.80    9.80 
  10   3   5    0.60   13.20 
 -10  -3   5   -4.90    9.80 
  -3  10   5  -32.00   14.20 
 -10  -1  -5  137.99   38.00 
 -10  -1  -5   71.49   14.50 
   1 -10  -5  110.79   18.60 
  -1  10  -5  112.09   35.10 
  10   1  -5   80.49   20.00 
 -10  -1  -5   80.69   20.00 
   1 -10  -5   89.19   19.80 
  10   1  -5  103.29   18.30 
 -10  -1  -5   85.49   15.40 
  10   1  -5  128.09   28.10 
 -10  -1   5   95.59   19.00 
  10   1   5  107.39   18.40 
  -1  10   5  113.79   25.40 
   1 -10   5  131.59   19.10 
 -10  -1   5  100.29   17.70 
 -10   1  -5   85.79   14.10 
 -10   1  -5  121.69   16.80 
 -10   1  -5   86.89   14.60 
   1  10  -5  134.19   35.20 
 -10   1  -5  127.79   36.20 
  -1 -10  -5  111.59   19.10 
 -10   1  -5  139.49   17.10 
  10  -1  -5   55.39   24.00 
 -10   1  -5   68.49   16.10 
  10  -1  -5   81.69   18.40 
  10  -1  -5  170.68   31.70 
   1  10  -5  123.79   24.60 
   1  10   5  124.39   27.30 
  -1 -10   5  112.29   18.50 
 -10   1   5   79.79   17.00 
  -1 -10   5   98.79   16.50 
  10  -1   5  116.49   18.10 
  10  -1   5   98.29   15.60 
 -10   1   5   94.89   19.00 
  -3 -10  -5   17.80   35.70 
   3  10  -5   -7.90   17.50 
   3  10  -5   -9.30   21.70 
 -10   3  -5    3.10   23.20 
 -10   3  -5    4.70    5.10 
 -10   3  -5    3.70    3.80 
  10  -3  -5    2.30   11.70 
  10  -3  -5   -6.00   11.30 
  -3 -10  -5    4.40    9.00 
  -3 -10  -5    5.40    7.10 
 -10   3   5   -1.50   12.10 
  -3 -10   5    9.90   34.30 
  -3 -10   5   -5.80    6.40 
 -10   3   5   15.00    9.60 
  10  -3   5  -11.30   10.30 
   3  10   5   -0.80   18.70 
  -3 -10   5   -9.90    8.80 
  10  -5  -5   90.59   22.50 
   5  10  -5   72.99   32.20 
  -5 -10  -5  165.38   45.00 
   5  10  -5  131.39   31.00 
  -5 -10  -5   90.19   13.00 
  10  -5  -5   56.19   18.70 
  -5 -10  -5  111.59   20.30 
   5  10  -5  116.29   37.00 
   5  10   5  162.48   32.40 
   5  10   5   54.79   26.00 
   5  10   5   71.79   30.30 
  -5 -10   5   43.70   16.70 
 -10   5   5   76.29   22.70 
 -10   5   5   72.69   19.70 
  10  -5   5   85.19   21.40 
   7  10  -5   94.89   37.10 
  10  -7  -5   74.59   23.80 
 -10   7  -5   75.29   35.20 
  -7 -10  -5   85.09   41.10 
   7  10  -5   56.19   33.80 
   7  10  -5   69.39   31.80 
  10  -7   5   53.79   20.60 
  -7 -10   5  148.59   52.59 
   7  10   5   36.40   20.50 
  -7 -10   5   41.30   19.10 
 -10   7   5   54.99   21.40 
   7  10   5   38.70   34.40 
  -6  11  -5   -6.50   13.70 
  11   6  -5   57.69   31.10 
   6 -11  -5   22.30   16.80 
 -11  -6  -5  -31.30   29.10 
  -6  11  -5  -18.10   31.50 
 -11  -6   5    2.40   36.20 
  11   6   5   -1.20   24.80 
  -6  11   5  -23.40   20.30 
 -11  -6   5   -5.10   11.20 
   6 -11   5   12.90   15.80 
   6 -11   5    3.60    9.90 
   4 -11  -5   79.09   26.90 
  11   4  -5   82.89   30.30 
  11   4  -5   92.49   29.80 
 -11  -4  -5   99.09   39.20 
   4 -11  -5  114.09   22.20 
  -4  11  -5   50.79   21.60 
  -4  11  -5   39.90   39.70 
   4 -11   5   95.09   19.60 
  11   4   5   91.29   27.90 
   4 -11   5   74.49   16.00 
 -11  -4   5   80.69   18.70 
  -4  11   5   76.49   27.50 
 -11  -2  -5  138.69   43.10 
   2 -11  -5  113.89   23.70 
  11   2  -5   97.79   15.50 
 -11  -2  -5   86.79   17.60 
  11   2  -5  186.08   35.90 
  11   2  -5   89.99   25.40 
 -11  -2  -5  109.79   18.20 
   2 -11  -5  148.29   23.20 
  -2  11  -5   79.19   30.50 
 -11  -2   5   97.29   21.10 
  11   2   5  142.19   25.30 
   2 -11   5  127.29   20.40 
  11   0  -5   -3.20   27.20 
 -11   0  -5    6.70    8.60 
   0 -11  -5  -16.30   44.20 
 -11   0  -5   -0.40    7.50 
   0  11  -5    2.30   25.10 
   0 -11  -5   24.20   32.20 
  11   0  -5    4.70   15.70 
 -11   0  -5  -17.60   30.40 
   0 -11  -5    7.20   10.40 
   0 -11  -5    6.30   11.00 
   0  11  -5  -33.50   26.50 
   0 -11  -5  -10.60   13.70 
  11   0  -5    6.80   13.00 
 -11   0  -5  -10.30   13.20 
 -11   0   5   12.10   12.90 
   0  11   5    4.80   18.00 
 -11   0   5   -0.90    9.70 
   0 -11   5   -7.10    8.70 
  11   0   5    4.20   20.30 
  -2 -11  -5  247.48   53.19 
   2  11  -5  164.08   43.90 
  -2 -11  -5  142.89   19.10 
  11  -2  -5   79.89   22.40 
 -11   2  -5  123.49   22.10 
  -2 -11  -5  148.69   21.80 
  11  -2  -5   89.59   21.20 
 -11   2  -5   74.19   14.10 
  11  -2   5   78.39   19.40 
 -11   2   5  165.28   25.90 
   2  11   5   90.99   28.00 
   2  11   5   25.00   28.80 
 -11   2   5   97.89   20.50 
  -2 -11   5  132.79   18.60 
  11  -2   5  137.89   21.40 
  11  -4  -5   81.19   22.10 
  -4 -11  -5   60.99   16.60 
  -4 -11  -5  225.88   68.09 
   4  11  -5  117.89   40.00 
   4  11  -5  114.29   38.60 
  -4 -11  -5  105.69   15.10 
 -11   4   5   86.29   20.30 
   4  11   5   54.19   29.40 
   4  11   5   84.99   32.30 
   4  11   5   36.40   28.00 
  11  -4   5   77.99   20.30 
  11  -6  -5   33.40   19.10 
  -6 -11  -5  -10.20   33.40 
   6  11  -5  -13.30   36.00 
   6  11  -5    4.30   34.30 
  11  -6   5   14.00   17.80 
 -11   6   5    4.50   15.00 
   6  11   5   18.10   29.20 
   6  11   5  -12.50   33.90 
  -6 -11   5  -30.70   39.30 
   5 -12  -5    6.10   14.80 
  -5  12  -5   16.00   40.50 
 -12  -5  -5   36.90   42.30 
  12   5  -5  -43.20   33.80 
  -5  12  -5  -11.80   18.00 
 -12  -5   5   30.10   14.80 
 -12  -5   5    6.90   45.60 
  -5  12   5   -8.20   28.10 
   5 -12   5    1.10   16.00 
 -12  -3  -5   -1.80   10.60 
   3 -12  -5   10.70   32.80 
 -12  -3  -5    6.40   36.20 
  -3  12  -5   12.50   23.40 
  -3  12  -5  -21.60   37.70 
   3 -12  -5    3.60   13.00 
  12   3  -5   23.90   32.10 
 -12  -3   5    9.80   12.60 
  -3  12   5   -1.30   23.60 
 -12  -3   5    0.00   34.70 
   3 -12   5  -15.80   11.60 
 -12  -1  -5   -3.10   11.50 
 -12  -1  -5    5.80    9.70 
  12   1  -5  -32.40   30.50 
  -1  12  -5    2.10   35.70 
 -12  -1  -5    1.30   37.40 
   1 -12  -5    0.40   12.10 
  12   1  -5   17.40   13.20 
  -1  12  -5   -9.90   29.80 
   1 -12  -5    4.30   36.80 
   1 -12   5   12.30   10.80 
  12   1   5   10.60   19.80 
 -12  -1   5    2.30   11.80 
  -1  12   5    4.50   24.60 
  12  -1  -5   -4.00   17.30 
   1  12  -5   25.40   39.10 
 -12   1  -5    5.50   36.20 
 -12   1  -5   18.50   12.60 
   1  12  -5  -18.80   32.50 
  -1 -12  -5   18.20   36.40 
 -12   1  -5   -2.10   10.90 
  -1 -12  -5    7.80   10.60 
 -12   1   5   10.30   11.50 
  12  -1   5    3.40   13.70 
  -1 -12   5   -0.30    9.10 
  12  -1   5   14.70   13.50 
   1  12   5   -7.10   23.00 
  12  -3  -5   -1.80   18.60 
  -3 -12  -5  -14.00   12.90 
  -3 -12  -5   19.90   35.00 
   3  12  -5   50.99   37.30 
   3  12  -5   13.00   37.90 
 -12   3  -5    2.30   19.70 
  -3 -12  -5    1.80    9.00 
   3  12   5  -15.20   28.10 
   3  12   5   25.40   32.90 
  12  -3   5  -17.70   15.80 
   3  12   5   31.40   27.70 
 -12   3   5    4.40   13.30 
  -3 -12   5   14.00    9.40 
  -3 -12   5   -4.40   47.30 
  12  -5  -5    9.30   19.70 
   5  12  -5   46.80   40.00 
   5  12  -5  -11.30   38.50 
  -5 -12   5   31.20   52.39 
   5  12   5   16.00   33.50 
  12  -5   5   27.30   19.20 
   5  12   5  -27.70   35.80 
   2 -13  -5   37.10   15.60 
 -13  -2  -5   -1.50   12.40 
   2 -13  -5   51.29   44.80 
 -13  -2  -5   33.50   47.40 
  -2  13  -5  -51.19   31.30 
  -2  13  -5  -55.49   53.29 
   2 -13   5   46.70   14.80 
  -2  13   5  -21.30   31.10 
 -13  -2   5   16.20   15.70 
   0  13  -5   -2.40   48.70 
   0 -13  -5   13.00   41.70 
 -13   0  -5   -1.60   44.20 
   0 -13  -5    6.00   13.20 
   0  13  -5   -0.50   41.10 
 -13   0   5   -7.10   13.00 
   0 -13   5    3.30   10.30 
   0  13   5   23.20   27.70 
   2  13  -5   43.70   45.20 
  -2 -13  -5   67.99   46.70 
  -2 -13  -5   37.70   14.70 
  -2 -13   5   27.20   12.10 
 -13   2   5   23.00   16.10 
   2  13   5   40.50   33.00 
   0   0  -6 4496.45  463.15 
   0   0  -6 4572.54  467.95 
   0   0  -6 4340.77  463.55 
   0   0  -6 4027.80  463.05 
   0   0   6 4828.12  463.25 
   0   0   6 4623.84  466.95 
   0   0   6 4794.02  463.55 
   0   0   6 4926.51  463.95 
   1   1  -6  770.52   72.49 
  -1  -1  -6  695.03   72.29 
  -1  -1  -6  623.74   75.69 
   1  -1  -6  653.23   76.59 
   1  -1  -6  707.63   72.29 
  -1   1  -6  743.93   71.49 
   1   1  -6  641.84   72.09 
  -1  -1  -6  645.64   71.79 
   1   1  -6  744.43   72.79 
  -1  -1  -6  659.13   76.69 
  -1   1  -6  666.33   71.29 
  -1   1  -6  712.63   76.79 
  -1  -1  -6  725.53   72.19 
  -1   1  -6  639.54   71.99 
   1  -1  -6  588.74   72.49 
  -1  -1  -6  632.64   71.89 
   1   1  -6  648.94   75.79 
  -1   1  -6  730.23   72.49 
   1  -1  -6  641.74   72.29 
   1   1   6  702.03   76.49 
   1   1   6  784.92   72.29 
   1  -1   6  706.33   71.19 
  -1   1   6  646.94   71.99 
  -1   1   6  763.52   76.89 
   1  -1   6  761.92   71.99 
  -1   1   6  726.63   73.09 
  -1  -1   6  702.33   72.09 
   1  -1   6  711.13   71.29 
  -1  -1   6  778.32   72.49 
  -1  -1   6  697.33   72.09 
  -1   1   6  651.13   72.09 
  -2   0  -6 2612.64  273.17 
   0   2  -6 2548.65  268.47 
   0  -2  -6 2274.27  269.07 
   2   0  -6 2420.36  269.07 
   2   0  -6 2578.14  272.87 
  -2   0  -6 2430.06  267.97 
  -2   0  -6 2625.44  268.17 
   0  -2  -6 2657.43  269.37 
   0  -2  -6 2618.14  275.07 
  -2   0  -6 2648.64  268.87 
  -2   0  -6 2707.53  268.17 
   0   2  -6 2660.13  269.57 
   2   0  -6 2285.27  269.37 
  -2   0  -6 2529.05  273.27 
   0   2  -6 2625.84  274.37 
   2   0  -6 2685.23  269.27 
   0   2  -6 2647.64  269.17 
  -2   0  -6 2684.83  268.37 
   0  -2  -6 2717.63  269.67 
   0  -2  -6 2449.35  272.47 
   0   2   6 2490.85  269.57 
   0  -2   6 2680.73  268.47 
   2   0   6 2859.01  272.67 
   0   2   6 2837.32  275.47 
  -2   0   6 2819.62  272.47 
   0  -2   6 2969.50  269.07 
  -2   0   6 2748.93  269.57 
   2   0   6 2880.01  268.37 
   2   0   6 2755.42  268.27 
   0   2   6 2656.83  269.17 
  -2   0   6 2717.93  269.17 
   0  -2   6 2768.12  268.17 
   0  -2   6 2575.74  268.37 
  -2   0   6 2725.63  269.17 
  -2  -2  -6   71.49   17.10 
   2  -2  -6   81.29   12.80 
   2   2  -6   72.39   10.60 
   2  -2  -6   74.99   10.60 
   2  -2  -6   85.19   12.30 
   2   2  -6   75.39   16.40 
  -2  -2  -6   54.29    9.70 
  -2   2  -6   63.09   11.30 
  -2   2  -6   68.59   16.10 
  -2   2  -6   67.99   10.70 
   2   2  -6   91.29   23.50 
  -2  -2  -6   85.29   18.40 
   2   2  -6   50.59   10.20 
   2  -2  -6   77.19   10.90 
   2  -2  -6   82.39   16.10 
  -2  -2  -6   67.69    9.90 
   2   2  -6   86.49   11.70 
  -2   2  -6   81.69    8.60 
  -2   2   6   72.19   10.50 
   2  -2   6   75.09    8.40 
  -2  -2   6   70.09   10.30 
  -2   2   6   84.79   17.80 
   2   2   6   90.09   11.50 
  -2   2   6   63.19   10.40 
   2   2   6   80.09   18.10 
   2  -2   6   78.99   10.20 
  -2  -2   6   73.79   10.20 
   2   2   6   72.39   17.00 
   2  -2   6   89.69    8.40 
   2  -2   6   68.09    8.40 
  -2  -2   6   75.09   10.30 
  -2   2   6   64.39   12.90 
   1  -3  -6 1917.71  202.28 
  -3  -1  -6 2106.09  193.88 
   3   1  -6 2155.38  205.18 
   3   1  -6 1997.50  194.48 
  -1   3  -6 1851.81  193.98 
   3   1  -6 1806.12  197.08 
  -3  -1  -6 1686.93  197.48 
  -3  -1  -6 1699.03  192.28 
   1  -3  -6 1905.21  197.58 
   1  -3  -6 1787.32  194.18 
   3   1  -6 1673.23  194.28 
  -1   3  -6 1893.11  194.68 
   1  -3  -6 2063.39  195.28 
   1  -3  -6 1814.42  194.48 
  -1   3  -6 1832.92  192.68 
  -3  -1  -6 1562.84  198.08 
  -3  -1  -6 1869.81  193.08 
   3   1  -6 1659.13  193.88 
   1  -3   6 2001.50  193.68 
   1  -3   6 1828.02  192.58 
   3   1   6 2013.20  192.28 
   3   1   6 2104.99  200.08 
  -1   3   6 1851.11  194.08 
   3   1   6 1922.91  197.78 
   1  -3   6 2079.99  192.38 
   3   1   6 1684.53  193.28 
  -1   3   6 1764.12  195.38 
  -3  -1   6 2080.79  194.18 
  -3  -1   6 2103.29  194.28 
  -3  -1   6 1857.71  193.88 
   1  -3   6 1941.51  192.68 
  -1   3   6 2218.38  203.28 
  -3   1  -6 1867.41  197.78 
  -3   1  -6 1658.03  190.88 
  -1  -3  -6 1942.81  193.88 
  -1  -3  -6 1675.13  198.08 
  -3   1  -6 1904.51  192.78 
  -3   1  -6 1788.02  190.78 
  -1  -3  -6 1770.62  193.88 
  -3   1  -6 2014.10  192.28 
   1   3  -6 1806.12  192.78 
   3  -1  -6 1692.23  193.88 
   1   3  -6 1988.70  204.18 
  -1  -3  -6 1838.72  192.98 
   3  -1  -6 1746.53  193.08 
  -1  -3  -6 1823.52  192.98 
  -1  -3  -6 1716.53  200.38 
   1   3  -6 1852.81  192.88 
   3  -1  -6 2032.20  193.48 
  -3   1  -6 1927.21  190.98 
   3  -1  -6 1894.01  197.38 
   1   3  -6 1864.31  193.88 
  -1  -3   6 2122.39  192.98 
  -3   1   6 1825.72  193.88 
  -1  -3   6 2031.20  192.28 
  -1  -3   6 1748.43  192.48 
  -3   1   6 2018.20  193.38 
   1   3   6 1764.62  193.58 
   1   3   6 2118.29  203.08 
  -3   1   6 2014.50  196.48 
  -1  -3   6 2049.40  192.68 
   3  -1   6 2000.30  192.78 
   1   3   6 2083.39  199.08 
   3  -1   6 1883.11  190.58 
  -3   1   6 1867.81  193.08 
   1   3   6 1855.31  193.58 
  -3   3  -6 3307.87  369.96 
  -3  -3  -6 4022.40  371.46 
  -3   3  -6 3735.63  371.16 
   3   3  -6 3622.84  383.96 
   3   3  -6 3441.66  369.26 
   3   3  -6 3388.26  370.66 
   3   3  -6 3254.87  370.16 
  -3  -3  -6 3509.05  370.06 
   3  -3  -6 3360.76  370.26 
   3  -3  -6 4105.79  380.06 
   3  -3  -6 3681.23  370.36 
   3  -3  -6 3642.04  371.86 
   3  -3   6 3415.66  367.06 
   3   3   6 3613.94  368.86 
  -3   3   6 3660.43  370.36 
   3   3   6 3401.06  371.16 
  -3   3   6 3780.62  372.36 
  -3  -3   6 3340.67  369.66 
  -3  -3   6 3866.81  369.66 
  -3   3   6 3730.23  370.46 
   3   3   6 3858.31  379.56 
   3  -3   6 3612.84  369.96 
  -3  -3   6 4186.28  370.26 
   3   3   6 3885.71  379.16 
  -2   4  -6    1.60    3.30 
   2  -4  -6   22.40   15.30 
  -4  -2  -6    2.40    9.10 
   4   2  -6   23.40    6.40 
   2  -4  -6    1.00    3.30 
   2  -4  -6   11.30    6.20 
  -2   4  -6   10.50    5.70 
  -4  -2  -6    4.80    3.70 
  -4  -2  -6   15.00   11.20 
   2  -4  -6   15.20    8.00 
  -2   4  -6   -3.80    5.30 
  -4  -2  -6    6.10    3.50 
   4   2  -6    0.30    4.90 
  -4  -2  -6   13.00    6.40 
  -2   4  -6    9.30   12.40 
   4   2  -6    4.60    6.80 
  -2   4  -6    6.20    2.80 
   2  -4  -6    5.50    5.00 
  -2   4   6    3.90   15.80 
   4   2   6    6.30   10.10 
   4   2   6    4.70   11.70 
  -2   4   6    7.20    4.50 
   2  -4   6   -0.10    3.40 
   2  -4   6    5.80    2.40 
  -4  -2   6    6.80    4.90 
   4   2   6   12.90    8.10 
  -4  -2   6    4.60    3.90 
   2  -4   6   10.00    3.20 
   4   2   6    6.20    3.70 
  -2   4   6    3.80    8.20 
  -4  -2   6    3.00    3.80 
  -4   0  -6 3998.40  418.76 
   4   0  -6 3706.13  422.16 
   0   4  -6 3735.43  419.36 
   4   0  -6 3496.25  419.46 
   0  -4  -6 3948.10  420.66 
   0  -4  -6 4368.76  419.86 
   0  -4  -6 3778.02  425.06 
   0   4  -6 4099.59  419.06 
   4   0  -6 4593.74  420.46 
  -4   0  -6 4163.28  417.66 
   0  -4  -6 4325.57  420.66 
   0   4  -6 4095.79  421.06 
  -4   0  -6 4439.16  418.36 
   0   4  -6 3939.91  429.76 
  -4   0  -6 3714.23  424.46 
  -4   0  -6 4192.08  417.56 
   0  -4  -6 4337.27  430.96 
  -4   0  -6 3660.53  422.26 
   0   4  -6 3832.92  419.46 
  -4   0   6 4118.59  419.96 
   0   4   6 4133.69  420.26 
   4   0   6 4279.37  422.06 
   0  -4   6 4441.06  419.26 
   0   4   6 4712.93  433.16 
   0  -4   6 4275.67  418.66 
   0   4   6 4623.04  425.46 
   0  -4   6 4486.35  418.36 
   4   0   6 4261.67  417.46 
   0   4   6 3777.92  421.16 
  -4   0   6 4124.79  419.66 
  -4   0   6 4395.06  419.86 
  -2  -4  -6    0.30    3.50 
   2   4  -6    4.70    4.60 
   2   4  -6    7.20    5.00 
  -2  -4  -6    1.80   10.20 
  -2  -4  -6   13.00    6.90 
   2   4  -6  -18.20   16.20 
   4  -2  -6    4.80    5.70 
   2   4  -6   30.60    8.40 
  -4   2  -6   15.30    9.50 
  -2  -4  -6   11.70   11.10 
   2   4  -6    2.20    4.50 
  -4   2  -6    6.00    6.10 
  -4   2  -6   -1.30    4.20 
   4  -2  -6    9.60    7.40 
   4  -2  -6    8.70   10.70 
  -4   2  -6   14.10    9.00 
   2   4   6    7.90    6.00 
   2   4   6    7.10    4.60 
   4  -2   6    4.00    3.60 
  -2  -4   6    6.70    4.20 
   2   4   6    8.70    8.10 
   2   4   6   10.00   16.50 
  -4   2   6    4.60    3.60 
  -4   2   6    1.40    3.80 
  -2  -4   6   11.90    4.50 
  -2  -4   6    9.70    4.70 
  -4   2   6    7.20    8.60 
  -4   2   6    6.70    7.10 
   2   4   6    5.70   12.20 
  -4   4  -6  308.47   35.80 
  -4  -4  -6  281.07   32.80 
  -4  -4  -6  240.78   30.60 
   4   4  -6  263.47   33.10 
   4  -4  -6  274.17   32.50 
  -4  -4  -6  241.68   39.80 
   4   4  -6  234.28   29.10 
  -4  -4  -6  286.37   40.90 
   4  -4  -6  239.28   30.90 
   4   4  -6  256.07   31.70 
  -4  -4   6  281.97   30.60 
   4   4   6  245.18   33.00 
   4   4   6  219.88   31.10 
  -4   4   6  279.37   31.00 
   4  -4   6  283.07   31.00 
  -4  -4   6  307.87   30.30 
  -4   4   6  302.97   46.60 
  -4  -4   6  235.08   30.00 
   4   4   6  242.68   47.80 
   4   4   6  259.77   29.10 
  -3   5  -6  147.99   32.50 
  -3   5  -6  147.79   18.50 
  -5  -3  -6  103.49   28.40 
   5   3  -6  165.68   20.70 
   5   3  -6  146.09   20.60 
  -5  -3  -6  140.09   27.10 
   5   3  -6  144.69   18.10 
  -5  -3  -6  148.19   18.80 
   3  -5  -6  137.39   19.90 
  -5  -3  -6  146.79   21.80 
  -3   5  -6  165.38   27.60 
  -5  -3  -6  148.49   17.20 
   3  -5  -6  142.89   18.70 
  -3   5  -6  135.59   17.50 
   3  -5  -6  164.28   24.60 
   5   3   6  139.09   19.80 
   5   3   6  107.69   18.90 
  -5  -3   6  152.88   18.80 
   5   3   6  188.28   33.50 
   3  -5   6  160.88   16.50 
   3  -5   6  131.79   16.70 
  -3   5   6  191.68   34.60 
   3  -5   6  136.99   19.00 
  -5  -3   6  142.39   18.40 
  -3   5   6  142.99   19.30 
  -5  -3   6  130.59   18.40 
  -1   5  -6   15.90    7.10 
  -5  -1  -6    4.60    9.30 
  -1   5  -6    3.20   16.80 
   5   1  -6    9.80    6.00 
  -1   5  -6   11.40    6.00 
   5   1  -6   -9.70   18.10 
   1  -5  -6    7.40    4.80 
   5   1  -6   15.00    7.60 
   1  -5  -6   16.70    7.10 
  -5  -1  -6   22.00    7.30 
   1  -5  -6   25.30    8.30 
  -5  -1  -6   31.30    5.00 
   5   1  -6   18.60    8.90 
   1  -5  -6   10.70   10.70 
  -5  -1  -6   15.10   10.70 
  -5  -1  -6   16.10    5.20 
   5   1   6    9.20    3.90 
   5   1   6   22.50   13.70 
  -1   5   6   18.40   19.50 
  -1   5   6    6.40   10.30 
   1  -5   6    6.40    4.20 
   1  -5   6   11.40    4.90 
  -5  -1   6   14.40    6.60 
   5   1   6   13.70    9.60 
  -5  -1   6   18.90    5.90 
  -1   5   6   18.90   11.70 
   5   1   6   16.00    4.30 
  -1   5   6   12.10    6.30 
  -5  -1   6   10.90    6.10 
  -5  -1   6   14.30    5.70 
   1   5  -6   10.20    6.50 
   5  -1  -6    5.00   14.80 
  -5   1  -6   13.10    9.00 
  -5   1  -6   18.00    4.70 
  -1  -5  -6   15.70    5.80 
  -1  -5  -6   -3.40   10.70 
   1   5  -6    6.00   19.60 
   5  -1  -6    0.80    6.10 
  -5   1  -6   12.60    8.50 
  -5   1  -6   10.70    6.50 
   1   5  -6   22.30    6.20 
   5  -1  -6   12.50   10.40 
  -1  -5  -6    7.10    8.50 
   5  -1  -6    6.70    8.80 
  -5   1   6   23.40    8.30 
  -5   1   6   14.20    5.50 
  -1  -5   6   12.90    5.10 
   1   5   6    3.20   10.60 
   5  -1   6   21.40    5.50 
  -1  -5   6    9.10    4.10 
  -1  -5   6    7.50    3.90 
   1   5   6   -3.40   13.40 
   1   5   6   25.20    7.90 
   1   5   6   29.40   26.10 
  -5   3  -6  185.98   26.10 
  -3  -5  -6  156.28   19.90 
   5  -3  -6  111.19   19.00 
   5  -3  -6  208.28   25.10 
  -3  -5  -6  150.88   21.70 
  -5   3  -6  143.79   26.20 
  -3  -5  -6  144.79   32.20 
   3   5  -6  131.59   20.20 
   3   5  -6  130.19   20.50 
   5  -3  -6  137.69   24.50 
  -5   3  -6  186.28   22.90 
   3   5  -6  110.49   18.60 
  -3  -5  -6  181.88   33.40 
   3   5  -6  133.59   21.10 
   5  -3  -6  152.78   20.10 
  -5   3   6  205.38   26.70 
  -5   3   6  132.09   19.70 
   5  -3   6  140.29   19.00 
   3   5   6  105.69   21.70 
   3   5   6  126.89   20.80 
  -3  -5   6  172.48   19.50 
  -5   3   6  162.78   19.60 
   3   5   6  158.18   23.60 
  -5  -5  -6    2.70   15.30 
  -5  -5  -6    3.00    5.70 
   5   5  -6    9.00    5.70 
   5  -5  -6    0.50    9.50 
  -5  -5  -6    4.70   16.00 
  -5   5  -6    8.00    3.10 
  -5   5  -6   -1.50   17.70 
   5   5  -6    7.50    8.70 
   5   5  -6    6.40    7.60 
  -5   5  -6    2.90   13.40 
  -5  -5  -6    6.00   10.50 
   5  -5  -6    9.80    6.90 
   5   5   6   10.10    9.20 
  -5  -5   6   11.10    6.20 
  -5  -5   6    0.80    5.20 
  -5   5   6   -0.90   16.20 
   5  -5   6   -8.90    4.80 
   5   5   6   20.80    6.00 
  -5  -5   6    7.90   17.70 
  -5   5   6   -3.40    5.20 
   5   5   6    3.60    7.80 
   4  -6  -6 1324.77  125.09 
  -6  -4  -6 1038.00  135.19 
   6   4  -6 1102.29  126.19 
   4  -6  -6 1051.59  125.89 
  -6  -4  -6 1270.27  122.19 
  -4   6  -6 1037.20  132.49 
  -4   6  -6 1365.86  138.69 
   6   4  -6 1073.09  122.19 
  -6  -4  -6 1400.06  127.59 
  -6  -4  -6 1382.56  125.49 
  -4   6  -6 1052.39  123.79 
   6   4  -6 1090.89  126.19 
  -4   6   6 1041.70  125.09 
   4  -6   6 1199.88  122.09 
   4  -6   6 1390.86  122.99 
   6   4   6 1205.38  125.99 
   6   4   6  957.60  125.19 
  -6  -4   6 1363.26  125.19 
   4  -6   6 1266.37  126.09 
   6   4   6 1389.36  140.19 
   4  -6   6 1097.49  122.29 
  -6  -4   6 1139.99  124.59 
  -6  -2  -6  609.44   84.59 
   2  -6  -6  662.03   77.59 
  -6  -2  -6  772.72   83.19 
  -2   6  -6  633.64   78.99 
  -6  -2  -6  741.33   74.79 
   6   2  -6  653.13   78.69 
  -6  -2  -6  746.63   74.39 
   2  -6  -6  828.72   84.79 
  -2   6  -6  771.42   89.09 
   6   2  -6  566.04   93.09 
   2  -6  -6  792.22   76.69 
  -2   6  -6  578.34   75.09 
   6   2  -6  613.74   76.69 
  -2   6  -6  683.73   81.89 
  -6  -2  -6  689.23   77.39 
  -2   6   6  704.13   77.29 
   2  -6   6  811.62   74.79 
   2  -6   6  751.62   74.49 
   2  -6   6  753.12   76.59 
   6   2   6  750.02   81.29 
   6   2   6  579.54   75.19 
  -6  -2   6  840.22   76.79 
  -6  -2   6  700.63   75.99 
  -6  -2   6  799.92   76.29 
   6   0  -6 1094.29  130.19 
   0  -6  -6 1365.46  130.59 
   0   6  -6 1242.08  133.99 
  -6   0  -6 1198.98  128.99 
   0  -6  -6 1155.38  131.49 
   0  -6  -6 1457.65  141.19 
  -6   0  -6 1459.45  127.59 
  -6   0  -6 1085.79  127.19 
   6   0  -6 1148.29  134.19 
  -6   0  -6 1013.30  135.59 
  -6   0  -6 1333.57  133.39 
   0   6  -6 1134.99  129.79 
   6   0  -6 1012.00  139.79 
   0   6  -6 1224.28  132.19 
  -6   0  -6 1190.78  128.99 
   6   0  -6 1256.77  133.19 
   0   6   6 1262.27  131.99 
  -6   0   6 1442.66  130.59 
   0  -6   6 1273.97  135.19 
  -6   0   6 1412.76  131.99 
   6   0   6 1267.77  128.89 
   6   0   6 1490.65  138.29 
   6   0   6 1195.98  127.59 
   0  -6   6 1390.46  129.49 
   0   6   6 1180.68  134.09 
  -6   0   6 1180.48  129.69 
   2   6  -6  565.94   74.99 
   6  -2  -6  621.84   75.69 
  -6   2  -6  746.43   79.79 
  -6   2  -6  599.14   76.09 
  -2  -6  -6  805.42   89.19 
  -6   2  -6  703.43   81.49 
  -2  -6  -6  794.82   76.49 
   2   6  -6  697.33   78.69 
  -6   2  -6  819.02   76.39 
   2   6  -6  629.24   76.19 
  -2  -6  -6  738.93   77.39 
   2   6  -6  569.44   77.39 
  -6   2   6  695.13   75.69 
   2   6   6  632.54   78.99 
   6  -2   6  704.13   76.69 
  -6   2   6  833.32   76.69 
   2   6   6  727.33   78.39 
   2   6   6  650.83   83.29 
  -2  -6   6  800.32   75.79 
  -2  -6   6  799.32   74.69 
   4   6  -6 1172.98  135.59 
  -4  -6  -6 1370.56  147.79 
  -4  -6  -6 1341.77  134.79 
   4   6  -6 1176.78  135.29 
  -6   4  -6 1520.75  140.19 
  -6   4  -6 1297.57  142.59 
   4   6  -6 1125.89  131.79 
   6  -4  -6 1133.69  133.29 
   4   6   6 1208.08  134.69 
  -6   4   6 1301.47  134.09 
   6  -4   6 1390.86  134.39 
   4   6   6 1336.57  138.29 
   4   6   6 1064.29  135.29 
  -6   4   6 1234.88  133.49 
  -4  -6   6 1462.35  133.69 
   6   6  -6  395.86   46.30 
   6   6  -6  430.86   52.79 
   6   6  -6  353.36   50.89 
  -6   6  -6  369.36   44.20 
   6  -6  -6  518.75   49.10 
  -6  -6  -6  437.46   49.70 
  -6  -6  -6  563.94   67.49 
   6  -6  -6  379.36   49.10 
  -6  -6  -6  466.95   45.20 
   6  -6   6  476.55   50.69 
  -6  -6   6  467.85   50.29 
   6   6   6  404.46   51.69 
  -6  -6   6  382.66   48.60 
  -6   6   6  397.46   49.50 
   7   5  -6   -3.70   12.10 
  -7  -5  -6    5.60   18.20 
   5  -7  -6    5.90   12.90 
  -7  -5  -6    4.80    7.50 
   5  -7  -6    1.20    8.90 
  -5   7  -6    4.30    8.20 
   5  -7  -6   -4.80   29.10 
  -7  -5  -6    7.30   15.20 
   7   5  -6   -2.50   10.60 
  -5   7  -6  -19.80   17.80 
   5  -7  -6   -1.50    6.50 
  -7  -5  -6    1.40   18.80 
  -7  -5   6    7.00    7.80 
   7   5   6   15.10   12.00 
  -7  -5   6    6.70    7.10 
  -7  -5   6   18.30   23.00 
   5  -7   6   -0.30    3.50 
   5  -7   6   -5.00    7.40 
   5  -7   6    6.30    3.80 
   5  -7   6   -2.20    4.40 
  -5   7   6    6.30    8.30 
   7   5   6    7.70   12.00 
   7   3  -6  951.40  117.19 
  -7  -3  -6 1138.69  116.49 
  -3   7  -6  870.91  115.19 
  -3   7  -6 1108.39  126.19 
  -3   7  -6 1271.57  129.59 
   7   3  -6 1025.80  115.59 
   7   3  -6  971.30  111.59 
   3  -7  -6 1233.98  114.79 
   7   3  -6 1062.59  116.59 
   3  -7  -6 1047.10  115.99 
  -3   7  -6 1227.48  114.79 
  -7  -3  -6  904.51  123.79 
  -7  -3  -6 1097.99  111.49 
  -7  -3   6 1052.69  113.89 
   7   3   6 1067.59  113.59 
  -3   7   6 1075.39  115.79 
   7   3   6 1202.08  122.39 
   3  -7   6 1176.88  112.29 
   3  -7   6 1154.28  115.29 
  -7  -1  -6  277.07   32.20 
  -1   7  -6  259.07   44.10 
   7   1  -6  254.47   35.80 
   1  -7  -6  324.27   34.20 
   7   1  -6  229.88   56.09 
  -7  -1  -6  203.08   33.80 
  -7  -1  -6  265.67   42.50 
  -1   7  -6  302.37   38.40 
  -7  -1  -6  353.26   40.30 
   7   1  -6  312.27   39.80 
   7   1  -6  250.07   33.90 
   1  -7  -6  263.17   35.70 
  -7  -1  -6  309.07   31.20 
  -1   7  -6  212.48   32.80 
  -1   7   6  381.86   45.30 
   7   1   6  240.28   30.60 
  -1   7   6  319.47   36.30 
  -7  -1   6  271.57   33.00 
  -7  -1   6  328.87   34.00 
   7   1   6  316.67   36.20 
   1  -7   6  299.17   33.50 
   7   1   6  245.28   31.90 
   1  -7   6  308.77   32.40 
   1   7  -6  260.27   35.40 
  -7   1  -6  357.26   38.50 
   1   7  -6  247.88   38.60 
  -7   1  -6  240.08   34.20 
   7  -1  -6  246.78   34.50 
   1   7  -6  287.37   40.10 
   7  -1  -6  377.56   44.60 
  -1  -7  -6  400.26   50.79 
  -1  -7  -6  324.87   35.20 
  -7   1  -6  294.17   31.40 
   7  -1  -6  409.86   41.10 
   7  -1  -6  215.18   47.00 
  -7   1  -6  294.27   31.10 
  -7   1  -6  292.67   32.70 
  -7   1  -6  298.77   43.20 
  -7   1  -6  255.57   32.90 
  -7   1   6  264.07   34.50 
   1   7   6  269.97   37.70 
   7  -1   6  273.27   30.90 
  -1  -7   6  328.77   34.20 
  -7   1   6  318.57   35.20 
   7  -1   6  270.37   34.80 
   1   7   6  333.17   39.00 
  -1  -7   6  345.87   34.60 
   3   7  -6  954.20  125.89 
  -3  -7  -6 1339.77  123.99 
  -7   3  -6 1252.67  128.09 
  -7   3  -6 1280.27  130.59 
   3   7  -6 1127.69  126.89 
   7  -3  -6 1033.50  123.09 
   3   7  -6 1110.99  124.89 
  -7   3  -6 1229.38  126.09 
   7  -3   6 1176.78  123.29 
  -3  -7   6 1160.08  122.89 
   3   7   6 1077.69  125.89 
  -7   3   6 1190.98  123.39 
   3   7   6 1171.08  127.69 
   3   7   6 1122.69  129.49 
  -7   3   6 1274.77  124.19 
  -5  -7  -6   10.00    7.90 
   5   7  -6    6.50   11.80 
  -5  -7  -6   -0.80   21.30 
   7  -5  -6   30.30   32.10 
   7  -5  -6    3.40    8.40 
  -7   5  -6    6.30   15.10 
  -5  -7  -6   18.30   22.90 
  -7   5  -6   26.50   31.90 
   5   7  -6   -0.70   11.90 
  -7   5  -6   17.80   21.00 
   5   7  -6    8.00   13.10 
   5   7   6    6.90   12.70 
  -7   5   6    2.10    9.10 
   7  -5   6    8.30    8.40 
   5   7   6  -22.90   16.80 
  -5  -7   6  -11.90   23.10 
   5   7   6   -0.60    9.60 
  -7   5   6   26.40   19.10 
  -5  -7   6    5.60    8.10 
  -7   5   6    8.50    8.00 
   5   7   6  -13.20   14.60 
  -7   7  -6  218.28   39.70 
  -7  -7  -6  188.58   31.20 
   7   7  -6  198.88   35.20 
   7   7  -6  288.47   39.20 
   7  -7  -6  279.27   29.90 
  -7  -7  -6  239.98   51.99 
   7  -7  -6  131.69   28.90 
  -7  -7  -6  332.57   51.29 
  -7  -7   6  204.38   29.40 
  -7  -7   6  189.08   28.80 
   7   7   6  221.18   39.50 
  -7   7   6  171.08   31.90 
   7   7   6  253.77   36.90 
   7  -7   6  206.88   31.00 
   6  -8  -6   30.80   10.70 
  -8  -6  -6   45.70   13.00 
   8   6  -6    7.00   17.40 
  -6   8  -6    2.50   28.90 
   6  -8  -6   63.49   45.70 
   6  -8  -6   17.40   13.90 
  -8  -6  -6   34.40   26.80 
  -6   8  -6    0.70    8.90 
  -8  -6  -6    3.80   24.00 
  -8  -6   6   13.10   10.30 
   6  -8   6    8.90   11.10 
   6  -8   6   26.30    6.20 
  -6   8   6    9.10   12.50 
   6  -8   6   17.50    5.50 
  -8  -6   6   25.90   32.30 
  -8  -6   6   13.40   10.40 
   8   6   6   25.20   18.20 
   8   4  -6    8.60   55.09 
  -8  -4  -6   43.70   10.50 
  -8  -4  -6   43.70   20.10 
  -4   8  -6    5.20   11.80 
   4  -8  -6   28.60   13.20 
  -4   8  -6   41.80   24.40 
   8   4  -6   31.00   14.30 
   8   4  -6   19.70   16.30 
   4  -8  -6   80.49   40.40 
   8   4  -6   43.10   16.90 
  -8  -4  -6   59.99   25.80 
  -8  -4  -6   56.09   18.30 
   4  -8  -6   42.00   10.90 
  -4   8  -6   28.30   36.20 
   8   4   6   30.70   12.30 
  -8  -4   6   26.60   10.10 
   4  -8   6   27.40    7.50 
  -8  -4   6   49.10   32.10 
   8   4   6    9.30   27.30 
  -8  -4   6   43.00   11.30 
   8   4   6   27.60   13.20 
  -4   8   6   26.00   12.80 
   4  -8   6   31.70    7.70 
   4  -8   6   26.50   11.70 
  -2   8  -6    5.70   19.00 
   2  -8  -6   84.39   28.10 
  -8  -2  -6   34.20   20.90 
  -8  -2  -6   29.00    8.10 
   2  -8  -6   42.40   14.00 
  -8  -2  -6   54.19   17.40 
  -2   8  -6   29.80   15.40 
   8   2  -6   50.69   17.60 
  -8  -2  -6   32.40    7.90 
   8   2  -6   31.60   11.70 
   2  -8  -6   81.09   34.40 
   2  -8  -6   31.00   10.00 
  -8  -2  -6   51.29   16.70 
   8   2  -6   36.30   14.30 
  -2   8   6   60.29   15.20 
  -8  -2   6   39.10    9.70 
   2  -8   6   50.39   11.60 
   8   2   6   24.40   14.50 
   8   2   6   33.20   10.70 
   2  -8   6   29.50    8.00 
  -8  -2   6   24.90    9.20 
  -2   8   6   64.39   25.00 
   8   0  -6   78.99   38.10 
  -8   0  -6   50.89    6.90 
   0  -8  -6  128.99   38.70 
  -8   0  -6   52.99    8.70 
   0  -8  -6   62.49   14.70 
   8   0  -6   50.89   19.00 
   8   0  -6   78.79   19.90 
   0  -8  -6  105.89   31.40 
  -8   0  -6   58.79    9.30 
   0   8  -6   26.80   17.40 
   0   8  -6   30.20   11.50 
  -8   0  -6   47.80   22.90 
  -8   0  -6   78.29   17.20 
   8   0  -6   22.70   11.50 
  -8   0  -6   46.10   11.70 
   0   8  -6   11.90   15.60 
  -8   0  -6   26.50   10.80 
   0  -8   6   56.09   11.40 
   0   8   6   62.89   16.40 
   0  -8   6   52.19   10.70 
   8   0   6   56.69    9.70 
  -8   0   6   38.10   10.50 
  -8   2  -6   61.69   15.30 
  -2  -8  -6   97.19   33.50 
  -2  -8  -6   40.40   10.20 
   8  -2  -6   81.39   25.80 
  -8   2  -6   21.60    4.50 
  -8   2  -6   48.30   12.30 
   2   8  -6   30.90   13.00 
   2   8  -6   34.10   16.70 
   8  -2  -6   34.10   25.70 
   2   8  -6   26.00   17.80 
   8  -2  -6   35.20   10.50 
  -2  -8  -6   94.29   34.00 
  -8   2  -6   50.79   12.30 
  -8   2  -6   43.50   20.30 
  -2  -8   6   34.50    8.70 
   8  -2   6   30.40   10.50 
  -2  -8   6   40.50   10.50 
   2   8   6   46.20   15.20 
  -2  -8   6  107.89   39.00 
  -8   2   6   35.90   10.40 
   2   8   6   58.79   16.70 
  -8   2   6   41.40   11.60 
   8  -4  -6   50.49   31.10 
   4   8  -6   29.90   15.20 
   8  -4  -6   38.80   11.90 
  -4  -8  -6   54.59   32.40 
  -8   4  -6   30.80   17.90 
  -4  -8  -6   63.69   28.20 
  -8   4  -6   48.00   21.10 
   4   8  -6   17.20   14.60 
  -8   4  -6   49.80   30.00 
   4   8  -6   28.40   16.40 
  -4  -8  -6   18.00    9.50 
   4   8   6    0.10   25.60 
  -4  -8   6   34.10   10.60 
   4   8   6   13.70   15.80 
  -4  -8   6   83.09   38.50 
  -8   4   6   39.00   12.50 
   8  -4   6   12.70    9.30 
  -8   4   6   53.49   17.70 
  -8   4   6   12.60    8.90 
   4   8   6   29.80   16.10 
  -8   6  -6   18.60   26.20 
   8  -6  -6   92.69   45.30 
   6   8  -6    5.00   16.70 
   6   8  -6   11.20   17.70 
  -6  -8  -6   13.90   26.60 
   6   8  -6   39.00   19.00 
  -8   6  -6    9.70   20.10 
  -6  -8  -6   35.00   27.50 
  -6  -8  -6   16.50   10.90 
  -8   6  -6   30.40   21.00 
  -8   6   6   11.80   11.70 
   8  -6   6    6.70   12.80 
  -6  -8   6   22.20   31.20 
   6   8   6    5.50   17.90 
   6   8   6   12.20   11.60 
   6   8   6   23.20   21.40 
   6   8   6   30.60   22.50 
  -6  -8   6   27.30   12.20 
  -8  -8  -6   27.80   31.90 
   8  -8  -6   -8.20   15.70 
   8   8  -6  -15.40   24.20 
   8  -8  -6   10.10   15.30 
  -8  -8  -6    1.70   13.80 
   8   8  -6   -0.80   23.20 
  -8   8   6   12.50   15.00 
  -8  -8   6    7.10   13.60 
   8   8   6   35.80   25.70 
   8   8   6   -4.40   26.30 
   8  -8   6    5.80   13.70 
  -8  -8   6   36.40   36.10 
  -8  -8   6   -5.90   10.60 
   9   7  -6  234.58   42.80 
   7  -9  -6  294.37   37.60 
  -9  -7  -6  190.98   51.79 
  -7   9  -6  285.87   44.60 
   7  -9   6  300.17   35.60 
  -7   9   6  135.09   32.30 
   7  -9   6  181.78   24.50 
  -9  -7   6  183.38   31.40 
   9   7   6  265.37   41.00 
   9   7   6  157.78   38.50 
  -9  -7   6  149.29   32.10 
  -5   9  -6   33.90   39.80 
  -9  -5  -6  101.59   32.70 
  -5   9  -6   50.89   29.70 
  -9  -5  -6   28.70   28.20 
   5  -9  -6   55.39   13.50 
   9   5  -6   27.60   22.30 
  -5   9  -6   40.80   13.90 
  -9  -5  -6   21.20   11.70 
   5  -9  -6  159.58   56.19 
  -9  -5  -6   61.19   24.50 
   9   5  -6   64.29   23.50 
   9   5  -6   47.10   20.10 
   5  -9  -6   35.40   16.30 
   5  -9   6   43.80   16.10 
  -9  -5   6   46.60   13.30 
  -9  -5   6   35.20   13.10 
   9   5   6   45.20   16.50 
  -5   9   6   55.69   18.30 
   9   5   6   80.79   21.20 
   5  -9   6   28.70    8.50 
   9   3  -6  264.97   44.20 
   9   3  -6  284.37   47.40 
  -9  -3  -6  436.66   51.59 
  -9  -3  -6  356.76   55.89 
   9   3  -6  509.65   87.29 
  -9  -3  -6  320.37   46.70 
  -9  -3  -6  377.06   39.40 
  -3   9  -6  443.96   45.20 
   3  -9  -6  370.26   41.50 
   9   3  -6  351.76   45.00 
   9   3  -6  286.37   36.70 
   3  -9  -6  247.78   44.00 
  -9  -3   6  350.26   41.40 
   9   3   6  270.87   39.60 
   9   3   6  362.86   43.60 
  -9  -3   6  314.27   46.80 
   9   3   6  339.27   48.40 
   3  -9   6  362.36   41.90 
   3  -9   6  384.56   39.30 
   9   1  -6  337.17   43.20 
  -1   9  -6  170.08   32.80 
  -1   9  -6  185.38   40.50 
  -9  -1  -6  287.37   29.80 
  -9  -1  -6  238.38   29.40 
   9   1  -6  196.78   34.30 
  -1   9  -6  258.87   49.30 
   1  -9  -6  242.58   35.40 
   9   1  -6  289.87   39.20 
   1  -9  -6  293.27   38.70 
  -9  -1  -6  274.57   49.00 
   1  -9   6  273.77   31.20 
   1  -9   6  304.67   32.10 
  -1   9   6  270.17   37.30 
  -9  -1   6  212.38   31.00 
  -9  -1   6  297.97   33.20 
   9   1   6  213.58   31.40 
   1   9  -6  272.07   48.90 
   9  -1  -6  223.48   35.10 
   9  -1  -6  404.66   47.60 
  -9   1  -6  279.77   31.20 
  -9   1  -6  220.18   30.30 
  -9   1  -6  311.07   32.30 
  -9   1  -6  359.96   51.09 
  -9   1  -6  283.77   32.00 
   1   9  -6  298.07   49.90 
  -1  -9  -6  316.87   35.50 
   9  -1   6  244.98   33.30 
  -9   1   6  250.07   34.10 
  -9   1   6  299.87   36.20 
   1   9   6  272.87   41.30 
  -1  -9   6  307.27   33.90 
   9  -1   6  311.77   31.10 
  -9   3  -6  293.27   46.70 
  -9   3  -6  345.57   45.50 
   3   9  -6  347.27   53.29 
   9  -3  -6  284.37   42.60 
  -3  -9  -6  393.96   43.50 
  -9   3  -6  437.46   55.29 
  -3  -9   6  371.96   40.70 
  -3  -9   6  354.76   43.20 
   3   9   6  347.57   49.60 
  -9   3   6  378.86   45.10 
   9  -3   6  420.86   44.50 
   3   9   6  305.47   49.80 
  -9   3   6  347.67   44.70 
  -5  -9  -6   46.10    8.90 
  -9   5  -6   77.19   26.00 
  -5  -9  -6   24.20   12.30 
  -9   5  -6   69.69   25.50 
   5   9  -6   36.30   21.70 
  -5  -9  -6  117.79   39.00 
   5   9  -6   31.60   23.10 
  -9   5   6   48.90   14.40 
  -5  -9   6   31.30   13.30 
  -9   5   6   25.40   15.70 
   5   9   6   66.69   23.70 
   5   9   6   90.79   43.70 
   5   9   6   55.49   25.00 
  -5  -9   6  141.19   48.80 
   9  -7  -6  128.39   28.90 
  -9   7  -6  284.77   53.59 
  -7  -9  -6  181.38   30.20 
  -9   7   6  171.58   31.40 
   7   9   6  174.68   26.00 
   7   9   6  209.58   44.00 
   7   9   6  267.47   41.50 
  -9  -9  -6   35.50   37.60 
   9   9  -6  114.79   39.40 
   9  -9  -6    6.30   35.70 
  -9   9  -6   37.90   25.60 
  -9  -9   6   41.10   17.70 
   9   9   6   43.90   40.50 
  -9  -9   6   71.99   49.70 
  10   8  -6   17.70   41.00 
 -10  -8  -6   -6.90   32.00 
   8 -10  -6   28.60   20.20 
  -8  10  -6    3.40    9.30 
  -8  10  -6    5.70   27.30 
  10   8   6    9.30   33.00 
   8 -10   6   39.00   21.60 
  -8  10   6   -5.80   22.00 
  10   6  -6  236.38   45.10 
  10   6  -6  317.77   42.10 
  -6  10  -6   66.79   36.50 
  10   6  -6  160.28   40.90 
 -10  -6  -6  227.98   53.59 
   6 -10   6  170.48   22.80 
 -10  -6   6  173.38   29.00 
  -6  10   6  175.68   34.00 
  10   6   6  143.29   31.90 
 -10  -6   6  229.28   32.40 
   4 -10  -6   75.89   23.10 
  10   4  -6  137.89   31.80 
  -4  10  -6   68.59   38.40 
 -10  -4  -6   77.89   16.50 
 -10  -4  -6   93.99   37.80 
  10   4  -6   77.39   25.00 
  10   4  -6   59.39   24.60 
  -4  10   6   85.39   23.10 
   4 -10   6   93.89   21.20 
   4 -10   6  140.59   22.40 
  10   4   6  124.99   25.20 
  10   4   6   76.19   19.80 
 -10  -4   6   92.59   18.00 
 -10  -4   6  122.59   22.00 
   2 -10  -6   18.80   15.40 
 -10  -2  -6    9.20    8.00 
  10   2  -6   47.50   23.60 
  -2  10  -6  -18.40   22.30 
 -10  -2  -6   13.00    8.40 
  10   2  -6   34.40   16.70 
   2 -10  -6   36.40   17.40 
  10   2  -6   19.30   10.50 
   2 -10  -6   74.19   44.00 
  10   2  -6  -17.30   22.80 
 -10  -2  -6   17.20   17.50 
   2 -10  -6   59.29   30.60 
 -10  -2  -6   14.00   27.70 
  -2  10  -6   42.50   32.90 
  10   2   6   14.80   13.10 
  -2  10   6   34.00   16.40 
 -10  -2   6   20.70   11.70 
 -10  -2   6   16.20    9.30 
   2 -10   6    6.90    9.60 
   0 -10  -6  654.03   66.09 
   0  10  -6  529.45   79.79 
   0 -10  -6  583.94   67.89 
   0  10  -6  562.14   79.79 
 -10   0  -6  552.24   61.69 
  10   0  -6  482.75   65.79 
 -10   0  -6  526.25   61.69 
  10   0   6  616.84   63.79 
   0  10   6  567.74   71.49 
   0 -10   6  614.14   64.29 
 -10   0   6  578.54   65.59 
 -10   0   6  690.53   66.89 
 -10   2  -6   11.40    4.30 
 -10   2  -6   21.00   13.00 
 -10   2  -6   35.30   29.20 
  -2 -10  -6   58.89   34.60 
 -10   2  -6   15.60   13.40 
  -2 -10  -6   22.30   34.50 
  10  -2  -6   34.60   26.90 
  10  -2  -6   19.30   12.60 
   2  10  -6   26.30   18.50 
  10  -2  -6   38.30   30.90 
   2  10  -6    6.90   22.40 
  -2 -10  -6   14.30   10.20 
 -10   2  -6   11.30    4.30 
   2  10  -6   12.70   23.80 
 -10   2   6   19.10   13.10 
 -10   2   6    4.50    8.60 
   2  10   6   29.00   19.30 
  -2 -10   6   21.00   10.20 
  10  -2   6   27.50   10.80 
  -2 -10   6    5.00    7.10 
  -4 -10  -6  125.59   16.30 
 -10   4  -6   74.49   23.20 
 -10   4  -6  178.48   35.70 
   4  10  -6   95.29   31.90 
   4  10  -6  101.69   33.70 
   4  10  -6   88.99   29.30 
  10  -4  -6   75.69   20.20 
  -4 -10  -6  116.79   20.30 
 -10   4   6   65.79   18.80 
  -4 -10   6   86.09   19.10 
  10  -4   6  110.59   23.80 
   4  10   6   87.89   29.40 
 -10   4   6  101.99   22.60 
   4  10   6   80.29   28.30 
  -6 -10  -6  169.18   32.90 
  -6 -10  -6  201.48   23.90 
   6  10  -6  283.17   48.70 
   6  10  -6  187.58   46.40 
   6  10  -6  276.97   46.00 
 -10   6   6  186.08   32.90 
   6  10   6  218.98   35.90 
  -6 -10   6  167.38   33.60 
   6  10   6  242.28   47.30 
   6  10   6  301.47   47.80 
 -10   8  -6    3.90   49.99 
   8  10  -6   -6.50   40.50 
 -10   8  -6   15.40   22.60 
  -8 -10  -6   18.60   36.60 
   8  10  -6   16.10   34.70 
  -8 -10   6    6.20   17.50 
  -8 -10   6   49.99   44.30 
   8  10   6   25.00   39.70 
  11   7  -6   17.00   37.40 
  11   5  -6   20.70   30.50 
  -5  11  -6   -4.30   32.80 
  -5  11  -6   11.10   15.80 
   5 -11  -6    3.80   13.00 
 -11  -5  -6   18.50   31.40 
  -5  11   6  -15.20   19.40 
 -11  -5   6   -4.50   11.80 
   5 -11   6   -2.30   10.00 
   5 -11   6   12.40   13.30 
  11   5   6    9.50   20.30 
  11   3  -6  -13.10   21.80 
  -3  11  -6   42.30   38.80 
  11   3  -6   15.00   27.10 
 -11  -3  -6   -1.60    9.20 
   3 -11  -6  -32.60   19.30 
 -11  -3  -6    2.60   10.30 
   3 -11  -6   24.40   31.70 
  -3  11  -6   26.80   20.30 
 -11  -3  -6    2.90   32.00 
 -11  -3   6   -2.10   13.60 
 -11  -3   6    2.30    9.90 
  -3  11   6    0.40   19.30 
  11   3   6    2.80   19.50 
  -1  11  -6  -11.00   27.30 
   1 -11  -6   23.90   17.60 
  11   1  -6   68.69   28.20 
   1 -11  -6   20.60   10.80 
   1 -11  -6   32.20   33.30 
 -11  -1  -6   14.60    9.70 
 -11  -1  -6    1.70   31.90 
  11   1  -6   23.20   14.10 
  11   1  -6   24.00   18.20 
   1 -11  -6  -16.50   10.80 
 -11  -1  -6    6.50   10.00 
 -11  -1   6   35.50   15.70 
   1 -11   6   23.70   11.00 
  11   1   6    6.60   14.40 
   1  11  -6    8.70   31.20 
 -11   1  -6   23.90   34.20 
  11  -1  -6   14.80   13.90 
  11  -1  -6   23.60   16.20 
  -1 -11  -6   15.20   10.00 
  11  -1  -6  -16.80   28.40 
 -11   1  -6    1.10    8.00 
  -1 -11  -6   33.40   34.60 
 -11   1  -6   17.70    7.00 
  -1 -11  -6   18.90   11.70 
 -11   1   6    8.00   13.90 
   1  11   6   23.30   20.50 
  -1 -11   6    9.20    9.00 
  11  -1   6   26.20   12.00 
  -3 -11  -6    1.00   12.00 
  11  -3  -6   19.20   16.80 
  -3 -11  -6    2.70    8.50 
  -3 -11  -6   15.90   30.70 
   3  11  -6    1.60   30.80 
 -11   3  -6  -18.80   17.90 
   3  11  -6   -7.10   32.90 
  -3 -11  -6   14.80   41.60 
 -11   3  -6    2.40   30.00 
  11  -3  -6   -3.80   14.10 
  11  -3   6   10.80   14.30 
  -3 -11   6    7.50    8.40 
   3  11   6   13.90   22.70 
 -11   3   6   56.09   15.70 
   3  11   6   18.00   25.70 
  11  -5  -6   -7.30   16.50 
  -5 -11  -6   -5.10   34.00 
  -5 -11  -6    0.00    7.70 
 -11   5  -6   16.40   21.80 
   5  11  -6   -9.00   35.70 
 -11   5   6   -4.60   14.20 
   5  11   6   17.10   27.70 
   5  11   6   22.70   34.30 
   5  11   6  -23.50   29.10 
  -5 -11   6   25.90   49.40 
  11  -5   6    6.60   19.30 
   7  11  -6   25.20   45.40 
  -4  12  -6   11.50   20.70 
 -12  -4  -6   61.29   15.60 
   4 -12  -6   83.19   28.20 
  12   4  -6   96.69   37.30 
  -4  12  -6   90.09   53.39 
 -12  -4  -6   88.89   47.00 
   4 -12   6   80.49   20.80 
 -12  -4   6   34.90   17.70 
  -4  12   6  -26.70   28.60 
  -2  12  -6   10.20   26.70 
  12   2  -6   60.99   35.00 
   2 -12  -6  121.89   43.80 
   2 -12  -6   28.30   14.90 
 -12  -2  -6   73.69   43.40 
  -2  12  -6   98.89   49.20 
 -12  -2   6    8.60   12.30 
   2 -12   6   48.50   13.50 
  -2  12   6   18.40   24.30 
 -12   0  -6  136.59   51.39 
   0 -12  -6  107.49   18.80 
   0  12  -6  110.19   44.30 
 -12   0  -6   65.79   14.10 
   0  12  -6  129.79   47.10 
 -12   0  -6   63.69   14.40 
  12   0  -6   89.19   22.50 
 -12   0   6   84.59   19.30 
  12   0   6   98.99   20.40 
   0  12   6   91.29   30.40 
   0 -12   6   89.09   17.30 
  -2 -12  -6   74.59   45.80 
   2  12  -6  -15.30   34.30 
 -12   2  -6   60.09   39.60 
  -2 -12  -6   47.30   13.40 
  -2 -12  -6   26.80   15.80 
   2  12  -6   -6.80   38.20 
  12  -2  -6   13.00   19.50 
  12  -2   6   15.00   15.90 
  -2 -12   6   39.40   11.70 
   2  12   6   55.59   29.80 
 -12   2   6   27.90   13.20 
   4  12  -6   99.89   52.69 
  12  -4  -6   28.60   22.00 
   4  12  -6   70.79   45.50 
  -4 -12  -6   44.40   12.60 
  -4 -12  -6  117.99   46.40 
 -12   4  -6   14.20   25.50 
  12  -4   6   55.99   24.10 
   4  12   6  107.09   33.20 
   4  12   6   63.09   33.20 
 -12   4   6   77.19   29.70 
  -4 -12   6   87.69   68.19 
   0   1  -7   -2.10    1.80 
  -1   0  -7    3.60    2.90 
   1   0  -7   -3.50    5.90 
   0  -1  -7   -2.50    2.20 
   0   1  -7    4.00    3.50 
   0   1  -7   -1.00    3.30 
   0  -1  -7    7.80    6.70 
   0  -1  -7    4.50    3.60 
   1   0  -7    2.60    3.70 
   0   1  -7    3.90    3.20 
   1   0  -7    8.60    3.20 
   0  -1  -7   -4.90    5.00 
  -1   0  -7    1.10    5.80 
   0   1  -7   -3.50    5.10 
  -1   0  -7    5.30    2.40 
   0  -1  -7    1.50    3.30 
   1   0  -7    4.40    3.50 
  -1   0  -7   -3.70    2.40 
  -1   0   7   -0.60    2.40 
  -1   0   7    2.70    3.80 
  -1   0   7    3.20    6.70 
   1   0   7    0.20    2.10 
   0   1   7    1.30    2.60 
   0   1   7    0.70    6.10 
   1   0   7    4.00    6.20 
   0   1   7   -1.60    3.70 
   1   0   7    3.40    2.10 
  -1   0   7   17.60    4.40 
   0   1   7   -0.10    2.40 
   1   0   7    3.50    3.60 
   0  -1   7   -0.30    1.90 
   0  -1   7   -1.70    3.00 
   1  -2  -7   66.39   12.10 
   1  -2  -7   79.69   13.50 
  -2  -1  -7   74.79   11.00 
   1  -2  -7   91.59   15.20 
   2   1  -7   83.39   12.10 
  -1   2  -7   84.89   12.10 
   2   1  -7   79.39   11.70 
  -1   2  -7   76.49   11.70 
  -2  -1  -7   71.09   10.80 
   1  -2  -7   94.89   12.30 
  -1   2  -7   77.19   10.20 
  -2  -1  -7   76.29   11.40 
  -2  -1  -7   80.39   11.50 
   2   1  -7   80.69   15.40 
  -2  -1  -7   67.39   17.00 
   2   1  -7   80.29   13.40 
   1  -2  -7   77.39   18.00 
  -2  -1  -7   81.29   16.00 
  -1   2  -7   81.49   16.40 
  -1   2   7   96.59   15.00 
   2   1   7   90.09   17.70 
   1  -2   7   91.29   11.60 
   1  -2   7   78.19   10.10 
   2   1   7   92.79   11.40 
   1  -2   7   85.89   10.20 
  -1   2   7   92.19   11.90 
  -1   2   7  117.89   19.60 
  -2  -1   7   91.69   11.70 
  -2  -1   7   84.69   11.40 
  -2  -1   7  104.19   12.50 
   1  -2   7   84.09   10.00 
   2   1   7   99.79   14.90 
  -1   2   7   88.59   11.70 
   2  -1  -7   97.29   20.00 
   1   2  -7   71.99   11.60 
  -1  -2  -7   81.29   12.20 
  -2   1  -7   89.89   10.60 
   1   2  -7   94.39   12.60 
  -2   1  -7   82.29   10.50 
   2  -1  -7   91.99   13.50 
  -1  -2  -7   92.69   18.30 
   1   2  -7   96.89   17.00 
  -1  -2  -7   90.49   16.30 
   2  -1  -7   80.79   12.10 
   2  -1  -7   81.89   12.50 
  -1  -2  -7   89.59   13.10 
  -2   1  -7   87.19   11.70 
  -2   1  -7   84.29   17.00 
   1   2  -7   93.69   13.00 
  -1  -2  -7   73.89   11.60 
  -2   1  -7   90.69   12.20 
   1   2   7   87.49   12.30 
  -2   1   7   93.29   12.10 
  -2   1   7  104.09   12.50 
  -2   1   7   83.69   16.20 
   2  -1   7   98.99   10.60 
   1   2   7  108.59   13.30 
  -1  -2   7   83.19   11.50 
  -1  -2   7   92.69   11.70 
   2  -1   7   88.99   11.70 
  -1  -2   7  104.59   12.40 
  -2   1   7   86.99   14.50 
  -1  -2   7   89.89   11.80 
  -3  -2  -7   98.19   13.60 
   2  -3  -7   73.79   13.60 
   2  -3  -7   76.09   20.30 
   3   2  -7   84.29   17.80 
   2  -3  -7  111.69   14.40 
  -3  -2  -7   63.59   10.60 
  -3  -2  -7   59.59   17.20 
  -2   3  -7   71.19   13.00 
  -3  -2  -7   74.19   18.60 
   2  -3  -7   54.69   11.30 
  -2   3  -7   71.99   12.60 
   3   2  -7   48.20   11.50 
   3   2  -7   62.09   11.70 
  -2   3  -7   62.99    8.40 
   2  -3  -7   62.49   11.70 
  -3  -2  -7   47.60    9.10 
   3   2   7   70.69   12.10 
   2  -3   7   63.99    8.30 
  -3  -2   7   74.79   11.70 
   3   2   7   67.19   17.40 
   2  -3   7   75.99   10.30 
   2  -3   7   66.99    8.30 
  -3  -2   7   65.69   11.00 
  -3  -2   7   75.49   10.80 
   2  -3   7   67.59    8.40 
  -2   3   7   78.99   12.30 
  -2   3   7   72.39   11.70 
  -2   3   7  103.09   23.70 
   3   2   7   91.29   21.00 
  -2   3   7   47.70   13.30 
  -3  -2   7   79.29   12.00 
  -3   0  -7    0.30    2.20 
  -3   0  -7   -2.60    2.30 
   0  -3  -7    4.60    4.40 
  -3   0  -7   -2.60    2.60 
   0  -3  -7    2.80    5.00 
  -3   0  -7    5.90    3.00 
  -3   0  -7    4.70    3.80 
   3   0  -7    1.40    4.80 
   0  -3  -7    0.50    6.20 
   0   3  -7    3.60    4.50 
   3   0  -7   -5.00    6.20 
   0  -3  -7   -2.80    2.90 
   0  -3  -7   -0.40    4.90 
   0  -3  -7    2.90    9.40 
   3   0  -7    4.00    5.20 
   0   3  -7   11.70   13.70 
  -3   0  -7    4.40    6.40 
   0   3  -7    3.90    4.60 
   3   0  -7    3.70    3.90 
   0   3  -7   -0.70    2.60 
   0   3   7   12.50    7.30 
   0   3   7    3.60    3.80 
   3   0   7    0.20    6.20 
  -3   0   7    2.50    7.10 
   3   0   7   -3.90    2.60 
  -3   0   7   -1.30    4.90 
   0  -3   7    7.40    3.20 
  -3   0   7    2.50    3.30 
  -3   0   7    0.20    3.30 
   0  -3   7   -1.80    2.50 
   0  -3   7   -3.50    3.40 
  -2  -3  -7   59.89   10.70 
  -3   2  -7   65.39    7.40 
   3  -2  -7   79.09   18.60 
  -3   2  -7   62.59    7.10 
  -2  -3  -7   71.29   11.10 
   3  -2  -7   77.39   12.10 
  -2  -3  -7   89.19   13.60 
   2   3  -7   61.49   11.10 
  -2  -3  -7   50.29   18.00 
   2   3  -7   68.59   12.70 
  -3   2  -7   62.89   11.00 
   3  -2  -7   55.69   12.60 
  -3   2  -7   62.39   16.00 
   2   3  -7   54.99   10.80 
   2   3  -7   73.99   24.20 
  -3   2  -7   73.89   11.70 
  -2  -3  -7   68.19   12.80 
  -2  -3  -7   65.99   17.30 
  -3   2   7   67.09   11.40 
  -3   2   7   56.79   10.50 
   2   3   7   70.09   18.70 
   2   3   7   83.99   13.20 
  -2  -3   7   82.89   10.60 
   3  -2   7   62.19   10.60 
  -2  -3   7   63.89   10.70 
  -2  -3   7   65.29   10.40 
  -3   2   7  102.89   19.60 
  -2  -3   7   64.39    9.80 
   2   3   7   67.89   11.90 
  -3   2   7   88.99   15.00 
   3  -4  -7   30.70   10.00 
  -4  -3  -7   25.70    7.00 
   4   3  -7   13.50    6.50 
  -4  -3  -7    1.80   10.90 
  -3   4  -7    9.80    7.60 
   3  -4  -7   11.10   15.90 
  -4  -3  -7   17.50    8.30 
  -3   4  -7   12.30    3.50 
   4   3  -7   10.80    9.40 
   3  -4  -7   10.00    6.10 
   3  -4  -7    5.30    8.00 
   4   3  -7   14.10    6.40 
  -4  -3  -7   26.40   13.90 
   4   3   7    9.00    5.10 
  -4  -3   7   10.30    6.50 
  -3   4   7   13.40    5.80 
   3  -4   7    9.30    2.60 
   4   3   7   16.80    7.80 
   3  -4   7   32.70    7.40 
  -3   4   7   15.20   14.30 
  -4  -3   7    9.20    5.40 
   3  -4   7   16.40    3.30 
   4   3   7   15.20    4.00 
  -3   4   7    4.10    5.40 
   3  -4   7    9.90    3.00 
  -4  -3   7   11.40    5.40 
   4   3   7    5.40   16.20 
  -1   4  -7  290.17   31.20 
  -4  -1  -7  269.97   31.40 
  -1   4  -7  268.37   46.00 
   4   1  -7  299.67   45.50 
   4   1  -7  265.17   33.50 
  -4  -1  -7  243.98   30.10 
  -1   4  -7  262.67   32.70 
   4   1  -7  280.77   36.50 
   1  -4  -7  281.97   37.20 
   1  -4  -7  305.67   39.30 
  -4  -1  -7  268.27   31.30 
  -1   4  -7  263.47   33.70 
  -4  -1  -7  243.98   38.00 
  -4  -1  -7  255.97   37.00 
   4   1  -7  294.07   33.40 
  -4  -1  -7  291.87   32.20 
   1  -4  -7  325.07   44.20 
   1  -4  -7  279.17   33.50 
   4   1  -7  242.28   32.50 
   1  -4  -7  275.47   32.30 
   1  -4   7  267.97   30.90 
   1  -4   7  304.27   30.70 
  -1   4   7  265.17   35.70 
   1  -4   7  316.67   31.10 
   4   1   7  310.07   31.50 
   1  -4   7  311.57   32.20 
  -4  -1   7  318.77   32.70 
  -1   4   7  280.27   32.80 
   4   1   7  309.47   37.60 
   4   1   7  347.37   40.70 
  -1   4   7  352.86   45.80 
  -4  -1   7  268.77   32.20 
  -4  -1   7  309.07   32.80 
   4  -1  -7  294.97   33.50 
  -4   1  -7  277.77   29.70 
   4  -1  -7  306.17   43.10 
   4  -1  -7  275.97   37.90 
   1   4  -7  276.57   33.10 
  -1  -4  -7  316.87   33.40 
  -4   1  -7  284.17   31.50 
  -1  -4  -7  264.67   34.10 
  -1  -4  -7  277.77   34.20 
  -1  -4  -7  360.86   34.20 
   1   4  -7  246.38   33.90 
   4  -1  -7  259.57   34.30 
  -4   1  -7  267.37   38.00 
   1   4  -7  263.97   32.50 
  -4   1  -7  305.97   38.40 
  -4   1  -7  286.57   29.60 
   4  -1  -7  284.47   33.20 
  -1  -4  -7  263.07   39.20 
   1   4  -7  250.57   45.20 
  -4   1  -7  290.47   30.10 
  -1  -4  -7  287.47   42.90 
  -4   1   7  277.77   32.80 
  -4   1   7  281.87   34.20 
  -1  -4   7  294.07   32.60 
   1   4   7  342.97   49.10 
  -4   1   7  326.37   37.10 
   4  -1   7  298.37   32.40 
  -4   1   7  291.07   33.20 
  -1  -4   7  317.67   31.90 
   1   4   7  373.96   41.40 
   1   4   7  266.97   35.30 
  -1  -4   7  322.17   32.40 
   1   4   7  275.87   33.60 
  -1  -4   7  271.67   32.00 
   4  -3  -7   10.90    5.90 
  -3  -4  -7   15.70    5.90 
   3   4  -7   16.10    6.50 
  -4   3  -7    9.40   11.90 
   3   4  -7    5.80    6.80 
  -3  -4  -7   11.00   14.40 
  -3  -4  -7    6.90   12.50 
   4  -3  -7   10.60    7.30 
   4  -3  -7   13.70    8.90 
   4  -3  -7   -5.60   10.90 
   3   4  -7   17.80    6.80 
  -4   3  -7    6.90    7.30 
  -3  -4  -7   18.40    8.80 
   3   4   7   10.60    5.70 
   3   4   7    2.40    7.40 
   4  -3   7    9.30    5.00 
   3   4   7   41.80   23.80 
  -4   3   7   11.80    6.00 
  -3  -4   7    5.50    4.60 
  -4   3   7    5.00    5.50 
   3   4   7   15.20    7.80 
   4  -5  -7  210.08   28.50 
   5   4  -7  181.78   26.10 
  -5  -4  -7  206.28   36.30 
  -5  -4  -7  167.28   26.60 
  -4   5  -7  213.48   39.40 
  -4   5  -7  224.68   31.20 
  -5  -4  -7  201.58   24.60 
   4  -5  -7  167.08   24.60 
   5   4  -7  172.38   25.80 
  -5  -4  -7  181.18   21.80 
   5   4  -7  155.98   22.50 
  -5  -4  -7  178.98   40.20 
   4  -5   7  228.08   25.10 
   4  -5   7  191.98   20.00 
  -4   5   7  167.28   23.90 
  -5  -4   7  174.18   23.50 
   5   4   7  171.38   26.60 
   5   4   7  255.67   47.50 
  -5  -4   7  212.08   24.30 
   4  -5   7  203.98   19.90 
   5   4   7  139.49   24.30 
  -2   5  -7   27.70   21.50 
   2  -5  -7   56.89   16.90 
   2  -5  -7   25.50    9.80 
   5   2  -7   45.30   10.50 
  -5  -2  -7   53.49   17.50 
  -2   5  -7   56.39   10.50 
  -5  -2  -7   34.00    8.70 
   2  -5  -7   80.49   15.30 
  -5  -2  -7   36.00   10.90 
  -2   5  -7   66.19   14.90 
  -2   5  -7   64.39    9.30 
   5   2  -7   43.00   13.90 
   5   2  -7   41.40   11.30 
   2  -5  -7   93.59   26.40 
  -5  -2  -7   51.19    9.00 
   2  -5  -7   39.60    9.10 
  -5  -2  -7   32.70   17.20 
   5   2   7   45.70    9.00 
   2  -5   7   48.70    9.90 
  -5  -2   7   52.69   10.30 
   2  -5   7   53.29    8.60 
   5   2   7   48.30   10.20 
   5   2   7   62.99   18.40 
  -5  -2   7   75.99   18.20 
   2  -5   7   54.89    7.70 
  -2   5   7   38.10    9.80 
  -5  -2   7   46.50    9.90 
   0   5  -7   21.80   22.20 
   0  -5  -7   -3.80    4.00 
  -5   0  -7    2.10    9.20 
  -5   0  -7    0.70    2.00 
   5   0  -7   -1.10    4.70 
  -5   0  -7    0.00    5.00 
  -5   0  -7    4.70    4.00 
  -5   0  -7    1.80    7.80 
  -5   0  -7    2.80    2.90 
   5   0  -7    0.00    8.30 
   0  -5  -7    8.80    7.40 
   0   5  -7   13.50    6.90 
   5   0  -7   -1.20   19.10 
   0   5  -7    2.60    4.00 
   0  -5  -7   -1.70    8.30 
   0  -5  -7   11.00   13.70 
   0  -5  -7   -5.90   11.30 
   0   5  -7    1.60    6.80 
  -5   0   7    3.00    6.70 
   0  -5   7    0.30    3.60 
  -5   0   7    0.90    4.40 
   5   0   7    3.70    2.50 
   0   5   7    4.70    5.80 
   0   5   7    6.70   11.80 
  -5   0   7    2.00    4.30 
   0   5   7    4.00   11.30 
   0  -5   7    2.10    3.10 
   0  -5   7    6.40    4.40 
  -2  -5  -7   45.30   20.20 
  -5   2  -7   56.39   10.60 
   2   5  -7   55.29   16.60 
   2   5  -7   61.19   13.80 
  -5   2  -7   48.80   15.50 
   5  -2  -7   40.50   10.00 
   5  -2  -7   65.19   19.20 
  -5   2  -7   43.30   15.70 
  -2  -5  -7   59.29   14.50 
  -5   2  -7   33.10    9.80 
   5  -2  -7   61.69   20.40 
  -2  -5  -7   58.29   11.00 
  -2  -5  -7   65.39   21.50 
   5  -2  -7   36.80   12.40 
   2   5  -7   48.20   11.70 
   2   5   7   46.60   12.80 
  -5   2   7   58.39   11.20 
   2   5   7   45.70   10.90 
  -2  -5   7   40.30    9.00 
  -5   2   7   45.10   10.00 
  -5   2   7   65.49   15.10 
   2   5   7   71.49   16.60 
  -4  -5  -7  198.98   37.40 
   4   5  -7  216.28   28.70 
  -4  -5  -7  179.18   27.30 
   5  -4  -7  148.09   24.90 
  -4  -5  -7  250.37   40.20 
   5  -4  -7  214.18   26.50 
  -4  -5  -7  226.38   26.10 
   4   5  -7  165.58   23.70 
  -5   4  -7  187.08   36.00 
  -5   4  -7  243.48   35.60 
   4   5  -7  192.58   26.80 
   4   5   7  197.48   30.80 
  -5   4   7  206.98   26.00 
  -4  -5   7  191.48   25.70 
  -4  -5   7  241.18   26.00 
  -5   4   7  200.08   25.10 
   4   5   7  170.58   25.70 
   4   5   7  174.58   26.50 
   5  -4   7  186.28   25.20 
   5  -6  -7  147.39   40.40 
  -5   6  -7   32.80   23.00 
   6   5  -7   54.49   15.30 
  -6  -5  -7   58.79   12.80 
  -6  -5  -7   37.30    8.70 
  -6  -5  -7  109.99   29.30 
  -5   6  -7   29.50   25.80 
   6   5  -7   61.19   10.60 
   5  -6  -7   58.49   17.20 
  -6  -5  -7   38.60   24.70 
   6   5  -7   42.70   13.90 
   5  -6  -7   39.10   12.80 
   6   5   7   43.40   14.00 
   5  -6   7   47.70   12.00 
  -6  -5   7   33.40   10.40 
  -6  -5   7   82.09   32.80 
  -5   6   7   32.90   10.70 
  -6  -5   7   60.79   11.90 
  -3   6  -7    5.30    5.80 
  -6  -3  -7    9.30    5.60 
   6   3  -7   15.90    9.80 
  -3   6  -7   28.50   22.10 
   3  -6  -7   40.60   16.60 
   6   3  -7   21.00    8.90 
   6   3  -7    6.20    6.80 
  -6  -3  -7   15.20    5.90 
   6   3  -7   19.70   12.10 
   3  -6  -7    7.10    7.90 
  -6  -3  -7    4.60   11.70 
  -6  -3  -7   12.60   15.00 
  -6  -3  -7    1.20   13.80 
  -3   6  -7   18.40   15.00 
   3  -6  -7   36.80   22.50 
   3  -6   7   17.60    4.80 
  -3   6   7   15.30    7.80 
   6   3   7   21.60    8.00 
  -6  -3   7   17.80    7.20 
   3  -6   7   19.00    5.60 
   3  -6   7   18.80    7.50 
   6   3   7   16.30    7.60 
   6   3   7    5.60   18.80 
  -6  -3   7   17.50    6.80 
  -6  -1  -7   47.40    9.90 
  -6  -1  -7   56.29   11.40 
   1  -6  -7   46.60   19.10 
   6   1  -7   54.89   14.40 
  -6  -1  -7   48.80    8.20 
   1  -6  -7  105.19   29.10 
   1  -6  -7   55.89   13.50 
   1  -6  -7   58.49   11.50 
   6   1  -7   49.10   33.20 
  -6  -1  -7   54.09   20.50 
  -1   6  -7   69.09   14.30 
   6   1  -7   43.90   11.70 
  -6  -1  -7   58.09   17.70 
   6   1  -7   59.79   15.40 
  -1   6  -7   41.50    9.70 
  -1   6  -7   59.09   16.10 
  -1   6   7   44.70   11.80 
  -6  -1   7   48.70   10.60 
  -6  -1   7   50.99   10.90 
  -1   6   7   53.39   18.50 
   6   1   7   50.99    8.90 
   6   1   7   82.09   17.50 
   1  -6   7   53.39    9.10 
   1  -6   7   55.39   10.90 
   6  -1  -7   74.09   16.60 
   1   6  -7   41.60   13.50 
   1   6  -7   42.30   11.80 
   1   6  -7   59.49   11.70 
  -1  -6  -7   68.79   12.10 
  -1  -6  -7   63.39   23.10 
  -6   1  -7   74.29   21.00 
  -6   1  -7   55.09    6.60 
  -6   1  -7   42.10    6.70 
  -6   1  -7   40.10   10.80 
  -6   1  -7   52.49   15.30 
   6  -1  -7   32.60   22.70 
   1   6  -7   48.50   13.00 
   6  -1  -7   42.90   17.00 
  -6   1  -7   65.99    9.30 
   6  -1  -7   64.39   12.20 
   1   6   7   64.29   14.20 
  -1  -6   7   49.00    9.50 
   1   6   7   32.00   16.20 
  -1  -6   7   63.89   12.30 
  -6   1   7   67.19   11.90 
  -6   1   7   46.90   10.90 
  -6   3  -7   25.40   13.80 
  -3  -6  -7   26.40   19.70 
   3   6  -7   13.10    9.70 
   6  -3  -7   25.20   21.60 
   3   6  -7   20.90    9.00 
  -3  -6  -7   26.50    8.30 
  -6   3  -7    7.00   12.90 
  -3  -6  -7   31.10   13.40 
  -6   3  -7   27.30   10.60 
   6  -3  -7   27.20   15.20 
   3   6  -7   30.10   10.50 
   3   6  -7   19.60   11.00 
  -3  -6  -7   44.90   20.40 
   6  -3  -7   23.90   12.60 
  -6   3   7   28.80   14.20 
   3   6   7    3.80   14.90 
   6  -3   7    9.00    7.30 
   3   6   7   15.40    9.90 
  -3  -6   7   24.80    7.80 
  -6   3   7   12.70    7.60 
  -6   3   7   15.60    7.30 
   6  -5  -7   62.09   15.10 
   5   6  -7   34.40   11.40 
   6  -5  -7   44.40   13.40 
  -5  -6  -7   66.79   28.00 
  -5  -6  -7  102.69   30.90 
  -5  -6  -7   54.69   12.70 
  -6   5  -7   20.70   16.50 
   6  -5  -7   40.00   12.30 
   5   6  -7   38.00   14.20 
  -6   5  -7   60.39   20.80 
  -6   5   7   54.29   12.20 
  -5  -6   7   97.09   34.20 
  -6   5   7  103.59   16.30 
   5   6   7   40.60   14.10 
   6  -5   7   50.99   12.70 
   5   6   7   39.50   12.30 
   5   6   7   74.19   22.40 
  -5  -6   7   29.80   10.50 
  -5  -6   7   49.40   11.50 
   6  -7  -7   -4.60   10.10 
   6  -7  -7    7.80   35.70 
  -7  -6  -7    0.80    8.90 
   7   6  -7    5.60   14.60 
  -6   7  -7   11.60   21.10 
   7   6  -7  -18.10   15.20 
   7   6  -7   13.40    8.90 
   6  -7  -7    2.80   10.30 
  -7  -6  -7   -1.70    5.70 
  -6   7  -7   -7.20   19.90 
  -6   7  -7   -5.10   28.20 
  -7  -6  -7   -3.90   22.20 
  -7  -6   7   -2.60    9.00 
  -7  -6   7    3.90    8.20 
   7   6   7   11.40   14.00 
  -7  -6   7   18.30   28.00 
   7   6   7   -3.70   16.60 
   7   4  -7  191.98   26.50 
   7   4  -7  179.28   31.90 
  -7  -4  -7  270.77   36.10 
  -4   7  -7  184.18   28.80 
  -7  -4  -7  247.78   26.50 
  -7  -4  -7  258.77   29.30 
  -4   7  -7  269.57   51.79 
   4  -7  -7  254.97   31.40 
   4  -7  -7  232.78   31.70 
   7   4  -7  222.78   45.80 
   7   4  -7  226.18   35.50 
  -4   7  -7  238.58   46.30 
  -7  -4  -7  239.88   43.70 
  -7  -4   7  228.28   28.90 
   7   4   7  249.68   31.10 
   4  -7   7  244.38   30.20 
   7   4   7  260.07   50.69 
   7   4   7  213.98   31.40 
   4  -7   7  259.27   25.90 
  -7  -4   7  192.68   28.20 
  -4   7   7  197.88   30.10 
  -2   7  -7  200.88   33.10 
   7   2  -7  225.38   35.00 
   7   2  -7  205.28   31.60 
  -7  -2  -7  261.27   42.90 
  -2   7  -7  231.28   41.20 
  -7  -2  -7  267.07   29.40 
  -7  -2  -7  216.68   33.10 
   2  -7  -7  211.48   33.10 
  -7  -2  -7  323.37   41.00 
   7   2  -7  234.68   35.50 
  -7  -2  -7  254.67   28.70 
   2  -7  -7  297.57   31.60 
   7   2   7  249.28   30.20 
  -7  -2   7  290.47   31.40 
   2  -7   7  250.97   28.80 
  -7  -2   7  229.08   30.20 
   7   2   7  271.27   38.00 
   7   2   7  209.08   28.70 
  -2   7   7  261.37   32.80 
   2  -7   7  275.97   31.20 
  -2   7   7  309.47   40.70 
  -7   0  -7    4.30   11.80 
   0   7  -7   13.60   12.30 
   0   7  -7   -8.80    8.60 
   7   0  -7  -13.80   12.10 
   0   7  -7   -7.50    6.30 
   7   0  -7   -8.50   27.40 
   7   0  -7   -6.80   12.20 
   7   0  -7    9.20    8.00 
   0  -7  -7   -7.90   15.50 
   0  -7  -7   -2.70    8.00 
  -7   0  -7   14.60   16.20 
  -7   0  -7    4.50    5.80 
  -7   0  -7    6.60    4.10 
   0  -7  -7   21.40   21.00 
  -7   0  -7   -2.10    3.00 
  -7   0  -7   12.50    7.20 
   0  -7  -7    7.50    6.40 
   0  -7   7    3.70    4.90 
   0  -7   7   -5.30    5.00 
   0   7   7    1.20    7.70 
  -7   0   7    7.90    5.70 
   7   0   7   -0.90    3.10 
  -7   0   7    5.80    6.30 
  -2  -7  -7  371.46   50.79 
   2   7  -7  249.48   37.10 
  -7   2  -7  271.47   33.20 
  -7   2  -7  264.27   38.30 
   2   7  -7  244.38   37.90 
  -7   2  -7  283.67   42.80 
   2   7  -7  250.27   35.10 
  -2  -7  -7  280.57   33.90 
   7  -2  -7  280.77   45.50 
   7  -2  -7  344.77   41.90 
  -7   2   7  358.56   38.50 
   2   7   7  298.67   38.00 
  -7   2   7  241.88   33.50 
  -7   2   7  294.67   34.90 
  -2  -7   7  269.27   33.20 
   7  -2   7  259.67   32.90 
  -2  -7   7  294.17   32.50 
   2   7   7  262.67   43.70 
   2   7   7  244.58   37.00 
  -7   4  -7  272.07   39.90 
  -7   4  -7  251.27   35.70 
   4   7  -7  185.88   34.40 
   7  -4  -7  231.38   29.30 
   7  -4  -7  188.88   30.00 
  -7   4  -7  219.08   39.90 
   4   7  -7  161.08   30.00 
   4   7  -7  280.17   34.50 
  -4  -7  -7  326.37   49.99 
  -4  -7  -7  266.87   30.70 
   4   7  -7  241.18   37.80 
   4   7   7  227.78   35.70 
   7  -4   7  215.28   30.10 
  -7   4   7  257.37   30.30 
   4   7   7  210.28   35.90 
   4   7   7  245.88   35.90 
  -7   4   7  261.47   31.90 
  -7   6  -7   -9.40   19.20 
   6   7  -7   -1.10   10.60 
   7  -6  -7   11.30   10.90 
   6   7  -7   -4.10   14.00 
  -6  -7  -7   -5.60    8.50 
   6   7  -7    0.70   15.70 
  -7   6  -7    5.10   19.40 
  -6  -7  -7   -4.50   24.00 
   7  -6  -7   14.50   35.50 
   7  -6   7    5.50    9.30 
   6   7   7   -3.70   13.20 
  -6  -7   7   -1.60    8.30 
   6   7   7    4.00    6.60 
   6   7   7   -0.10   18.20 
   8   7  -7  187.18   35.40 
  -8  -7  -7  216.48   50.49 
   7  -8  -7   79.29   24.10 
   8   7  -7  167.48   31.80 
  -8  -7  -7  229.88   47.30 
  -8  -7  -7   98.69   23.40 
  -7   8  -7   77.99   31.80 
   8   7   7  156.48   34.80 
   8   7   7  130.49   29.90 
  -8  -7   7  236.48   57.59 
  -8  -7   7  130.19   24.20 
  -7   8   7   99.99   23.60 
  -8  -7   7  128.09   23.70 
   7  -8   7  183.48   29.50 
  -8  -5  -7  122.99   31.70 
   8   5  -7   77.69   22.60 
  -8  -5  -7   58.19   21.90 
   8   5  -7   61.99   25.00 
  -5   8  -7   40.90   13.10 
   8   5  -7   83.99   20.80 
   5  -8  -7   95.49   18.50 
  -8  -5  -7   76.99   14.90 
  -5   8  -7   69.29   33.90 
   5  -8  -7   54.09   17.50 
   8   5   7   69.79   18.80 
  -8  -5   7   71.49   16.00 
   8   5   7  100.09   20.70 
  -8  -5   7   56.59   14.70 
  -8  -5   7  147.39   43.20 
   5  -8   7   89.19   17.60 
   5  -8   7   65.09   10.70 
  -5   8   7   86.29   19.30 
   5  -8   7   75.49   12.00 
  -3   8  -7    4.50    9.40 
  -3   8  -7    4.70   21.70 
   8   3  -7   19.50    8.40 
   3  -8  -7   -3.70   11.40 
  -8  -3  -7   24.20   18.80 
   8   3  -7    3.40   11.20 
   8   3  -7   21.60   16.40 
   3  -8  -7   39.00   32.50 
  -3   8  -7   13.90   13.00 
  -8  -3  -7    8.90   23.60 
  -8  -3  -7    8.30   15.00 
  -8  -3  -7   19.60    7.20 
   3  -8  -7    9.00   22.50 
  -8  -3  -7    5.70    7.00 
   3  -8  -7    9.60    8.30 
   8   3  -7   -9.90   13.10 
  -3   8   7   10.50    8.90 
   8   3   7   15.20   10.70 
  -8  -3   7    2.50    7.50 
  -8  -3   7   20.00    8.90 
   3  -8   7   17.20    9.50 
   8   3   7    4.00    8.20 
   3  -8   7    5.20    5.80 
  -8  -1  -7   71.89   16.40 
  -8  -1  -7  150.78   27.20 
  -8  -1  -7  101.39   16.80 
   8   1  -7  101.29   23.40 
   8   1  -7   88.59   18.90 
  -8  -1  -7  115.19   14.50 
   1  -8  -7  139.09   19.20 
  -1   8  -7   70.19   22.00 
   8   1  -7  125.49   24.60 
  -8  -1  -7  106.09   30.00 
   1  -8  -7   63.49   18.30 
  -1   8  -7  113.89   28.50 
   8   1   7  103.69   15.70 
   1  -8   7  123.59   17.60 
  -1   8   7  102.99   21.20 
  -8  -1   7  114.79   18.10 
  -8  -1   7   79.19   16.60 
   1  -8   7  110.89   16.10 
   1   8  -7  104.49   24.90 
  -8   1  -7   90.49   29.10 
   1   8  -7   91.19   20.10 
   8  -1  -7   84.79   20.50 
   8  -1  -7  177.88   40.30 
  -8   1  -7  146.99   26.50 
  -1  -8  -7  209.78   38.50 
   8  -1  -7  180.98   33.10 
  -1  -8  -7  117.99   19.30 
  -8   1  -7  111.99   13.80 
  -8   1  -7  116.79   17.10 
  -8   1  -7   98.19   15.40 
   1   8  -7  104.79   24.90 
   8  -1   7  109.99   18.10 
  -8   1   7  123.89   18.20 
   1   8   7  113.29   23.40 
  -1  -8   7  107.49   18.00 
  -8   1   7  108.49   19.30 
  -1  -8   7  117.99   17.10 
  -8   3  -7   20.70   15.70 
   8  -3  -7   13.50    9.10 
  -3  -8  -7   11.20    8.20 
  -8   3  -7   22.70   12.90 
   3   8  -7   -6.00   12.10 
  -3  -8  -7   18.60   24.10 
  -3  -8  -7   50.19   29.40 
   3   8  -7   24.90   14.50 
   8  -3  -7   23.80   21.80 
   8  -3  -7   33.20   28.00 
  -8   3  -7   36.60   15.90 
   8  -3  -7   -1.00   19.40 
   3   8  -7    0.20   14.80 
  -8   3  -7   20.10   20.10 
  -3  -8   7   14.60    8.60 
  -8   3   7   -0.60    7.80 
  -8   3   7   23.60   14.80 
  -8   3   7   -1.70    9.20 
   8  -3   7    9.10    9.00 
   3   8   7    9.50   12.50 
   3   8   7    2.20   13.90 
   8  -5  -7   62.39   16.70 
   5   8  -7  115.89   25.80 
   5   8  -7   36.60   30.80 
   5   8  -7   71.69   19.60 
  -5  -8  -7  134.79   39.40 
  -8   5  -7   99.39   29.00 
  -8   5  -7  147.99   37.00 
  -8   5  -7   65.09   23.60 
  -5  -8  -7   69.29   16.40 
  -5  -8  -7   97.69   38.50 
  -8   5   7   89.49   17.90 
   5   8   7   67.79   22.20 
   5   8   7   67.79   25.20 
  -8   5   7   91.39   19.30 
  -5  -8   7   59.49   15.80 
   5   8   7   65.69   18.70 
   8  -5   7   62.99   16.30 
   5   8   7  150.78   30.50 
   7   8  -7   97.29   30.20 
  -8   7  -7  165.18   48.50 
  -7  -8  -7  179.18   51.29 
  -7  -8  -7  115.59   23.50 
  -8   7  -7  211.68   39.10 
  -7  -8  -7  253.27   51.49 
   7   8  -7  185.78   35.70 
   8  -7  -7  114.89   24.80 
  -7  -8  -7  111.99   15.90 
   7   8   7  116.99   29.70 
  -8   7   7  109.59   24.30 
  -7  -8   7  132.59   23.30 
   8  -7   7  133.49   26.50 
   7   8   7  127.69   34.30 
  -7  -8   7  126.89   24.00 
  -8   9  -7   15.10   24.20 
   9   8  -7  -26.00   29.40 
   8  -9  -7   -7.50   17.30 
  -9  -8  -7   17.90   34.30 
  -9  -8   7  -24.10   35.10 
  -9  -8   7  -12.10   12.90 
   8  -9   7    6.90   14.90 
   9   8   7   -2.70   29.60 
  -9  -8   7  -35.60   16.20 
  -8   9   7  -30.70   17.40 
  -6   9  -7   14.40   10.30 
   9   6  -7   19.90   27.40 
  -9  -6  -7   28.10   30.90 
  -9  -6  -7    3.80   13.30 
   6  -9  -7   36.80   60.89 
   9   6  -7   13.60   23.10 
  -6   9  -7    3.60   30.80 
  -9  -6  -7   43.90   31.70 
   6  -9  -7   17.50   17.30 
   9   6  -7   -1.40   21.60 
  -9  -6   7   22.40   34.50 
  -9  -6   7   14.30   13.30 
   9   6   7   18.70   20.80 
  -9  -6   7   29.40   12.70 
   9   6   7   11.40   20.20 
  -4   9  -7   -2.10   31.60 
  -4   9  -7    9.90   13.20 
  -9  -4  -7  -18.30   19.80 
   4  -9  -7   37.70   24.50 
   9   4  -7    1.10   16.00 
   9   4  -7   20.40   20.20 
  -9  -4  -7   12.30    8.30 
   4  -9  -7    5.30   42.10 
   9   4  -7   13.30   18.80 
   4  -9  -7    5.50   14.40 
   9   4  -7   23.50   71.89 
  -9  -4  -7   -2.00   20.60 
   4  -9  -7   -8.90    9.30 
   9   4   7  -18.40   13.10 
  -9  -4   7    0.50    8.10 
  -9  -4   7    8.80   10.50 
   9   4   7   19.50   11.40 
  -4   9   7    3.50   12.60 
   9   4   7    7.10   31.60 
   4  -9   7    3.40    9.90 
   4  -9   7    5.80    6.30 
  -9  -2  -7   31.30    8.60 
   9   2  -7   19.80   20.60 
   9   2  -7    6.60   13.00 
   9   2  -7   23.40   18.20 
   2  -9  -7   14.90   14.80 
   2  -9  -7   25.10   11.10 
   2  -9  -7   80.69   40.20 
  -9  -2  -7   50.99   19.70 
   2  -9  -7   81.49   30.10 
  -2   9  -7   21.60   18.40 
  -9  -2  -7   46.00   27.70 
  -2   9  -7   29.20   12.50 
  -9  -2  -7    1.30   13.60 
  -9  -2   7   27.20   11.10 
   9   2   7   17.20   10.50 
   2  -9   7   24.80    9.80 
   2  -9   7   25.90    8.70 
  -2   9   7    9.00   13.00 
  -9   0  -7    2.00   13.60 
   0  -9  -7   -6.60   21.60 
   0   9  -7  -18.80   19.20 
   0  -9  -7   16.40   29.30 
   0   9  -7    8.30   19.60 
   0  -9  -7    2.40    8.20 
  -9   0  -7    0.50    7.40 
   0   9  -7   10.40   10.90 
  -9   0  -7    5.90    5.60 
  -9   0  -7   -1.40    5.10 
   9   0  -7  -14.00   21.50 
   9   0  -7  -23.20   19.30 
  -9   0  -7   -7.00   22.80 
   0  -9  -7   -4.30   11.70 
   9   0  -7   -8.80   10.10 
   9   0   7    9.20    5.90 
  -9   0   7   13.10    8.90 
   0  -9   7   -1.90    6.20 
   0   9   7  -15.10   10.70 
   0  -9   7   -4.90    6.50 
  -9   0   7  -15.80    8.90 
   9  -2  -7   83.39   27.70 
  -2  -9  -7   45.60   28.00 
   2   9  -7   27.40   16.00 
   9  -2  -7    6.40   10.60 
  -9   2  -7   40.90   26.10 
  -2  -9  -7   33.90   33.40 
  -9   2  -7   12.50   12.80 
   9  -2  -7   45.90   32.30 
   9  -2  -7   61.49   25.30 
  -9   2  -7   36.70   16.80 
  -9   2  -7   17.20   11.30 
   2   9  -7   12.90   19.30 
   2   9   7   24.10   19.80 
  -9   2   7   33.40   12.40 
   9  -2   7   35.80   11.20 
   2   9   7   28.50   16.30 
  -2  -9   7   15.30    8.50 
  -2  -9   7   37.70   11.40 
   4   9  -7   21.70   18.20 
  -4  -9  -7    8.20    9.60 
   9  -4  -7    7.50   31.60 
  -9   4  -7    4.00   17.30 
   4   9  -7   -1.80   18.70 
   4   9  -7    6.40   19.40 
  -4  -9  -7   -2.20   28.80 
  -9   4  -7    0.40   18.70 
   9  -4  -7    6.70   11.30 
  -9   4  -7   -0.80   24.60 
  -9   4  -7   13.20   36.10 
  -4  -9  -7   -2.40   26.50 
   4   9   7   27.10   18.80 
  -4  -9   7   18.90   10.50 
  -9   4   7   10.20   18.40 
   9  -4   7   -3.30   10.20 
  -9   4   7    0.20    9.20 
  -9   4   7   -1.50   12.50 
   4   9   7   11.70   18.70 
  -4  -9   7    2.80   31.60 
  -9   6  -7   15.80   25.70 
  -6  -9  -7   12.30   34.10 
   6   9  -7   55.49   26.30 
   9  -6  -7   26.30   45.80 
   6   9  -7   15.40   23.00 
   6   9  -7   35.80   23.20 
  -6  -9  -7    1.20   12.90 
   9  -6  -7   33.80   16.90 
  -9   6  -7    9.30   21.40 
  -6  -9  -7   11.00    6.20 
  -9   6  -7   62.59   32.00 
   6   9   7   42.00   17.30 
  -6  -9   7    9.50   13.40 
   6   9   7   16.00   22.70 
   6   9   7    0.60   25.30 
   9  -6   7   22.70   12.90 
   8   9  -7  -12.10   32.40 
   9  -8  -7   10.10   16.50 
  -8  -9  -7  -20.10   31.10 
  -9   8  -7   -0.50   41.10 
   8   9  -7   13.60   34.50 
  -8  -9   7   15.20   38.60 
  -9   8   7    5.90   15.90 
   9  -8   7    5.70   17.50 
  -8  -9   7    3.60   14.10 
  -8  -9   7    8.70   17.90 
  10   7  -7  100.89   42.20 
  10   7  -7   71.49   39.60 
   7 -10  -7   45.10   20.60 
  -7  10  -7   22.90   11.60 
 -10  -7  -7   53.69   38.70 
  -7  10  -7   37.80   28.90 
 -10  -7   7   51.89   17.00 
   7 -10   7   50.89   19.30 
  -7  10   7    6.00   19.70 
  10   7   7   90.59   31.40 
 -10  -7   7  113.59   48.20 
 -10  -5  -7  113.29   23.10 
   5 -10  -7   81.79   25.60 
  10   5  -7   80.09   30.60 
 -10  -5  -7   95.09   42.30 
  -5  10  -7    3.20   36.20 
  10   5  -7  168.28   34.90 
  10   5  -7  104.19   32.50 
  10   5   7   69.09   23.40 
   5 -10   7   95.69   15.10 
   5 -10   7  120.39   24.30 
  10   5   7  186.08   31.30 
 -10  -5   7  230.28   53.19 
 -10  -5   7   95.29   20.60 
  -5  10   7   95.09   26.10 
  10   3  -7    5.90   24.20 
 -10  -3  -7    8.40   24.90 
  10   3  -7    4.20   20.80 
  10   3  -7    5.40    9.10 
  10   3  -7   12.10   18.20 
  -3  10  -7   -9.40   32.90 
   3 -10  -7   14.00   41.90 
   3 -10  -7   -1.70   27.40 
   3 -10  -7  -24.10   16.90 
  -3  10  -7  -15.70   17.50 
   3 -10  -7    7.00   11.00 
 -10  -3  -7    7.40    9.00 
  -3  10   7    3.00   14.90 
 -10  -3   7    9.50    9.30 
   3 -10   7    5.80    9.30 
  10   3   7   30.60   15.60 
 -10  -3   7   -1.10   11.80 
 -10  -1  -7  120.39   19.00 
  10   1  -7  233.68   38.40 
   1 -10  -7  127.79   22.20 
  10   1  -7   99.29   24.90 
 -10  -1  -7  200.18   44.00 
  -1  10  -7  117.79   34.10 
 -10  -1  -7  131.29   19.40 
   1 -10  -7  122.09   25.80 
  -1  10  -7  168.78   45.70 
 -10  -1   7  151.18   24.20 
  10   1   7  172.88   23.60 
  -1  10   7  186.18   32.70 
 -10  -1   7  110.79   21.60 
 -10   1  -7  111.89   16.30 
  -1 -10  -7  166.78   23.50 
   1  10  -7  141.99   36.10 
  10  -1  -7  125.49   24.60 
  10  -1  -7  259.77   38.20 
   1  10  -7  134.89   35.80 
 -10   1  -7  158.68   41.50 
  -1 -10  -7  116.09   24.20 
 -10   1   7  172.38   24.70 
   1  10   7  154.98   30.90 
  -1 -10   7  138.49   20.30 
  10  -1   7  142.59   22.20 
 -10   1   7  106.59   21.50 
 -10   3  -7    6.00   29.70 
  -3 -10  -7    2.40   10.60 
 -10   3  -7   16.00   26.90 
   3  10  -7  -25.10   24.80 
  -3 -10  -7    5.20   35.90 
  10  -3  -7   -0.90   13.30 
  -3 -10  -7   66.19   34.40 
  10  -3   7    4.90   11.30 
   3  10   7   32.50   23.10 
 -10   3   7   13.80   14.80 
   3  10   7   53.39   23.10 
  -3 -10   7    5.70    8.00 
 -10   3   7    9.10   11.00 
   5  10  -7   95.99   36.50 
  -5 -10  -7  231.58   57.79 
 -10   5  -7  212.58   37.60 
   5  10  -7  126.89   39.60 
 -10   5  -7   57.89   27.00 
  -5 -10  -7  236.48   58.19 
 -10   5  -7  200.18   39.10 
  -5 -10  -7  117.69   18.60 
  -5 -10   7  309.87   72.39 
   5  10   7   75.69   34.70 
  10  -5   7   98.59   23.90 
 -10   5   7  127.39   25.00 
   5  10   7  156.68   39.60 
   5  10   7  144.59   31.80 
  -7 -10  -7   84.49   43.00 
  10  -7  -7   51.09   20.10 
 -10   7  -7   33.20   24.70 
 -10   7  -7  122.99   43.70 
   7  10  -7   26.00   39.90 
   7  10  -7   56.49   33.80 
  -7 -10   7   61.19   18.90 
 -10   7   7   49.40   19.50 
  10  -7   7   20.70   19.30 
   7  10   7   71.59   39.40 
 -11  -6  -7   20.00   36.30 
  -6  11  -7    0.70   13.80 
  11   6  -7  -28.80   41.70 
   6 -11  -7   24.60   18.30 
   6 -11   7    7.30   17.00 
  -6  11   7   27.50   24.50 
 -11  -6   7    4.40   14.90 
   4 -11  -7  248.48   70.39 
  -4  11  -7   16.50   19.30 
  -4  11  -7   66.79   48.50 
  11   4  -7  190.08   36.50 
 -11  -4   7   57.19   17.40 
   4 -11   7   45.80   15.00 
   4 -11   7   96.69   19.50 
  -4  11   7   32.50   24.90 
  -2  11  -7   36.40   26.60 
  -2  11  -7   26.20   37.20 
  11   2  -7   40.80   23.20 
   2 -11  -7  234.38   68.59 
 -11  -2  -7   35.70   12.60 
  11   2  -7   49.70   33.00 
  11   2  -7   55.99   15.80 
 -11  -2  -7   63.49   12.90 
 -11  -2  -7   91.19   40.60 
   2 -11  -7   53.49   23.00 
  11   2   7   81.49   20.40 
  -2  11   7   77.69   26.10 
   2 -11   7   39.30   13.00 
 -11  -2   7   70.29   19.00 
 -11  -2   7   37.60   12.80 
   0 -11  -7  -13.20   32.70 
  11   0  -7   -3.70   18.00 
  11   0  -7  -18.60   27.40 
   0 -11  -7   20.80   43.50 
   0 -11  -7    0.60   11.70 
   0  11  -7   26.70   33.10 
 -11   0  -7   -5.60    7.00 
 -11   0  -7   39.10   38.30 
   0 -11  -7  -24.20   16.50 
 -11   0   7    5.30    9.60 
 -11   0   7    8.70   16.60 
   0 -11   7    5.90    9.30 
   2  11  -7  -25.30   33.10 
  -2 -11  -7  173.88   59.59 
 -11   2  -7   59.89   15.30 
  11  -2  -7   39.00   19.70 
   2  11  -7   19.70   32.30 
 -11   2  -7  115.49   43.40 
  -2 -11  -7  143.29   46.20 
  -2 -11  -7   58.99   15.80 
  11  -2  -7  150.48   37.90 
  -2 -11   7   55.59   13.30 
  11  -2   7   28.40   15.20 
   2  11   7   63.09   25.40 
 -11   2   7   36.70   13.50 
 -11   4  -7  118.39   38.90 
   4  11  -7   78.49   37.60 
  -4 -11  -7   85.99   15.40 
 -11   4  -7   50.79   26.00 
  -4 -11  -7  152.28   58.49 
  -4 -11  -7  172.98   51.29 
  -4 -11  -7   63.79   19.40 
  11  -4  -7   83.19   21.00 
   4  11  -7   80.99   38.30 
   4  11   7   69.29   33.40 
 -11   4   7   81.99   19.90 
  11  -4   7   78.19   22.00 
   6  11  -7   21.20   42.10 
  11  -6  -7  -17.80   17.60 
   6  11  -7   11.40   42.00 
 -11   6  -7   12.50   24.80 
  -6 -11   7   35.30   45.20 
   6  11   7    8.90   37.70 
  11  -6   7   26.50   20.40 
  -3  12  -7   -1.10   23.20 
  12   3  -7  -14.80   42.70 
 -12  -3  -7   -3.50   45.80 
 -12  -3  -7    4.20   11.30 
   3 -12  -7   17.70   37.90 
   3 -12  -7   -9.50   13.70 
   3 -12   7   -0.80   11.00 
 -12  -1  -7   -0.90   10.40 
  -1  12  -7  -13.60   30.70 
   1 -12  -7   49.20   43.30 
   1 -12  -7   32.20   57.39 
 -12  -1  -7   -2.70    9.10 
  12   1  -7  -61.19   35.90 
 -12  -1  -7   -2.10   41.60 
  -1  12  -7   13.80   48.10 
   1 -12  -7   -6.20   11.10 
  12   1  -7   -0.30   17.80 
  12   1   7   -0.80   17.70 
 -12  -1   7   -0.90   11.90 
   1 -12   7  -15.60    9.80 
  -1  12   7   -1.20   22.00 
  12  -1  -7  -36.30   35.90 
  -1 -12  -7   19.40   52.79 
  12  -1  -7   -9.40   17.60 
   1  12  -7  -22.60   37.30 
  -1 -12  -7    4.30   34.20 
  -1 -12  -7  -14.60   10.50 
   1  12  -7   39.90   38.10 
 -12   1  -7   -2.30    4.80 
 -12   1  -7   26.00   42.00 
 -12   1   7   12.80   12.70 
  -1 -12   7    0.20    9.90 
   1  12   7   -3.50   35.80 
  12  -3  -7  -12.50   17.20 
  -3 -12  -7   11.00   16.50 
   3  12  -7  -27.50   36.70 
  -3 -12  -7    9.40   35.90 
   3  12   7   25.80   29.80 
  12  -3   7    7.30   17.10 
   0   0  -8 6255.77  699.53 
   0   0  -8 7102.19  699.33 
   0   0  -8 6119.69  699.13 
   0   0  -8 6635.04  705.53 
   0   0   8 7396.36  699.23 
   0   0   8 7192.58  704.43 
   0   0   8 7233.58  699.73 
   0   0   8 7349.66  701.03 
  -1  -1  -8  103.99   14.30 
  -1  -1  -8   92.49   17.80 
   1   1  -8   89.69   18.40 
  -1  -1  -8  105.99   14.10 
  -1  -1  -8  102.89   20.80 
  -1   1  -8   89.09   14.00 
   1   1  -8   93.19   14.50 
   1  -1  -8   84.89   15.40 
  -1   1  -8  107.29   13.60 
   1   1  -8  132.59   14.70 
  -1   1  -8  112.49   14.20 
   1   1  -8   84.09   13.70 
   1  -1  -8  108.29   14.40 
  -1  -1  -8  116.89   15.20 
   1  -1  -8   92.59   14.00 
  -1   1  -8  110.79   20.20 
   1  -1  -8  102.49   20.60 
  -1   1  -8   95.89   13.10 
  -1   1   8  123.39   21.20 
   1  -1   8  123.69   14.20 
  -1   1   8  106.39   14.10 
  -1   1   8  116.69   14.00 
  -1  -1   8  120.69   14.60 
   1   1   8  125.69   23.30 
   1   1   8  151.38   15.40 
  -1  -1   8  104.69   13.80 
  -1   1   8  117.39   15.50 
   1  -1   8   98.39   12.70 
   1   1   8  117.99   13.80 
   1  -1   8  120.99   13.10 
  -1  -1   8  109.09   13.80 
   0   2  -8  535.85   61.39 
   2   0  -8  546.35   61.39 
   2   0  -8  492.95   61.59 
   0   2  -8  579.84   67.69 
   2   0  -8  587.94   61.59 
  -2   0  -8  576.84   60.29 
   0  -2  -8  560.74   61.79 
   0  -2  -8  594.24   69.09 
   0  -2  -8  534.75   61.59 
   0  -2  -8  616.04   61.89 
   0   2  -8  523.35   60.49 
   0  -2  -8  538.55   65.69 
  -2   0  -8  576.04   60.99 
   0   2  -8  591.04   60.89 
   0   2  -8  601.74   61.99 
  -2   0  -8  567.34   67.09 
  -2   0  -8  530.35   60.19 
  -2   0  -8  524.25   66.69 
  -2   0  -8  542.95   60.49 
   2   0  -8  580.44   66.79 
  -2   0  -8  529.75   60.19 
   0  -2   8  674.33   61.39 
   0  -2   8  570.14   59.99 
   0   2   8  590.04   61.19 
   0  -2   8  612.54   60.59 
  -2   0   8  591.64   61.29 
   2   0   8  667.73   60.89 
  -2   0   8  636.54   66.29 
  -2   0   8  565.34   61.09 
   0  -2   8  560.24   60.29 
   0   2   8  632.84   62.49 
   2   0   8  573.54   60.09 
   2   0   8  614.34   66.39 
  -2  -2  -8 1742.73  203.78 
   2  -2  -8 1919.21  205.98 
  -2  -2  -8 2097.79  205.68 
  -2  -2  -8 1814.02  211.28 
   2   2  -8 1902.21  205.58 
  -2  -2  -8 1945.01  204.58 
  -2   2  -8 1994.20  205.08 
   2   2  -8 2091.89  217.78 
  -2  -2  -8 1797.72  210.58 
   2  -2  -8 1887.91  205.18 
  -2   2  -8 1948.61  211.68 
   2   2  -8 1900.51  204.88 
   2  -2  -8 1998.60  212.18 
  -2   2  -8 2084.59  202.98 
   2   2  -8 1872.41  210.18 
   2   2  -8 1830.62  204.78 
  -2  -2  -8 2013.10  205.18 
  -2   2  -8 2073.69  204.98 
   2  -2  -8 2080.89  205.28 
   2  -2   8 1975.00  203.68 
  -2  -2   8 1943.91  204.58 
  -2   2   8 2013.60  206.38 
  -2  -2   8 2149.88  204.78 
   2   2   8 2089.39  216.38 
  -2  -2   8 2282.67  205.08 
  -2   2   8 2087.59  205.08 
   2  -2   8 2095.79  202.88 
   2  -2   8 2082.89  202.48 
   2   2   8 2160.98  205.18 
  -2   2   8 1988.00  204.98 
  -2  -2   8 2053.19  204.28 
   3   1  -8 1706.93  164.68 
  -3  -1  -8 1343.17  169.28 
   1  -3  -8 1596.14  168.58 
  -1   3  -8 1551.34  164.18 
   3   1  -8 1486.05  164.68 
  -3  -1  -8 1602.64  163.68 
  -1   3  -8 1668.13  162.68 
  -3  -1  -8 1428.76  162.48 
   1  -3  -8 1476.65  164.48 
  -3  -1  -8 1735.53  163.78 
   3   1  -8 1519.45  168.88 
  -3  -1  -8 1460.05  163.18 
  -3  -1  -8 1418.36  168.98 
   1  -3  -8 1672.23  173.78 
   1  -3  -8 1532.95  164.28 
  -1   3  -8 1601.24  164.78 
  -1   3  -8 1495.75  171.98 
  -3  -1  -8 1510.15  163.08 
   1  -3  -8 1721.03  165.38 
   3   1  -8 1565.24  180.08 
   3   1   8 1716.93  169.58 
   1  -3   8 1814.52  163.98 
   1  -3   8 1607.34  162.48 
   1  -3   8 1692.73  161.98 
  -3  -1   8 1724.93  164.28 
   1  -3   8 1515.35  162.28 
  -3  -1   8 1554.44  163.88 
  -3  -1   8 1676.23  163.98 
   3   1   8 1574.84  163.48 
  -1   3   8 1612.04  164.08 
   3   1   8 1741.53  162.58 
  -1   3   8 1561.14  166.98 
   3  -1  -8 1491.85  168.28 
  -1  -3  -8 1620.34  162.88 
  -3   1  -8 1545.25  169.78 
  -1  -3  -8 1402.86  168.38 
  -1  -3  -8 1648.24  163.78 
  -3   1  -8 1541.45  162.68 
   3  -1  -8 1812.22  165.18 
   1   3  -8 1668.73  177.08 
  -3   1  -8 1518.15  160.68 
   3  -1  -8 1435.06  163.88 
  -3   1  -8 1491.75  168.68 
   1   3  -8 1445.16  169.88 
  -3   1  -8 1582.84  161.98 
  -3   1  -8 1476.05  160.88 
  -1  -3  -8 1488.15  171.28 
  -1  -3  -8 1444.86  163.68 
  -3   1  -8 1706.03  160.98 
   1   3  -8 1474.05  162.48 
  -1  -3  -8 1593.44  162.98 
   3  -1  -8 1373.66  162.88 
   1   3  -8 1584.04  164.08 
   3  -1   8 1501.35  160.68 
  -3   1   8 1634.34  163.08 
  -1  -3   8 1751.32  162.78 
   1   3   8 1563.24  163.58 
  -3   1   8 1577.14  162.88 
  -3   1   8 1660.93  164.08 
  -1  -3   8 1688.73  161.78 
  -1  -3   8 1502.05  162.18 
  -3   1   8 1685.13  167.48 
   1   3   8 1856.61  174.48 
   3  -1   8 1815.92  162.28 
  -1  -3   8 1637.14  162.38 
   3  -3  -8  240.78   37.30 
  -3   3  -8  232.48   36.30 
   3  -3  -8  234.08   29.10 
   3   3  -8  218.88   29.40 
   3  -3  -8  290.77   31.40 
   3   3  -8  211.58   33.60 
  -3  -3  -8  268.97   30.40 
  -3  -3  -8  223.98   26.80 
  -3  -3  -8  209.78   35.10 
   3  -3  -8  261.07   32.10 
  -3  -3  -8  208.48   35.80 
  -3   3  -8  215.68   24.90 
  -3  -3  -8  217.88   27.80 
   3  -3  -8  197.98   28.30 
   3   3  -8  205.48   27.70 
  -3   3  -8  255.67   29.40 
   3   3  -8  233.48   28.70 
   3  -3   8  260.07   24.90 
   3  -3   8  228.68   27.60 
  -3  -3   8  257.37   28.10 
  -3   3   8  317.27   39.50 
   3   3   8  278.17   41.50 
  -3   3   8  247.78   28.50 
   3   3   8  244.38   29.90 
  -3   3   8  230.08   28.40 
   3   3   8  285.37   27.90 
   2  -4  -8 1641.94  167.18 
   2  -4  -8 1487.25  162.68 
  -4  -2  -8 1529.45  161.78 
   2  -4  -8 1411.66  162.78 
  -4  -2  -8 1417.16  168.68 
   4   2  -8 1463.05  166.98 
  -4  -2  -8 1796.42  163.28 
   4   2  -8 1595.74  177.78 
   4   2  -8 1423.36  162.58 
  -2   4  -8 1490.55  160.08 
  -4  -2  -8 1475.55  160.88 
  -4  -2  -8 1304.37  169.08 
   4   2  -8 1560.64  163.58 
   2  -4   8 1712.93  162.28 
   2  -4   8 1686.13  160.18 
  -2   4   8 1495.35  163.78 
   4   2   8 1567.64  163.78 
   4   2   8 1627.14  160.28 
  -4  -2   8 1600.04  162.18 
   2  -4   8 1734.03  159.78 
   4   2   8 1641.44  169.38 
  -4  -2   8 1813.92  162.68 
   0   4  -8  158.98   36.50 
  -4   0  -8  130.49   17.60 
   4   0  -8  162.68   20.30 
  -4   0  -8  139.09   16.70 
   0  -4  -8  138.49   21.50 
  -4   0  -8  142.59   16.80 
   4   0  -8  113.49   22.50 
   0  -4  -8  162.68   18.80 
   0  -4  -8  192.28   21.30 
   0   4  -8  132.59   19.10 
  -4   0  -8  109.49   23.30 
   0  -4  -8  136.09   24.40 
  -4   0  -8  109.69   23.50 
  -4   0  -8  147.09   17.10 
   4   0  -8  147.19   22.20 
  -4   0  -8  131.99   16.40 
   0  -4  -8  160.18   33.40 
   4   0  -8  152.38   34.00 
   4   0  -8  126.49   18.50 
   0   4  -8  162.48   22.50 
   0  -4  -8  138.59   20.10 
   0  -4   8  134.39   17.40 
   4   0   8  127.89   23.30 
   0   4   8  126.19   18.40 
   0  -4   8  155.78   16.90 
   0  -4   8  165.68   19.60 
  -4   0   8  173.48   21.20 
   0  -4   8  128.09   18.00 
   4   0   8  137.39   16.10 
  -4   0   8  149.19   18.60 
  -4   0   8  157.78   18.70 
  -2  -4  -8 1533.95  180.98 
   4  -2  -8 1802.32  172.98 
   4  -2  -8 1695.13  178.28 
  -4   2  -8 1657.13  178.28 
   2   4  -8 1526.65  171.78 
  -2  -4  -8 1759.92  170.88 
  -2  -4  -8 1934.81  170.48 
  -4   2  -8 1614.54  169.78 
   4  -2  -8 1528.25  170.68 
   2   4  -8 1526.45  170.08 
  -2  -4  -8 1416.96  177.68 
  -4   2  -8 1620.44  171.58 
  -2  -4  -8 1687.73  172.38 
  -4   2  -8 1529.75  176.78 
  -2  -4  -8 1724.63  172.08 
   2   4  -8 1518.15  170.38 
   2   4   8 1592.34  171.48 
   4  -2   8 1647.34  170.08 
  -2  -4   8 1487.45  169.58 
  -2  -4   8 1854.81  170.28 
  -4   2   8 1649.83  170.68 
  -4   2   8 1779.22  181.28 
  -4   2   8 1830.52  171.18 
   2   4   8 1712.03  171.38 
  -4  -4  -8 1689.53  161.68 
  -4  -4  -8 1828.52  163.98 
   4  -4  -8 1379.96  161.18 
  -4  -4  -8 1373.56  170.48 
   4   4  -8 1347.27  159.68 
  -4   4  -8 1574.04  174.08 
   4   4  -8 1464.45  162.58 
  -4   4  -8 1510.95  162.98 
   4   4  -8 1355.46  161.28 
  -4  -4  -8 1598.54  172.58 
   4  -4  -8 1758.12  164.48 
  -4  -4   8 1478.55  160.78 
   4   4   8 1722.13  159.18 
   4  -4   8 1616.34  161.08 
  -4  -4   8 1692.53  160.88 
  -4   4   8 1492.75  161.08 
  -4   4   8 1560.64  161.58 
   4   4   8 1470.15  162.78 
  -5  -3  -8  521.65   54.49 
   3  -5  -8  540.35   61.49 
  -5  -3  -8  582.44   59.09 
  -5  -3  -8  525.35   55.99 
   3  -5  -8  447.76   56.69 
  -3   5  -8  565.54   72.39 
   5   3  -8  446.56   56.89 
  -3   5  -8  455.45   53.59 
  -3   5  -8  475.85   59.49 
   3  -5  -8  543.15   56.19 
   5   3  -8  457.55   61.49 
  -5  -3  -8  455.65   65.79 
   5   3  -8  481.95   57.79 
  -5  -3  -8  567.14   67.39 
   5   3  -8  474.65   55.49 
  -5  -3   8  475.65   55.59 
   3  -5   8  488.85   52.69 
   3  -5   8  517.15   52.79 
   3  -5   8  550.24   56.39 
   5   3   8  466.95   56.39 
  -3   5   8  499.05   56.59 
   5   3   8  565.64   68.39 
  -5  -3   8  575.04   56.29 
   5   3   8  489.05   55.39 
   3  -5   8  581.24   53.19 
  -5  -1  -8  123.19   17.70 
  -1   5  -8  113.69   16.30 
  -5  -1  -8  128.79   28.90 
  -5  -1  -8  127.19   15.90 
   1  -5  -8  113.99   20.00 
  -1   5  -8  127.49   22.20 
   5   1  -8  120.39   19.70 
   5   1  -8  122.69   22.70 
   5   1  -8  128.89   35.20 
   1  -5  -8  133.99   17.90 
  -5  -1  -8  110.99   17.00 
   5   1  -8  135.89   22.50 
  -5  -1  -8  112.59   25.40 
  -5  -1  -8  114.79   16.90 
   1  -5  -8  209.68   36.20 
   1  -5   8  147.09   16.00 
   1  -5   8  114.39   15.90 
  -1   5   8  143.99   18.90 
   1  -5   8  145.29   16.40 
   1  -5   8  143.29   17.40 
  -5  -1   8  129.79   17.80 
   5   1   8  154.88   25.20 
  -5  -1   8  139.19   17.80 
   5   1   8  125.39   16.80 
  -1  -5  -8  107.99   27.60 
  -1  -5  -8   94.49   19.50 
  -5   1  -8  133.49   14.50 
   5  -1  -8  131.09   26.70 
   1   5  -8  111.89   19.50 
   5  -1  -8  161.68   24.50 
  -1  -5  -8  146.39   33.30 
   5  -1  -8  174.88   35.50 
  -5   1  -8  116.69   18.50 
   1   5  -8  160.48   18.90 
  -5   1  -8  138.89   25.20 
  -1  -5  -8  140.29   22.30 
  -5   1  -8  124.59   28.00 
   1   5  -8   86.69   20.10 
  -5   1  -8  118.59   16.40 
  -1  -5  -8  151.18   18.80 
   5  -1  -8  114.69   18.80 
  -5   1   8  168.78   24.00 
  -1  -5   8  129.69   17.50 
  -5   1   8  145.09   18.90 
  -5   1   8  140.09   18.30 
  -1  -5   8  168.28   17.90 
   1   5   8  142.19   25.60 
   3   5  -8  438.06   56.19 
  -5   3  -8  471.95   64.99 
   5  -3  -8  577.94   66.89 
   5  -3  -8  587.64   60.09 
   3   5  -8  471.25   62.99 
  -5   3  -8  601.34   66.89 
  -3  -5  -8  464.45   67.49 
  -5   3  -8  487.95   57.49 
   3   5  -8  501.55   59.49 
   5  -3  -8  487.45   57.39 
  -3  -5  -8  520.05   57.49 
  -3  -5  -8  611.84   72.99 
  -3  -5  -8  554.24   61.99 
  -5   3   8  553.94   57.99 
   3   5   8  500.95   58.09 
   3   5   8  487.95   58.39 
  -3  -5   8  494.45   56.49 
   3   5   8  493.15   59.99 
  -3  -5   8  556.04   56.69 
  -5   3   8  517.75   57.29 
   5  -3   8  534.05   56.99 
  -5  -5  -8   70.29   26.30 
   5  -5  -8   74.29   17.10 
  -5  -5  -8   82.49   15.10 
   5   5  -8   24.30   11.10 
   5   5  -8   66.99   15.50 
  -5   5  -8   76.59   21.10 
   5  -5  -8  128.49   23.00 
  -5  -5  -8   69.49   26.80 
   5   5  -8   59.39   16.10 
   5  -5  -8   51.99   13.60 
  -5  -5   8   59.19   12.40 
  -5   5   8   60.39   13.60 
  -5   5   8   55.29   13.40 
   5   5   8   87.19   11.00 
  -5  -5   8   56.49   12.50 
   5   5   8   52.39   16.00 
   5  -5   8   68.09   13.80 
  -6  -4  -8   99.59   20.20 
   6   4  -8   45.50   14.70 
   4  -6  -8  165.78   42.50 
   4  -6  -8   51.29   11.80 
  -6  -4  -8   55.09   12.00 
  -6  -4  -8   74.49   11.30 
   4  -6  -8   26.80   12.60 
   6   4  -8   39.40   19.10 
  -6  -4  -8   64.49   25.90 
   4  -6  -8   62.79   19.90 
  -4   6  -8   85.39   23.20 
   6   4  -8   77.19   12.60 
  -6  -4  -8   68.39   25.50 
   6   4  -8   49.20   14.60 
   6   4   8   54.19   12.60 
   4  -6   8   65.69   13.70 
  -4   6   8   49.50   12.20 
  -6  -4   8   51.09   11.90 
  -6  -4   8   74.69   13.10 
   4  -6   8   61.79    7.20 
   6   4   8   88.49   17.00 
   4  -6   8   51.99    7.10 
  -6  -2  -8  189.68   26.50 
  -6  -2  -8  191.38   34.30 
   2  -6  -8  246.18   35.10 
  -2   6  -8  181.88   32.00 
   6   2  -8  174.48   25.60 
   6   2  -8  157.08   28.00 
  -2   6  -8  142.99   22.10 
  -6  -2  -8  202.38   22.60 
   2  -6  -8  191.08   24.30 
   6   2  -8  169.18   29.60 
  -2   6  -8  167.58   24.70 
   2  -6  -8  180.18   26.40 
  -6  -2  -8  177.08   34.40 
   6   2   8  207.68   34.80 
  -6  -2   8  198.88   24.00 
   2  -6   8  183.78   21.80 
   2  -6   8  206.18   21.90 
   2  -6   8  182.98   24.00 
   6   2   8  172.28   22.60 
   6   2   8  162.48   22.40 
  -2   6   8  200.58   25.30 
  -6  -2   8  218.38   24.40 
   0   6  -8 2490.05  266.47 
  -6   0  -8 2116.69  260.27 
  -6   0  -8 2292.27  270.97 
   6   0  -8 2410.06  275.57 
  -6   0  -8 2601.34  259.97 
  -6   0  -8 2521.45  262.07 
   0  -6  -8 2502.65  265.17 
   0  -6  -8 2855.31  274.77 
   0  -6  -8 2846.32  263.77 
   6   0  -8 2445.46  267.47 
   6   0  -8 2781.32  266.17 
  -6   0  -8 2678.83  268.27 
   0   6  -8 2496.95  262.77 
  -6   0  -8 2810.02  259.77 
   0   6  -8 2336.97  264.27 
   6   0  -8 2148.39  262.97 
  -6   0   8 2539.35  262.97 
  -6   0   8 2985.40  263.77 
   0  -6   8 2507.95  261.67 
   0  -6   8 2918.31  262.87 
   0   6   8 2678.73  264.77 
   6   0   8 2463.15  259.27 
  -2  -6  -8  190.08   37.60 
  -6   2  -8  195.68   24.70 
   2   6  -8  187.28   28.90 
   2   6  -8  144.29   28.10 
  -2  -6  -8  216.08   26.10 
   6  -2  -8  179.98   37.90 
   6  -2  -8  226.48   30.70 
   2   6  -8  228.58   27.30 
  -2  -6  -8  264.47   45.50 
   6  -2  -8  202.78   37.50 
  -6   2  -8  230.48   34.00 
   6  -2  -8  151.58   25.10 
   2   6   8  198.98   28.20 
   6  -2   8  196.48   25.10 
  -6   2   8  196.28   25.90 
  -6   2   8  212.38   26.20 
  -2  -6   8  226.08   25.10 
  -2  -6   8  177.38   24.70 
   2   6   8  243.18   34.60 
  -4  -6  -8   69.49   14.10 
   6  -4  -8   80.79   16.40 
   6  -4  -8   65.79   20.10 
  -4  -6  -8   74.69   28.30 
   6  -4  -8  144.39   37.00 
  -6   4  -8   93.89   27.50 
  -4  -6  -8   39.70   25.50 
   4   6  -8   61.99   14.00 
   4   6  -8   89.99   17.20 
   6  -4  -8   57.69   14.60 
  -6   4  -8   60.29   18.10 
  -6   4  -8   66.89   24.70 
   6  -4  -8  103.39   21.90 
   4   6  -8   82.09   18.80 
  -4  -6   8   48.90   11.90 
   4   6   8   55.79   15.60 
   4   6   8   90.59   19.00 
  -6   4   8   68.89   15.00 
   6  -4   8   70.09   14.40 
  -6   4   8   48.70   13.00 
  -4  -6   8   71.39   13.50 
   6   6  -8 1199.48  123.99 
   6   6  -8 1099.39  122.39 
  -6  -6  -8 1193.78  120.29 
  -6   6  -8  954.30  126.39 
   6   6  -8  999.90  116.99 
  -6  -6  -8 1141.49  120.19 
   6  -6  -8  997.10  119.99 
   6  -6  -8 1350.76  120.09 
  -6  -6  -8 1369.96  139.69 
  -6  -6   8  995.10  118.39 
  -6   6   8 1034.00  119.79 
  -6  -6   8 1250.47  119.49 
   6   6   8 1023.00  121.59 
   6  -6   8 1156.58  120.39 
   5  -7  -8  132.59   44.00 
  -7  -5  -8   27.40   10.80 
  -7  -5  -8   49.50   27.90 
   5  -7  -8   54.29   12.40 
  -7  -5  -8   67.29   27.50 
   7   5  -8    6.30    9.90 
  -5   7  -8   35.60   25.90 
  -7  -5  -8   33.00    9.50 
   5  -7  -8   27.70   12.60 
   7   5  -8   28.00   15.20 
   5  -7  -8   63.89   23.50 
  -7  -5  -8   27.90   22.10 
   7   5  -8   48.90   18.30 
   7   5  -8   18.50   20.90 
   5  -7   8   46.50   12.30 
  -7  -5   8   38.50   10.90 
  -7  -5   8   41.20   11.60 
   7   5   8   49.40   16.50 
   7   5   8   19.50   12.40 
  -5   7   8   33.40   12.30 
  -3   7  -8  645.74   67.99 
   7   3  -8  557.44   71.19 
   7   3  -8  524.55   67.19 
  -7  -3  -8  680.33   67.49 
   7   3  -8  572.24   70.39 
  -7  -3  -8  631.04   71.29 
   3  -7  -8  730.83   69.49 
  -7  -3  -8  654.13   66.49 
   3  -7  -8  544.55   70.39 
  -3   7  -8  669.13   79.09 
   7   3  -8  530.95   75.79 
  -7  -3  -8  615.84   81.99 
   3  -7   8  690.83   65.99 
   3  -7   8  630.94   66.19 
  -7  -3   8  582.44   67.99 
   7   3   8  543.85   67.29 
  -3   7   8  559.84   69.29 
   3  -7   8  682.03   69.39 
  -7  -3   8  692.23   68.99 
   7   3   8  678.33   69.09 
   7   3   8  670.23   80.39 
  -7  -1  -8   15.20    8.30 
  -7  -1  -8    1.80    7.00 
  -1   7  -8   24.20   13.30 
  -7  -1  -8   12.30    4.50 
  -7  -1  -8    8.20   17.50 
   7   1  -8   11.90   12.30 
   1  -7  -8   24.10   20.50 
  -1   7  -8   12.50   10.90 
   1  -7  -8    9.80   20.90 
   7   1  -8   -1.10    7.80 
   1  -7  -8   11.30    6.80 
  -7  -1  -8   15.20   15.50 
   1  -7  -8    9.90    9.90 
   7   1  -8   -5.10   11.90 
   1  -7   8   16.10    5.80 
   7   1   8    3.60   14.60 
   7   1   8    6.30    4.60 
   7   1   8    0.20    4.80 
   1  -7   8   -1.80    5.90 
  -7  -1   8    8.50    7.10 
  -7  -1   8   -3.60    5.40 
  -1   7   8   35.10   11.10 
  -1  -7  -8   23.80   22.20 
  -7   1  -8   -1.50   15.10 
   1   7  -8    9.40   10.90 
  -7   1  -8    6.80    5.50 
   7  -1  -8    4.20    8.20 
  -7   1  -8    8.10   12.20 
   1   7  -8   14.60   13.10 
  -1  -7  -8   17.60   23.40 
   7  -1  -8    9.80   18.10 
   1   7  -8   16.30    9.10 
   7  -1  -8   21.30   13.30 
   7  -1  -8   29.50   29.70 
  -1  -7  -8   15.20    7.30 
  -1  -7   8   10.30    6.20 
  -7   1   8    7.70    6.50 
  -7   1   8    8.70    8.00 
  -1  -7   8    6.00    6.00 
  -3  -7  -8  717.93   76.09 
   7  -3  -8  586.74   75.99 
  -3  -7  -8  803.52   94.59 
   3   7  -8  541.95   78.49 
   7  -3  -8  739.43   82.19 
  -7   3  -8  725.83   76.99 
  -7   3  -8  774.82   89.99 
   3   7  -8  610.34   77.39 
  -7   3  -8  770.62   84.49 
   3   7  -8  669.83   80.49 
   3   7   8  747.03   80.59 
  -7   3   8  675.53   75.79 
   7  -3   8  603.14   75.09 
   3   7   8  694.43   83.29 
  -3  -7   8  723.53   75.49 
  -7   3   8  754.12   76.99 
   3   7   8  701.63   79.39 
   5   7  -8   49.50   19.90 
  -5  -7  -8   42.80   29.80 
  -7   5  -8   41.80   24.20 
  -5  -7  -8   25.00   26.90 
  -7   5  -8   63.09   27.50 
   7  -5  -8   93.99   39.30 
   7  -5  -8   55.69   15.50 
   5   7  -8   25.90   13.80 
  -7   5  -8   23.60   19.00 
   5   7  -8   29.70   15.60 
   7  -5  -8   27.80   13.40 
   5   7   8   27.10   18.40 
  -7   5   8   21.00   12.70 
  -5  -7   8   21.70   10.90 
  -7   5   8   44.60   12.10 
   7  -5   8   34.20   11.80 
   5   7   8   25.40   15.60 
   5   7   8    4.80   16.80 
  -5  -7   8   40.30   11.70 
   7  -7  -8    5.60   12.10 
   7   7  -8   16.60   12.60 
   7   7  -8    8.50   19.90 
  -7  -7  -8   -6.60    8.20 
  -7   7  -8   10.30   37.30 
  -7  -7  -8   13.50   27.70 
  -7   7  -8   -9.70   21.50 
   7  -7  -8  -34.70   36.90 
   7   7  -8   20.20   19.00 
  -7  -7  -8    5.50   11.60 
  -7   7  -8   -7.40   29.00 
   7  -7  -8   -7.40   16.20 
  -7  -7  -8  -29.60   24.90 
  -7   7   8   -9.90    9.60 
   7   7   8   40.80   18.40 
  -7  -7   8    1.40   10.20 
   7  -7   8    9.50   11.80 
   7   7   8  -10.70   18.90 
   8   6  -8  102.39   28.40 
   8   6  -8   45.50   30.00 
  -8  -6  -8   45.60   32.20 
  -6   8  -8   22.60   31.30 
  -8  -6  -8   49.90   16.00 
   8   6  -8   69.39   21.90 
  -8  -6  -8   57.89    9.80 
   6  -8  -8   74.99   17.70 
   6  -8  -8   55.39   18.50 
   8   6  -8   44.30   13.00 
  -8  -6  -8  146.39   38.00 
  -8  -6   8   44.30   14.00 
   8   6   8   42.30   21.20 
   6  -8   8   99.59   19.80 
   8   6   8   54.49   21.60 
  -6   8   8   48.40   17.70 
  -8  -6   8   56.79   16.20 
   8   4  -8  218.48   29.60 
   4  -8  -8  241.08   36.10 
  -8  -4  -8  313.87   51.79 
  -8  -4  -8  216.18   37.60 
  -8  -4  -8  266.67   29.30 
   8   4  -8  249.68   44.20 
   4  -8  -8  248.98   32.20 
  -4   8  -8  267.97   50.89 
  -8  -4  -8  237.68   31.20 
   8   4  -8  259.97   39.40 
  -4   8  -8  164.38   31.40 
   8   4  -8  261.87   38.30 
   8   4   8  230.58   34.30 
  -8  -4   8  217.88   31.00 
   4  -8   8  281.97   28.40 
   4  -8   8  236.68   28.40 
   8   4   8  258.17   33.10 
  -8  -4   8  286.67   32.80 
   8   2  -8  379.26   49.70 
  -8  -2  -8  292.97   43.90 
  -2   8  -8  272.77   46.50 
   2  -8  -8  353.96   47.50 
  -8  -2  -8  322.97   42.10 
   2  -8  -8  419.66   44.30 
   8   2  -8  300.97   45.50 
   8   2  -8  380.66   50.29 
  -2   8  -8  422.76   58.69 
  -8  -2  -8  405.26   41.20 
  -8  -2  -8  419.26   61.49 
  -8  -2   8  352.06   43.20 
   8   2   8  300.37   40.80 
   2  -8   8  389.76   43.80 
  -8  -2   8  471.65   44.80 
  -2   8   8  390.16   46.40 
   8   2   8  374.66   42.90 
   2  -8   8  406.36   41.70 
   8   2   8  480.55   63.49 
   8   0  -8  230.38   37.70 
  -8   0  -8  211.88   24.30 
   0   8  -8  147.09   35.60 
  -8   0  -8  204.48   23.80 
   0   8  -8  191.78   35.30 
   0  -8  -8  240.28   29.30 
   8   0  -8  199.48   29.40 
   0  -8  -8  324.17   49.30 
   0  -8  -8  213.88   32.20 
  -8   0  -8  221.58   41.40 
   8   0  -8  200.68   39.00 
  -8   0  -8  267.87   38.90 
   0  -8   8  223.38   27.60 
  -8   0   8  212.18   28.30 
   0   8   8  198.78   30.90 
  -8   0   8  206.08   27.70 
  -8   2  -8  459.65   59.89 
   2   8  -8  309.07   53.19 
   2   8  -8  367.36   53.69 
  -8   2  -8  373.56   45.20 
   8  -2  -8  447.56   62.39 
  -8   2  -8  345.07   46.80 
  -8   2  -8  520.35   55.49 
  -2  -8  -8  442.26   47.70 
   8  -2  -8  319.57   47.30 
  -8   2   8  454.95   48.30 
  -2  -8   8  438.56   45.50 
  -2  -8   8  371.76   45.80 
  -8   2   8  396.26   46.60 
   8  -2   8  405.46   46.20 
   2   8   8  334.67   49.99 
   8  -4  -8  281.97   33.30 
  -8   4  -8  275.47   42.40 
  -4  -8  -8  328.57   36.50 
   8  -4  -8  198.48   36.60 
   4   8  -8  291.97   45.90 
   8  -4   8  253.07   35.70 
   4   8   8  279.07   44.80 
   4   8   8  227.78   40.20 
   4   8   8  380.56   49.90 
  -4  -8   8  312.77   35.90 
   8  -6  -8   67.09   19.50 
  -6  -8  -8   48.00   16.60 
  -8   6  -8   83.89   33.60 
  -6  -8  -8  106.49   40.10 
  -8   6  -8   87.49   36.70 
  -8   6  -8   52.69   24.80 
  -6  -8  -8  152.98   42.20 
   6   8   8  100.19   15.80 
   8  -6   8   77.39   18.00 
   6   8   8   64.39   23.90 
   6   8   8   74.19   19.20 
  -8   6   8   66.39   17.70 
  -6  -8   8   91.89   18.10 
  -6  -8   8   53.79   16.40 
   6   8   8   96.19   30.60 
  -8   8  -8  192.58   45.20 
  -8   8  -8  112.39   53.89 
   8   8  -8  183.78   39.60 
  -8  -8  -8  188.68   50.79 
  -8   8  -8    4.60   29.30 
  -8  -8  -8  249.48   53.59 
   8   8  -8  102.39   46.00 
   8   8   8  118.99   35.20 
  -8   8   8   79.19   23.30 
  -8  -8   8  128.39   25.70 
   8  -8   8  112.89   26.40 
   9   7  -8   90.99   34.80 
  -9  -7  -8  184.78   51.59 
   9   7  -8  232.78   41.00 
   9   7  -8  122.39   46.70 
  -9  -7  -8   87.09   42.60 
  -7   9  -8   17.10   34.30 
  -9  -7   8  106.79   22.80 
   7  -9   8   85.89   22.70 
  -7   9   8   98.79   26.90 
  -9  -7   8  131.49   23.90 
   9   7   8  176.08   36.40 
  -9  -5  -8  101.89   19.30 
   9   5  -8   93.19   30.50 
  -5   9  -8   45.60   16.40 
  -9  -5  -8  137.59   41.40 
  -5   9  -8   58.59   36.10 
  -9  -5  -8  147.29   36.50 
   9   5  -8  108.09   27.30 
   9   5  -8  222.78   34.10 
   5  -9  -8   80.89   23.10 
   9   5   8   97.69   23.00 
  -9  -5   8  127.89   21.10 
  -9  -5   8   84.09   17.90 
   9   5   8   96.59   24.10 
   5  -9   8  119.59   22.90 
  -5   9   8   99.69   22.70 
   5  -9   8   89.19   13.50 
   9   3  -8   49.60   24.70 
   3  -9  -8   40.10   17.80 
  -9  -3  -8   53.09   24.60 
   3  -9  -8   63.89   14.70 
  -3   9  -8   26.70   16.00 
  -9  -3  -8   29.80   28.00 
   9   3  -8   51.79   23.40 
   9   3  -8   15.50   16.30 
  -9  -3  -8   40.30   17.90 
   3  -9  -8  136.39   36.10 
   3  -9  -8  175.68   54.19 
  -9  -3  -8   36.50   10.80 
   9   3  -8   35.90   12.80 
  -9  -3  -8   50.39   10.50 
  -3   9  -8   56.79   31.00 
   9   3   8   37.80   29.00 
   9   3   8   62.89   15.90 
   3  -9   8   58.49   14.00 
  -9  -3   8   53.69   13.80 
  -3   9   8   33.20   15.10 
  -9  -3   8   55.89   14.90 
   9   3   8   40.30   12.50 
  -1   9  -8  251.27   54.49 
   1  -9  -8  192.98   35.60 
  -9  -1  -8  277.37   48.90 
   9   1  -8  191.18   34.60 
  -1   9  -8  205.78   40.90 
   9   1  -8  255.47   44.30 
  -9  -1  -8  247.28   28.90 
   9   1  -8  336.27   45.50 
   1  -9   8  262.87   32.00 
  -9  -1   8  313.37   34.50 
  -9  -1   8  236.68   34.20 
   1  -9   8  264.37   37.60 
   9   1   8  258.47   30.30 
  -1   9   8  244.88   36.40 
  -1  -9  -8  243.58   38.80 
  -1  -9  -8  296.77   35.90 
   9  -1  -8  241.18   36.80 
  -9   1  -8  279.37   32.50 
  -9   1  -8  351.36   53.19 
   1   9  -8  240.68   38.10 
  -9   1  -8  252.27   30.30 
   9  -1  -8  439.06   50.39 
  -1  -9   8  260.47   33.90 
   1   9   8  231.58   41.40 
  -9   1   8  270.67   34.70 
  -1  -9   8  271.07   33.50 
  -9   1   8  320.67   36.40 
  -9   3  -8   54.89   27.40 
   9  -3  -8  123.29   34.40 
  -3  -9  -8   70.99   37.40 
   9  -3  -8   37.30   16.50 
   3   9  -8   35.20   22.00 
  -9   3  -8   66.39   31.00 
  -3  -9  -8   87.39   39.50 
  -3  -9  -8   58.49   15.00 
   3   9  -8   34.80   19.80 
   9  -3  -8  122.69   33.70 
   3   9  -8   29.90   23.00 
  -9   3  -8  105.49   26.60 
   3   9   8   35.90   21.60 
   9  -3   8   57.29   15.80 
   3   9   8   60.59   23.20 
  -3  -9   8   81.89   15.70 
  -9   3   8   66.29   15.50 
   5   9  -8  130.99   35.00 
   9  -5  -8   70.79   21.30 
  -5  -9  -8  208.58   50.19 
  -9   5  -8  147.49   41.00 
  -9   5  -8  178.58   40.80 
   5   9  -8  127.49   34.80 
  -9   5  -8  104.39   29.30 
  -5  -9  -8   92.69   21.20 
   5   9  -8  149.59   31.70 
  -9   5   8  141.79   27.40 
  -9   5   8   94.09   20.80 
  -5  -9   8  150.38   22.70 
   9  -5   8  101.29   21.60 
   5   9   8   82.69   28.20 
  -5  -9   8  116.89   22.20 
   5   9   8  145.49   32.90 
  -9   7  -8  154.28   50.89 
   7   9  -8  118.09   37.20 
  -7  -9  -8  169.28   49.99 
   7   9  -8  221.38   46.40 
  -9   7  -8   72.99   30.60 
  -7  -9   8  135.39   34.50 
  -9   7   8  102.89   24.60 
   9  -7   8   99.79   26.40 
   7   9   8  137.49   40.80 
  -7  -9   8   91.89   22.30 
  -6  10  -8    0.00   10.90 
 -10  -6  -8  -12.10   31.00 
 -10  -6  -8   20.80   38.10 
  10   6  -8   -2.90   33.80 
  10   6  -8  -26.10   36.00 
  10   6  -8  -35.80   28.30 
  -6  10  -8   16.20   33.30 
   6 -10   8    5.20   13.10 
  -6  10   8   -4.00   18.20 
 -10  -6   8    9.30   12.50 
  10   6   8   18.20   23.30 
   4 -10  -8  176.38   36.70 
  -4  10  -8  161.58   54.69 
  10   4  -8  312.47   47.10 
 -10  -4  -8  353.26   59.29 
  10   4  -8  228.28   39.80 
 -10  -4  -8  249.08   32.00 
 -10  -4   8  259.87   34.60 
  -4  10   8  215.98   38.80 
  10   4   8  323.07   42.30 
  10   4   8  147.99   30.90 
 -10  -4   8  195.18   31.10 
   4 -10   8  270.17   34.90 
  10   2  -8  342.07   46.40 
 -10  -2  -8  328.47   46.00 
   2 -10  -8  258.27   40.10 
  10   2  -8  224.58   43.30 
 -10  -2  -8  219.18   30.70 
 -10  -2  -8  284.47   62.39 
  -2  10  -8  231.98   56.59 
   2 -10  -8  267.27   37.90 
  10   2  -8  190.98   38.20 
 -10  -2   8  242.48   35.40 
   2 -10   8  260.67   33.20 
 -10  -2   8  232.28   32.70 
  -2  10   8  270.27   41.90 
  10   2   8  297.57   36.10 
   0 -10  -8   19.80   35.60 
  10   0  -8   13.30   26.00 
   0  10  -8  -12.30   28.90 
   0 -10  -8   -0.50   16.30 
 -10   0  -8   -9.70   29.40 
   0 -10  -8    3.30   11.00 
 -10   0  -8    5.20    6.00 
 -10   0  -8    8.40   16.90 
   0 -10  -8   44.00   31.70 
 -10   0  -8    0.80    5.80 
  10   0  -8   15.70   27.40 
   0  10  -8   19.30   25.10 
  10   0  -8   -3.00   15.20 
 -10   0  -8    5.40    6.30 
   0 -10   8    7.20    8.10 
 -10   0   8   10.70   10.10 
   0  10   8    3.90   14.70 
 -10   0   8   -8.20   11.40 
  -2 -10  -8  304.17   34.50 
  10  -2  -8  173.98   34.00 
   2  10  -8  197.88   44.10 
   2  10  -8  204.28   47.60 
 -10   2  -8  247.18   30.40 
   2  10   8  178.98   38.10 
  10  -2   8  217.68   31.40 
  -2 -10   8  259.97   29.70 
 -10   2   8  195.68   30.20 
  10  -4  -8  199.18   36.50 
  -4 -10  -8  579.54  131.59 
   4  10  -8  245.08   51.99 
 -10   4  -8  186.68   38.80 
  -4 -10  -8  261.77   36.00 
   4  10  -8  198.48   47.10 
 -10   4   8  257.07   35.00 
 -10   4   8  283.87   41.40 
   4  10   8  322.07   50.39 
  10  -4   8  304.17   36.50 
   4  10   8  257.37   50.69 
  -6 -10  -8   16.00   39.10 
   6  10  -8   21.00   29.30 
  -6 -10  -8    4.80   32.90 
 -10   6  -8   25.20   35.40 
  10  -6   8    6.00   16.30 
  -6 -10   8   10.60   14.00 
   6  10   8   -3.10   31.50 
 -10   6   8    5.10   14.10 
  -5  11  -8    3.20   15.00 
   5 -11  -8   30.30   64.19 
  11   5  -8  -11.30   32.60 
  -5  11  -8   11.20   47.80 
 -11  -5  -8   21.10   40.70 
   5 -11   8   -5.90    8.40 
 -11  -5   8    5.00   13.60 
   5 -11   8   13.80   22.20 
  -3  11  -8  -16.70   18.50 
 -11  -3  -8   10.30   13.20 
   3 -11  -8   43.10   52.69 
  11   3  -8   58.19   38.90 
 -11  -3  -8   49.10   40.50 
  -3  11  -8  120.39   48.90 
   3 -11  -8   70.89   40.70 
 -11  -3  -8   15.70   11.20 
  11   3   8   43.20   21.70 
  -3  11   8   52.99   23.70 
   3 -11   8   29.80   12.90 
 -11  -3   8   27.80   12.40 
   1 -11  -8   46.10   36.30 
 -11  -1  -8   22.30   11.20 
   1 -11  -8   34.10   22.00 
   1 -11  -8   22.40   14.40 
   1 -11  -8   17.80   47.00 
  11   1  -8   55.09   22.80 
 -11  -1  -8    9.30    8.40 
  11   1  -8   38.90   33.60 
  -1  11  -8   20.10   37.10 
  -1  11   8   -3.70   19.30 
 -11  -1   8   24.40   12.70 
   1 -11   8   16.20   11.50 
  11   1   8   14.10   15.80 
 -11   1  -8   33.90   40.80 
  11  -1  -8   61.79   34.70 
  -1 -11  -8   72.49   49.10 
  -1 -11  -8    8.30   19.50 
  -1 -11  -8   16.90   13.70 
  -1 -11  -8   29.50   38.50 
   1  11  -8   10.40   33.10 
   1  11  -8   22.40   31.30 
   1  11   8   18.70   21.70 
  -1 -11   8   13.70   10.20 
 -11   1   8   19.40   13.20 
   3  11  -8   49.20   35.60 
 -11   3  -8   50.39   44.80 
  -3 -11  -8  100.69   45.40 
  -3 -11  -8   57.79   40.60 
  -3 -11  -8   47.40   17.10 
   3  11  -8   50.69   38.50 
  11  -3   8   24.90   16.00 
 -11   3   8   20.90   14.90 
  -5 -11  -8   10.80   36.70 
 -11   5  -8    1.10   26.00 
  -5 -11  -8   39.40   51.49 
   5  11  -8  -18.10   35.80 
  11  -5  -8   31.10   16.30 
  -5 -11  -8    5.00    9.40 
  11  -5   8   19.20   18.30 
 -11   5   8   24.90   26.50 
   5  11   8   -4.10   28.60 
   5  11   8   12.80   31.10 
  -2  12  -8  -46.70   24.60 
  12   2  -8    9.30   39.40 
   2 -12  -8   39.10   39.60 
  -2  12  -8   -4.00   55.49 
   2 -12   8    8.80   12.30 
 -12   0  -8  163.28   21.10 
   0  12  -8  186.48   49.90 
   0  12  -8  258.27   65.79 
 -12   0  -8  314.57   75.99 
  12   0  -8  124.79   28.40 
   0  12   8  259.67   43.10 
  -2 -12  -8   -1.90   11.70 
  -2 -12  -8   84.19   87.59 
 -12   2  -8  -14.40   49.00 
  -2 -12  -8   37.10   38.10 
  12  -2  -8   15.50   17.00 
   2  12   8    3.50   28.20 
  -2 -12   8   -7.20   10.50 
   1   0  -9    7.00    5.10 
  -1   0  -9    1.10    3.00 
  -1   0  -9    8.90    4.70 
   1   0  -9    5.00    3.90 
   0   1  -9    5.60    4.60 
   0  -1  -9   -1.10    3.70 
   1   0  -9    2.80    4.60 
   0  -1  -9   13.50   10.10 
   0  -1  -9    5.70    7.90 
   0   1  -9   -0.60    2.80 
  -1   0  -9    1.80    9.10 
  -1   0  -9    3.20    4.60 
   0   1  -9    3.80    4.80 
   0   1  -9  -12.70    7.40 
   0  -1  -9   -1.40    4.30 
   0   1  -9   -1.80    4.60 
   0  -1  -9   -3.90    4.80 
   1   0  -9    9.40    9.20 
   1   0   9   -1.60    2.50 
   1   0   9   -1.10    8.20 
  -1   0   9   -7.70    7.30 
   0   1   9   -0.10    5.20 
   0  -1   9   -1.60    2.70 
   0   1   9   -1.00    3.30 
   0  -1   9    1.20    3.20 
   0   1   9    3.70    3.40 
  -1   0   9    0.10    3.70 
   0   1   9    1.40    8.90 
  -1   0   9   -0.30    2.90 
   1   0   9   -2.10    4.20 
  -1   0   9    2.70    5.50 
  -1   2  -9 1893.41  199.78 
  -1   2  -9 1872.01  201.18 
   1  -2  -9 1968.90  209.38 
  -2  -1  -9 2102.99  200.98 
  -1   2  -9 2002.00  201.48 
   1  -2  -9 2080.39  207.08 
   1  -2  -9 1874.11  201.48 
  -2  -1  -9 1939.61  200.88 
  -2  -1  -9 1794.72  200.28 
   1  -2  -9 1931.31  201.28 
  -1   2  -9 1859.01  208.28 
   2   1  -9 1828.72  201.68 
   2   1  -9 1672.63  200.68 
  -2  -1  -9 1855.81  207.58 
   2   1  -9 2080.59  201.48 
  -2  -1  -9 1874.81  207.88 
  -2  -1  -9 1902.61  200.38 
   1  -2  -9 1812.92  201.68 
   2   1  -9 1845.12  206.88 
  -1   2  -9 2037.70  200.08 
   2   1   9 1990.30  200.28 
  -1   2   9 1918.41  200.78 
   2   1   9 2129.79  207.68 
   1  -2   9 2019.00  199.08 
  -2  -1   9 2230.08  201.58 
  -1   2   9 2037.90  201.18 
  -1   2   9 1974.50  202.08 
   1  -2   9 2187.78  200.78 
  -2  -1   9 2146.19  201.08 
   1  -2   9 1889.91  199.28 
   1  -2   9 1921.71  199.48 
  -1  -2  -9 1797.82  201.58 
  -2   1  -9 1986.30  209.48 
   2  -1  -9 1783.32  202.68 
  -2   1  -9 1904.91  201.38 
  -2   1  -9 1830.52  201.68 
   1   2  -9 1741.03  201.78 
   1   2  -9 1728.73  201.38 
   1   2  -9 1804.02  208.08 
   2  -1  -9 1909.11  208.78 
   2  -1  -9 1767.02  201.88 
  -2   1  -9 1771.42  200.28 
  -1  -2  -9 2003.50  202.28 
  -1  -2  -9 1999.10  210.48 
   1   2  -9 2006.30  201.88 
   2  -1  -9 2052.49  202.38 
  -1  -2  -9 1990.60  202.68 
  -2   1  -9 2076.59  200.68 
   1   2  -9 1956.70  202.78 
  -1  -2  -9 1864.41  201.68 
  -1  -2  -9 1835.62  207.78 
   2  -1   9 2219.48  201.48 
   1   2   9 2017.50  201.78 
  -2   1   9 1976.00  202.78 
  -1  -2   9 1861.71  201.18 
  -1  -2   9 2063.39  201.48 
   1   2   9 2176.58  202.48 
   1   2   9 2108.69  210.18 
  -2   1   9 2216.18  208.38 
  -2   1   9 2012.80  201.98 
  -1  -2   9 1956.30  200.78 
  -2   1   9 1918.61  201.68 
   2  -1   9 2260.27  200.58 
  -1  -2   9 2240.18  202.08 
   2  -1   9 2019.40  200.18 
   2  -3  -9   98.49   20.60 
   3   2  -9   53.89   13.00 
   2  -3  -9   93.39   15.60 
  -3  -2  -9   58.09   19.20 
  -2   3  -9   97.39   25.40 
   3   2  -9   80.49   20.00 
  -3  -2  -9   73.59   14.70 
  -3  -2  -9   81.29   13.30 
   2  -3  -9   84.79   23.80 
   2  -3  -9  104.99   17.00 
  -2   3  -9   78.99   10.90 
   2  -3  -9   91.99   15.90 
  -2   3  -9   93.99   15.50 
  -3  -2  -9   76.09   21.10 
  -3  -2  -9   81.69   14.10 
   3   2  -9  111.39   17.50 
  -3  -2  -9   85.59   12.60 
   3   2   9  126.39   24.80 
  -3  -2   9   98.09   14.70 
   3   2   9  105.49   13.60 
   2  -3   9   94.69   10.60 
  -2   3   9   93.79   13.70 
   2  -3   9   89.39   10.90 
   3   2   9   69.19   13.80 
  -2   3   9  102.39   15.10 
   3   0  -9    0.10    6.30 
   0  -3  -9   -2.50    3.80 
  -3   0  -9    1.30    3.20 
   0   3  -9   -0.10    9.10 
   0  -3  -9   -0.70    7.70 
   0  -3  -9    7.80    6.10 
  -3   0  -9    3.30    8.90 
   0  -3  -9    9.80    6.70 
  -3   0  -9   -0.90    5.20 
   3   0  -9   -1.80    9.00 
  -3   0  -9    1.10    9.50 
  -3   0  -9   -1.20    4.00 
   0  -3  -9    8.60   12.20 
  -3   0  -9   -0.90    3.70 
   0   3  -9    3.40    6.30 
   0  -3  -9   -3.90    6.60 
  -3   0   9    4.90    4.40 
   3   0   9   19.80    5.90 
  -3   0   9    2.70    4.40 
   0  -3   9    3.70    4.80 
   0  -3   9   -1.10    4.90 
   3   0   9    3.60    4.20 
   0  -3   9   10.00    4.50 
   3   0   9    3.60    9.30 
   0  -3   9   -0.10    3.50 
  -3   0   9   -2.70    8.50 
   3  -2  -9   96.09   17.20 
  -2  -3  -9   85.69   16.00 
   2   3  -9   82.59   14.70 
   3  -2  -9   99.29   16.10 
  -2  -3  -9   91.69   23.10 
   2   3  -9   90.39   16.20 
   3  -2  -9   62.59   20.30 
  -2  -3  -9   79.69   21.20 
  -2  -3  -9   79.59   13.70 
  -3   2  -9   81.59   14.30 
  -3   2  -9  101.79   24.80 
   3  -2  -9   82.39   14.90 
  -2  -3  -9   91.39   13.50 
   2   3  -9   78.09   21.20 
  -3   2   9   85.29   14.40 
  -2  -3   9   90.79   13.40 
  -3   2   9   88.29   14.70 
  -3   2   9  114.99   21.90 
  -2  -3   9   90.59   13.10 
   3  -2   9  101.29   10.70 
   2   3   9   91.29   15.00 
   3  -2   9   86.19   10.00 
   2   3   9  112.79   16.10 
  -4  -3  -9   21.20    7.60 
  -4  -3  -9   11.80   14.80 
  -3   4  -9   24.10   18.60 
  -4  -3  -9   63.59   21.40 
  -4  -3  -9   43.30    9.70 
   3  -4  -9   19.30    9.40 
  -4  -3  -9   53.09   13.30 
   4   3  -9   30.60    9.90 
  -4  -3  -9   39.50   11.30 
  -3   4  -9   43.50    6.50 
  -3   4  -9   40.90   11.90 
   3  -4  -9   44.30   14.00 
   3  -4  -9   44.90   13.80 
   4   3  -9   84.49   13.60 
  -4  -3  -9   64.69    9.00 
   4   3  -9   42.30   12.00 
   4   3  -9   32.10   14.00 
   3  -4  -9   36.00   21.40 
   4   3   9   25.60   11.10 
  -4  -3   9   45.10    9.70 
  -3   4   9   37.70   10.10 
  -3   4   9   95.09   13.60 
   3  -4   9   37.30    9.10 
   3  -4   9   41.80    5.90 
   4   3   9   49.20    8.50 
   3  -4   9   46.70    7.10 
   3  -4   9   38.10    5.80 
  -4  -3   9   36.10    9.50 
   4   1  -9  694.13   86.29 
   4   1  -9  948.71   87.99 
   1  -4  -9  766.92   86.19 
  -1   4  -9  820.32   87.99 
  -4  -1  -9  754.52   84.29 
   4   1  -9  712.73   91.09 
  -1   4  -9  865.31   99.79 
  -4  -1  -9  767.32   85.49 
  -4  -1  -9  846.82   85.89 
  -4  -1  -9  815.62   85.49 
   4   1  -9  759.32   87.49 
  -4  -1  -9  728.43   85.09 
  -1   4  -9  821.42   84.89 
   1  -4  -9  972.50  101.29 
   1  -4  -9  773.62   87.09 
  -4  -1  -9  739.53   93.79 
   1  -4  -9  727.73   87.09 
   1  -4  -9  803.42   92.09 
  -4  -1  -9  712.93   92.29 
  -1   4   9  787.52   86.49 
   1  -4   9  888.51   86.09 
   4   1   9  803.12   85.29 
   1  -4   9  767.32   84.49 
  -1   4   9  902.01   92.49 
   4   1   9  855.41   92.79 
   1  -4   9  898.21   84.89 
   1  -4   9  929.31   84.09 
  -4  -1   9  830.02   86.29 
  -4  -1   9  901.61   86.59 
   4   1   9  880.91   84.39 
   4  -1  -9  763.42   88.99 
   1   4  -9  854.61   90.79 
  -1  -4  -9  863.61   89.19 
  -1  -4  -9  920.51   89.29 
  -1  -4  -9  863.21   90.39 
   1   4  -9  849.41   88.69 
   4  -1  -9  809.62   94.99 
  -4   1  -9  900.81   86.19 
  -4   1  -9  810.62   85.69 
  -4   1  -9  836.62   96.19 
  -4   1  -9  745.53   99.29 
   1   4  -9  777.82   88.99 
  -1  -4  -9  754.12   95.49 
  -4   1  -9  821.02   87.39 
  -1  -4  -9  894.61  101.39 
  -1  -4  -9  766.62   90.09 
  -4   1  -9  800.52   85.89 
   4  -1  -9  848.82   90.99 
   4  -1   9  822.22   85.19 
  -4   1   9  990.50   94.79 
  -1  -4   9  768.02   87.69 
  -4   1   9  835.02   88.99 
  -4   1   9  917.31   89.29 
   1   4   9  848.22   92.69 
   1   4   9  839.52   89.59 
  -1  -4   9  908.11   88.19 
   4  -3  -9   56.49   14.10 
  -3  -4  -9   23.80   17.10 
   3   4  -9   33.90   11.60 
   4  -3  -9   32.20    9.90 
   3   4  -9   29.30   10.80 
  -3  -4  -9   14.70   14.80 
  -4   3  -9   39.60   20.10 
  -4   3  -9   61.59   22.40 
   4  -3  -9   46.80   13.80 
  -3  -4  -9   42.70   13.10 
  -3  -4  -9   37.20   11.30 
   4  -3  -9   44.70   20.10 
  -4   3  -9   45.50   10.40 
  -3  -4  -9   35.40    9.20 
   3   4  -9   38.20   10.50 
   3   4  -9   31.50   16.80 
  -4   3   9   54.39   11.00 
   3   4   9   46.70   12.50 
   3   4   9   36.60   10.90 
  -3  -4   9   24.70    8.10 
  -4   3   9   32.80    9.40 
  -3  -4   9   42.20    9.00 
   4  -3   9   38.30    9.00 
  -5  -4  -9  767.12   80.89 
   4  -5  -9  685.73   70.59 
   5   4  -9  584.44   67.79 
   4  -5  -9  524.75   66.09 
  -4   5  -9  570.74   68.89 
  -4   5  -9  611.04   85.89 
  -5  -4  -9  541.25   65.09 
  -5  -4  -9  671.43   68.79 
  -5  -4  -9  533.55   62.99 
   5   4  -9  540.75   66.39 
   5   4  -9  526.95   64.19 
   5   4  -9  510.25   72.99 
  -5  -4  -9  605.74   78.39 
  -4   5   9  587.84   65.59 
   5   4   9  613.54   67.59 
   5   4   9  622.04   61.09 
   5   4   9  571.64   65.19 
   4  -5   9  673.63   65.89 
  -5  -4   9  686.23   65.39 
  -5  -4   9  514.55   64.19 
   2  -5  -9 1458.45  142.29 
  -2   5  -9 1201.18  139.49 
   5   2  -9 1183.78  142.19 
   5   2  -9 1314.27  143.69 
   2  -5  -9 1248.88  142.99 
  -2   5  -9 1346.67  144.69 
   2  -5  -9 1559.54  149.59 
  -5  -2  -9 1396.46  142.29 
   5   2  -9 1105.99  160.58 
  -5  -2  -9 1342.97  140.49 
  -5  -2  -9 1527.85  141.59 
  -5  -2  -9 1137.19  150.28 
  -5  -2  -9 1086.19  153.18 
   2  -5   9 1550.14  140.79 
   2  -5   9 1477.85  138.99 
  -5  -2   9 1514.95  142.19 
   5   2   9 1348.77  140.99 
   5   2   9 1515.55  150.48 
  -2   5   9 1294.47  142.19 
   2  -5   9 1473.05  141.89 
  -5  -2   9 1311.67  141.49 
  -5   0  -9    3.70    2.60 
   5   0  -9   -3.50    9.30 
  -5   0  -9    5.90    4.60 
   0  -5  -9   13.20    9.80 
   0  -5  -9   -8.60    4.80 
   5   0  -9    6.20   26.20 
  -5   0  -9    4.00    3.60 
   0  -5  -9   -6.00   13.80 
  -5   0  -9    8.90   11.90 
  -5   0  -9    8.70    5.00 
   5   0  -9    6.90    6.20 
   5   0  -9   10.10   12.20 
   0  -5  -9   -0.80   11.80 
   0   5  -9   26.90   10.70 
   0  -5  -9   38.20   11.10 
  -5   0  -9   -4.70   11.00 
   0   5  -9    5.70    5.40 
   0   5   9   -0.80    6.70 
   5   0   9    0.50    2.90 
   0  -5   9    3.10    4.00 
  -5   0   9   -4.10    4.90 
  -5   0   9   -9.30    4.50 
   0  -5   9    1.50    4.70 
   5  -2  -9 1658.63  155.18 
  -5   2  -9 1383.56  150.38 
  -2  -5  -9 1541.65  154.18 
   2   5  -9 1316.67  151.58 
   5  -2  -9 1573.94  163.68 
  -2  -5  -9 1524.95  152.08 
  -2  -5  -9 1636.54  167.68 
  -2  -5  -9 1275.77  160.48 
   5  -2  -9 1285.87  151.68 
   2   5  -9 1274.87  153.38 
  -5   2  -9 1320.27  158.58 
  -5   2  -9 1519.95  161.98 
  -2  -5   9 1332.87  150.58 
  -5   2   9 1547.85  152.18 
   2   5   9 1545.15  154.18 
  -5   2   9 1444.76  151.68 
  -2  -5   9 1674.63  151.28 
   5  -2   9 1441.56  151.08 
   2   5   9 1468.35  153.38 
   4   5  -9  586.04   71.09 
  -5   4  -9  598.54   72.09 
   5  -4  -9  527.55   69.99 
  -4  -5  -9  776.52   87.39 
   4   5  -9  564.54   72.19 
  -4  -5  -9  656.23   73.29 
  -4  -5  -9  729.23   70.99 
   5  -4  -9  754.12   73.79 
  -5   4  -9  710.83   83.19 
  -4  -5  -9  601.64   82.49 
  -5   4  -9  597.64   82.69 
  -4  -5   9  556.74   68.89 
  -5   4   9  574.74   69.79 
  -4  -5   9  680.23   69.69 
   5  -4   9  656.33   69.89 
  -5   4   9  641.34   70.69 
   4   5   9  658.33   73.19 
   4   5   9  678.63   69.59 
   5  -6  -9  147.59   19.00 
   6   5  -9   91.69   17.30 
  -6  -5  -9  161.78   36.40 
   6   5  -9  124.99   22.70 
  -6  -5  -9   91.19   16.00 
  -6  -5  -9  117.19   35.10 
  -5   6  -9  110.09   28.90 
   6   5  -9   87.49   29.50 
  -6  -5  -9  104.89   18.90 
   5  -6  -9  102.59   20.70 
   5  -6   9  103.29   19.30 
  -6  -5   9   75.29   16.70 
   6   5   9   80.99   21.60 
   6   5   9   91.39   19.60 
  -5   6   9  121.09   20.10 
  -6  -5   9  115.09   18.90 
   6   3  -9    2.30   10.00 
   6   3  -9    6.50   13.90 
   3  -6  -9    3.50    8.00 
  -6  -3  -9    7.40    7.10 
  -6  -3  -9    2.70   17.20 
   3  -6  -9   17.10   23.90 
  -6  -3  -9   10.80   16.00 
   6   3  -9   -7.70    9.40 
  -6  -3  -9   21.80   12.90 
   3  -6  -9   19.90   10.20 
  -3   6  -9   18.90   13.60 
  -3   6  -9    3.80    5.40 
   6   3  -9   -3.20    8.30 
  -6  -3  -9    9.50    6.50 
   3  -6  -9    9.70   15.70 
   6   3   9    4.80    6.10 
   3  -6   9    9.70    6.40 
  -6  -3   9   -4.10    6.20 
  -3   6   9    4.20    6.80 
   3  -6   9    3.70    5.80 
  -6  -3   9   -5.60    5.70 
   3  -6   9    7.30    4.00 
   3  -6   9    6.30    4.80 
   6   3   9    7.90    8.20 
  -6  -1  -9  104.09   14.50 
  -6  -1  -9  114.89   17.80 
   1  -6  -9  156.38   24.40 
   6   1  -9   92.59   24.10 
  -6  -1  -9   90.59   16.20 
   1  -6  -9  159.48   29.50 
  -6  -1  -9  145.29   32.90 
  -6  -1  -9  131.39   15.80 
   6   1  -9  121.59   20.60 
  -1   6  -9  133.39   25.50 
   1  -6  -9  174.98   20.40 
  -6  -1  -9  154.98   28.40 
  -6  -1  -9  131.09   19.60 
  -1   6   9  143.29   22.20 
   6   1   9  129.29   26.30 
   1  -6   9  136.89   18.00 
  -6  -1   9  125.49   18.30 
   1  -6   9  146.39   17.10 
  -6  -1   9  138.29   19.20 
  -1  -6  -9  158.78   20.80 
  -1  -6  -9   88.09   21.20 
  -6   1  -9  131.09   31.20 
   6  -1  -9  179.68   21.70 
   6  -1  -9  121.49   37.60 
  -6   1  -9  173.88   18.30 
  -1  -6  -9  187.28   40.40 
  -6   1  -9  145.49   29.30 
   1   6  -9  105.89   19.50 
   6  -1  -9  169.68   26.30 
   1   6  -9  154.78   26.50 
  -1  -6  -9  128.29   31.80 
   6  -1  -9  122.19   29.30 
   1   6   9  132.49   23.10 
  -1  -6   9  150.98   18.80 
  -6   1   9  141.09   20.50 
  -1  -6   9  107.69   18.30 
  -6   1   9  130.79   19.50 
  -6   3  -9    6.70   16.80 
   6  -3  -9    3.50    7.60 
   3   6  -9   19.80   10.30 
  -6   3  -9    6.90   16.10 
  -3  -6  -9    3.60    8.70 
   6  -3  -9   19.80   21.30 
   6  -3  -9    5.50   13.50 
   3   6  -9   -4.20   10.40 
  -3  -6  -9  -18.60   19.30 
   6  -3  -9   15.00   21.80 
  -6   3  -9   -3.00    8.70 
  -3  -6  -9    6.60   18.20 
  -6   3   9    2.40    6.30 
  -3  -6   9   19.90    7.30 
  -3  -6   9    9.00    6.80 
   6  -3   9    3.00    6.10 
   3   6   9    9.70   11.00 
   3   6   9   28.60   18.40 
  -6   3   9    4.90    8.10 
   6  -5  -9  111.59   26.20 
   6  -5  -9  216.48   30.80 
   5   6  -9   68.59   17.70 
  -5  -6  -9  107.19   19.40 
  -6   5  -9  100.39   26.10 
   6  -5  -9   96.69   21.80 
  -6   5  -9  159.68   37.40 
  -6   5  -9  126.89   36.90 
   5   6  -9   89.79   21.00 
  -5  -6  -9  137.49   38.10 
  -5  -6  -9  169.68   38.90 
   6  -5  -9   99.29   19.90 
   5   6  -9  115.69   24.80 
  -5  -6   9   73.09   16.70 
  -6   5   9   75.59   17.60 
  -5  -6   9  125.39   19.30 
   5   6   9  110.39   17.10 
  -6   5   9  125.39   20.80 
   5   6   9  109.49   21.40 
   6  -5   9  131.69   20.40 
   7   6  -9   40.20   21.40 
  -6   7  -9   47.90   29.90 
  -7  -6  -9   48.80   28.40 
   6  -7  -9   41.50   22.00 
   7   6  -9   12.00   25.80 
   7   6  -9   21.50   17.80 
  -6   7  -9   13.40   25.30 
   6  -7  -9    8.70   14.70 
   6  -7  -9   74.99   44.70 
  -7  -6  -9   10.40   11.50 
   7   6  -9   26.70   14.80 
  -7  -6  -9   38.30   30.20 
   6  -7  -9   -4.60    9.90 
   6  -7   9   25.60   11.80 
  -7  -6   9   36.00   12.40 
  -6   7   9   14.30   11.90 
  -7  -6   9   13.00   10.90 
   7   6   9   11.40   14.70 
  -7  -4  -9  169.18   21.20 
  -7  -4  -9  171.68   19.40 
   7   4  -9  125.89   26.50 
   7   4  -9  120.69   30.80 
  -7  -4  -9  134.09   35.90 
   7   4  -9   82.19   18.40 
   4  -7  -9  112.19   22.00 
  -4   7  -9  145.49   33.90 
   4  -7  -9  151.78   21.10 
   7   4  -9  101.89   22.80 
  -7  -4  -9  123.19   27.30 
  -7  -4  -9  150.78   34.50 
  -7  -4   9  139.29   21.40 
   4  -7   9  121.09   20.70 
   7   4   9  164.28   23.40 
   4  -7   9   92.49   13.60 
   4  -7   9  111.19   14.20 
   7   4   9  117.59   20.80 
  -7  -4   9  127.99   20.50 
  -4   7   9   92.39   20.10 
  -7  -2  -9  191.78   32.90 
  -2   7  -9  300.27   42.70 
   7   2  -9  267.57   37.90 
   7   2  -9  190.08   34.70 
  -7  -2  -9  270.97   30.70 
   2  -7  -9  321.07   34.30 
   2  -7  -9  223.78   36.30 
  -7  -2  -9  255.27   46.40 
  -7  -2  -9  260.37   32.20 
   2  -7   9  259.47   30.90 
   7   2   9  308.97   46.00 
   2  -7   9  317.67   31.10 
   7   2   9  285.27   31.60 
  -7  -2   9  280.97   33.20 
   7   2   9  252.27   30.80 
   2  -7   9  314.97   33.50 
  -7  -2   9  242.78   32.50 
  -2   7   9  240.28   34.10 
   0  -7  -9    9.20   21.90 
  -7   0  -9   -6.10   15.00 
  -7   0  -9   -2.10    2.90 
   0   7  -9   -0.70   13.50 
  -7   0  -9    4.60    4.60 
   0  -7  -9   -0.50    7.30 
   7   0  -9   -1.90    8.40 
  -7   0  -9   -3.30   14.60 
  -7   0  -9   -1.70    3.40 
   0  -7  -9  -16.90   15.90 
   7   0  -9   11.70   15.50 
   0   7  -9  -10.50   10.40 
   0  -7  -9   12.70   18.70 
   7   0  -9    1.00   16.00 
  -7   0   9   -2.20    5.90 
  -7   0   9   14.80    8.10 
   0  -7   9   17.40    7.00 
   0  -7   9    1.50    6.20 
   0   7   9   -0.40   10.30 
   0  -7   9    6.50    5.30 
   2   7  -9  286.57   39.30 
   2   7  -9  374.06   44.90 
   7  -2  -9  211.28   37.70 
  -7   2  -9  323.07   48.70 
   7  -2  -9  466.55   48.20 
  -7   2  -9  306.47   46.00 
  -7   2  -9  300.17   36.70 
  -2  -7  -9  374.46   54.39 
   7  -2  -9  362.36   54.19 
  -2  -7  -9  276.17   41.00 
  -2  -7  -9  319.67   38.50 
  -2  -7   9  303.57   36.80 
  -7   2   9  302.87   38.00 
   7  -2   9  286.67   37.10 
  -2  -7   9  303.27   36.80 
  -7   2   9  309.77   37.60 
  -7   2   9  406.96   45.90 
   2   7   9  304.27   41.10 
  -4  -7  -9  237.08   48.40 
  -7   4  -9  115.79   25.70 
  -7   4  -9  176.08   39.40 
   7  -4  -9  145.39   24.50 
  -4  -7  -9  165.98   23.40 
   4   7  -9  167.78   32.70 
   7  -4  -9  206.28   26.10 
   4   7  -9  106.19   23.60 
  -4  -7  -9  166.58   42.00 
   7  -4  -9  225.58   33.10 
   7  -4  -9  153.98   30.30 
  -7   4  -9  128.39   34.30 
  -7   4   9  108.79   21.70 
  -4  -7   9  144.89   21.40 
   7  -4   9  138.39   23.10 
   4   7   9  110.39   24.50 
   4   7   9  158.88   34.00 
  -7   4   9  135.99   23.70 
  -4  -7   9  127.19   22.00 
   4   7   9  142.19   28.40 
   7  -6  -9   56.49   17.60 
  -7   6  -9  -16.70   28.20 
  -6  -7  -9   16.00   12.00 
  -7   6  -9   30.60   27.30 
   7  -6  -9   91.09   43.60 
   6   7  -9   22.20   17.70 
   6   7  -9    3.10   17.30 
   6   7  -9   21.40   15.70 
  -6  -7  -9   40.50   31.80 
   7  -6  -9   49.70   13.90 
  -7   6  -9   18.30   22.90 
  -6  -7  -9   39.90   30.30 
  -6  -7  -9   16.00   10.00 
  -6  -7   9    2.80   10.10 
  -7   6   9   27.90   11.70 
  -6  -7   9   -0.90    9.20 
   6   7   9  -15.10   15.30 
   6   7   9   66.79   23.50 
   7  -6   9   21.80   12.40 
  -8  -7  -9  104.09   43.80 
  -7   8  -9   51.69   31.90 
  -8  -7  -9  119.99   39.80 
   8   7  -9   41.00   36.70 
   8   7  -9  137.49   34.30 
   7  -8  -9   76.49   25.30 
  -7   8  -9   27.00   86.59 
   8   7   9   91.29   28.50 
  -8  -7   9   61.99   16.90 
  -7   8   9   60.29   19.90 
   8   7   9    4.30   26.10 
  -8  -7   9   51.49   17.80 
   7  -8   9   83.89   20.20 
   8   5  -9  318.67   52.29 
  -5   8  -9  292.57   62.59 
   8   5  -9  332.17   44.40 
  -8  -5  -9  392.66   44.10 
   8   5  -9  503.65   55.59 
   5  -8  -9  332.77   49.90 
   8   5  -9  350.06   60.39 
  -8  -5  -9  500.65   69.19 
  -8  -5  -9  480.45   48.60 
  -8  -5  -9  357.46   55.89 
   5  -8  -9  447.86   48.30 
   8   5   9  366.66   49.40 
  -8  -5   9  426.26   47.70 
  -5   8   9  330.47   47.40 
   5  -8   9  349.47   47.10 
   8   5   9  420.16   51.29 
   5  -8   9  395.46   40.00 
   3  -8  -9   83.89   36.20 
   8   3  -9   -1.10   17.20 
  -8  -3  -9   37.00    9.70 
  -8  -3  -9   47.40   23.80 
  -8  -3  -9   24.40   29.20 
  -8  -3  -9   24.40   16.10 
   8   3  -9   15.20   13.00 
  -3   8  -9    5.10   22.60 
  -3   8  -9   21.60   11.00 
  -3   8  -9    3.80   11.00 
   3  -8  -9   30.90   26.90 
   8   3  -9   45.60   16.90 
   8   3  -9   18.70   17.10 
   3  -8  -9   36.20   15.50 
   3  -8  -9   18.90   10.30 
  -8  -3  -9   36.70   12.00 
   8   3   9   22.80   11.00 
  -3   8   9    7.20   10.50 
   3  -8   9   35.70   11.00 
   3  -8   9   21.00    7.10 
  -8  -3   9   31.30   10.60 
   8   3   9   12.80   10.20 
  -8  -3   9   44.40   12.20 
   1  -8  -9  335.57   58.19 
   8   1  -9  374.56   56.29 
   8   1  -9  551.04   61.79 
  -8  -1  -9  509.95   70.09 
  -1   8  -9  513.55   65.99 
   1  -8  -9  569.64   56.69 
   8   1  -9  438.56   61.49 
  -8  -1  -9  513.65   51.69 
  -1   8  -9  416.76   58.99 
  -1   8   9  523.85   59.09 
  -8  -1   9  555.04   56.09 
   1  -8   9  516.35   55.19 
  -8  -1   9  464.05   54.89 
   1  -8   9  500.05   53.39 
   1  -8   9  465.15   53.19 
   8  -1  -9  636.94   72.89 
  -8   1  -9  425.36   54.09 
  -8   1  -9  508.25   53.59 
   8  -1  -9  456.85   78.69 
   8  -1  -9  461.05   58.29 
   1   8  -9  456.95   63.89 
  -1  -8  -9  407.96   59.69 
  -8   1  -9  544.75   70.49 
   1   8  -9  399.06   62.09 
  -1  -8  -9  527.25   57.69 
   1   8  -9  515.95   59.19 
  -8   1   9  648.44   58.99 
   1   8   9  516.55   60.69 
  -1  -8   9  541.85   56.29 
  -8   1   9  472.05   56.59 
  -1  -8   9  514.25   56.29 
  -1  -8   9  492.45   55.79 
  -3  -8  -9   52.19   34.60 
   8  -3  -9   -2.80   11.00 
   8  -3  -9   55.19   22.40 
  -8   3  -9   20.20   24.40 
   3   8  -9   19.60   18.90 
   3   8  -9   29.10   15.40 
   8  -3  -9   94.19   40.90 
  -3  -8  -9   40.70   11.50 
   8  -3  -9   38.70   27.20 
  -3  -8  -9   40.80   28.80 
   3   8   9   50.19   20.50 
  -8   3   9   26.90   12.60 
  -3  -8   9   27.20   10.60 
  -3  -8   9   22.20   10.00 
  -8   3   9   31.90   20.60 
   8  -3   9   24.20   11.40 
  -5  -8  -9  461.75   50.89 
  -8   5  -9  316.37   55.89 
   5   8  -9  419.86   55.69 
   5   8  -9  427.96   64.09 
   8  -5  -9  396.56   51.39 
  -8   5   9  458.35   52.99 
   5   8   9  524.65   67.29 
  -5  -8   9  435.76   49.10 
   5   8   9  432.86   59.09 
  -8   5   9  397.96   50.39 
   8  -5   9  395.46   50.49 
   5   8   9  421.56   57.19 
  -5  -8   9  340.57   48.20 
  -8   7  -9   26.60   29.60 
  -8   7  -9  125.89   42.40 
  -7  -8  -9   77.19   39.30 
  -8   7  -9  121.39   47.60 
   7   8  -9   58.79   28.00 
   8  -7  -9   40.10   22.70 
  -7  -8  -9   97.99   41.10 
   7   8  -9   82.89   28.90 
   8  -7   9   70.39   20.10 
   7   8   9   69.19   26.70 
  -8   7   9   72.09   19.70 
  -7  -8   9   56.39   17.80 
   7   8   9   75.99   30.00 
  -7  -8   9   55.59   18.10 
   9   8  -9  -36.80   49.00 
  -8   9  -9   65.89   35.30 
   8  -9  -9  112.19   73.19 
  -9  -8  -9   62.49   42.70 
   9   8  -9  -53.29   57.79 
  -9  -8  -9   45.50   47.50 
  -8   9  -9   46.20   51.89 
   8  -9   9   44.50   21.60 
  -9  -8   9   30.80   17.80 
   9   8   9   14.20   38.50 
   6  -9  -9   76.19   55.49 
   9   6  -9   30.40   26.90 
  -9  -6  -9   29.60   33.10 
   9   6  -9    8.30   31.20 
  -9  -6  -9    5.20   32.70 
   6  -9  -9   31.40   24.70 
   9   6  -9   -4.10   26.90 
   6  -9   9   11.60   12.70 
  -9  -6   9   27.40   15.00 
   9   6   9   10.90   27.20 
  -9  -6   9   11.30   11.30 
  -6   9   9    8.90   15.50 
  -4   9  -9   18.20   13.10 
   9   4  -9   21.80   21.10 
   4  -9  -9  147.19   52.59 
  -9  -4  -9   54.39   29.80 
   4  -9  -9   28.20   14.10 
   9   4  -9   31.90   26.50 
  -9  -4  -9   67.19   34.60 
  -9  -4  -9   44.00   12.70 
   4  -9  -9   22.60   19.10 
  -4   9  -9  -10.50   35.00 
   9   4  -9    3.20   22.50 
   9   4   9   22.30   14.40 
   4  -9   9   25.50   12.30 
  -9  -4   9   41.50   14.60 
  -4   9   9   34.40   16.60 
  -9  -4   9   46.20   13.60 
   9   4   9   66.49   18.90 
   9   2  -9   95.99   28.10 
  -9  -2  -9  129.49   35.80 
  -9  -2  -9  128.89   30.20 
  -2   9  -9   67.69   21.10 
   9   2  -9   83.09   26.20 
  -9  -2  -9   94.49   14.50 
   2  -9  -9   54.79   22.00 
  -2   9  -9   46.00   30.40 
  -9  -2  -9   33.20   15.40 
   2  -9  -9   97.89   18.70 
   9   2  -9   59.29   19.00 
   2  -9   9   92.69   18.10 
   9   2   9   81.69   15.20 
  -9  -2   9   90.09   17.40 
  -2   9   9  100.49   21.90 
  -9  -2   9   71.59   17.30 
   0   9  -9  -12.50   20.00 
  -9   0  -9    6.30   20.60 
   9   0  -9   39.30   15.50 
   0  -9  -9   -0.70   31.80 
   9   0  -9   13.40   21.30 
  -9   0  -9   -1.70    2.90 
  -9   0  -9    7.20    4.80 
  -9   0  -9   15.50   27.00 
   0  -9  -9   -2.00   25.30 
   0  -9  -9    4.50   15.50 
  -9   0  -9    1.50    3.80 
   9   0  -9  -14.30   26.40 
   0  -9  -9   -5.50    9.30 
  -9   0  -9   -1.90    5.00 
  -9   0   9    4.60   10.10 
   0  -9   9   -4.30    6.90 
  -9   0   9    4.30    8.30 
  -9   2  -9   85.09   33.80 
  -2  -9  -9   98.29   19.20 
  -9   2  -9  144.79   30.90 
  -9   2  -9  125.39   20.80 
  -2  -9  -9   47.50   21.10 
   2   9  -9   85.89   29.90 
   2   9  -9   90.99   31.20 
  -9   2  -9  108.29   17.60 
   9  -2  -9  169.68   43.90 
   9  -2  -9   68.39   20.20 
   2   9   9  105.69   25.40 
  -9   2   9  110.99   20.80 
  -9   2   9  104.19   19.20 
   9  -2   9  102.99   19.30 
  -4  -9  -9   50.59   15.60 
   9  -4  -9   -8.20   15.30 
   9  -4  -9  138.29   46.80 
  -9   4  -9   59.19   32.60 
  -4  -9  -9   58.29   37.40 
  -9   4  -9  108.79   31.40 
  -9   4  -9   36.10   20.80 
   9  -4  -9   73.99   27.80 
   4   9  -9    6.30   22.10 
  -4  -9  -9   66.89   38.10 
  -9   4   9   28.30   16.60 
   4   9   9   55.29   24.60 
  -4  -9   9   42.60   13.90 
  -9   4   9   46.80   14.30 
   9  -4   9   28.60   13.00 
  -6  -9  -9   18.00   35.70 
  -9   6  -9   50.99   36.80 
   6   9  -9  -21.10   29.50 
  -9   6  -9   -9.00   36.70 
   9  -6  -9    2.40   47.40 
  -9   6  -9   19.70   25.40 
  -6  -9  -9   19.20   35.80 
   6   9   9   22.80   16.30 
   6   9   9  -14.40   26.00 
   9  -6   9   22.80   13.60 
   6   9   9   13.20   40.00 
  -6  -9   9   -2.60   12.00 
  -9   6   9   -0.40   12.60 
  -8  -9  -9   83.29   51.79 
  -9   8  -9   12.50   31.30 
   9  -8  -9  186.88   84.39 
  -8  -9  -9   76.19   41.50 
   8   9  -9   48.30   40.70 
   8   9   9   43.60   43.40 
  -9   8   9   66.89   22.70 
  -8  -9   9   24.90   16.80 
  10   7  -9   20.00   46.40 
 -10  -7  -9   19.10   46.40 
  -7  10  -9  -16.50   38.40 
   7 -10  -9   51.09   72.29 
 -10  -7  -9    2.00   39.70 
   7 -10   9   -2.90   16.40 
  -7  10   9   24.30   19.70 
  10   5  -9   74.89   35.30 
  10   5  -9   49.70   30.70 
  10   5  -9   81.29   32.20 
   5 -10  -9  124.89   42.30 
 -10  -5  -9   41.80   37.90 
  -5  10  -9   51.49   40.00 
   5 -10  -9  140.89   64.19 
 -10  -5  -9   27.30   34.50 
  10   5   9   10.10   20.00 
  -5  10   9   59.89   18.90 
   5 -10   9   42.70   15.80 
 -10  -5   9   33.00   15.30 
   5 -10   9   26.90    7.90 
 -10  -3  -9  -26.60   35.40 
  10   3  -9  -20.90   20.70 
 -10  -3  -9    0.20   27.30 
  -3  10  -9    9.60   16.90 
   3 -10  -9   -3.20   13.70 
   3 -10  -9    2.00   21.30 
  -3  10  -9   -2.20   41.50 
 -10  -3  -9   -6.10    9.20 
  10   3  -9   69.49   47.00 
   3 -10  -9  -14.30   31.60 
 -10  -3   9    0.70   10.50 
  10   3   9    8.10   15.70 
  -3  10   9    9.30   15.20 
 -10  -3   9   12.20   13.40 
   1 -10  -9   22.90   13.80 
 -10  -1  -9   26.60   34.60 
 -10  -1  -9   76.79   25.70 
   1 -10  -9  130.29   40.40 
  10   1  -9   43.70   33.80 
 -10  -1  -9   26.00    9.80 
 -10  -1  -9   42.50    9.50 
   1 -10  -9  128.49   47.50 
  10   1  -9   25.60   19.20 
   1 -10  -9   43.60   21.40 
 -10  -1  -9   49.50   10.20 
  -1  10  -9    2.60   23.60 
   1 -10   9   52.79   13.30 
  -1  10   9   43.50   19.90 
 -10  -1   9   63.19   15.90 
 -10  -1   9   53.09   16.20 
 -10   1  -9   65.39   35.70 
   1  10  -9   48.40   30.20 
  10  -1  -9   91.09   33.60 
  -1 -10  -9   60.49   21.20 
  10  -1  -9  106.79   38.10 
  -1 -10  -9  205.68   83.89 
 -10   1  -9   67.19   25.70 
   1  10  -9   69.99   33.60 
  10  -1  -9   23.70   18.00 
  -1 -10  -9  125.09   46.70 
 -10   1   9   24.80   14.70 
 -10   1   9   97.49   19.20 
  -1 -10   9   44.70   13.70 
   1  10   9   46.50   20.80 
  -3 -10  -9   -7.20   31.10 
  10  -3  -9    2.70   13.20 
 -10   3  -9  -10.40   23.40 
  10  -3  -9  -11.90   16.90 
  -3 -10  -9    4.80   13.20 
 -10   3  -9   12.10   35.70 
  10  -3  -9  -12.20   35.30 
  10  -3  -9  -49.90   25.40 
   3  10  -9  -12.10   24.50 
 -10   3   9  -11.00   15.80 
   3  10   9   23.50   21.30 
 -10   3   9  -10.20   11.00 
  10  -3   9    2.90   12.20 
  -5 -10  -9   72.99   45.40 
 -10   5  -9   88.99   43.90 
 -10   5  -9   19.10   27.30 
 -10   5  -9  100.39   37.50 
  -5 -10  -9   33.40   37.80 
  10  -5  -9  118.29   51.19 
   5  10  -9   96.49   39.30 
 -10   5   9   17.70   15.20 
   5  10   9   65.29   29.30 
  10  -5   9   51.59   19.70 
  -5 -10   9   39.50   17.40 
   5  10   9   31.10   25.20 
 -10   7  -9  -38.60   30.20 
  -7 -10  -9   -3.20   46.00 
 -10   7  -9   50.89   57.59 
   7  10  -9    9.80   42.20 
  -7 -10  -9   12.20   43.70 
   7  10   9   48.40   44.20 
 -10   7   9   19.40   18.60 
  -7 -10   9   22.90   18.90 
   4 -11  -9  263.67   74.79 
   4 -11  -9  217.38   47.00 
  11   4  -9   99.19   41.10 
  -4  11  -9   72.29   50.89 
 -11  -4  -9  139.39   47.90 
   4 -11   9   48.60   18.70 
 -11  -4   9   38.90   17.40 
  -4  11   9   31.60   23.90 
   4 -11   9  106.89   22.00 
 -11  -2  -9  120.49   21.30 
  11   2  -9  255.27   46.40 
   2 -11  -9  140.39   34.50 
 -11  -2  -9  210.18   53.09 
 -11  -2  -9  143.89   21.70 
  -2  11  -9  178.78   53.79 
 -11  -2   9  132.99   24.90 
  -2  11   9  161.58   34.20 
  11   2   9  178.28   27.10 
   2 -11   9  180.78   25.20 
   0  11  -9   -0.10   29.70 
   0 -11  -9   -5.50   13.70 
   0 -11  -9  -31.90   34.30 
   0 -11  -9  -41.60   20.20 
   0 -11  -9  -12.10   44.80 
 -11   0  -9    0.00    4.30 
  11   0  -9  -32.40   33.90 
 -11   0  -9   -0.50    5.30 
   0  11  -9   41.20   37.10 
 -11   0   9   -0.60   10.20 
   0  11   9   16.00   20.40 
   0 -11   9   -6.90    9.20 
   2  11  -9  177.48   48.70 
  -2 -11  -9  134.99   32.50 
 -11   2  -9  243.78   60.29 
  -2 -11  -9  167.48   28.70 
   2  11  -9  120.69   46.50 
 -11   2   9  154.78   26.50 
   2  11   9  198.38   39.90 
   4  11  -9   94.69   44.10 
 -11   4  -9   75.39   28.60 
  -4 -11  -9  164.08   54.99 
  -4 -11  -9  207.98   64.59 
 -11   4  -9   78.59   49.90 
  11  -4   9   74.89   24.50 
   4  11   9   55.49   33.30 
 -11   4   9   42.40   20.40 
  -4 -11   9   59.79   20.50 
   1 -12  -9   81.49   45.90 
  -1  12  -9   -8.90   30.00 
 -12  -1  -9   62.69   52.79 
  12   1  -9   15.90   22.20 
  -1  12  -9   83.99   51.59 
 -12  -1  -9   23.00    9.60 
   1 -12  -9   73.59   57.59 
 -12  -1   9   31.20   14.70 
   1 -12   9   11.10   12.30 
  12  -1  -9   51.49   39.00 
  -1 -12  -9   30.00   43.30 
   1  12  -9   22.80   49.40 
  -1 -12  -9   45.00   54.19 
 -12   1   9   24.00   16.00 
  -1 -12   9   32.70   13.50 
   1  12   9   39.90   27.60 
   0   0 -10   86.19   15.50 
   0   0 -10  122.09   15.40 
   0   0 -10  117.19   14.90 
   0   0  10  100.09   22.70 
   0   0  10  118.09   16.30 
   0   0  10   96.09   13.70 
   0   0  10   96.49   13.80 
  -1  -1 -10   -0.30    5.80 
   1   1 -10    3.40    4.50 
  -1   1 -10   33.00    7.00 
   1  -1 -10   -2.00    5.90 
  -1  -1 -10    2.30    4.40 
   1  -1 -10    6.70    5.10 
   1  -1 -10   -6.30    5.60 
  -1   1 -10    7.00    4.60 
  -1  -1 -10   39.70   14.30 
  -1  -1 -10   14.20    5.80 
   1   1 -10    0.40    8.50 
  -1   1 -10    0.10    5.20 
   1  -1 -10   11.20   12.90 
  -1  -1 -10   18.90   13.70 
  -1   1 -10    7.90   11.90 
   1   1 -10   10.90    5.80 
   1   1  10    0.20    4.20 
  -1   1  10   -0.70    3.90 
  -1  -1  10   19.30    5.90 
   1   1  10    5.10   13.90 
  -1  -1  10    3.80    6.00 
   1  -1  10    8.80    6.30 
   1  -1  10    6.40    5.70 
  -1   1  10    2.70    7.10 
   1  -1  10    7.80    3.40 
   1   1  10    1.00    6.80 
  -1   1  10   16.60   13.00 
  -1  -1  10   15.40    5.10 
  -1   1  10    2.90    4.30 
   0   2 -10  514.15   65.89 
   2   0 -10  481.45   74.49 
   0   2 -10  582.94   58.19 
   2   0 -10  461.85   58.79 
   0  -2 -10  517.45   58.89 
   2   0 -10  498.65   58.29 
   2   0 -10  584.34   58.89 
  -2   0 -10  532.95   57.89 
   0   2 -10  483.95   57.39 
  -2   0 -10  485.25   57.09 
  -2   0 -10  543.85   57.39 
   0  -2 -10  565.24   58.99 
   0  -2 -10  589.94   68.29 
   0  -2 -10  529.25   58.79 
  -2   0 -10  482.25   65.39 
   0   2  10  614.24   61.29 
   2   0  10  555.24   64.79 
   0  -2  10  597.44   58.49 
   2   0  10  640.34   58.19 
   0   2  10  522.05   57.79 
   0  -2  10  533.65   57.19 
   0  -2  10  508.15   56.59 
  -2   0  10  576.14   64.89 
   0  -2  10  510.25   56.89 
  -2   0  10  538.15   58.09 
  -2   0  10  524.75   57.89 
   2   0  10  555.54   56.99 
   2  -2 -10   81.99   14.60 
  -2  -2 -10   76.59   14.00 
  -2   2 -10   67.19   10.30 
  -2  -2 -10   57.39   19.00 
   2   2 -10   67.29   14.30 
  -2  -2 -10   69.99   20.00 
  -2   2 -10   68.39   20.90 
   2  -2 -10   76.89   15.50 
  -2   2 -10   61.49   12.40 
  -2  -2 -10   56.19   12.20 
   2  -2 -10  114.09   24.30 
   2  -2 -10   75.09   13.40 
  -2   2 -10   81.59   11.30 
  -2  -2 -10   98.59   14.30 
   2  -2 -10   88.89   20.50 
   2   2 -10   63.59   13.60 
  -2  -2 -10   54.39   12.00 
   2   2 -10   78.49   21.70 
   2   2 -10   62.59   13.70 
   2   2  10   58.69   11.90 
  -2  -2  10   90.99   13.50 
  -2   2  10   89.89   13.70 
   2  -2  10   79.09   13.00 
  -2   2  10   60.29   12.30 
   2  -2  10   81.89   10.10 
   2   2  10   83.19   13.60 
  -3  -1 -10    9.60    6.00 
  -3  -1 -10    4.80    6.90 
  -3  -1 -10    2.40   10.10 
  -1   3 -10    8.40   12.30 
   3   1 -10   12.90    8.20 
  -1   3 -10    8.40    8.00 
  -3  -1 -10   20.10    6.80 
   1  -3 -10   18.10    9.00 
  -3  -1 -10    8.10    5.00 
   3   1 -10   19.40    8.30 
  -3  -1 -10    2.10   12.20 
   1  -3 -10   19.00    7.80 
   1  -3 -10   23.60    9.30 
  -1   3 -10   11.90    4.90 
   3   1 -10   26.80   13.10 
   1  -3 -10    9.40   14.50 
   1  -3  10   16.70    5.00 
  -3  -1  10   37.60    8.30 
   3   1  10   26.40    7.00 
   3   1  10   16.80    6.60 
  -3  -1  10   22.00    7.00 
   1  -3  10   24.00    5.60 
   1  -3  10   18.20    4.80 
  -3   1 -10    8.30    4.00 
   3  -1 -10   18.30   12.90 
  -1  -3 -10   12.40    6.10 
  -1  -3 -10    5.70   10.00 
   1   3 -10   25.60    8.60 
   1   3 -10    6.80    5.80 
   3  -1 -10   20.40    9.60 
  -1  -3 -10   18.90   16.10 
  -3   1 -10    8.50    5.30 
   3  -1 -10    1.40    5.50 
  -1  -3 -10   19.20    8.00 
   3  -1 -10   15.10    8.00 
  -3   1 -10   24.00   13.90 
  -3   1 -10    8.90   12.50 
   1   3 -10   17.60   12.40 
  -3   1 -10   10.30    5.90 
  -1  -3 -10   13.10    7.20 
  -1  -3 -10    3.30    8.50 
  -3   1 -10   16.20    5.10 
   3  -1  10   25.90    7.40 
   1   3  10   32.80    8.20 
   3  -1  10   10.30    4.30 
  -1  -3  10   18.00    5.60 
  -3   1  10   11.40    6.40 
  -3   1  10   12.20    5.80 
  -1  -3  10   20.20    6.10 
  -3   3 -10   74.19    9.60 
   3  -3 -10   63.79   14.00 
  -3  -3 -10   78.39   13.10 
  -3  -3 -10   58.39   20.80 
  -3   3 -10   66.29   22.20 
   3   3 -10   73.09   16.60 
  -3   3 -10   73.29   15.50 
  -3  -3 -10   78.99   13.90 
  -3  -3 -10   78.39   24.50 
   3  -3 -10   81.39   25.40 
  -3  -3 -10   83.19   15.70 
   3  -3 -10  102.99   21.40 
   3   3 -10   65.79   21.50 
   3  -3 -10   91.99   17.30 
  -3  -3 -10   88.79   17.10 
   3   3 -10   57.79   13.50 
   3  -3  10   74.59    9.60 
  -3   3  10   84.79   14.80 
   3  -3  10   76.99    9.70 
   3   3  10   98.39   14.80 
   3   3  10   79.19   15.50 
  -3   3  10   79.39   14.50 
   3  -3  10   89.69    9.40 
  -3  -3  10   81.19   13.90 
  -3  -3  10  104.19   13.90 
  -4  -2 -10   51.09   12.30 
   2  -4 -10  105.19   17.50 
  -4  -2 -10   57.79   20.60 
  -2   4 -10   75.69   15.80 
  -4  -2 -10   73.69   11.70 
   4   2 -10   94.79   22.90 
  -2   4 -10   49.99   22.90 
   4   2 -10   70.79   15.90 
  -4  -2 -10   57.89   21.10 
   2  -4 -10   65.59   13.90 
   4   2 -10   51.09   12.90 
   2  -4 -10  105.79   29.70 
  -2   4 -10   89.29   10.70 
  -4  -2 -10   61.49   12.20 
   4   2  10   77.19   11.70 
  -4  -2  10   87.49   14.30 
   2  -4  10   81.69    9.90 
   4   2  10   42.90   12.50 
  -2   4  10   51.69   12.40 
   2  -4  10   74.29   10.10 
   0  -4 -10   85.89   25.70 
  -4   0 -10   82.89   13.10 
   0  -4 -10  104.49   24.30 
  -4   0 -10  111.69   14.10 
   0   4 -10   97.09   14.20 
   4   0 -10  120.59   19.30 
  -4   0 -10  107.29   14.20 
   4   0 -10  100.89   23.10 
   0  -4 -10   81.69   16.80 
  -4   0 -10  115.39   26.40 
  -4   0 -10   90.69   24.30 
   0  -4 -10  101.29   17.40 
  -4   0 -10   81.69   12.80 
   4   0 -10   88.69   15.70 
   0  -4 -10   96.19   17.30 
   0   4 -10   90.89   25.10 
   0   4 -10   85.39   17.40 
   0  -4  10   92.39   13.60 
   0  -4  10   87.69   13.50 
  -4   0  10  103.89   14.90 
   4   0  10  130.39   34.50 
   4   0  10  125.19   14.30 
   0   4  10   81.09   15.40 
  -4   0  10   68.49   14.30 
   4   0  10   86.59   13.30 
   0   4  10   81.79   20.10 
  -2  -4 -10   62.79   13.00 
  -4   2 -10   53.09   21.30 
   2   4 -10   63.49   23.00 
   4  -2 -10   99.59   18.40 
   4  -2 -10   63.99   14.10 
  -2  -4 -10  110.19   19.20 
  -2  -4 -10   87.09   24.90 
  -2  -4 -10   63.69   13.40 
  -4   2 -10   89.69   25.30 
  -4   2 -10   78.29   13.60 
  -2  -4 -10   87.19   17.30 
  -2  -4 -10   69.29   25.80 
   2   4 -10   78.19   14.50 
   2   4 -10   99.69   18.10 
   4  -2 -10   77.59   22.00 
  -4   2  10   74.89   13.80 
   2   4  10   86.49   17.50 
  -2  -4  10   87.19   14.30 
   2   4  10   71.79   14.80 
  -4   2  10   62.39   13.60 
  -2  -4  10   96.19   13.50 
   4  -4 -10  179.28   26.50 
  -4  -4 -10  211.08   26.40 
  -4  -4 -10  234.08   31.40 
   4  -4 -10  220.68   31.00 
   4   4 -10  196.48   30.90 
  -4   4 -10  196.48   28.10 
   4  -4 -10  240.08   44.00 
   4   4 -10  144.89   26.70 
   4   4 -10  181.48   38.70 
  -4  -4 -10  216.18   41.50 
  -4  -4 -10  196.78   35.50 
  -4  -4 -10  173.98   29.00 
  -4   4 -10  172.78   42.60 
  -4   4  10  180.98   25.90 
   4  -4  10  188.38   24.50 
  -4  -4  10  238.98   25.90 
  -4   4  10  176.38   25.40 
   4   4  10  194.38   27.50 
  -4  -4  10  145.69   24.00 
   4   4  10  202.28   24.80 
   3  -5 -10  212.48   24.90 
  -5  -3 -10  180.18   27.60 
   5   3 -10  160.48   28.50 
   3  -5 -10  186.08   26.70 
   5   3 -10  151.18   26.00 
  -3   5 -10  159.78   42.30 
  -5  -3 -10  128.49   35.30 
  -3   5 -10  197.18   28.80 
   5   3 -10  145.89   30.60 
  -5  -3 -10  179.18   24.60 
   3  -5 -10  213.98   33.30 
  -5  -3 -10  202.78   39.10 
  -3   5 -10  146.99   20.70 
   3  -5 -10  265.97   43.80 
   3  -5  10  181.98   20.30 
   3  -5  10  229.48   21.90 
   5   3  10  177.48   25.70 
   3  -5  10  169.38   19.90 
   3  -5  10  189.68   23.90 
  -3   5  10  182.18   24.60 
  -5  -3  10  225.98   25.00 
  -5  -3  10  169.58   23.70 
   5   1 -10   25.30    9.80 
   1  -5 -10   11.90   19.10 
   5   1 -10   22.60   11.40 
   1  -5 -10   37.00   15.90 
  -5  -1 -10   25.30    8.80 
  -5  -1 -10   24.60    6.90 
   5   1 -10   30.10   15.70 
   1  -5 -10   15.00   10.30 
   1  -5 -10   30.40    9.30 
  -5  -1 -10   11.70    6.60 
  -5  -1 -10   25.50    6.70 
  -5  -1 -10   24.40   17.20 
   1  -5 -10   44.10   14.00 
  -1   5 -10   29.80   12.90 
  -5  -1 -10   25.30   16.30 
  -1   5 -10   23.30    6.70 
   1  -5  10   39.80    9.20 
   1  -5  10   25.30    7.10 
  -5  -1  10    7.80    6.70 
  -5  -1  10   23.20    8.00 
  -1   5  10   26.10    8.90 
   1  -5  10   33.80    6.90 
   5  -1 -10   16.20   15.50 
  -5   1 -10   22.40    5.10 
  -5   1 -10   27.40    3.90 
  -1  -5 -10   26.80   16.10 
   1   5 -10   22.30    8.70 
   1   5 -10   18.70   10.90 
   5  -1 -10   53.49   27.90 
   5  -1 -10   14.60    8.50 
   5  -1 -10   40.80   14.00 
  -5   1 -10   19.50   16.00 
  -1  -5 -10   22.80   11.70 
  -1  -5 -10   25.20   14.80 
  -5   1 -10   22.20   16.10 
  -1  -5 -10   15.80    8.50 
  -1  -5 -10   36.00   22.90 
  -5   1 -10   36.20    8.10 
  -5   1  10   25.30    8.40 
   1   5  10   52.79   16.30 
  -1  -5  10   22.50    7.90 
  -5   1  10   26.00    8.90 
  -3  -5 -10  172.78   30.10 
   3   5 -10  158.18   26.30 
  -5   3 -10  152.78   36.40 
  -3  -5 -10  199.48   37.90 
   5  -3 -10  222.58   31.00 
  -3  -5 -10  245.18   33.40 
   3   5 -10  177.18   40.20 
   5  -3 -10  233.98   42.10 
  -5   3 -10  180.38   27.40 
  -5   3 -10  206.38   37.60 
  -3  -5 -10  197.38   39.20 
   3   5 -10  191.68   28.70 
   5  -3 -10  161.38   26.10 
  -3  -5 -10  179.88   25.30 
  -3  -5  10  160.88   24.00 
  -5   3  10  213.38   26.40 
   3   5  10  184.08   27.50 
  -5   3  10  194.98   25.50 
   5  -3  10  210.58   24.90 
   3   5  10  201.28   28.90 
   5  -5 -10   17.70   16.40 
   5   5 -10   11.90   13.00 
  -5  -5 -10   -9.50   19.40 
   5  -5 -10   32.30   26.90 
  -5   5 -10   -2.40   19.50 
   5   5 -10   10.00   11.80 
   5  -5 -10   -0.10    9.30 
  -5  -5 -10   20.70   18.50 
  -5   5 -10    5.50   24.30 
   5   5 -10    7.30   19.00 
  -5  -5 -10    5.00   21.00 
  -5  -5 -10    0.20    8.10 
  -5   5 -10   -8.70   13.50 
   5  -5 -10   11.50   12.70 
   5  -5  10   13.60    8.20 
  -5  -5  10    1.50   12.40 
   5   5  10    2.30    9.20 
   5   5  10   -3.50   13.30 
  -5   5  10   -5.20    9.70 
  -5  -5  10    4.60    7.40 
  -5   5  10    8.90    8.50 
   6   4 -10   44.60   18.50 
  -6  -4 -10   96.89   23.20 
   4  -6 -10  107.09   25.30 
   6   4 -10   68.19   26.10 
   4  -6 -10   69.39   18.00 
  -4   6 -10  101.59   45.30 
  -4   6 -10  110.59   26.80 
  -6  -4 -10  139.29   35.40 
   4  -6 -10  164.68   26.00 
  -6  -4 -10   82.59   31.90 
   4  -6 -10  104.59   17.70 
   6   4 -10   53.59   17.10 
   4  -6  10  101.19   17.30 
  -4   6  10   89.89   18.10 
  -6  -4  10  117.29   17.60 
  -6  -4  10   83.79   16.10 
   6   4  10   75.99   18.70 
  -6  -2 -10  239.48   43.90 
   2  -6 -10  257.67   33.90 
  -2   6 -10  225.58   38.20 
  -6  -2 -10  217.68   31.10 
   2  -6 -10  260.47   31.50 
  -6  -2 -10  289.07   30.10 
   6   2 -10  238.28   34.80 
  -2   6 -10  203.78   28.60 
   6   2 -10  213.18   32.60 
   6   2 -10  233.38   38.60 
  -6  -2 -10  239.38   42.80 
   2  -6 -10  293.37   43.10 
   2  -6  10  289.27   28.60 
  -2   6  10  196.28   30.50 
  -6  -2  10  266.57   30.80 
  -6  -2  10  271.07   31.20 
   2  -6  10  244.48   30.50 
   6   2  10  241.58   29.30 
   0  -6 -10   10.60   18.30 
  -6   0 -10   10.70    4.30 
  -6   0 -10   11.50    6.50 
   0  -6 -10   15.70   23.60 
  -6   0 -10    4.20   14.80 
  -6   0 -10    9.70    5.70 
   6   0 -10   19.00   10.00 
   6   0 -10   13.10   16.00 
   0   6 -10    1.50    7.00 
  -6   0 -10   14.50   15.10 
   0  -6 -10   10.30   12.00 
   0  -6 -10   28.10    9.00 
   0   6 -10   24.50   13.10 
   6   0 -10   23.90   13.30 
  -6   0  10   15.90    7.10 
   0  -6  10   12.20    5.70 
   0  -6  10   11.90    7.30 
   0   6  10   16.70    9.40 
  -6   0  10   22.30    8.20 
   6  -2 -10  269.47   46.90 
  -2  -6 -10  266.17   33.80 
   6  -2 -10  369.86   41.50 
  -6   2 -10  285.07   43.90 
   6  -2 -10  262.57   34.70 
  -2  -6 -10  229.38   37.50 
  -6   2 -10  293.87   45.80 
   2   6 -10  236.58   34.00 
  -6   2 -10  238.68   31.90 
  -2  -6 -10  265.47   46.00 
   6  -2 -10  217.48   47.90 
   2   6 -10  241.98   37.30 
  -6   2  10  274.67   33.20 
   2   6  10  260.47   36.70 
   2   6  10  297.47   43.80 
  -6   2  10  332.47   34.90 
  -2  -6  10  252.17   32.00 
  -2  -6  10  300.97   32.60 
   4   6 -10   92.99   20.20 
  -4  -6 -10  155.08   41.00 
   6  -4 -10  109.99   32.30 
  -4  -6 -10  111.59   19.50 
  -6   4 -10  141.39   36.70 
  -6   4 -10  106.99   22.40 
  -4  -6 -10  121.49   34.40 
   6  -4 -10   86.09   19.00 
  -6   4 -10  133.09   35.70 
   6  -4 -10  111.49   22.60 
   6  -4 -10  144.59   25.90 
   4   6 -10  111.09   24.10 
  -6   4  10   97.29   19.20 
   4   6  10  146.49   26.30 
  -4  -6  10   82.59   17.20 
   6  -4  10  101.39   18.70 
   4   6  10   92.19   20.80 
  -4  -6  10   82.79   16.90 
  -6   4  10  103.69   19.00 
  -6  -6 -10   79.29   32.20 
   6   6 -10   65.49   33.30 
  -6   6 -10   51.09   26.40 
  -6   6 -10  111.19   41.30 
   6  -6 -10   46.70   17.50 
  -6  -6 -10   54.19   15.30 
   6   6 -10   46.10   23.10 
   6  -6 -10  186.38   49.99 
  -6  -6 -10   58.49   32.80 
   6  -6 -10   68.49   22.40 
  -6   6 -10  122.69   37.30 
   6   6 -10   57.29   19.10 
  -6   6  10   64.29   15.90 
  -6  -6  10   65.29   15.60 
   6  -6  10   64.59   16.30 
  -6  -6  10   82.59   16.10 
   5  -7 -10   25.80   11.70 
  -7  -5 -10   17.60   23.70 
   5  -7 -10   39.00   23.10 
   7   5 -10    6.70   13.50 
   7   5 -10   17.80   20.20 
   7   5 -10   -7.50   15.50 
  -7  -5 -10    2.00   12.30 
   5  -7 -10   22.70   38.30 
   5  -7 -10   18.00   15.30 
  -7  -5 -10   33.20   29.60 
  -7  -5 -10   16.70   13.60 
  -7  -5 -10   36.80   26.80 
   7   5 -10   30.00   24.40 
  -5   7 -10   28.40   24.90 
  -7  -5  10   14.80    9.50 
   5  -7  10   13.10   10.50 
  -5   7  10   20.30   11.40 
  -7  -5  10   30.60   11.20 
   7   5  10   32.40   16.70 
   3  -7 -10   43.70   34.30 
   3  -7 -10   36.80   10.40 
   3  -7 -10   34.60   21.30 
  -7  -3 -10   24.00   14.60 
   7   3 -10   20.70   18.50 
   3  -7 -10    6.00   12.80 
  -7  -3 -10   -1.90    7.10 
  -3   7 -10   10.60    7.90 
   7   3 -10   10.20   16.50 
  -3   7 -10   12.10   18.30 
   7   3 -10    4.00   12.70 
  -7  -3 -10   27.20   23.10 
  -7  -3 -10   28.50   23.00 
   3  -7  10   12.00    8.20 
   3  -7  10   -1.60    6.40 
   3  -7  10   21.30    6.20 
  -7  -3  10   15.00    8.40 
  -3   7  10   18.40    9.80 
  -7  -3  10   12.30    9.70 
   7   3  10   14.60    9.30 
  -7  -1 -10    4.40   18.10 
  -7  -1 -10    5.20    7.20 
   1  -7 -10    6.60   23.10 
  -7  -1 -10   13.50    5.30 
  -7  -1 -10    9.40    6.10 
  -7  -1 -10    0.10   18.60 
  -1   7 -10   13.50   16.10 
   7   1 -10   -2.80   16.00 
   7   1 -10   17.60   13.30 
   1  -7 -10   10.70    8.60 
   1  -7 -10    4.70   13.50 
   7   1 -10   21.50   11.00 
   1  -7 -10   27.80   22.50 
  -7  -1  10   11.30    8.50 
  -1   7  10    9.10    9.60 
   1  -7  10   16.30    6.50 
   1  -7  10    9.60    7.90 
   1  -7  10   11.90    7.90 
   7   1  10    3.40    5.30 
  -7  -1  10    9.70    8.00 
  -1  -7 -10   23.50    9.70 
  -7   1 -10   11.90   18.90 
  -7   1 -10   16.70   17.50 
   1   7 -10    0.10   13.10 
   7  -1 -10   -3.90   20.50 
   7  -1 -10   15.70   15.20 
   7  -1 -10   12.70   10.40 
  -7   1 -10   10.50    6.90 
  -1  -7 -10   22.80   24.50 
  -1  -7 -10   -1.40   12.80 
  -7   1  10    3.90    8.30 
  -1  -7  10   27.60    8.90 
   1   7  10   27.40   13.60 
  -7   1  10   15.00    9.20 
  -7   3 -10    5.20   10.70 
  -3  -7 -10    3.30   25.10 
   7  -3 -10  -21.90   27.00 
  -3  -7 -10   20.30   14.70 
  -3  -7 -10   23.10    9.80 
   7  -3 -10   21.20   17.50 
  -7   3 -10    8.50   20.70 
   3   7 -10    7.10   16.90 
  -7   3 -10   22.80   20.50 
  -3  -7 -10   24.80   26.50 
   7  -3 -10   -1.00   10.40 
   3   7  10   34.30   26.60 
  -7   3  10    5.40   10.80 
  -7   3  10   -2.10    7.30 
  -3  -7  10    9.50    8.10 
   3   7  10   25.00   15.70 
  -3  -7  10   -8.50    7.50 
   7  -5 -10   60.79   39.90 
   7  -5 -10   -0.70   19.80 
   7  -5 -10    7.30   15.40 
  -7   5 -10   22.70   27.80 
  -5  -7 -10   27.80   28.00 
  -7   5 -10   14.40   19.40 
   7  -5 -10   10.30   13.70 
  -5  -7 -10    3.40   10.30 
   7  -5 -10   37.10   22.50 
  -5  -7 -10   31.30   28.80 
  -7   5 -10   24.70   27.80 
  -7   5  10   11.60   12.90 
   5   7  10   12.60   15.30 
  -5  -7  10   13.10   10.20 
   5   7  10   17.10   21.80 
  -7   5  10    6.20   10.20 
   7  -5  10    9.70   10.10 
  -7  -7 -10   52.09   41.60 
   7   7 -10   15.10   21.90 
   7   7 -10   13.70   22.50 
  -7   7 -10   20.40   39.00 
  -7   7 -10   29.90   33.70 
  -7  -7 -10   33.00   16.00 
  -7   7 -10   12.20   29.10 
   7  -7 -10   15.10   18.10 
   7  -7 -10   44.30   47.80 
  -7   7  10   -3.10   14.40 
  -7  -7  10   13.60   11.80 
   7   7  10   29.30   26.00 
  -7  -7  10   18.20   13.70 
   6  -8 -10   82.99   27.10 
  -6   8 -10  157.98   47.90 
  -6   8 -10  121.49   58.19 
   8   6 -10  114.99   40.10 
  -6   8 -10   90.49   41.60 
  -8  -6 -10  179.28   53.99 
  -8  -6 -10  110.59   23.80 
   8   6 -10  153.78   34.70 
  -8  -6 -10  169.08   43.70 
   8   6 -10   60.79   34.50 
   6  -8  10  139.79   26.10 
  -6   8  10   79.89   23.10 
  -8  -6  10  115.69   22.00 
  -8  -6  10  115.39   21.50 
   4  -8 -10    3.10   14.80 
  -4   8 -10   11.20   27.40 
   8   4 -10   -4.70   19.50 
   4  -8 -10   24.70   27.50 
   8   4 -10   -8.30   13.90 
  -8  -4 -10   20.80   19.60 
  -8  -4 -10   13.30   27.20 
   4  -8 -10   14.40   40.80 
   8   4 -10    5.10   21.60 
  -8  -4 -10   -4.20   23.80 
   8   4 -10   -2.40   16.10 
  -8  -4 -10   14.10   10.20 
  -8  -4 -10   11.20   13.70 
   4  -8 -10   -0.80   10.30 
   4  -8  10   12.90    6.30 
  -4   8  10   13.80   11.10 
   4  -8  10    8.10    9.40 
   8   4  10   -3.40   12.50 
  -8  -4  10   10.50   10.60 
   8   4  10  -12.10   11.60 
   2  -8 -10   -8.30    9.20 
  -8  -2 -10  -29.50   21.30 
  -8  -2 -10   -8.40   21.80 
   8   2 -10   13.20   18.50 
  -8  -2 -10    1.40   10.00 
   8   2 -10  -16.50   16.80 
   8   2 -10   34.40   14.70 
   2  -8 -10   13.30   24.20 
  -8  -2 -10    5.80    6.30 
   2  -8  10   -1.60    8.00 
  -8  -2  10    2.20    9.60 
  -8  -2  10    7.40    8.30 
  -2   8  10   19.40   11.50 
   2  -8  10   -3.20    7.50 
   0  -8 -10  223.98   38.10 
   0  -8 -10  292.77   35.00 
   0   8 -10  233.78   34.80 
  -8   0 -10  241.98   26.70 
   8   0 -10  184.98   34.20 
   8   0 -10  410.86   44.30 
  -8   0 -10  289.77   49.70 
   8   0 -10  234.48   46.80 
   0  -8  10  256.17   32.10 
   0  -8  10  283.97   33.10 
   0   8  10  217.88   37.00 
  -8   0  10  309.87   35.30 
  -8   0  10  259.77   33.00 
   0  -8  10  285.77   32.30 
  -2  -8 -10    7.30    9.50 
   2   8 -10  -10.50   32.50 
  -8   2 -10   -4.30   23.40 
  -2  -8 -10    8.70   15.20 
   8  -2 -10   16.60   29.40 
   8  -2 -10   10.10   20.80 
   8  -2 -10   18.00   12.80 
  -2  -8 -10  -10.60   46.20 
   2   8 -10   13.20   19.40 
  -8   2 -10   10.70    9.20 
   8  -2 -10   21.30   34.80 
  -2  -8 -10    0.60   38.70 
  -8   2 -10    6.10   19.60 
  -8   2  10   -9.30    9.70 
   2   8  10  -11.30   13.70 
  -2  -8  10   -8.30    7.70 
   8  -4 -10   11.30   13.20 
   8  -4 -10    1.60   20.30 
   8  -4 -10   23.00   38.70 
  -8   4 -10   11.90   16.30 
   4   8 -10  -14.20   17.60 
  -4  -8 -10   19.50   33.80 
   8  -4 -10   18.70   25.90 
   8  -4 -10    4.60   14.20 
  -8   4 -10   -3.60   25.20 
  -4  -8 -10   10.10   11.30 
   4   8 -10  -14.70   16.60 
  -8   4 -10    7.80   27.80 
  -4  -8 -10   14.70   30.60 
  -4  -8  10    6.60   10.00 
   4   8  10    2.30   19.60 
  -8   4  10   13.60   10.30 
  -4  -8  10    7.70    9.50 
  -8   4  10   22.60   13.50 
  -8   6 -10  207.28   52.79 
  -6  -8 -10  175.78   49.20 
   6   8 -10  122.89   34.60 
   6   8 -10  141.09   30.90 
  -6  -8 -10   87.49   23.40 
  -6  -8 -10  206.38   50.09 
  -8   6 -10   93.09   32.70 
  -8   6 -10  147.99   46.10 
   8  -6 -10   62.09   24.50 
   6   8  10   75.49   27.10 
  -8   6  10  101.89   22.10 
   8  -6  10  105.99   21.80 
   6   8  10   95.09   16.70 
   6   8  10  108.59   32.00 
  -6  -8  10   96.19   20.60 
  -8  -8 -10   18.30   40.50 
  -8   8 -10   -3.70   46.60 
  -8   8 -10    7.20   49.80 
   8   8 -10  -26.80   28.90 
  -8  -8 -10   13.20   40.60 
   8  -8 -10  -46.10   57.29 
   8   8 -10   33.40   47.30 
  -8   8 -10   39.90   34.70 
  -8   8  10  -16.90   13.90 
  -8  -8  10   18.60   14.30 
   8   8  10  -10.50   35.60 
   8  -8  10   -7.70   15.20 
  -9  -7 -10   70.89   43.50 
   7  -9 -10  155.88  103.99 
  -7   9 -10    8.90   58.79 
  -9  -7 -10   45.40   43.80 
   9   7 -10   25.20   35.50 
  -7   9 -10   78.59   36.90 
   9   7 -10   12.50   43.10 
  -7   9 -10   79.59   49.80 
  -9  -7  10   30.00   15.40 
   7  -9  10   66.69   32.30 
  -9  -7  10   -0.10   19.40 
   9   7  10   17.90   30.90 
  -9  -5 -10  107.59   39.00 
   9   5 -10   52.89   27.20 
   5  -9 -10   26.90   24.20 
  -9  -5 -10   40.90   38.00 
   9   5 -10   65.99   34.80 
   9   5 -10   82.19   32.30 
  -9  -5 -10   97.49   20.10 
   9   5  10   58.49   21.30 
   9   5  10   55.99   22.20 
  -5   9  10   55.79   20.80 
  -9  -5  10   63.79   18.10 
   5  -9  10   78.09   18.70 
  -3   9 -10   51.69   37.20 
  -9  -3 -10  106.99   40.50 
   9   3 -10   50.89   22.20 
   3  -9 -10   74.19   25.70 
   3  -9 -10   71.49   17.80 
  -9  -3 -10  101.99   31.30 
   9   3 -10   79.99   29.90 
   9   3  10   47.10   15.40 
  -9  -3  10   86.69   17.10 
   3  -9  10   70.59   14.80 
   3  -9  10   85.79   18.50 
  -9  -3  10   88.79   18.60 
  -3   9  10   39.40   18.00 
  -1   9 -10   25.90   21.90 
   1  -9 -10   46.80   17.00 
   9   1 -10   27.20   43.50 
  -9  -1 -10   25.40   28.90 
   1  -9 -10   42.50   20.90 
  -9  -1 -10   20.30    8.90 
   1  -9 -10  107.39   46.40 
  -1   9 -10   81.29   31.00 
  -9  -1 -10   49.60    8.80 
   9   1 -10   27.90   17.50 
   1  -9 -10  135.09   38.60 
   1  -9  10   55.79   13.80 
  -9  -1  10   80.89   17.90 
  -1   9  10   48.60   17.40 
   1  -9  10   68.89   15.00 
  -9  -1  10   66.49   14.90 
  -9   1 -10   20.10   31.40 
   9  -1 -10   52.29   26.20 
  -1  -9 -10   66.39   16.10 
   1   9 -10   63.09   27.10 
  -9   1 -10   56.49   10.30 
   9  -1 -10   29.70   17.20 
  -9   1 -10   71.89   29.20 
   1   9 -10   34.90   21.80 
  -1  -9 -10  148.39   47.50 
  -1  -9 -10  122.09   40.90 
  -1  -9 -10   56.09   21.10 
  -1  -9  10   22.30   12.80 
   1   9  10   45.90   20.40 
  -9   1  10   55.09   16.20 
  -9   1  10   45.40   13.30 
  -9   3 -10  155.58   37.50 
  -9   3 -10  123.89   25.00 
  -3  -9 -10  255.37   59.29 
  -3  -9 -10   85.59   25.60 
  -3  -9 -10  124.89   22.10 
  -9   3 -10   79.49   38.30 
  -3  -9 -10  156.48   50.79 
   3   9 -10   70.79   30.70 
   9  -3 -10  176.78   37.30 
   9  -3 -10   80.29   22.00 
   9  -3 -10   93.89   24.20 
  -9   3  10  100.69   19.60 
  -3  -9  10   83.19   19.90 
   3   9  10   93.29   27.30 
  -9   3  10   88.29   21.50 
  -9   5 -10  107.59   44.60 
   9  -5 -10   41.30   21.70 
  -5  -9 -10   92.09   42.80 
  -5  -9 -10   68.29   40.00 
  -9   5 -10  161.88   45.70 
  -9   5 -10   82.89   29.00 
  -5  -9 -10   55.49   19.50 
  -9   5  10   51.89   31.90 
   9  -5  10   56.39   17.90 
  -9   5  10   80.19   21.00 
   5   9  10   71.79   29.60 
  -5  -9  10   77.49   18.70 
  -9   7 -10   38.30   49.00 
  -7  -9 -10  103.29   49.99 
   9  -7 -10   86.49   63.49 
   7   9 -10   89.59   41.30 
  -9   7 -10    0.60   32.00 
  -7  -9  10   51.09   19.40 
 -10  -6 -10   11.50   41.10 
  10   6 -10    1.70   60.69 
  10   6 -10    9.10   43.50 
  -6  10 -10   50.99   47.80 
   6 -10 -10  122.99   68.09 
 -10  -6  10   23.30   16.30 
   6 -10  10   22.10   15.50 
  -6  10  10   66.79   23.30 
  10   4 -10   24.10   33.00 
   4 -10 -10    2.10   37.50 
   4 -10 -10    5.00   48.40 
  10   4 -10   45.60   27.80 
  10   4 -10  -38.90   29.90 
   4 -10 -10   -3.00   36.90 
  -4  10 -10  -44.90   40.30 
 -10  -4 -10   10.00   34.70 
 -10  -4 -10  -13.20   30.10 
  -4  10  10  -29.50   16.90 
 -10  -4  10    4.00   19.40 
  10   4  10   31.10   20.40 
 -10  -4  10    0.50   11.80 
   4 -10  10  -10.40   10.80 
   2 -10 -10    7.40   14.30 
 -10  -2 -10  -14.60   31.20 
 -10  -2 -10    4.10    8.10 
  -2  10 -10    9.50   18.20 
   2 -10 -10   18.50   39.20 
   2 -10 -10    8.20   21.60 
   2 -10 -10   -6.50   34.40 
  10   2 -10   -2.00   30.30 
  10   2 -10   -5.90   21.50 
  -2  10 -10  -11.80   38.50 
 -10  -2  10   -5.60   10.80 
   2 -10  10    4.00   21.10 
  -2  10  10    7.40   18.10 
 -10  -2  10    3.10   19.80 
  10   0 -10   55.39   29.70 
   0 -10 -10   50.79   15.80 
 -10   0 -10   48.80   27.90 
   0 -10 -10   84.39   42.30 
  10   0 -10   69.19   40.00 
  10   0 -10    5.60   19.20 
   0  10 -10  -34.00   32.30 
   0  10 -10   46.40   25.70 
   0 -10 -10   -4.50   20.10 
 -10   0 -10   18.50   36.10 
   0 -10  10   28.90   11.50 
   0  10  10   13.70   19.90 
 -10   0  10   48.60   16.80 
   0 -10  10   28.00   14.50 
 -10   0  10   24.20   12.90 
  -2 -10 -10   11.90   21.60 
   2  10 -10   13.20   28.10 
   2  10 -10  -19.10   26.90 
  -2 -10 -10   -0.50   12.90 
  -2 -10 -10  -10.80   35.30 
  10  -2 -10   -9.50   18.30 
 -10   2 -10   24.20   29.60 
 -10   2 -10  -22.80   34.90 
  -2 -10 -10    7.80   36.10 
  10  -2 -10  -20.30   39.50 
 -10   2 -10   11.50   11.30 
  10  -2 -10  -15.20   26.80 
 -10   2  10  -18.70    9.80 
  -2 -10  10   12.70   12.40 
   2  10  10    5.10   19.10 
 -10   2  10   -0.10   15.90 
 -10   4 -10    1.80   41.50 
   4  10 -10   -6.70   33.40 
 -10   4 -10  -31.80   21.20 
 -10   4 -10    2.70   31.70 
  10  -4 -10   69.19   46.90 
  10  -4 -10   31.20   31.90 
  -4 -10 -10   17.60   42.40 
   4  10  10  -31.30   23.70 
  10  -4  10   -5.40   13.90 
  -4 -10  10   33.70   15.90 
 -10   4  10   -4.50   11.80 
  -6 -10 -10   53.09   48.50 
   6  10 -10   60.09   43.10 
 -10   6 -10  131.49   50.79 
  -6 -10 -10   72.09   49.60 
  10  -6 -10  121.29   61.89 
 -10   6 -10  -14.70   32.70 
  -6 -10  10   45.30   30.10 
   6  10  10    1.90   38.00 
 -10   6  10   23.00   16.90 
  10  -6  10    5.20   19.00 
   3 -11 -10  230.18   78.49 
   3 -11 -10  166.48   49.99 
  -3  11 -10   34.40   53.99 
 -11  -3 -10   70.59   45.60 
   3 -11  10   57.09   18.00 
  -3  11  10   28.50   24.60 
 -11  -3  10   38.80   16.10 
  11   1 -10  -14.80   38.10 
   1 -11 -10   21.70   43.50 
   1 -11 -10   28.00   39.10 
   1 -11 -10    1.60   15.60 
  -1  11 -10   -8.30   23.60 
   1 -11 -10   13.60   26.20 
 -11  -1 -10   54.29   41.90 
 -11  -1 -10    8.50    7.70 
  -1  11 -10    3.80   40.50 
 -11  -1  10   -0.90   11.60 
   1 -11  10    2.60   11.10 
  -1 -11 -10    7.50   41.40 
  -1 -11 -10    7.40   42.60 
  -1 -11 -10    4.30   15.90 
   1  11 -10   -6.40   33.30 
  -1 -11 -10   -1.70   24.40 
  11  -1 -10   44.00   42.90 
   1  11 -10   -6.90   36.20 
   1  11  10    2.10   20.40 
  -1 -11  10   -5.20   15.80 
  -1 -11  10    8.10   11.10 
 -11   1  10    5.20   12.20 
   3  11 -10   26.50   42.60 
 -11   3 -10   81.29   54.99 
  -3 -11 -10  127.89   49.50 
  11  -3 -10   73.99   38.70 
  -3 -11 -10  109.99   55.59 
  -3 -11  10   14.90   18.40 
   3  11  10   39.30   28.70 
  12   0 -10  114.99   47.50 
 -12   0 -10   90.89   60.09 
   0  12 -10   47.20   37.80 
   0  12 -10  -36.80   50.09 
   0 -12 -10   69.79   46.20 
   0 -12 -10   79.19   57.69 
 -12   0  10   26.80   16.20 
   0 -12  10   50.39   14.80 
   0  12  10   49.80   28.00 
   0  -1 -11   -0.70    7.20 
   1   0 -11    7.70    6.60 
   0  -1 -11    3.00   10.10 
   0   1 -11    4.30   10.50 
  -1   0 -11   -5.20   10.10 
   0  -1 -11   -2.20    6.40 
   0   1 -11   -0.90    4.50 
   1   0 -11   13.50   11.70 
   1   0 -11   -2.10    6.40 
  -1   0 -11    5.40    5.20 
   0   1 -11    2.80    6.30 
   0  -1 -11   12.30   13.40 
   1   0 -11   16.40    7.10 
  -1   0 -11    3.80   11.30 
  -1   0 -11    4.20    5.90 
  -1   0 -11    9.60    7.10 
   0   1 -11    6.00    6.10 
   0  -1 -11    7.80    5.50 
   1   0  11    0.00    6.60 
   0  -1  11   -2.30    3.50 
   0   1  11   10.80    7.50 
   0   1  11   -1.20    4.40 
   0   1  11   -6.10    4.40 
  -1   0  11   -1.40    4.30 
   1   0  11    5.70    4.40 
   1   0  11    1.10    4.60 
   0  -1  11    5.30    4.70 
  -1   0  11    5.20    4.80 
   2   1 -11  706.23   71.49 
  -2  -1 -11  682.53   81.19 
  -2  -1 -11  673.73   70.49 
  -1   2 -11  711.63   70.19 
   1  -2 -11  734.13   81.89 
   2   1 -11  622.74   78.19 
   2   1 -11  554.14   71.19 
   1  -2 -11  713.43   78.79 
  -2  -1 -11  579.24   69.99 
  -2  -1 -11  585.74   78.29 
   2   1 -11  558.14   70.39 
   1  -2 -11  674.43   72.29 
  -1   2 -11  629.44   80.69 
  -2  -1 -11  671.43   70.79 
  -1   2 -11  618.64   69.49 
  -1   2 -11  674.73   71.49 
   1  -2  11  618.34   68.69 
  -2  -1  11  734.43   70.79 
  -2  -1  11  682.03   70.29 
   2   1  11  610.64   69.49 
   2   1  11  791.32   72.59 
  -1   2  11  630.24   70.19 
   1  -2  11  642.64   69.19 
  -1   2  11  676.63   72.59 
   1  -2  11  671.03   68.89 
   1   2 -11  599.94   79.19 
  -1  -2 -11  662.83   82.39 
   2  -1 -11  594.04   72.29 
   1   2 -11  605.34   71.19 
   1   2 -11  610.44   72.29 
  -2   1 -11  644.14   71.09 
  -2   1 -11  670.73   81.99 
  -2   1 -11  745.13   70.69 
  -1  -2 -11  624.04   71.69 
   1   2 -11  657.13   71.79 
  -1  -2 -11  669.73   71.39 
   2  -1 -11  688.43   80.89 
   2  -1 -11  611.34   74.69 
   2  -1 -11  687.03   72.09 
  -1  -2 -11  679.83   72.39 
  -1  -2 -11  612.94   78.69 
  -1  -2 -11  685.53   72.49 
  -2   1 -11  599.14   69.79 
   2  -1  11  654.13   69.39 
   1   2  11  770.42   72.99 
  -1  -2  11  670.93   70.59 
   1   2  11  695.03   71.19 
   2  -1  11  706.73   69.69 
   2  -1  11  751.02   71.29 
  -2   1  11  731.93   71.99 
  -1  -2  11  651.83   70.59 
  -2   1  11  605.74   70.79 
   2  -3 -11   43.50   13.00 
   3   2 -11   31.30   11.20 
  -2   3 -11   74.79   13.70 
   3   2 -11   22.00   16.70 
  -3  -2 -11   34.40    9.60 
  -3  -2 -11   35.50   16.70 
  -2   3 -11   24.60   18.00 
   2  -3 -11   28.00   10.30 
  -3  -2 -11   39.80   10.20 
  -3  -2 -11   35.50    9.20 
   3   2 -11   22.80   10.80 
   2  -3 -11   37.40   21.40 
   2  -3 -11   62.99   17.90 
  -3  -2 -11   28.20   19.20 
  -3  -2 -11   42.60   11.60 
  -2   3 -11   34.10    7.00 
  -3  -2  11   28.70    9.00 
   3   2  11   33.00    9.90 
  -2   3  11   41.00   10.80 
  -2   3  11   49.40   10.90 
   2  -3  11   42.80    6.90 
   3   2  11   35.30   10.60 
   2  -3  11   35.40    7.00 
  -3  -2  11   31.80    8.80 
   3   0 -11    3.70    8.20 
  -3   0 -11   -1.90    3.90 
   3   0 -11   -6.10    5.50 
   0   3 -11    1.80   11.10 
   0  -3 -11    5.50    9.60 
  -3   0 -11    0.00    5.80 
   0  -3 -11    8.50   14.80 
   0  -3 -11   -1.00    7.50 
   0   3 -11   -5.20    6.50 
  -3   0 -11   -1.30   13.50 
  -3   0 -11    3.90    4.50 
   3   0 -11   -9.90    9.00 
   0   3 -11    0.00    4.50 
   0  -3 -11    0.00    6.20 
   0  -3 -11   -3.60    4.60 
  -3   0 -11   -2.30    5.70 
  -3   0 -11   -2.40   11.00 
   3   0 -11    3.00   11.10 
   0  -3  11    8.70    4.70 
  -3   0  11   -3.50    4.70 
   3   0  11   -2.90    6.10 
   3   0  11    5.80    5.20 
   0   3  11    8.70    5.90 
   0  -3  11    2.80    4.60 
  -3   0  11   -7.10    5.20 
  -2  -3 -11   51.99   10.80 
   2   3 -11   35.40   10.50 
   3  -2 -11   29.40   18.60 
   3  -2 -11   26.70    9.50 
  -3   2 -11   34.70   19.90 
  -2  -3 -11   23.60   12.20 
  -2  -3 -11   32.90    9.60 
  -3   2 -11   26.60    5.80 
  -2  -3 -11   31.50   18.50 
   2   3 -11   38.80   18.00 
  -2  -3 -11   33.30   10.70 
  -3   2 -11   23.70   17.10 
  -2  -3 -11   25.70   14.90 
   2   3 -11   32.60   11.20 
   3  -2 -11   40.30   13.30 
   2   3  11   33.40   10.20 
  -2  -3  11   45.50    9.20 
  -3   2  11   59.59   10.80 
  -2  -3  11   36.40    9.40 
  -3   2  11   25.20    9.00 
   3  -2  11   31.80    6.20 
  -4  -3 -11    4.40    7.20 
   4   3 -11   16.40   10.50 
   3  -4 -11    9.50   20.80 
  -4  -3 -11   -2.20    6.60 
  -4  -3 -11   61.39   15.00 
  -4  -3 -11   20.70   17.50 
   3  -4 -11   23.10   12.40 
  -3   4 -11    7.50    3.70 
  -3   4 -11   -6.00   18.40 
  -4  -3 -11   19.50    9.70 
  -4  -3 -11   13.90   15.60 
   4   3 -11   -4.60    8.40 
  -3   4 -11    9.50    9.40 
   4   3 -11    9.20   15.00 
   3  -4 -11    4.90   12.40 
  -3   4  11    7.20    7.00 
   4   3  11    9.20    8.10 
  -4  -3  11    2.30    6.70 
   4   3  11    4.90    9.50 
  -3   4  11    5.80    7.80 
   3  -4  11    9.70    3.50 
  -4  -3  11    7.20    7.10 
  -1   4 -11  251.07   46.00 
  -4  -1 -11  258.77   33.00 
  -1   4 -11  275.17   35.80 
   1  -4 -11  273.07   35.80 
  -4  -1 -11  330.47   45.90 
  -4  -1 -11  265.17   33.10 
  -4  -1 -11  264.67   43.20 
   1  -4 -11  315.47   34.90 
   4   1 -11  248.88   36.00 
   1  -4 -11  382.26   37.60 
  -1   4 -11  269.27   32.40 
   1  -4 -11  293.97   42.40 
  -4  -1 -11  304.57   34.00 
   1  -4 -11  344.97   51.49 
   4   1 -11  283.77   42.80 
  -4  -1 -11  266.97   32.60 
   1  -4  11  293.17   32.10 
   4   1  11  254.57   33.00 
  -4  -1  11  295.47   34.50 
   1  -4  11  275.37   31.90 
   4   1  11  287.27   32.60 
  -4  -1  11  317.87   34.30 
  -1   4  11  261.37   33.80 
   1   4 -11  267.37   34.20 
  -1  -4 -11  303.77   37.20 
  -4   1 -11  297.87   31.80 
  -1  -4 -11  343.67   35.20 
   4  -1 -11  287.87   35.40 
   4  -1 -11  284.27   44.20 
   4  -1 -11  304.57   37.30 
  -4   1 -11  269.87   43.30 
   1   4 -11  238.68   45.00 
  -4   1 -11  275.57   33.10 
  -1  -4 -11  306.97   43.60 
  -4   1 -11  234.78   31.30 
  -4   1 -11  283.47   44.60 
  -1  -4 -11  283.87   36.90 
  -4   1 -11  297.67   31.10 
   1   4 -11  278.87   36.50 
  -4   1  11  336.27   35.20 
  -1  -4  11  342.07   35.40 
   4  -1  11  266.17   30.60 
  -4   1  11  275.07   33.80 
  -1  -4  11  264.27   32.80 
   1   4  11  313.47   39.00 
   1   4  11  291.87   34.60 
  -4   3 -11    3.80    7.70 
   4  -3 -11   11.90   12.00 
   4  -3 -11    6.70   20.30 
   4  -3 -11   20.80   12.90 
  -4   3 -11   15.70   18.10 
   4  -3 -11   16.20    9.00 
  -3  -4 -11   -0.20    7.30 
  -4   3 -11    0.10   18.50 
  -3  -4 -11   20.40   11.40 
   3   4 -11   15.60   10.50 
  -3  -4 -11    8.30    7.70 
  -3  -4 -11   21.10   18.30 
   3   4 -11    8.70   10.40 
   3   4 -11   20.20   15.90 
  -3  -4 -11    4.60   14.30 
  -4   3  11    2.90    6.70 
  -4   3  11    8.10    7.70 
   3   4  11   13.20    9.20 
   3   4  11    7.60   10.70 
  -3  -4  11   13.80    8.40 
  -5  -4 -11  259.77   44.90 
  -4   5 -11  200.88   33.80 
   4  -5 -11  186.08   29.10 
   5   4 -11  228.48   32.80 
  -5  -4 -11  161.08   40.70 
   5   4 -11  176.28   38.80 
   5   4 -11  201.28   30.10 
  -5  -4 -11  245.28   29.20 
  -4   5 -11  168.48   47.30 
  -5  -4 -11  226.38   34.10 
   4  -5 -11  224.28   34.80 
   5   4  11  192.88   23.80 
  -5  -4  11  200.38   26.60 
  -4   5  11  179.68   27.10 
   4  -5  11  203.68   26.70 
   5   4  11  212.48   31.00 
  -5  -2 -11  452.25   63.79 
  -2   5 -11  452.85   55.89 
  -5  -2 -11  388.46   52.39 
   5   2 -11  441.66   55.09 
   2  -5 -11  385.56   62.39 
  -2   5 -11  469.35   71.79 
  -5  -2 -11  495.35   52.39 
   5   2 -11  425.96   60.89 
   2  -5 -11  550.14   53.69 
  -5  -2 -11  391.96   62.89 
  -5  -2 -11  420.76   49.40 
   5   2 -11  405.46   53.39 
   2  -5 -11  574.24   62.19 
  -2   5 -11  439.66   49.90 
   5   2  11  429.86   51.69 
  -5  -2  11  555.54   53.29 
  -2   5  11  477.75   53.39 
   5   2  11  460.25   49.60 
  -5  -2  11  494.75   52.79 
   2  -5  11  526.85   49.99 
   0  -5 -11   -8.00    9.10 
   0   5 -11    8.40   18.60 
  -5   0 -11   -0.70    5.80 
  -5   0 -11   -7.20   14.00 
   5   0 -11  -12.20   13.30 
   5   0 -11   -1.10   11.70 
  -5   0 -11    4.70    6.20 
   5   0 -11   -1.60    7.40 
  -5   0 -11    1.90   15.00 
   0  -5 -11    9.60   21.80 
  -5   0 -11    3.50    4.20 
   0   5 -11    8.50    9.80 
   0  -5 -11    5.30   13.30 
   0  -5 -11   22.00   10.80 
   0  -5 -11    7.30    6.60 
   0   5 -11   -4.10    5.60 
  -5   0 -11   -1.50    4.00 
   0  -5  11    1.00    5.80 
   0  -5  11    4.90    5.80 
   0   5  11    2.40    7.30 
   5   0  11    4.60    4.40 
  -5   0  11    2.40    6.20 
  -5   0  11   -7.70    6.10 
  -5   2 -11  537.35   71.69 
  -2  -5 -11  455.95   60.39 
  -2  -5 -11  462.55   67.59 
   2   5 -11  418.06   59.49 
  -5   2 -11  462.85   55.79 
  -2  -5 -11  618.54   75.39 
   2   5 -11  408.76   56.89 
   5  -2 -11  605.44   62.09 
  -2  -5 -11  565.94   58.19 
   5  -2 -11  428.26   57.29 
  -2  -5 -11  531.45   62.09 
   2   5 -11  456.35   71.49 
   5  -2 -11  560.74   69.59 
  -2  -5 -11  604.44   57.79 
  -5   2 -11  478.35   68.09 
  -5   2  11  511.85   57.19 
   2   5  11  561.34   59.59 
   2   5  11  566.74   61.49 
  -2  -5  11  526.45   56.29 
  -5   2  11  563.94   58.09 
  -2  -5  11  474.25   55.99 
   5  -4 -11  322.47   36.60 
  -5   4 -11  193.48   32.40 
   4   5 -11  141.09   38.90 
  -5   4 -11  206.38   48.00 
  -4  -5 -11  227.08   48.50 
  -4  -5 -11  229.18   29.50 
  -5   4 -11  269.17   47.90 
  -4  -5 -11  173.28   42.40 
  -4  -5 -11  199.08   35.20 
   5  -4 -11  207.78   31.30 
   4   5 -11  172.58   33.30 
   4   5 -11  196.78   31.30 
   5  -4  11  210.78   27.60 
   4   5  11  195.58   32.50 
  -5   4  11  224.28   29.80 
  -4  -5  11  205.98   27.50 
  -5   4  11  206.08   28.20 
   4   5  11  238.28   29.40 
  -4  -5  11  239.38   27.80 
  -6  -5 -11   39.70   27.70 
  -5   6 -11   38.20   35.40 
  -5   6 -11   25.00   21.50 
   5  -6 -11  137.79   44.50 
   5  -6 -11   29.90   12.70 
   5  -6 -11   90.89   24.70 
  -6  -5 -11   19.50   22.60 
  -6  -5 -11   59.79   30.00 
   5  -6 -11   38.30   22.00 
   6   5 -11   24.10   15.40 
   5  -6 -11   17.80   15.60 
  -6  -5 -11   28.50   12.40 
  -6  -5 -11   44.10   21.30 
   6   5 -11   47.50   25.90 
   6   5 -11   35.00   19.50 
  -6  -5  11   21.50   10.60 
   6   5  11   28.30   17.70 
   5  -6  11   34.90   11.80 
  -6  -5  11   37.80   11.70 
  -3   6 -11   25.00   16.30 
  -6  -3 -11   14.30   22.00 
  -3   6 -11    1.40   30.00 
  -6  -3 -11   -2.30    7.60 
  -6  -3 -11   -8.50   11.90 
   6   3 -11   -1.80   12.30 
   6   3 -11    7.40   17.40 
   6   3 -11   11.50   11.30 
   3  -6 -11    9.00   11.60 
   3  -6 -11   18.50    9.80 
   3  -6 -11   24.80   14.80 
   3  -6 -11   10.70   16.40 
   3  -6 -11   17.30   28.00 
  -6  -3 -11    4.70   21.20 
   3  -6  11    3.10    8.10 
  -3   6  11    2.00    8.10 
   6   3  11    4.70    9.80 
  -6  -3  11    9.30    8.20 
  -6  -3  11    8.40    8.30 
  -6  -1 -11   29.90   21.20 
  -6  -1 -11   46.10    8.30 
   6   1 -11   25.40   20.40 
   1  -6 -11   51.49   15.70 
  -1   6 -11   49.50   16.40 
  -6  -1 -11   15.60    7.30 
  -6  -1 -11   39.00    7.90 
   1  -6 -11   83.69   32.80 
   1  -6 -11   30.50   14.90 
   6   1 -11   54.59   17.00 
  -6  -1 -11   51.99   22.70 
  -6  -1 -11   17.60    9.00 
   1  -6 -11   39.10   12.00 
   6   1 -11   29.60   18.30 
   1  -6 -11   13.20   19.70 
  -6  -1  11   30.70    9.70 
   1  -6  11   35.30    8.20 
  -1   6  11   41.10   11.90 
   1  -6  11   37.80   10.30 
   6   1  11   38.10    7.90 
  -1  -6 -11   41.10   16.10 
   6  -1 -11   45.50   13.20 
   6  -1 -11   59.39   17.80 
   1   6 -11   31.30   14.80 
  -1  -6 -11   85.19   33.50 
  -6   1 -11   39.10   10.00 
   6  -1 -11    8.10   21.00 
  -1  -6 -11   27.40   21.10 
  -6   1 -11   48.50   24.50 
  -1  -6 -11   33.50   11.00 
  -6   1 -11   37.50   20.80 
   1   6  11   42.90   13.90 
  -6   1  11   31.60   11.40 
  -6   1  11   52.09   12.10 
  -1  -6  11   31.80    9.20 
  -1  -6  11   41.00   10.80 
  -6   3 -11    5.10   19.80 
   6  -3 -11    0.20   14.80 
  -3  -6 -11    7.70    8.90 
  -3  -6 -11    4.20   20.20 
   3   6 -11   20.90   23.00 
   6  -3 -11  -37.00   32.60 
   3   6 -11    8.30   13.30 
  -3  -6 -11   17.40   15.40 
  -6   3 -11    9.60   10.80 
  -3  -6 -11   14.70   22.50 
   6  -3 -11   17.90   24.10 
  -6   3 -11   -4.40   21.90 
   6  -3 -11    3.10   10.60 
  -3  -6  11    3.00    8.30 
   3   6  11  -12.20   18.90 
  -6   3  11    2.50    8.20 
  -6   3  11   -3.00    9.60 
  -3  -6  11    7.20    7.10 
   3   6  11   23.70   13.70 
  -5  -6 -11   31.40   13.00 
  -6   5 -11   95.69   34.90 
  -5  -6 -11   40.50   20.40 
   6  -5 -11   60.39   19.40 
  -5  -6 -11   35.40   27.90 
   6  -5 -11   40.70   15.90 
  -5  -6 -11   80.09   31.40 
   5   6 -11   27.80   20.50 
  -6   5 -11   12.60   32.20 
   5   6 -11   16.70   27.30 
   6  -5 -11   63.69   37.50 
   6  -5 -11   38.50   38.20 
   6  -5 -11   57.19   21.10 
  -6   5 -11   22.00   16.00 
  -5  -6  11   25.50   11.30 
   5   6  11   41.60   18.50 
   5   6  11   41.80   12.40 
  -6   5  11   42.70   15.10 
  -5  -6  11   30.30   11.70 
   6  -5  11   17.80   18.40 
   7   6 -11    4.90   20.40 
  -7  -6 -11   24.40   31.10 
   6  -7 -11    8.00   13.30 
  -6   7 -11  -33.50   24.20 
   6  -7 -11   -1.30   25.20 
  -7  -6 -11   12.20   35.30 
   7   6 -11  -27.10   28.10 
   6  -7 -11  -13.00   16.90 
  -7  -6 -11  -12.50   13.90 
  -6   7 -11   -7.20   32.40 
  -7  -6  11    3.90   11.40 
   6  -7  11   10.30   11.10 
  -6   7  11   -4.40   12.00 
   4  -7 -11  118.19   19.20 
  -7  -4 -11   64.19   15.40 
   7   4 -11   55.69   20.20 
   7   4 -11   38.50   29.90 
  -7  -4 -11   30.20   21.50 
  -7  -4 -11   78.69   31.50 
  -7  -4 -11   44.00   28.80 
   4  -7 -11   96.69   28.90 
   4  -7 -11  167.68   47.10 
   7   4 -11   45.70   25.20 
  -4   7 -11   77.09   47.00 
   4  -7 -11   64.69   19.50 
  -4   7 -11   68.39   27.30 
   4  -7  11   68.89    8.70 
  -7  -4  11   69.79   15.90 
  -4   7  11   40.90   15.00 
   4  -7  11   52.69   14.80 
   7   4  11   61.29   17.00 
  -7  -4  11   52.79   13.90 
  -2   7 -11   69.89   14.70 
   2  -7 -11   97.49   30.00 
   2  -7 -11  132.19   20.30 
   7   2 -11   72.09   26.60 
  -7  -2 -11   80.79   32.10 
   2  -7 -11   91.09   21.90 
   7   2 -11  110.99   23.80 
  -7  -2 -11   93.99   14.50 
  -7  -2 -11   53.19   15.10 
   7   2 -11  115.29   21.80 
  -2   7 -11  124.29   27.90 
  -7  -2 -11  119.29   32.50 
   2  -7  11  102.79   17.90 
   2  -7  11   87.19   14.00 
  -2   7  11  107.59   20.70 
  -7  -2  11   93.09   17.30 
   7   2  11   79.99   19.60 
  -7  -2  11  107.59   18.80 
  -7   0 -11    1.00    3.20 
  -7   0 -11   -2.50    6.30 
   0   7 -11   -1.10    9.20 
  -7   0 -11   -4.60    2.90 
   0  -7 -11   -0.10   24.00 
   7   0 -11    3.90   21.50 
  -7   0 -11   -2.10    5.20 
  -7   0 -11   11.00   19.20 
   0  -7 -11    3.60    8.70 
  -7   0 -11  -14.40   22.50 
   0  -7 -11   -4.00   15.00 
   0  -7 -11    3.00   19.80 
   7   0 -11   -1.50   11.20 
   0   7 -11   10.60   15.20 
   7   0 -11   15.60   16.40 
  -7   0  11    4.80    9.10 
   0   7  11    7.20   10.40 
   0  -7  11   -1.70    6.00 
   0  -7  11   -5.40    7.20 
  -7   0  11    0.90    8.00 
   2   7 -11  101.29   25.80 
   2   7 -11   76.19   19.60 
  -2  -7 -11   96.59   32.20 
   7  -2 -11   87.09   31.10 
  -7   2 -11  104.99   32.10 
  -7   2 -11  122.59   33.50 
   7  -2 -11   96.39   27.60 
  -7   2 -11  112.29   18.10 
   7  -2 -11   77.99   19.30 
  -2  -7 -11   88.59   22.50 
  -2  -7 -11  200.38   44.70 
  -2  -7 -11  120.99   20.50 
  -7   2  11  126.39   21.10 
  -7   2  11  117.19   19.50 
   2   7  11   90.39   21.60 
  -2  -7  11   89.59   16.80 
  -2  -7  11   80.39   17.70 
   7  -4 -11   99.09   27.40 
   7  -4 -11   33.60   33.20 
  -7   4 -11   82.19   36.40 
   4   7 -11   31.20   18.20 
   7  -4 -11   46.10   17.10 
  -7   4 -11   81.89   33.70 
  -7   4 -11   59.79   19.50 
  -4  -7 -11   35.30   22.50 
   7  -4 -11  127.39   43.00 
   4   7 -11   68.39   22.70 
  -4  -7 -11   89.29   19.20 
  -4  -7 -11   48.20   31.80 
   7  -4 -11   55.59   19.00 
  -4  -7 -11   55.59   53.09 
   4   7  11   68.39   21.90 
  -4  -7  11   69.59   15.20 
  -4  -7  11   88.99   16.90 
   4   7  11   35.30   23.90 
  -7   4  11   87.99   18.60 
  -7   4  11   59.09   16.30 
  -7   6 -11   -5.40   24.30 
  -6  -7 -11    0.70   32.70 
  -6  -7 -11   -6.60   30.70 
   6   7 -11  -23.30   19.50 
   7  -6 -11    7.30   22.10 
   7  -6 -11   26.60   43.50 
  -6  -7 -11  -10.90   12.80 
   6   7 -11    2.10   33.40 
   7  -6 -11  -13.10   16.90 
  -7   6 -11  -14.60   36.60 
  -7   6 -11    7.10   32.90 
   6   7 -11   23.50   24.00 
   6   7  11   -9.30   22.00 
  -7   6  11    0.90   11.10 
  -6  -7  11    5.50   11.60 
   7  -6  11   -0.90   10.10 
  -6  -7  11    2.70   11.80 
  -8  -7 -11   64.09   40.60 
   8   7 -11   38.80   40.50 
  -8  -7 -11   46.10   37.60 
  -7   8 -11   64.99   48.20 
   8   7 -11   41.90   42.20 
  -7   8 -11   55.59   51.79 
   8   7 -11   95.59   42.30 
   7  -8 -11   90.29   60.19 
   8   7  11   11.10   30.30 
   7  -8  11   35.20   15.90 
  -7   8  11   18.50   16.20 
  -8  -7  11   16.70   14.50 
   8   5 -11  159.88   36.90 
  -8  -5 -11  181.78   45.30 
   8   5 -11  116.89   39.20 
   8   5 -11  110.99   29.40 
   5  -8 -11  174.28   26.80 
  -8  -5 -11  132.99   24.70 
   5  -8 -11   90.79   27.80 
  -5   8 -11  100.99   42.50 
  -5   8 -11   89.99   57.59 
  -8  -5  11  138.79   25.20 
   8   5  11  154.48   28.40 
  -8  -5  11  135.69   23.30 
   3  -8 -11   24.70   26.90 
  -3   8 -11   -1.90   27.10 
   3  -8 -11   23.20   17.50 
  -8  -3 -11    3.10   26.10 
   3  -8 -11    9.90   31.80 
  -8  -3 -11    5.60    8.90 
   8   3 -11    2.10   23.20 
  -8  -3 -11    7.10   26.60 
   8   3 -11  -13.10   16.50 
   3  -8 -11   18.10   11.40 
  -3   8  11   -2.60   11.00 
   8   3  11   24.70   11.60 
   3  -8  11    1.70   10.00 
   3  -8  11   14.80    8.90 
  -8  -3  11   10.60   11.10 
   1  -8 -11  186.78   27.20 
   1  -8 -11  118.29   29.20 
  -1   8 -11  148.19   35.90 
  -8  -1 -11  128.99   39.40 
   8   1 -11  148.89   36.30 
   8   1 -11  236.28   42.40 
  -8  -1 -11  157.48   20.00 
  -8  -1 -11  248.68   46.00 
  -1   8  11  173.58   29.50 
   1  -8  11  178.48   24.40 
  -8  -1  11  230.88   35.80 
  -8   1 -11  238.68   42.80 
  -8   1 -11  135.79   23.50 
  -8   1 -11  167.48   43.30 
   8  -1 -11  242.38   56.79 
   1   8 -11  174.78   36.90 
   8  -1 -11  228.88   45.20 
  -1  -8 -11  144.39   30.80 
   8  -1 -11  152.48   28.00 
  -1  -8 -11  163.48   27.10 
  -1  -8 -11  265.07   47.30 
   1   8  11  172.78   30.40 
  -8   1  11  200.48   28.40 
  -8   1  11  175.58   25.60 
  -1  -8  11  167.88   25.90 
  -3  -8 -11   -6.20   26.40 
  -8   3 -11   11.50   24.60 
   8  -3 -11    6.60   14.80 
   8  -3 -11    3.60   34.10 
  -3  -8 -11   11.90   28.80 
  -8   3 -11   -1.50   12.80 
   3   8 -11   14.30   20.90 
   8  -3 -11   33.30   35.50 
   8  -3 -11    2.70   20.30 
  -8   3 -11   39.30   31.10 
  -3  -8 -11    6.90   11.90 
  -3  -8 -11   -4.50   19.00 
   3   8  11   15.30   16.50 
  -3  -8  11    8.40    9.90 
  -8   3  11    6.20    9.80 
  -8   3  11   21.50   13.50 
  -5  -8 -11  254.17   58.09 
  -5  -8 -11  186.68   31.50 
   8  -5 -11  180.68   35.40 
  -8   5 -11  225.78   54.89 
  -8   5 -11  246.38   55.99 
  -8   5 -11  189.08   38.80 
   5   8  11  149.39   37.50 
  -8   5  11  208.78   34.40 
   8  -7 -11  122.99   58.89 
  -7  -8 -11   36.50   40.90 
  -8   7 -11   77.59   49.00 
   7   8 -11   46.60   47.30 
   7   8 -11   28.40   32.30 
  -8   7 -11   63.09   62.39 
  -8   7 -11   59.99   33.90 
  -7  -8 -11   47.10   39.70 
   8  -7  11   19.50   14.90 
  -8   7  11   31.40   16.60 
  -7  -8  11   26.50   17.30 
   7   8  11   31.20   35.70 
  -6   9 -11   39.70   64.19 
  -9  -6 -11  -17.30   39.10 
  -9  -6 -11  -23.80   42.30 
   6  -9 -11   10.40   51.29 
   9   6 -11    7.80   31.20 
  -6   9 -11    6.30   43.90 
   9   6 -11   12.00   54.99 
   9   6 -11   56.39   40.20 
  -6   9 -11   -8.60   40.60 
   9   6  11  -16.50   24.90 
  -9  -6  11    4.70   12.50 
  -6   9  11    6.30   16.00 
   6  -9  11   -7.40   13.60 
  -9  -6  11   16.00   17.00 
  -9  -4 -11   -5.00   11.00 
   4  -9 -11  -27.50   62.19 
  -4   9 -11  -22.80   43.50 
   9   4 -11   25.00   23.60 
   9   4 -11    9.40   24.60 
  -9  -4 -11   -5.50   30.30 
   4  -9 -11    4.40   13.80 
   4  -9 -11   39.00   34.00 
   4  -9 -11   26.70   22.70 
   9   4 -11    5.60   29.90 
  -9  -4  11   -4.50   13.40 
   9   4  11   31.50   16.50 
   4  -9  11   -5.60   11.20 
  -4   9  11   24.30   15.10 
   2  -9 -11   15.60   12.80 
   2  -9 -11   26.20   21.20 
  -9  -2 -11   20.30   10.60 
  -9  -2 -11   63.49   31.70 
   2  -9 -11   66.69   44.10 
  -2   9 -11   26.40   31.30 
  -9  -2 -11   30.30    9.00 
  -9  -2 -11   19.30   31.60 
   9   2 -11   20.90   19.60 
   2  -9 -11   55.59   35.50 
   9   2 -11   51.29   29.90 
   9   2 -11   47.30   25.80 
   2  -9  11   54.89   13.40 
  -9  -2  11   24.30   13.80 
   9   2  11   19.50   13.00 
   2  -9  11   11.40   11.30 
  -2   9  11   21.50   14.90 
  -9  -2  11   46.20   13.40 
   0  -9 -11  -31.10   31.50 
   0  -9 -11  -25.50   11.60 
   9   0 -11   -3.30   16.00 
   0  -9 -11  -15.90   32.60 
   0  -9 -11   16.90   20.40 
   9   0 -11   22.80   32.50 
   0   9 -11   -5.60   23.30 
  -9   0 -11  -18.40   29.40 
   9   0 -11   33.60   23.60 
  -9   0 -11  -16.00   27.80 
  -9   0  11   16.50   13.10 
  -9   0  11    0.80    9.20 
   0  -9  11  -12.30   10.50 
   0   9  11    7.30   14.50 
   0  -9  11    0.00    8.30 
   9  -2 -11  163.58   47.80 
  -9   2 -11   33.80   13.20 
  -9   2 -11   45.40   35.20 
   9  -2 -11   38.80   26.20 
  -9   2 -11   38.10   29.10 
  -2  -9 -11   58.79   35.90 
  -2  -9 -11   53.99   23.20 
  -2  -9 -11   16.70   14.00 
   9  -2 -11   -0.20   17.30 
   2   9 -11   29.10   26.10 
  -2  -9 -11  109.09   45.30 
  -9   2  11   43.50   17.40 
  -2  -9  11   18.00   12.80 
  -9   2  11   50.89   14.60 
   4   9 -11  -67.59   29.30 
  -9   4 -11    1.20   40.10 
  -4  -9 -11   24.00   35.30 
  -4  -9 -11   28.30   60.29 
   9  -4 -11   18.30   19.70 
   9  -4 -11   15.00   46.60 
  -9   4 -11   18.80   32.40 
  -9   4 -11    3.20   19.50 
   9  -4 -11   15.30   17.10 
   9  -4 -11   27.80   27.30 
  -4  -9 -11   -3.00   14.70 
   9  -4  11   -3.00   11.00 
  -4  -9  11    5.20   11.90 
   4   9  11    0.30   23.00 
  -9   4  11  -22.40   17.20 
  -9   4  11   20.70   13.90 
  -6  -9 -11   18.50   41.10 
  -9   6 -11   26.10   30.80 
   9  -6 -11  -38.20   54.29 
   6   9 -11    8.60   34.80 
  -6  -9 -11    2.70   38.00 
  -9   6 -11    8.70   48.70 
  -9   6 -11    2.30   43.90 
   9  -6  11   -8.80   14.80 
  -9   6  11   -0.20   15.40 
  -6  -9  11   -0.40   15.20 
  10   5 -11   22.30   34.80 
 -10  -5 -11   -3.80   38.90 
  -5  10 -11   32.50   54.39 
  10   5 -11    6.50   40.90 
   5 -10 -11   32.50   57.19 
 -10  -5 -11   22.70   42.00 
 -10  -5  11    1.60   12.90 
 -10  -3 -11   13.30   42.10 
   3 -10 -11    4.50   26.40 
  10   3 -11   26.70   29.60 
  -3  10 -11   25.50   42.70 
 -10  -3 -11  -26.60   31.00 
   3 -10 -11   -5.00   39.80 
   3 -10 -11    0.40   37.20 
 -10  -3 -11   -1.00   10.70 
  10   3 -11   10.60   34.10 
  10   3 -11   15.80   25.90 
  -3  10  11  -19.60   17.30 
 -10  -3  11   -2.50   12.30 
 -10  -3  11   14.10   23.30 
   3 -10  11   12.30   12.40 
   1 -10 -11   26.50   16.10 
  -1  10 -11   72.39   37.70 
 -10  -1 -11  -13.20   31.30 
 -10  -1 -11   20.00    7.40 
 -10  -1 -11   35.30   42.00 
   1 -10 -11   58.19   45.90 
 -10  -1 -11    2.60    7.50 
   1 -10 -11    0.90   24.80 
  10   1 -11  -10.10   38.30 
  10   1 -11   23.00   28.80 
  10   1 -11   16.30   38.90 
  -1  10  11   39.70   22.00 
 -10  -1  11   -3.90   16.60 
 -10  -1  11   19.40   12.60 
   1 -10  11   34.10   15.20 
  10  -1 -11   47.70   44.10 
  -1 -10 -11   42.00   43.50 
  -1 -10 -11   22.10   23.30 
  10  -1 -11    3.20   20.80 
   1  10 -11   16.40   30.80 
  -1 -10 -11   23.40   39.10 
 -10   1  11    9.40   16.40 
   1  10  11   17.70   22.80 
 -10   1  11    5.10   10.70 
  -3 -10 -11   -4.30   42.10 
  10  -3 -11  -23.30   33.00 
  10  -3 -11    2.20   19.10 
 -10   3 -11  -27.60   40.90 
  -3 -10 -11   -5.80   40.40 
 -10   3 -11   34.20   33.90 
  10  -3 -11  -20.70   46.90 
   3  10 -11    0.30   29.20 
   3  10  11  -18.00   20.60 
 -10   3  11    6.80   12.80 
  -3 -10  11   15.30   16.10 
 -10   5 -11   52.39   44.00 
  10  -5 -11   98.89   58.39 
 -10   5 -11  -34.30   53.79 
  -5 -10 -11   28.40   47.50 
   5  10 -11   51.59   38.10 
 -10   5 -11   19.10   30.40 
  -5 -10  11   19.60   17.40 
  10  -5  11   19.20   17.60 
   5  10  11   26.60   30.50 
 -10   5  11    9.60   18.20 
 -11  -2 -11  114.79   53.29 
  11   2 -11   64.29   45.10 
   2 -11 -11  163.08   53.89 
  -2  11  11  145.19   50.69 
  11   0 -11   19.20   41.30 
 -11   0 -11    2.80   47.60 
   0 -11 -11  -16.30   28.10 
   0  11 -11    2.20   43.30 
   0 -11 -11  -45.30   39.90 
   0 -11 -11  -10.10   18.00 
 -11   0  11    8.20   13.70 
   0 -11  11    4.80   11.60 
   0  11  11    3.20   21.10 
  11  -2 -11  109.09   46.40 
 -11   2 -11   31.00   57.59 
  -2 -11 -11  115.89   48.90 
   2  11  11   -6.20   28.20 
  -2 -11  11   32.60   19.90 
   0   0 -12 4281.87  443.76 
   0   0 -12 3920.91  433.06 
   0   0 -12 4521.85  433.56 
   0   0 -12 3896.71  433.46 
   0   0  12 4642.84  432.76 
   0   0  12 4236.58  432.26 
  -1   1 -12    4.50   13.80 
   1  -1 -12    6.60    6.70 
  -1  -1 -12    7.80   12.10 
   1   1 -12    6.40   12.60 
  -1   1 -12    8.90    5.60 
   1   1 -12   20.20   10.10 
  -1  -1 -12   -2.90    7.40 
   1  -1 -12   -5.90    7.40 
   1   1 -12   18.00    7.60 
  -1  -1 -12   25.10   16.60 
  -1  -1 -12    5.30    8.90 
  -1   1 -12    4.10    7.50 
   1   1 -12    4.70    7.40 
   1  -1 -12    1.50    9.10 
   1  -1 -12    6.90   13.60 
  -1  -1 -12   10.90    6.40 
  -1   1 -12    0.60    6.60 
  -1  -1  12   12.70    5.80 
   1  -1  12   12.40    5.40 
  -1   1  12    6.10    5.40 
   1   1  12    8.10    9.60 
  -1   1  12    5.50    5.40 
   1   1  12   14.70    6.70 
   1  -1  12    9.60    4.80 
  -1  -1  12    3.60    5.40 
  -2   0 -12  104.19   16.40 
   0  -2 -12   99.99   27.00 
   0  -2 -12  107.69   18.90 
   0  -2 -12  151.38   27.00 
  -2   0 -12  146.99   32.00 
  -2   0 -12  121.89   29.60 
   2   0 -12  103.59   26.60 
   0   2 -12  139.89   31.50 
   2   0 -12  131.99   19.90 
  -2   0 -12   90.49   18.20 
   0  -2 -12  123.39   20.40 
   2   0 -12   97.59   19.40 
  -2   0 -12  121.09   20.90 
   0   2 -12  114.29   19.90 
   0  -2 -12  108.39   18.70 
   2   0 -12   95.99   17.30 
   0   2 -12  153.68   19.70 
   0   2 -12   70.29   15.40 
  -2   0 -12   93.79   16.50 
   0  -2  12  114.99   19.20 
   0  -2  12  107.49   15.60 
  -2   0  12  116.39   17.00 
   2   0  12  103.69   15.30 
  -2   0  12  148.59   17.80 
   0   2  12  107.79   16.20 
   2   0  12  175.78   20.20 
  -2   2 -12  832.22   93.49 
   2   2 -12  738.23   95.29 
  -2   2 -12  933.21   94.29 
   2  -2 -12  911.61   97.29 
   2  -2 -12  855.11   96.29 
   2   2 -12  851.31  104.59 
  -2  -2 -12  902.01  107.09 
   2   2 -12  884.01   96.09 
  -2  -2 -12  851.61   96.29 
  -2   2 -12  878.81   95.69 
  -2  -2 -12  924.51   95.79 
   2  -2 -12  901.41  107.69 
  -2  -2 -12  850.81  104.99 
   2   2 -12  814.22   96.59 
  -2  -2 -12  925.51   96.79 
   2  -2 -12  998.90  105.09 
  -2   2 -12  804.62  106.89 
  -2  -2 -12  898.61   95.49 
  -2   2  12  862.21   95.29 
  -2  -2  12 1031.60   95.69 
   2   2  12  908.21   94.99 
   2   2  12 1085.59   96.59 
   2  -2  12  966.70   93.29 
   2  -2  12  869.11   92.89 
  -2  -2  12  915.31   95.09 
   1  -3 -12  850.41  101.29 
  -1   3 -12  900.81  101.39 
  -1   3 -12  838.92  111.09 
   1  -3 -12  966.80  108.69 
   3   1 -12  844.22  101.49 
  -3  -1 -12  843.52  109.79 
   3   1 -12 1032.70  101.79 
   1  -3 -12 1085.19  116.09 
   3   1 -12  901.31  109.09 
  -3  -1 -12  865.61   99.39 
   1  -3 -12  865.71  104.19 
   1  -3 -12 1115.39  102.79 
   3   1 -12  781.92  100.09 
  -3  -1 -12  952.10  110.99 
  -3  -1 -12  962.80  100.29 
  -3  -1 -12  927.61   99.79 
   3   1  12  961.30   99.39 
   1  -3  12  978.00   98.29 
  -3  -1  12 1133.69  100.99 
  -3  -1  12  969.70  100.09 
   3   1  12 1088.79  101.19 
  -1   3  12  925.11  101.89 
   1  -3  12  919.51   97.99 
   3  -1 -12  904.91  109.39 
   1   3 -12  800.32  109.09 
  -1  -3 -12  944.31  101.39 
   1   3 -12  909.21  101.49 
  -3   1 -12 1014.60   98.39 
  -3   1 -12  908.81   98.09 
   3  -1 -12  916.21  101.99 
  -1  -3 -12 1023.10  100.59 
  -1  -3 -12  885.01  101.19 
  -3   1 -12  860.81  109.79 
  -1  -3 -12  851.01  108.09 
  -3   1 -12  903.31   97.69 
  -3   1 -12  905.21  111.89 
   1   3 -12  825.42   99.39 
  -1  -3 -12 1033.40  100.89 
   3  -1 -12  892.61  100.39 
   1   3  12  975.80   99.89 
  -1  -3  12  888.61   98.59 
  -1  -3  12 1048.30   99.39 
   3  -1  12 1103.09   99.59 
  -3   1  12  959.50   99.69 
  -3   1  12 1041.70  100.39 
  -3  -3 -12  398.96   48.90 
   3  -3 -12  513.25   50.89 
  -3   3 -12  322.57   57.29 
  -3  -3 -12  426.76   47.10 
   3   3 -12  389.86   49.00 
  -3  -3 -12  347.37   54.49 
  -3  -3 -12  465.35   60.39 
  -3   3 -12  396.36   46.70 
  -3   3 -12  396.06   42.50 
   3   3 -12  368.06   55.59 
  -3  -3 -12  398.76   45.10 
   3  -3 -12  415.56   59.89 
   3  -3 -12  348.27   47.30 
   3   3 -12  363.26   47.10 
  -3  -3 -12  333.77   47.30 
   3  -3 -12  454.15   55.19 
   3  -3  12  436.96   41.90 
  -3  -3  12  463.85   48.20 
  -3  -3  12  381.66   45.80 
   3  -3  12  425.96   42.50 
   3   3  12  406.46   46.70 
  -3   3  12  388.96   46.10 
   3  -3  12  378.56   42.10 
  -3   3  12  388.36   46.60 
   4   2 -12  798.62   92.29 
   2  -4 -12  971.10   99.69 
  -4  -2 -12  803.12   89.69 
   2  -4 -12  773.52   91.39 
   2  -4 -12 1033.20  108.39 
  -4  -2 -12  841.42   90.49 
  -2   4 -12  806.52   87.19 
  -4  -2 -12  730.43   87.79 
  -2   4 -12  745.63   90.89 
   4   2 -12  804.92   99.79 
  -4  -2 -12  747.33  100.29 
  -2   4 -12  754.52  105.49 
  -4  -2 -12  864.11  101.99 
   4   2 -12  774.22   90.89 
   2  -4  12  889.81   87.09 
  -4  -2  12  846.32   89.69 
   4   2  12  792.72   89.69 
  -4  -2  12  995.30   90.59 
  -2   4  12  811.72   90.09 
   4   2  12  940.71   88.39 
  -4   0 -12   -4.40    4.60 
   0  -4 -12    6.00    7.90 
   0  -4 -12   11.40   11.60 
   0  -4 -12    0.60    9.90 
  -4   0 -12    2.10    5.80 
   0   4 -12   -4.20    5.80 
  -4   0 -12   -0.50    6.90 
   4   0 -12    6.40   14.60 
   4   0 -12    2.70   10.20 
  -4   0 -12   12.40   15.30 
   0  -4 -12   -1.80   12.00 
   0  -4 -12    6.30   21.00 
  -4   0 -12  -13.20   13.50 
   0   4 -12    4.40   15.20 
   0   4 -12   14.40   10.50 
   4   0 -12   24.70    9.50 
  -4   0 -12   -1.50    7.20 
   0  -4  12    1.00    6.00 
  -4   0  12    2.40    6.10 
   0  -4  12   -2.10    4.80 
  -4   0  12   -2.80    6.20 
   0   4  12   -7.90    7.40 
  -2  -4 -12  949.21  110.19 
  -4   2 -12  735.03   90.09 
  -2  -4 -12  978.40   95.29 
   2   4 -12  795.02  106.09 
  -2  -4 -12  941.41   97.49 
  -2  -4 -12  965.10   96.09 
   2   4 -12  859.41   96.89 
  -4   2 -12  899.11   89.69 
  -2  -4 -12  804.42  103.89 
  -4   2 -12  889.81   93.59 
   4  -2 -12  942.21  107.19 
   2   4 -12  736.53   94.09 
  -4   2 -12  845.82  107.19 
   4  -2 -12  855.11   97.39 
  -4   2 -12  883.81  108.39 
   4  -2 -12 1009.10   97.89 
  -2  -4 -12  823.72   96.39 
  -4   2  12  936.61   94.89 
   4  -2  12  784.52   88.99 
   4  -2  12  901.31   88.99 
  -2  -4  12  888.11   93.39 
   2   4  12  885.81   97.19 
  -2  -4  12 1008.30   93.99 
   2   4  12  900.91   95.29 
  -4  -4 -12 1031.40  115.39 
  -4   4 -12  880.01  116.69 
  -4  -4 -12  916.21   96.59 
   4   4 -12  888.81  102.29 
  -4  -4 -12  998.00   99.99 
   4   4 -12  823.22  100.19 
   4  -4 -12 1035.10  106.69 
  -4  -4 -12  853.01  101.69 
  -4   4 -12  854.71  100.19 
   4   4 -12  793.82  108.39 
  -4  -4 -12  806.62  110.69 
  -4   4  12  882.31   98.89 
  -4  -4  12  888.31   98.29 
   4   4  12  979.20  101.19 
  -4   4  12  883.81   99.69 
   4   4  12 1043.50   97.59 
  -4  -4  12 1004.80   98.69 
   5   3 -12  198.88   31.10 
   3  -5 -12  206.68   33.10 
   5   3 -12  240.18   34.90 
  -5  -3 -12  221.88   30.40 
   3  -5 -12  283.77   32.00 
   3  -5 -12  242.38   39.30 
  -5  -3 -12  260.67   47.30 
  -5  -3 -12  223.48   44.40 
  -3   5 -12  207.18   32.60 
  -3   5 -12  205.68   25.40 
  -5  -3 -12  148.39   30.70 
  -5  -3 -12  215.78   26.60 
   5   3 -12  216.88   42.00 
  -3   5 -12  232.08   55.89 
   5   3  12  229.68   26.80 
   3  -5  12  233.18   24.80 
  -5  -3  12  280.97   32.10 
  -5  -3  12  240.18   29.30 
   5   3  12  234.08   31.00 
   3  -5  12  208.98   24.80 
  -1   5 -12   33.20   13.70 
  -5  -1 -12   33.40    9.50 
   1  -5 -12   31.90   12.30 
   1  -5 -12   29.50   26.00 
   1  -5 -12   66.39   17.60 
   1  -5 -12   23.90   18.80 
  -1   5 -12   25.80   23.90 
  -5  -1 -12   24.90   18.80 
  -5  -1 -12   39.60   22.20 
   5   1 -12   32.60   12.10 
  -5  -1 -12   27.60   10.00 
  -5  -1 -12   46.60   10.20 
   5   1 -12   19.70   17.40 
   1  -5 -12   27.90   10.20 
   5   1 -12   41.70   15.30 
  -5  -1 -12   22.90    8.20 
   1  -5  12   37.60    8.20 
  -1   5  12   30.70   10.60 
  -5  -1  12   28.90   10.40 
   1  -5  12   36.30    9.10 
  -5  -1  12   24.60   10.10 
  -5   1 -12   37.00    5.70 
  -5   1 -12   43.30   22.90 
  -5   1 -12   21.00    9.80 
  -1  -5 -12    4.30   16.50 
  -1  -5 -12   37.30   13.90 
   5  -1 -12   19.00   11.20 
   5  -1 -12   48.80   16.70 
  -1  -5 -12   54.89   14.30 
   1   5 -12   34.50   15.00 
  -5   1 -12   46.80    6.20 
  -5   1 -12   36.90   22.20 
   5  -1 -12   25.00   20.30 
   1   5 -12   11.10   22.70 
  -1  -5 -12   26.50   23.50 
  -1  -5  12   26.80    9.00 
  -1  -5  12   41.10    9.70 
   1   5  12   41.00   12.60 
  -5   1  12   38.90   10.80 
  -5   1  12   35.10   12.10 
   5  -3 -12  307.57   50.99 
   5  -3 -12  183.78   32.40 
   3   5 -12  246.08   36.00 
  -5   3 -12  272.67   51.29 
   3   5 -12  169.58   39.90 
   3   5 -12  200.18   46.80 
  -3  -5 -12  283.37   52.49 
   5  -3 -12  261.17   38.90 
  -3  -5 -12  250.47   32.60 
   5  -3 -12  331.07   38.60 
  -3  -5 -12  173.88   44.00 
  -5   3 -12  219.18   31.40 
  -5   3 -12  218.68   49.40 
  -3  -5 -12  271.57   38.30 
  -3  -5  12  261.27   30.90 
   3   5  12  224.48   34.20 
   3   5  12  251.77   33.90 
  -5   3  12  232.88   31.00 
  -5   3  12  287.67   45.30 
  -3  -5  12  232.28   32.00 
   5  -5 -12  136.09   43.00 
  -5  -5 -12   30.90   18.60 
  -5   5 -12   34.90   31.20 
  -5  -5 -12   45.20   14.10 
   5   5 -12   68.59   34.60 
  -5  -5 -12   36.30   28.50 
   5  -5 -12   35.60   15.30 
   5  -5 -12  100.39   25.50 
  -5   5 -12   27.00   34.10 
  -5  -5 -12   23.40   23.60 
  -5   5 -12   23.80   17.50 
   5   5 -12   44.50   28.00 
   5  -5 -12   41.00   20.30 
  -5  -5 -12   37.20   27.40 
  -5  -5  12   35.10   11.70 
   5   5  12   40.30   17.90 
   5  -5  12   33.60   19.30 
  -5  -5  12   29.50   10.90 
   5   5  12   38.70   11.20 
  -5   5  12   44.20   13.30 
  -6  -4 -12   14.00   10.60 
  -4   6 -12  -21.20   29.30 
   4  -6 -12    3.40   18.30 
   4  -6 -12    8.10   18.50 
   4  -6 -12    7.00   13.90 
   6   4 -12   -9.50   19.70 
  -6  -4 -12   17.30   24.40 
  -4   6 -12   18.80   18.30 
   6   4 -12   -1.30   14.00 
  -6  -4 -12   13.20   25.10 
   4  -6 -12    9.00   10.40 
   4  -6 -12  -15.70   33.90 
  -6  -4 -12  -17.50   17.30 
  -4   6  12   -3.20    9.60 
   4  -6  12    7.80    9.50 
  -6  -4  12    0.70    8.40 
  -6  -4  12    3.10    9.30 
   6   4  12   -0.50   13.30 
   2  -6 -12   58.49   17.40 
   6   2 -12   62.69   24.20 
   2  -6 -12   36.80   20.80 
  -6  -2 -12   56.39   27.00 
  -6  -2 -12   46.90   11.70 
   6   2 -12   52.29   15.40 
  -6  -2 -12   24.60   24.10 
   6   2 -12   63.19   19.20 
   2  -6 -12  114.49   38.60 
  -2   6 -12   43.20   10.00 
   2  -6 -12   91.59   20.10 
   2  -6 -12   35.20   12.10 
  -6  -2 -12   23.30   12.40 
  -2   6 -12   48.00   19.20 
  -6  -2 -12   33.10    8.30 
  -2   6 -12   52.79   36.20 
  -6  -2 -12   34.90   10.70 
   2  -6  12   52.59    9.60 
  -6  -2  12   58.39   13.10 
  -6  -2  12   38.90   12.00 
   6   2  12   44.00   11.00 
  -2   6  12   50.89   13.70 
   6   0 -12 1748.23  175.38 
  -6   0 -12 1756.12  183.18 
   0   6 -12 1469.85  192.98 
   0  -6 -12 1562.84  174.28 
   6   0 -12 1647.34  181.18 
  -6   0 -12 1546.15  185.48 
  -6   0 -12 1513.65  168.48 
   6   0 -12 1356.46  171.48 
  -6   0 -12 1674.83  166.78 
   0   6 -12 1558.64  175.38 
   0  -6  12 1680.73  169.68 
   6   0  12 1655.53  166.08 
   0  -6  12 1952.00  170.38 
  -6   0  12 1701.73  171.88 
   0   6  12 1663.63  172.78 
   6  -2 -12   34.40   14.70 
   2   6 -12   53.59   15.50 
   2   6 -12   28.20   30.00 
  -2  -6 -12   47.30   29.80 
  -2  -6 -12   38.10   19.80 
  -2  -6 -12   32.40   25.20 
  -2  -6 -12   59.59   14.30 
   6  -2 -12   29.60   17.50 
   6  -2 -12   41.10   26.00 
  -6   2 -12   47.10   26.10 
  -6   2 -12   70.69   28.90 
   2   6 -12   50.99   18.10 
  -2  -6  12   51.69   12.30 
  -2  -6  12   54.59   12.80 
  -6   2  12   39.60   16.60 
   2   6  12   86.59   19.10 
  -6   2  12   39.40   12.10 
  -4  -6 -12  -12.00   23.30 
  -6   4 -12    5.50   12.90 
  -6   4 -12  -18.40   25.40 
   6  -4 -12   20.40   14.30 
  -6   4 -12   -3.00   23.40 
  -4  -6 -12    4.70   27.00 
  -4  -6 -12  -10.20   10.40 
  -4  -6 -12   18.10   17.90 
   4   6 -12   12.50   14.00 
   6  -4 -12   16.00   15.30 
   6  -4 -12  -17.80   30.90 
   6  -4 -12   45.40   20.20 
   4   6 -12  -17.60   24.80 
   4   6 -12  -10.10   17.60 
   4   6  12   18.90   23.40 
   4   6  12   16.80   17.40 
  -6   4  12    9.60   12.50 
  -6   4  12    5.90   10.70 
  -4  -6  12  -10.20    8.90 
  -4  -6  12    6.80    8.80 
   6   6 -12  808.62   88.59 
  -6   6 -12  674.53  110.29 
   6   6 -12  605.24   84.09 
   6  -6 -12  738.03   85.49 
  -6  -6 -12  790.22   82.79 
  -6   6 -12  649.14   88.59 
   6  -6 -12  594.84   82.79 
  -6  -6  12  777.42   80.29 
  -6  -6  12  683.53   79.49 
  -6   6  12  771.02   81.69 
   6   6  12  718.23   84.79 
   6  -6  12  748.83   80.69 
  -5   7 -12   24.30   44.10 
   5  -7 -12   23.40   18.80 
  -7  -5 -12   -3.00   27.80 
   5  -7 -12   10.90   12.60 
  -5   7 -12  -13.60   26.70 
   5  -7 -12   17.30   41.80 
  -7  -5 -12   14.50   13.50 
   7   5 -12   31.20   24.90 
   5  -7 -12  -11.80   24.90 
   7   5 -12   26.40   26.40 
  -7  -5 -12   -5.30   28.50 
   5  -7  12    1.10    9.80 
  -5   7  12    4.80   11.00 
  -7  -5  12    7.10   12.60 
   7   5  12   15.10   17.80 
  -7  -5  12   -6.00   10.70 
   3  -7 -12  365.46   58.49 
  -3   7 -12  484.25   89.99 
   7   3 -12  499.55   70.99 
  -3   7 -12  459.05   76.89 
   3  -7 -12  621.94   58.19 
   7   3 -12  414.86   65.19 
  -7  -3 -12  454.65   54.49 
   7   3 -12  364.66   58.69 
  -7  -3  12  532.55   56.59 
   3  -7  12  571.74   56.89 
  -7  -3  12  467.55   55.19 
  -7  -1 -12   -1.00    5.00 
   1  -7 -12  -22.50   21.10 
  -7  -1 -12   18.20   24.50 
   1  -7 -12    2.50    9.60 
   7   1 -12    7.80   20.00 
   1  -7 -12   19.40   45.60 
  -7  -1 -12    6.10    7.80 
   1  -7 -12   49.30   17.20 
   7   1 -12  -17.60   18.40 
  -7  -1 -12    5.30    5.60 
   7   1 -12  -10.80   12.90 
  -7  -1 -12   19.90   24.30 
  -7  -1  12   -3.10    9.70 
   7   1  12    9.70    7.10 
  -1   7  12   -9.10    9.80 
  -7   1 -12   -4.40   20.60 
   1   7 -12    5.30   19.00 
  -1  -7 -12    2.80   16.30 
  -7   1 -12    4.00    9.10 
   1   7 -12    0.10   12.50 
  -1  -7 -12   18.30   22.80 
  -1  -7 -12   33.20   31.50 
  -1  -7 -12   36.30   13.10 
   7  -1 -12   31.90   26.20 
  -7   1 -12   13.80   21.70 
  -1  -7  12    6.70    7.80 
  -7   1  12   10.70   11.10 
  -1  -7  12   -6.90    8.40 
   1   7  12    7.60   11.90 
  -7   1  12   19.50   10.10 
   3   7 -12  439.06   87.79 
  -7   3 -12  612.84   79.19 
  -3  -7 -12  575.94   61.79 
   7  -3 -12  475.75   61.79 
   3   7 -12  439.86   67.29 
   7  -3 -12  535.15   65.49 
   3   7 -12  460.35   62.99 
  -7   3 -12  522.95   60.29 
  -3  -7 -12  446.36   67.59 
  -7   3 -12  601.44   79.89 
  -7   3  12  480.25   59.49 
  -7   3  12  581.74   61.99 
  -3  -7  12  552.44   59.19 
   3   7  12  501.75   64.89 
  -3  -7  12  476.05   58.79 
  -5  -7 -12    8.20   13.70 
  -7   5 -12   15.40   34.00 
   7  -5 -12  -10.90   16.10 
  -7   5 -12   19.60   34.90 
   7  -5 -12    4.10   22.40 
   7  -5 -12    1.30   20.10 
  -5  -7 -12    0.50   31.40 
   5   7 -12   -0.30   22.50 
  -5  -7 -12   17.90   27.70 
   5   7 -12    1.10   32.80 
   7  -5 -12  -43.10   38.70 
  -7   5 -12    6.00   20.80 
  -7   5  12   -8.80   10.60 
  -7   5  12   -0.70   14.80 
   7  -5  12    2.40    9.50 
   5   7  12   42.90   23.50 
  -5  -7  12    1.90    9.80 
   7   7 -12   13.50   30.00 
  -7   7 -12   59.69   35.00 
  -7  -7 -12   44.70   38.50 
  -7  -7 -12   24.30   37.40 
  -7   7 -12   13.70   49.90 
   7  -7 -12   97.19   55.09 
  -7   7 -12   -0.70   43.50 
   7  -7 -12   14.60   32.90 
   7   7 -12    3.20   38.40 
   7  -7  12   25.90   14.30 
   7   7  12   25.70   28.10 
  -7  -7  12    0.10   12.70 
  -7   7  12    9.30   15.00 
  -8  -6 -12   73.09   41.90 
  -6   8 -12   82.69   47.40 
  -8  -6 -12   68.99   41.20 
  -6   8 -12   71.09   57.89 
   8   6 -12   19.90   29.20 
   8   6 -12   69.49   41.50 
   8   6 -12   68.29   31.30 
   6  -8 -12  165.88   62.29 
   6  -8 -12  117.99   48.00 
  -6   8  12   64.49   19.60 
   6  -8  12   38.10   16.50 
  -8  -6  12   60.19   19.80 
   8   6  12   68.19   30.10 
  -8  -4 -12  103.39   45.60 
   4  -8 -12  187.38   27.90 
  -4   8 -12  151.48   68.79 
   8   4 -12   92.19   36.10 
  -8  -4 -12  188.88   44.10 
  -4   8 -12   88.99   40.70 
  -8  -4 -12  121.69   21.80 
   8   4 -12  151.18   33.00 
   8   4 -12   76.39   26.40 
   4  -8 -12   51.89   25.10 
   4  -8  12  118.89   32.40 
  -4   8  12  115.09   22.80 
  -8  -4  12  156.58   24.80 
  -8  -4  12  114.59   22.00 
   8   4  12   74.19   21.50 
   2  -8 -12  118.29   22.80 
   2  -8 -12  162.08   31.50 
  -2   8 -12  170.48   39.30 
  -8  -2 -12  135.59   19.00 
   8   2 -12  129.29   27.50 
  -8  -2 -12   79.49   37.20 
  -8  -2 -12  203.08   43.40 
   8   2 -12  157.38   37.40 
  -8  -2  12  180.68   25.50 
  -2   8  12  149.19   25.80 
   8   2  12  105.19   18.50 
   2  -8  12  129.29   22.70 
  -8  -2  12  107.79   21.90 
   8   0 -12   64.59   26.60 
   8   0 -12  112.79   23.30 
   0   8 -12  151.78   33.30 
  -8   0 -12   74.29   35.30 
   0  -8 -12  117.09   21.00 
  -8   0 -12   71.99   11.50 
   0  -8 -12  145.49   37.30 
  -8   0 -12  139.99   38.60 
   0  -8 -12   85.09   25.60 
   8   0 -12  152.88   38.80 
   0  -8 -12  203.68   49.99 
  -8   0  12  107.39   20.50 
   0  -8  12   91.39   17.90 
   0   8  12   96.39   22.90 
  -8   0  12  101.89   19.00 
   8  -2 -12  119.29   27.30 
   2   8 -12  110.69   32.70 
  -8   2 -12  264.27   48.00 
  -2  -8 -12  171.28   27.30 
  -8   2 -12  150.68   46.30 
  -2  -8 -12  242.08   54.29 
   8  -2 -12  264.37   38.80 
  -2  -8 -12  179.18   44.70 
   8  -2 -12  160.38   47.80 
  -2  -8 -12  134.99   31.10 
  -8   2 -12  125.69   23.00 
   2   8  12  126.59   28.70 
  -2  -8  12  165.48   27.70 
  -8   2  12  105.69   22.90 
  -8   2  12  161.98   27.10 
  -4  -8 -12  153.08   27.50 
  -4  -8 -12  213.78   51.79 
  -8   4 -12  205.28   55.19 
  -8   4 -12  123.69   29.10 
   8  -4 -12  121.99   28.10 
   4   8 -12  120.49   38.10 
  -8   4 -12  170.08   48.60 
  -4  -8  12  124.69   24.70 
   4   8  12  159.78   36.00 
  -8   4  12  154.18   28.60 
   6   8 -12   77.79   33.10 
  -8   6 -12  111.79   52.59 
  -8   6 -12   27.30   32.50 
  -6  -8 -12   70.69   42.40 
  -8   6 -12   95.69   62.79 
   6   8  12   39.70   29.60 
  -6  -8  12   40.20   16.90 
  -8   6  12   43.10   18.40 
   8  -6  12   63.19   17.80 
   5  -9 -12  135.09   43.10 
   9   5 -12   73.39   32.00 
  -9  -5 -12   60.69   43.80 
  -5   9 -12   10.50   57.59 
   9   5 -12   72.19   32.50 
  -5   9 -12   73.89   44.30 
  -9  -5 -12   63.69   41.70 
   5  -9 -12   68.39   49.70 
   9   5 -12   21.30   37.80 
  -9  -5  12   44.70   18.80 
  -5   9  12   16.30   17.40 
   5  -9  12   38.30   15.80 
  -9  -5  12   22.90   14.70 
   9   3 -12   88.29   36.10 
   3  -9 -12   52.99   26.20 
   9   3 -12   21.90   26.70 
   3  -9 -12  132.59   53.59 
   3  -9 -12   70.29   22.20 
  -9  -3 -12   46.60   13.60 
  -3   9 -12   33.00   35.80 
   9   3 -12   32.10   26.10 
   3  -9 -12  147.49   41.40 
  -9  -3 -12   66.79   36.50 
  -9  -3  12   71.29   18.80 
   3  -9  12   84.39   18.10 
  -3   9  12   78.79   21.70 
   9   1 -12  177.78   45.10 
  -9  -1 -12  145.89   48.30 
   9   1 -12   87.69   28.40 
   9   1 -12  274.07   44.40 
  -9  -1 -12  129.49   18.10 
  -1   9 -12  151.38   48.60 
  -9  -1 -12  179.48   44.60 
   1  -9 -12  246.18   50.89 
   1  -9 -12  172.98   28.40 
   1  -9 -12  133.49   33.20 
  -9  -1  12  172.48   24.70 
  -1   9  12  187.18   31.60 
   1  -9  12   98.49   22.30 
  -9  -1  12  225.58   29.90 
   9  -1 -12  291.87   66.89 
   9  -1 -12  229.98   52.99 
  -1  -9 -12  136.09   34.20 
  -9   1 -12  164.58   22.40 
  -9   1 -12  195.08   45.70 
  -1  -9 -12  248.18   52.29 
   1   9 -12  174.28   44.50 
  -1  -9 -12  135.69   27.40 
  -9   1  12  173.48   32.60 
  -1  -9  12  143.69   25.90 
   1   9  12  170.58   33.50 
  -9   3 -12   56.29   21.80 
  -3  -9 -12   56.19   20.10 
  -3  -9 -12  105.79   46.20 
   9  -3 -12   80.89   25.30 
   3   9 -12   36.80   31.60 
  -9   3 -12   98.79   46.00 
   9  -3 -12  194.98   60.29 
   9  -3 -12  100.69   27.10 
   9  -3 -12  159.08   37.20 
  -3  -9 -12  100.89   42.60 
  -9   3 -12  163.98   42.80 
   3   9  12   95.69   27.70 
  -9   3  12   80.19   19.50 
  -9   3  12   73.39   22.50 
  -3  -9  12   56.29   18.90 
  -9   5 -12  110.79   47.70 
  -5  -9 -12   53.09   46.80 
  -5  -9 -12   74.99   44.50 
  -9   5 -12   58.29   31.70 
   9  -5 -12  108.39   62.29 
  -9   5 -12   86.79   50.99 
   5   9 -12  124.09   38.70 
   9  -5 -12   59.89   33.00 
  -9   5  12   22.80   16.90 
   9  -5  12   53.99   20.00 
 -10  -4 -12  242.18   56.29 
  -4  10 -12  264.97   71.79 
  10   4 -12  149.88   53.09 
 -10  -4 -12  255.57   61.99 
  10   4 -12  260.87   53.09 
  -4  10  12  190.28   49.50 
  -2  10 -12  107.79   47.10 
 -10  -2 -12  185.08   46.00 
   2 -10 -12  122.99   27.10 
 -10  -2 -12  130.79   18.60 
  10   2 -12  103.39   48.80 
   2 -10 -12   55.79   35.70 
  10   2 -12  133.79   49.60 
  10   2 -12  189.88   45.60 
   2 -10  12  145.79   24.80 
  -2  10  12  144.79   30.70 
 -10  -2  12  118.39   23.20 
  10   0 -12   16.80   34.80 
   0 -10 -12   -6.10   41.00 
 -10   0 -12   40.60   45.50 
   0 -10 -12   22.20   36.70 
  10   0 -12   31.80   33.00 
 -10   0 -12   63.49   39.00 
   0 -10 -12    8.00   27.20 
   0 -10 -12   20.40   16.70 
   0  10 -12   -7.90   33.20 
  10   0 -12   28.60   48.40 
 -10   0  12    5.00   11.50 
   0  10  12   24.90   21.10 
   0 -10  12   27.50   17.00 
 -10   2 -12  196.58   53.09 
  10  -2 -12  248.28   46.80 
 -10   2 -12  107.39   52.69 
   2  10 -12  151.98   45.50 
  -2 -10 -12  217.48   54.39 
 -10   2  12  112.29   25.10 
   2  10  12  201.58   41.40 
  -2 -10  12  101.09   25.40 
  -4 -10 -12  386.86   70.29 
   4  10 -12  181.48   56.59 
 -10   4 -12  348.47   62.59 
 -10   4 -12  241.78   69.69 
 -10   4 -12  128.99   37.40 
   4  10  12  157.98   44.80 
  -4 -10  12  175.38   32.20 
 -10   4  12  158.78   46.90 
   1 -11 -12   -6.10   49.70 
   1 -11 -12   -9.90   43.00 
 -11  -1 -12  -12.70   52.19 
  11   1 -12   37.10   38.30 
  -1  11 -12   14.50   49.30 
  -1  11  12  -54.59   27.20 
 -11  -1  12   15.60   15.50 
   1 -11  12    2.60   12.00 
 -11   1 -12   11.90   56.59 
  -1 -11 -12   14.80   49.90 
  -1 -11 -12   23.50   41.90 
   1  11 -12   -0.30   46.20 
  11  -1 -12  -23.80   42.30 
   1  11  12   28.60   25.90 
 -11   1  12    5.30   13.50 
  -1   0 -13    3.60    6.30 
  -1   0 -13    3.50   15.60 
   1   0 -13    7.70    7.40 
   1   0 -13    7.70    9.80 
  -1   0 -13    2.70    9.30 
   0   1 -13  -18.00    7.80 
   0  -1 -13   -8.30   10.30 
   0  -1 -13   14.70    9.90 
   0   1 -13   -1.50    6.70 
  -1   0 -13    2.00   14.50 
   1   0 -13   -2.40    7.70 
  -1   0 -13    0.10    7.30 
   0  -1 -13   45.90   20.70 
   1   0 -13    3.60   14.00 
   0  -1 -13   14.70   16.50 
   0  -1 -13    1.80    7.10 
   0   1 -13    1.90    9.60 
   0   1 -13   24.30   16.40 
   0   1  13    6.40    6.00 
   0  -1  13   -0.50    5.10 
  -1   0  13   -2.40    5.10 
   1   0  13   -0.70    5.00 
   1   0  13    8.90    6.20 
   0   1  13   -0.20    5.40 
   0  -1  13   -1.10    5.60 
  -2  -1 -13   -3.70   10.10 
   2   1 -13   -3.20   14.60 
  -2  -1 -13    3.40    9.20 
  -2  -1 -13   12.20    7.20 
   2   1 -13    5.00   10.80 
   1  -2 -13   13.70    9.30 
  -1   2 -13   14.90   10.30 
   1  -2 -13   12.70   13.10 
  -1   2 -13   17.10    9.30 
   2   1 -13    0.20    7.40 
  -2  -1 -13    3.00   15.30 
  -1   2 -13   28.20   21.20 
  -2  -1 -13   23.80   18.40 
   1  -2 -13    9.50   14.50 
   1  -2 -13   16.80   10.10 
   2   1 -13    4.40   12.00 
   1  -2 -13   38.50   21.20 
  -2  -1  13   48.50   12.30 
  -1   2  13    7.70    7.40 
  -1   2  13   14.00    7.90 
  -2  -1  13   23.30    8.60 
   1  -2  13   16.00    6.00 
   1  -2  13   -9.40    5.20 
   2   1  13    7.20    6.70 
   1   2 -13    5.60    7.70 
   2  -1 -13   34.70   21.00 
  -1  -2 -13   11.20   10.70 
  -1  -2 -13    8.90   17.20 
   2  -1 -13    7.80    9.90 
  -1  -2 -13   -9.90    6.60 
   1   2 -13    4.10   10.20 
   2  -1 -13    0.10    8.40 
   1   2 -13    3.80   14.00 
  -2   1 -13    8.50   16.30 
  -2   1 -13    6.30    8.30 
  -1  -2 -13   18.10    9.70 
  -1  -2 -13    9.10   10.90 
   1   2 -13    1.60    9.90 
   2  -1 -13   -7.40   12.10 
  -1  -2 -13    7.30   11.70 
  -2   1 -13    8.70   17.50 
  -2   1 -13   -0.20    8.10 
  -2   1  13    7.90    7.60 
   1   2  13   14.20    7.20 
  -1  -2  13    1.50    6.40 
   2  -1  13    9.10    6.00 
  -1  -2  13   10.80    6.10 
   2  -1  13   11.90    5.20 
  -2   1  13    9.10    7.20 
  -2   3 -13   29.30    7.40 
  -3  -2 -13   21.00   12.60 
   2  -3 -13   30.30   13.40 
   3   2 -13   13.20    9.80 
   3   2 -13   15.00   18.50 
   2  -3 -13    4.00   19.70 
  -3  -2 -13   33.40   10.90 
   2  -3 -13   20.60   17.10 
  -3  -2 -13   17.90   15.30 
  -3  -2 -13   35.50   22.20 
  -3  -2 -13   -1.00   10.00 
   2  -3 -13   10.70   10.80 
  -3  -2 -13   28.20   10.40 
  -2   3 -13   19.20   20.30 
   3   2 -13   37.60   14.10 
  -2   3 -13   11.50   10.80 
   3   2  13   20.50   12.30 
  -3  -2  13   16.90    8.70 
  -2   3  13   17.10    9.80 
  -2   3  13   11.80    8.40 
   2  -3  13   22.90    6.00 
   3   2  13   38.60   11.20 
   3   0 -13   -8.10   10.90 
   0  -3 -13   11.10   11.50 
   0  -3 -13    8.10   13.60 
  -3   0 -13   -1.80   16.10 
   3   0 -13   16.10   18.00 
   0  -3 -13   -5.70    7.00 
  -3   0 -13  -21.40    8.40 
   3   0 -13   -6.90    7.60 
  -3   0 -13    6.70    7.10 
   0  -3 -13   17.60   22.60 
   0  -3 -13   12.10   11.40 
   0   3 -13   14.00   16.40 
   0   3 -13    9.80    9.60 
  -3   0 -13   -3.60    8.20 
   0   3 -13   -5.40    6.40 
   0  -3 -13    5.80   12.40 
  -3   0 -13    6.00   18.80 
   0  -3  13   -1.60    5.80 
   0  -3  13   10.20    5.60 
  -3   0  13   12.90    7.40 
   3   0  13    4.70   10.30 
  -3   0  13   -0.30    6.30 
   3   0  13    5.70    6.80 
   0   3  13   -0.90    8.20 
  -2  -3 -13   41.40   23.40 
  -3   2 -13   13.60    9.70 
   2   3 -13   20.50   10.20 
   3  -2 -13   42.60   22.00 
  -2  -3 -13    2.60    9.60 
   3  -2 -13   46.90   12.70 
  -3   2 -13    9.40   19.70 
  -2  -3 -13   18.00    9.20 
  -2  -3 -13    7.80   16.10 
   2   3 -13   19.60   18.70 
  -3   2 -13   13.20    6.60 
   3  -2 -13   34.80   13.90 
  -2  -3 -13    3.50   10.10 
   2   3 -13   23.40   12.20 
   3  -2 -13   30.80   18.10 
  -3   2 -13   14.40    5.80 
  -3   2 -13   37.70   24.60 
  -2  -3 -13   24.20   15.30 
  -3   2  13   15.20    8.60 
  -2  -3  13   21.90    8.50 
   3  -2  13   10.20    5.80 
  -2  -3  13   38.50    9.60 
  -3   2  13    8.90    7.80 
   2   3  13   21.60    9.50 
   4   3 -13    7.50   11.40 
  -4  -3 -13    5.30    8.60 
  -4  -3 -13    1.40    9.70 
   3  -4 -13    4.50   11.20 
  -3   4 -13   -3.00   24.70 
  -4  -3 -13   23.30   10.60 
  -4  -3 -13    1.80   17.90 
   4   3 -13    8.10   13.10 
  -3   4 -13   -5.90   10.40 
   4   3 -13    5.40   16.40 
   3  -4 -13    0.50   15.30 
  -4  -3 -13   -8.10   23.10 
  -4  -3 -13  -11.70   13.40 
  -3   4 -13   -3.20    4.30 
   3  -4 -13   11.70   27.20 
   3  -4 -13   -4.90   13.30 
   4   3  13   -2.40   11.60 
   4   3  13   13.60   10.90 
  -4  -3  13    0.60    8.00 
  -4  -3  13   17.20    9.20 
   3  -4  13    5.10    4.00 
  -3   4  13  -16.80    7.70 
  -1   4 -13   69.29   16.70 
   4   1 -13   82.39   18.60 
   1  -4 -13   55.69   26.90 
  -1   4 -13   62.99   28.90 
  -4  -1 -13   49.40   23.40 
  -4  -1 -13   43.90   12.70 
   4   1 -13   39.30   22.90 
   1  -4 -13   42.60   14.20 
  -4  -1 -13   38.80   11.40 
   1  -4 -13   72.59   16.90 
  -4  -1 -13   38.20   12.40 
   1  -4 -13   48.70   12.80 
   4   1 -13   38.50   13.00 
  -4  -1 -13   48.90   24.50 
   4   1  13   38.20   11.60 
  -4  -1  13   63.29   19.80 
   1  -4  13   61.59   10.80 
  -4  -1  13   50.99   12.80 
   1  -4  13   43.00    9.00 
   4   1  13   57.09   12.80 
  -1   4  13   66.19   14.50 
  -1  -4 -13   56.79   13.70 
  -4   1 -13   35.50   10.20 
  -1  -4 -13   77.29   16.20 
  -1  -4 -13   44.30   20.80 
  -1  -4 -13   71.49   30.60 
   1   4 -13   35.60   22.80 
   1   4 -13   49.90   17.20 
   4  -1 -13   74.19   16.00 
  -4   1 -13   32.60   24.30 
   4  -1 -13   63.19   17.70 
  -4   1 -13   60.09   13.30 
  -1  -4 -13   62.29   16.80 
  -4   1 -13   44.40   23.60 
  -4   1 -13   50.59   10.60 
  -4   1 -13   47.00    8.90 
   4  -1 -13   51.79   25.10 
   1   4  13   59.59   16.00 
  -4   1  13   75.59   14.50 
  -4   1  13   45.30   12.40 
  -1  -4  13   48.40   11.50 
   4  -1  13   51.19    9.00 
  -1  -4  13   83.89   13.60 
  -3  -4 -13   -0.10   20.50 
  -4   3 -13    2.10    2.50 
   4  -3 -13    9.00   25.00 
  -3  -4 -13    8.60    9.10 
   4  -3 -13   -4.20   13.20 
  -3  -4 -13   19.90   10.60 
   3   4 -13   -0.80   20.30 
   4  -3 -13    2.00   16.10 
  -4   3 -13   10.40   21.20 
   3   4 -13   12.70   13.40 
   4  -3 -13   17.10   11.80 
  -3  -4 -13   -1.60   18.40 
  -4   3 -13   10.50   23.10 
  -4   3 -13    1.50    3.50 
  -3  -4 -13  -13.90   17.00 
  -4   3 -13   23.70   11.40 
  -4   3  13    4.80    9.30 
  -3  -4  13   12.80    8.20 
   3   4  13   13.80   12.10 
   3   4  13    9.00   14.20 
  -3  -4  13   -3.40    7.30 
  -4   3  13    4.10    8.40 
  -4   5 -13   30.40   33.50 
  -5  -4 -13   18.80   23.20 
  -5  -4 -13   55.79   30.00 
   5   4 -13   50.99   24.40 
  -4   5 -13   44.70   18.90 
   4  -5 -13   33.90   16.20 
  -5  -4 -13   42.50   13.80 
  -5  -4 -13   26.60   19.30 
   4  -5 -13   44.70   21.00 
  -5  -4 -13   19.10   18.90 
  -5  -4  13   34.10   12.00 
  -4   5  13   39.40   13.00 
  -5  -4  13   35.40   11.40 
   5   4  13   43.10   11.30 
   5   4  13   27.60   14.80 
   2  -5 -13  -15.10   13.10 
  -5  -2 -13    0.00   19.60 
   5   2 -13   -4.60   11.60 
   5   2 -13   -1.20   13.80 
   2  -5 -13   22.00   13.90 
  -2   5 -13   21.50   29.60 
  -5  -2 -13   11.10    8.30 
  -2   5 -13   -3.70    5.90 
  -5  -2 -13   -2.50    8.70 
   2  -5 -13   11.50   15.80 
   2  -5 -13    4.60    9.50 
  -5  -2 -13   11.10   23.20 
   5   2 -13    3.50   16.40 
   2  -5 -13    7.70   23.00 
  -2   5 -13   -7.00   11.10 
  -5  -2  13   -9.60    8.30 
   2  -5  13    1.10    5.10 
   5   2  13    9.90    9.00 
  -5  -2  13    7.10    8.30 
   5   2  13   19.90   14.60 
  -2   5  13   58.29   13.40 
   5   0 -13    7.90   10.70 
   5   0 -13   15.40   13.30 
  -5   0 -13    3.00    8.00 
  -5   0 -13   11.50   20.20 
   0  -5 -13    6.10    9.00 
   0   5 -13    6.40   21.90 
   0  -5 -13   -7.70   24.30 
  -5   0 -13    4.20    8.60 
   0   5 -13   12.10   12.00 
   0  -5 -13    3.00   12.40 
   0  -5 -13    9.20   13.40 
   0  -5 -13    9.40   16.00 
  -5   0 -13   -0.10   19.70 
   5   0 -13   -8.80   18.60 
  -5   0  13   -1.60    7.00 
   0  -5  13   -5.40    6.10 
   5   0  13   -3.10    5.50 
  -5   0  13   -1.40    8.20 
   0   5  13    6.50    9.40 
   0  -5  13   -3.00    7.30 
   5  -2 -13   -2.80   10.50 
  -2  -5 -13    1.50   19.80 
  -5   2 -13    5.30    8.90 
  -5   2 -13    3.70   22.50 
  -2  -5 -13    6.50   10.10 
   5  -2 -13   20.10   23.30 
   2   5 -13   15.50   13.80 
  -2  -5 -13   -6.70   21.20 
  -5   2 -13   18.00   22.90 
   2   5 -13   21.00   11.50 
   5  -2 -13   -7.70   13.50 
   2   5 -13   -0.30   19.80 
  -2  -5 -13   -4.20    9.20 
   2   5  13    0.00   10.10 
  -5   2  13    1.20    9.50 
  -2  -5  13    0.80    8.00 
  -5   2  13   16.10    8.80 
  -2  -5  13    5.50    8.60 
   5  -4 -13   63.79   20.80 
  -4  -5 -13   37.70   17.90 
  -5   4 -13   30.80   33.00 
  -4  -5 -13   25.20   27.50 
   5  -4 -13   47.20   16.70 
  -4  -5 -13   20.60   24.60 
  -5   4 -13   24.00   15.40 
  -4  -5 -13   36.30   26.90 
   4   5 -13   32.50   15.10 
   4   5 -13    7.80   26.20 
   5  -4 -13   53.79   21.60 
   5  -4 -13   76.69   34.80 
  -5   4 -13   -0.50   27.50 
  -4  -5 -13   45.40   14.00 
   4   5 -13   16.30   19.50 
   4   5  13   45.70   19.60 
   4   5  13   52.19   21.10 
  -5   4  13   54.29   16.30 
  -5   4  13   51.39   13.30 
  -4  -5  13   46.90   11.90 
  -4  -5  13   23.90   10.80 
  -6  -5 -13  -12.80   28.90 
   5  -6 -13    7.80   22.00 
  -6  -5 -13   41.90   37.70 
  -5   6 -13   20.40   30.40 
   6   5 -13   29.30   42.40 
   6   5 -13   35.60   23.70 
   5  -6 -13   35.00   15.10 
   5  -6 -13   42.40   41.40 
  -6  -5 -13   22.70   14.40 
   5  -6 -13   35.00   21.30 
   5  -6 -13    8.10   18.20 
   6   5 -13   46.10   20.00 
  -5   6 -13   29.10   44.40 
  -6  -5  13   27.90   13.00 
  -5   6  13   15.00   11.70 
  -6  -5  13   12.20   11.80 
   6   5  13   17.50   19.10 
  -6  -3 -13   13.30   27.30 
   3  -6 -13   11.90   11.30 
   6   3 -13    4.70   22.00 
  -6  -3 -13    4.90   10.00 
   6   3 -13   -0.20   17.10 
  -3   6 -13    4.10   15.60 
   3  -6 -13  -17.90   14.40 
   6   3 -13    1.90   14.20 
  -3   6 -13    6.70    7.20 
  -6  -3 -13   -6.30   22.40 
   3  -6 -13    9.10   20.00 
  -6  -3 -13    1.90   14.20 
   3  -6  13    8.90    5.50 
  -6  -3  13    6.30    9.80 
  -3   6  13   17.10   10.90 
  -6  -3  13   -0.70    8.40 
   6   3  13    3.20   11.90 
  -6  -1 -13   14.30    7.30 
   1  -6 -13   39.00   17.30 
   1  -6 -13  -10.70   14.30 
  -6  -1 -13    6.50    9.60 
  -6  -1 -13   27.10    9.30 
   1  -6 -13   22.90   21.50 
  -1   6 -13   46.70   18.00 
   6   1 -13   12.60   16.90 
   1  -6 -13   13.10   56.39 
  -1   6 -13   23.20    9.70 
   1  -6 -13    8.20   10.60 
   6   1 -13   20.10   13.30 
  -6  -1 -13   33.90   24.70 
  -6  -1 -13   12.60   22.20 
   6   1 -13   30.10   22.90 
  -6  -1 -13   33.90    8.90 
   1  -6  13   29.50    9.00 
   1  -6  13   31.20   10.50 
  -6  -1  13   11.30    9.70 
  -1   6  13   19.00   11.30 
   6   1  13   18.40    8.30 
   6  -1 -13   46.60   27.50 
  -6   1 -13   34.10   26.20 
  -6   1 -13   17.80   10.80 
   6  -1 -13   18.50   13.80 
   1   6 -13   68.49   57.89 
  -1  -6 -13   56.79   28.40 
  -1  -6 -13   12.50   11.60 
  -6   1 -13    4.40   25.80 
   1   6 -13   12.10   11.10 
  -6   1  13   30.20   11.50 
  -1  -6  13   19.80   10.70 
  -1  -6  13   22.30    9.20 
  -6   1  13   29.00   11.90 
   1   6  13   19.80   12.40 
   3   6 -13    1.80   13.70 
  -3  -6 -13   19.60   25.50 
   3   6 -13   29.60   35.10 
   6  -3 -13   17.90   28.30 
  -6   3 -13    7.30   12.20 
  -3  -6 -13    8.80   27.00 
  -3  -6 -13    5.20   10.90 
  -3  -6 -13   30.20   20.00 
  -6   3 -13   11.90   27.70 
   3   6 -13    6.10   18.20 
   6  -3 -13   -2.20   16.70 
   6  -3 -13    9.50   18.00 
   6  -3 -13   15.50   13.80 
  -6   3 -13   -7.30   24.30 
  -6   3  13   11.00    9.60 
   3   6  13   39.90   15.90 
  -3  -6  13   16.30    9.70 
  -6   3  13   27.10   13.20 
  -3  -6  13    4.90   10.50 
   6  -5 -13    5.70   21.40 
   5   6 -13    6.00   18.60 
   6  -5 -13    4.20   19.80 
  -6   5 -13   49.50   36.10 
  -6   5 -13    9.10   37.70 
  -5  -6 -13    3.50   30.70 
   5   6 -13   32.20   21.70 
  -5  -6 -13   -3.50   29.30 
  -5  -6 -13    4.10   13.70 
   6  -5 -13   63.69   40.70 
   6  -5 -13   34.30   18.00 
   5   6 -13   22.40   32.70 
  -6   5 -13    4.70   18.50 
  -5  -6  13   17.80   11.10 
   5   6  13   26.80   19.70 
  -6   5  13   15.00   11.50 
   5   6  13    3.90   19.30 
  -6   5  13   43.20   17.30 
  -5  -6  13   13.80   12.10 
  -6   7 -13   17.20   28.40 
   6  -7 -13  -25.40   23.70 
   6  -7 -13   23.90   49.30 
   7   6 -13   -1.00   35.60 
  -6   7 -13    4.30   51.39 
   7   6 -13   -2.80   29.10 
  -7  -6 -13    9.40   36.20 
  -7  -6 -13  -11.70   33.50 
  -6   7 -13   42.90   43.40 
   6  -7 -13    1.40   30.30 
   6  -7 -13  -20.10   17.10 
  -6   7  13   -4.30   13.40 
  -7  -6  13   -0.10   12.30 
   6  -7  13   -7.50   12.20 
  -7  -4 -13   99.09   38.10 
  -7  -4 -13   56.19   16.70 
   4  -7 -13   81.39   31.30 
   7   4 -13   46.20   24.20 
  -4   7 -13  111.09   34.40 
   4  -7 -13   88.59   20.20 
  -4   7 -13   84.99   48.10 
   4  -7 -13   36.80   22.50 
   7   4 -13   82.19   34.00 
  -7  -4 -13   34.40   33.60 
  -7  -4  13   59.09   15.70 
   4  -7  13   81.19   17.80 
   7   4  13   64.49   18.90 
  -7  -2 -13   68.89   13.20 
   2  -7 -13  138.49   45.10 
   2  -7 -13   42.10   21.20 
  -7  -2 -13   51.49   32.30 
   2  -7 -13   79.69   18.10 
   2  -7 -13   81.29   32.20 
  -2   7 -13   80.09   48.80 
   7   2 -13   77.39   23.80 
   7   2 -13   71.29   29.90 
  -2   7 -13   60.09   24.40 
  -7  -2 -13   21.70   12.70 
   7   2 -13   31.40   18.90 
  -7  -2 -13   19.20   31.30 
  -2   7  13   65.49   16.90 
  -7  -2  13   50.69   14.40 
  -7  -2  13   87.69   17.40 
   7   0 -13  -16.90   14.10 
   0  -7 -13   16.80   12.00 
   7   0 -13    1.00   25.60 
   0   7 -13    8.50   40.40 
   7   0 -13   -6.30   18.00 
  -7   0 -13   14.40   26.70 
  -7   0 -13    2.10    9.30 
   0  -7 -13   -3.10   22.00 
   0  -7 -13   -5.50   31.40 
  -7   0 -13    0.60    5.90 
   0   7 -13   -3.50   19.30 
  -7   0 -13  -10.90   23.50 
  -7   0  13   14.00   10.40 
   0  -7  13   15.00    9.70 
   0   7  13   26.60   13.40 
  -7   0  13    3.10   10.50 
   7  -2 -13   59.59   18.90 
  -2  -7 -13   46.20   15.70 
  -2  -7 -13   80.29   31.70 
  -2  -7 -13  115.09   44.30 
   7  -2 -13   64.49   24.10 
  -2  -7 -13   10.20   21.20 
  -7   2 -13   43.90   31.40 
  -7   2 -13   60.09   34.90 
   2   7 -13   52.69   23.60 
   7  -2 -13   52.19   34.90 
   2   7 -13   10.50   34.90 
  -7   2 -13   56.59   15.40 
  -7   2  13   83.39   18.10 
  -7   2  13   79.69   17.00 
   2   7  13   31.40   19.20 
  -2  -7  13   57.49   14.70 
   7  -4 -13   35.00   20.40 
   4   7 -13   20.60   34.50 
   7  -4 -13  129.19   29.10 
   7  -4 -13   77.19   41.60 
   4   7 -13   84.99   27.40 
  -7   4 -13   65.49   37.40 
  -7   4 -13   74.79   41.40 
   7  -4 -13   86.09   25.50 
  -4  -7 -13   88.39   36.90 
  -4  -7 -13   81.09   19.90 
  -7   4 -13   33.30   20.80 
  -4  -7 -13  155.68   47.90 
  -7   4  13   72.09   20.00 
   4   7  13   42.30   24.70 
  -4  -7  13   49.80   16.10 
  -7   4  13   68.59   16.80 
   7  -6 -13    4.70   44.50 
   7  -6 -13  -37.70   44.20 
  -6  -7 -13    6.40   34.70 
  -7   6 -13    6.90   46.70 
   7  -6 -13   -0.70   24.40 
   7  -6 -13  -13.40   22.90 
  -6  -7 -13  -15.40   33.80 
  -7   6 -13    7.30   42.60 
  -7   6 -13  -20.40   28.00 
   6   7 -13    7.30   36.50 
   6   7  13   -3.00   25.10 
   7  -6  13   13.10   13.00 
  -7   6  13    7.10   13.50 
  -6  -7  13   14.60   12.70 
   8   7 -13   75.19   42.40 
  -7   8 -13   60.69   45.40 
   7  -8 -13  152.38   71.79 
  -8  -7 -13   54.19   45.90 
  -7   8 -13   12.30   65.19 
   8   7 -13   27.10   49.20 
  -7   8 -13   65.49   56.19 
  -8  -7 -13   78.69   51.19 
   7  -8  13   48.70   18.10 
  -8  -7  13   39.00   18.90 
  -7   8  13   41.60   20.00 
   5  -8 -13   64.09   37.80 
   8   5 -13   43.40   37.40 
   8   5 -13   22.10   26.40 
   5  -8 -13   73.69   55.29 
  -8  -5 -13  -11.00   40.40 
  -5   8 -13  -27.00   33.10 
  -5   8 -13  -48.20   76.19 
   5  -8 -13   14.30   18.30 
  -8  -5 -13  -22.70   34.70 
   8   5 -13   33.90   29.10 
   5  -8 -13    3.20   26.30 
  -5   8  13   27.90   16.20 
   5  -8  13   12.50   12.30 
   8   5  13   22.70   24.30 
  -8  -5  13   10.40   13.80 
  -8  -5  13   13.20   16.10 
   8   3 -13  -13.40   21.80 
   3  -8 -13    4.00   59.29 
  -3   8 -13   -0.70   52.39 
   8   3 -13  -12.30   21.90 
  -8  -3 -13   -3.80   10.30 
  -3   8 -13   21.20   32.70 
  -8  -3 -13   20.20   32.40 
   8   3 -13   16.40   29.80 
   3  -8 -13   -1.60   14.00 
   3  -8 -13   22.50   22.10 
  -8  -3 -13    4.20   36.10 
   3  -8 -13   14.00   30.60 
  -3   8  13   10.30   13.40 
   3  -8  13   -7.00   10.80 
   8   3  13   28.20   20.30 
  -8  -3  13  -12.40   10.80 
  -8  -3  13   13.20   13.20 
   1  -8 -13   45.00   37.30 
  -1   8 -13   22.20   52.89 
  -8  -1 -13   48.40   33.40 
   8   1 -13   36.60   18.40 
  -8  -1 -13    9.60    8.10 
   8   1 -13   -5.60   29.70 
  -8  -1 -13    7.90   32.80 
   8   1 -13   13.10   25.00 
   1  -8 -13   30.50   14.50 
  -1   8 -13   12.10   23.80 
   1  -8 -13   26.30   28.30 
  -8  -1 -13   -2.50   13.30 
  -1   8  13   -1.80   14.20 
  -8  -1  13   33.60   15.50 
   1  -8  13    2.90   17.30 
  -8  -1  13    2.30   12.10 
   8  -1 -13   10.40   16.90 
  -1  -8 -13    9.70   14.00 
  -1  -8 -13    7.70   23.50 
  -8   1 -13   21.40   12.10 
   1   8 -13   48.50   26.40 
   8  -1 -13   38.70   24.40 
  -8   1 -13   11.60   30.10 
  -8   1 -13   23.80   34.90 
   1   8 -13   -0.70   47.80 
  -1  -8 -13   12.50   31.90 
  -1  -8 -13   29.40   33.50 
   8  -1 -13  -22.00   33.80 
  -8   1  13   16.80   10.90 
  -8   1  13   21.40   14.40 
   1   8  13   47.60   17.90 
  -1  -8  13    0.10   12.60 
  -3  -8 -13  -13.10   14.10 
   8  -3 -13  -16.40   25.80 
  -8   3 -13   34.70   34.00 
  -8   3 -13   38.40   39.10 
   3   8 -13    9.00   23.20 
   8  -3 -13   21.70   19.80 
  -8   3 -13   15.40   16.40 
   8  -3 -13  -11.30   42.20 
  -3  -8 -13   21.10   40.80 
   8  -3 -13  -11.50   19.70 
  -3  -8  13   -8.90   11.90 
  -8   3  13   17.70   16.90 
   3   8  13   17.20   21.00 
   8  -5 -13   45.70   27.70 
   5   8 -13   18.30   48.50 
   8  -5 -13   -2.90   27.10 
  -5  -8 -13  -28.40   34.40 
  -8   5 -13   32.90   27.00 
   5   8 -13   21.70   32.80 
  -5  -8 -13   23.00   38.80 
  -8   5 -13   14.90   43.70 
  -8   5 -13    9.10   52.09 
   5   8  13  -18.70   28.10 
  -8   5  13    1.50   12.70 
  -5  -8  13   11.20   15.00 
   8  -7 -13  122.29   73.89 
  -7  -8 -13   59.59   46.90 
   7   8 -13   87.89   56.39 
   7   8 -13   26.20   37.50 
  -7  -8 -13  101.49   49.20 
  -8   7 -13   78.69   47.40 
  -8   7 -13   45.60   60.29 
   7   8  13   76.09   39.60 
   8  -7  13   49.00   21.10 
  -7  -8  13   67.89   20.50 
  -8   7  13   36.70   19.10 
  -9  -6 -13   -2.20   44.00 
   9   6 -13   -7.10   47.20 
  -6   9 -13  -59.29   66.49 
  -9  -6 -13   21.00   46.90 
   6  -9 -13   35.20   56.89 
   9   6 -13  -42.40   34.90 
  -6   9 -13  -43.10   50.59 
  -6   9 -13   15.80   51.89 
  -6   9  13   13.40   19.00 
  -9  -6  13   16.10   15.50 
   4  -9 -13   10.50   40.50 
  -9  -4 -13   45.90   48.30 
   4  -9 -13   31.20   39.00 
   9   4 -13  -18.90   28.50 
  -9  -4 -13   -0.30   39.30 
  -4   9 -13   35.60   42.40 
  -4   9 -13   17.80   58.49 
   9   4 -13   27.90   29.00 
   9   4 -13   10.90   37.90 
   4  -9 -13   28.90   49.30 
  -9  -4  13    8.60   13.00 
  -9  -4  13    7.10   16.90 
  -4   9  13    3.10   17.60 
   4  -9  13    1.10   12.10 
   9   2 -13  -24.50   22.30 
  -2   9 -13   10.20   33.90 
   9   2 -13   34.20   37.20 
   2  -9 -13   45.30   40.20 
   2  -9 -13   23.40   44.40 
  -2   9 -13   -9.00   53.39 
   2  -9 -13    4.60   15.40 
   9   2 -13   70.29   33.60 
  -9  -2 -13   24.30   37.70 
  -9  -2  13   12.30   16.40 
  -2   9  13   17.60   18.40 
  -9  -2  13    3.10   11.20 
   0  -9 -13   -0.20   24.90 
   0  -9 -13   -8.60   33.00 
  -9   0 -13  -29.70   35.20 
   0  -9 -13   21.50   34.70 
   0   9 -13    3.60   28.10 
   0  -9 -13   20.10   16.20 
  -9   0 -13   11.60   41.00 
   9   0 -13   12.10   39.60 
   9   0 -13  -33.10   20.50 
  -9   0  13  -12.90   16.50 
  -9   0  13   -4.50   10.50 
   0   9  13   14.60   18.20 
   0  -9  13   -0.20   14.10 
  -9   2 -13   31.60   44.20 
   9  -2 -13    6.60   31.40 
   2   9 -13   -7.20   26.30 
   9  -2 -13   -8.40   21.70 
  -9   2 -13    4.60   35.60 
  -9   2 -13   20.30   15.90 
  -2  -9 -13   20.40   36.00 
   9  -2 -13   -6.50   47.30 
  -2  -9  13    3.60   14.10 
   2   9  13   25.30   21.20 
  -9   2  13  -17.90   17.40 
  -9   2  13   21.60   14.30 
  -4  -9 -13   39.70   44.20 
  -9   4 -13  -11.20   24.20 
  -9   4 -13  -13.70   50.29 
   4   9 -13   -5.60   31.60 
   9  -4 -13   56.99   57.29 
  -9   4 -13   18.00   41.70 
   9  -4 -13  -24.70   22.30 
  -4  -9 -13   23.90   40.10 
   9  -4 -13   65.69   34.70 
  -9   4  13   -7.10   14.40 
   4   9  13   20.70   29.10 
  -4  -9  13   -4.50   15.80 
  -9   6 -13  -38.70   36.80 
  -6  -9 -13    0.60   47.40 
   6   9 -13   34.50   46.00 
   9  -6 -13    0.80   67.29 
  -6  -9 -13  -33.50   42.10 
  -9   6 -13   17.40   56.49 
   6   9 -13  -39.50   66.39 
  -9   6  13   21.60   18.20 
  -6  -9  13    2.40   18.50 
   6   9  13   30.60   40.10 
 -10  -3 -13    5.80   41.90 
  10   3 -13   19.00   45.40 
 -10  -3 -13  -60.19   42.40 
  10   3 -13    7.70   34.80 
  -3  10  13    8.50   23.00 
 -10  -3  13  -12.70   13.00 
 -10  -1 -13   16.80   51.29 
  10   1 -13   67.79   41.20 
 -10  -1 -13   21.30    6.10 
  -1  10 -13   21.80   40.80 
   1 -10 -13   93.59   33.70 
 -10  -1 -13   46.00   43.90 
   1 -10 -13   67.39   50.09 
  10   1 -13   28.90   50.99 
   1 -10 -13   81.29   46.30 
 -10  -1  13   39.80   15.20 
  -1  10  13   43.90   23.80 
  -1 -10 -13   87.69   52.19 
  10  -1 -13  154.08   45.90 
  10  -1 -13   72.89   57.29 
   1  10 -13   88.29   46.50 
  -1 -10 -13   86.69   46.10 
 -10   1 -13   57.09   49.10 
 -10   1 -13   16.70   44.40 
   1  10  13   31.30   24.50 
 -10   1  13   45.80   17.40 
  10  -3 -13  -24.70   60.59 
  -3 -10 -13  -18.40   47.00 
 -10   3 -13   33.00   56.49 
 -10   3 -13  -30.50   44.90 
 -10   3  13   -5.30   15.60 
   3  10  13  -51.39   31.10 
  -3 -10  13  -16.70   18.40 
   0   0 -14  325.27   38.40 
   0   0 -14  279.77   49.99 
   0   0 -14  243.88   36.30 
   0   0 -14  299.37   38.50 
   0   0  14  283.57   34.70 
   0   0  14  362.56   36.00 
  -1   1 -14   70.39   27.10 
   1   1 -14   55.49   13.80 
  -1  -1 -14   67.99   16.10 
   1   1 -14   56.49   16.50 
  -1  -1 -14   66.09   15.40 
   1  -1 -14   66.29   18.30 
   1  -1 -14   64.39   25.90 
   1  -1 -14   69.99   17.10 
   1   1 -14   67.39   24.80 
  -1   1 -14   71.89   16.40 
  -1   1 -14   83.69   16.40 
  -1  -1 -14   72.39   30.80 
  -1  -1 -14   54.49   17.30 
   1  -1 -14   94.79   28.50 
   1  -1 -14   79.19   16.10 
   1   1 -14   69.89   16.40 
  -1  -1 -14   84.79   27.20 
   1   1  14   67.19   13.60 
  -1  -1  14   50.09   12.70 
   1  -1  14   71.49   12.90 
   1  -1  14   91.19   13.00 
  -1  -1  14   58.69   12.00 
  -1   1  14   56.39   13.10 
  -1   1  14   63.79   13.40 
   0   2 -14  375.86   43.70 
   2   0 -14  318.37   43.20 
  -2   0 -14  369.36   56.09 
   0   2 -14  282.47   42.10 
   0  -2 -14  402.46   54.59 
  -2   0 -14  301.67   40.90 
   0  -2 -14  398.56   44.70 
   0  -2 -14  385.36   57.69 
   0  -2 -14  334.17   43.40 
   2   0 -14  314.37   52.59 
   0  -2 -14  369.36   44.50 
  -2   0 -14  374.16   42.50 
  -2   0 -14  360.16   41.10 
   2   0 -14  339.27   42.60 
  -2   0 -14  307.17   54.09 
   0   2 -14  315.37   55.29 
   0   2  14  354.26   40.60 
   0  -2  14  316.67   39.30 
   2   0  14  348.67   39.80 
   0  -2  14  360.86   39.90 
  -2   0  14  356.86   42.40 
  -2   0  14  370.76   41.20 
   2   2 -14   34.30   11.90 
   2  -2 -14   32.00   21.70 
   2   2 -14   28.30   21.90 
  -2  -2 -14   15.80   10.50 
  -2   2 -14   29.10   13.10 
   2  -2 -14   57.69   17.90 
  -2  -2 -14   61.19   27.40 
  -2   2 -14   41.30   24.70 
  -2  -2 -14   14.00   16.00 
   2   2 -14   57.79   17.20 
   2  -2 -14   33.40   23.80 
  -2   2 -14   43.70   12.30 
  -2  -2 -14   11.00   15.20 
  -2  -2 -14   17.90   12.50 
   2  -2 -14   23.20   12.70 
   2  -2  14   19.60    7.90 
  -2  -2  14   39.00   10.80 
  -2   2  14   38.70   11.10 
  -2  -2  14   25.90    9.20 
   2  -2  14   32.40    8.20 
   2   2  14   29.40   10.50 
  -2   2  14   22.10   10.20 
   3   1 -14  165.98   41.70 
   3   1 -14  180.48   31.20 
   1  -3 -14  213.58   47.30 
  -3  -1 -14  149.88   27.30 
   3   1 -14  201.48   29.30 
  -1   3 -14  210.28   47.60 
   1  -3 -14  206.18   31.10 
   1  -3 -14  255.87   32.70 
  -3  -1 -14  200.78   44.10 
   1  -3 -14  183.58   37.30 
  -3  -1 -14  169.08   41.50 
  -3  -1 -14  205.18   29.40 
  -3  -1 -14  174.48   26.90 
  -1   3 -14  196.68   29.00 
   3   1  14  191.48   25.80 
  -3  -1  14  244.38   27.70 
  -3  -1  14  180.58   26.00 
  -1   3  14  181.08   26.40 
   1  -3  14  221.18   25.00 
   1   3 -14  200.78   32.10 
  -1  -3 -14  210.98   28.40 
   1   3 -14  161.48   40.40 
  -3   1 -14  149.59   24.70 
  -3   1 -14  175.28   30.00 
  -1  -3 -14  201.48   31.90 
  -3   1 -14  185.88   27.30 
  -1  -3 -14  186.38   42.60 
  -1  -3 -14  194.38   27.50 
  -3   1 -14  183.58   43.30 
   3  -1 -14  201.28   43.00 
  -3   1 -14  186.18   45.20 
   3  -1 -14  142.09   27.50 
  -3   1 -14  188.18   26.30 
   3  -1 -14  223.68   30.90 
  -1  -3 -14  214.88   38.90 
  -1  -3  14  251.07   26.20 
  -1  -3  14  169.98   24.10 
   1   3  14  196.28   25.70 
  -3   1  14  197.28   25.90 
  -3   1  14  197.18   27.00 
  -3   3 -14  403.26   62.99 
   3   3 -14  348.77   56.79 
  -3  -3 -14  440.36   65.79 
   3  -3 -14  482.75   49.90 
  -3  -3 -14  345.17   46.50 
   3  -3 -14  471.15   56.79 
  -3  -3 -14  361.36   45.40 
  -3   3 -14  369.76   40.60 
  -3  -3 -14  432.16   45.00 
   3  -3 -14  369.06   47.60 
  -3   3 -14  305.77   45.20 
   3   3 -14  379.56   48.30 
  -3  -3 -14  324.87   46.60 
  -3  -3 -14  327.77   56.19 
  -3   3  14  386.86   44.60 
  -3   3  14  346.27   44.90 
  -3  -3  14  385.96   44.00 
   3  -3  14  318.77   39.60 
   3   3  14  349.37   45.10 
  -3  -3  14  416.26   44.70 
  -2   4 -14    3.80   11.20 
   2  -4 -14   11.20   25.40 
  -4  -2 -14    8.20   10.10 
  -4  -2 -14  -13.50   13.10 
   2  -4 -14    8.20   14.20 
   4   2 -14   13.20   11.70 
  -4  -2 -14    3.70   10.00 
  -4  -2 -14    2.70   19.20 
  -4  -2 -14    2.00   20.90 
   4   2 -14   11.10   15.30 
   2  -4 -14   10.50   10.30 
   4   2 -14   34.40   20.80 
  -2   4 -14    7.30    6.70 
   2  -4 -14    3.60   17.60 
  -2   4 -14    7.00   25.20 
   2  -4 -14   -3.10   13.00 
   4   2  14   11.40   11.70 
  -2   4  14   12.90    9.00 
   4   2  14  -15.10   10.20 
   2  -4  14    8.40    5.50 
  -4  -2  14    7.90    8.40 
  -4  -2  14   13.10    9.40 
   0   4 -14  551.44   81.09 
   0  -4 -14  737.33   68.99 
   0   4 -14  541.75   67.99 
  -4   0 -14  483.25   62.89 
   0  -4 -14  508.25   67.89 
  -4   0 -14  565.34   78.99 
   0  -4 -14  610.64   76.69 
   4   0 -14  525.15   76.89 
  -4   0 -14  544.65   63.19 
   0  -4 -14  619.34   65.99 
  -4   0 -14  548.35   64.29 
  -4   0 -14  540.55   79.49 
  -4   0 -14  471.75   61.79 
   4   0 -14  621.94   68.39 
   0  -4 -14  692.33   85.79 
   4   0 -14  465.75   65.39 
  -4   0  14  709.93   66.09 
   0  -4  14  690.33   63.89 
   0  -4  14  590.74   62.89 
  -4   0  14  615.14   64.79 
   0   4  14  580.64   64.89 
  -4   2 -14    8.90    4.70 
  -2  -4 -14   15.70   11.60 
  -4   2 -14    5.80    6.60 
   4  -2 -14   12.40   12.70 
  -2  -4 -14   -1.60   12.70 
   2   4 -14   -6.00   12.70 
   2   4 -14   -5.50   21.20 
   2   4 -14   -3.80   10.20 
   4  -2 -14  -10.40   16.40 
  -2  -4 -14    9.80   24.80 
  -2  -4 -14   -2.00   11.10 
  -2  -4 -14    6.20   18.10 
  -4   2 -14   -8.50   21.80 
   4  -2 -14    9.90   13.80 
  -4   2 -14   13.00   25.30 
  -4   2 -14   17.40   10.20 
   4  -2 -14    8.30   24.30 
   2   4  14   13.20   11.10 
   4  -2  14    1.40    4.80 
  -4   2  14   -3.80    7.30 
  -4   2  14   -2.70    9.40 
  -2  -4  14    5.60    8.80 
  -2  -4  14    7.50    8.50 
   4  -4 -14   16.30   15.70 
   4  -4 -14   13.80   19.10 
  -4   4 -14   -6.40   26.90 
  -4  -4 -14   18.40   12.50 
  -4   4 -14   18.60   12.90 
   4   4 -14    5.20   16.30 
  -4  -4 -14   33.90   30.80 
   4  -4 -14   24.40   16.50 
   4   4 -14   43.00   15.70 
  -4  -4 -14   26.40   25.80 
  -4   4 -14   13.30   25.80 
  -4  -4 -14   31.20   26.30 
  -4  -4 -14   17.90   11.10 
   4   4 -14   -0.50   23.70 
  -4  -4  14   40.90   11.90 
  -4   4  14   17.40   11.60 
   4   4  14   19.70   15.20 
   4   4  14   29.60   15.40 
  -4  -4  14    4.40   10.70 
  -4   4  14   21.80   12.70 
  -3   5 -14   16.00    6.60 
   5   3 -14   12.20   24.00 
  -5  -3 -14    3.30   10.80 
  -5  -3 -14   15.30   10.10 
   3  -5 -14   15.50   20.40 
  -3   5 -14   -1.00   15.10 
  -5  -3 -14    3.60   27.30 
  -5  -3 -14   -0.60   22.00 
   3  -5 -14   19.80   16.90 
   3  -5 -14   13.70   11.60 
   5   3 -14   15.50   18.50 
  -5  -3 -14   -0.70   15.80 
   5   3  14   20.50   13.10 
   3  -5  14    8.30    5.40 
  -3   5  14   32.40   13.10 
  -5  -3  14   13.10   10.50 
   5   3  14   22.10   11.30 
  -5  -3  14   10.70    9.90 
  -5  -1 -14   -9.40    8.90 
  -5  -1 -14    4.70   22.90 
  -5  -1 -14   10.20   11.40 
  -1   5 -14    2.90    8.30 
   1  -5 -14   -6.40   13.90 
   5   1 -14   -5.40   20.20 
   1  -5 -14   -0.90   14.50 
  -1   5 -14    4.50   12.60 
   5   1 -14    1.30   12.20 
  -5  -1 -14    4.50   10.50 
   1  -5 -14    3.10   19.10 
  -5  -1 -14    1.20    7.80 
   1  -5 -14    0.10    9.90 
  -1   5 -14   -1.80   44.00 
  -5  -1 -14    2.10   21.10 
  -1   5  14   -8.10    8.80 
  -5  -1  14   -1.60    9.20 
  -5  -1  14   -1.40    7.80 
   1  -5  14    5.80    6.90 
   1  -5  14   -7.90    7.70 
  -1  -5 -14   -4.70   12.60 
  -5   1 -14   -6.60    4.30 
   5  -1 -14   10.10   12.60 
   1   5 -14   57.49   48.90 
  -5   1 -14   14.40   23.40 
  -5   1 -14    6.10   24.80 
  -5   1 -14   10.20    5.60 
   1   5 -14   -5.40   15.50 
   1   5 -14   18.40   12.10 
   5  -1 -14   11.10   23.30 
  -1  -5 -14  -24.70    9.40 
  -5   1 -14   -0.20   10.50 
  -1  -5 -14    2.10   18.50 
   5  -1  14    5.90    3.80 
  -1  -5  14   12.00    8.40 
   5  -1  14   -4.20    5.90 
  -5   1  14    5.20   10.20 
  -1  -5  14    0.70    8.60 
   1   5  14   -5.90   11.30 
  -5   1  14    1.40    8.40 
   5  -3 -14   22.30   15.40 
  -5   3 -14  -17.30   23.70 
   5  -3 -14   45.20   20.80 
  -3  -5 -14   16.20   45.60 
   5  -3 -14   21.30   30.40 
  -3  -5 -14    7.70   12.40 
  -3  -5 -14   41.50   18.60 
  -5   3 -14   23.70   13.00 
  -3  -5 -14   12.40   12.10 
   3   5 -14    3.40   13.40 
   3   5 -14   -7.10   15.40 
  -5   3 -14   19.70   31.50 
   3   5 -14   16.50   30.10 
   5  -3 -14   38.70   19.30 
  -3  -5 -14   18.60   23.30 
  -5   3  14    9.00   10.70 
  -3  -5  14    7.90   11.00 
   3   5  14   20.10   15.40 
  -3  -5  14    5.30    9.80 
  -5   5 -14  -25.00   17.10 
   5  -5 -14    7.60   23.30 
   5   5 -14   -8.40   29.30 
   5  -5 -14    1.50   17.80 
   5   5 -14   14.90   20.10 
  -5   5 -14    0.10   38.40 
  -5  -5 -14   24.20   15.90 
  -5  -5 -14   -6.10   30.90 
   5  -5 -14   16.20   21.50 
  -5  -5 -14    0.00   26.60 
  -5   5 -14   26.70   37.90 
   5   5 -14   -2.50   17.20 
   5  -5 -14   -9.60   32.00 
   5   5  14   27.90   15.40 
  -5  -5  14    2.10   10.40 
  -5  -5  14   -4.70   11.20 
   5   5  14   22.40   18.50 
  -5   5  14    5.80   10.70 
   4  -6 -14  119.89   29.90 
   6   4 -14  135.09   31.10 
   4  -6 -14  193.98   33.90 
  -4   6 -14  174.98   61.89 
   4  -6 -14  175.58   40.50 
  -6  -4 -14  116.59   43.10 
  -6  -4 -14  216.38   30.30 
   6   4 -14  172.88   34.80 
  -4   6 -14  173.98   37.30 
  -4   6  14  204.68   28.00 
   6   4  14  152.48   29.00 
  -6  -4  14  186.88   26.70 
  -6  -4  14  175.48   27.30 
   6   2 -14   65.99   23.90 
   2  -6 -14  222.38   53.09 
  -6  -2 -14  125.39   22.30 
   6   2 -14  137.79   27.40 
  -6  -2 -14   90.59   38.00 
  -6  -2 -14   94.39   37.30 
   6   2 -14  128.49   36.40 
  -2   6 -14   90.19   46.30 
  -6  -2 -14   48.60   17.40 
   2  -6 -14   76.19   23.90 
  -2   6 -14   68.39   23.10 
  -6  -2 -14   92.99   15.70 
   2  -6 -14   79.39   29.20 
   2  -6 -14  174.68   25.00 
  -6  -2  14  115.09   20.30 
   6   2  14   88.79   17.30 
  -2   6  14  107.49   21.30 
  -6  -2  14  130.79   21.90 
   2  -6  14  110.89   15.90 
   0  -6 -14  114.79   23.30 
   6   0 -14   85.79   24.40 
   0   6 -14   84.09   24.00 
   0   6 -14  106.89   45.20 
  -6   0 -14   86.29   12.90 
   6   0 -14   88.09   20.30 
  -6   0 -14   62.19   11.60 
   0  -6 -14   65.29   29.30 
   6   0 -14  136.09   35.10 
   0  -6 -14  113.29   21.20 
   0  -6 -14  143.19   44.00 
  -6   0 -14   73.49   17.40 
  -6   0 -14   96.59   35.00 
  -6   0  14  138.69   21.10 
   6   0  14   89.79   12.10 
   0  -6  14  109.79   17.80 
  -6   0  14  101.59   19.50 
   0   6  14   80.09   20.00 
  -2  -6 -14  160.68   45.40 
  -2  -6 -14   91.69   26.60 
   6  -2 -14  121.59   25.40 
  -2  -6 -14  103.69   34.70 
  -6   2 -14  171.98   44.50 
   2   6 -14  108.09   38.60 
  -6   2 -14  118.09   42.00 
   2   6 -14  108.39   28.80 
  -2  -6 -14  104.69   22.20 
   6  -2 -14  173.28   29.30 
   6  -2 -14  131.79   39.60 
  -6   2 -14   97.49   20.80 
  -6   2  14   91.39   21.60 
   2   6  14  105.59   24.60 
  -2  -6  14  121.49   21.00 
  -4  -6 -14  142.29   43.30 
  -6   4 -14  239.98   65.29 
  -4  -6 -14  179.58   31.30 
   4   6 -14  163.78   48.60 
   6  -4 -14  296.67   68.99 
   6  -4 -14  159.88   32.40 
   6  -4 -14  327.97   41.80 
   4   6 -14  157.78   37.70 
  -6   4 -14  193.48   34.00 
  -6   4 -14  187.58   55.79 
   6  -4 -14  168.28   38.10 
   4   6  14  188.48   35.30 
  -4  -6  14  227.88   30.10 
  -6   4  14  194.78   35.30 
   6   6 -14  110.99   31.40 
   6  -6 -14   33.20   18.70 
   6  -6 -14    0.90   25.00 
   6  -6 -14   19.70   27.30 
  -6   6 -14   78.89   55.59 
  -6  -6 -14   30.10   36.70 
  -6   6 -14   70.79   46.80 
  -6  -6 -14   18.00   35.10 
  -6   6 -14   17.70   28.40 
   6  -6 -14  -18.70   24.10 
   6   6 -14   18.20   36.50 
   6  -6 -14   54.89   49.40 
  -6   6  14   30.70   14.90 
   6   6  14   23.90   25.30 
  -6  -6  14   19.60   14.90 
   5  -7 -14  -11.80   23.90 
   5  -7 -14   -7.30   16.10 
  -5   7 -14   -7.70   85.09 
   7   5 -14  -20.80   30.50 
  -7  -5 -14  -37.10   32.50 
  -5   7 -14   -0.20   26.90 
  -7  -5 -14   16.50   34.40 
   7   5 -14   34.60   36.20 
   5  -7 -14   19.30   29.70 
  -7  -5  14    6.50   11.60 
  -5   7  14   21.30   15.60 
   7   5  14  -25.30   21.50 
  -7  -3 -14  195.58   49.10 
  -7  -3 -14  125.29   44.70 
   7   3 -14  153.08   43.50 
   7   3 -14  164.88   34.80 
   3  -7 -14  107.69   29.60 
   3  -7 -14  100.09   27.10 
  -7  -3 -14  127.99   24.10 
  -3   7 -14   77.89   58.69 
  -3   7 -14  155.88   38.80 
  -7  -3  14  158.78   24.90 
  -7  -3  14  131.69   25.40 
   7   3  14  126.49   21.90 
  -3   7  14  115.69   24.50 
  -1   7 -14   52.69   22.30 
  -7  -1 -14   34.90   10.40 
   1  -7 -14  100.69   47.50 
  -1   7 -14   33.70   43.70 
  -7  -1 -14   -5.80   33.10 
   7   1 -14   25.80   17.70 
  -7  -1 -14   30.10   31.90 
   1  -7 -14   18.10   15.50 
  -7  -1 -14   15.80    9.80 
   1  -7 -14   46.50   28.30 
   7   1 -14   25.70   30.80 
   7   1 -14   21.30   21.30 
  -7  -1 -14   29.70    8.00 
   7   1  14   20.00    8.80 
  -7  -1  14   54.19   15.30 
  -7  -1  14   66.79   17.10 
  -1   7  14   13.40   14.40 
   1  -7  14   36.10   19.70 
  -7   1 -14   28.00   31.00 
  -1  -7 -14   19.80   29.90 
  -7   1 -14   30.50   14.20 
  -7   1 -14   89.19   36.10 
  -1  -7 -14   34.10   16.60 
   7  -1 -14   17.00   17.40 
   1   7 -14   20.00   42.30 
  -1  -7 -14   20.90   22.10 
   7  -1 -14    2.60   31.90 
  -1  -7 -14   88.49   41.00 
   1   7 -14    4.80   19.10 
   7  -1 -14   37.30   22.20 
  -7   1  14   40.00   15.10 
  -7   1  14   26.90   12.50 
  -1  -7  14   19.20   13.30 
   1   7  14   66.59   19.30 
  -7   3 -14  229.58   54.69 
  -3  -7 -14  250.07   57.69 
   3   7 -14  123.89   51.99 
   7  -3 -14  156.98   36.10 
   7  -3 -14  200.18   51.89 
   7  -3 -14  106.99   28.00 
  -3  -7 -14  114.29   42.30 
  -7   3 -14  206.28   61.69 
  -7   3 -14  128.89   27.10 
  -7   3  14  153.68   30.40 
  -3  -7  14  137.19   25.50 
  -7   3  14  146.79   27.70 
   3   7  14  163.38   34.30 
   7  -5 -14   17.00   44.20 
   5   7 -14  -10.30   28.10 
  -7   5 -14   23.30   24.00 
   7  -5 -14   -8.00   22.10 
   7  -5 -14   -3.60   23.60 
  -5  -7 -14   -5.80   37.90 
  -7   5 -14   35.00   44.90 
  -5  -7 -14  -18.60   34.20 
   7  -5 -14    7.50   27.20 
   5   7 -14   29.70   46.90 
  -7   5 -14   28.00   44.30 
   5   7  14    8.90   26.00 
  -5  -7  14    0.60   12.10 
  -7   5  14   30.40   21.20 
  -7   5  14  -37.40   12.40 
   7   7 -14   44.50   49.10 
  -7   7 -14    5.60   59.99 
   7  -7 -14  128.69   64.59 
  -7   7 -14   71.19   41.50 
  -7   7 -14   -9.90   54.39 
  -7  -7 -14   37.80   45.00 
   7   7 -14   44.10   40.90 
  -7  -7 -14   53.19   46.90 
   7   7  14    9.10   31.70 
   8   6 -14  -32.60   68.99 
  -6   8 -14    7.80   44.60 
   6  -8 -14   16.30   55.69 
  -6   8 -14    4.60   68.99 
   8   6 -14  -14.80   37.30 
  -8  -6 -14   -0.50   47.30 
  -6   8 -14   55.69   51.29 
  -8  -6  14   10.10   15.10 
  -6   8  14   -5.40   29.50 
   4  -8 -14   -8.20   35.80 
   8   4 -14   39.90   31.60 
   4  -8 -14   23.20   27.60 
   8   4 -14  -18.00   35.60 
  -8  -4 -14  -11.50   36.50 
  -4   8 -14    4.80   36.50 
   4  -8 -14   36.20   48.80 
  -4   8 -14    7.80   59.89 
  -8  -4 -14   -9.40   35.40 
   8   4 -14   17.70   26.50 
  -8  -4  14   14.30   16.10 
  -4   8  14  -15.30   14.20 
  -8  -2 -14   -6.10   34.80 
  -8  -2 -14   18.60    9.20 
   2  -8 -14  -15.60   18.00 
  -2   8 -14   18.30   56.79 
   2  -8 -14   16.00   40.20 
  -2   8 -14    3.10   30.70 
   8   2 -14    3.70   23.90 
   2  -8 -14   12.20   38.80 
   8   2 -14   -2.10   31.20 
  -2   8  14   14.70   14.80 
  -8  -2  14   15.00   11.30 
  -8  -2  14   12.80   14.50 
   0  -8 -14   17.30   36.40 
  -8   0 -14   13.80   10.40 
  -8   0 -14   -0.70   33.30 
   8   0 -14   17.30   34.10 
   0   8 -14  -34.20   54.69 
  -8   0 -14   16.50   35.80 
   0  -8 -14   19.00   39.40 
   0  -8 -14  -12.20   24.80 
   8   0 -14   28.00   28.60 
   8   0 -14    6.60   19.50 
   0   8 -14  -13.60   22.30 
   0  -8 -14   22.70   17.00 
   0   8  14   17.20   17.30 
  -8   0  14   25.40   12.80 
   0  -8  14   19.90   13.70 
  -8   0  14    9.60   14.40 
  -8   2 -14   -3.30   41.00 
  -8   2 -14   12.80   35.70 
   8  -2 -14   -1.00   41.00 
  -2  -8 -14   12.90   17.00 
  -2  -8 -14  -13.70   32.70 
   8  -2 -14   47.10   27.10 
   2   8 -14    9.50   23.60 
  -8   2 -14   18.80   16.70 
   8  -2 -14   21.60   21.40 
   2   8 -14   13.90   47.50 
   2   8  14    7.60   20.60 
  -2  -8  14   28.10   13.70 
  -8   2  14    3.40   12.90 
  -8   2  14   33.00   28.10 
   8  -4 -14   37.90   24.90 
   8  -4 -14    0.00   28.40 
  -4  -8 -14   15.00   38.60 
   8  -4 -14   24.90   52.29 
  -4  -8 -14   26.40   42.10 
   4   8 -14   31.40   28.40 
  -8   4 -14  -31.40   44.80 
   8  -4 -14   -0.20   26.10 
  -8   4 -14    5.10   23.90 
  -4  -8  14   28.30   14.30 
   4   8  14   10.10   27.50 
  -8   4  14    2.80   23.40 
  -8   4  14   17.20   14.60 
  -8   6 -14   17.50   56.29 
  -8   6 -14  -26.80   55.69 
  -6  -8 -14  -13.10   42.20 
  -6  -8 -14   11.60   47.20 
   8  -6 -14  -11.60   59.39 
  -8   6 -14  -29.90   35.40 
   6   8 -14   -6.00   52.39 
  -6  -8  14  -11.10   16.40 
  -8   6  14  -18.00   17.70 
   6   8  14    3.90   35.50 
   9   5 -14  -11.60   46.90 
  -9  -5 -14   35.60   58.69 
  -5   9 -14   34.10   68.69 
   5  -9 -14   48.10   55.99 
  -9  -5 -14   13.50   44.00 
   5  -9 -14   11.80   86.79 
  -9  -5  14   20.10   15.60 
   5  -9  14   20.80   14.60 
   9   3 -14   76.49   34.90 
   9   3 -14  -21.00   29.30 
  -3   9 -14   -9.90   71.89 
  -3   9 -14   28.50   42.20 
  -9  -3 -14   83.99   52.09 
   3  -9 -14   92.79   52.79 
   3  -9 -14   49.30   22.50 
   3  -9 -14   25.50   34.50 
  -9  -3 -14   25.60   45.30 
  -9  -3  14   39.60   19.50 
  -3   9  14    7.50   18.60 
  -9  -3  14   23.00   15.90 
  -9  -1 -14  -14.40   46.00 
   1  -9 -14  101.99   48.30 
   1  -9 -14   -8.10   31.10 
   1  -9 -14   29.10   19.70 
  -1   9 -14   20.00   63.09 
   9   1 -14  -15.20   30.20 
   9   1 -14   83.09   36.00 
  -1   9 -14   -1.50   31.80 
  -9  -1 -14   28.50   43.30 
   1  -9 -14   81.99   43.20 
   9   1 -14   12.30   42.30 
  -9  -1  14   27.80   19.10 
  -1   9  14   19.30   20.50 
  -9  -1  14    9.40   13.50 
  -9   1 -14  -24.40   40.80 
  -9   1 -14   73.49   46.60 
   9  -1 -14   29.00   26.40 
   9  -1 -14   39.40   31.70 
   1   9 -14   44.60   71.99 
  -1  -9 -14   59.69   42.30 
  -1  -9 -14   36.90   40.70 
   1   9 -14   13.50   30.50 
  -9   1  14   42.00   20.50 
  -9   1  14   40.40   16.10 
  -1  -9  14   30.00   17.50 
   1   9  14    1.70   23.50 
  -9   3 -14   18.60   45.80 
  -9   3 -14   10.60   22.20 
   3   9 -14   18.70   65.29 
  -3  -9 -14   26.10   43.50 
   3   9 -14   66.49   35.20 
   9  -3 -14   59.09   59.09 
  -9   3 -14   89.59   57.59 
  -3  -9 -14   14.50   41.00 
   9  -3 -14   41.80   27.60 
   9  -3 -14   62.89   37.50 
  -9   3  14   32.30   15.40 
   3   9  14   33.40   27.70 
  -3  -9  14   28.10   18.20 
  -9   5 -14  -15.80   65.29 
   5   9 -14    4.40   49.40 
  -5  -9 -14    7.70   44.30 
   9  -5 -14   37.00   38.10 
   9  -5 -14   45.20   66.19 
  -9   5 -14   60.29   55.39 
   5   9  14   -8.00   33.20 
  -5  -9  14   49.60   20.50 
  -9   5  14   19.90   16.80 
 -10  -2 -14   28.00   48.60 
  10   2 -14   17.90   54.69 
   2 -10 -14   -6.60   45.30 
 -10  -2 -14   -9.50   50.19 
   2 -10 -14   35.70   53.49 
  -2  10 -14   33.60   77.59 
  -2  10 -14  -39.90   46.70 
  10   2 -14    7.80   44.00 
  -2  10  14  -20.70   22.10 
  10   0 -14  198.18   51.59 
  10   0 -14  114.59   62.99 
   0 -10 -14  225.48   59.89 
   0 -10 -14  287.57   71.69 
 -10   0 -14   73.89   55.49 
   0  10 -14  116.69   95.39 
   0  10 -14  116.39   47.70 
   0  10  14  103.09   32.20 
  -2 -10 -14  -28.00   42.90 
 -10   2 -14   70.59   66.99 
   2  10 -14    4.50   38.30 
  10  -2 -14   55.49   64.59 
  -2 -10 -14  -29.40   48.20 
   2  10 -14   35.00   88.39 
  10  -2 -14   43.50   42.40 
 -10   2 -14   12.80   54.99 
   2  10  14   24.30   27.00 
 -10   2  14   -2.10   14.00 
   1   0 -15  -10.70   17.00 
   1   0 -15  -11.00   13.90 
  -1   0 -15  -11.10   13.50 
   0  -1 -15   -1.90   11.10 
   0  -1 -15    9.50   21.70 
  -1   0 -15    3.30   10.60 
   0  -1 -15   -5.10   17.70 
   0   1 -15  -16.30   17.30 
   0   1 -15   -6.50   14.40 
   0  -1 -15   -8.50   14.00 
  -1   0 -15   12.80   19.70 
   1   0 -15   -9.60   12.10 
   0   1 -15   -5.30   11.70 
  -1   0 -15   17.60   24.60 
  -1   0 -15   -0.70   10.70 
   0  -1  15   -3.90    7.30 
   1   0  15   -1.00    7.70 
   0   1  15   14.30    8.40 
   1   0  15   -6.50    7.10 
  -1   0  15   -8.10    7.10 
   0  -1  15   -5.90   11.00 
   0   1  15   -2.70    6.90 
  -1   0  15   -2.00    7.50 
   1  -2 -15  340.87   57.49 
  -1   2 -15  315.57   38.70 
   1  -2 -15  286.37   48.60 
  -1   2 -15  248.38   51.29 
  -2  -1 -15  256.47   36.90 
  -2  -1 -15  344.17   57.89 
   2   1 -15  290.37   52.09 
   2   1 -15  231.28   40.20 
  -2  -1 -15  322.37   40.70 
  -2  -1 -15  209.78   36.70 
  -1   2 -15  277.37   37.60 
   1  -2 -15  320.37   39.70 
  -2  -1 -15  280.87   50.39 
  -2  -1 -15  242.18   36.30 
  -2  -1  15  307.77   36.10 
   2   1  15  283.57   34.70 
  -1   2  15  391.26   37.40 
  -1   2  15  286.47   35.50 
   1  -2  15  296.37   34.00 
   1  -2  15  262.77   33.90 
  -1  -2 -15  311.87   50.49 
  -1  -2 -15  289.87   37.20 
  -1  -2 -15  223.58   39.60 
  -2   1 -15  263.17   58.59 
   2  -1 -15  273.07   52.69 
   2  -1 -15  345.87   52.39 
   1   2 -15  265.07   52.59 
  -2   1 -15  297.97   58.39 
   2  -1 -15  303.87   40.80 
  -1  -2 -15  267.97   37.10 
  -1  -2 -15  322.27   55.29 
  -1  -2 -15  302.57   42.00 
   1   2 -15  280.27   38.60 
  -2   1 -15  331.47   38.10 
   2  -1 -15  262.67   39.30 
  -2   1 -15  201.58   36.10 
  -2   1  15  262.87   35.10 
  -1  -2  15  305.07   34.70 
   1   2  15  255.37   35.10 
  -2   1  15  309.67   36.30 
  -1  -2  15  286.77   34.70 
  -3  -2 -15    3.30   12.40 
  -2   3 -15   15.70    8.20 
   2  -3 -15   -1.60   17.50 
   2  -3 -15   11.80   16.70 
  -2   3 -15   -7.80   10.60 
  -2   3 -15   -9.70   23.20 
  -3  -2 -15    8.90   20.40 
  -3  -2 -15    7.70   16.50 
  -3  -2 -15   -0.60   10.00 
   2  -3 -15  -18.40   24.50 
   2  -3 -15   -1.20   14.70 
  -3  -2 -15   24.80   27.30 
   3   2 -15   -2.90   13.20 
  -3  -2 -15    1.60   10.30 
   3   2 -15   24.80   21.70 
  -3  -2  15   24.80   10.40 
  -2   3  15    9.80    9.90 
  -2   3  15    3.90    8.90 
   2  -3  15    3.40    5.80 
   3   2  15   25.00   11.00 
  -3  -2  15   11.80   10.40 
   2  -3  15   14.90    7.60 
   0  -3 -15   11.50   18.30 
  -3   0 -15    4.30   20.90 
  -3   0 -15   -3.90   14.60 
  -3   0 -15    5.10   10.80 
   0   3 -15  -28.50   12.00 
   0  -3 -15    7.60   27.50 
   3   0 -15   42.60   24.70 
   0  -3 -15   13.90   14.30 
  -3   0 -15   16.50    9.90 
   0   3 -15   19.20   24.00 
   3   0 -15    8.90   19.40 
  -3   0 -15   -2.90   21.00 
   0  -3 -15    9.60   10.20 
  -3   0 -15    7.50   10.10 
   3   0 -15   22.50   15.80 
   0   3 -15   -0.30    9.30 
  -3   0  15  -11.50    7.40 
   0  -3  15   -2.60    7.80 
   3   0  15    4.60    8.20 
   0   3  15   -5.80    8.20 
  -3   0  15    6.20    8.70 
   0  -3  15   -5.80    6.30 
  -3   2 -15  -19.50   25.80 
  -2  -3 -15    7.30   19.40 
  -2  -3 -15    2.00   24.80 
   3  -2 -15   17.10   15.10 
   2   3 -15    3.30   12.30 
   3  -2 -15   -1.70   25.70 
  -2  -3 -15    1.10   20.10 
  -3   2 -15    0.00    6.70 
  -3   2 -15   -6.00   10.90 
   2   3 -15   -9.30   19.70 
  -2  -3 -15   13.70   13.40 
  -2  -3 -15    1.60   12.90 
  -3   2 -15   13.80   25.40 
   3  -2 -15    5.40   17.40 
   2   3 -15    2.60   12.60 
  -2  -3 -15   -9.80   10.50 
   3  -2 -15   14.30   12.80 
   2   3  15    3.10   11.20 
  -3   2  15   13.00   10.10 
  -2  -3  15   11.50    9.70 
  -2  -3  15   -1.90    8.50 
   3  -2  15    7.50    6.80 
  -3   2  15    6.10    9.10 
   4   3 -15   16.80   16.10 
   3  -4 -15    0.00   18.80 
   3  -4 -15   10.90   28.00 
   4   3 -15    4.30   33.30 
  -3   4 -15  -12.50   12.20 
  -4  -3 -15  -30.50   18.00 
   3  -4 -15   10.80   18.30 
   3  -4 -15  -11.30   16.00 
  -3   4 -15   19.70   36.60 
   4   3 -15   -0.10   17.40 
  -4  -3 -15   11.30   12.60 
  -4  -3 -15   12.10   22.80 
  -4  -3 -15  -24.80   11.30 
   4   3  15    7.90   13.80 
  -3   4  15    7.30    9.80 
  -4  -3  15   15.10   11.60 
  -4  -3  15  -10.70   10.10 
   1  -4 -15  151.98   68.49 
   1  -4 -15  245.98   32.70 
  -4  -1 -15  141.19   25.10 
   1  -4 -15  212.28   27.20 
  -4  -1 -15  113.19   33.20 
   4   1 -15  187.58   34.80 
   1  -4 -15  149.49   36.80 
  -4  -1 -15  116.59   37.80 
  -1   4 -15  151.48   28.60 
   4   1 -15  150.88   37.40 
  -1   4 -15  158.68   26.20 
  -4  -1 -15  108.69   22.40 
  -4  -1  15  158.88   25.10 
   1  -4  15  183.08   24.20 
  -1   4  15  135.09   24.20 
  -4  -1  15  208.98   25.90 
   4   1  15  128.69   22.40 
  -4   1 -15  149.69   43.60 
   4  -1 -15   99.99   43.00 
   1   4 -15  104.59   22.40 
  -4   1 -15  157.38   41.30 
  -4   1 -15  131.99   20.50 
   1   4 -15  155.98   50.19 
  -1  -4 -15  138.59   27.70 
  -4   1 -15  117.09   19.00 
  -4   1 -15  123.19   23.10 
  -1  -4 -15  127.39   44.30 
   4  -1 -15  135.39   24.60 
  -1  -4 -15  144.29   38.20 
  -1  -4 -15  180.48   26.10 
  -1  -4 -15  153.88   26.00 
  -4   1 -15  107.99   19.30 
   1   4  15  146.29   24.50 
  -4   1  15  136.39   22.90 
  -1  -4  15  145.59   22.10 
  -1  -4  15  169.48   23.40 
   4  -1  15  137.59   18.70 
  -4   1  15  188.78   24.50 
  -4   3 -15   -2.70   33.80 
   4  -3 -15    0.30   20.10 
  -3  -4 -15   18.20   13.60 
   3   4 -15   24.60   24.30 
   3   4 -15    1.70   17.20 
  -3  -4 -15  -12.90   29.70 
   4  -3 -15   -5.90   16.60 
  -4   3 -15   21.10   13.70 
  -3  -4 -15   -7.70   22.90 
   4  -3 -15   21.70   15.90 
  -3  -4 -15   32.20   24.90 
   3   4 -15   -4.70   13.70 
  -4   3 -15    3.60    6.40 
  -3  -4 -15   -0.60   11.70 
  -4   3 -15    1.50    4.10 
  -3  -4  15   11.70   10.70 
  -4   3  15   -0.30   12.00 
  -4   3  15   -7.50    9.90 
   3   4  15   -6.60   12.20 
  -3  -4  15   10.90    9.90 
  -5  -4 -15  145.69   47.30 
   4  -5 -15  150.18   29.70 
  -4   5 -15  170.28   59.49 
   5   4 -15  126.09   31.40 
   4  -5 -15  130.29   25.40 
  -5  -4 -15  129.09   25.90 
   5   4 -15  169.48   44.80 
   5   4 -15   83.69   38.40 
   4  -5 -15   90.49   27.50 
   4  -5 -15  135.19   48.60 
   4  -5 -15  139.39   35.50 
  -5  -4 -15   73.09   36.50 
   5   4  15   91.79   24.20 
  -5  -4  15  118.99   21.90 
  -4   5  15   99.89   22.60 
  -2   5 -15  145.39   49.20 
   5   2 -15  187.18   35.50 
  -5  -2 -15  144.49   44.20 
  -5  -2 -15  208.58   30.60 
  -2   5 -15  194.58   59.99 
   2  -5 -15  250.57   32.90 
   2  -5 -15  236.88   45.70 
   5   2 -15  155.48   40.70 
   5   2 -15  115.79   31.50 
  -5  -2 -15  222.28   52.29 
  -5  -2 -15  152.48   27.00 
  -5  -2  15  262.27   30.80 
   2  -5  15  203.58   25.60 
  -2   5  15  191.78   30.90 
   5   2  15  228.58   29.80 
  -5  -2  15  204.78   28.70 
  -5   0 -15    7.60   26.00 
  -5   0 -15    9.30   27.30 
  -5   0 -15    0.10    9.00 
   0  -5 -15  -14.10   15.30 
   0  -5 -15   -0.70   17.80 
   0   5 -15   -5.10   14.70 
   5   0 -15    2.70   25.30 
   0  -5 -15   11.60   31.60 
   0  -5 -15   -9.70   11.10 
   0  -5 -15   -9.70   19.40 
  -5   0 -15   -7.60   12.30 
   5   0 -15    7.70   17.60 
  -5   0 -15   -5.80   10.10 
   0   5 -15  -15.30   26.10 
   5   0 -15  -10.00   15.00 
  -5   0  15   12.50    9.60 
   0   5  15    5.80   11.00 
  -5   0  15   -2.00   10.90 
   0  -5  15   19.20   10.60 
   5   0  15   -2.80    7.50 
   2   5 -15  211.08   40.10 
   5  -2 -15  211.18   50.69 
  -5   2 -15  171.48   50.69 
   5  -2 -15  173.38   34.30 
  -2  -5 -15  254.47   35.90 
  -2  -5 -15  172.08   46.30 
  -2  -5 -15  323.57   36.20 
  -5   2 -15  280.47   68.09 
  -2  -5 -15  327.47   59.19 
   5  -2 -15  323.67   41.10 
   2   5 -15  243.68   56.19 
  -2  -5 -15  177.08   47.90 
  -5   2 -15  217.88   33.90 
   5  -2 -15  256.77   45.90 
  -5   2  15  257.97   34.80 
  -5   2  15  242.18   33.40 
  -2  -5  15  203.68   31.60 
   2   5  15  264.57   37.20 
  -5   4 -15  107.79   26.50 
  -4  -5 -15   71.19   35.40 
  -5   4 -15  150.48   53.09 
   5  -4 -15  189.98   33.10 
  -4  -5 -15   96.89   22.20 
  -5   4 -15   67.39   46.40 
   5  -4 -15  204.18   52.19 
   5  -4 -15  140.89   28.20 
   5  -4 -15  133.29   34.20 
   4   5 -15   85.89   39.80 
  -4  -5 -15  167.08   46.60 
   4   5 -15  115.59   31.00 
  -5   4  15   97.59   22.00 
  -4  -5  15   91.79   20.20 
  -5   4  15  153.68   27.00 
   5  -6 -15  -18.60   24.70 
   5  -6 -15    7.60   17.70 
  -6  -5 -15   -4.60   33.60 
   6   5 -15   14.80   36.70 
  -5   6 -15  -32.40   56.19 
  -5   6 -15   24.30   23.90 
   5  -6 -15   41.80   27.90 
  -5   6 -15    1.70   41.70 
   5  -6 -15   14.40   28.30 
  -6  -5 -15   11.30   36.60 
   6   5 -15   19.40   28.10 
  -5   6  15    0.80   14.50 
  -6  -5  15   29.90   16.90 
   6   5  15    5.90   21.70 
   3  -6 -15  -12.80   24.40 
  -3   6 -15    5.00   19.10 
   6   3 -15   -2.40   19.50 
   3  -6 -15   21.20   22.60 
   6   3 -15   10.50   22.20 
   3  -6 -15   11.60   14.70 
  -6  -3 -15  -15.30   30.70 
  -6  -3 -15   38.80   13.40 
  -3   6 -15  -50.89   44.80 
   3  -6 -15   10.10   37.30 
   6   3 -15   15.00   29.50 
  -6  -3 -15   -1.80   34.50 
  -6  -3  15   -9.00    9.80 
  -3   6  15   15.30   13.50 
  -6  -3  15    3.00   12.80 
   6   3  15    4.90   14.40 
   6   1 -15  -12.60   17.90 
  -6  -1 -15   -6.10    9.00 
  -6  -1 -15   11.70   31.40 
   1  -6 -15   16.60   19.60 
   1  -6 -15   12.90   34.60 
  -1   6 -15   16.20   37.70 
   1  -6 -15   20.80   14.90 
   6   1 -15    6.50   27.60 
  -6  -1 -15    2.50   12.60 
  -6  -1 -15   13.90   30.50 
  -1   6 -15   -0.20   19.80 
  -6  -1 -15   22.50   12.00 
  -6  -1  15   16.70   14.40 
   6   1  15    6.90    9.20 
   1  -6  15    2.80   10.90 
  -6  -1  15    7.40   10.70 
  -1   6  15   35.80   13.80 
  -1  -6 -15    8.80   22.90 
  -6   1 -15   -7.20   28.20 
  -6   1 -15    1.70   30.50 
  -1  -6 -15   21.10   17.20 
   6  -1 -15    4.90   16.10 
   6  -1 -15   48.00   21.10 
  -6   1 -15   12.20   13.60 
   6  -1 -15   15.80   33.00 
   1   6 -15   -8.60   18.00 
  -1  -6 -15    3.70   13.80 
  -1  -6 -15   -4.50   33.60 
   1   6 -15   11.40   36.90 
  -6   1  15   25.00   13.70 
   1   6  15   14.10   15.40 
  -1  -6  15   -5.10   11.00 
  -3  -6 -15   -3.00   14.80 
   6  -3 -15    8.70   18.50 
   6  -3 -15   22.00   23.70 
  -3  -6 -15   -2.80   28.10 
  -6   3 -15  -39.90   32.50 
   3   6 -15   -9.60   34.50 
   6  -3 -15   16.00   36.60 
  -6   3 -15  -14.00   14.70 
  -3  -6 -15  -43.40   31.60 
  -6   3 -15    3.00   33.90 
  -3  -6  15   17.30   11.90 
  -6   3  15  -11.10   10.20 
  -6   3  15    6.00   15.20 
   3   6  15    0.80   19.40 
   6  -5 -15   -2.90   22.70 
   5   6 -15   -1.40   24.90 
  -6   5 -15    4.60   42.20 
   6  -5 -15  -12.30   42.70 
   6  -5 -15   29.90   26.80 
  -6   5 -15    5.60   26.00 
  -5  -6 -15   25.80   32.90 
   6  -5 -15   -5.90   23.80 
  -6   5 -15    7.60   43.80 
  -6   5  15   28.20   15.90 
   5   6  15   26.40   24.10 
  -5  -6  15  -11.20   12.00 
  -6   7 -15  -14.00   50.89 
  -7  -6 -15  -20.90   43.60 
   7   6 -15   72.79   41.40 
   6  -7 -15   21.90   36.80 
   6  -7 -15   33.20   53.89 
  -6   7 -15   19.40   38.90 
   7   6 -15  -12.00   45.90 
  -7  -6 -15   10.40   43.50 
  -6   7 -15  -16.70   62.49 
  -6   7  15   -6.70   15.60 
   7   4 -15   56.69   31.80 
   4  -7 -15   82.59   51.99 
   4  -7 -15   32.00   18.70 
  -4   7 -15   35.80   53.79 
  -7  -4 -15   45.30   39.80 
  -7  -4 -15   30.70   42.80 
  -4   7 -15    5.30   55.79 
   7   4 -15   42.00   39.50 
   4  -7 -15   54.89   33.90 
  -4   7  15   37.60   17.40 
  -7  -4  15    6.00   13.00 
  -7  -2 -15  111.99   67.89 
   7   2 -15   68.89   28.00 
   2  -7 -15  130.19   53.69 
   2  -7 -15   84.39   21.90 
   7   2 -15   52.69   23.50 
  -2   7 -15   61.59   52.69 
  -7  -2 -15   70.69   14.90 
   7   2 -15   25.30   37.30 
   2  -7 -15   52.59   26.20 
  -7  -2  15   95.89   21.20 
  -2   7  15   84.29   21.80 
  -7  -2  15   44.40   15.80 
  -7   0 -15   -3.20   13.30 
   7   0 -15  -25.00   31.20 
   0  -7 -15   -5.40   14.60 
   0  -7 -15  -19.60   26.80 
  -7   0 -15   -6.40    6.50 
   0  -7 -15   16.20   39.70 
   0   7 -15  -22.00   39.80 
  -7   0 -15   -3.40   32.90 
  -7   0 -15  -11.80   31.70 
   0  -7 -15    2.20   31.50 
   0   7  15  -10.80   13.70 
   0  -7  15  -10.80   12.20 
  -7   0  15  -22.50   13.30 
  -7   0  15  -11.50   10.20 
   7  -2 -15   48.80   23.60 
  -2  -7 -15   82.59   21.50 
   2   7 -15   39.00   43.00 
   2   7 -15   78.69   27.40 
  -7   2 -15   89.19   47.50 
  -2  -7 -15  106.09   46.50 
  -7   2 -15   55.99   20.50 
   7  -2 -15   69.19   29.90 
   2   7  15   86.39   23.20 
  -2  -7  15   77.09   18.60 
  -7   2  15   83.89   18.80 
  -7   2  15   91.89   22.20 
  -4  -7 -15   13.90   36.00 
   7  -4 -15   79.29   49.90 
   7  -4 -15   24.80   27.90 
  -7   4 -15    3.80   22.80 
   7  -4 -15   59.69   26.70 
  -4  -7 -15   59.39   45.60 
   7  -4 -15    0.70   24.30 
  -7   4 -15   21.00   42.70 
  -7   4 -15   98.19   52.59 
   4   7 -15   36.90   28.20 
  -4  -7  15   32.00   17.10 
   4   7  15   47.20   26.80 
  -7   4  15   24.10   16.40 
  -7   4  15   59.09   21.40 
  -7   6 -15    8.20   59.49 
  -6  -7 -15   64.39   53.79 
   7  -6 -15   42.60   33.50 
  -6  -7 -15  -11.10   38.20 
   7  -6 -15   21.10   33.30 
  -7   6 -15   -9.40   34.70 
   7  -6 -15    3.70   57.59 
   6   7 -15   26.50   48.20 
  -7   6 -15   47.80   53.59 
   6   7  15   28.40   32.70 
  -6  -7  15    3.50   16.50 
   8   5 -15   44.70   61.69 
  -5   8 -15   84.79   44.50 
   5  -8 -15   97.19   45.50 
   5  -8 -15  267.77   73.29 
  -5   8 -15  152.68   79.99 
  -8  -5 -15   81.49   54.09 
  -5   8  15   98.19   37.20 
  -8  -5  15   60.39   20.70 
   3  -8 -15    5.80   45.50 
  -8  -3 -15    4.90   15.20 
   8   3 -15   43.70   37.70 
   3  -8 -15   -3.70   29.00 
  -8  -3 -15   21.80   43.10 
   8   3 -15    7.20   38.10 
  -3   8 -15   35.00   32.40 
   3  -8 -15  -19.90   38.50 
   3  -8 -15    5.50   19.40 
  -3   8 -15   17.90   58.69 
  -8  -3 -15   14.50   41.10 
  -8  -3  15   -4.40   13.30 
  -3   8  15   -3.50   15.20 
  -8  -1 -15  119.49   47.70 
   1  -8 -15   36.90   40.50 
   8   1 -15   96.09   29.80 
   1  -8 -15  190.78   53.69 
   1  -8 -15   86.89   24.20 
  -1   8 -15   90.19   62.49 
   8   1 -15  116.39   33.90 
  -1   8 -15   59.69   35.50 
  -1   8  15   95.09   25.10 
  -8  -1  15   71.99   22.20 
  -8  -1  15   93.99   22.60 
  -1  -8 -15  188.88   54.99 
  -8   1 -15   76.59   50.69 
   8  -1 -15   14.20   27.90 
   1   8 -15   94.59   32.50 
   1   8 -15   19.20   58.99 
  -8   1 -15   77.69   20.40 
  -8   1 -15  162.88   83.79 
   8  -1 -15  139.39   35.70 
  -8   1  15  129.59   22.70 
   1   8  15   80.79   25.40 
  -1  -8  15   92.29   20.40 
  -8   1  15   82.59   23.40 
  -8   3 -15   -1.30   21.90 
  -8   3 -15   -1.80   45.40 
   3   8 -15  -11.50   27.40 
  -8   3 -15   34.00   50.09 
   8  -3 -15   -4.70   26.80 
   8  -3 -15  -37.00   44.70 
   8  -3 -15  -13.50   26.20 
   3   8 -15  -28.70   54.29 
   8  -3 -15   22.90   26.20 
  -3  -8 -15  -16.80   35.40 
  -8   3  15   -2.60   21.80 
  -8   3  15   26.50   15.40 
  -3  -8  15   12.70   14.50 
   5   8 -15   45.20   62.99 
   8  -5 -15  175.28   39.20 
  -5  -8 -15  153.58   57.19 
  -5  -8 -15  119.79   50.89 
   8  -5 -15   75.49   39.30 
  -8   5 -15   56.39   66.09 
  -8   5 -15  145.89   67.89 
   8  -5 -15  240.28   84.19 
  -8   5 -15  101.49   39.20 
   5   8 -15   70.39   46.40 
   5   8  15  118.59   41.10 
  -5  -8  15   90.19   24.70 
  -8   5  15   74.59   35.40 
  -9  -2 -15  -22.40   52.39 
   9   2 -15  -15.00   46.30 
  -9  -2 -15  -25.00   46.20 
   9   2 -15   48.90   40.10 
   2  -9 -15   45.10   45.80 
   9   2 -15   10.90   33.80 
  -2   9  15    6.00   19.90 
  -9  -2  15   22.50   16.40 
  -9   0 -15   -0.70   46.60 
   9   0 -15   -4.80   31.70 
   0  -9 -15  -29.10   43.40 
   9   0 -15   -0.50   57.19 
   0   9  15    0.30   22.60 
  -9   0  15    4.20   13.00 
   9  -2 -15   19.00   57.09 
  -9   2 -15  -58.09   47.70 
  -2  -9 -15  -32.80   78.69 
  -2  -9 -15  -21.10   43.10 
   2   9 -15   28.80   44.00 
  -9   2 -15  -23.50   49.30 
  -9   2  15   25.00   17.20 
   2   9  15  -12.60   26.70 
   0   0 -16  257.37   41.10 
   0   0 -16  370.06   47.80 
   0   0 -16  330.07   58.69 
   0   0 -16  310.17   42.60 
   0   0 -16  335.37   61.99 
   0   0  16  297.17   38.10 
   0   0  16  340.47   38.50 
  -1   1 -16   76.19   18.40 
   1   1 -16   60.49   17.70 
  -1   1 -16   32.40   13.50 
   1  -1 -16   72.09   19.20 
  -1  -1 -16   67.69   33.00 
   1  -1 -16   58.49   30.90 
  -1   1 -16   59.49   19.40 
  -1  -1 -16   43.10   15.80 
  -1  -1 -16   25.70   46.40 
   1  -1 -16   55.59   17.30 
   1   1 -16  111.29   51.39 
   1   1 -16   80.89   23.00 
   1   1 -16   37.30   15.50 
  -1  -1 -16   92.49   22.20 
  -1   1 -16   42.00   45.90 
  -1  -1 -16   39.40   14.60 
  -1  -1 -16   62.89   18.90 
  -1   1  16   55.99   14.40 
   1  -1  16   57.79   12.60 
   1  -1  16   43.10   11.40 
  -1  -1  16   56.99   12.80 
   1   1  16   44.10   13.00 
  -1  -1  16   53.49   14.10 
  -1   1  16   60.19   13.90 
   0  -2 -16  122.29   22.60 
   2   0 -16  133.99   52.79 
   0  -2 -16  190.68   28.00 
   0  -2 -16  134.39   38.70 
  -2   0 -16  111.99   25.10 
  -2   0 -16   98.89   22.00 
   2   0 -16  118.79   25.30 
  -2   0 -16   94.69   20.70 
  -2   0 -16  105.99   21.10 
   2   0 -16   94.39   22.70 
   0   2 -16   74.69   54.29 
   0   2 -16  130.69   25.30 
   0   2 -16   98.19   20.70 
  -2   0  16  169.78   22.80 
   0  -2  16  124.79   20.00 
  -2   0  16  156.68   23.20 
   2   0  16  141.29   20.30 
   0  -2  16  136.19   20.70 
  -2  -2 -16  223.38   51.69 
   2  -2 -16  215.78   36.40 
   2  -2 -16  297.97   41.00 
  -2  -2 -16  293.47   61.79 
   2   2 -16  187.78   40.90 
   2   2 -16  245.18   43.90 
   2  -2 -16  229.58   59.69 
  -2   2 -16  175.08   55.79 
  -2  -2 -16  230.88   36.30 
   2   2 -16  268.47   49.99 
  -2  -2 -16  211.98   37.40 
  -2   2 -16  236.18   59.49 
  -2   2 -16  214.98   34.10 
  -2  -2  16  312.17   34.00 
  -2   2  16  262.17   32.60 
   2  -2  16  239.98   29.90 
  -2  -2  16  288.57   35.80 
  -2   2  16  249.97   33.60 
   2   2  16  248.48   33.00 
  -1   3 -16   49.10   17.10 
   3   1 -16   29.00   15.80 
  -3  -1 -16   45.70   14.60 
   1  -3 -16   64.99   19.10 
   1  -3 -16   49.20   15.60 
  -3  -1 -16   56.69   29.60 
   3   1 -16   33.40   20.40 
  -3  -1 -16   27.70   16.00 
   1  -3 -16   36.50   24.50 
  -3  -1 -16   45.10   18.80 
  -1   3 -16   39.40   33.20 
   1  -3 -16   58.09   20.10 
   1  -3 -16   57.09   33.50 
   3   1  16   51.89   13.90 
  -3  -1  16   57.89   15.00 
  -1   3  16   55.09   14.00 
   1  -3  16   61.19   12.80 
  -3  -1  16   17.20   12.30 
  -1  -3 -16   44.00   14.40 
  -1  -3 -16   39.70   25.60 
  -1  -3 -16   35.20   16.90 
   1   3 -16   45.30   19.20 
  -1  -3 -16   53.79   30.40 
   1   3 -16    5.40   24.30 
  -3   1 -16   22.20   11.80 
   3  -1 -16   21.30   17.40 
   3  -1 -16   34.30   18.10 
  -3   1 -16   25.00   14.90 
  -3   1 -16   40.30   32.10 
  -1  -3 -16   29.90   32.90 
  -1  -3  16   37.10   12.40 
   1   3  16   67.69   17.40 
  -3   1  16   49.50   14.00 
   3  -1  16   33.50   10.20 
  -3   1  16   68.59   14.80 
  -3  -3 -16   25.10   14.30 
   3  -3 -16    5.30   23.40 
  -3   3 -16    7.20    9.70 
   3  -3 -16   -7.40   19.80 
  -3  -3 -16    7.40   15.10 
  -3  -3 -16   14.70   33.30 
  -3  -3 -16   -8.70   21.80 
  -3   3 -16    8.30   15.40 
  -3  -3 -16   20.80   25.20 
   3  -3 -16  -17.60   16.50 
   3   3 -16   15.80   17.20 
  -3   3 -16   22.60   29.20 
   3  -3 -16    7.50   31.70 
   3   3 -16  -20.30   23.40 
  -3   3 -16   -7.00   27.80 
  -3   3  16    9.80   11.10 
   3   3  16    1.20   13.30 
  -3   3  16    3.30   12.30 
   3  -3  16   -3.10    6.80 
  -3  -3  16    5.30   11.10 
   2  -4 -16  130.69   44.10 
   2  -4 -16  166.78   26.90 
   4   2 -16   99.79   25.80 
   2  -4 -16  144.09   37.40 
  -4  -2 -16  130.19   24.20 
   4   2 -16  126.19   48.70 
  -2   4 -16  129.89   46.20 
   2  -4 -16  139.69   29.70 
   2  -4 -16  197.48   31.90 
  -4  -2 -16  146.29   48.30 
   4   2 -16  247.58   37.50 
  -4  -2 -16  168.88   26.50 
  -4  -2 -16   97.79   25.20 
  -4  -2 -16  132.79   42.30 
  -4  -2  16  191.68   26.40 
  -2   4  16  141.89   24.20 
   4   2  16  113.89   23.90 
  -4  -2  16  155.78   25.00 
  -4   0 -16  174.58   29.60 
  -4   0 -16  177.08   48.80 
   0  -4 -16  204.18   46.10 
   0  -4 -16  184.78   33.90 
  -4   0 -16  146.39   26.70 
   4   0 -16  199.98   32.60 
  -4   0 -16  149.29   64.29 
   0   4 -16  188.88   34.10 
   0   4 -16  162.48   50.49 
   0  -4 -16  317.67   36.50 
  -4   0 -16  139.09   26.60 
   0  -4 -16  167.48   49.40 
   0  -4 -16  170.98   29.10 
   4   0 -16  178.28   33.60 
   0   4  16  204.08   28.20 
   0  -4  16  194.28   26.80 
  -4   0  16  188.48   28.40 
  -4   0  16  219.08   28.40 
   4  -2 -16  235.98   42.10 
   2   4 -16  128.59   41.60 
  -4   2 -16  109.09   24.80 
  -2  -4 -16  134.19   39.10 
   2   4 -16  207.38   34.60 
  -4   2 -16   86.09   19.20 
  -4   2 -16  212.98   55.59 
  -2  -4 -16  160.08   26.80 
  -4   2 -16  170.28   49.70 
   4  -2 -16  246.28   76.99 
  -2  -4 -16  136.19   46.80 
   4  -2 -16  242.48   36.90 
   4  -2  16  122.59   18.20 
  -4   2  16  201.58   25.70 
   2   4  16  168.88   27.80 
  -2  -4  16  177.58   27.10 
  -4  -4 -16   53.39   18.30 
  -4   4 -16   59.09   23.30 
   4   4 -16   26.60   41.40 
   4  -4 -16   88.29   31.30 
  -4  -4 -16   69.79   38.20 
  -4   4 -16   13.50   42.60 
  -4  -4 -16   79.69   21.90 
   4  -4 -16   15.70   31.50 
   4  -4 -16  104.19   47.20 
   4   4 -16  110.99   43.80 
  -4   4 -16   62.59   41.40 
   4  -4 -16   81.19   27.00 
  -4   4  16   85.39   18.70 
  -4  -4  16   74.99   17.20 
   4   4  16   68.99   22.00 
   3  -5 -16   61.49   26.20 
   3  -5 -16  127.79   48.30 
   5   3 -16  124.59   39.90 
   3  -5 -16  101.39   23.40 
   3  -5 -16  111.89   38.30 
  -3   5 -16   67.79   54.39 
   3  -5 -16  167.78   33.00 
  -3   5 -16  105.29   27.00 
  -5  -3 -16   69.79   20.20 
  -5  -3 -16   96.49   46.10 
  -3   5  16   66.59   20.80 
   5   3  16   78.99   20.60 
  -5  -3  16  113.59   21.70 
   5   1 -16   -2.40   18.20 
   5   1 -16  -16.00   16.60 
   1  -5 -16   18.50   23.20 
  -5  -1 -16   -8.30   14.30 
   5   1 -16   -0.20   27.40 
  -5  -1 -16   29.60   16.10 
   1  -5 -16  -11.90   13.20 
   1  -5 -16    5.60   21.90 
  -5  -1 -16  -20.30   27.30 
   1  -5 -16    6.00   35.00 
  -5  -1 -16    1.90   11.40 
  -5  -1 -16    9.70   33.50 
  -1   5 -16   11.90   33.30 
  -1   5 -16    5.10   19.20 
   1  -5 -16    7.00   21.30 
  -1   5  16  -15.70   11.00 
  -5  -1  16   14.40   13.00 
  -5  -1  16   -2.50   11.30 
   1  -5  16   10.30   17.10 
   5  -1 -16   13.00   19.10 
  -5   1 -16    3.40   30.40 
   1   5 -16   -4.00   18.00 
  -1  -5 -16    5.70   24.50 
   5  -1 -16   35.30   33.60 
  -5   1 -16    3.80    7.80 
  -5   1 -16   15.70   14.10 
   1   5 -16   -9.90   31.80 
  -1  -5 -16   16.30   17.30 
  -1  -5 -16   -7.60   13.70 
  -5   1 -16   34.30   31.10 
  -1  -5 -16    8.50   31.80 
   5  -1 -16    5.30   19.70 
   1   5  16  -13.90   13.00 
  -5   1  16    3.60   14.60 
  -1  -5  16    3.80   11.70 
   5  -1  16    9.50    7.00 
  -5   1  16    6.30   12.20 
  -3  -5 -16   98.29   22.40 
  -5   3 -16  119.69   47.20 
   5  -3 -16  125.09   45.10 
  -3  -5 -16   93.49   21.40 
  -5   3 -16   68.69   22.40 
  -3  -5 -16  117.09   43.80 
  -5   3 -16   57.79   41.40 
   3   5 -16   49.80   35.80 
   5  -3 -16  138.29   36.50 
   3   5  16   70.89   24.50 
  -3  -5  16  102.39   19.60 
  -5   3  16   94.39   20.70 
   5  -5 -16    3.70   25.50 
   5  -5 -16   38.50   31.30 
   5   5 -16  -33.60   26.80 
  -5   5 -16   22.00   38.10 
   5  -5 -16   30.40   24.30 
  -5  -5 -16    4.60   60.29 
  -5   5 -16   20.50   81.19 
  -5  -5 -16    1.50   33.00 
  -5   5 -16    4.90   22.90 
  -5   5  16   27.50   16.40 
  -5  -5  16   -0.20   12.60 
   5   5  16   38.40   24.00 
  -6  -4 -16   53.69   43.30 
  -4   6 -16   19.30   29.60 
   6   4 -16   48.50   37.80 
  -4   6 -16   18.00   55.09 
   4  -6 -16   67.59   31.30 
   4  -6 -16   47.10   21.80 
   4  -6 -16   70.89   51.29 
   4  -6 -16  127.79   32.90 
  -6  -4 -16   12.10   37.00 
   6   4 -16   30.40   28.30 
  -6  -4  16   56.39   18.00 
   6   4  16   36.80   23.70 
  -2   6 -16   -5.00   20.70 
   2  -6 -16   43.10   18.40 
   6   2 -16   17.50   33.60 
   2  -6 -16   25.40   30.40 
   2  -6 -16   13.50   23.90 
   2  -6 -16   56.49   25.90 
   6   2 -16   19.30   25.00 
   6   2 -16   41.20   27.50 
  -6  -2 -16   38.70   14.30 
  -2   6 -16   76.99   51.79 
   2  -6 -16   58.19   47.10 
  -6  -2 -16   22.50   37.10 
  -6  -2 -16   29.30   14.20 
  -6  -2 -16   32.80   40.50 
  -2   6  16   11.10   15.70 
  -6  -2  16   39.80   18.80 
  -6  -2  16   42.30   16.70 
   6   0 -16  176.98   35.80 
  -6   0 -16  193.08   56.39 
   0  -6 -16  273.17   38.10 
   6   0 -16  233.28   44.60 
  -6   0 -16  256.27   61.39 
  -6   0 -16  185.28   32.60 
   0  -6 -16  173.38   47.50 
   0   6 -16  201.88   71.69 
   0  -6 -16  321.97   72.59 
   6   0 -16  254.67   55.79 
  -6   0  16  254.27   36.50 
  -6   0  16  276.47   33.50 
   0  -6  16  202.48   31.60 
   0   6  16  235.58   37.10 
   6  -2 -16   14.20   24.70 
   6  -2 -16   17.60   28.90 
  -6   2 -16   39.80   19.80 
  -2  -6 -16   24.60   18.50 
   2   6 -16   60.39   26.40 
   6  -2 -16   34.10   36.80 
   2   6 -16   49.90   39.50 
  -2  -6 -16   50.99   38.60 
  -6   2 -16   67.09   39.70 
  -6   2 -16   32.50   39.00 
  -6   2  16   45.00   25.20 
   2   6  16    3.20   18.10 
  -6   2  16   36.80   14.30 
  -2  -6  16   32.90   17.60 
   4   6 -16   35.90   30.10 
  -4  -6 -16   39.60   35.90 
  -6   4 -16   97.19   56.09 
   6  -4 -16   62.99   32.70 
   6  -4 -16   70.89   28.50 
   6  -4 -16   44.70   48.00 
  -4  -6 -16   94.39   48.10 
  -6   4 -16   47.80   25.60 
  -6   4 -16   88.89   50.39 
  -4  -6  16   52.99   19.40 
   4   6  16   92.09   28.70 
  -6   4  16   19.70   29.90 
  -6   4  16   64.39   22.00 
   6   6 -16  110.29   58.99 
  -6   6 -16  160.98   66.49 
   6  -6 -16  148.59   43.60 
   6  -6 -16  143.69   48.10 
  -6   6 -16  132.39   72.19 
  -6  -6 -16  329.37   69.69 
  -6  -6 -16  118.19   56.29 
  -6   6  16  128.59   28.00 
  -6  -6  16  132.99   26.60 
  -7  -5 -16   -7.30   45.70 
  -5   7 -16   -2.80   49.99 
   5  -7 -16  -36.40   40.50 
   5  -7 -16   29.40   52.59 
  -5   7 -16   18.20   38.30 
  -5   7 -16   82.29   63.59 
   7   5 -16  -65.29   43.90 
  -7  -5 -16    4.30   45.90 
  -7  -5  16   -0.40   16.00 
  -5   7  16   -7.70   17.80 
   3  -7 -16   18.40   47.60 
  -7  -3 -16   37.60   44.10 
   7   3 -16  -22.10   35.50 
   7   3 -16   17.30   28.20 
   3  -7 -16   25.90   30.60 
   3  -7 -16    7.20   35.20 
  -3   7 -16   29.60   64.79 
  -7  -3 -16    3.30   37.80 
   3  -7 -16   17.50   22.70 
  -3   7 -16   20.70   28.50 
  -7  -3  16   10.80   13.10 
  -3   7  16    9.30   18.60 
   7   1 -16   36.60   38.00 
   1  -7 -16   20.80   21.20 
  -1   7 -16   40.90   51.49 
  -7  -1 -16   18.50    8.60 
  -7  -1 -16   25.30   41.00 
   7   1 -16    0.30   26.20 
  -7  -1 -16   22.80   17.30 
   7   1 -16    4.60   24.00 
  -7  -1 -16   67.59   46.70 
   1  -7 -16   18.10   35.30 
   1  -7 -16   23.30   39.10 
  -1   7 -16   45.90   26.50 
  -7  -1  16   39.30   17.00 
  -7  -1  16   -1.50   12.50 
  -1   7  16   23.50   16.90 
   1   7 -16  -23.10   50.49 
  -1  -7 -16    3.60   36.00 
   7  -1 -16   -1.70   23.80 
   1   7 -16   24.90   28.30 
  -1  -7 -16   56.09   46.70 
   7  -1 -16   26.20   40.70 
  -7   1 -16   25.30   18.20 
   7  -1 -16   24.30   24.60 
  -7   1 -16   50.89   42.50 
  -7   1  16   27.90   17.80 
  -7   1  16    6.20   12.80 
  -1  -7  16   38.00   16.60 
   1   7  16   57.09   22.90 
  -7   3 -16  -23.00   21.90 
   7  -3 -16   45.50   29.00 
  -7   3 -16   49.20   47.00 
  -3  -7 -16    1.30   37.00 
   3   7 -16   22.90   44.20 
   7  -3 -16   63.39   31.70 
   3   7 -16   19.30   27.80 
  -3  -7 -16   11.40   45.10 
   7  -3 -16   34.10   46.40 
  -7   3  16   -0.70   14.00 
  -7   3  16   -2.70   31.40 
   3   7  16   17.30   25.30 
  -3  -7  16   20.40   15.70 
  -5  -7 -16    2.20   43.30 
   7  -5 -16  -12.60   30.90 
  -5  -7 -16  -10.60   44.30 
  -7   5 -16   -4.70   53.79 
   7  -5 -16  -43.50   28.10 
   7  -5 -16   59.29   58.09 
  -7   5 -16  -25.40   29.00 
   5   7 -16  -33.70   50.39 
  -7   5 -16   15.10   57.29 
  -7   5  16   -5.50   14.50 
  -5  -7  16   27.00   19.60 
   5   7  16  -28.40   30.40 
   8   4 -16   97.69   53.39 
  -8  -4 -16  100.09   55.29 
   4  -8 -16  127.29   49.90 
  -8  -4 -16   92.69   55.79 
   8   4 -16   39.50   51.09 
  -4   8 -16   69.09   46.80 
  -4   8  16   97.49   25.50 
  -8  -4  16   94.39   21.80 
  -2   8 -16   16.40   74.39 
   2  -8 -16  131.69   48.90 
   8   2 -16   74.19   45.60 
  -8  -2 -16   93.89   56.69 
  -8  -2 -16   94.59   50.89 
   8   2 -16   90.99   35.20 
  -2   8 -16   85.69   42.80 
   2  -8 -16  167.68   59.39 
  -2   8  16   50.59   23.00 
  -8  -2  16   53.69   18.40 
   8   0 -16  -42.70   44.20 
   8   0 -16    3.90   28.30 
   0   8 -16  -70.29   62.89 
  -8   0 -16   -7.10   45.00 
   0  -8 -16   41.60   43.40 
   8   0 -16  -12.80   26.70 
  -8   0 -16    2.50   52.09 
   0   8 -16    6.70   32.90 
   0  -8 -16   20.90   44.90 
   0   8  16   12.00   20.20 
  -8   0  16   11.60   13.80 
  -8   0  16   13.60   18.90 
   8  -2 -16   75.69   32.60 
   8  -2 -16  119.49   39.40 
  -8   2 -16  115.29   58.19 
  -8   2 -16  105.39   27.40 
   8  -2 -16   92.59   38.60 
   8  -2 -16   78.39   53.39 
  -8   2 -16   98.49   51.29 
  -2  -8 -16  218.68   90.79 
   2   8 -16   83.69   65.49 
  -8   2  16  103.99   42.00 
  -2  -8  16   66.19   22.40 
   2   8  16   99.59   29.40 
  -8   2  16   46.30   19.20 
   8  -4 -16  187.78  116.89 
  -4  -8 -16   61.99   53.99 
  -8   4 -16  113.19   68.59 
   8  -4 -16   85.99   36.60 
  -8   4 -16  136.49   36.70 
   4   8 -16   62.99   76.39 
   4   8 -16   25.00   39.60 
  -4  -8 -16  116.59   57.09 
  -4  -8  16   80.19   22.10 
  -8   4  16   72.09   26.50 
   4   8  16  125.49   42.00 
   1  -9 -16   -3.60   51.29 
  -9  -1 -16   -6.00   60.29 
  -1   9 -16   22.10   81.79 
   1  -9 -16   42.50   50.99 
   9   1 -16    2.80   48.50 
   9   1 -16   26.00   54.09 
  -1   9 -16  -34.00   40.90 
  -9  -1  16   28.60   17.50 
  -1   9  16   -8.80   22.00 
  -9   1 -16    7.90   55.19 
   9  -1 -16   51.39   36.80 
  -9   1 -16  -13.90   59.19 
   1   9 -16   37.10   37.80 
   1   9 -16  -45.70   70.29 
  -1  -9 -16   39.90   53.59 
  -1  -9 -16   23.40   47.00 
   9  -1 -16   33.10   58.99 
   1   9  16   36.90   26.30 
  -9   1  16   -3.40   16.60 
   0   1 -17    4.60   16.80 
   0  -1 -17    9.80   30.90 
   1   0 -17   -9.40   24.90 
   0  -1 -17  -30.10   22.40 
  -1   0 -17   14.60   31.20 
   1   0 -17    9.20   25.40 
  -1   0 -17    2.70   15.90 
  -1   0 -17    9.60   26.30 
  -1   0 -17  -28.30   20.30 
   0  -1 -17   -5.50   16.00 
   0   1 -17    1.80   27.80 
   0   1  17   16.60   11.20 
   1   0  17   10.70   10.10 
   0  -1  17  -11.90    9.90 
  -1   0  17   -2.70   10.50 
   2   1 -17  162.38   43.90 
   1  -2 -17  196.28   49.40 
  -1   2 -17  141.49   46.50 
  -2  -1 -17  169.48   49.00 
  -2  -1 -17  162.58   33.20 
  -2  -1 -17  228.98   54.39 
  -2  -1 -17  167.08   29.80 
   2   1 -17  180.58   32.60 
   1  -2 -17  211.48   48.20 
  -2  -1 -17  160.18   28.20 
  -1   2 -17  154.88   31.40 
  -1   2  17  166.28   26.90 
   1  -2  17  145.29   24.40 
   2   1  17  193.08   26.70 
  -2  -1  17  183.38   25.60 
   1   2 -17  191.18   49.10 
   2  -1 -17  174.68   49.40 
  -1  -2 -17  179.28   50.79 
  -1  -2 -17  199.58   47.70 
  -2   1 -17  200.78   32.10 
   1   2 -17  175.38   32.20 
  -2   1 -17  174.88   27.10 
   2  -1 -17  172.68   34.30 
  -1  -2 -17  198.48   31.90 
  -1  -2 -17  209.28   31.50 
   2  -1 -17  125.89   29.70 
  -2   1 -17  183.28   47.10 
  -2   1 -17  171.88   30.80 
  -1  -2 -17  166.58   42.70 
   2  -1 -17  264.07   49.30 
  -2   1 -17  143.59   48.70 
   1   2  17  180.58   28.30 
   2  -1  17  173.98   25.40 
  -2   1  17  183.08   26.50 
  -1  -2  17  187.88   26.90 
  -2   1  17  150.18   27.20 
  -3  -2 -17   29.60   15.20 
  -2   3 -17    9.00   38.10 
   3   2 -17   44.10   31.20 
  -3  -2 -17    9.90   28.10 
   2  -3 -17   24.80   33.40 
   2  -3 -17   37.50   22.00 
   2  -3 -17    4.20   18.40 
  -3  -2 -17   18.90   38.30 
  -2   3 -17   -1.30   18.60 
  -3  -2 -17   19.10   18.40 
   3   2 -17   27.30   20.00 
   2  -3 -17   16.80   26.50 
   3   2  17   29.10   14.40 
  -3  -2  17   26.10   13.70 
  -2   3  17    8.80   11.90 
   2  -3  17    0.20    9.60 
   0  -3 -17   11.60   23.80 
  -3   0 -17    0.50   16.00 
   3   0 -17  -12.30   17.50 
  -3   0 -17    5.60   33.70 
   0  -3 -17    0.10   34.90 
  -3   0 -17   22.20   12.70 
   3   0 -17   16.60   17.10 
   0  -3 -17    8.40   14.00 
  -3   0 -17  -38.10   17.90 
   0   3 -17  -19.80   16.20 
   3   0 -17   -4.80   27.70 
   0   3 -17    8.80   27.80 
   0  -3 -17  -24.40   17.10 
  -3   0 -17  -13.50   25.30 
   0  -3  17   -1.60   11.20 
  -3   0  17    3.80   15.80 
   0   3  17   -8.30   10.80 
  -3   0  17    9.20   11.40 
   2   3 -17   26.40   19.10 
  -3   2 -17   45.80   38.10 
   2   3 -17   22.00   32.20 
  -2  -3 -17   17.50   39.00 
  -3   2 -17   24.40   33.00 
  -2  -3 -17    8.60   14.70 
   3  -2 -17   28.40   22.00 
  -3   2 -17   22.40   11.90 
  -2  -3 -17   10.70   28.00 
  -3   2 -17   19.90   14.10 
   3  -2 -17    5.30   24.10 
  -2  -3 -17   53.19   18.90 
   3  -2 -17   -0.30   18.50 
   3  -2 -17   49.40   32.10 
  -3   2  17   29.10   14.30 
   3  -2  17   19.00    9.30 
   2   3  17   17.10   14.30 
  -3   2  17   19.00   13.60 
  -2  -3  17   24.40   12.80 
  -4  -3 -17    2.50   16.30 
  -4  -3 -17   26.20   30.70 
  -4  -3 -17    0.30   41.70 
  -3   4 -17   -0.80   19.70 
   3  -4 -17   12.90   24.50 
   3  -4 -17    6.00   23.80 
  -3   4 -17    7.60   11.80 
  -4  -3 -17   14.60   17.10 
   3  -4 -17   18.00   21.70 
   4   3 -17   -1.50   20.40 
   3  -4 -17   22.90   17.90 
  -3   4 -17   -7.20   40.10 
   4   3  17    7.40   17.20 
  -4  -3  17   30.60   14.40 
  -3   4  17    8.10   21.10 
  -4  -1 -17   35.40   25.50 
  -1   4 -17   67.59   22.30 
   1  -4 -17   69.69   40.20 
   4   1 -17   58.49   22.40 
  -1   4 -17   75.19   43.90 
  -4  -1 -17   43.40   20.70 
   1  -4 -17   78.19   23.40 
   1  -4 -17  120.19   37.90 
   1  -4 -17   45.30   18.80 
  -4  -1 -17   86.09   40.60 
  -4  -1 -17   56.29   43.10 
   4   1  17   18.30   14.50 
   1  -4  17   52.69   20.60 
  -1   4  17   60.09   18.00 
  -4  -1  17   83.19   18.80 
   4  -1 -17   29.10   20.50 
   1   4 -17   45.30   23.50 
   4  -1 -17   82.89   24.90 
   1   4 -17   30.10   33.70 
  -4   1 -17   68.99   20.30 
  -4   1 -17   40.20   13.80 
  -1  -4 -17   84.99   33.20 
  -4   1 -17   43.60   16.10 
  -4   1 -17   31.90   40.30 
  -1  -4 -17   30.40   45.50 
  -1  -4 -17   60.79   19.10 
  -4   1 -17    2.20   34.50 
   4  -1 -17  107.19   48.20 
  -1  -4 -17   78.69   22.50 
  -4   1  17   42.70   14.80 
  -1  -4  17   47.80   15.20 
  -4   1  17   57.99   17.30 
   1   4  17   67.09   18.40 
   4  -1  17   39.90   11.90 
   4  -3 -17    3.30   27.90 
   4  -3 -17   11.40   32.80 
  -3  -4 -17   -6.90   29.30 
  -3  -4 -17  -14.40   17.00 
  -4   3 -17   -6.50    8.60 
   4  -3 -17   -9.50   21.30 
  -4   3 -17   19.60   20.20 
  -4   3 -17   14.30   40.50 
   3   4 -17  -27.60   21.90 
  -4   3 -17   49.40   45.50 
  -3  -4 -17   21.70   17.80 
  -4   3  17    6.20   15.80 
  -4   3  17    4.00   13.80 
  -3  -4  17   -5.90   12.80 
   4  -5 -17   58.59   24.30 
   4  -5 -17  110.39   30.30 
   5   4 -17   -7.30   33.90 
  -4   5 -17   38.40   51.59 
   4  -5 -17   85.09   44.70 
  -5  -4 -17   54.79   37.10 
  -4   5 -17   48.60   25.70 
   5   4 -17   54.19   27.00 
   4  -5 -17   71.09   31.70 
  -5  -4 -17   46.50   44.80 
  -4   5 -17   51.19   45.20 
  -5  -4  17   45.30   16.50 
   5   4  17    1.30   21.40 
  -4   5  17   50.29   18.70 
  -5  -2 -17  105.59   23.80 
   2  -5 -17  136.49   40.50 
   2  -5 -17  260.27   37.40 
   2  -5 -17  153.28   30.20 
  -5  -2 -17  128.39   25.30 
  -5  -2 -17   96.09   44.50 
  -2   5 -17  153.88   33.70 
   5   2 -17  155.08   34.90 
  -5  -2 -17  185.68   57.59 
   5   2 -17  108.69   42.50 
  -2   5 -17  113.79   59.29 
   2  -5 -17  168.38   52.79 
  -5  -2  17  156.68   26.00 
   0   5 -17  -18.50   38.10 
   0  -5 -17    5.80   16.50 
   0  -5 -17  -13.70   38.40 
  -5   0 -17    6.00   17.80 
  -5   0 -17   -3.00   11.50 
   0  -5 -17    4.90   21.10 
   5   0 -17    3.40   33.60 
   5   0 -17   13.90   33.70 
  -5   0 -17    1.20   39.30 
   0  -5 -17  -11.00   25.70 
   5   0 -17   -6.20   19.80 
   0  -5  17   -5.20   12.90 
   0   5  17   -8.30   13.90 
  -5   0  17  -16.10   11.20 
   2   5 -17  121.29   50.09 
  -5   2 -17  156.28   55.99 
   5  -2 -17  178.48   45.70 
   5  -2 -17  127.39   30.60 
   5  -2 -17  175.78   35.30 
  -2  -5 -17  143.99   54.69 
   5  -2 -17  169.48   51.29 
  -2  -5 -17  169.58   48.60 
   2   5 -17  149.59   36.50 
  -2  -5 -17  161.28   29.40 
  -5   2 -17  115.69   27.90 
  -2  -5 -17   87.89   41.20 
  -2  -5  17  129.89   25.10 
  -5   2  17  175.38   30.50 
   2   5  17  137.09   27.90 
  -5   2  17  180.68   28.40 
   5  -4 -17   59.59   46.00 
  -4  -5 -17   97.49   51.59 
  -4  -5 -17   60.69   41.80 
   5  -4 -17   69.39   33.50 
  -5   4 -17   20.90   48.50 
  -5   4 -17   45.20   53.39 
  -5   4 -17   47.60   25.40 
   5  -4 -17  115.39   30.40 
   4   5 -17   47.30   28.60 
   5  -4 -17   22.20   29.20 
   4   5  17   59.19   25.30 
  -4  -5  17   46.30   16.90 
  -5   4  17   31.40   21.40 
  -5   4  17   34.40   19.10 
   6   5 -17   27.80   57.69 
  -6  -5 -17    8.00   43.50 
  -6  -5 -17   11.90   43.40 
   5  -6 -17    9.70   48.90 
  -5   6 -17   12.20   66.79 
   6   5 -17    8.10   48.50 
  -5   6 -17   80.79   49.99 
   5  -6 -17   16.80   37.30 
  -5   6 -17   32.80   34.00 
  -5   6  17    1.40   16.10 
  -6  -5  17    2.90   17.70 
   6   3 -17   -7.80   24.70 
  -6  -3 -17   27.50   70.89 
   6   3 -17    4.40   44.40 
  -3   6 -17   50.89   28.00 
   3  -6 -17  -13.80   39.10 
   3  -6 -17    0.80   24.90 
   3  -6 -17   40.60   36.10 
  -3   6 -17   -2.10   58.59 
  -6  -3 -17   -9.10   37.70 
  -3   6  17   22.90   16.60 
  -6  -3  17   19.00   16.70 
  -6  -1 -17   13.10   12.90 
   6   1 -17   13.10   26.00 
  -6  -1 -17    5.10   45.70 
  -1   6 -17   26.40   26.30 
  -6  -1 -17   29.40   43.90 
   1  -6 -17   18.90   33.90 
  -1   6 -17   -4.50   48.00 
   6   1 -17   68.09   41.60 
  -6  -1 -17   -0.90   18.10 
   1  -6 -17   14.30   43.80 
   1  -6 -17   -2.30   23.90 
  -1   6  17   13.10   16.10 
  -6  -1  17   24.50   13.90 
  -6   1 -17  -23.20   36.80 
   1   6 -17  -26.30   25.70 
  -1  -6 -17   33.50   37.10 
  -6   1 -17  -15.00   39.80 
   6  -1 -17   20.90   23.90 
  -1  -6 -17   28.50   23.90 
   6  -1 -17   65.29   28.40 
   1   6 -17    1.60   38.30 
  -1  -6 -17   12.20   39.20 
  -6   1 -17   -9.50   19.50 
   6  -1 -17   33.70   39.10 
  -1  -6  17   42.90   16.30 
  -6   1  17   -6.50   28.90 
   1   6  17   17.20   18.80 
  -6   1  17    9.30   14.60 
  -3  -6 -17  -19.00   34.10 
  -6   3 -17   54.99   45.70 
  -3  -6 -17   -9.30   39.30 
  -6   3 -17    9.60   22.90 
   6  -3 -17  -20.80   26.00 
   6  -3 -17   -3.10   27.90 
   3   6 -17    3.00   44.90 
   3   6 -17  -11.90   28.70 
   6  -3 -17  -37.10   27.70 
  -6   3  17   -3.80   13.60 
  -3  -6  17   -2.60   16.20 
  -6   3  17    5.90   19.70 
   3   6  17    3.10   23.80 
  -5  -6 -17   -7.50   39.60 
  -5  -6 -17   31.20   49.10 
  -6   5 -17    9.70   55.09 
  -6   5 -17   52.49   32.60 
   5   6 -17  -19.90   38.00 
   5   6 -17  -28.20   42.50 
   6  -5 -17   40.80   33.80 
   6  -5 -17   51.89   53.99 
   6  -5 -17   15.50   32.10 
  -6   5 -17   31.30   65.79 
  -6   5  17   28.60   17.30 
   5   6  17  -10.50   30.70 
  -5  -6  17   -9.00   18.80 
   4  -7 -17    5.80   40.70 
  -4   7 -17   -8.60   38.30 
   7   4 -17   70.79   47.60 
   7   4 -17  -18.70   33.30 
  -7  -4 -17   32.20   48.50 
  -7  -4 -17   -3.90   47.70 
  -7  -4  17   16.30   15.90 
  -4   7  17  -17.40   17.30 
   7   2 -17   -8.20   31.20 
  -2   7 -17   -8.10   32.50 
  -7  -2 -17    1.30   13.20 
  -2   7 -17   -1.00   63.39 
   2  -7 -17   18.90   51.59 
  -7  -2 -17    2.40   44.30 
  -7   0 -17    5.30   31.20 
  -7   0 -17  -52.29   45.70 
   7   0 -17  -25.80   41.70 
   0   7 -17  -41.30   25.10 
   0   7 -17  -78.69   53.99 
   0  -7 -17  -21.30   38.20 
   7   0 -17  -63.39   29.50 
  -7   0 -17  -20.60   46.50 
   0  -7 -17  -16.80   39.10 
  -7   0  17    2.80   13.80 
   0   7  17    0.40   20.00 
  -2  -7 -17   30.80   44.30 
  -7   2 -17   24.10   24.20 
  -7   2 -17   17.80   45.90 
   7  -2 -17   -3.70   31.70 
   7  -2 -17   -4.70   32.90 
   7  -2 -17   38.20   31.20 
  -2  -7 -17  -10.50   42.20 
   2   7 -17   22.90   48.50 
   2   7 -17   40.40   34.70 
  -7   2  17   23.90   15.30 
  -2  -7  17  -10.60   17.90 
   2   7  17   -1.40   27.50 
   7  -4 -17   28.50   30.60 
  -7   4 -17   18.20   59.39 
  -7   4 -17  -29.10   30.00 
   4   7 -17  -36.90   32.90 
   7  -4 -17   -1.30   51.39 
   7  -4 -17   14.60   34.50 
  -4  -7 -17   25.90   50.29 
  -7   4 -17   31.50   52.09 
  -4  -7  17  -31.00   17.90 
   4   7  17   -0.90   31.30 
  -7   4  17   16.50   17.60 
  -1   8 -17   22.00   67.49 
   1  -8 -17   74.59   50.39 
   1  -8 -17   46.30   50.29 
  -1   8 -17   38.00   36.70 
   8   1 -17  -22.90   62.49 
   8   1 -17   62.39   39.20 
  -1   8  17   68.59   27.60 
  -8  -1  17   69.49   18.80 
  -1  -8 -17   87.39   51.69 
   8  -1 -17    7.60   36.10 
  -8   1 -17   27.00   63.29 
  -1  -8 -17   26.50   44.40 
   1   8 -17  125.59   78.19 
   1   8 -17   49.80   36.70 
   1   8  17   37.60   26.30 
  -8   1  17   25.00   17.10 
   0   0 -18   28.30   18.40 
   0   0 -18    0.90   34.50 
   0   0 -18   48.80   34.60 
   0   0  18   33.00   14.20 
   1   1 -18    4.20   31.10 
  -1   1 -18    2.00   17.70 
   1  -1 -18   18.90   29.10 
   1  -1 -18   22.60   36.40 
  -1  -1 -18    4.20   15.50 
  -1  -1 -18   22.40   34.30 
  -1  -1 -18   -6.90   19.30 
  -1   1 -18  -13.10   29.30 
  -1   1 -18   29.90   31.70 
   1  -1 -18   14.30   20.60 
   1   1 -18  -21.00   16.60 
  -1  -1 -18    0.70   28.00 
  -1   1  18  -13.50   10.70 
  -1  -1  18   11.20   14.20 
   1   1  18   18.30   13.50 
   1  -1  18   12.10   12.60 
   2   0 -18  129.69   31.10 
   0   2 -18  124.79   46.50 
  -2   0 -18   98.49   48.10 
   0  -2 -18  133.19   26.80 
   2   0 -18  155.88   47.20 
   0  -2 -18  119.79   60.79 
   2   0 -18  169.68   50.99 
  -2   0 -18   95.79   24.50 
  -2   0 -18   79.69   21.30 
   0  -2 -18   93.09   39.30 
  -2   0 -18  148.89   50.59 
   0   2 -18  113.99   28.20 
   0  -2 -18  111.59   26.90 
  -2   0  18  135.79   23.00 
   2   0  18  110.79   20.70 
   0  -2  18  120.99   21.50 
   0   2  18  104.09   21.90 
  -2  -2 -18   16.80   17.10 
   2   2 -18   11.40   20.10 
  -2   2 -18   -7.40   17.40 
   2  -2 -18   23.10   27.80 
   2  -2 -18   33.80   57.79 
  -2  -2 -18    3.30   19.70 
   2  -2 -18   11.70   20.20 
   2  -2  18   17.10   11.80 
  -2   2  18   18.60   14.20 
   2   2  18   12.30   14.60 
  -2  -2  18   11.20   13.90 
  -3  -1 -18   41.60   21.00 
  -3  -1 -18   32.00   16.40 
  -1   3 -18   24.90   39.70 
   1  -3 -18   26.90   28.70 
   1  -3 -18   36.30   19.90 
  -3  -1 -18   29.00   41.10 
  -1   3 -18   10.90   19.50 
   1  -3 -18   52.39   24.50 
   3   1 -18   28.90   49.90 
   1  -3 -18   10.10   36.60 
   1  -3  18   10.00   13.30 
  -3  -1  18   28.30   15.00 
   3   1  18   41.50   14.60 
  -1   3  18   12.90   15.50 
  -3   1 -18   38.00   42.30 
  -1  -3 -18   37.30   46.40 
  -3   1 -18   19.10   14.20 
  -3   1 -18   33.60   19.20 
   3  -1 -18   76.59   35.70 
   1   3 -18   30.80   41.90 
   3  -1 -18   46.30   55.89 
   1   3 -18   60.99   23.60 
  -1  -3 -18   38.30   22.10 
  -1  -3 -18   19.20   18.10 
   3  -1  18   29.10   13.30 
  -1  -3  18   32.70   15.20 
  -3   1  18   34.80   15.40 
   1   3  18   37.50   17.50 
   3   3 -18   89.89   44.20 
   3   3 -18   61.79   26.30 
  -3  -3 -18   80.49   24.70 
  -3   3 -18   81.19   51.69 
  -3  -3 -18  115.49   41.70 
  -3   3 -18   63.89   16.80 
   3  -3 -18  133.99   31.20 
  -3  -3 -18   58.99   48.40 
  -3   3 -18   48.80   23.90 
  -3   3 -18   51.79   44.10 
   3  -3 -18   95.79   38.20 
   3  -3 -18  101.09   47.20 
  -3  -3  18   97.49   21.70 
  -3   3  18   85.79   21.50 
   3   3  18   98.99   23.50 
   2  -4 -18    1.20   41.70 
  -2   4 -18  -18.30   18.60 
  -4  -2 -18  -11.10   38.70 
  -2   4 -18   21.30   41.80 
  -4  -2 -18    4.90   16.10 
  -4  -2 -18   18.00   33.00 
   4   2 -18  -19.40   24.60 
   4   2 -18   -4.50   31.60 
  -4  -2 -18  -24.30   19.40 
   2  -4 -18   12.80   32.30 
  -4  -2  18    7.80   13.90 
  -2   4  18    0.10   14.00 
   4   2  18   -1.40   16.30 
   0  -4 -18   56.99   47.50 
   0  -4 -18  147.49   28.80 
   0   4 -18  146.09   54.39 
  -4   0 -18   68.69   19.70 
  -4   0 -18   83.79   44.20 
   4   0 -18  144.19   32.30 
  -4   0 -18  110.49   27.50 
   0  -4  18  104.29   20.60 
   0   4  18   87.79   21.20 
  -4   0  18  111.49   22.30 
  -4   2 -18   15.90   18.30 
  -4   2 -18   18.10   47.70 
  -2  -4 -18  -11.60   29.80 
   2   4 -18   11.40   21.80 
  -2  -4 -18    0.70   20.20 
  -4   2 -18    5.50   37.10 
   4  -2 -18   -0.30   21.10 
   4  -2 -18   -2.00   27.30 
   4  -2 -18   -3.50   38.40 
   2   4 -18   -2.50   33.40 
  -2  -4 -18   46.20   45.90 
   2   4  18  -12.30   17.90 
  -2  -4  18    8.10   14.80 
  -4   2  18    7.30   15.50 
  -4   4 -18    0.30   49.80 
  -4  -4 -18  -15.10   35.70 
   4   4 -18    9.20   27.20 
   4   4 -18   16.50   41.10 
  -4   4 -18   33.60   24.30 
   4  -4 -18    8.40   25.00 
  -4  -4 -18    7.80   20.40 
   4  -4 -18  -17.60   26.70 
  -4  -4 -18   20.50   47.00 
  -4   4 -18  -11.90   42.70 
   4  -4 -18   15.70   46.70 
   4   4  18    8.70   23.00 
  -4  -4  18   14.00   14.30 
  -4   4  18    2.60   15.40 
  -5  -3 -18   13.30   37.40 
   3  -5 -18    0.20   35.00 
  -3   5 -18  -33.10   56.19 
   5   3 -18  -15.30   26.00 
  -5  -3 -18   -0.60   46.70 
   5   3 -18   20.80   43.00 
   3  -5 -18   -0.40   46.90 
  -3   5 -18    7.90   26.30 
   3  -5 -18   15.90   29.50 
  -5  -3 -18   25.20   20.20 
  -3   5  18   26.20   15.60 
  -5  -1 -18   -0.40   36.20 
  -5  -1 -18   14.90   15.40 
  -1   5 -18   -4.10   22.50 
  -5  -1 -18  -11.50   19.90 
  -5  -1 -18    6.20   40.70 
   5   1 -18    2.10   23.60 
   5   1 -18   28.60   39.90 
   1  -5 -18   58.19   49.50 
   1  -5 -18  -18.90   55.19 
  -1   5 -18  -10.80   48.30 
   1  -5 -18   31.10   28.10 
  -5  -1  18  -10.30   14.70 
  -1   5  18   -9.70   16.80 
   1   5 -18   29.20   38.70 
   5  -1 -18  -10.90   39.60 
  -1  -5 -18  -16.00   38.50 
  -1  -5 -18   29.10   22.80 
  -5   1 -18   -1.60   21.60 
  -5   1 -18   26.50   40.80 
   5  -1 -18   -6.20   23.00 
  -5   1 -18  -25.90   36.30 
   1   5 -18   21.30   22.30 
  -5   1  18   10.60   14.80 
  -1  -5  18   -5.70   16.10 
   1   5  18  -15.00   19.40 
   5  -3 -18   43.20   31.10 
  -5   3 -18  -13.30   43.90 
   5  -3 -18   37.10   46.20 
   5  -3 -18   37.20   27.10 
   3   5 -18   46.20   40.90 
  -5   3 -18   19.20   46.60 
  -5   3 -18   36.50   24.80 
  -3  -5 -18   19.70   37.00 
  -3  -5 -18  -33.60   41.30 
  -3  -5 -18   34.40   22.10 
   3   5 -18  -21.90   27.10 
   3   5  18   10.30   24.10 
  -5   3  18   20.20   17.50 
  -3  -5  18   10.70   16.70 
  -5  -5 -18   53.39   46.00 
   5  -5 -18   27.20   54.89 
  -5   5 -18  -22.20   31.00 
  -5  -5 -18   -5.60   50.49 
   5  -5 -18  -14.00   27.40 
  -5   5 -18  -38.60   66.09 
   5   5 -18    4.80   33.00 
   5  -5 -18   -3.00   35.60 
   5   5 -18   13.40   48.40 
  -5   5 -18  -25.90   51.79 
  -5   5  18   -1.80   19.00 
  -5  -5  18   25.20   17.60 
   6   4 -18   25.30   35.30 
  -4   6 -18   -3.90   50.29 
   4  -6 -18  146.29   60.09 
   6   4 -18   21.80   50.79 
  -6  -4 -18   28.00   47.30 
  -6  -4 -18   36.50   54.29 
  -4   6 -18   35.80   31.80 
  -6  -4  18   46.80   18.70 
  -4   6  18   76.99   22.40 
  -2   6 -18   -3.70   62.19 
  -6  -2 -18   60.29   49.40 
   2  -6 -18   51.49   40.40 
  -2   6 -18   28.10   30.70 
  -6  -2 -18   30.80   54.39 
   6   2 -18   13.70   39.40 
   2  -6 -18   49.60   29.50 
   2  -6 -18   51.29   50.79 
  -6  -2  18   38.60   18.70 
  -2   6  18   20.00   18.60 
   0   6 -18  -15.30   46.40 
   0  -6 -18   40.70   37.00 
  -6   0 -18   50.49   53.29 
   6   0 -18   20.40   26.30 
  -6   0 -18   38.50   23.60 
   0  -6 -18   -9.40   24.00 
  -6   0 -18    1.80   50.59 
   0   6 -18   49.10   28.30 
   6   0 -18   60.49   46.50 
   0  -6 -18   14.10   50.39 
  -6   0  18   10.10   16.60 
   0   6  18   33.00   21.50 
   6  -2 -18   85.49   42.70 
  -2  -6 -18   56.09   44.10 
  -6   2 -18   27.90   26.80 
   2   6 -18   45.70   31.90 
   6  -2 -18  116.99   51.69 
  -6   2 -18  133.99   56.49 
  -2  -6 -18   85.69   58.99 
  -6   2 -18   68.89   56.69 
   6  -2 -18   40.60   48.70 
   2   6 -18   70.59   56.49 
  -6   2  18   45.50   18.90 
   2   6  18   51.19   26.00 
  -2  -6  18    1.20   18.80 
   4   6 -18   51.09   39.40 
  -6   4 -18  105.59   34.60 
   6  -4 -18  183.98   42.10 
   6  -4 -18   59.29   39.40 
  -4  -6 -18  113.69   50.89 
  -6   4 -18   80.49   68.49 
  -6   4 -18   61.39   61.39 
  -4  -6 -18   47.70   87.29 
   4   6 -18   37.00   63.49 
   6  -4 -18   74.59   59.29 
  -6   4  18   49.99   22.80 
   4   6  18   51.19   33.30 
  -4  -6  18   59.49   22.70 
   7   1 -18   19.20   48.60 
   1  -7 -18  -55.89   50.29 
  -7  -1 -18   19.50   56.09 
  -1   7 -18    0.30   61.69 
   1  -7 -18  -22.00   44.30 
   7   1 -18   29.30   32.20 
  -7  -1  18   32.00   18.20 
   1   7 -18   -9.60   35.60 
   7  -1 -18   -1.10   50.29 
   7  -1 -18   39.00   31.50 
   1   7 -18   10.60   60.69 
  -7   1 -18    3.00   53.89 
  -7   1 -18   -4.30   49.90 
  -1  -7 -18   -5.20   46.40 
  -1  -7 -18    6.90   44.80 
   1   7  18   23.70   24.20 
  -7   1  18   -0.10   15.50 
   0  -1 -19   22.80   38.60 
  -1   0 -19   -2.40   39.20 
  -1   0 -19  -29.50   32.60 
   0   1 -19   -0.60   21.70 
   1   0 -19   -4.80   23.80 
   0   1 -19  -23.40   31.30 
  -1   0 -19    2.70   18.50 
   0  -1 -19  -28.30   38.00 
   1   0 -19    7.00   33.60 
  -1   0 -19  -18.80   17.90 
   0  -1 -19    5.40   21.80 
   0   1 -19  -16.40   35.60 
   1   0 -19   -3.30   33.80 
   0   1  19    6.10   14.90 
   0  -1  19    5.20   15.10 
   1   0  19    4.00   15.20 
  -1   0  19    2.20   12.60 
  -2  -1 -19   -1.60   32.70 
   2   1 -19   -7.90   36.90 
  -2  -1 -19   24.40   23.10 
   1  -2 -19  -30.80   40.10 
  -1   2 -19   -5.60   39.80 
   2   1 -19   -0.20   20.80 
   1  -2 -19  -11.30   23.40 
  -1   2 -19   36.10   43.20 
  -1   2 -19   -1.40   21.30 
   1  -2 -19   19.00   31.60 
  -2  -1 -19   18.60   38.50 
   2   1  19   10.20   15.00 
   1  -2  19   17.20   15.20 
  -2  -1  19   26.70   14.20 
  -1   2  19   -6.20   13.30 
   1   2 -19   20.80   34.80 
   1   2 -19    9.80   21.20 
  -2   1 -19  -22.90   35.00 
  -1  -2 -19   37.20   24.20 
  -1  -2 -19  -23.50   35.70 
   2  -1 -19   -2.00   37.10 
   2  -1 -19   -5.70   20.30 
   2  -1 -19   14.40   37.40 
  -2   1 -19  -25.00   41.40 
  -2   1 -19   13.80   20.80 
  -1  -2 -19   -1.70   35.50 
  -2   1  19  -10.90   12.90 
   1   2  19   33.50   16.20 
   2  -1  19   17.30   17.50 
  -1  -2  19   -1.80   21.60 
   3   2 -19   25.50   23.50 
  -2   3 -19   21.60   43.50 
  -3  -2 -19   26.30   44.00 
   2  -3 -19  -16.80   29.60 
  -2   3 -19   20.70   48.10 
  -2   3 -19   24.00   22.40 
  -3  -2 -19   -0.10   23.00 
  -3  -2 -19    5.00   35.60 
   2  -3 -19    7.60   42.90 
   2  -3 -19    3.30   25.40 
   3   2 -19   16.70   35.50 
   3   2  19   18.60   20.60 
  -2   3  19   12.90   14.80 
  -3  -2  19   10.40   14.40 
   0   3 -19   -3.90   23.10 
  -3   0 -19   17.40   36.70 
   0  -3 -19    2.60   25.20 
  -3   0 -19   38.20   44.20 
   0  -3 -19    6.90   43.80 
   3   0 -19    5.90   34.60 
   3   0 -19  -21.90   24.60 
   0  -3 -19  -23.50   29.30 
  -3   0 -19  -12.90   16.10 
   0   3 -19   11.30   39.60 
  -3   0  19   -7.00   14.00 
   0   3  19   -9.00   15.70 
   0  -3  19    0.90   14.90 
   3  -2 -19   10.70   32.40 
  -3   2 -19   34.90   43.30 
  -2  -3 -19   51.69   44.80 
   2   3 -19   -7.40   33.80 
  -3   2 -19   -8.20   15.20 
  -3   2 -19    8.00   49.90 
  -2  -3 -19  -45.70   26.00 
  -2  -3 -19  -29.30   31.20 
   3  -2 -19  -11.40   23.60 
  -3   2 -19   10.60   22.10 
   2   3 -19   29.20   22.30 
   3  -2 -19   27.70   38.70 
  -2  -3  19   -2.80   16.20 
  -3   2  19    2.00   14.40 
   2   3  19  -20.50   18.40 
  -4  -3 -19  -28.40   23.60 
  -4  -3 -19  -17.10   51.89 
  -3   4 -19   22.30   57.59 
   3  -4 -19   20.30   44.20 
   3  -4 -19   37.60   34.40 
   3  -4 -19   27.60   30.50 
  -3   4 -19   28.00   59.29 
  -3   4 -19  -23.80   26.20 
   4   3 -19   23.80   40.70 
   4   3 -19    7.30   29.80 
  -4  -3 -19  -15.90   37.90 
  -3   4  19    5.20   16.10 
  -4  -3  19   -1.80   17.20 
  -1   4 -19   33.80   23.40 
  -1   4 -19    2.60   47.00 
  -4  -1 -19   65.59   51.69 
   1  -4 -19  -13.50   41.00 
  -4  -1 -19  -17.20   34.80 
  -4  -1 -19   -5.70   24.80 
   4   1 -19   45.90   44.70 
   1  -4 -19   40.20   29.60 
   4   1 -19   -5.70   23.60 
   1  -4 -19   44.50   34.80 
  -1   4  19    9.10   17.40 
  -4  -1  19   42.30   17.50 
  -4   1 -19   -1.10   40.70 
   4  -1 -19   30.20   39.80 
  -1  -4 -19   -6.60   24.30 
   4  -1 -19   -2.70   23.60 
  -4   1 -19   -7.00   47.90 
   4  -1 -19   32.80   39.60 
   1   4 -19   -8.70   38.20 
  -4   1 -19    3.30   24.60 
   1   4 -19   -5.30   22.80 
  -1  -4 -19    8.70   32.40 
  -1  -4 -19  -33.20   41.50 
  -1  -4  19   10.40   17.90 
   1   4  19   19.50   19.70 
  -4   1  19   25.40   16.70 
   4  -3 -19   27.00   30.70 
  -4   3 -19  -19.50   47.20 
  -3  -4 -19  -45.20   36.30 
  -4   3 -19   29.80   26.30 
  -4   3 -19  -31.50   47.70 
   3   4 -19  -14.20   38.10 
   4  -3 -19  -14.40   31.40 
  -3  -4 -19  -48.40   44.10 
   4  -3 -19  -17.00   42.90 
  -3  -4 -19   41.70   25.00 
   3   4 -19  -16.40   31.80 
  -3  -4  19   -5.20   17.00 
  -4   3  19   29.60   18.70 
   3   4  19  -49.70   23.00 
   4  -5 -19   -9.40   38.70 
  -5  -4 -19  -18.70   44.70 
   4  -5 -19   24.10   54.49 
  -4   5 -19  -23.10   33.40 
  -4   5  19   13.70   20.90 
   2  -5 -19  -14.00   26.30 
   2  -5 -19   17.90   36.10 
   5   2 -19   27.60   45.00 
  -2   5 -19   20.10   31.50 
  -5  -2 -19   18.00   25.00 
  -5  -2 -19   46.40   53.09 
  -2   5  19    5.10   18.20 
  -5  -2  19   13.10   17.00 
  -5   0 -19   -1.10   25.10 
   0  -5 -19    4.00   34.20 
  -5   0 -19  -22.00   47.60 
  -5   0 -19  -17.00   15.00 
   5   0 -19   -6.80   29.30 
  -5   0 -19    4.40   43.10 
   0   5 -19    6.70   25.20 
   0   5 -19   -0.60   67.29 
   5   0 -19   23.20   44.30 
  -5   0  19   41.30   18.90 
   0   5  19    0.60   20.70 
   5  -2 -19    3.30   49.60 
  -5   2 -19  -11.00   46.70 
  -2  -5 -19  -24.40   36.00 
   5  -2 -19  -13.90   35.60 
  -5   2 -19   10.70   50.69 
  -2  -5 -19   -6.10   24.90 
  -5   2 -19    2.70   25.40 
  -2  -5  19   31.30   19.70 
   2   5  19   36.90   25.00 
  -5   4 -19   13.30   32.60 
  -4  -5 -19   11.60   55.19 
  -4  -5 -19    7.90   52.79 
   5  -4 -19   24.00   39.60 
   1  -6 -19   45.70   51.79 
  -1   6 -19  -26.00   63.19 
   1  -6 -19    2.20   42.30 
  -6  -1 -19   -7.80   57.09 
   6   1 -19    0.50   49.70 
   1  -6 -19  -15.00   27.00 
   6   1 -19   -6.60   29.60 
  -6  -1 -19  -36.60   48.50 
  -1   6  19   -3.50   22.10 
  -6  -1  19    3.60   19.20 
   6  -1 -19  -21.20   28.80 
   6  -1 -19   -8.90   49.80 
  -6   1 -19   76.09   57.19 
   1   6 -19    4.10   57.49 
  -1  -6 -19    3.60   49.10 
   1   6 -19   -4.60   33.10 
   6  -1 -19   -8.50   33.90 
  -6   1 -19   12.80   29.80 
  -6   1  19   11.80   17.80 
   1   6  19  -12.50   28.80 
   0   0 -20  364.96   82.59 
   0   0 -20  488.95   88.49 
   0   0 -20  532.15   64.39 
   0   0  20  413.76   55.89 
   1  -1 -20    2.70   43.10 
  -1   1 -20   -6.00   38.60 
   1  -1 -20  -24.20   24.60 
   1   1 -20   23.40   27.10 
   1  -1 -20  -10.00   40.30 
  -1   1 -20   45.40   45.00 
   1   1 -20   39.40   40.30 
  -1  -1 -20  -38.20   34.20 
   1   1 -20   20.40   44.50 
  -1   1 -20  -43.20   44.00 
  -1  -1 -20  -33.60   25.10 
  -1  -1 -20  -58.49   46.60 
   1   1  20    8.10   19.50 
  -1  -1  20   26.80   18.40 
  -1   1  20    4.10   17.20 
  -2   0 -20   33.80   24.90 
   0  -2 -20   20.70   48.50 
   0   2 -20   13.60   38.90 
   2   0 -20   50.69   28.80 
   2   0 -20   29.50   44.30 
  -2   0 -20    2.80   39.20 
   2   0 -20  -16.20   39.90 
   0  -2 -20   25.40   37.70 
  -2   0 -20   35.70   50.19 
   0   2 -20   30.80   23.30 
   0   2 -20    0.70   46.70 
  -2   0  20   28.70   18.10 
   0   2  20  -10.00   17.40 
  -2   2 -20   95.79   54.29 
  -2  -2 -20   60.59   31.30 
  -2   2 -20   66.99   32.70 
   2  -2 -20  119.19   48.60 
   2  -2 -20   77.79   33.70 
   2  -2 -20  106.39   50.19 
   2   2 -20  116.69   33.60 
   2   2 -20   71.09   44.40 
  -2   2 -20   54.59   50.59 
  -2  -2 -20  129.89   51.59 
  -2  -2 -20   92.89   52.99 
  -2   2  20   57.59   20.50 
  -2  -2  20   68.29   22.90 
   1  -3 -20   63.39   48.40 
  -1   3 -20   44.10   29.40 
  -1   3 -20   65.69   80.69 
  -3  -1 -20   50.69   59.19 
   1  -3 -20   98.29   86.79 
  -3  -1 -20   62.99   48.10 
  -3  -1 -20   87.89   32.60 
   1  -3 -20   41.60   30.80 
   3   1 -20  126.19   35.40 
   3   1 -20   39.70   42.70 
  -1   3 -20   51.49   60.89 
  -1   3  20   80.89   22.90 
  -3  -1  20   72.99   22.70 
  -1  -3 -20   49.40   30.60 
   3  -1 -20   55.19   43.90 
  -3   1 -20   96.49   31.40 
  -3   1 -20   53.39   52.69 
  -1  -3 -20  120.49   47.80 
  -3   1 -20   77.09   58.29 
   3  -1 -20   68.79   47.60 
   1   3 -20   46.80   71.79 
   1   3 -20  106.69   31.50 
   3  -1 -20  102.29   35.30 
   1   3  20   41.80   23.20 
   3  -3 -20   78.09   47.10 
  -3   3 -20   33.30   29.90 
   3   3 -20   70.89   34.20 
  -3  -3 -20   63.59   30.70 
   3  -3 -20   44.50   33.60 
  -3  -3 -20   33.40   45.90 
  -3   3  20   60.49   23.10 
  -3  -3  20   18.10   21.60 
   2  -4 -20   60.59   31.60 
   2  -4 -20   79.99   61.09 
  -2   4 -20   78.59   68.79 
  -2   4 -20   13.30   64.99 
  -2   4 -20   45.20   31.10 
   4   2 -20  100.69   38.10 
  -4  -2 -20  134.59   35.20 
  -4  -2 -20   59.69   50.99 
   2  -4 -20   36.50   42.10 
  -2   4  20   88.39   25.80 
  -4  -2  20   46.30   34.50 
   0  -4 -20   -0.30   28.90 
   4   0 -20  -14.40   49.50 
  -4   0 -20   39.90   28.80 
   0   4 -20   10.70   26.00 
   0  -4 -20  -22.70   52.29 
   0  -4 -20   19.50   41.70 
  -4   0 -20   -6.60   50.79 
   0   4 -20  -19.00   51.69 
   4   0 -20   -8.40   43.00 
  -4   0 -20  -42.70   55.39 
  -4   0  20    9.80   19.50 
   0   4  20    8.30   21.40 
  -2  -4 -20   33.60   50.79 
  -4   2 -20   73.29   63.99 
   4  -2 -20  143.29   40.80 
   2   4 -20  116.49   39.90 
  -4   2 -20   72.39   32.20 
   4  -2 -20   88.19   48.90 
  -2  -4 -20  152.68   66.99 
  -2  -4 -20   97.09   32.50 
   2   4 -20   66.79   55.39 
   2   4  20   73.99   30.50 
  -4   2  20   65.09   22.80 
   1   0 -21   -6.50   25.90 
   0   1 -21  -21.30   49.70 
   0   1 -21  -30.90   49.30 
  -1   0 -21    2.10   55.29 
   1   0 -21  -57.59   41.80 
   0   1 -21   33.20   30.20 
   0  -1 -21   -5.00   29.50 
  -1   0 -21   -0.60   47.50 
  -1   0 -21    8.50   28.00 
   0  -1 -21   -2.50   53.49 
   0   1  21   14.40   22.70 
  -1   0  21  -41.00   20.00 
   1  -2 -21   -4.60   28.20 
  -1   2 -21  -14.30   54.49 
   1  -2 -21    9.20   50.59 
   2   1 -21   61.69   50.49 
   2   1 -21   77.69   64.19 
  -1   2 -21  -28.70   29.20 
  -2  -1 -21   42.70   48.10 
  -2  -1 -21   57.99   63.69 
  -2  -1 -21    7.00   33.50 
  -1   2 -21   30.10   50.89 
  -2  -1  21   21.60   19.40 
  -1   2  21  -17.60   20.50 
  -2   1 -21   33.00   31.50 
  -1  -2 -21   39.40   31.10 
  -2   1 -21    4.30   53.89 
  -1  -2 -21   55.99   55.89 
   1   2 -21  -31.70   49.60 
   2  -1 -21   47.80   56.49 
   1   2 -21   -9.20   58.39 
  -1  -2 -21   11.20   49.70 
  -2   1 -21  -17.80   51.49 
  -2   1  21   18.80   19.70 
  -3   0 -21   37.90   64.19 
   0  -3 -21  -25.00   32.00 
   3   0 -21   19.80   29.20 
   0  -3 -21   -8.90   57.49 
  -3   0 -21  -27.80   49.10 
   0   3 -21    1.50   62.09 
   3   0 -21  -29.50   52.69 
   0   3 -21  -46.40   47.90 
   3   0 -21  -44.70   46.50 
   0   3  21    2.50   22.60 
   0   0   0    0.00    0.00 
  
_computing_structure_solution     'SHELXT 2018/2 (Sheldrick, 2018)' 
;
_shelx_hkl_checksum              19692
loop_
_space_group_symop_operation_xyz
'x, y, z'
'-x, -y, z'
'-y, x, z'
'y, -x, z'
'-x, y, -z+1/2'
'x, -y, -z+1/2'
'y, x, -z+1/2'
'-y, -x, -z+1/2'
'x+1/2, y+1/2, z+1/2'
'-x+1/2, -y+1/2, z+1/2'
'-y+1/2, x+1/2, z+1/2'
'y+1/2, -x+1/2, z+1/2'
'-x+1/2, y+1/2, -z+1'
'x+1/2, -y+1/2, -z+1'
'y+1/2, x+1/2, -z+1'
'-y+1/2, -x+1/2, -z+1'
'-x, -y, -z'
'x, y, -z'
'y, -x, -z'
'-y, x, -z'
'x, -y, z-1/2'
'-x, y, z-1/2'
'-y, -x, z-1/2'
'y, x, z-1/2'
'-x+1/2, -y+1/2, -z+1/2'
'x+1/2, y+1/2, -z+1/2'
'y+1/2, -x+1/2, -z+1/2'
'-y+1/2, x+1/2, -z+1/2'
'x+1/2, -y+1/2, z'
'-x+1/2, y+1/2, z'
'-y+1/2, -x+1/2, z'
'y+1/2, x+1/2, z'
loop_
_atom_site_label
_atom_site_type_symbol
_atom_site_fract_x
_atom_site_fract_y
_atom_site_fract_z
_atom_site_U_iso_or_equiv
_atom_site_adp_type
_atom_site_occupancy
_atom_site_site_symmetry_order
_atom_site_calc_flag
_atom_site_refinement_flags_posn
_atom_site_refinement_flags_adp
_atom_site_refinement_flags_occupancy
_atom_site_disorder_assembly
_atom_site_disorder_group
Cs1 Cs 0.16225(4) 0.66225(4) 0.500000 0.0340(2) Uani 1 4 d S T P . .
Cs2 Cs 0.500000 0.500000 0.750000 0.0463(3) Uani 1 8 d S T P . .
Br1 Br 0.500000 0.500000 0.500000 0.0375(3) Uani 1 8 d S T P . .
Mn1 Mn 0.500000 1.000000 0.750000 0.0300(4) Uani 1 8 d S T P . .
Cl1 Cl 0.35484(7) 0.85484(7) 0.65510(7) 0.0489(3) Uani 0.5 2 d S T P . .
Br2 Br 0.35484(7) 0.85484(7) 0.65510(7) 0.0489(3) Uani 0.5 2 d S T P . .
loop_
_atom_site_aniso_label
_atom_site_aniso_U_11
_atom_site_aniso_U_22
_atom_site_aniso_U_33
_atom_site_aniso_U_23
_atom_site_aniso_U_13
_atom_site_aniso_U_12
Cs1 0.0281(2) 0.0281(2) 0.0458(3) 0.000 0.000 -0.0001(2)
Cs2 0.0481(3) 0.0481(3) 0.0425(4) 0.000 0.000 0.000
Br1 0.0295(4) 0.0295(4) 0.0535(7) 0.000 0.000 0.000
Mn1 0.0319(6) 0.0319(6) 0.0262(8) 0.000 0.000 0.000
Cl1 0.0493(4) 0.0493(4) 0.0481(5) -0.0091(3) -0.0091(3) -0.0126(4)
Br2 0.0493(4) 0.0493(4) 0.0481(5) -0.0091(3) -0.0091(3) -0.0126(4)
loop_
_atom_type_symbol
_atom_type_description
_atom_type_scat_dispersion_real
_atom_type_scat_dispersion_imag
_atom_type_scat_source
Br Br -0.2901 2.4595 'International Tables Vol C Tables 4.2.6.8 and 6.1.1.4'
Cl Cl 0.1484 0.1585 'International Tables Vol C Tables 4.2.6.8 and 6.1.1.4'
Cs Cs -0.3680 2.1192 'International Tables Vol C Tables 4.2.6.8 and 6.1.1.4'
Mn Mn 0.3368 0.7283 'International Tables Vol C Tables 4.2.6.8 and 6.1.1.4'
loop_
_geom_angle_atom_site_label_1
_geom_angle_atom_site_label_2
_geom_angle_atom_site_label_3
_geom_angle
_geom_angle_site_symmetry_1
_geom_angle_site_symmetry_3
_geom_angle_publ_flag
Cl1 Cs1 Cl1 84.26(4) . 18_556 ?
Cl1 Cs1 Br1 75.781(8) . . ?
Cl1 Cs1 Br1 75.781(8) 18_556 . ?
Cl1 Cs1 Br1 75.781(8) . 13 ?
Cl1 Cs1 Br1 75.781(8) 18_556 13 ?
Br1 Cs1 Br1 141.316(15) . 13 ?
Cl1 Cs1 Cl1 148.285(12) . 19_466 ?
Cl1 Cs1 Cl1 90.71(3) 18_556 19_466 ?
Br1 Cs1 Cl1 133.153(15) . 19_466 ?
Br1 Cs1 Cl1 72.633(12) 13 19_466 ?
Cl1 Cs1 Cl1 148.285(13) . 20_656 ?
Cl1 Cs1 Cl1 90.71(3) 18_556 20_656 ?
Br1 Cs1 Cl1 72.633(12) . 20_656 ?
Br1 Cs1 Cl1 133.153(15) 13 20_656 ?
Cl1 Cs1 Cl1 62.75(3) 19_466 20_656 ?
Cl1 Cs1 Cl1 90.71(3) . 4_465 ?
Cl1 Cs1 Cl1 148.285(12) 18_556 4_465 ?
Br1 Cs1 Cl1 133.153(15) . 4_465 ?
Br1 Cs1 Cl1 72.633(12) 13 4_465 ?
Cl1 Cs1 Cl1 77.34(3) 19_466 4_465 ?
Cl1 Cs1 Cl1 108.83(2) 20_656 4_465 ?
Cl1 Cs1 Cl1 90.71(3) . 3_655 ?
Cl1 Cs1 Cl1 148.285(13) 18_556 3_655 ?
Br1 Cs1 Cl1 72.633(12) . 3_655 ?
Br1 Cs1 Cl1 133.153(15) 13 3_655 ?
Cl1 Cs1 Cl1 108.83(2) 19_466 3_655 ?
Cl1 Cs1 Cl1 77.34(3) 20_656 3_655 ?
Cl1 Cs1 Cl1 62.75(3) 4_465 3_655 ?
Cl1 Cs1 Mn1 162.15(2) . 9_444 ?
Cl1 Cs1 Mn1 77.888(19) 18_556 9_444 ?
Br1 Cs1 Mn1 99.538(2) . 9_444 ?
Br1 Cs1 Mn1 99.538(2) 13 9_444 ?
Cl1 Cs1 Mn1 33.685(14) 19_466 9_444 ?
Cl1 Cs1 Mn1 33.685(14) 20_656 9_444 ?
Cl1 Cs1 Mn1 104.471(16) 4_465 9_444 ?
Cl1 Cs1 Mn1 104.471(16) 3_655 9_444 ?
Cl1 Cs1 Mn1 77.888(19) . 25_566 ?
Cl1 Cs1 Mn1 162.15(2) 18_556 25_566 ?
Br1 Cs1 Mn1 99.538(2) . 25_566 ?
Br1 Cs1 Mn1 99.538(2) 13 25_566 ?
Cl1 Cs1 Mn1 104.471(16) 19_466 25_566 ?
Cl1 Cs1 Mn1 104.471(16) 20_656 25_566 ?
Cl1 Cs1 Mn1 33.685(14) 4_465 25_566 ?
Cl1 Cs1 Mn1 33.685(14) 3_655 25_566 ?
Mn1 Cs1 Mn1 119.963(12) 9_444 25_566 ?
Cl1 Cs1 Cs1 137.870(19) . 17_566 ?
Cl1 Cs1 Cs1 137.870(19) 18_556 17_566 ?
Br1 Cs1 Cs1 109.342(7) . 17_566 ?
Br1 Cs1 Cs1 109.342(7) 13 17_566 ?
Cl1 Cs1 Cs1 54.416(12) 19_466 17_566 ?
Cl1 Cs1 Cs1 54.416(12) 20_656 17_566 ?
Cl1 Cs1 Cs1 54.417(12) 4_465 17_566 ?
Cl1 Cs1 Cs1 54.417(12) 3_655 17_566 ?
Mn1 Cs1 Cs1 59.981(6) 9_444 17_566 ?
Mn1 Cs1 Cs1 59.981(6) 25_566 17_566 ?
Br1 Cs2 Br1 180.0 5_656 . ?
Br1 Cs2 Cl1 68.535(14) 5_656 28_656 ?
Br1 Cs2 Cl1 111.465(14) . 28_656 ?
Br1 Cs2 Cl1 111.465(14) 5_656 3_655 ?
Br1 Cs2 Cl1 68.535(14) . 3_655 ?
Cl1 Cs2 Cl1 137.81(3) 28_656 3_655 ?
Br1 Cs2 Cl1 68.535(14) 5_656 26_546 ?
Br1 Cs2 Cl1 111.465(14) . 26_546 ?
Cl1 Cs2 Cl1 82.305(10) 28_656 26_546 ?
Cl1 Cs2 Cl1 138.74(3) 3_655 26_546 ?
Br1 Cs2 Cl1 68.535(14) 5_656 27_456 ?
Br1 Cs2 Cl1 111.465(14) . 27_456 ?
Cl1 Cs2 Cl1 137.07(3) 28_656 27_456 ?
Cl1 Cs2 Cl1 61.76(3) 3_655 27_456 ?
Cl1 Cs2 Cl1 82.305(10) 26_546 27_456 ?
Br1 Cs2 Cl1 111.465(14) 5_656 2_665 ?
Br1 Cs2 Cl1 68.535(14) . 2_665 ?
Cl1 Cs2 Cl1 138.74(3) 28_656 2_665 ?
Cl1 Cs2 Cl1 82.305(10) 3_655 2_665 ?
Cl1 Cs2 Cl1 61.76(3) 26_546 2_665 ?
Cl1 Cs2 Cl1 61.06(3) 27_456 2_665 ?
Br1 Cs2 Cl1 111.465(14) 5_656 4_565 ?
Br1 Cs2 Cl1 68.535(14) . 4_565 ?
Cl1 Cs2 Cl1 61.76(3) 28_656 4_565 ?
Cl1 Cs2 Cl1 137.07(3) 3_655 4_565 ?
Cl1 Cs2 Cl1 61.06(3) 26_546 4_565 ?
Cl1 Cs2 Cl1 137.81(3) 27_456 4_565 ?
Cl1 Cs2 Cl1 82.305(10) 2_665 4_565 ?
Br1 Cs2 Cl1 68.535(14) 5_656 25_566 ?
Br1 Cs2 Cl1 111.465(14) . 25_566 ?
Cl1 Cs2 Cl1 82.305(10) 28_656 25_566 ?
Cl1 Cs2 Cl1 61.06(3) 3_655 25_566 ?
Cl1 Cs2 Cl1 137.07(3) 26_546 25_566 ?
Cl1 Cs2 Cl1 82.305(10) 27_456 25_566 ?
Cl1 Cs2 Cl1 137.81(3) 2_665 25_566 ?
Cl1 Cs2 Cl1 138.74(3) 4_565 25_566 ?
Br1 Cs2 Cl1 111.466(14) 5_656 . ?
Br1 Cs2 Cl1 68.534(14) . . ?
Cl1 Cs2 Cl1 61.06(3) 28_656 . ?
Cl1 Cs2 Cl1 82.304(10) 3_655 . ?
Cl1 Cs2 Cl1 137.81(3) 26_546 . ?
Cl1 Cs2 Cl1 138.74(3) 27_456 . ?
Cl1 Cs2 Cl1 137.07(3) 2_665 . ?
Cl1 Cs2 Cl1 82.305(10) 4_565 . ?
Cl1 Cs2 Cl1 61.76(3) 25_566 . ?
Br1 Cs2 Cs1 43.336(3) 5_656 11_655 ?
Br1 Cs2 Cs1 136.664(3) . 11_655 ?
Cl1 Cs2 Cs1 42.261(14) 28_656 11_655 ?
Cl1 Cs2 Cs1 154.649(14) 3_655 11_655 ?
Cl1 Cs2 Cs1 46.029(15) 26_546 11_655 ?
Cl1 Cs2 Cs1 101.992(15) 27_456 11_655 ?
Cl1 Cs2 Cs1 107.707(15) 2_665 11_655 ?
Cl1 Cs2 Cs1 68.199(15) 4_565 11_655 ?
Cl1 Cs2 Cs1 99.321(15) 25_566 11_655 ?
Cl1 Cs2 Cs1 103.190(14) . 11_655 ?
Cs1 Br1 Cs1 180.0 19_566 3_655 ?
Cs1 Br1 Cs1 90.0 19_566 17_666 ?
Cs1 Br1 Cs1 90.0 3_655 17_666 ?
Cs1 Br1 Cs1 90.0 19_566 . ?
Cs1 Br1 Cs1 90.0 3_655 . ?
Cs1 Br1 Cs1 180.0 17_666 . ?
Cs1 Br1 Cs2 90.0 19_566 17_666 ?
Cs1 Br1 Cs2 90.0 3_655 17_666 ?
Cs1 Br1 Cs2 90.0 17_666 17_666 ?
Cs1 Br1 Cs2 90.0 . 17_666 ?
Cs1 Br1 Cs2 90.0 19_566 . ?
Cs1 Br1 Cs2 90.0 3_655 . ?
Cs1 Br1 Cs2 90.0 17_666 . ?
Cs1 Br1 Cs2 90.0 . . ?
Cs2 Br1 Cs2 180.0 17_666 . ?
Cl1 Mn1 Cl1 107.42(5) 27_466 28_656 ?
Cl1 Mn1 Cl1 110.51(3) 27_466 2_675 ?
Cl1 Mn1 Cl1 110.51(3) 28_656 2_675 ?
Cl1 Mn1 Cl1 110.51(3) 27_466 . ?
Cl1 Mn1 Cl1 110.51(3) 28_656 . ?
Cl1 Mn1 Cl1 107.42(5) 2_675 . ?
Cl1 Mn1 Cs1 59.17(2) 27_466 9 ?
Cl1 Mn1 Cs1 59.17(2) 28_656 9 ?
Cl1 Mn1 Cs1 96.27(3) 2_675 9 ?
Cl1 Mn1 Cs1 156.31(3) . 9 ?
Cl1 Mn1 Cs1 156.31(3) 27_466 19_566 ?
Cl1 Mn1 Cs1 96.27(3) 28_656 19_566 ?
Cl1 Mn1 Cs1 59.17(2) 2_675 19_566 ?
Cl1 Mn1 Cs1 59.17(2) . 19_566 ?
Cs1 Mn1 Cs1 138.566(8) 9 19_566 ?
Cl1 Mn1 Cs1 96.27(3) 27_466 3_665 ?
Cl1 Mn1 Cs1 156.31(3) 28_656 3_665 ?
Cl1 Mn1 Cs1 59.17(2) 2_675 3_665 ?
Cl1 Mn1 Cs1 59.17(2) . 3_665 ?
Cs1 Mn1 Cs1 138.566(8) 9 3_665 ?
Cs1 Mn1 Cs1 60.038(12) 19_566 3_665 ?
Cl1 Mn1 Cs1 59.17(2) 27_466 25_566 ?
Cl1 Mn1 Cs1 59.17(2) 28_656 25_566 ?
Cl1 Mn1 Cs1 156.31(3) 2_675 25_566 ?
Cl1 Mn1 Cs1 96.27(3) . 25_566 ?
Cs1 Mn1 Cs1 60.038(12) 9 25_566 ?
Cs1 Mn1 Cs1 138.566(8) 19_566 25_566 ?
Cs1 Mn1 Cs1 138.566(8) 3_665 25_566 ?
Mn1 Cl1 Cs1 174.16(5) . . ?
Mn1 Cl1 Cs1 87.15(3) . 19_566 ?
Cs1 Cl1 Cs1 88.11(2) . 19_566 ?
Mn1 Cl1 Cs1 87.15(3) . 3_665 ?
Cs1 Cl1 Cs1 88.11(2) . 3_665 ?
Cs1 Cl1 Cs1 71.17(2) 19_566 3_665 ?
Mn1 Cl1 Cs2 94.21(2) . 25_566 ?
Cs1 Cl1 Cs2 88.772(16) . 25_566 ?
Cs1 Cl1 Cs2 156.26(3) 19_566 25_566 ?
Cs1 Cl1 Cs2 85.217(8) 3_665 25_566 ?
Mn1 Cl1 Cs2 94.21(2) . . ?
Cs1 Cl1 Cs2 88.772(16) . . ?
Cs1 Cl1 Cs2 85.217(8) 19_566 . ?
Cs1 Cl1 Cs2 156.26(3) 3_665 . ?
Cs2 Cl1 Cs2 118.24(3) 25_566 . ?
loop_
_geom_bond_atom_site_label_1
_geom_bond_atom_site_label_2
_geom_bond_distance
_geom_bond_site_symmetry_2
_geom_bond_publ_flag
Cs1 Cl1 3.4886(10) . ?
Cs1 Cl1 3.4887(10) 18_556 ?
Cs1 Br1 3.5593(3) . ?
Cs1 Br1 3.5593(3) 13 ?
Cs1 Cl1 3.7456(10) 19_466 ?
Cs1 Cl1 3.7456(10) 20_656 ?
Cs1 Cl1 3.7456(10) 4_465 ?
Cs1 Cl1 3.7456(10) 3_655 ?
Cs1 Mn1 4.3566(4) 9_444 ?
Cs1 Mn1 4.3566(4) 25_566 ?
Cs1 Cs1 4.3591(10) 17_566 ?
Cs2 Br1 3.7723(3) 5_656 ?
Cs2 Br1 3.7722(3) . ?
Cs2 Cl1 3.9132(6) 28_656 ?
Cs2 Cl1 3.9132(6) 3_655 ?
Cs2 Cl1 3.9132(6) 26_546 ?
Cs2 Cl1 3.9132(6) 27_456 ?
Cs2 Cl1 3.9132(6) 2_665 ?
Cs2 Cl1 3.9132(6) 4_565 ?
Cs2 Cl1 3.9132(6) 25_566 ?
Cs2 Cl1 3.9132(6) . ?
Mn1 Cl1 2.4193(9) 27_466 ?
Mn1 Cl1 2.4193(9) 28_656 ?
Mn1 Cl1 2.4193(9) 2_675 ?
Mn1 Cl1 2.4193(9) . ?
