#------------------------------------------------------------------------------
#$Date: 2021-12-03 22:47:26 +0200 (Fri, 03 Dec 2021) $
#$Revision: 271031 $
#$URL: file:///home/coder/svn-repositories/cod/cif/4/51/91/4519165.cif $
#------------------------------------------------------------------------------
#
# This file is available in the Crystallography Open Database (COD),
# http://www.crystallography.net/
#
# All data on this site have been placed in the public domain by the
# contributors.
#
data_4519165
loop_
_publ_author_name
'Long, Jinguo'
'Xia, Shaomiao'
'Wang, Ting'
'Cheng, Gui-Juan'
'Fang, Xianjie'
_publ_section_title
;
 Nickel-Catalyzed Regiodivergent Cyanation of Allylic Alcohols: Scope,
 Mechanism, and Application to the Synthesis of 1,n-Dinitriles
;
_journal_issue                   22
_journal_name_full               'ACS Catalysis'
_journal_page_first              13880
_journal_page_last               13890
_journal_paper_doi               10.1021/acscatal.1c03729
_journal_volume                  11
_journal_year                    2021
_chemical_absolute_configuration ad
_chemical_formula_moiety         'C19 H18 N2'
_chemical_formula_sum            'C19 H18 N2'
_chemical_formula_weight         274.35
_space_group_crystal_system      monoclinic
_space_group_IT_number           4
_space_group_name_Hall           'P 2yb'
_space_group_name_H-M_alt        'P 1 21 1'
_atom_sites_solution_hydrogens   geom
_audit_creation_method           SHELXL-2018/3
_cell_angle_alpha                90
_cell_angle_beta                 90.139(16)
_cell_angle_gamma                90
_cell_formula_units_Z            2
_cell_length_a                   5.693(2)
_cell_length_b                   7.6997(14)
_cell_length_c                   17.596(4)
_cell_measurement_reflns_used    4081
_cell_measurement_temperature    297(2)
_cell_measurement_theta_max      67.81
_cell_measurement_theta_min      2.51
_cell_volume                     771.3(4)
_computing_structure_refinement  'SHELXL-2018/3 (Sheldrick, 2018)'
_computing_structure_solution    'SHELXT 2014/5 (Sheldrick, 2014)'
_diffrn_ambient_temperature      297(2)
_diffrn_measured_fraction_theta_full 0.994
_diffrn_measured_fraction_theta_max 0.993
_diffrn_measurement_device_type  'Bruker D8 VENTURE'
_diffrn_measurement_method       '\f and \w scans'
_diffrn_radiation_type           CuK\a
_diffrn_radiation_wavelength     1.54178
_diffrn_reflns_av_R_equivalents  0.0927
_diffrn_reflns_av_unetI/netI     0.1107
_diffrn_reflns_Laue_measured_fraction_full 0.994
_diffrn_reflns_Laue_measured_fraction_max 0.993
_diffrn_reflns_limit_h_max       6
_diffrn_reflns_limit_h_min       -6
_diffrn_reflns_limit_k_max       9
_diffrn_reflns_limit_k_min       -8
_diffrn_reflns_limit_l_max       21
_diffrn_reflns_limit_l_min       -21
_diffrn_reflns_number            7823
_diffrn_reflns_point_group_measured_fraction_full 0.953
_diffrn_reflns_point_group_measured_fraction_max 0.951
_diffrn_reflns_theta_full        67.679
_diffrn_reflns_theta_max         68.048
_diffrn_reflns_theta_min         2.511
_exptl_absorpt_coefficient_mu    0.536
_exptl_crystal_colour            colourless
_exptl_crystal_density_diffrn    1.181
_exptl_crystal_description       block
_exptl_crystal_F_000             292
_exptl_crystal_size_max          0.160
_exptl_crystal_size_mid          0.150
_exptl_crystal_size_min          0.120
_exptl_transmission_factor_max   0.7530
_exptl_transmission_factor_min   0.6505
_refine_diff_density_max         0.145
_refine_diff_density_min         -0.158
_refine_diff_density_rms         0.035
_refine_ls_abs_structure_details
;
 Flack x determined using 639 quotients [(I+)-(I-)]/[(I+)+(I-)]
 (Parsons, Flack and Wagner, Acta Cryst. B69 (2013) 249-259).
;
_refine_ls_abs_structure_Flack   0.3(5)
_refine_ls_extinction_method     none
_refine_ls_goodness_of_fit_ref   1.028
_refine_ls_hydrogen_treatment    constr
_refine_ls_matrix_type           full
_refine_ls_number_parameters     190
_refine_ls_number_reflns         2682
_refine_ls_number_restraints     1
_refine_ls_restrained_S_all      1.028
_refine_ls_R_factor_all          0.1057
_refine_ls_R_factor_gt           0.0392
_refine_ls_shift/su_max          0.000
_refine_ls_shift/su_mean         0.000
_refine_ls_structure_factor_coef Fsqd
_refine_ls_weighting_details
'w=1/[\s^2^(Fo^2^)+(0.0592P)^2^] where P=(Fo^2^+2Fc^2^)/3'
_refine_ls_weighting_scheme      calc
_refine_ls_wR_factor_gt          0.1027
_refine_ls_wR_factor_ref         0.1169
_reflns_Friedel_coverage         0.773
_reflns_Friedel_fraction_full    0.904
_reflns_Friedel_fraction_max     0.902
_reflns_number_gt                1843
_reflns_number_total             2682
_reflns_threshold_expression     'I > 2\s(I)'
_cod_data_source_file            cs1c03729_si_002.cif
_cod_data_source_block           t_a
_cod_depositor_comments
;
The following automatic conversions were performed:

data item '_chemical_absolute_configuration' value 'AD' was changed
to 'ad' in accordance with the
/home/data/users/saulius/crontab/automatic-downloads/current/ACS/lib/dictionaries/cif_core.dic
dictionary named 'cif_core.dic' version 2.4.2 last updated on
2011-04-26.

Automatic conversion script
Id: cif_fix_values 7556 2019-12-06 15:28:31Z antanas 
;
_cod_original_cell_volume        771.4(3)
_cod_original_sg_symbol_H-M      'P 21'
_cod_database_code               4519165
_shelx_shelxl_version_number     2018/3
_shelx_space_group_comment
;
The symmetry employed for this shelxl refinement is uniquely defined
by the following loop, which should always be used as a source of
symmetry information in preference to the above space-group names.
They are only intended as comments.
;
_shelx_estimated_absorpt_t_min   0.919
_shelx_estimated_absorpt_t_max   0.939
_shelx_res_file
;
TITL t_a.res in P2(1)
    t_a.res
    created by SHELXL-2018/3 at 17:59:23 on 22-Oct-2020
REM Old TITL t in P2(1)/m
REM SHELXT solution in P2(1)
REM R1 0.189,  Rweak 0.235,  Alpha 0.035,  Orientation as input
REM Flack x =  0.090 ( 0.367 ) from Parsons' quotients
REM Formula found by SHELXT:  C17 N4
CELL  1.54178   5.6933   7.6997  17.5964   90.000   90.139   90.000
ZERR    2.000   0.0020   0.0014   0.0036    0.000    0.016    0.000
LATT -1
SYMM -X, 1/2+Y, -Z
SFAC C H N
UNIT 38 36 4
ACTA
size 0.16 0.15 0.12
conf
TEMP 24.050
L.S. 10
BOND $H
LIST 6
FMAP 2
PLAN 20
WGHT    0.059200
FVAR       2.04736
C1    1    0.750319    0.344875    0.512439    11.00000    0.04650    0.04159 =
         0.05769    0.00175    0.00054   -0.00262
N1    3    0.242916    0.156982    0.149015    11.00000    0.09618    0.09518 =
         0.08125   -0.01810    0.00526   -0.03077
N2    3    1.202723    0.781573    0.002296    11.00000    0.10130    0.12444 =
         0.11009   -0.00412    0.01661   -0.01465
C2    1    0.592262    0.423727    0.561351    11.00000    0.06844    0.07357 =
         0.06452   -0.00181   -0.00270    0.01985
AFIX  43
H2    2    0.459979    0.477554    0.541080    11.00000   -1.20000
AFIX   0
C4    1    0.817030    0.346807    0.670672    11.00000    0.08104    0.06756 =
         0.05695    0.00037   -0.00693   -0.00623
AFIX  43
H4    2    0.839395    0.347684    0.723043    11.00000   -1.20000
AFIX   0
C3    1    0.624627    0.425011    0.639016    11.00000    0.08301    0.08311 =
         0.05863   -0.01000    0.00731    0.01607
AFIX  43
H3    2    0.514978    0.479374    0.670056    11.00000   -1.20000
AFIX   0
C5    1    0.976094    0.267257    0.624060    11.00000    0.06947    0.08792 =
         0.06313    0.00630   -0.01075    0.01263
AFIX  43
H5    2    1.107670    0.213772    0.644979    11.00000   -1.20000
AFIX   0
C7    1    0.713922    0.343765    0.428616    11.00000    0.04770    0.04038 =
         0.05466    0.00112    0.00259   -0.00200
C6    1    0.943407    0.265539    0.546414    11.00000    0.06089    0.07321 =
         0.06418    0.00225    0.00018    0.01507
AFIX  43
H6    2    1.053347    0.209868    0.515929    11.00000   -1.20000
AFIX   0
C8    1    0.516399    0.417681    0.395030    11.00000    0.05860    0.06979 =
         0.06271   -0.00165    0.00309    0.01723
AFIX  43
H8    2    0.403389    0.468845    0.425847    11.00000   -1.20000
AFIX   0
C9    1    0.483294    0.417319    0.317517    11.00000    0.06072    0.07418 =
         0.05981    0.00116   -0.00250    0.01850
AFIX  43
H9    2    0.348887    0.468258    0.297279    11.00000   -1.20000
AFIX   0
C10   1    0.645712    0.342784    0.269039    11.00000    0.05178    0.04862 =
         0.05308    0.00099    0.00510   -0.00289
C11   1    0.841332    0.267571    0.301447    11.00000    0.05660    0.07129 =
         0.05725   -0.00416    0.00832    0.01034
AFIX  43
H11   2    0.953233    0.215847    0.270387    11.00000   -1.20000
AFIX   0
C12   1    0.874292    0.267602    0.379341    11.00000    0.05332    0.07020 =
         0.06203   -0.00049    0.00119    0.01594
AFIX  43
H12   2    1.007848    0.215058    0.399381    11.00000   -1.20000
AFIX   0
C13   1    0.610178    0.343984    0.183675    11.00000    0.06041    0.06184 =
         0.05650   -0.00248    0.00237   -0.00616
AFIX  13
H13   2    0.748658    0.290556    0.160381    11.00000   -1.20000
AFIX   0
C14   1    0.581504    0.526886    0.149704    11.00000    0.07598    0.06371 =
         0.05675    0.00534   -0.00457   -0.00634
AFIX  23
H14A  2    0.557124    0.517096    0.095296    11.00000   -1.20000
H14B  2    0.443182    0.581127    0.171333    11.00000   -1.20000
AFIX   0
C15   1    0.794720    0.642455    0.164667    11.00000    0.09424    0.07361 =
         0.05938    0.00877   -0.00880   -0.02142
AFIX  23
H15A  2    0.823910    0.646942    0.218964    11.00000   -1.20000
H15B  2    0.931378    0.590845    0.140821    11.00000   -1.20000
AFIX   0
C16   1    0.764096    0.826192    0.135011    11.00000    0.10473    0.06927 =
         0.09637    0.00038    0.01766   -0.01875
AFIX  23
H16A  2    0.611032    0.868747    0.150364    11.00000   -1.20000
H16B  2    0.881725    0.900057    0.158462    11.00000   -1.20000
AFIX   0
C17   1    0.784633    0.841727    0.049420    11.00000    0.08062    0.09205 =
         0.10127    0.04095   -0.00046   -0.00261
AFIX  23
H17A  2    0.676663    0.760574    0.025725    11.00000   -1.20000
H17B  2    0.738744    0.957976    0.034191    11.00000   -1.20000
AFIX   0
C18   1    1.017223    0.807766    0.022521    11.00000    0.08348    0.08671 =
         0.07427    0.01107    0.00374   -0.01767
C19   1    0.404549    0.238209    0.163296    11.00000    0.07270    0.06281 =
         0.05939   -0.00541    0.00514   -0.00559
HKLF 4




REM  t_a.res in P2(1)
REM wR2 = 0.116939, GooF = S = 1.02808, Restrained GooF = 1.02788 for all data
REM R1 = 0.039150 for 1843 Fo > 4sig(Fo) and 0.105707 for all 2682 data
REM 190 parameters refined using 1 restraints

END

WGHT      0.0520      0.0000

REM Highest difference peak  0.145,  deepest hole -0.158,  1-sigma level  0.035
Q1    1   0.6258  0.3371  0.4169  11.00000  0.05    0.14
Q2    1   0.7373  0.7798  0.2833  11.00000  0.05    0.13
Q3    1   1.1637  0.2871  0.5014  11.00000  0.05    0.13
Q4    1   1.0365  0.2790  0.2426  11.00000  0.05    0.12
Q5    1   0.3472  0.4121  0.5191  11.00000  0.05    0.12
Q6    1   0.5640  0.6796  0.2432  11.00000  0.05    0.11
Q7    1   0.8425  0.3308  0.5230  11.00000  0.05    0.11
Q8    1   0.2992  0.3958  0.4451  11.00000  0.05    0.11
Q9    1   1.1610  0.7145  0.1209  11.00000  0.05    0.11
Q10   1   0.8327  0.2674  0.5224  11.00000  0.05    0.10
Q11   1   0.0922  0.5084  0.3421  11.00000  0.05    0.10
Q12   1   0.6679  0.3317  0.5245  11.00000  0.05    0.10
Q13   1   0.4101  0.5826  0.2979  11.00000  0.05    0.10
Q14   1   0.8305  0.4509  0.5238  11.00000  0.05    0.10
Q15   1   1.0425  0.8900  0.1632  11.00000  0.05    0.10
Q16   1   0.6310  0.4546  0.4045  11.00000  0.05    0.10
Q17   1   0.3812  0.6805  0.2267  11.00000  0.05    0.10
Q18   1   0.4531  0.2256  0.4015  11.00000  0.05    0.10
Q19   1   0.6249  0.9698 -0.0377  11.00000  0.05    0.10
Q20   1   0.7046  0.2264  0.2841  11.00000  0.05    0.10
;
_shelx_res_checksum              15876
_shelx_hkl_file
;
  -2   0   0  391.06   17.00
  -2   0   0  390.86   18.30
  -3   0   0  160.08    9.50
  -3   0   0  165.68    9.00
  -3   0   0  167.68   10.80
  -4   0   0  -47.70   77.79
  -4   0   0   89.09    6.60
  -4   0   0   92.09    8.80
   4   0   0   90.69    9.00
  -4   0   0   93.89    7.00
  -5   0   0  196.08   11.70
  -5   0   0  189.48   14.60
   5   0   0  185.68   13.00
  -6   0   0   82.19  144.59
   0  -1   0    0.80    0.60
   0  -1   0    1.10    0.30
   0  -1   0    1.20    0.40
   0   1   0    1.60    0.60
   0   1   0    0.60    0.20
   1   1   0 9952.60  387.56
  -2  -1   0 1322.27   52.29
  -2  -1   0 1294.77   50.79
   2  -1   0 1281.97   53.49
  -2   1   0 1181.38   50.89
  -2   1   0 1235.38   52.79
  -2   1   0 1277.57   52.69
  -3  -1   0  752.12   33.70
  -3  -1   0  749.42   31.70
   3  -1   0  733.23   33.90
  -3   1   0  730.13   34.40
  -3   1   0  733.23   33.60
  -3   1   0  761.42   31.90
  -4  -1   0  125.49   10.60
  -4  -1   0  145.09    9.00
   4  -1   0  157.68   12.70
  -4   1   0  154.18    9.00
   4   1   0  134.79   11.60
  -4   1   0  143.19   11.40
   4   1   0  125.39    9.30
  -4   1   0  151.58   10.50
  -5  -1   0 -197.98   92.19
  -5   1   0   69.59  112.79
  -6  -1   0   -1.50   66.49
   6  -1   0    3.40    2.60
  -6  -1   0    2.00    1.60
  -6   1   0 -117.89   82.99
  -2  -2   0 1054.29   44.20
  -2  -2   0 1131.39   45.60
   2  -2   0 1124.89   48.00
  -2   2   0 1118.69   46.70
  -2   2   0 1068.59   47.30
  -3  -2   0   12.50    1.90
   3  -2   0   16.00    4.00
  -3  -2   0   11.70    2.70
  -3   2   0   14.10    3.20
  -3   2   0   14.80    3.20
  -3   2   0   11.70    2.10
   4  -2   0   19.60    6.10
  -4  -2   0   22.70    3.10
   4  -2   0   31.00    6.00
   4   2   0   14.70    3.50
  -4   2   0   21.80    4.70
  -4   2   0   20.50    4.50
  -4   2   0   16.90    3.30
  -4   2   0   70.49   94.89
   4   2   0   22.30    3.70
   5  -2   0   28.10    5.90
  -5  -2   0  -29.90  101.59
  -5  -2   0   32.80    4.20
  -5  -2   0   30.80    8.10
   5   2   0   31.50    4.70
  -5   2   0   36.50    6.30
  -5   2   0  107.99  130.19
   5   2   0   35.30    5.40
   6  -2   0    2.20    2.10
  -6  -2   0  -10.50   70.19
  -6  -2   0    3.40    1.70
   6   2   0    0.70    1.70
   0   3   0    2.30    1.30
  -1  -3   0 3779.22  152.88
   1  -3   0 3965.00  154.68
  -1   3   0 3950.80  156.58
  -2  -3   0 2322.57   96.89
  -2  -3   0 2470.45   98.49
   2  -3   0 2490.15  101.69
  -2   3   0 2453.95   99.69
  -2   3   0 2564.64  102.79
  -3  -3   0   77.69    6.60
   3  -3   0   72.39    9.00
  -3  -3   0   74.89    5.20
   3  -3   0   77.99    8.40
   3   3   0   71.69    6.60
  -3   3   0   75.09    7.70
   3   3   0   74.09    6.40
  -3   3   0   73.19    6.90
   4  -3   0   36.10    7.80
  -4  -3   0   31.90    3.70
  -4  -3   0   41.10    6.70
   4  -3   0   45.80    7.50
  -4  -3   0   -3.50  120.59
  -4   3   0   36.00    5.80
   4   3   0   35.70    4.90
  -4   3   0   29.10    5.90
   4   3   0   39.70    5.30
  -5  -3   0   34.00  116.49
  -5  -3   0    1.50    1.30
   5  -3   0    2.10    2.60
   5   3   0   -1.00    2.00
   5   3   0    4.30    1.90
  -6  -3   0   -5.20   75.19
   6  -3   0    4.20    2.20
  -6  -3   0    3.40    1.60
   6   3   0    3.60    2.40
   6   3   0    5.70    2.30
   0  -4   0 1152.08   48.00
   0   4   0 1249.77   52.19
   1  -4   0 1691.83   68.89
  -1  -4   0 1571.84   67.09
   1   4   0 1672.33   69.49
  -1   4   0 1712.83   71.69
   2  -4   0 1004.90   45.40
  -2  -4   0  990.10   39.70
   2   4   0 1078.59   46.90
  -2   4   0  991.60   46.40
   2   4   0  929.01   42.70
   2   4   0  919.91   42.60
  -2   4   0  958.70   41.70
  -3  -4   0   80.09    5.20
   3  -4   0   76.09    8.60
   3  -4   0   61.19    8.90
  -3   4   0   68.59    7.00
  -3   4   0   60.29    8.00
  -3   4   0   69.29    6.80
   3   4   0   71.19    6.80
   3   4   0   75.99    6.90
   4  -4   0  132.29   13.90
   4  -4   0  117.09   13.00
  -4  -4   0  113.59    7.70
  -4  -4   0 -192.78  140.39
  -4   4   0  107.19   10.00
   4   4   0  113.79    9.00
  -4   4   0   97.59   11.00
   4   4   0  110.49    9.10
  -5  -4   0  -64.79  115.29
   5   4   0   10.70    4.50
  -6  -4   0  -34.80   64.79
  -6  -4   0    4.60    3.00
   6  -4   0    3.20    1.80
   6   4   0    0.60    2.50
   6   4   0    1.40    1.30
   0  -5   0   -0.80    0.80
   0   5   0    1.10    1.50
   0   5   0   -1.80    1.50
  -1  -5   0   73.79    4.30
   1  -5   0   92.79    7.50
   1   5   0   61.69    6.40
  -1   5   0   79.09    8.20
   1   5   0   84.09    7.90
  -1   5   0   93.29   12.70
   1   5   0   62.79    8.00
   1   5   0   71.79    6.70
   2  -5   0  538.85   28.90
  -2  -5   0  511.95   22.30
   2  -5   0  523.45   30.90
  -2   5   0  517.65   29.30
   2   5   0  521.75   25.70
   2   5   0  537.65   32.30
  -2   5   0  510.45   27.90
   2   5   0  546.15   26.00
   3  -5   0   28.60    6.20
   3  -5   0   19.00    5.80
  -3  -5   0   19.40    2.60
   3   5   0   16.40    3.80
  -3   5   0   19.10    5.10
   3   5   0   20.10    4.30
  -3   5   0   23.60    5.60
  -4  -5   0  -34.50  170.68
   4  -5   0    2.20    7.00
   4  -5   0    3.00    2.50
  -4  -5   0    5.40    1.70
   4   5   0    8.50    3.00
   4   5   0    5.40    2.80
   5  -5   0    3.00    2.70
  -5  -5   0    2.90    1.60
  -5  -5   0 -237.58  117.39
   5   5   0   -1.60    4.90
   0  -6   0   58.69    5.80
   0   6   0   72.79   10.40
   0   6   0   53.59    7.10
   0   6   0   62.59    7.70
   1  -6   0  210.48   13.90
  -1  -6   0  165.28    9.30
  -1   6   0  185.68   14.60
   1   6   0  171.08   14.00
  -1   6   0  187.98   21.30
   1   6   0  163.78   11.50
   1   6   0  141.29   16.80
   1   6   0  176.38   12.50
   2  -6   0  606.34   33.70
   2  -6   0  614.94   34.70
  -2  -6   0  659.73   27.00
  -2   6   0  591.14   33.60
  -2   6   0  583.74   34.10
   2   6   0  672.93   30.70
   2   6   0  629.94   30.70
   2   6   0  578.44   39.00
  -3  -6   0   55.69    4.50
   3  -6   0   53.49    8.40
   3  -6   0   46.20    8.70
   3   6   0   55.99    8.40
   3   6   0   64.09    6.70
  -3   6   0   48.00    9.00
   4  -6   0   23.80    5.50
   4  -6   0    5.30    7.90
  -4  -6   0   31.40  166.48
  -4  -6   0   28.40    3.40
   4   6   0   24.30    7.00
   4   6   0   27.70    4.60
   5  -6   0    8.20    2.70
  -5  -6   0   20.00  103.49
   5   6   0    8.40    2.20
   5   6   0    9.90    6.20
   0  -7   0    3.70    2.80
   0   7   0    2.10    8.30
   0   7   0    6.40   11.30
  -1  -7   0   50.79    5.90
   1  -7   0   56.89    6.60
   1   7   0   57.69   10.30
  -1   7   0   33.10   12.60
   1   7   0   23.00   15.00
  -1   7   0   38.10    7.10
   1   7   0   38.30    8.80
  -2  -7   0   86.79    6.30
   2  -7   0   84.09   10.00
   2  -7   0   74.49   10.10
   2   7   0   73.99   12.60
  -2   7   0   86.29   13.70
   2   7   0   83.69    7.50
   3  -7   0   58.39    8.00
   3  -7   0   54.79   10.40
   3   7   0   77.09    7.00
   3   7   0   90.99   12.90
   4  -7   0   10.20    8.00
   4  -7   0    3.20    2.30
   4   7   0    3.90    6.70
   4   7   0    8.00    2.30
   0  -8   0    8.20    4.20
   0   8   0   11.60   13.10
   1  -8   0   14.60    4.90
  -1  -8   0    4.20    4.00
  -1   8   0   15.30   12.60
   1   8   0   28.10   13.20
   2  -8   0   89.59   10.10
   2   8   0  119.49   15.10
  -2   8   0  104.39   24.10
   2   8   0  105.39   11.90
   3  -8   0   18.10    9.90
   3   8   0   28.60    6.10
   3   8   0   30.00    7.20
   0   9   0  -11.90   11.60
   1   9   0   39.10   12.90
  -1   9   0   25.90   10.30
  -6   0   1  105.29  160.68
   5   0  -1  474.05   24.90
  -5   0   1  463.85   27.50
  -5   0   1  484.65   23.50
  -4   0   1  -28.50   76.19
  -3   0   1   24.90    2.70
  -3   0   1   26.50    3.70
  -2   0   1 2820.22  112.19
  -2   0   1 2780.72  110.69
  -1   0   1 1219.58   49.10
   0   0   1 1067.39   40.90
   0   0   1 1001.20   40.60
  -2   0  -1 1120.89   45.70
  -2   0  -1 1134.69   47.10
  -2   0  -1 1131.19   45.90
  -3   0  -1   36.80    4.40
  -3   0  -1   34.30    3.30
  -3   0  -1   34.50    3.40
  -4   0  -1   23.20  138.29
   5   0   1   10.00    4.30
  -5   0  -1  -21.30   75.79
  -6   0  -1  -37.20   87.49
   6  -1  -1   -3.80    2.60
  -6  -1   1   -7.20   86.59
  -6   1   1  -13.60  118.99
  -5  -1   1   32.60   59.69
  -5  -1   1  146.99   10.10
  -5  -1   1  172.28   13.40
   5  -1  -1  162.78   12.70
  -5   1   1  149.19   13.30
  -5   1   1  152.18   10.00
   5   1  -1  148.59   10.20
  -4  -1   1  180.78   10.60
  -4  -1   1  174.88   12.70
   4  -1  -1  179.78   14.00
  -4  -1   1   71.39  101.99
  -4   1   1  192.48   10.80
  -4   1   1  186.78   13.30
  -4   1   1  -53.69   79.39
  -4   1   1  185.88   16.30
   4   1  -1  158.28   11.10
  -3  -1   1   13.30    2.60
   3  -1  -1   18.70    4.00
  -3   1   1   19.50    3.30
  -3   1   1   21.80    2.70
  -3   1   1   15.80    3.40
   2  -1  -1 1037.90   44.40
  -2  -1   1 1036.50   43.20
  -2  -1   1 1025.70   41.80
  -2   1   1 1022.40   42.20
  -2   1   1 1045.10   44.00
   0  -1   1 1882.61   72.59
   0   1  -1 1718.63   73.49
   0   1   1 1964.70   73.09
   0   1   1 1874.31   73.39
  -1  -1  -1 1846.22   69.49
  -1  -1  -1 1695.33   68.39
   1   1   1 1822.72   69.59
  -1   1  -1 1655.23   69.79
  -1   1  -1 1737.93   69.99
   2  -1   1  466.85   21.20
  -2  -1  -1  406.66   18.20
  -2  -1  -1  431.46   19.90
  -2  -1  -1  433.26   18.80
  -2   1  -1  422.16   20.00
  -2   1  -1  442.46   18.90
  -2   1  -1  486.25   20.80
  -3  -1  -1  141.29    7.60
   3  -1   1  182.68   11.30
  -3  -1  -1  150.18    8.80
  -3  -1  -1  154.78   10.40
  -3   1  -1  189.58   11.30
  -3   1  -1  184.28   10.50
  -3   1  -1  174.58    9.10
  -4  -1  -1  117.19   10.20
  -4  -1  -1  122.49    8.20
  -4  -1  -1   92.29  145.99
   4  -1   1  128.29   11.40
  -4   1  -1  131.69   10.70
  -4   1  -1  102.29  142.49
   4   1   1  112.19   10.50
  -4   1  -1  135.29    8.40
   4   1   1  129.99    8.80
  -4   1  -1  135.49    9.60
  -5  -1  -1    6.20    3.70
   5  -1   1    4.20    2.70
  -5  -1  -1    6.70  146.09
  -5  -1  -1    2.20    1.60
  -5   1  -1  -98.19   59.69
   5   1   1    4.70    2.90
  -5   1  -1    5.00    2.00
  -5   1  -1    6.50    2.90
  -6  -1  -1  161.68  192.08
  -6   1  -1  118.79  130.89
  -6  -2   1  -51.49   70.59
  -5  -2   1  274.97   19.10
  -5  -2   1  147.79  176.88
   5  -2  -1  275.97   19.00
  -5  -2   1  280.97   15.00
  -5   2   1  154.58  137.49
   5   2  -1  275.57   16.30
  -5   2   1  255.87   18.60
   5   2  -1  250.47   15.30
   4  -2  -1  143.69   12.80
   4  -2  -1  154.88   13.80
  -4  -2   1  150.58   11.70
  -4  -2   1  139.99    8.90
  -4  -2   1  -13.40  108.09
  -4   2   1  144.59   11.70
  -4   2   1  154.78   12.00
  -4   2   1  150.98    9.10
  -4   2   1   25.50  118.39
   4   2  -1  127.99    9.60
  -3  -2   1   70.49    4.80
  -3  -2   1   70.19    6.00
   3  -2  -1   67.99    7.60
  -3   2   1   67.59    4.90
  -3   2   1   68.59    6.80
  -3   2   1   67.59    6.80
   2  -2  -1  901.91   40.00
  -2  -2   1  841.42   36.20
  -2  -2   1  850.21   37.40
  -2   2   1  943.91   39.30
  -2   2   1  950.40   40.20
   1  -2  -1 4925.61  191.58
  -1  -2   1 4794.52  189.58
   0  -2  -1 4360.56  169.88
   0   2   1 4302.67  169.08
   0   2   1 4320.67  168.98
  -1  -2  -1 3467.75  135.79
   1  -2   1 3442.16  136.99
  -1   2  -1 3355.96  136.09
   1   2   1 3557.64  135.49
  -2  -2  -1  248.58   12.40
  -2  -2  -1  243.98   11.20
   2  -2   1  258.47   14.30
   2   2   1  230.78   11.70
  -2   2  -1  250.07   13.10
  -2   2  -1  258.97   13.80
  -3  -2  -1  132.89    9.00
   3  -2   1  121.89   10.10
  -3  -2  -1  121.49    7.30
  -3   2  -1  135.99    9.70
  -3   2  -1  127.29    7.30
  -3   2  -1  129.49    9.40
  -4  -2  -1   22.50    4.60
  -4  -2  -1   22.80    3.10
  -4  -2  -1   36.70  123.69
   4  -2   1   22.60    5.40
   4  -2   1   17.40    6.20
  -4   2  -1   19.90    4.90
  -4   2  -1   94.49  170.28
  -4   2  -1   24.60    5.00
   4   2   1   29.40    4.70
   4   2   1   24.10    4.00
  -4   2  -1   15.60    2.90
  -5  -2  -1   -5.20   65.99
   5  -2   1    6.70    3.00
  -5  -2  -1   13.10    4.90
   5   2   1   19.20    3.90
  -5   2  -1    9.60    4.10
  -5   2  -1   22.70  118.29
  -6  -2  -1    4.40    1.90
  -6  -2  -1  -88.09   84.39
   6  -2   1    7.90    2.80
   6   2   1    5.70    2.10
  -6  -3   1   26.00    3.10
   6  -3  -1   22.70    4.10
  -6  -3   1   54.09  141.89
   6   3  -1   16.80    3.60
   6   3  -1   24.90    3.80
  -5  -3   1   68.59  184.78
  -5  -3   1  131.09    9.20
   5  -3  -1  145.89   13.30
   5   3  -1  150.88   10.60
   5   3  -1  144.19   10.40
  -4  -3   1  685.63   29.90
   4  -3  -1  633.64   34.40
   4  -3  -1  690.53   38.10
   4   3  -1  680.23   31.70
  -4   3   1  623.54   34.20
  -4   3   1  624.54   33.70
   4   3  -1  685.73   31.80
   3  -3  -1  531.75   26.90
  -3  -3   1  490.35   23.20
  -3  -3   1  464.55   21.00
   3  -3  -1  479.75   27.70
  -3   3   1  453.65   24.40
  -3   3   1  477.85   25.70
  -3   3   1  454.45   22.90
   3   3  -1  444.06   22.90
   3   3  -1  467.65   23.40
  -2  -3   1  948.41   39.40
  -2  -3   1  896.71   38.00
   2  -3  -1  903.71   42.50
  -2   3   1  949.60   41.20
  -2   3   1 1032.40   44.10
   1  -3  -1 1965.10   75.69
  -1  -3   1 1686.43   73.09
  -1   3   1 2005.80   77.39
   1   3  -1 1733.43   75.79
  -1   3   1 1898.01   74.79
   0  -3  -1  609.14   26.70
   0   3   1  620.04   27.50
   0   3  -1  623.74   27.90
  -1  -3  -1  349.96   14.60
   1  -3   1  310.27   15.40
  -1   3  -1  325.87   17.00
   1   3   1  362.36   15.40
  -1   3  -1  272.67   13.80
  -1   3  -1  298.77   14.60
  -2  -3  -1    7.80    1.80
   2  -3   1   14.90    3.50
  -2  -3  -1    5.30    1.00
  -2   3  -1    8.50    2.20
  -2   3  -1    5.20    2.60
   3  -3   1    9.70    4.00
   3  -3   1    5.20    2.40
  -3  -3  -1    6.90    1.50
  -3  -3  -1    9.90    2.60
  -3   3  -1    5.50    2.40
  -3   3  -1    7.90    2.50
   3   3   1   11.20    2.60
  -4  -3  -1  169.08   12.60
  -4  -3  -1  165.28   10.20
  -4  -3  -1    1.80   90.09
   4  -3   1  205.28   16.00
   4  -3   1  200.58   15.60
   4   3   1  169.48   11.50
  -4   3  -1  170.68   13.00
  -4   3  -1  170.68   13.60
   4   3   1  158.28   11.10
  -5  -3  -1  -31.30  127.59
  -6  -3  -1   92.29  153.38
   6  -4  -1    9.60    2.40
  -6  -4   1   18.30   83.99
   6   4  -1    9.80    2.30
   6   4  -1    7.20    2.90
   5  -4  -1   44.50    7.20
  -5  -4   1   38.60    4.30
  -5  -4   1    9.30  114.89
   5   4  -1   42.40    6.00
   5   4  -1   48.20    5.90
  -4  -4   1  113.59    7.60
   4  -4  -1   98.89   13.50
  -4  -4   1 -125.29  104.19
   4  -4  -1  117.99   12.60
  -4   4   1  106.69   10.00
   4   4  -1  113.79    9.00
   4   4  -1  112.59    9.20
  -4   4   1  110.49   11.70
  -3  -4   1   80.59    5.40
   3  -4  -1   88.29    9.50
   3  -4  -1   69.49    9.80
  -3   4   1   70.89    8.50
  -3   4   1   82.09    7.30
   3   4  -1   82.09    7.40
   3   4  -1   80.39    7.20
  -3   4   1   81.69    7.50
  -2  -4   1 1452.25   59.29
   2  -4  -1 1506.85   65.49
   2   4  -1 1399.86   62.49
   2   4  -1 1490.35   63.09
   2   4  -1 1541.65   65.79
  -2   4   1 1360.56   62.79
  -2   4   1 1541.05   62.19
  -2   4   1 1640.64   67.99
   1  -4  -1 2499.85  100.79
  -1   4   1 2585.64  103.39
   1   4  -1 2461.05  101.79
  -1   4   1 2366.26   97.69
   0  -4   1  390.86   17.50
   0  -4  -1  432.36   18.40
   0   4  -1  437.26   21.80
   0   4   1  443.56   21.40
  -1  -4  -1  868.71   35.90
   1  -4   1  876.51   38.80
  -1  -4  -1  920.41   38.00
  -1   4  -1  858.11   40.90
   1   4   1  939.71   39.20
  -2  -4  -1   59.49    3.90
  -2  -4  -1   54.79    5.20
   2  -4   1   60.49    7.00
  -2   4  -1   67.69    7.50
   2   4   1   61.99    6.00
   2   4   1   62.39   12.10
  -2   4  -1   66.99    4.90
   2   4   1   63.69    5.80
   3  -4   1   19.50    4.80
  -3  -4  -1   16.10    2.30
   3  -4   1   27.40    5.90
  -3   4  -1   12.50    3.60
   3   4   1   14.50    3.30
   3   4   1   12.30    3.20
  -3   4  -1    9.80    3.70
  -3   4  -1   20.90    3.70
  -3   4  -1   15.90    4.10
   4  -4   1   20.30    5.40
   4  -4   1   17.90    7.00
  -4  -4  -1   17.10    2.60
  -4  -4  -1    6.10  102.79
   4   4   1   12.70    3.10
  -4   4  -1   13.50    4.10
  -4   4  -1   19.40    3.80
   4   4   1   20.20    3.70
  -4   4  -1    9.30    3.90
   5  -4   1    3.70    2.10
  -5  -4  -1  -10.30   66.79
   5   4   1    6.70    4.30
   5   4   1   13.50    3.50
  -5   4  -1   -4.00    2.40
  -6  -4  -1  -33.40   62.89
  -6  -4  -1   15.80    3.10
  -5  -5   1   11.70    2.50
  -5  -5   1   75.79  128.09
   5  -5  -1    6.50    3.50
   5   5  -1    9.30    4.70
   5   5  -1   12.60    2.90
  -4  -5   1  191.08   10.50
   4  -5  -1  171.08   17.70
   4  -5  -1  181.38   16.20
   4   5  -1  200.48   13.10
   4   5  -1  187.58   12.50
  -3  -5   1 2073.09   79.19
   3  -5  -1 1961.60   89.19
   3  -5  -1 2083.59   88.39
   3   5  -1 2039.00   82.69
  -3   5   1 1948.21   82.29
   3   5  -1 2033.70   83.19
  -3   5   1 1732.13   80.19
  -3   5   1 1800.42   86.79
   2  -5  -1  179.68   13.80
   2  -5  -1  190.38   15.80
  -2  -5   1  158.88    8.20
  -2   5   1  201.08   14.60
   2   5  -1  180.08   11.30
   2   5  -1  153.18   10.90
  -2   5   1  189.88   16.00
   2   5  -1  139.59   19.00
   1  -5  -1  664.73   29.50
   1   5  -1  584.94   27.90
   1   5  -1  602.74   30.50
   1   5  -1  541.95   28.80
  -1   5   1  624.94   30.70
  -1   5   1  625.44   31.20
   1   5  -1  564.34   28.00
   0  -5  -1    5.30    1.60
   0   5  -1    7.40    3.00
   0   5   1    3.10    2.10
   0   5   1    7.70    2.60
   0   5  -1    9.10    2.70
   1  -5   1   34.80    4.50
  -1  -5  -1   26.80    2.50
   1   5   1   28.40    4.50
   1   5   1   29.60    7.30
  -1   5  -1   27.90    5.10
   1   5   1   29.10    4.70
   1   5   1   29.80    4.50
  -1   5  -1   40.60    9.00
   2  -5   1  110.39   11.70
  -2  -5  -1   97.49    5.90
   2  -5   1  102.99   10.20
  -2   5  -1   95.09   13.80
  -2   5  -1  100.49    7.90
   2   5   1   95.19    8.10
   2   5   1  104.99    8.20
   2   5   1   90.59   16.00
  -2   5  -1  110.49   10.60
  -3  -5  -1   36.40    3.60
   3  -5   1   28.00    7.30
   3  -5   1   37.00    7.30
   3   5   1   37.90    5.30
   3   5   1   39.90    5.80
  -3   5  -1   29.50    6.50
  -3   5  -1   37.30    7.50
  -3   5  -1   28.00    5.40
   4  -5   1   29.00    6.20
  -4  -5  -1   27.90    3.30
   4  -5   1   28.40    8.90
  -4  -5  -1  -25.60  146.59
   4   5   1   20.50    5.40
   4   5   1   27.20    4.50
  -5  -5  -1   25.50    3.30
   5  -5   1   22.60    4.80
  -5  -5  -1   -6.60  126.69
   5   5   1   27.00    3.90
   5   5   1   17.10    6.30
  -5  -6   1   66.79  132.19
   4  -6  -1   90.19    9.90
  -4  -6   1   81.29    5.80
   4  -6  -1   52.29   11.40
   4   6  -1   91.59    7.80
   4   6  -1   86.79   10.00
  -3  -6   1  100.39    6.40
   3  -6  -1   69.09   10.30
   3  -6  -1   90.39   11.10
   3   6  -1  102.29    8.50
   3   6  -1  107.19    9.10
  -3   6   1   87.89   13.60
   2  -6  -1 1107.29   51.69
  -2  -6   1 1022.90   43.20
   2  -6  -1 1107.39   53.29
   2   6  -1  991.20   54.29
  -2   6   1 1069.19   49.70
  -2   6   1 1018.00   51.89
   2   6  -1 1035.40   47.20
   2   6  -1 1098.29   47.60
  -1  -6   1   66.69    4.80
   1  -6  -1   78.49    7.90
   1   6  -1   62.89    7.70
   1   6  -1   64.49   10.70
   1   6  -1   68.29    6.70
  -1   6   1   83.49    8.90
   1   6  -1   59.29    8.20
  -1   6   1   90.29   19.40
   0  -6   1  202.08   11.70
   0  -6  -1  200.68   12.10
   0   6  -1  183.58   14.50
   0   6  -1  178.48   12.30
   0   6   1  176.28   13.90
   0   6   1  188.48   15.30
   0   6  -1  196.18   14.70
   0   6   1  200.98   14.60
  -1  -6  -1   84.79    6.10
   1  -6   1  111.89    9.30
  -1   6  -1   97.39    8.00
  -1   6  -1  109.39   19.10
   1   6   1   76.79    9.90
   1   6   1   80.09   10.40
   1   6   1   80.89    7.70
  -1   6  -1  109.59   10.50
   1   6   1   66.59   13.70
  -2  -6  -1   27.00    3.50
   2  -6   1   44.90    9.00
   2   6   1   44.50    8.20
   2   6   1   28.50    5.00
  -2   6  -1   42.10    6.20
  -2   6  -1   39.60   10.10
   3  -6   1    8.20    4.40
   3  -6   1   10.40    4.40
  -3  -6  -1   14.10    2.30
   3   6   1   11.40    5.80
   3   6   1    9.30    2.90
   4  -6   1    6.50    7.70
  -4  -6  -1    3.70  169.88
  -4  -6  -1    1.80    1.30
   4  -6   1    5.40    2.70
   4   6   1    3.00    7.50
   4   6   1    2.60    1.90
   5  -6   1   20.90    4.20
  -5  -6  -1   36.30   97.99
   5   6   1   11.20    6.30
   5   6   1   26.00    3.60
   4  -7  -1   33.20    4.90
   4   7  -1   33.10    4.10
   4   7  -1   22.90    7.40
   3  -7  -1  404.56   25.60
   3  -7  -1  405.96   26.30
   3   7  -1  464.75   22.70
   3   7  -1  500.95   25.00
  -2  -7   1    7.70    2.60
   2  -7  -1    7.00    4.10
   2  -7  -1   10.00    4.80
  -2   7   1   18.70   10.40
   2   7  -1   13.50    6.80
  -1  -7   1   73.29    6.70
   1  -7  -1   66.69    8.40
   1   7  -1   81.59   10.90
  -1   7   1   55.69    8.90
   1   7  -1   71.69   15.70
   1   7  -1   76.09   11.30
  -1   7   1   54.59   14.50
   0  -7  -1   27.70    5.00
   0   7  -1   13.10    6.70
   0   7   1   29.10   10.90
   0   7   1   20.80    6.50
   0   7  -1   20.50    6.10
   0   7  -1   39.80   13.20
   1  -7   1   41.40    6.50
  -1  -7  -1   47.40    5.30
   1   7   1   33.70    9.10
   1   7   1   60.09   11.10
  -1   7  -1   38.40    7.70
  -1   7  -1   43.60   14.60
   2  -7   1    4.80    3.10
   2  -7   1    4.80    4.50
  -2  -7  -1   17.20    3.30
   2   7   1   11.00    3.40
   2   7   1    7.80    8.10
  -2   7  -1   11.70   11.50
   3  -7   1    0.30    4.60
  -3  -7  -1    1.20    1.60
   3  -7   1   -1.90    2.60
   3   7   1    2.60    2.10
   3   7   1    2.40    7.90
   4  -7   1    4.70    2.40
   4  -7   1    5.20    7.30
   4   7   1    6.10    7.10
   4   7   1    7.60    2.30
   3  -8  -1    4.00    2.80
   3   8  -1    8.60    6.50
   3   8  -1    1.00    5.10
   2  -8  -1  154.38   13.70
  -2   8   1  208.28   26.20
   2   8  -1  197.48   14.70
   2   8  -1  222.18   17.40
   1  -8  -1   40.50    6.90
  -1   8   1   56.09   14.30
   1   8  -1   61.39   12.50
   0  -8   1    2.90    3.10
   0  -8  -1    0.70    3.30
   0   8   1    8.80   15.00
   0   8  -1    3.20   14.60
  -1  -8  -1   11.40    4.00
   1  -8   1   20.00    4.60
   1   8   1   37.20   13.20
  -1   8  -1   40.30   14.10
   2  -8   1    7.50    4.00
   2   8   1    8.90    6.80
  -2   8  -1   13.60   12.00
   2   8   1   10.50    7.70
   3  -8   1    3.40    3.00
   3   8   1    2.30    5.40
   3   8   1    4.00    6.20
   1   9  -1  126.69   15.10
  -1   9   1  101.99   20.40
   0   9   1    5.20   11.40
   0   9  -1   -4.60   10.50
   1   9   1   29.60   12.60
  -1   9  -1   22.50    9.20
  -6   0   2  -29.00   74.29
  -5   0   2 -106.99   71.19
  -4   0   2  985.50   46.40
  -4   0   2 1008.80   43.00
   4   0  -2  998.90   46.40
  -4   0   2  975.00   44.90
  -3   0   2    8.00    2.40
  -3   0   2    6.20    1.50
  -2   0   2  188.98    9.00
  -2   0   2  176.58   10.20
  -1   0   2  109.29    6.00
   0   0   2  222.28    9.80
   0   0  -2  221.38    9.40
   0   0   2  204.48    9.30
  -2   0  -2  657.63   28.00
  -2   0  -2  696.83   29.90
  -2   0  -2  690.43   28.30
  -3   0  -2  548.05   25.00
   3   0   2  577.44   26.40
  -3   0  -2  625.64   28.20
  -3   0  -2  585.34   25.50
  -4   0  -2  179.78   13.10
   4   0   2  179.08   13.20
  -4   0  -2  177.58   10.50
   5   0   2   12.50    3.80
  -5   0  -2    8.50  118.49
  -5   0  -2   10.70    3.70
  -5   0  -2   18.40    3.10
  -6   0  -2  -67.19   89.19
  -6   0  -2   -1.90    3.50
  -6  -1   2   58.49    5.50
  -6  -1   2   73.49  127.99
  -6   1   2   20.90  104.29
   6   1  -2   75.49    6.80
  -5  -1   2 1028.80   49.70
  -5  -1   2 1053.09   44.50
   5  -1  -2 1043.00   48.00
   5   1  -2  940.31   43.90
  -5   1   2  989.90   49.40
  -5   1   2  980.40   44.10
   4  -1  -2  202.48   15.40
  -4  -1   2  215.08   12.60
  -4  -1   2  235.48   12.20
  -4  -1   2  215.18   14.40
  -4  -1   2   39.50  116.59
  -4   1   2  183.18   13.50
  -4   1   2   25.70  120.29
  -4   1   2  190.68   11.60
  -4   1   2  201.78   14.50
   4   1  -2  216.88   12.60
  -3  -1   2  313.47   17.10
   3  -1  -2  331.67   17.70
  -3  -1   2  309.47   15.20
  -3   1   2  333.37   15.60
  -3   1   2  329.37   18.10
  -2  -1   2  863.71   35.50
   2  -1  -2  844.82   38.00
  -2  -1   2  903.51   37.10
  -2   1   2  863.81   35.90
  -2   1   2  871.01   37.90
  -1  -1   2  578.84   23.10
  -1   1   2  542.15   24.30
   0  -1   2  190.28    8.20
   0  -1  -2  216.98    9.10
   0   1  -2  192.58    9.20
   0   1  -2  178.68    7.90
  -1  -1  -2  651.63   26.50
  -1   1  -2  628.04   26.70
  -1   1  -2  626.74   26.50
   2  -1   2  243.58   13.10
  -2  -1  -2  235.08   12.40
  -2  -1  -2  222.08   11.10
  -2   1  -2  263.07   12.40
  -2   1  -2  256.77   11.30
  -2   1  -2  245.68   12.70
   3  -1   2 1149.29   49.50
  -3  -1  -2 1166.78   47.20
  -3  -1  -2 1218.48   49.90
  -3   1  -2 1008.70   49.40
  -3   1  -2 1144.99   47.10
  -3   1  -2 1146.39   48.50
   4  -1   2  475.25   26.00
  -4  -1  -2  444.16   24.50
  -4  -1  -2  474.25   22.00
   4  -1   2  456.15   26.10
  -4  -1  -2   78.39  134.29
  -4   1  -2   54.89  146.99
  -4   1  -2  463.25   21.60
  -4   1  -2  469.45   25.30
  -4   1  -2  471.25   22.60
   4   1   2  425.16   22.00
   4   1   2  460.15   24.00
  -5  -1  -2   50.29    5.30
  -5  -1  -2   28.70   78.59
   5  -1   2   62.89    7.60
  -5  -1  -2   45.60    7.40
  -5   1  -2 -105.69  127.29
  -5   1  -2   58.29    7.50
  -5   1  -2   49.70    5.40
   5   1   2   51.19    6.40
   6  -1   2    8.00    2.80
  -6  -1  -2    5.30    2.20
  -6  -1  -2  -14.00  105.69
   6  -1   2    7.00    2.50
  -6   1  -2  -71.39   97.29
   6  -2  -2  114.99    8.80
  -6  -2   2  119.89    8.20
   6   2  -2  101.39    7.50
   6   2  -2  136.79    8.90
  -5  -2   2  -10.00   89.39
  -5  -2   2   80.79   10.80
  -5  -2   2   88.29    7.00
   5  -2  -2   75.49    9.40
   5   2  -2   80.09    7.60
   5   2  -2   76.49    7.00
  -5   2   2   73.89    9.40
  -5   2   2  -23.20  111.49
  -4  -2   2  661.83   28.60
   4  -2  -2  619.34   31.70
   4  -2  -2  630.74   35.20
  -4  -2   2  711.33   32.60
  -4   2   2  594.74   32.20
  -4   2   2  630.14   32.80
  -4   2   2  540.45   27.80
   4   2  -2  622.94   29.90
   3  -2  -2  433.66   23.10
  -3  -2   2  387.16   18.80
  -3  -2   2  409.66   20.90
  -3   2   2  437.26   22.70
  -3   2   2  432.36   22.90
  -3   2   2  427.26   19.40
   2  -2  -2  188.08   11.90
  -2  -2   2  198.38   10.10
  -2  -2   2  191.78    8.80
  -2   2   2  205.68   12.50
  -2   2   2  186.18   11.40
  -2   2   2  181.68    9.40
   1  -2  -2 3610.54  138.89
  -1  -2   2 3203.08  136.59
  -1   2   2 3680.23  139.79
   0  -2  -2 1742.03   70.49
   0   2   2 1791.12   70.69
   0   2   2 1748.53   69.99
   0   2   2 1742.93   69.89
   1  -2   2 3359.16  137.09
  -1   2  -2 3464.35  137.69
  -1   2  -2 3674.23  136.39
   1   2   2 3342.77  135.99
  -2  -2  -2 1406.46   59.49
   2  -2   2 1480.45   61.39
  -2  -2  -2 1384.46   57.99
  -2   2  -2 1385.56   60.49
  -2   2  -2 1587.14   60.39
  -3  -2  -2  132.39    9.50
   3  -2   2  161.58   11.40
  -3   2  -2  166.58   10.80
  -3   2  -2  154.98   10.50
  -3   2  -2  138.99    8.10
  -4  -2  -2  107.79  142.39
  -4  -2  -2  490.05   23.40
  -4  -2  -2  495.15   26.30
   4  -2   2  524.95   29.00
   4  -2   2  498.25   26.90
  -4   2  -2  551.94   26.30
  -4   2  -2  514.05   27.10
   4   2   2  463.85   24.30
   4   2   2  459.25   24.10
  -4   2  -2  155.58  137.69
  -5  -2  -2  -88.89   49.00
  -5   2  -2 -104.49  142.29
  -6  -2  -2   51.89  111.19
  -6  -3   2  -35.10   99.49
   6  -3  -2   31.30    4.50
  -6  -3   2   30.30    3.60
   6   3  -2   25.20    4.40
   6   3  -2   37.50    4.60
  -5  -3   2  190.08   11.40
   5  -3  -2  177.98   15.30
   5   3  -2  192.28   12.30
   5   3  -2  179.68   12.10
  -4  -3   2   -6.50  153.88
   4  -3  -2  347.07   24.40
   4  -3  -2  347.57   22.60
  -4  -3   2  387.16   17.80
   4   3  -2  366.36   19.60
  -4   3   2  321.77   21.70
   4   3  -2  351.46   19.50
  -4   3   2  342.97   21.30
  -3  -3   2   90.99    5.60
  -3  -3   2  101.89    7.40
   3  -3  -2   83.59    9.00
   3  -3  -2   84.79    9.90
  -3   3   2   73.89    7.20
  -3   3   2   77.69    8.50
  -3   3   2   79.39    7.80
   3   3  -2   90.69    7.50
   3   3  -2   99.19   16.50
  -2  -3   2 1071.89   46.10
   2  -3  -2 1262.47   51.69
  -2  -3   2 1149.78   47.50
   1  -3  -2  126.09    8.00
  -1   3   2  138.89    8.00
  -1   3   2  130.99    9.20
   0  -3  -2 1464.65   59.59
   0  -3  -2 1418.26   57.79
   0   3  -2 1369.26   60.49
   0   3   2 1463.65   57.69
   0   3   2 1526.85   57.79
   0   3   2 1447.16   59.89
  -1  -3  -2  609.44   26.40
  -1  -3  -2  644.24   27.80
   1  -3   2  634.64   28.50
  -1   3  -2  645.44   26.60
  -1   3  -2  669.03   30.60
  -1   3  -2  661.23   27.30
   1   3   2  691.53   28.00
  -2  -3  -2  513.05   24.20
  -2  -3  -2  536.15   22.70
   2  -3   2  546.65   26.70
  -2   3  -2  549.74   24.50
  -2   3  -2  531.35   26.50
   3  -3   2   29.80    6.40
  -3  -3  -2   20.90    3.70
  -3  -3  -2   21.50    2.60
   3  -3   2   28.00    4.90
   3   3   2   14.50    3.20
   3   3   2   26.60    3.60
  -4  -3  -2  171.98   13.10
   4  -3   2  146.39   14.30
   4  -3   2  177.48   14.70
  -4  -3  -2  174.38   10.10
  -4  -3  -2   61.29  142.49
  -4   3  -2  149.19   12.50
   4   3   2  156.08   10.80
  -4   3  -2  151.58   12.30
   4   3   2  168.38   11.40
   5  -3   2   37.80    5.80
  -5  -3  -2   89.59  129.59
  -5  -3  -2   38.00    4.30
   5   3   2   43.60    5.30
   5   3   2   32.70    5.20
   6  -3   2   60.69    6.20
  -6  -3  -2   49.60    4.60
  -6  -3  -2  -45.40   52.39
   6   3   2   41.10    5.10
  -6   3  -2   35.10    4.30
   6  -4  -2    7.90    2.50
  -6  -4   2   31.80   97.89
   6   4  -2    7.90    2.90
   6   4  -2   14.20    3.20
  -5  -4   2   42.00    4.30
   5  -4  -2   37.20    6.90
  -5  -4   2   68.09  165.28
   5   4  -2   38.40    5.10
   5   4  -2   43.20    5.20
  -4  -4   2  705.53   30.50
   4  -4  -2  693.33   37.40
   4  -4  -2  710.33   39.50
   4   4  -2  718.93   33.40
  -4   4   2  613.64   34.10
  -4   4   2  636.54   36.70
   4   4  -2  709.03   32.80
  -3  -4   2   58.59    4.20
   3  -4  -2   40.20    7.30
   3  -4  -2   37.90    7.80
   3   4  -2   50.79    5.80
  -3   4   2   54.69    5.90
  -3   4   2   50.69    6.00
   3   4  -2   44.60    5.60
   3   4  -2   67.99   15.60
  -3   4   2   45.10    7.00
  -2  -4   2  237.98   11.20
  -2   4   2  315.47   15.00
   2   4  -2  256.67   14.50
   2   4  -2  230.18   14.10
   2   4  -2  248.78   17.20
   1  -4  -2  540.95   25.10
   1   4  -2  509.95   26.20
  -1   4   2  542.55   26.90
  -1   4   2  519.45   22.90
   0  -4  -2  279.67   13.20
   0   4   2  288.17   15.40
   0   4  -2  280.17   16.40
  -1  -4  -2  634.44   28.10
  -1  -4  -2  627.14   26.20
   1  -4   2  588.14   28.40
   1   4   2  645.44   28.50
  -1   4  -2  643.14   31.40
  -2  -4  -2    9.30    2.40
   2  -4   2    6.90    2.60
  -2  -4  -2    8.50    1.50
  -2   4  -2    5.70    2.60
   2   4   2   14.70    3.40
  -2   4  -2    9.40    2.00
   2   4   2    7.20    2.10
   3  -4   2   29.00    6.60
  -3  -4  -2   28.90    3.10
   3  -4   2   39.60    6.20
   3   4   2   26.80    4.60
  -3   4  -2   31.40    5.50
  -3   4  -2   32.40    4.50
   3   4   2   25.60    4.60
  -4  -4  -2   -7.20  120.59
  -4  -4  -2  159.78    9.70
   4  -4   2  152.48   15.30
   4  -4   2  156.28   14.60
   4   4   2  162.38   11.00
   4   4   2  165.28   12.00
  -4   4  -2  138.49   12.70
  -4   4  -2  124.99   10.80
  -5  -4  -2   40.70    4.70
   5  -4   2   52.59    8.30
  -5  -4  -2    0.40  146.49
  -5   4  -2   34.90    4.40
   5   4   2   48.10    8.10
   5   4   2   39.50    5.20
  -6  -4  -2 -112.89   80.09
   6  -4   2    0.40    1.60
  -6  -4  -2    3.40    2.20
   6   4   2    5.10    2.70
   5  -5  -2    1.80    2.40
  -5  -5   2  -34.90  128.19
  -5  -5   2    3.60    1.40
   5   5  -2   -1.40    3.40
   5   5  -2    4.00    1.80
  -4  -5   2  112.89    7.40
   4  -5  -2  105.89   12.00
   4  -5  -2   84.29   14.40
   4   5  -2  120.79    9.10
   4   5  -2  119.09    9.50
   3  -5  -2  792.52   42.20
  -3  -5   2  726.63   31.90
   3  -5  -2  799.42   40.60
   3   5  -2  777.22   35.80
  -3   5   2  759.22   40.20
  -3   5   2  697.73   34.20
  -3   5   2  775.42   35.60
   3   5  -2  726.23   35.10
   2  -5  -2  450.95   24.20
   2  -5  -2  396.26   25.10
  -2  -5   2  350.56   17.60
  -2   5   2  415.76   24.20
   2   5  -2  374.76   20.00
   2   5  -2  392.96   26.00
  -2   5   2  372.76   17.70
  -2   5   2  410.46   23.40
   2   5  -2  390.86   20.50
   1  -5  -2   75.19    6.90
  -1   5   2   76.79    7.80
   1   5  -2   49.60    5.60
   1   5  -2   63.89    6.20
   1   5  -2   61.69    6.50
  -1   5   2   88.59   13.60
   1   5  -2   58.49    7.10
   0  -5  -2   24.80    3.10
   0  -5   2   29.00    3.40
   0   5  -2   29.00    4.90
   0   5   2   32.50    4.70
   0   5  -2   25.10    4.50
   0   5  -2   25.80    4.60
   0   5   2   36.30    5.00
  -1  -5  -2   39.90    3.40
   1  -5   2   39.40    4.90
   1   5   2   41.10   14.20
  -1   5  -2   38.50    5.80
  -1   5  -2   37.70    4.90
   1   5   2   57.29    6.40
  -1   5  -2   55.79   12.30
   1   5   2   40.00    5.10
   1   5   2   36.60    4.90
  -2  -5  -2   33.80    3.30
   2  -5   2   28.70    7.20
   2  -5   2   33.30    5.80
  -2   5  -2   31.60    7.80
  -2   5  -2   31.80    4.80
  -2   5  -2   25.80    5.60
   2   5   2   35.60    5.10
   2   5   2   28.90    5.70
   3  -5   2   20.50    5.60
  -3  -5  -2   10.60    2.30
   3  -5   2   21.80    5.30
   3   5   2    9.30    4.10
  -3   5  -2   23.80    4.40
   3   5   2   14.40    3.40
  -3   5  -2   23.10    5.40
  -4  -5  -2 -185.68  124.09
   4  -5   2   16.90    8.10
   4   5   2   19.00    6.00
  -4   5  -2    8.90    3.30
  -5  -5  -2   83.39  120.59
   5  -5   2   30.10    5.50
  -5  -5  -2   30.00    3.60
   5   5   2   19.10    6.90
   5   5   2   35.20    4.40
   5  -6  -2   19.40    3.90
  -5  -6   2   79.89  102.79
   5   6  -2   26.80    3.70
   5   6  -2   24.00    6.10
  -4  -6   2  188.18   10.90
   4  -6  -2  209.38   16.60
   4  -6  -2  186.08   18.60
   4   6  -2  224.48   14.50
   4   6  -2  229.68   13.10
   3  -6  -2   50.69    8.60
  -3  -6   2   67.49    4.90
   3  -6  -2   55.49    8.40
   3   6  -2   60.39    6.70
   3   6  -2   70.09    7.10
  -3   6   2   54.99   10.10
   2  -6  -2  103.19   11.90
  -2  -6   2   73.69    6.20
   2   6  -2   80.49    7.30
  -2   6   2   98.99   16.50
   2   6  -2   74.89   17.70
  -2   6   2  105.49   11.00
   2   6  -2   87.69    8.00
   1  -6  -2  138.39  253.67
   1  -6  -2    9.00    6.70
   1  -6  -2    9.10    3.10
  -1   6   2   14.40    4.60
   1   6  -2   11.80    3.70
   1   6  -2   10.30    4.60
   1   6  -2   11.30    3.10
   1   6  -2   15.00    3.30
  -1   6   2   13.50   12.40
   0  -6   2   15.10    3.00
   0  -6  -2   24.40    4.30
   0   6   2   24.70    6.40
   0   6  -2    5.10    2.90
   0   6  -2   12.00    3.90
   0   6  -2   21.30    6.30
   1  -6   2   78.79    8.20
  -1  -6  -2   75.29    5.80
   1   6   2   72.19    6.80
  -1   6  -2   72.29   13.00
   1   6   2   79.79   14.70
  -1   6  -2   79.39    6.90
   1   6   2   60.69    9.10
   1   6   2   77.29   11.30
  -1   6  -2   59.69    8.50
   2  -6   2   44.00    9.20
  -2  -6  -2   26.70    3.50
   2  -6   2   33.90    6.50
  -2   6  -2   29.70    6.40
   2   6   2   29.10    7.70
   2   6   2   26.60    4.80
  -2   6  -2   36.70   10.80
  -2   6  -2   31.80    5.00
   3  -6   2    4.10    3.00
  -3  -6  -2    8.30    2.00
   3  -6   2    2.80    4.10
   3   6   2   11.30    3.20
  -3   6  -2   -1.30    2.70
   3   6   2    7.70    7.10
   4  -6   2    0.50    2.30
  -4  -6  -2  -63.19  111.49
  -4  -6  -2    1.40    1.50
   4  -6   2    4.00    7.60
   4   6   2    0.70    1.70
   4   6   2    0.70    7.40
  -5  -6  -2  -51.19   97.89
   5   6   2   21.80    6.90
   4  -7  -2    2.50    2.60
   4   7  -2    1.70    5.80
   4   7  -2    4.20    2.10
   3  -7  -2  286.87   19.70
   3  -7  -2  268.77   20.40
   3   7  -2  315.57   18.50
   3   7  -2  295.57   16.20
   2  -7  -2   33.60    6.80
   2   7  -2   33.30    4.60
   2   7  -2   24.70   17.80
   2   7  -2   28.40    7.00
  -2   7   2   34.00   12.10
  -1  -7   2   17.70    3.90
   1  -7  -2   11.70    3.90
  -1   7   2   10.60    5.30
  -1   7   2   22.90   14.70
   1   7  -2   23.10    7.10
   1   7  -2   25.90    7.30
   1   7  -2   14.90   12.40
   0  -7  -2   26.60    4.60
   0  -7   2   23.00    4.50
   0   7  -2   30.10   11.80
   0   7   2   19.90    6.20
   0   7  -2   16.80    5.30
   0   7   2   19.30   10.70
  -1  -7  -2    9.80    2.70
   1  -7   2    8.40    3.70
   1   7   2    1.80    6.20
   1   7   2    2.60    8.20
  -1   7  -2   12.40    5.40
  -1   7  -2   19.10   13.00
  -1   7  -2    5.40    2.80
   2  -7   2    5.50    5.00
  -2  -7  -2   13.30    3.00
   2  -7   2    8.90    4.40
  -2   7  -2   18.10   10.90
   2   7   2   17.70    8.90
   2   7   2   20.60    4.20
   3  -7   2   15.40    5.70
   3  -7   2   15.30    5.10
  -3  -7  -2   16.30    3.10
   3   7   2   16.10    8.60
   3   7   2   19.70    4.00
   4  -7   2   13.00    3.40
  -4  -7  -2 -131.29  112.89
   4  -7   2    6.60    9.10
   4   7   2   18.50    8.00
   3  -8  -2   -2.10    2.50
   3   8  -2   -0.20    5.20
   3   8  -2   -0.80    5.50
   2  -8  -2   97.99   10.60
   2   8  -2  119.89   14.50
  -2   8   2  127.09   24.80
   2   8  -2   95.29   11.20
   1  -8  -2    3.70    3.00
   1   8  -2   12.60   11.00
  -1   8   2   12.60   13.50
   0  -8   2    5.30    3.90
   0  -8  -2    9.80    3.00
   0   8  -2   18.50   16.10
   0   8  -2    1.70    6.80
   0   8   2    2.60   13.30
   1  -8   2    3.70    3.10
  -1  -8  -2   11.10    3.50
   1   8   2   13.50   11.20
  -1   8  -2   28.30   12.80
   2  -8   2    5.90    3.50
  -2  -8  -2    3.20    2.90
   2   8   2   10.80    9.00
   2   8   2    5.60    6.50
   3   8   2   13.00    6.10
   3   8   2   12.00    6.10
   1   9  -2    5.80    9.90
  -1   9   2   -2.10   11.10
   0   9  -2    9.00    9.30
   0   9   2    6.00   11.90
   1   9   2    0.00   11.50
  -6   0   3  -34.50  148.69
  -5   0   3   78.09    9.20
  -5   0   3   72.59  229.28
  -5   0   3   68.69    6.40
   4   0  -3   10.40    4.00
  -4   0   3    8.10    2.90
   4   0  -3    8.70    3.00
  -4   0   3   18.00  118.19
  -4   0   3   14.60    2.60
  -4   0   3    9.60    3.00
  -3   0   3   17.90    2.60
  -3   0   3   22.00    3.60
  -2   0   3   85.19    6.20
  -2   0   3   88.19    5.20
   0   0  -3    0.50    0.50
  -1   0  -3 2798.72  106.59
   1   0   3 2586.04  105.79
   2   0   3 1978.00   76.89
  -2   0  -3 1813.42   75.49
  -2   0  -3 1895.51   75.19
  -3   0  -3 1813.02   74.89
  -3   0  -3 1824.92   75.89
  -3   0  -3 1949.51   78.79
   3   0   3 1928.21   76.89
  -4   0  -3   29.90    3.60
  -4   0  -3   33.20    5.20
   4   0   3   29.70    5.20
  -4   0  -3   81.09  118.49
  -5   0  -3    5.70    3.00
  -5   0  -3   14.20  124.29
   5   0   3    5.70    2.80
  -5   0  -3    3.80    1.90
   6   0   3   28.40    4.90
  -6   0  -3   19.90   97.99
  -6  -1   3    4.20    1.90
  -6  -1   3  -44.20  127.29
   6   1  -3    3.10    2.30
  -6   1   3   46.80  112.69
  -5  -1   3  479.35   23.90
  -5  -1   3  497.35   28.80
   5  -1  -3  517.65   27.20
  -5   1   3  510.15   24.00
  -5   1   3   56.59  191.68
  -5   1   3  488.65   28.40
   5   1  -3  450.75   23.70
  -4  -1   3  201.58   12.50
  -4  -1   3  229.38   15.30
   4  -1  -3  246.78   17.40
   4   1  -3  207.78   13.20
  -4   1   3  260.57   16.60
  -4   1   3  223.88   15.40
  -4   1   3  255.47   13.20
  -4   1   3   13.70  155.08
  -3  -1   3  211.48   12.60
   3  -1  -3  190.68   12.80
  -3  -1   3  216.98   10.80
  -3   1   3  200.38   13.20
  -3   1   3  205.48   11.10
  -2  -1   3  857.81   35.50
  -2  -1   3  877.61   36.90
   2  -1  -3  836.52   38.00
  -2   1   3  876.01   36.00
  -2   1   3  870.61   37.90
  -1   1   3 3049.50  121.29
   0   1  -3 5016.80  190.18
   0   1  -3 4639.34  188.38
   2  -1   3 2018.20   81.49
  -2  -1  -3 1945.21   80.79
  -2  -1  -3 1954.80   79.29
  -2   1  -3 2061.89   81.29
  -2   1  -3 1976.80   79.19
  -3  -1  -3  365.86   18.70
  -3  -1  -3  351.56   16.60
   3  -1   3  361.36   18.70
  -3   1  -3  344.07   16.40
  -3   1  -3  362.16   17.40
  -3   1  -3  332.57   18.70
   4  -1   3  147.89   12.70
  -4  -1  -3  182.08   13.00
   4  -1   3  167.18   13.40
  -4  -1  -3  185.68   10.50
  -4   1  -3  175.08   10.20
  -4   1  -3  128.09  144.19
   4   1   3  179.28   11.20
  -4   1  -3  186.48   13.20
   4   1   3  162.98   12.20
  -5  -1  -3   11.80    4.10
  -5  -1  -3  -23.60  148.69
  -5   1  -3    1.90    2.70
  -5   1  -3  -58.29   63.69
  -6  -1  -3    3.90    2.10
  -6  -1  -3   12.10  106.29
   6  -1   3    9.40    2.60
   6  -1   3    7.30    2.90
   6   1   3    7.10    2.30
  -6  -2   3  153.78    9.20
   6  -2  -3  143.99    9.70
   6   2  -3  138.39    8.70
   6   2  -3  164.38   10.10
  -5  -2   3   71.69   82.99
   5  -2  -3   51.49    7.70
  -5  -2   3   60.79    5.70
  -5   2   3   47.30    7.70
  -5   2   3   29.70  104.29
   5   2  -3   55.29    5.80
  -5   2   3   36.60    9.90
  -4  -2   3 -113.59  138.19
   4  -2  -3    8.10    4.70
  -4   2   3  -52.29  104.09
  -3  -2   3   17.90    2.30
   3  -2  -3   12.90    4.90
   3  -2  -3    6.70    3.80
  -3   2   3   14.90    3.40
  -3   2   3   10.40    3.20
  -3   2   3   12.10    2.40
  -2  -2   3  288.47   13.10
  -2  -2   3  307.07   14.60
   2  -2  -3  310.07   16.70
  -2   2   3  306.17   16.30
  -2   2   3  298.87   13.90
   1  -2  -3 1590.54   67.19
  -1  -2   3 1592.94   65.09
   1   2  -3 1689.53   68.39
  -1   2   3 1721.53   67.69
   0  -2  -3 4948.90  190.48
   0  -2  -3 4999.00  191.88
   0   2   3 4852.41  191.38
   0   2   3 4663.33  191.38
  -1  -2  -3 1989.80   82.59
   1  -2   3 2156.28   84.59
  -1  -2  -3 2103.89   83.89
   1   2   3 2081.49   82.39
  -1   2  -3 2033.80   84.99
  -1   2  -3 2200.78   83.29
  -2  -2  -3  566.44   23.80
  -2  -2  -3  578.34   25.30
   2  -2   3  537.25   26.50
  -2   2  -3  567.54   25.40
  -2   2  -3  543.35   25.90
  -3  -2  -3 1739.43   72.09
   3  -2   3 1729.53   77.69
   3  -2   3 1801.92   75.59
  -3  -2  -3 1783.72   74.49
  -3   2  -3 1797.22   74.99
  -3   2  -3 1787.92   74.69
   4  -2   3   77.29    8.70
   4  -2   3   59.49   10.10
  -4  -2  -3   78.39    6.00
  -4  -2  -3   70.79    7.50
  -4  -2  -3  -99.99   83.39
   4   2   3   54.59    6.50
  -4   2  -3  -47.40  102.79
   4   2   3   63.49    6.60
  -4   2  -3   70.39    7.70
  -4   2  -3   75.49    7.40
  -5  -2  -3   11.30   76.19
   5  -2   3   61.89    7.80
  -5  -2  -3   43.00    8.50
  -5  -2  -3   63.99    5.60
   5   2   3   46.70    5.50
   5   2   3   55.69    5.70
  -5   2  -3   54.49    7.60
  -6  -2  -3   17.10   82.19
  -6  -2  -3   -0.80    1.50
   6  -2   3   -3.40    2.40
   6   2   3    3.20    1.90
   6  -3  -3   13.80    3.30
  -6  -3   3   23.40  103.39
  -6  -3   3   17.50    2.80
   6   3  -3   15.90    3.30
   6   3  -3   27.00    3.80
  -5  -3   3  209.28   12.10
  -5  -3   3   97.69  131.19
   5  -3  -3  215.98   16.40
   5   3  -3  196.48   12.70
   5   3  -3  191.98   12.60
  -4  -3   3   84.59  170.38
   4  -3  -3  302.67   21.40
   4  -3  -3  266.57   19.70
  -4  -3   3  271.87   14.30
   4   3  -3  266.07   16.00
   4   3  -3  264.27   16.20
  -4   3   3  257.57   18.70
  -4   3   3  280.47   18.70
   3  -3  -3  103.19   10.00
   3  -3  -3   95.19   10.90
  -3  -3   3   89.59    5.90
  -3  -3   3   88.09    7.20
  -3   3   3  101.29    8.00
  -3   3   3  122.49   10.40
   3   3  -3  128.79   18.00
   3   3  -3   81.99    7.50
  -3   3   3  115.89    9.50
   3   3  -3   89.49    8.20
   2  -3  -3   93.89    8.30
  -2  -3   3   94.39    5.80
  -2  -3   3   86.89    4.60
  -2   3   3   84.89    8.40
  -2   3   3   94.09    7.50
   1  -3  -3  180.98   10.70
  -1   3   3  182.98   10.60
  -1   3   3  188.58   12.00
   1   3  -3  203.98   11.90
   0  -3  -3 1127.39   45.10
   0  -3  -3 1150.38   47.00
   0   3  -3  998.50   47.40
   0   3   3 1147.69   45.60
   0   3   3 1118.79   46.80
   1  -3   3 1210.68   50.19
  -1  -3  -3 1210.58   49.99
  -1  -3  -3 1179.88   48.30
  -1   3  -3 1276.47   52.39
   1   3   3 1220.48   49.20
   1   3   3 1217.88   48.30
   1   3   3 1101.69   48.20
  -2  -3  -3  352.76   15.20
  -2  -3  -3  347.27   16.90
   2  -3   3  333.07   18.50
   2   3   3  310.67   14.40
  -2   3  -3  341.57   16.50
  -2   3  -3  330.47   18.50
  -3  -3  -3  236.18   14.00
   3  -3   3  214.78   16.40
   3  -3   3  230.68   15.30
  -3  -3  -3  214.18   11.50
  -3   3  -3  221.58   13.60
   3   3   3  201.28   12.40
  -3   3  -3  222.78   14.80
   3   3   3  241.78   13.40
   4  -3   3   11.70    6.20
  -4  -3  -3  121.89  141.69
   4  -3   3   13.90    4.40
  -4  -3  -3   16.00    2.90
  -4  -3  -3   16.10    4.30
  -4   3  -3   22.60    4.40
   4   3   3   11.70    3.70
   4   3   3   17.80    4.00
  -4   3  -3   15.50    4.50
  -5  -3  -3  -17.40   78.99
  -5  -3  -3    6.30    2.10
   5  -3   3    3.90    3.00
   5   3   3    8.60    2.70
   5   3   3    9.10    3.20
   6  -3   3    6.20    2.20
  -6  -3  -3    1.20    1.60
  -6  -3  -3   47.40  123.99
  -6  -3  -3    2.70    1.50
   6   3   3    5.40    2.60
   6   3   3    3.80    1.90
  -6   3  -3    5.50    2.10
  -6  -4   3   48.00  104.09
  -5  -4   3  -97.49  149.49
   4  -4  -3   72.69   13.20
  -4  -4   3   55.89    5.00
   4  -4  -3   83.79   10.50
   4   4  -3   50.49    6.20
  -4   4   3   69.09    9.00
   4   4  -3   53.19    6.40
  -4   4   3   71.59    8.60
   3  -4  -3   59.79    8.60
   3  -4  -3   65.19    8.40
  -3  -4   3   58.59    4.40
  -3   4   3   56.69    7.90
  -3   4   3   60.89    7.00
   3   4  -3   56.09    6.20
  -3   4   3   51.39    6.30
   3   4  -3   61.99   17.10
   3   4  -3   58.79    6.20
   2  -4  -3  138.79   11.10
   2  -4  -3  137.29   12.50
   2   4  -3  132.79    9.20
   2   4  -3  110.49    8.90
  -2   4   3  140.19   11.70
   2   4  -3  130.19   11.50
  -2   4   3  129.69    9.20
  -1   4   3  636.84   31.70
   1   4  -3  707.13   32.70
  -1   4   3  647.64   29.00
   0  -4  -3  305.37   14.60
   0   4   3  294.07   16.40
   0   4  -3  328.17   18.10
  -1  -4  -3 1886.11   81.69
   1  -4   3 1944.01   81.79
  -1   4  -3 2107.89   85.69
   1   4   3 2028.00   81.29
   2  -4   3 1029.10   46.00
  -2  -4  -3 1014.30   43.50
  -2  -4  -3  979.90   41.00
  -2   4  -3  974.40   46.20
   2   4   3 1005.20   43.60
  -2   4  -3  981.50   43.20
   2   4   3  932.01   42.80
  -3  -4  -3   74.59    7.70
  -3  -4  -3   73.79    5.40
   3  -4   3   73.09    8.40
   3  -4   3   65.89    9.00
  -3  -4  -3 -133.99  158.28
   3   4   3   67.29    6.80
  -3   4  -3   68.19    7.90
  -3   4  -3   59.89    5.90
   3   4   3   66.99    7.50
  -4  -4  -3  228.08  218.18
   5  -4   3   48.60    7.10
  -5  -4  -3   58.59    5.20
  -5  -4  -3   57.69    6.00
  -5  -4  -3    2.40  136.49
   5   4   3   47.80    7.70
   5   4   3   52.99    5.70
  -5   4  -3   45.50    4.90
  -6  -4  -3  -34.70   94.29
  -6  -4  -3    1.90    2.10
   6  -4   3    0.80    1.40
   6   4   3    0.40    2.30
   6   4   3    1.40    1.30
  -5  -5   3   97.29  141.89
   4  -5  -3   51.09   11.00
  -4  -5   3   50.39    4.40
   4  -5  -3   53.19    8.60
   4   5  -3   57.59    6.20
   4   5  -3   47.70    5.80
  -3  -5   3   27.60    3.00
   3  -5  -3   11.90    5.20
   3  -5  -3   21.40    6.00
   3   5  -3   29.50    4.60
  -3   5   3   22.10    5.00
   3   5  -3   13.80   17.50
   3   5  -3   33.50    5.10
  -3   5   3   27.50    5.20
   2  -5  -3  198.28   14.90
   2  -5  -3  217.08   17.00
   2   5  -3  236.18   18.40
   2   5  -3  223.28   12.90
  -2   5   3  195.18   15.80
  -2   5   3  176.98   14.70
   2   5  -3  208.28   12.50
  -2   5   3  172.78   10.80
   1  -5  -3   22.50    6.50
   1  -5  -3   29.80    4.60
   1  -5  -3  214.58  320.67
  -1   5   3   17.00    7.40
   1   5  -3   18.00    3.50
   1   5  -3   21.60    4.00
   1   5  -3   19.90    4.10
   1   5  -3   23.60    4.70
  -1   5   3   22.20    4.50
   0  -5   3   44.10    4.10
   0   5   3   44.30    6.20
   0   5  -3   45.70    6.00
   0   5   3   36.60    5.10
   0   5  -3   36.50    4.60
   0   5  -3   45.90    5.80
  -1  -5  -3  157.08   11.20
  -1  -5  -3  177.38    9.30
   1  -5   3  161.68   11.20
  -1   5  -3  166.58   13.40
   1   5   3  166.08   10.90
   1   5   3  168.68   12.30
   1   5   3  157.68   10.80
  -1   5  -3  147.59   15.40
  -1   5  -3  180.38   11.20
   2  -5   3  153.98   14.60
  -2  -5  -3  165.68    9.20
   2  -5   3  178.68   13.30
  -2   5  -3  174.58   14.10
   2   5   3  167.28   12.50
   2   5   3  155.98   10.90
  -2   5  -3  169.08   11.20
  -2   5  -3  165.38   15.30
  -3  -5  -3   61.69  163.38
   3  -5   3  140.59   12.80
  -3  -5  -3  141.39    8.80
   3  -5   3  145.39   13.90
  -3   5  -3  142.69   10.10
  -3   5  -3  119.79   12.60
   3   5   3  138.69   10.20
   3   5   3  163.88   12.80
  -4  -5  -3  -76.69  129.19
   4  -5   3   21.90    8.00
   4   5   3   14.10    6.70
  -5  -5  -3   60.89  130.89
   5  -6  -3    3.40    2.20
   5   6  -3    1.70    4.60
   5   6  -3    7.60    2.20
   4  -6  -3   34.00    6.60
   4  -6  -3   16.50    8.60
   4   6  -3   33.90    4.60
   4   6  -3   28.50    5.50
   3  -6  -3   23.30    6.40
  -3  -6   3   28.10    3.40
   3  -6  -3   14.80    4.40
  -3   6   3   22.70    5.20
   3   6  -3   26.30    4.60
   3   6  -3   30.20    4.80
   2  -6  -3   63.59    8.50
   2  -6  -3   52.59    8.10
  -2   6   3   48.20    7.70
   2   6  -3   53.69    6.10
  -2   6   3   56.99   10.70
   2   6  -3   76.69   16.90
   2   6  -3   61.29    6.20
   1  -6  -3   -1.70    5.80
   1  -6  -3   -0.40    2.20
   1  -6  -3   48.80  186.38
  -1   6   3    5.20   10.20
   1   6  -3    1.00    3.20
   1   6  -3   -1.50    2.60
   1   6  -3    1.50    2.30
   1   6  -3    3.10    2.30
  -1   6   3    2.10    2.80
   0  -6   3  408.56   18.70
   0  -6  -3  330.97   18.80
   0   6   3  334.27   20.80
   0   6  -3  362.46   20.80
   0   6   3  336.97   21.70
   0   6  -3  355.86   23.00
   0   6   3  317.57   19.80
   0   6  -3  347.67   19.40
   1  -6   3  177.18   12.10
  -1  -6  -3  133.59    9.10
  -1   6  -3  161.28   13.50
  -1   6  -3  133.09   19.60
  -1   6  -3  142.39   10.30
   1   6   3  139.99   14.20
   1   6   3  121.59   10.00
   2  -6   3   89.19    9.70
  -2  -6  -3   83.59    6.50
   2  -6   3   82.79   10.30
   2   6   3   88.79    7.90
  -2   6  -3   77.49   16.10
  -2   6  -3   92.79    7.40
   2   6   3   84.99   13.00
  -2   6  -3   91.49   10.40
   3  -6   3    4.10    3.60
  -3  -6  -3   12.10    2.60
   3  -6   3   10.40    3.90
  -3  -6  -3   -6.20  181.18
   3   6   3    6.90    7.80
   3   6   3   11.70    3.20
  -3   6  -3   11.40    3.30
   4  -6   3   11.60    8.50
  -4  -6  -3 -102.59  118.59
   4   6   3   18.30    8.50
  -5  -6  -3  -27.50   75.99
   5   6   3    7.90    6.30
   4  -7  -3    3.50    2.20
   4   7  -3    3.10    1.70
   4   7  -3   -4.00    4.80
   3  -7  -3   24.30    7.90
   3  -7  -3   20.10    5.40
   3   7  -3   12.70    5.40
   3   7  -3   17.90    3.90
   2  -7  -3    6.20    3.90
   2   7  -3   -3.00    3.50
   2   7  -3    2.80    2.30
   2   7  -3   11.70   17.70
  -2   7   3    5.50    9.30
   1  -7  -3   51.29    7.20
   1  -7  -3   38.40    8.90
   1   7  -3   40.00   11.80
   1   7  -3   55.99   10.40
  -1   7   3   40.90   13.20
   0  -7  -3  -97.19  194.68
   0  -7   3   -5.00    2.70
   0  -7  -3   -2.90    1.70
   0   7   3    1.00   10.30
   0   7  -3    3.80    2.30
   0   7   3    1.30    7.90
   0   7  -3    7.30   11.70
   0   7  -3   -0.60    5.00
   1  -7   3  122.39   11.00
  -1  -7  -3  111.49    9.10
   1   7   3  115.49   14.30
  -1   7  -3  103.79    8.90
   1   7   3  121.29   14.30
  -1   7  -3  128.49   21.50
   2  -7   3    5.50    3.70
  -2  -7  -3    6.20    2.10
   2   7   3    8.30    9.00
  -2   7  -3   -2.00   10.10
   2   7   3    3.10    2.60
  -2   7  -3    2.50    2.90
  -3  -7  -3    1.00    1.80
   3  -7   3   -4.70    4.20
  -3  -7  -3 -213.18  127.69
   3   7   3    0.80    8.90
   3   7   3    0.70    1.50
  -4  -7  -3   61.69  132.89
   3  -8  -3    9.30    3.10
   3   8  -3    9.40    5.70
   3   8  -3   10.10    5.50
   2  -8  -3    4.90    3.80
   2  -8  -3    7.90    4.60
   2   8  -3   17.40    5.70
   2   8  -3    3.00    7.40
  -2   8   3    3.20   12.60
   1  -8  -3    2.60    2.70
   1   8  -3   13.30   14.90
  -1   8   3   -4.10   12.40
   1   8  -3    6.50   11.90
   0  -8   3    1.10    3.90
   0  -8  -3   24.80    4.70
   0   8  -3   30.20   15.20
   0   8  -3    9.00   11.20
   0   8   3   17.90   14.80
  -1  -8  -3  -75.39  143.49
  -1   8  -3    6.30    3.80
   1   8   3   20.50   11.40
  -1   8  -3   19.40   11.80
   2  -8   3   11.10    4.20
   2   8   3   16.70    9.10
   2   8   3    9.30    6.50
   3   8   3   14.60    6.80
   3   8   3   11.30    5.80
  -1   9   3    1.90   11.40
   0   9   3   13.90   11.60
   1   9   3   13.70   11.40
  -6   0   4    9.00    2.60
  -6   0   4   25.30  124.09
  -5   0   4  118.09  188.18
   4   0  -4    5.50    2.40
   4   0  -4    3.40    3.60
  -4   0   4    1.00    2.30
  -4   0   4    1.40    1.30
  -4   0   4  -52.69   87.69
  -3   0   4   35.40    3.50
  -3   0   4   29.50    4.40
  -2   0   4  812.02   34.10
  -2   0   4  821.42   35.90
  -1   0   4 1265.17   51.79
   0   0  -4 4844.12  190.08
  -1   0  -4  966.70   39.30
  -1   0  -4  959.50   39.80
   2   0   4  155.68    8.80
  -2   0  -4  145.09    8.80
  -2   0  -4  141.69    7.50
  -2   0  -4  139.89    7.10
   3   0   4  346.67   17.80
  -3   0  -4  378.86   19.50
  -3   0  -4  362.66   17.00
  -4   0  -4   12.50    3.50
  -4   0  -4   -3.00   84.79
  -4   0  -4   15.80    2.80
   4   0   4   14.10    4.00
  -5   0  -4  -15.30  101.99
   5   0   4   -4.00    2.70
  -5   0  -4   -0.20    2.00
  -5   0  -4    1.40    1.70
   5   0   4    0.80    2.50
  -6   0  -4   92.79  114.19
  -6  -1   4  -80.59   59.29
  -6   1   4   -0.70  101.59
  -5  -1   4   28.50    7.40
  -5  -1   4   26.50    4.00
   5  -1  -4   15.10    4.40
  -5   1   4   27.80  112.89
  -5   1   4    6.60    3.30
  -5   1   4   12.70    3.00
   5   1  -4   18.30    3.40
  -4  -1   4   79.59    8.40
   4  -1  -4   83.79    9.70
  -4  -1   4   77.99    6.30
  -4  -1   4   82.39   85.89
  -4   1   4   77.99    8.60
  -4   1   4   70.39    8.20
  -4   1   4   75.49    6.50
  -4   1   4  -11.30  122.79
   4   1  -4   79.29    7.00
  -3  -1   4  717.13   33.20
   3  -1  -4  665.83   32.50
  -3  -1   4  737.03   30.90
  -3   1   4  720.03   34.20
  -3   1   4  707.93   31.10
   2  -1  -4  806.82   36.80
  -2  -1   4  851.21   36.00
  -2  -1   4  821.92   34.20
  -2   1   4  839.62   34.80
  -2   1   4  816.62   37.00
  -1   1   4 5053.09  202.28
  -1   1   4 5189.98  200.88
   0  -1  -4  973.70   40.30
   0   1  -4  972.20   39.30
   0   1  -4  968.60   40.80
  -1  -1  -4 1101.09   42.80
   1  -1   4  990.50   42.80
  -1  -1  -4 1057.49   41.70
  -1   1  -4  955.00   42.50
  -1   1  -4 1018.70   42.30
   1   1   4 1064.79   40.90
  -2  -1  -4  517.15   23.10
   2  -1   4  491.15   23.30
  -2  -1  -4  519.95   21.50
  -2   1  -4  469.05   21.20
  -2   1  -4  513.25   23.10
  -2   1  -4  476.95   22.20
   3  -1   4  191.28   11.90
  -3  -1  -4  191.98   10.00
  -3  -1  -4  169.88   11.50
  -3   1  -4  181.28   11.90
  -3   1  -4  194.78    9.90
  -3   1  -4  174.68   10.30
  -4  -1  -4 -125.89   78.49
  -4   1  -4 -128.39   76.49
  -5  -1  -4   64.19    8.60
  -5  -1  -4   -1.70  120.19
  -5  -1  -4   75.79    6.60
   5  -1   4   71.99    8.60
  -5   1  -4   81.49    8.90
  -5   1  -4   19.20  154.48
   5   1   4   83.79    7.00
  -6  -1  -4  -32.30   67.89
  -6  -1  -4    1.40    2.30
   6  -2  -4   23.90    4.40
  -6  -2   4   19.80    3.10
  -6  -2   4  112.29  146.09
   6   2  -4   21.30    3.70
   6   2  -4   15.00    3.10
   5  -2  -4   34.80    6.40
  -5  -2   4   41.80    4.70
  -5  -2   4  -28.30  137.19
   5   2  -4   35.90    5.30
  -5   2   4   27.50  127.59
   5   2  -4   39.80    4.60
  -4  -2   4   41.80    4.50
  -4  -2   4   48.10    7.20
   4  -2  -4   63.59    8.60
  -4   2   4   57.99    7.70
  -4   2   4   53.29    5.10
  -4   2   4   55.69    7.70
   4   2  -4   35.10    5.00
  -4   2   4 -121.59   83.99
   3  -2  -4  124.49   12.10
  -3  -2   4  131.09    9.50
   3  -2  -4  156.68   11.70
  -3  -2   4  146.09    8.20
  -3   2   4  144.39    8.50
   3   2  -4  141.19   13.90
  -3   2   4  142.29   11.40
  -3   2   4   32.70   69.09
   3   2  -4  127.89    9.40
  -3   2   4  146.39   11.20
  -2  -2   4  893.51   38.60
   2  -2  -4  909.91   41.20
  -2  -2   4  875.01   37.10
  -2   2   4  969.20   41.20
  -2   2   4  922.41   38.10
   1  -2  -4 1569.94   65.69
  -1   2   4 1650.73   66.39
   1   2  -4 1577.74   67.29
   0  -2  -4  845.02   36.90
   0  -2  -4  884.51   38.30
   0   2   4  868.61   37.90
   0   2  -4 1015.80   40.20
   1  -2   4   68.19    5.70
  -1  -2  -4   94.79    5.80
  -1  -2  -4   90.09    4.80
  -1   2  -4   70.99    4.80
  -1   2  -4   72.79    6.00
   1   2   4   94.99    4.40
   2  -2   4  203.48   12.40
  -2  -2  -4  223.08   11.80
  -2  -2  -4  201.68   10.10
  -2   2  -4  203.78   12.00
  -2   2  -4  206.48   11.50
   3  -2   4  159.98   11.60
  -3  -2  -4  174.28    9.30
   3  -2   4  157.28   12.80
  -3  -2  -4  173.88   11.20
  -3   2  -4  160.48   10.80
  -3   2  -4  166.68   11.20
   3   2   4  133.99   11.20
   4  -2   4    1.60    5.30
  -4  -2  -4    4.00    2.10
   4  -2   4    1.90    2.40
  -4  -2  -4    0.90    1.20
  -4  -2  -4  -91.79   67.49
  -4   2  -4    0.80    2.70
   4   2   4    3.30    2.30
  -4   2  -4   28.80  148.89
   4   2   4   -1.40    1.70
  -4   2  -4    1.50    1.80
  -5  -2  -4   19.50    3.40
  -5  -2  -4  139.69  180.58
   5  -2   4   24.50    5.30
   5   2   4   22.70    4.00
   5   2   4   15.60    3.30
   6  -2   4    3.10    2.00
  -6  -2  -4    0.10    1.50
  -6  -2  -4   -5.80   78.29
   6   2   4    0.00    1.70
  -6  -3   4   20.70    3.00
   6  -3  -4   22.30    3.80
  -6  -3   4   76.89  145.69
   6   3  -4   30.90    4.00
   6   3  -4   17.30    3.30
  -5  -3   4  224.88  195.48
  -4  -3   4  166.68  211.98
  -4  -3   4    9.90    2.20
   4  -3  -4    6.70    6.80
  -4   3   4    4.20    3.20
   4   3  -4   13.30    3.60
  -4   3   4  -16.00  133.29
  -4   3   4    6.40    4.10
   4   3  -4   11.50    3.00
   3  -3  -4    5.00    3.10
   3  -3  -4   12.10    4.30
  -3  -3   4   12.90    2.00
  -3   3   4    6.50    2.90
   3   3  -4    8.70   10.40
   3   3  -4   16.90    3.50
  -3   3   4    8.00    3.50
   3   3  -4   13.40    3.30
  -3   3   4    9.90    2.80
  -3   3   4  -51.79   81.19
  -2  -3   4  358.56   15.90
  -2  -3   4  359.16   17.20
   2  -3  -4  367.36   20.60
  -2   3   4  381.16   20.40
  -2   3   4  417.36   22.60
   1  -3  -4 1078.89   48.30
  -1   3   4 1128.39   49.80
  -1   3   4 1193.48   48.80
   0  -3  -4  691.63   30.80
   0  -3  -4  691.43   29.00
   0   3   4  666.43   30.20
   0   3  -4  685.93   32.10
   0   3   4  675.93   29.70
  -1  -3  -4  808.82   34.80
   1  -3   4  767.62   34.70
   1   3   4  830.02   33.70
  -1   3  -4  827.92   36.70
  -1   3  -4  780.62   31.80
   1   3   4  799.22   33.20
  -1   3  -4  757.42   32.00
  -2  -3  -4  682.13   28.50
   2  -3   4  644.24   31.80
  -2  -3  -4  678.93   30.40
  -2   3  -4  668.03   29.40
  -2   3  -4  659.43   31.90
   3  -3   4    6.00    3.00
   3  -3   4    4.60    2.20
  -3  -3  -4    2.10    1.00
  -3  -3  -4  -14.50  100.19
  -3  -3  -4    1.50    1.60
   3   3   4   -1.30    1.70
  -3   3  -4    2.30    1.80
   3   3   4    2.00    1.80
  -3   3  -4    0.40    1.10
   4  -3   4   12.60    4.50
   4  -3   4   15.30    7.00
  -4  -3  -4   27.70    3.50
  -4  -3  -4  188.48  199.28
  -4  -3  -4   20.00    4.50
   4   3   4   19.60    4.40
   4   3   4   24.30    5.10
  -4   3  -4   20.20    4.30
  -4   3  -4   22.50    5.50
  -5  -3  -4  -51.39   79.79
  -6  -3  -4    7.00    2.20
   6  -3   4    2.80    2.00
  -6  -3  -4   53.49   96.09
  -6  -3  -4    3.30    1.70
   6   3   4    2.60    1.70
  -6   3  -4    2.40    1.90
  -6   3  -4    6.40    2.10
   6  -4  -4    1.70    1.70
  -6  -4   4  -29.00   95.79
   6   4  -4    4.80    2.50
  -5  -4   4    1.70  125.89
   5  -4  -4    2.40    2.70
  -5  -4   4    6.00    1.90
   5   4  -4    7.40    2.50
   5   4  -4    7.60    2.50
   4  -4  -4   60.09   11.50
   4  -4  -4   67.19    9.70
  -4  -4   4   65.89    5.40
   4   4  -4   75.59    7.10
  -4   4   4   56.09    7.70
   4   4  -4   76.79    7.40
  -4   4   4   59.29    9.60
  -3  -4   4  170.48    9.00
   3  -4  -4  169.98   15.50
   3  -4  -4  170.48   14.50
  -3   4   4  170.58   14.60
   3   4  -4  163.38   11.60
   3   4  -4  195.98   25.00
  -3   4   4  170.48   11.50
   3   4  -4  164.58   11.20
  -3   4   4  169.28   12.80
   2  -4  -4  212.38   17.70
   2  -4  -4  245.48   16.00
  -2   4   4  230.88   14.00
  -2   4   4  230.88   14.30
   2   4  -4  233.88   15.50
   2   4  -4  222.98   13.20
  -2   4   4  224.68   16.10
   2   4  -4  228.38   13.60
   1  -4  -4  228.18   13.50
   1   4  -4  263.47   15.50
  -1   4   4  208.18   14.10
  -1   4   4  216.18   12.40
   0  -4  -4  500.35   22.90
   0   4   4  477.05   24.40
   0   4   4  490.45   22.00
   0   4  -4  584.84   27.50
  -1  -4  -4  540.25   25.90
  -1  -4  -4  546.15   23.60
   1  -4   4  496.15   25.30
  -1   4  -4  541.35   28.30
   1   4   4  572.44   24.70
  -2  -4  -4   34.40    3.40
  -2  -4  -4   36.10    4.90
   2  -4   4   38.70    5.50
  -2   4  -4   35.80    5.30
  -2   4  -4   31.30    2.70
   2   4   4   37.70    5.90
  -2   4  -4   28.50    4.50
   2   4   4   37.70    4.50
  -3  -4  -4    4.60    1.50
  -3  -4  -4    4.20    3.30
   3  -4   4    5.60    3.20
  -3  -4  -4    7.90    3.10
  -3  -4  -4    4.80  195.08
   3  -4   4    8.50    3.50
   3   4   4    2.70    3.60
   3   4   4    7.60    2.50
  -3   4  -4    7.70    2.60
  -3   4  -4    7.00    3.20
   4  -4   4   30.80    6.40
  -4  -4  -4   42.90    4.50
   4  -4   4   32.30    8.40
  -4   4  -4   29.60    6.80
   4   4   4   37.40    4.90
   4   4   4   46.40    8.80
  -4   4  -4   27.00    5.50
  -5  -4  -4   -1.40  121.59
  -5  -4  -4    5.30    1.90
   5  -4   4   13.10    3.90
  -5  -4  -4    3.40    2.40
   5  -4   4    6.60    7.70
   5   4   4    7.80    4.10
   5   4   4    9.00    2.40
  -6  -4  -4   -0.50    1.60
  -6  -4  -4   15.60   68.59
   6  -4   4    2.50    1.50
   6   4   4    2.20    1.70
  -5  -5   4  109.29  166.28
   4  -5  -4    0.40    2.10
   4  -5  -4    6.80    8.00
  -4  -5   4    5.30    1.60
   4   5  -4    7.40    2.60
   4   5  -4    6.00    2.40
   3  -5  -4   42.80    8.00
   3  -5  -4   36.20    8.00
  -3  -5   4   38.60    3.50
  -3   5   4   39.90    6.60
   3   5  -4   26.00    4.70
  -3   5   4   42.30    5.80
   3   5  -4   21.50   18.90
   3   5  -4   32.70    5.00
  -3   5   4   40.20    5.80
   2  -5  -4   -0.30    3.90
   2  -5  -4    3.70    3.10
  -2   5   4    1.50    1.70
   2   5  -4    3.30    2.30
   2   5  -4    6.30    7.00
   2   5  -4    4.30    2.10
  -2   5   4    1.30    2.80
  -2   5   4   -2.20    4.60
   1  -5  -4  239.58   18.80
   1  -5  -4  245.48   15.60
   1  -5  -4   43.10  182.08
  -1   5   4  266.67   19.40
  -1   5   4  241.48   16.30
   1   5  -4  239.18   14.00
   1   5  -4  244.78   14.40
   1   5  -4  250.97   15.30
   1   5  -4  259.07   17.60
   0  -5   4  526.45   22.90
   0   5  -4  483.45   24.20
   0   5  -4  514.25   25.00
   0   5  -4  546.95   28.60
   0   5   4  476.95   25.10
   0   5   4  481.65   25.60
   0   5   4  514.95   25.70
  -1  -5  -4  289.07   14.30
   1  -5   4  273.67   16.10
  -1  -5  -4  301.07   17.10
  -1   5  -4  248.58   18.80
  -1   5  -4  283.17   19.00
   1   5   4  274.07   15.50
   1   5   4  270.37   15.40
   1   5   4  285.87   17.20
  -1   5  -4  263.17   15.60
   2  -5   4   19.30    4.30
  -2  -5  -4   16.90    2.40
   2  -5   4   17.90    5.50
  -2   5  -4   15.80    3.50
   2   5   4   13.10    3.20
   2   5   4   14.30    5.60
  -2   5  -4   19.80    4.80
  -2   5  -4   17.50    7.00
  -3  -5  -4 -130.99  103.39
  -3  -5  -4   40.60    4.30
   3  -5   4   51.79    7.50
   3  -5   4   52.09    7.30
  -3   5  -4   52.19    5.60
   3   5   4   44.40    5.50
  -3   5  -4   46.40    7.60
   3   5   4   36.30    7.90
   4  -5   4    7.40    7.80
   4  -5   4    8.90    3.90
  -4  -5  -4    9.70    3.80
  -4  -5  -4 -107.09   74.89
   4   5   4   10.80    7.00
   5  -5   4    1.00    2.20
  -5  -5  -4   -4.10    2.70
  -5  -5  -4    2.30    1.40
  -5  -5  -4 -102.29   74.99
   5   5   4    0.50    1.60
  -5   5  -4   -2.90    2.30
   5   5   4    0.70    5.30
   5  -6  -4    3.50    2.00
   5   6  -4    6.60    2.10
   5   6  -4    1.30    4.00
   4  -6  -4    7.30    8.20
   4  -6  -4    1.30    2.60
   4   6  -4    7.20    2.90
   4   6  -4    6.00    2.40
   3  -6  -4   55.39    9.60
  -3  -6   4   63.79    4.70
   3  -6  -4   51.59    8.10
   3   6  -4   62.39    6.50
   3   6  -4   55.29    6.30
  -3   6   4   48.70    7.00
   2  -6  -4   56.59    8.80
   2  -6  -4   58.39    8.20
   2   6  -4   55.29    6.10
  -2   6   4   48.40    8.10
   2   6  -4   53.89   14.10
  -2   6   4   44.10    8.70
   2   6  -4   65.69    6.40
   1  -6  -4   44.70    9.50
   1  -6  -4   50.49    7.30
  -1   6   4   53.29    7.30
   1   6  -4   57.29    6.20
   1   6  -4   50.89    6.60
   1   6  -4   60.99    6.20
   1   6  -4   44.90    8.50
  -1   6   4   61.59   14.50
   0  -6  -4  100.69    8.70
   0  -6  -4  -70.79  116.99
   0  -6   4   99.19    7.70
   0   6   4   90.99    9.60
   0   6   4   89.79   14.90
   0   6  -4  101.09   12.50
   0   6   4   94.39   11.50
   0   6  -4  102.99   11.00
   0   6  -4   92.69    8.30
  -1  -6  -4  170.08   10.70
   1  -6   4  180.88   12.70
  -1   6  -4  153.98   14.60
  -1   6  -4  165.08   11.40
   1   6   4  171.58   11.90
   1   6   4  169.68   16.30
  -1   6  -4  178.58   20.30
   2  -6   4   87.99    9.50
   2  -6   4   54.19    8.80
  -2  -6  -4   79.39    6.30
  -2   6  -4   61.79    9.20
   2   6   4   67.29    6.90
  -2   6  -4   74.89    6.80
  -2   6  -4   81.49   15.90
   2   6   4   63.89   11.10
  -3  -6  -4  195.58  171.18
  -4  -6  -4  -18.80  169.68
  -4  -6  -4    1.80    1.50
   4  -6   4    1.40    2.20
   4  -6   4   -0.40    7.60
   4   6   4   -3.30    7.70
  -4   6  -4    3.40    2.30
  -5  -6  -4   31.70   61.29
   5   6   4    0.10    4.90
   5   6   4   12.60    2.90
   4  -7  -4    2.80    2.50
   4   7  -4    3.80    1.50
   4   7  -4    3.20    4.60
   3  -7  -4   12.80    7.00
   3   7  -4   19.50    4.00
   3   7  -4   13.40    4.70
   2  -7  -4   14.10    5.40
   2  -7  -4    6.90    3.60
  -2   7   4    3.00    8.70
   2   7  -4   12.20    2.90
   2   7  -4    4.90   17.50
   2   7  -4   11.30    4.30
   1  -7  -4   13.60    5.40
   1  -7  -4    6.00    3.40
   1   7  -4   15.50    9.30
  -1   7   4   16.70   11.70
   1   7  -4   14.40    6.50
   0  -7  -4  170.18   13.10
   0  -7  -4  -35.50  216.58
   0  -7   4  185.38   12.30
   0   7  -4  224.08   24.60
   0   7  -4  175.08   12.50
   0   7   4  193.98   24.10
  -1  -7  -4 -111.89  189.78
   1  -7   4   87.99    8.90
  -1  -7  -4   93.59    8.10
  -1   7  -4  113.69   14.20
  -1   7  -4   76.59    7.60
   1   7   4   82.99   12.90
   1   7   4   84.59   14.60
  -2  -7  -4   21.50    3.70
  -2  -7  -4  -26.00  144.09
   2  -7   4   26.70    5.70
  -2   7  -4   19.40    4.00
   2   7   4   25.40   10.30
   2   7   4   21.10    5.70
   3  -7   4    2.80    3.30
  -3  -7  -4    5.30    1.80
   3  -7   4    6.30    5.30
  -3  -7  -4  -61.69  149.39
   3   7   4    3.70    2.20
   3   7   4   10.50    9.10
  -3   7  -4   -0.50    3.00
  -4  -7  -4   10.20  115.99
   4  -7   4   -0.90    2.00
   4   7   4    0.60    6.80
   4   7   4    1.30    2.30
   3  -8  -4    1.40    2.40
   3   8  -4   -0.30    5.40
   3   8  -4   -4.60    4.50
   2  -8  -4    5.00    4.10
   2  -8  -4   -3.30    3.30
  -2   8   4   -5.80   11.40
   2   8  -4    0.40    8.00
   1  -8  -4    1.50    2.70
   1   8  -4   -1.30   14.50
  -1   8   4   -3.00   11.20
   1   8  -4    4.80   11.30
   0  -8  -4   32.10    5.50
   0   8  -4   49.99   10.90
   0   8  -4   42.00   13.00
   0   8   4   42.50   13.70
  -1  -8  -4   27.60  166.78
   1  -8   4   19.30    4.30
  -1  -8  -4   19.30    4.20
  -1   8  -4   20.00    6.20
   1   8   4   19.40   11.70
   2  -8   4    5.50    3.50
  -2  -8  -4    3.80    2.50
  -2  -8  -4 -175.28  109.39
   2   8   4   -0.10    9.40
   2   8   4    2.00    5.70
  -3  -8  -4  -46.00  109.69
   3   8   4    7.20    7.90
   3   8   4    0.60    4.80
   0   9   4   18.70   11.70
  -6   0   5    1.30    2.10
  -6   0   5  -18.10   70.49
  -5   0   5   39.50    7.80
   5   0  -5   41.10    5.20
  -5   0   5   58.59    5.60
  -4   0   5   16.90    4.60
   4   0  -5   17.20    4.70
   4   0  -5    7.90    3.10
  -4   0   5   -6.70   92.99
  -3   0   5  897.81   38.30
  -3   0   5  877.21   41.00
  -2   0   5 1944.81   81.19
  -2   0   5 1987.70   79.09
  -1   0   5  184.78    9.20
  -1   0   5  191.88   10.10
   0   0  -5 1953.40   78.49
   1   0   5  321.57   14.50
  -1   0  -5  296.87   14.30
  -1   0  -5  297.27   14.50
   2   0   5    6.20    2.20
  -2   0  -5    9.10    1.60
  -2   0  -5    5.50    1.30
  -2   0  -5    5.00    1.80
   3   0   5   35.80    5.10
  -3   0  -5   33.10    3.40
  -3   0  -5   29.60    4.40
  -4   0  -5    0.00    1.20
  -4   0  -5    1.00    1.80
  -4   0  -5  -69.79   73.39
   4   0   5    7.50    3.40
  -5   0  -5  -25.40   76.09
   5   0   5   -2.00    3.10
  -5   0  -5    3.20    2.80
   5   0   5    1.00    2.00
  -5   0  -5   -0.70    1.80
  -6   0  -5  -43.80   89.29
  -6  -1   5   48.70  123.59
  -6  -1   5   13.30    2.80
   6   1  -5   21.10    4.00
   5  -1  -5    5.00    2.60
  -5  -1   5    8.20    5.70
  -5  -1   5   70.59  116.39
  -5   1   5    3.30    2.00
   5   1  -5    2.50    3.00
  -5   1   5   -1.10    8.70
  -5   1   5 -102.39   62.09
  -5   1   5    5.90    3.30
  -4  -1   5   30.50    5.70
   4  -1  -5   26.00    6.20
  -4  -1   5   33.20    3.90
  -4  -1   5  131.79  140.39
   4   1  -5   21.80    3.80
  -4   1   5   24.70    5.40
  -4   1   5   26.90    3.70
  -4   1   5   19.30    5.10
  -3  -1   5  590.44   26.90
  -3  -1   5  568.04   29.10
  -3   1   5  641.34   30.80
  -3   1   5  610.84   27.20
  -2  -1   5 1560.04   62.49
  -2  -1   5 1491.85   60.39
   2  -1  -5 1515.05   63.19
  -2   1   5 1509.05   61.09
  -2   1   5 1403.86   63.29
   1  -1  -5  352.36   17.70
  -1  -1   5  403.46   16.20
  -1   1   5  372.86   16.60
  -1   1   5  353.86   17.90
   0  -1  -5  937.31   38.40
   0  -1  -5  970.10   39.50
   0   1  -5  895.11   38.30
   1  -1   5   13.30    2.30
  -1  -1  -5   16.50    1.90
  -1  -1  -5   19.70    2.50
  -1   1  -5   14.60    2.20
  -1   1  -5   18.20    2.50
   2  -1   5  213.08   12.00
  -2  -1  -5  206.58   10.40
  -2  -1  -5  204.58   11.80
  -2   1  -5  217.98   11.30
  -2   1  -5  211.48   11.70
  -2   1  -5  212.98   10.20
  -3  -1  -5  -62.99   99.69
  -4  -1  -5   25.50    4.90
  -4  -1  -5   54.99  164.68
   4  -1   5    8.50    3.30
  -4  -1  -5   18.00    3.10
   4  -1   5   15.20    5.80
   4   1   5   25.90    5.70
   4   1   5   17.80    4.10
  -4   1  -5   12.90    3.90
  -4   1  -5   12.20    2.80
   4   1   5   18.40    4.30
  -4   1  -5   -4.50   97.99
  -5  -1  -5   80.89  108.79
  -5  -1  -5   50.29    7.70
  -5  -1  -5   59.79    5.50
   5  -1   5   48.10    7.10
   5   1   5   41.20    6.40
   5   1   5   66.19    5.90
  -5   1  -5    1.00  124.89
  -5   1  -5   54.39    7.70
  -6  -1  -5  -28.80   99.69
  -6  -2   5 -125.09   75.09
  -6  -2   5    1.50    1.50
   6   2  -5    4.00    2.10
   6   2  -5    4.30    1.80
  -5  -2   5    0.30  124.69
  -5   2   5  -59.09   70.89
  -4  -2   5   21.50   76.89
  -4  -2   5  106.99    7.90
  -4  -2   5  108.99   10.60
   4  -2  -5  129.09   12.50
  -4   2   5  -52.59   82.69
  -4   2   5  121.29    8.20
  -4   2   5  121.09   11.70
  -4   2   5  110.49   11.20
   4   2  -5   99.79    8.80
   3  -2  -5  143.99   11.80
  -3  -2   5  137.29    9.80
  -3  -2   5  128.99    7.90
   3  -2  -5  132.69   13.00
   3   2  -5  120.69    9.10
   3   2  -5  109.59   13.50
  -3   2   5  141.69    8.60
  -3   2   5  141.69   11.40
   2  -2  -5 1628.34   69.09
  -2  -2   5 1676.53   66.99
  -2  -2   5 1608.04   64.99
  -2   2   5 1620.04   65.89
  -2   2   5 1576.44   69.29
   1  -2  -5  296.87   15.60
   1   2  -5  314.47   17.60
  -1   2   5  300.07   15.80
  -1   2   5  313.07   14.10
   0  -2  -5  566.54   26.60
   0  -2  -5  560.14   25.10
   0   2  -5  640.94   28.80
  -1  -2  -5  334.27   15.10
  -1  -2  -5  350.96   16.70
   1  -2   5  332.17   16.50
  -1   2  -5  331.37   15.20
   1   2   5  341.07   14.60
  -1   2  -5  341.67   17.30
   2  -2   5  556.14   26.20
  -2  -2  -5  540.55   23.70
  -2  -2  -5  552.94   25.60
  -2   2  -5  548.65   25.00
  -2   2  -5  535.15   25.70
   3  -2   5  145.69   11.80
  -3  -2  -5 -138.79  106.09
  -3  -2  -5  133.09   10.00
  -3  -2  -5  130.39    8.30
   3  -2   5  145.79   10.70
  -3   2  -5  147.29   10.00
  -3   2  -5  141.99   10.10
   3   2   5  139.19    9.40
  -4  -2  -5   31.40    5.70
  -4  -2  -5  -13.00  102.29
   4  -2   5   35.10    7.90
  -4  -2  -5   41.30    4.40
   4  -2   5   49.30    7.10
   4   2   5   46.20    5.40
  -4   2  -5   38.50    6.00
   4   2   5   27.00    5.20
  -5  -2  -5   21.70    3.60
   5  -2   5   38.60    6.00
  -5  -2  -5   44.90  136.89
   5   2   5   33.60    5.00
   5   2   5   21.80    4.40
  -6  -2  -5   39.50   79.89
  -6  -3   5   29.80  142.29
   6  -3  -5    5.30    2.30
   6   3  -5   10.70    2.40
  -5  -3   5    2.60    1.60
   5  -3  -5    3.40    2.60
   5   3  -5    1.70    1.70
   5   3  -5   -1.40    1.50
  -4  -3   5 -114.49  162.08
  -4  -3   5  218.08   12.10
   4  -3  -5  211.58   17.40
  -4   3   5   55.69  139.49
   4   3  -5  213.68   13.90
  -4   3   5  193.58   16.20
   4   3  -5  216.08   13.40
  -4   3   5  199.08   15.60
  -3  -3   5  184.48    9.50
   3  -3  -5  157.78   14.90
   3  -3  -5  146.29   13.10
  -3   3   5  161.48   13.00
  -3   3   5  162.68   13.80
   3   3  -5  199.28   21.00
   3   3  -5  168.08   11.20
  -3   3   5   98.29  148.19
   3   3  -5  170.48   11.30
  -3   3   5  169.08   11.10
  -2  -3   5  490.55   21.10
  -2  -3   5  448.66   22.40
   2  -3  -5  509.15   26.30
  -2   3   5  539.85   25.90
  -2   3   5  520.95   27.10
   1  -3  -5  236.98   12.90
  -1  -3   5  187.78    9.90
  -1   3   5  223.88   13.50
  -1   3   5  236.58   13.40
   1   3  -5  210.68   14.10
   0  -3  -5  950.80   42.50
   0  -3  -5 1052.59   44.90
   0   3   5 1041.40   43.90
   0   3  -5 1051.59   46.40
   0   3   5 1023.40   44.10
  -1  -3  -5  517.95   22.40
  -1  -3  -5  511.05   24.40
   1  -3   5  502.65   24.00
  -1   3  -5  515.35   25.80
   1   3   5  516.95   22.20
   1   3   5  523.15   23.50
   2  -3   5  247.28   14.50
  -2  -3  -5  228.58   11.60
  -2  -3  -5  214.28   13.10
  -2   3  -5  226.38   14.30
  -2   3  -5  238.98   12.20
  -3  -3  -5   28.60    3.40
  -3  -3  -5   36.60  131.09
   3  -3   5   27.00    5.70
   3  -3   5   27.10    5.10
  -3  -3  -5   27.40    4.30
  -3   3  -5   22.80    4.50
   3   3   5   26.20    4.70
   3   3   5   30.10    4.70
  -3   3  -5   28.90    4.20
  -4  -3  -5   14.80    4.20
   4  -3   5   11.80    3.80
  -4  -3  -5  -35.90   89.59
  -4  -3  -5   13.30    2.60
   4  -3   5   10.40    6.80
  -4   3  -5   16.60    4.20
   4   3   5   14.10    3.30
  -4   3  -5    7.10    3.90
   4   3   5    9.50    3.40
  -5  -3  -5   54.69  125.79
  -5  -3  -5    9.00    2.30
   5  -3   5    6.40    3.20
   5   3   5    5.40    2.30
   5   3   5   12.10    3.20
  -6  -3  -5   -0.30    1.30
   6  -3   5    1.30    1.50
  -6  -3  -5 -107.09   87.29
  -6   3  -5    1.70    1.40
  -5  -4   5  109.99  166.78
   4  -4  -5   23.30    9.50
   4  -4  -5   37.30    7.40
  -4  -4   5   33.30    3.80
  -4   4   5   24.10    6.40
   4   4  -5   28.40    4.80
  -4   4   5   19.00    5.00
   4   4  -5   40.00    5.40
  -3  -4   5   58.69    4.80
   3  -4  -5   76.49   10.50
   3  -4  -5   73.89    9.70
   3   4  -5   73.79    6.80
   3   4  -5   56.19   15.10
   3   4  -5   67.39    7.00
  -3   4   5   70.19    7.70
  -3   4   5   72.49    9.30
  -3   4   5   76.89    7.10
   2  -4  -5   65.49    8.00
   2  -4  -5   68.99   10.20
  -2   4   5   74.79    7.40
  -2   4   5   73.09    7.10
  -2   4   5   76.49    8.50
   2   4  -5   61.59    6.40
   2   4  -5   75.09    6.80
   2   4  -5   72.29    7.70
   1  -4  -5  567.44   27.50
  -1   4   5  607.94   26.90
   1   4  -5  530.45   26.80
   1   4  -5  529.75   29.40
  -1   4   5  530.35   27.20
  -1   4   5  586.14   28.70
   0  -4  -5   94.39    8.10
   0  -4   5   81.39    5.70
   0  -4  -5   89.89    6.40
   0   4   5   95.39    7.50
   0   4   5   92.99    6.30
   0   4  -5   91.29    8.90
  -1  -4  -5   51.89    5.40
  -1  -4  -5   41.80    3.80
   1  -4   5   42.10    5.10
  -1   4  -5   48.00    6.30
   1   4   5   42.50    6.80
   1   4   5   32.70    5.90
  -1   4  -5   37.30    4.70
   1   4   5   43.50    3.10
   1   4   5   52.89    4.40
   2  -4   5   97.69    9.90
  -2  -4  -5  103.19    8.40
  -2  -4  -5   95.89    6.30
   2  -4   5   94.09    8.50
   2   4   5   72.99    6.90
  -2   4  -5   81.39    7.20
   2   4   5   87.69    9.00
  -2   4  -5   87.99    9.00
   3  -4   5    2.90    2.50
  -3  -4  -5    4.40    3.10
  -3  -4  -5   72.69  180.28
  -3  -4  -5    1.50    1.20
  -3  -4  -5    2.10    2.50
   3  -4   5    0.90    2.10
   3   4   5    4.30    2.20
   3   4   5   -2.20    3.90
  -3   4  -5    0.60    2.20
  -3   4  -5    2.20    2.10
  -4  -4  -5    3.90    2.50
   4  -4   5    3.70    6.60
   4  -4   5    1.00    1.90
  -4  -4  -5    2.50    1.30
  -4  -4  -5  -74.69   83.39
  -4   4  -5    5.80    3.60
   4   4   5    2.80    2.00
   4   4   5    5.40    4.90
  -4   4  -5    3.10    4.20
   5  -4   5   12.90    3.80
  -5  -4  -5   12.40    2.70
  -5  -4  -5   17.30    3.70
  -5  -4  -5  -11.80   84.79
   5  -4   5    8.50    7.10
   5   4   5   16.70    4.20
   5   4   5   13.10    3.10
  -5   4  -5   11.90    2.70
  -5  -5   5   31.10  111.69
  -5  -5   5   11.90    2.30
   5  -5  -5   10.40    3.60
   5   5  -5   20.40    3.50
   5   5  -5   15.00    3.20
   4  -5  -5   17.30    9.00
   4  -5  -5   32.40    6.80
  -4  -5   5   32.60    3.70
   4   5  -5   40.50    4.90
   4   5  -5   29.60    4.40
   3  -5  -5   39.20    8.60
  -3  -5   5   50.59    3.90
   3  -5  -5   33.50    7.70
  -3   5   5   43.70    5.70
   3   5  -5   42.00    5.90
   3   5  -5   33.30   18.50
  -3   5   5   32.70    5.60
   3   5  -5   44.80    5.60
  -3   5   5   35.20    7.50
   2  -5  -5   41.80    8.20
   2  -5  -5   43.40    7.10
   2   5  -5   43.70    5.60
  -2   5   5   38.30    8.20
  -2   5   5   43.60    5.30
  -2   5   5   43.40    7.00
   2   5  -5   56.49    5.80
   2   5  -5   47.00    9.10
   1  -5  -5   84.09   10.20
   1  -5  -5   61.19    7.30
   1  -5  -5  239.38  211.38
   1   5  -5   76.49    9.50
   1   5  -5   70.09    6.80
  -1   5   5   75.19    7.80
  -1   5   5   73.69    5.30
   1   5  -5   78.19    6.60
   1   5  -5   70.19    7.20
  -1   5   5   72.69   13.60
   0  -5  -5  172.78   13.70
   0  -5  -5  -35.30   98.99
   0  -5   5  139.09    9.00
   0   5   5  151.18   12.50
   0   5  -5  136.19   12.70
   0   5  -5  146.59   10.30
   0   5   5  162.48   11.50
   0   5   5  175.88   12.20
  -1  -5  -5   80.59    8.00
  -1  -5  -5   58.29    5.30
   1  -5   5   64.99    6.80
  -1   5  -5   62.19    8.30
   1   5   5   62.29   10.20
   1   5   5   65.19    6.60
  -1   5  -5   52.09    6.20
  -2  -5  -5 -183.48  122.89
   2   5   5   16.50    7.20
   3  -5   5   10.30    4.00
  -3  -5  -5   11.60    3.70
   3   5   5   18.10    3.60
  -3   5  -5   10.20    4.30
   3   5   5   11.50    7.80
   4  -5   5    9.90    3.50
   4  -5   5   15.60    8.30
  -4  -5  -5   51.79  130.79
  -4  -5  -5   20.60    3.50
  -4  -5  -5   21.10    4.70
  -4   5  -5   18.70    3.80
   4   5   5   19.20    3.80
   4   5   5   14.60    7.90
  -5  -5  -5   -3.30    1.80
   5  -5   5    0.10    1.30
  -5  -5  -5  -17.70   75.49
  -5  -5  -5    4.10    1.50
  -5   5  -5    1.40    1.70
   5   5   5    3.80    1.90
   5   5   5   -0.60    4.90
   4  -6  -5    4.90    7.30
   4  -6  -5   15.70    4.50
   4   6  -5   14.80    3.30
   4   6  -5   18.20    3.70
   3  -6  -5   11.00    5.80
   3  -6  -5    3.70    3.30
   3   6  -5    4.30   18.90
   3   6  -5   10.00    2.80
   3   6  -5    7.50    2.50
  -3   6   5   11.10    3.30
   2  -6  -5   39.90    7.60
   2  -6  -5   29.10    6.40
   2   6  -5   20.30    4.60
   2   6  -5   28.10    4.50
  -2   6   5   30.00    6.00
  -2   6   5   33.00    7.30
   2   6  -5   18.80   11.70
   1  -6  -5  103.99   10.30
   1  -6  -5  113.29   13.10
   1   6  -5   97.59    8.30
   1   6  -5   93.09   11.70
  -1   6   5  132.49   20.30
  -1   6   5  102.19   10.60
   1   6  -5  105.59    8.10
   1   6  -5   99.19    9.20
   0  -6   5  104.89    8.10
   0  -6  -5  115.09   12.10
   0  -6  -5  107.89    9.30
   0   6   5   90.69   17.00
   0   6  -5   95.09   14.30
   0   6  -5   87.49   10.80
   0   6  -5  110.69    9.00
   0   6   5   98.99   10.00
   0   6   5  108.29   11.70
  -1  -6  -5   54.99  167.08
   1  -6   5   24.60    5.10
  -1   6  -5   23.80    4.40
   1   6   5   44.90    7.50
   1   6   5   36.80   10.30
  -1   6  -5   38.20    9.70
  -1   6  -5   25.50    6.40
  -2  -6  -5   90.99    7.20
   2  -6   5   84.49    8.90
   2  -6   5   94.49    9.60
  -2  -6  -5 -180.38  124.49
   2   6   5   86.09    7.70
  -2   6  -5   88.99    7.60
   2   6   5   96.29   15.00
  -2   6  -5   69.49   10.10
  -3  -6  -5    4.10    1.80
   3  -6   5    8.20    2.90
  -3  -6  -5  -77.79  114.39
   3  -6   5    2.60    3.70
   3   6   5   -2.20    8.20
  -3   6  -5   -0.30    1.70
   3   6   5    3.50    2.00
  -4  -6  -5    3.00    1.70
   4  -6   5    5.20    2.90
  -4  -6  -5  -85.79   76.09
   4  -6   5   -2.60    7.10
  -4   6  -5    3.70    2.20
   4   6   5    7.00    8.30
   4  -7  -5    4.80    2.50
   4   7  -5    3.60    4.30
   4   7  -5    6.60    2.10
   3  -7  -5    2.20    2.40
   3  -7  -5    3.30    6.60
   3   7  -5    1.60    2.00
   3   7  -5   -0.40    2.70
   2  -7  -5   -2.20    2.90
   2  -7  -5    4.10    4.20
   2   7  -5    3.50    3.10
  -2   7   5   -1.30    7.90
   2   7  -5   10.40    3.50
   2   7  -5   12.60   17.00
   1  -7  -5   18.60    5.90
   1  -7  -5   20.70    5.20
  -1   7   5   13.00   12.20
   1   7  -5   20.10    7.90
   1   7  -5   21.50    8.50
   0  -7   5   77.69    8.00
   0  -7  -5   62.39   10.40
   0  -7  -5   64.19    7.60
   0  -7  -5  -73.79  143.89
   0   7  -5   88.89   14.50
   0   7   5   63.89   15.10
   0   7  -5   71.69    7.50
  -1  -7  -5   29.20    4.80
   1  -7   5   29.00    5.60
  -1  -7  -5   88.69  160.08
   1   7   5   32.50    8.60
  -1   7  -5   23.70    4.30
   1   7   5   32.20   11.20
  -2  -7  -5  120.29  185.18
  -3  -7  -5  -62.59  112.49
   3  -7   5    6.70    6.00
   3  -7   5    8.20    3.50
   3   7   5    6.80    8.50
   3   7   5    6.20    3.50
  -3   7  -5    3.40    2.60
  -4  -7  -5  153.28  138.79
   3  -8  -5    1.60    1.90
   3   8  -5   -1.00    5.80
   2  -8  -5    5.60    4.20
   2  -8  -5    5.80    4.90
  -2   8   5   14.30   11.10
   2   8  -5   10.70    8.40
   1  -8  -5   29.10    5.60
  -1   8   5   35.10   12.50
   1   8  -5   26.90   14.20
   0  -8  -5   13.20    4.10
   0   8  -5    6.40    8.30
   0   8   5    8.40   13.40
   1  -8   5   -2.30    2.90
  -1  -8  -5    0.50    2.50
  -1  -8  -5 -179.38  117.59
  -1   8  -5    1.00    3.60
   1   8   5    5.40   13.00
   2  -8   5    3.50    3.10
  -2  -8  -5   -0.60    2.70
  -2  -8  -5    3.40  106.99
   2   8   5    1.50    5.30
   2   8   5   14.40    9.80
  -3  -8  -5  -33.30   80.09
   3   8   5    2.60    4.60
   3   8   5   10.10    7.80
  -6   0   6  106.69  118.29
  -5   0   6  -75.99  120.29
  -4   0   6   79.09    8.50
  -4   0   6  153.88  182.38
   4   0  -6   70.99    8.90
  -4   0   6   72.59    6.30
   4   0  -6   65.09    6.60
  -3   0   6  423.56   23.30
  -3   0   6  447.96   20.90
  -2   0   6 1077.29   46.90
  -2   0   6 1062.99   44.60
  -1   0   6   64.59    4.40
   0   0   6 9999.00  390.56
   1   0   6   94.89    6.20
  -1   0  -6   92.49    5.50
  -2   0  -6   69.59    4.80
   2   0   6   79.99    6.00
  -2   0  -6   77.99    6.20
  -3   0  -6  280.17   16.30
   3   0   6  273.67   16.90
   3   0   6  286.67   15.30
  -3   0  -6   63.69  139.29
  -3   0  -6  269.07   13.70
  -4   0  -6  138.79  168.48
   5   0   6  290.07   17.30
   5   0   6  273.47   14.70
  -5   0  -6  242.88   14.60
  -5   0  -6   68.89  122.79
  -6  -1   6  -70.39  100.69
  -6   1   6  174.48  150.88
  -5  -1   6  -34.90   40.20
  -5   1   6  -22.60   75.19
  -4  -1   6  103.09   10.40
  -4  -1   6   97.69    7.50
   4  -1  -6  102.29   11.00
   4  -1  -6   92.19    7.90
  -4   1   6  105.39    7.70
  -4   1   6   75.39  189.58
  -4   1   6  100.49   10.40
   4   1  -6   90.69    7.90
   3  -1  -6  456.05   25.60
  -3  -1   6  426.16   20.40
  -3  -1   6  414.26   22.70
  -3   1   6  440.96   23.90
   3   1  -6  394.96   21.40
  -3   1   6  420.86   22.60
  -3   1   6  464.55   20.90
  -2  -1   6  842.62   35.10
   2  -1  -6  762.92   37.20
  -2  -1   6  873.61   37.40
  -2   1   6  821.92   35.60
  -2   1   6  875.51   38.60
  -1  -1   6  729.53   29.90
   1  -1  -6  710.43   31.70
  -1   1   6  706.33   30.30
   0  -1  -6  406.26   18.50
   0  -1   6  350.56   16.90
   0  -1  -6  374.86   17.20
   0   1  -6  385.96   19.70
   0   1   6  392.06   17.20
   0   1  -6  372.06   17.20
  -1  -1  -6  500.65   22.40
  -1  -1  -6  495.45   23.60
   1  -1   6  543.35   23.50
  -1   1  -6  548.15   23.30
  -1   1  -6  534.35   24.20
   1   1   6  507.05   22.70
  -2  -1  -6  231.78   11.20
   2  -1   6  228.18   12.70
  -2  -1  -6  223.78   12.80
  -2   1  -6  227.18   12.30
  -2   1  -6  214.18   11.00
   2   1   6  223.98   11.60
  -2   1  -6  231.28   12.70
  -3  -1  -6    4.60    1.60
   3  -1   6    9.90    3.60
   3  -1   6    8.30    3.00
  -3  -1  -6  -92.09   60.99
  -3  -1  -6    8.30    2.40
  -3   1  -6    7.70    1.90
  -3   1  -6    6.40    2.00
   3   1   6   10.00    3.30
  -3   1  -6   69.49  100.79
  -3   1  -6    9.30    2.00
  -4  -1  -6   66.09    7.70
   4  -1   6   72.09   10.40
  -4  -1  -6  -94.79  101.79
   4  -1   6   71.39    8.00
  -4  -1  -6   63.09    5.60
  -4   1  -6   76.49    8.20
   4   1   6   42.90    6.80
   4   1   6   54.29    6.50
   4   1   6   53.09    6.90
  -4   1  -6  198.48  183.88
   5  -1   6    6.40    2.80
  -5  -1  -6    7.30    2.40
  -5   1  -6   18.20  138.89
   5   1   6   10.90    3.40
  -6  -1  -6   78.49    6.90
  -6  -1  -6   67.59  110.29
   6  -1   6   76.49    6.70
  -6  -2   6   67.29  135.99
   5  -2  -6   38.20    6.40
  -5  -2   6   66.89  130.99
  -5  -2   6   37.40    4.50
   5   2  -6   39.40    5.10
   5   2  -6   31.90    4.80
  -5   2   6  -43.00   76.89
  -4  -2   6 -156.78  112.39
  -4   2   6   -9.60   61.89
  -3  -2   6  372.66   19.80
  -3  -2   6  353.46   16.90
   3  -2  -6  328.97   20.30
   3  -2  -6  335.37   22.60
  -3   2   6  349.07   21.30
   3   2  -6  355.06   18.90
  -3   2   6  331.07   17.20
   3   2  -6  341.97   22.30
  -2  -2   6  203.68   11.10
   2  -2  -6  189.58   12.30
  -2  -2   6  195.48    9.40
  -2   2   6  153.08   12.00
  -2   2   6  163.88    9.70
  -1  -2   6  243.48   11.70
   1  -2  -6  259.67   14.10
  -1   2   6  271.87   14.80
  -1   2   6  259.77   12.50
   0  -2   6  940.01   40.50
   0  -2  -6 1000.50   43.00
   0  -2  -6  976.50   41.10
   0   2  -6 1021.50   43.90
   1  -2   6  183.28   10.20
  -1  -2  -6  171.18   10.40
  -1  -2  -6  167.48    8.90
  -1   2  -6  179.98    9.10
  -1   2  -6  175.18   10.90
   1   2   6  162.08    8.40
  -2  -2  -6  183.58    9.60
   2  -2   6  179.38   11.40
  -2  -2  -6  193.38   11.50
  -2   2  -6  187.98   10.70
  -2   2  -6  171.38   11.30
  -3  -2  -6    6.40    1.80
  -3  -2  -6    5.20    2.10
   3  -2   6    9.80    3.50
   3  -2   6    4.40    2.90
   3   2   6    7.80    2.30
  -3   2  -6    6.90    2.10
   3   2   6    4.20    3.40
  -3   2  -6    8.50    2.60
   4  -2   6   49.10    7.40
  -4  -2  -6   62.59    7.40
  -4  -2  -6   52.39  165.38
   4  -2   6   57.29   11.20
  -4  -2  -6   59.19    5.40
   4   2   6   47.10    6.00
   4   2   6   36.20    7.00
   4   2   6   55.19    5.70
  -4   2  -6   41.80    6.40
  -5  -2  -6   79.89    6.50
  -5  -2  -6    9.20   99.39
   5  -2   6   74.09    8.80
   5   2   6   70.89    6.20
   5   2   6   78.89    6.90
  -6  -2  -6   33.00   81.29
   6   2   6   12.20    4.30
   6   3  -6   17.80    3.40
   6   3  -6   13.40    2.70
  -5  -3   6  246.08  243.88
  -4  -3   6  -36.20  142.49
  -4   3   6  -99.69  144.79
   3  -3  -6  142.29   13.80
  -3  -3   6  152.18    8.70
   3  -3  -6  133.49   12.70
  -3   3   6   67.29  141.39
  -3   3   6  137.89   12.00
   3   3  -6  137.39   10.00
  -3   3   6  155.08   13.40
   3   3  -6  165.78   20.20
   3   3  -6  148.69   10.40
   2  -3  -6   87.59   10.40
   2  -3  -6  103.09    9.10
  -2  -3   6   90.49    5.40
  -2   3   6   78.89    7.10
  -2   3   6   96.79    9.30
   2   3  -6  100.39    8.20
  -2   3   6   95.49    8.00
  -2   3   6   91.59    8.70
   2   3  -6   95.59    7.70
   1  -3  -6  309.37   17.10
  -1   3   6  325.27   17.80
   1   3  -6  325.97   19.90
   0  -3  -6  126.09    9.20
   0  -3   6  114.19    7.00
   0  -3  -6  121.99    7.70
   0   3  -6  125.49   10.40
   0   3   6  131.09    8.80
   0   3   6  117.19    8.20
  -1  -3  -6  863.21   36.00
  -1  -3  -6  842.62   38.10
   1  -3   6  812.32   37.30
  -1   3  -6  832.92   39.40
   1   3   6  884.01   35.50
   2  -3   6  531.75   25.90
  -2  -3  -6  517.65   25.20
  -2  -3  -6  490.25   22.70
   2   3   6  515.45   24.70
  -2   3  -6  501.45   23.00
  -2   3  -6  478.85   25.90
   3  -3   6   20.10    5.20
  -3  -3  -6  181.18  143.69
   3  -3   6   24.20    4.80
  -3  -3  -6   21.80    3.00
  -3  -3  -6   22.00    4.30
   3   3   6   22.40    4.20
  -3   3  -6   24.80    3.80
  -3   3  -6   18.70    4.50
   3   3   6   22.70    4.50
   4  -3   6   44.70    9.00
  -4  -3  -6   59.59    5.60
   4  -3   6   49.50    7.60
  -4  -3  -6   64.79    8.30
  -4  -3  -6   54.09  168.88
  -4   3  -6   50.29    6.60
   4   3   6   58.39    6.40
   4   3   6   58.29    6.40
   5  -3   6   70.69    7.90
  -5  -3  -6  -71.09   99.29
  -5  -3  -6   60.49    5.50
  -5  -3  -6   57.89    6.20
  -5   3  -6   50.49    5.30
   5   3   6   49.00    5.50
   5   3   6   59.79    5.70
  -6  -3  -6   52.69    5.20
  -6  -3  -6  -25.00   70.39
   6  -3   6   51.69    5.40
  -6   3  -6   47.00    4.30
  -5  -4   6   24.00  163.28
  -5  -4   6   45.20    4.20
   5  -4  -6   38.00    6.30
   5   4  -6   39.30    4.80
   5   4  -6   35.70    4.70
  -4  -4   6  118.19    7.80
   4  -4  -6  127.49   13.60
   4   4  -6  113.59    8.80
  -4   4   6  109.19   13.60
   4   4  -6  118.99    9.70
  -4   4   6   80.89   12.90
   3  -4  -6   27.20    6.70
   3  -4  -6   17.30    5.80
  -3  -4   6   22.70    3.00
  -3   4   6   29.90    5.80
   3   4  -6   24.90    4.70
  -3   4   6   29.90    5.10
  -3   4   6   34.10    6.00
   3   4  -6   24.00    4.70
   3   4  -6   32.30   15.10
  -2  -4   6   21.00    2.60
   2  -4  -6   25.80    4.70
   2  -4  -6   30.00    6.80
   2   4  -6   30.20    4.90
  -2   4   6   27.00    4.70
  -2   4   6   29.50    5.20
   2   4  -6   20.40    3.70
   2   4  -6   21.20    4.40
  -2   4   6   21.60    4.60
   1  -4  -6  130.29   12.20
   1  -4  -6   62.49  107.19
   1  -4  -6  141.29   10.50
  -1   4   6  128.59   11.10
  -1   4   6  138.19   10.00
   1   4  -6  158.78   13.20
   1   4  -6  153.08   10.10
  -1   4   6  134.69   10.90
   0  -4   6   77.69    6.00
   0  -4  -6   92.49    6.80
   0  -4  -6   86.99    8.10
   0   4   6   88.29    6.80
   0   4  -6   85.29    7.00
   0   4   6   86.89    7.30
   0   4   6   77.99    8.30
   0   4  -6   91.49    9.40
  -1  -4  -6  175.08   10.10
   1  -4   6  173.18   11.50
  -1  -4  -6  186.18   12.50
  -1   4  -6  172.38   13.40
  -1   4  -6  161.38   10.70
   1   4   6  169.38   10.60
   1   4   6  184.38   10.00
   1   4   6  173.48    9.80
   1   4   6  179.88   12.30
  -2  -4  -6   98.59    6.80
   2  -4   6  100.69    9.10
  -2  -4  -6  101.19    9.00
   2  -4   6   81.29    8.80
  -2  -4  -6   82.29    8.20
  -2  -4  -6  -59.89  176.58
   2   4   6   91.89    9.90
  -2   4  -6  106.19    7.90
   2   4   6   78.89    7.30
  -2   4  -6   95.09    9.50
   3  -4   6   51.89    7.60
  -3  -4  -6   42.40    7.00
   3  -4   6   51.79    6.90
  -3  -4  -6   99.29  166.58
  -3  -4  -6   37.20    6.20
  -3  -4  -6   49.60    4.80
  -3   4  -6   42.80    6.70
   3   4   6   43.10    8.90
  -3   4  -6   53.49    5.60
   3   4   6   45.60    5.80
  -3   4  -6   43.00    5.00
  -4  -4  -6    5.20    2.00
  -4  -4  -6    5.40    2.90
   4  -4   6   11.20    7.60
  -4  -4  -6   83.79  160.98
   4  -4   6    5.80    3.00
  -4   4  -6    5.00    2.30
   4   4   6    3.40    2.30
   4   4   6    7.00    3.80
   5  -4   6   22.20    4.60
  -5  -4  -6    9.50   69.29
  -5  -4  -6   15.20    3.10
  -5  -4  -6   18.80    3.80
   5   4   6   29.10    4.10
   5   4   6    6.80    3.40
  -5  -5   6   18.30    3.80
   5  -5  -6   10.60    3.40
   5   5  -6   21.00    3.60
   5   5  -6   21.00    3.50
   4  -5  -6   56.59    8.50
   4  -5  -6   35.10   10.10
  -4  -5   6   52.89    4.70
   4   5  -6   59.59    6.40
   4   5  -6   57.29    5.70
   3  -5  -6   76.59   11.10
   3  -5  -6   76.69   10.60
  -3  -5   6   80.59    5.50
  -3   5   6   95.99    8.20
  -3   5   6   76.59    8.50
   3   5  -6   81.09    7.30
   3   5  -6   73.59    7.70
  -3   5   6   95.19   11.40
   3   5  -6   42.60   18.90
   2  -5  -6   80.99    9.10
   2  -5  -6   56.09   10.00
   2   5  -6   62.19    6.40
  -2   5   6   60.19    8.10
  -2   5   6   64.59    8.00
   2   5  -6   60.09    6.70
   2   5  -6   65.49    9.70
  -2   5   6   61.09    6.80
   1  -5  -6  -11.30  103.89
   1  -5  -6   29.30    5.10
   1  -5  -6   20.80    5.00
   1   5  -6   20.80    4.20
  -1   5   6   11.20    7.50
   1   5  -6   18.80    4.10
   1   5  -6   27.70    4.90
   1   5  -6   36.60    6.60
  -1   5   6   24.80    3.90
  -1   5   6   23.50    4.90
   0  -5  -6   41.20    7.40
   0  -5  -6  189.08  258.27
   0  -5   6   20.70    4.30
   0  -5  -6   33.50    4.80
   0   5   6   31.30    4.90
   0   5   6   25.30    6.30
   0   5  -6   26.40    4.30
   0   5   6   46.70    9.90
   0   5  -6   27.20    5.70
   1  -5   6    5.80    3.10
  -1  -5  -6  -68.89  101.29
  -1  -5  -6    7.60    4.30
   1   5   6   15.30    7.00
   1   5   6    7.30    3.00
   2  -5   6    7.20    4.20
   2  -5   6    6.70    3.40
  -2  -5  -6   14.30   98.59
  -2  -5  -6   12.30    2.70
  -2  -5  -6   15.50    5.10
  -2  -5  -6    7.50    3.40
   2   5   6   13.60    7.50
  -2   5  -6    3.70    3.40
  -2   5  -6    5.10    2.50
   2   5   6   16.90    3.80
   3  -5   6  123.19   11.10
   3  -5   6  116.89   10.90
  -3  -5  -6   54.79   96.19
  -3  -5  -6  114.89    9.90
  -3  -5  -6  117.29    8.40
   3   5   6  116.79   15.00
   3   5   6  117.59    9.00
  -3   5  -6  116.59    9.30
  -3   5  -6   95.59   11.50
  -4  -5  -6  126.19  213.68
   4  -5   6   46.30   10.00
  -4  -5  -6   63.29    5.90
  -4  -5  -6   65.79    7.70
   4  -5   6   60.19    7.90
  -4   5  -6   59.89    6.00
   4   5   6   69.29    6.20
   4   5   6   69.59   12.00
  -5  -5  -6  -81.99   83.19
   5   5   6    9.40    4.30
   4  -6  -6   25.80    5.70
   4   6  -6   32.60    4.40
   4   6  -6   33.70    4.10
   3  -6  -6    7.00    3.80
   3  -6  -6    5.40    6.10
  -3   6   6    9.50    3.10
   3   6  -6    9.70   24.00
   3   6  -6   18.20    4.00
   3   6  -6    9.10    2.80
   2  -6  -6   20.40    6.00
   2  -6  -6   22.20    5.80
  -2   6   6   21.30    5.60
   2   6  -6   22.40    4.80
   2   6  -6   20.50   10.70
   2   6  -6   26.50    4.20
  -2   6   6   16.30    5.70
   1  -6  -6  -42.30  134.09
   1  -6  -6   44.20    6.90
   1  -6  -6   44.30    8.80
   1   6  -6   49.40    7.00
   1   6  -6   50.39    6.40
  -1   6   6   38.50    7.00
   1   6  -6   46.80    5.60
   1   6  -6   41.00   10.20
  -1   6   6   40.10   11.30
   0  -6   6   22.60    5.00
   0  -6  -6   25.90    6.40
   0  -6  -6   28.50    4.80
   0  -6  -6   77.39  124.49
   0   6   6   17.10   11.50
   0   6   6   21.70    6.90
   0   6  -6   25.80    6.40
   0   6  -6   51.99   14.20
   0   6   6   14.00    5.00
  -1  -6  -6   39.50    4.90
   1  -6   6   36.70    5.70
  -1  -6  -6  -98.79  147.69
  -1  -6  -6   34.00    7.70
  -1   6  -6   35.10    5.20
  -1   6  -6   47.40    8.40
   1   6   6   39.70    8.10
   1   6   6   27.40    8.40
   2  -6   6   39.50    8.10
  -2  -6  -6  -16.60  119.79
   2  -6   6   52.29    6.90
  -2  -6  -6   26.70    6.40
  -2  -6  -6   40.60    4.70
   2   6   6   27.40    9.50
   2   6   6   36.50    5.10
  -2   6  -6   57.39    8.60
  -2   6  -6   42.20    5.20
  -3  -6  -6   69.59    6.60
   3  -6   6   85.39   10.20
   3  -6   6   76.39    8.70
  -3  -6  -6  -92.69  178.38
  -3   6  -6   82.89    7.10
   3   6   6   80.49    7.00
   3   6   6   80.49   16.00
  -4  -6  -6   11.20    2.70
   4  -6   6    5.70    7.50
   4  -6   6   11.40    3.20
  -4  -6  -6   33.00   68.69
   4   6   6    6.90    7.70
   4   6   6   21.00    3.60
  -4   6  -6   14.00    2.90
   4  -7  -6   12.80    2.80
   4   7  -6   24.30    4.80
   4   7  -6   12.70    4.20
   3  -7  -6    2.20    2.70
   3  -7  -6    6.90    7.50
   3   7  -6    9.00    2.80
   3   7  -6    2.10    2.50
   2  -7  -6    3.50    3.50
   2  -7  -6    1.90    2.50
   2   7  -6    2.40   16.70
   2   7  -6   -2.90    3.70
  -2   7   6    2.10    7.20
   1  -7  -6   40.60    6.50
   1  -7  -6   40.60    7.90
  -1   7   6   29.40   11.40
   1   7  -6   40.70    8.70
   0  -7   6    7.90    3.50
   0  -7  -6   73.99  130.19
   0  -7  -6   -1.50    4.20
   0  -7  -6    1.70    2.00
   0   7   6   -0.20   13.50
   0   7  -6    2.00    1.70
  -1  -7  -6    6.90    3.10
  -1  -7  -6   56.49  160.88
   1  -7   6    6.00    3.00
   1   7   6   10.00    7.20
  -1   7  -6    9.70    3.10
   1   7   6   11.30   10.80
   2  -7   6   13.00    3.90
   2   7   6   12.10    6.70
   2   7   6    5.80    8.10
  -2   7  -6   10.80    2.90
   3  -7   6   -1.90    5.40
  -3  -7  -6    0.20    1.70
  -3  -7  -6   -7.70  126.29
   3  -7   6    2.80    3.20
  -3   7  -6    4.90    2.20
   3   7   6    5.30    7.00
   3   7   6    7.90    5.30
  -4  -7  -6 -101.89   65.19
   2  -8  -6    3.80    4.70
   2  -8  -6    1.50    2.40
  -2   8   6   -3.50    9.20
   1  -8  -6    6.80    3.50
   1  -8  -6    4.90    3.20
  -1   8   6    6.40   10.60
   1   8  -6    3.60   13.50
   0  -8  -6    7.20    3.30
   0   8  -6   -0.30    6.60
   0   8   6    9.10   12.80
   1  -8   6   -2.10    3.00
  -1  -8  -6    2.00    2.80
  -1  -8  -6   30.50  104.99
  -1   8  -6    2.10    2.80
   1   8   6    3.10   13.30
   2  -8   6    1.60    3.80
  -2  -8  -6    0.00  115.59
  -2  -8  -6    9.20    3.10
   2   8   6    2.10    4.10
  -2   8  -6    3.20    3.00
   2   8   6    9.90   10.50
   6   0  -7   15.40    3.50
  -6   0   7   31.00  102.89
  -5   0   7   69.89    6.40
   5   0  -7   63.49    6.00
  -5   0   7   16.00   70.29
  -4   0   7   17.00    3.10
  -4   0   7   22.10    5.00
   4   0  -7   15.10    3.80
  -4   0   7   47.30  133.19
   3   0  -7   76.89    7.10
  -3   0   7   -0.20  119.19
  -3   0   7   88.39    8.50
  -3   0   7   87.59    6.80
  -3   0   7   88.59    8.20
  -2   0   7  216.38   13.30
  -2   0   7  214.38   11.40
  -1   0   7   19.60    2.60
   0   0   7 6091.69  239.28
   1   0   7 1104.99   45.50
  -1   0  -7 1094.99   44.70
  -1   0  -7 1056.19   45.90
  -2   0  -7  140.09    9.40
  -2   0  -7  138.19    7.90
   2   0   7  150.38    9.20
  -3   0  -7   99.79    6.70
   3   0   7   97.99    9.00
  -3   0  -7   98.89    8.60
   3   0   7   99.99    8.60
  -3   0  -7   40.40  135.29
  -4   0  -7    3.50    2.20
  -4   0  -7  -38.80   62.49
   4   0   7    0.30    1.90
  -4   0  -7    0.50    1.60
   5   0   7    5.30    2.40
  -5   0  -7  -32.10   50.89
  -6   0  -7    0.60    1.20
  -6  -1   7    1.00    1.60
  -6  -1   7  -33.10  112.29
  -6   1   7   -2.60   80.39
   6   1  -7    2.60    1.80
  -5  -1   7    3.10    1.90
  -5  -1   7   41.00   83.89
  -5   1   7    6.70    2.50
  -5   1   7   -4.40  148.09
   5   1  -7    2.60    1.90
  -4  -1   7 -129.99   75.69
  -4   1   7   13.70  117.79
   3  -1  -7   26.50    5.50
  -3  -1   7  -87.09   88.49
  -3   1   7  -96.19   88.29
   2  -1  -7  131.59   10.20
  -2  -1   7  142.99    8.00
  -2  -1   7  141.99    9.50
  -2   1   7  131.39   10.20
  -2   1   7  135.29    8.30
   1  -1  -7 1011.20   43.50
  -1   1   7  990.80   44.10
  -1   1   7 1022.50   42.10
   0  -1  -7 1287.87   55.59
   0  -1  -7 1318.17   54.19
   0  -1   7 1319.37   53.69
   0   1  -7 1335.17   54.19
   0   1  -7 1333.17   57.09
   0   1   7 1280.67   53.69
  -1  -1  -7  827.12   37.40
   1  -1   7  874.81   36.80
  -1  -1  -7  870.21   35.90
  -1   1  -7  888.21   36.80
  -1   1  -7  816.02   37.80
   1   1   7  844.22   36.00
  -2  -1  -7   75.89    6.60
  -2  -1  -7   78.69    5.30
   2  -1   7   77.59    6.80
  -2   1  -7   80.19    6.50
  -2   1  -7   79.49    6.30
   2   1   7   75.69    5.80
   3  -1   7    0.60    2.00
   3  -1   7    4.90    3.20
  -3  -1  -7    4.80    1.90
  -3  -1  -7  114.39  128.89
   3   1   7   13.10    3.30
   3   1   7    9.70    3.00
  -3   1  -7    5.30    2.40
  -3   1  -7    7.30    2.30
  -3   1  -7  -89.09   65.69
  -3   1  -7    3.20    2.50
  -4  -1  -7   16.10   92.69
  -4  -1  -7   59.09    7.30
   4  -1   7   54.49    7.60
  -4  -1  -7   54.89    5.40
   4  -1   7   46.40    8.00
   4   1   7   53.19    7.60
   4   1   7   48.70    6.50
   4   1   7   59.09    6.10
  -4   1  -7   76.79  147.99
  -4   1  -7   59.69    7.40
  -5  -1  -7  185.58  190.28
   6  -1   7    2.50    1.80
  -6  -1  -7   -1.00    0.90
  -6   1  -7    0.80    1.30
  -6  -2   7   10.50    2.30
  -6  -2   7   47.70   95.39
   6   2  -7    9.40    2.30
   6   2  -7    9.40    2.20
  -5  -2   7  -55.19   40.90
   5  -2  -7    8.70    3.40
  -5  -2   7    7.40    2.00
   5   2  -7    9.00    2.80
   5   2  -7    4.80    2.00
  -5   2   7   84.79  121.39
  -4  -2   7  201.98  191.58
  -4  -2   7   57.79    5.60
   4  -2  -7   66.09    9.20
  -4   2   7   56.69    5.80
  -4   2   7  -43.50   71.89
   4   2  -7   56.69    6.30
  -4   2   7   54.19    8.00
  -4   2   7   67.39    8.50
   3  -2  -7   63.49    8.50
  -3  -2   7   41.00    4.30
   3  -2  -7   42.90    8.80
  -3  -2   7   37.50    6.20
  -3   2   7   53.89    5.10
   3   2  -7   38.40    9.00
  -3   2   7   44.90  123.19
  -3   2   7   62.89    7.40
   3   2  -7   44.30    5.70
  -3   2   7   48.00    6.10
  -2  -2   7  335.17   17.50
   2  -2  -7  343.57   18.90
  -2  -2   7  318.97   15.40
  -2   2   7  334.07   19.60
  -2   2   7  333.67   16.40
   1  -2  -7  255.67   14.60
  -1  -2   7  262.97   12.50
  -1   2   7  274.57   15.70
  -1   2   7  265.17   13.10
   0  -2  -7  349.57   16.70
   0  -2  -7  361.66   18.60
   0  -2   7  324.17   16.00
   0   2  -7  355.56   20.10
   0   2   7  340.47   16.00
   1  -2   7  277.57   14.90
  -1  -2  -7  286.77   15.90
  -1  -2  -7  295.17   14.30
  -1   2  -7  305.07   14.40
  -1   2  -7  300.47   16.70
  -2  -2  -7  386.06   20.70
  -2  -2  -7  398.16   18.70
   2  -2   7  407.36   20.80
  -2   2  -7  402.96   21.20
  -2   2  -7  423.36   20.00
  -3  -2  -7  -14.80   64.09
  -3  -2  -7   88.89    6.60
   3  -2   7   80.99    8.90
   3  -2   7   89.39    8.70
  -3  -2  -7   83.69    8.20
  -3   2  -7   94.99    8.20
   3   2   7   81.19    7.90
  -3   2  -7   97.59    8.10
   3   2   7   86.39    7.50
   3   2   7   89.09    8.50
  -4  -2  -7    2.20    2.40
   4  -2   7    4.80    2.70
  -4  -2  -7   61.19  110.29
   4  -2   7    1.90    6.20
  -4  -2  -7    1.20    1.50
   4   2   7    2.40    2.60
  -4   2  -7    2.80    2.40
   4   2   7    8.50    3.40
   4   2   7    0.40    2.80
  -5  -2  -7   22.90   98.39
   5  -2   7   33.10    5.90
  -5  -2  -7   35.70    4.50
   5   2   7   36.30    6.10
   5   2   7   37.80    4.60
  -6  -2  -7   39.00   91.99
  -6  -2  -7    8.10    2.30
   6  -2   7    9.60    2.60
  -6   2  -7    7.50    2.20
  -6  -3   7  -71.79   56.09
   6   3  -7    4.60    1.90
  -5  -3   7  -25.10  100.29
   5  -3  -7   17.60    4.60
  -5  -3   7   18.90    3.20
   5   3  -7   13.30    3.20
   5   3  -7   18.10    3.60
   4  -3  -7    2.20    2.40
  -4  -3   7  -59.49  143.39
  -4   3   7    4.00    3.10
  -4   3   7  101.79  119.29
   4   3  -7    4.90    2.00
   4   3  -7    0.20    1.30
  -4   3   7    1.20    2.50
   3  -3  -7   88.79   10.60
   3  -3  -7   78.79   10.20
  -3  -3   7   73.89    5.80
   3   3  -7   80.59    7.60
   3   3  -7   55.49   12.40
  -3   3   7   81.49   10.10
  -3   3   7   82.19    9.30
   3   3  -7   70.49    6.90
   2  -3  -7   18.70    4.50
   2  -3  -7   18.80    5.40
  -2  -3   7   30.90    2.90
  -2   3   7   23.80    4.70
  -2   3   7   25.70    4.30
  -2   3   7   22.90    4.50
  -2   3   7   -8.30  113.99
   2   3  -7   23.50    4.60
   2   3  -7   20.20    4.00
   1  -3  -7   24.30    4.00
  -1  -3   7   24.50    2.60
  -1   3   7   19.10    3.80
   1   3  -7   24.60    6.70
   0  -3  -7  235.68   13.00
   0  -3  -7  244.98   15.00
   0  -3   7  252.47   12.40
   0   3   7  236.08   13.60
   0   3   7  240.08   14.30
  -1  -3  -7  846.92   39.60
   1  -3   7  869.51   38.50
  -1  -3  -7  906.71   37.50
   1   3   7  853.41   36.30
  -1   3  -7  869.71   41.10
   2  -3   7   85.79    8.60
  -2  -3  -7   80.89    7.70
  -2  -3  -7   74.69    7.50
  -2  -3  -7  -51.59   89.89
  -2  -3  -7   79.19    5.90
   2  -3   7   82.89    7.70
   2   3   7   85.19    7.40
  -2   3  -7   83.89    6.10
  -2   3  -7   91.79    8.50
   3  -3   7   47.00    6.20
  -3  -3  -7   33.70  132.59
  -3  -3  -7   37.50    4.10
  -3  -3  -7   45.30    5.40
  -3  -3  -7   33.50    6.10
   3  -3   7   33.80    5.60
  -3   3  -7   34.20    5.30
  -3   3  -7   41.60    4.90
   3   3   7   41.90    5.60
   3   3   7   26.90    5.00
  -3   3  -7   43.10    6.30
   4  -3   7   27.00    8.50
  -4  -3  -7  -19.00  110.59
  -4  -3  -7   36.10    4.50
  -4  -3  -7   26.20    6.80
  -4  -3  -7   43.30    5.50
   4  -3   7   36.80    6.30
   4   3   7   35.20    5.10
  -4   3  -7   24.80    4.20
  -4   3  -7   33.80    5.40
   4   3   7   35.80    5.00
  -5  -3  -7   31.50    4.80
   5  -3   7   29.10    5.50
  -5  -3  -7   24.30    3.90
  -5  -3  -7   32.20  122.19
   5   3   7   23.30    3.50
   5   3   7   21.20    3.70
  -5   3  -7   21.00    4.00
   6  -3   7    2.70    1.70
  -6  -3  -7  -15.00   63.39
  -6  -3  -7   -0.90    1.20
  -6   3  -7   -0.90    0.90
  -5  -4   7   71.89  179.68
  -5  -4   7   24.20    3.40
   5  -4  -7   27.00    5.20
   5   4  -7   25.90    4.00
   5   4  -7   24.50    3.80
   4  -4  -7   12.20    4.60
  -4  -4   7    6.50    1.90
   4   4  -7   10.70    2.70
   4   4  -7    9.80    2.90
   3  -4  -7   -2.80    4.10
   3  -4  -7    0.60    2.30
  -3  -4   7    2.80    1.40
  -3   4   7    0.90    3.60
   3   4  -7    1.70    2.20
  -3   4   7    4.30    2.10
   3   4  -7    7.40    2.70
   3   4  -7    3.90   15.40
  -3   4   7    2.40    2.30
  -2  -4   7   40.80    3.40
   2  -4  -7   37.80    6.40
   2  -4  -7   39.60    7.70
  -2   4   7   41.80    6.80
   2   4  -7   46.30    5.40
   2   4  -7   43.00    6.20
  -2   4   7   40.80    5.40
  -2   4   7   41.80    6.20
   2   4  -7   45.60    6.20
   1  -4  -7   45.60  145.39
   1  -4  -7   20.60    5.30
   1  -4  -7   12.40    3.40
  -1  -4   7   15.60    2.80
  -1   4   7   17.00    4.10
   1   4  -7   18.50    3.70
  -1   4   7   11.00    3.00
  -1   4   7   10.80    3.40
   1   4  -7   23.10    3.80
  -1   4   7    7.70    3.90
   1   4  -7   10.80    4.90
   0  -4  -7   66.99  144.39
   0  -4   7   74.39    5.80
   0  -4  -7   80.39    8.30
   0   4  -7   77.39    6.60
   0   4   7   56.99    7.70
   0   4  -7   80.39    9.30
   0   4   7   74.49    6.70
   0   4   7   78.39    7.40
   0   4   7   75.39    6.70
  -1  -4  -7  -27.40  124.99
   1  -4   7    8.70    2.90
  -1  -4  -7   18.80    5.00
  -1   4  -7   18.20    3.60
  -1   4  -7   18.80    5.00
   1   4   7   17.90    3.70
   1   4   7   14.30    4.90
  -2  -4  -7   64.39    7.70
   2  -4   7   63.39    8.20
   2  -4   7   83.09    8.00
  -2  -4  -7   70.89    7.40
  -2  -4  -7   69.09    5.90
  -2   4  -7   71.69    8.60
   2   4   7   70.99    8.80
   2   4   7   66.49    6.40
  -2   4  -7   81.49    7.10
   3  -4   7  211.78   16.10
  -3  -4  -7  201.58   14.00
  -3  -4  -7   51.69  140.59
   3  -4   7  218.68   15.40
  -3  -4  -7  220.08   12.60
  -3  -4  -7  203.18   15.70
   3   4   7  213.38   12.70
   3   4   7  213.08   15.10
  -3   4  -7  182.88   15.60
  -3   4  -7  214.08   13.40
  -4  -4  -7   69.39    7.10
   4  -4   7   55.19    7.70
  -4  -4  -7   64.39    6.00
  -4  -4  -7    8.00   89.09
   4  -4   7   50.69   10.30
  -4   4  -7   65.89    6.40
   4   4   7   65.99    7.50
   4   4   7   58.49    6.10
  -5  -4  -7   18.00    3.40
   5  -4   7   21.70    4.80
  -5  -4  -7   18.50    3.90
  -5  -4  -7   28.30   91.69
   5   4   7   22.80    4.30
  -5   4  -7   21.20    3.40
   5   4   7   22.80    4.00
  -5  -5   7 -112.79  110.19
   4  -5  -7    1.90    3.50
  -4  -5   7   -1.60    1.30
   4   5  -7    0.40    1.40
   4   5  -7   -1.00    1.50
  -3  -5   7   80.99    5.70
   3  -5  -7   86.09   11.40
   3  -5  -7   90.59   11.90
  -3   5   7   88.79    8.10
  -3   5   7   67.89   10.20
   3   5  -7   75.89   19.80
   3   5  -7   85.69    8.10
  -3   5   7   69.29    8.80
   3   5  -7   98.59    7.80
   2  -5  -7   19.30    6.00
   2  -5  -7   20.60    5.50
   2   5  -7   20.50    4.20
   2   5  -7   29.00    4.80
  -2   5   7   17.90    5.20
  -2   5   7   25.00    5.30
   2   5  -7   30.00    7.80
  -2   5   7   16.70    4.30
   1  -5  -7   26.70    6.70
   1  -5  -7  -74.49   73.69
   1   5  -7   25.60    4.90
   1   5  -7   12.30    6.00
  -1   5   7   29.30    6.60
   1   5  -7   22.30    4.50
   0  -5   7   99.19    7.30
   0  -5  -7   80.69   10.20
   0  -5  -7   98.09    8.60
   0  -5  -7  179.68  191.18
   0   5   7   96.49    8.70
   0   5  -7   96.39    8.20
   0   5  -7   97.19   10.60
   0   5   7  101.19    9.90
   0   5   7   90.89   12.50
  -1  -5  -7   41.00    6.50
  -1  -5  -7  115.89  119.39
  -1  -5  -7   42.00    4.90
  -1  -5  -7   31.80    6.30
   1  -5   7   48.80    5.80
  -1   5  -7   38.50    5.40
  -1   5  -7   40.90    7.40
   1   5   7   31.80    7.80
   1   5   7   40.30    6.30
   2  -5   7  268.37   17.50
  -2  -5  -7   40.00  164.98
  -2  -5  -7  272.97   15.30
  -2  -5  -7  288.57   18.10
   2  -5   7  283.97   18.00
  -2  -5  -7  273.17   19.70
  -2   5  -7  238.58   19.20
   2   5   7  267.57   19.90
  -2   5  -7  284.17   16.30
   2   5   7  251.17   15.00
  -3  -5  -7  110.69  169.48
   3  -5   7   26.60    6.00
  -3  -5  -7   31.40    4.30
  -3  -5  -7   25.90    5.20
   3  -5   7   20.20    5.20
  -3   5  -7   23.60    6.40
   3   5   7   23.40    8.20
   3   5   7   29.50    4.70
  -3   5  -7   36.30    4.70
  -4  -5  -7   60.99    6.60
   4  -5   7   45.80   10.30
   4  -5   7   50.69    7.10
  -4  -5  -7  -81.59  100.59
  -4  -5  -7   55.89    5.70
   4   5   7   55.29    9.90
  -4   5  -7   50.59    5.40
   4   5   7   60.69    6.00
  -5  -5  -7    0.70    1.70
  -5  -5  -7    0.90    2.40
  -5  -5  -7    5.20  110.29
   5  -5   7    1.70    1.70
   5   5   7   -1.90    1.60
  -5   5  -7    1.20    1.20
   5   5   7   -0.60    3.20
   4  -6  -7   23.30    5.50
   4   6  -7   35.30    4.70
   4   6  -7   25.70    3.70
   3  -6  -7    2.50    2.30
   3  -6  -7   -4.90    5.40
   3   6  -7    0.40    1.80
   3   6  -7   17.50   22.10
   3   6  -7    7.30    2.50
   2  -6  -7   22.60    5.90
   2  -6  -7   21.10    5.20
   2   6  -7   22.70    4.00
   2   6  -7   15.90   10.80
   2   6  -7   18.70    3.80
  -2   6   7   33.00    5.90
   1  -6  -7  -38.50   38.20
   1  -6  -7    9.90    4.70
   1  -6  -7   10.60    4.00
  -1   6   7    3.70    4.10
   1   6  -7   17.00    8.00
   1   6  -7    9.30    3.20
  -1   6   7    4.60    8.50
   1   6  -7   17.10    4.10
   0  -6  -7 -117.89   94.59
   0  -6  -7   20.30    5.80
   0   6  -7   22.50    6.50
   0   6  -7   21.60    4.60
   0   6   7    7.50    8.50
   0   6   7   17.20    5.70
  -1  -6  -7   47.40    8.40
   1  -6   7   60.59    6.90
  -1  -6  -7   83.19  171.68
  -1   6  -7   54.89    9.30
   1   6   7   55.49    9.40
  -1   6  -7   55.69    6.20
   1   6   7   49.70    8.70
  -2  -6  -7   42.60    8.50
  -2  -6  -7  -18.50   92.79
   2  -6   7   60.89    7.40
  -2  -6  -7   54.99    5.90
   2   6   7   50.49   10.20
   2   6   7   55.89    7.30
  -2   6  -7   54.09    6.10
  -3  -6  -7  138.79    9.80
  -3  -6  -7  112.69   11.10
  -3  -6  -7   64.29  120.99
   3  -6   7  153.38   13.60
   3  -6   7  142.59   11.60
   3   6   7  154.58    9.90
  -3   6  -7  138.29   10.10
   3   6   7  148.39   16.10
  -4  -6  -7   -3.10   90.69
  -4  -6  -7    6.00    2.00
  -4  -6  -7   -0.50    3.40
   4  -6   7    3.00    2.50
   4  -6   7    0.60    6.80
  -4   6  -7    1.30    1.40
   4   6   7    1.30    5.60
   4   6   7    0.90    1.80
   3  -7  -7   -0.30    2.00
   3  -7  -7    4.60    6.40
   3   7  -7    3.10    2.20
   3   7  -7   -1.20    3.60
   2  -7  -7   -0.30    4.40
   2  -7  -7   -2.50    2.70
   2   7  -7    1.90    2.40
   2   7  -7   -1.90   16.10
  -2   7   7   -0.30    5.90
   1  -7  -7    3.70    3.00
   1  -7  -7    8.40    3.80
  -1   7   7    6.10    8.60
   1   7  -7    5.90    5.70
   0  -7  -7   10.90    3.90
   0  -7  -7   21.00    6.10
   0  -7   7    9.90    3.20
   0  -7  -7   86.69  145.09
   0   7  -7   14.40    3.40
   0   7   7   17.50   12.20
  -1  -7  -7    9.20    5.50
  -1  -7  -7   15.70    4.10
  -1  -7  -7  -31.40  102.99
   1  -7   7   13.60    3.90
   1   7   7   22.70   10.50
   1   7   7   20.70    7.10
  -1   7  -7   25.00    3.90
  -2  -7  -7   37.20    5.20
  -2  -7  -7  -11.30  158.28
   2  -7   7   37.20    6.00
  -2   7  -7   37.00    4.70
   2   7   7   40.70    9.40
   2   7   7   37.90    8.50
   3  -7   7   -0.20    3.10
  -3  -7  -7   16.20  138.09
   3  -7   7    7.50    5.90
   3   7   7    4.50    6.60
  -3   7  -7    8.80    2.60
   3   7   7   12.60    5.90
   2  -8  -7   -2.00    1.90
  -2   8   7   -0.40    8.00
   1  -8  -7    6.60    4.30
   1  -8  -7   -0.50    3.60
   1   8  -7    2.60   12.40
  -1   8   7    4.00    9.50
   0  -8  -7    3.70    4.60
   0  -8  -7    3.50    3.00
   0   8   7    5.80   11.70
   0   8  -7    0.80    6.00
  -1  -8  -7    9.70    3.40
  -1  -8  -7   -6.00  124.89
  -1   8  -7   10.80    3.30
   1   8   7   10.60   11.80
   2   8   7   -7.80   10.70
  -2   8  -7    0.90    2.10
  -6   0   8   12.90  107.69
  -5   0   8  156.48  196.48
  -4   0   8  -87.59   85.79
   3   0  -8   35.10    4.90
   3   0  -8   48.20    9.70
  -3   0   8   41.90    4.70
  -3   0   8   37.80    6.20
  -3   0   8   35.20    5.50
  -3   0   8  -27.40  135.59
  -2   0   8   21.30    3.90
  -2   0   8   23.40    3.20
  -1   0   8  222.18   11.60
   0   0   8    1.10    1.20
   0   0  -8    2.40    1.40
   1   0   8 4941.81  189.78
  -1   0  -8 4636.84  188.78
  -2   0  -8    0.50    1.20
  -2   0  -8    1.50    1.40
   2   0   8    1.90    2.00
   3   0   8   77.99    8.10
   3   0   8   81.79    8.30
  -3   0  -8   94.49    6.50
  -3   0  -8   45.30  116.79
  -3   0  -8   87.19    8.50
  -4   0  -8    3.60  112.09
   4   0   8    4.60    2.50
  -4   0  -8    0.80    2.10
  -4   0  -8   -2.30    1.80
  -5   0  -8  -42.30   80.59
   5   0   8    2.10    2.20
  -6   0  -8    0.80    1.20
  -6  -1   8   54.79  104.99
  -6   1   8  -81.59   85.59
   6   1  -8   -0.60    1.20
  -5  -1   8  -53.39   68.69
  -5   1   8   26.90  107.79
  -4  -1   8   61.79    6.10
   4  -1  -8   56.19    6.40
  -4  -1   8  -76.39   89.99
  -4  -1   8   56.29    8.90
   4  -1  -8   74.19    8.80
   4   1  -8   70.59    6.80
  -4   1   8   69.79    6.50
  -4   1   8   63.89    8.40
  -4   1   8   49.20  115.49
  -3  -1   8    3.20    1.30
  -3  -1   8    7.50    3.10
  -3  -1   8    7.40    2.70
   3  -1  -8    3.50    3.00
  -3   1   8    5.00    2.70
   3   1  -8    3.30    2.10
  -3   1   8    3.10    1.70
  -3   1   8    2.90    2.30
  -2  -1   8    7.80    1.70
  -2  -1   8    5.50    2.20
  -2   1   8    4.70    1.70
  -2   1   8    2.10    1.70
  -1  -1   8  517.55   21.90
   1  -1  -8  469.15   23.50
  -1   1   8  476.45   22.10
  -1   1   8  486.55   24.40
   0  -1  -8 2762.72  107.99
   0  -1  -8 2662.33  109.69
   0  -1   8 2594.94  107.29
   0   1  -8 2683.83  107.99
   0   1   8 2700.33  107.39
  -1  -1  -8  731.83   32.00
   1  -1   8  749.92   32.90
  -1  -1  -8  728.63   33.70
  -1   1  -8  726.93   34.70
   1   1   8  747.83   32.20
  -1   1  -8  771.42   33.10
  -2  -1  -8   97.59    8.00
  -2  -1  -8  101.09    6.60
   2  -1   8  104.19    7.90
  -2   1  -8   98.69    7.60
  -2   1  -8   94.49    7.80
   2   1   8  107.39    7.10
   3  -1   8    5.50    2.50
   3  -1   8    2.50    3.30
  -3  -1  -8  -78.49   43.00
  -3  -1  -8    5.20    2.30
  -3  -1  -8    5.20    2.00
   3   1   8    7.10    2.80
  -3   1  -8    6.30    2.50
   3   1   8    2.60    2.10
  -3   1  -8   47.80  124.29
  -4  -1  -8   29.70    4.30
  -4  -1  -8   34.40  175.58
   4  -1   8   16.70    5.40
   4  -1   8   43.50    6.70
  -4  -1  -8   27.30    5.40
   4   1   8   49.00    6.10
  -4   1  -8  142.69  156.88
  -4   1  -8   37.10    6.30
   4   1   8   36.40    5.40
  -5  -1  -8    5.00    2.80
  -5  -1  -8    6.60    2.70
  -5  -1  -8   78.19  122.69
   5  -1   8    6.80    3.10
  -5   1  -8    4.30    2.20
   5   1   8   10.70    3.00
  -6  -1  -8    1.90    1.30
   6  -1   8    2.50    1.90
  -6   1  -8    1.00    1.30
  -6  -2   8  -69.89   79.79
   6   2  -8   -1.00    1.60
   6   2  -8    4.10    1.60
  -5  -2   8  138.19  160.98
  -5   2   8  -59.09  100.99
   4  -2  -8    1.60    3.30
  -4  -2   8   -8.00  138.09
  -4  -2   8    7.40    2.30
  -4   2   8    0.50    2.70
  -4   2   8    3.70    2.50
   4   2  -8    4.50    2.10
   4   2  -8   12.60    3.30
  -4   2   8  122.19  158.68
  -3  -2   8   85.69    9.20
  -3  -2   8  -85.79  126.49
   3  -2  -8   92.39   10.60
  -3  -2   8   99.79    7.10
  -3  -2   8   85.39    9.50
  -3   2   8  112.99    7.70
   3   2  -8   84.69   12.60
  -3   2   8   99.69   10.30
  -3   2   8   93.89    9.00
   3   2  -8  103.29    8.50
  -3   2   8   29.90  131.69
  -2  -2   8  192.08   10.40
  -2  -2   8  192.48   12.20
   2  -2  -8  205.48   13.50
   2  -2  -8  198.48   15.40
  -2   2   8  182.38   13.20
  -2   2   8  208.98   14.40
  -2   2   8  193.38   11.10
   2   2  -8  192.08   12.30
  -1  -2   8  474.05   21.40
   1  -2  -8  496.05   24.10
  -1   2   8  457.55   24.70
  -1   2   8  502.35   22.10
   0  -2  -8  366.56   19.90
   0  -2   8  347.77   17.20
   0  -2  -8  378.26   18.30
   0   2   8  370.56   17.20
  -1  -2  -8 1882.11   79.49
  -1  -2  -8 1942.41   77.19
  -1   2  -8 1853.41   80.19
   1   2   8 1835.62   78.49
  -1   2  -8 1939.11   77.09
   2  -2   8  496.05   29.50
  -2  -2  -8  422.36   22.40
  -2  -2  -8  412.86   21.80
  -2  -2  -8  429.96   20.10
   2  -2   8  437.96   21.90
  -2   2  -8  417.26   21.00
   2   2   8  420.06   21.40
  -2   2  -8  382.66   22.20
  -3  -2  -8   71.19    7.40
  -3  -2  -8   69.09    5.90
  -3  -2  -8   66.09    6.70
  -3  -2  -8    3.70   94.09
   3  -2   8   74.29    8.30
   3  -2   8   70.19    8.20
  -3   2  -8   64.09    6.80
  -3   2  -8   76.29    7.60
   3   2   8   62.29    6.40
   3   2   8   69.79    6.90
   4  -2   8  100.79   10.10
  -4  -2  -8   42.40  132.39
  -4  -2  -8   90.89    9.50
  -4  -2  -8   99.39    8.80
  -4  -2  -8   93.19    7.50
   4  -2   8   85.99   12.60
   4   2   8   99.59    7.70
  -4   2  -8   87.59    9.30
   4   2   8   85.49    8.50
   4   2   8   72.39    8.50
   5  -2   8    8.40    3.10
  -5  -2  -8    5.00    2.10
  -5  -2  -8 -122.29   66.39
  -5  -2  -8    2.50    2.30
   5   2   8    1.80    2.40
  -5   2  -8    1.40    1.60
  -6  -2  -8   56.29   80.79
  -5  -3   8  -53.69  150.48
   5   3  -8    3.50    2.10
  -4  -3   8   26.80    3.80
  -4  -3   8   25.60  135.89
   4  -3  -8   16.60    4.80
  -4   3   8   17.30    5.30
   4   3  -8   22.60    4.30
   4   3  -8   18.60    4.10
  -4   3   8   16.10    5.10
  -4   3   8   -1.60   79.79
   3  -3  -8   10.90    5.50
  -3   3   8 -146.69  104.89
  -3   3   8    8.40    3.70
   3   3  -8    7.20    3.00
  -3   3   8    6.30    3.40
   3   3  -8   15.50   11.00
   2  -3  -8    9.70    4.00
   2  -3  -8   11.20    3.50
  -2  -3   8   14.70    2.10
  -2   3   8    7.20    2.80
   2   3  -8   16.30    4.10
  -2   3   8   17.80    3.90
  -2   3   8  -32.20  135.09
  -2   3   8    9.50    3.50
   2   3  -8    6.30    2.70
   1  -3  -8   22.90   91.39
   1  -3  -8  102.89    9.00
  -1  -3   8  117.39    6.70
   1  -3  -8   87.49   10.00
  -1   3   8  122.19    9.90
  -1   3   8   98.89   11.70
   1   3  -8  107.49    8.10
   0  -3  -8   36.30    5.30
   0  -3   8   29.00    3.50
   0   3   8   35.90    4.80
   0   3   8   33.60    4.10
   0   3  -8   42.50    6.40
  -1  -3  -8   56.39    5.00
  -1  -3  -8  -83.19   61.19
  -1  -3  -8   48.20    5.90
   1  -3   8   60.79    5.60
   1   3   8   52.49    4.40
  -1   3  -8   58.79    5.30
  -1   3  -8   59.99    7.00
   1   3   8   51.29    5.60
   2  -3   8  269.47   16.80
   2  -3   8  258.47   15.80
  -2  -3  -8  248.98   15.60
  -2  -3  -8  262.37   13.90
  -2  -3  -8  268.67   16.50
   2   3   8  254.47   15.40
  -2   3  -8  244.48   13.30
  -2   3  -8  260.57   17.10
   2   3   8  229.78   13.90
   2   3   8  269.57   16.10
  -3  -3  -8   49.50    6.40
  -3  -3  -8   41.30    5.80
  -3  -3  -8  -71.09   81.29
   3  -3   8   45.30    6.90
  -3  -3  -8   53.19    5.20
   3  -3   8   55.79    7.20
  -3   3  -8   37.40    5.00
  -3   3  -8   45.50    6.40
  -3   3  -8   38.50    7.00
   3   3   8   45.10    6.10
   3   3   8   49.10    6.70
  -4  -3  -8  -31.20   43.90
  -4  -3  -8   35.90    5.30
   4  -3   8   35.80    6.00
  -4  -3  -8   35.40    4.60
   4  -3   8   30.90    8.90
  -4  -3  -8   35.20    6.90
  -4   3  -8   27.30    4.60
   4   3   8   39.00    5.60
   4   3   8   30.80    4.90
   5  -3   8   10.70    3.50
  -5  -3  -8    8.00    2.50
  -5  -3  -8   12.20    3.10
   5   3   8   17.60    3.30
  -5   3  -8    6.00    5.20
   5   3   8    8.10    2.70
  -5  -4   8  120.19  184.78
   4  -4  -8   14.60    5.00
  -4  -4   8   21.30    3.30
   4   4  -8   20.80    4.00
   4   4  -8   19.30    3.80
  -3  -4   8   14.70    2.50
   3  -4  -8    9.30    4.30
   3  -4  -8    8.90    5.80
   3   4  -8   23.10    4.10
  -3   4   8    6.00    3.80
   3   4  -8   13.30    3.50
  -3   4   8    8.80    3.80
   3   4  -8   14.40   14.90
   2  -4  -8   41.50    8.00
  -2  -4   8   41.40    3.50
   2  -4  -8   26.20    5.90
   2   4  -8   31.60    5.10
  -2   4   8   34.40    5.80
   2   4  -8   46.10    6.30
   2   4  -8   35.90    7.80
  -2   4   8   40.30    5.10
  -2   4   8   29.90    6.30
   1  -4  -8  382.06   21.80
   1  -4  -8  385.96   24.40
  -1  -4   8  362.46   17.40
  -1   4   8  403.96   22.10
  -1   4   8  356.76   19.80
  -1   4   8  379.16   20.50
   1   4  -8  372.26   20.30
   1   4  -8  384.96   26.60
  -1   4   8  385.26   22.60
   1   4  -8  390.96   20.10
   0  -4  -8   69.59  112.19
   0  -4  -8  203.78   15.60
   0  -4  -8  234.98   14.00
   0  -4   8  213.18   12.10
   0   4   8  226.88   14.20
   0   4   8  229.88   13.80
   0   4  -8  228.78   13.60
   0   4   8  205.58   13.90
   0   4  -8  246.28   18.60
   0   4   8  238.78   14.50
  -1  -4  -8  261.87   17.30
  -1  -4  -8  244.88   16.70
   1  -4   8  254.57   15.10
  -1  -4  -8  274.47   14.80
   1   4   8  268.37   15.50
   1   4   8  253.07   14.90
   1   4   8  248.48   14.30
  -1   4  -8  249.68   18.10
  -1   4  -8  257.87   14.90
  -2  -4  -8   73.19    7.80
   2  -4   8   51.79    7.70
  -2  -4  -8  -78.19  113.69
   2  -4   8   75.09    7.60
  -2  -4  -8   61.79    5.90
  -2  -4  -8   59.79    7.20
   2   4   8   61.29    8.00
   2   4   8   58.49    6.30
  -2   4  -8   76.79    6.80
  -2   4  -8   60.09    8.20
  -3  -4  -8   17.60    4.90
  -3  -4  -8   24.00  102.39
   3  -4   8   11.80    4.20
   3  -4   8   13.40    4.20
  -3  -4  -8   20.70    3.60
  -3  -4  -8   27.80    4.60
  -3   4  -8   16.90    5.30
   3   4   8   20.50    3.90
  -3   4  -8   22.30    4.00
   3   4   8   17.50    4.40
   4  -4   8    4.90    3.10
  -4  -4  -8    8.70    2.90
  -4  -4  -8   10.10    2.80
   4  -4   8    5.20    8.00
   4   4   8    8.70    3.10
  -4   4  -8   10.80    3.00
   4   4   8   15.50    3.20
  -5  -4  -8   48.90  118.49
  -5  -4  -8    5.40    2.40
  -5   4  -8   10.80    2.50
   5   4   8    4.80    2.00
   5   4   8   23.70    5.00
   5  -5  -8    4.00    2.10
  -5  -5   8   -4.60   79.99
   5   5  -8    2.00    1.50
   5   5  -8    3.00    1.90
   4  -5  -8    8.20    3.40
  -4  -5   8    4.20    1.80
   4   5  -8    2.20    1.60
   4   5  -8   10.00    2.60
  -3  -5   8    4.90    2.00
   3  -5  -8    9.00    3.30
   3  -5  -8    4.50    6.00
   3   5  -8   16.80   17.30
   3   5  -8    5.40    2.30
  -2  -5   8   12.80    2.20
   2  -5  -8    6.20    4.00
   2  -5  -8    4.40    3.10
   2   5  -8   13.60    3.40
  -2   5   8   12.30    4.20
  -2   5   8    8.20    2.90
   2   5  -8   18.00    4.10
   2   5  -8   16.90    6.20
   1  -5  -8   62.59    9.10
   1  -5  -8  -35.40  112.79
  -1  -5   8   53.29    4.70
   1  -5  -8   50.59    7.20
   1   5  -8   63.79   14.10
  -1   5   8   48.50    6.10
   1   5  -8   72.89    7.10
   1   5  -8   62.79    6.40
  -1   5   8   52.39    7.30
  -1   5   8   55.99    8.90
   0  -5  -8   24.40    5.40
   0  -5  -8   16.60  139.69
   0  -5   8   31.00    3.80
   0  -5  -8   26.60    4.90
   0   5   8   26.40    5.10
   0   5  -8   17.20    5.50
   0   5   8   22.50    7.80
   0   5  -8   21.80    4.00
   0   5   8   15.50    4.60
  -1  -5  -8   -2.80    2.90
   1  -5   8    4.10    2.40
  -1  -5  -8    8.80    3.00
  -1  -5  -8   49.70  125.39
  -1   5  -8    0.30    1.60
  -1   5  -8    4.50    2.90
   1   5   8    0.20    3.70
   1   5   8    3.70    5.30
   2  -5   8   77.29    8.70
  -2  -5  -8   80.79    7.30
  -2  -5  -8   80.19    8.90
  -2  -5  -8   79.79   10.60
  -2  -5  -8 -136.59  113.29
   2  -5   8   78.69    8.20
   2   5   8   73.79    6.80
  -2   5  -8   73.39   10.50
   2   5   8   71.89   11.60
  -2   5  -8   74.89    7.40
   3  -5   8   17.40    5.50
   3  -5   8   11.80    4.10
  -3  -5  -8   32.60  146.59
  -3  -5  -8   23.20    5.30
  -3  -5  -8   23.70    3.50
   3   5   8   19.40    3.60
  -3   5  -8   19.40    4.10
   3   5   8   11.90    6.30
  -4  -5  -8  -81.89   60.49
   4  -5   8    7.70    7.80
   4  -5   8    9.40    3.30
   4   5   8    7.90    4.50
   5  -5   8    4.00    2.20
  -5  -5  -8    1.40    2.00
  -5  -5  -8    3.30   81.99
   5   5   8    3.00    3.00
  -5   5  -8    0.30    1.20
   4  -6  -8   11.70    3.50
   4   6  -8   12.50    2.70
   4   6  -8    6.00    2.00
   3  -6  -8   -1.60    2.20
   3  -6  -8   -1.70    6.50
   3   6  -8    4.60   18.10
   3   6  -8    3.80    2.60
   3   6  -8    1.70    1.70
   2  -6  -8   48.10    8.60
   2  -6  -8   43.40    8.30
   2   6  -8   66.39    6.00
  -2   6   8   57.19    6.40
   2   6  -8   49.90   12.70
   1  -6  -8  -82.79   80.89
   1  -6  -8  112.89   12.30
   1  -6  -8  108.19   11.10
  -1   6   8  108.09   12.30
   1   6  -8  110.49    8.60
   1   6  -8  115.99    9.90
  -1   6   8   91.99   11.40
   0  -6   8   14.70    3.30
   0  -6  -8   18.20    4.40
   0  -6  -8   10.70    5.00
   0   6   8   11.40    5.00
   0   6  -8   13.90    3.80
   0   6  -8    5.70    4.80
   0   6   8   19.60   10.70
  -1  -6  -8    7.60    4.10
  -1  -6  -8   39.40   84.19
   1  -6   8   15.00    3.80
  -1  -6  -8   15.30    3.60
   1   6   8   13.80    6.90
  -1   6  -8   16.50    3.60
  -1   6  -8   12.40    5.10
   1   6   8   15.10    7.40
  -2  -6  -8   10.20    4.50
  -2  -6  -8 -103.39  129.59
   2   6   8   17.90    5.90
   2   6   8   22.50    8.30
   3  -6   8   15.30    4.10
   3  -6   8    3.00    5.50
  -3  -6  -8    7.20    4.10
  -3  -6  -8   18.30    3.30
   3   6   8   11.60    6.90
   3   6   8   20.10    4.40
  -3   6  -8    9.00    3.10
   4  -6   8   -0.60    1.80
  -4  -6  -8   -3.10    1.50
  -4  -6  -8   -8.00   72.29
  -4  -6  -8    0.20    2.90
   4  -6   8    1.10    6.10
   4   6   8    1.00    3.30
  -4   6  -8    0.00    1.20
   4   6   8    2.40    4.70
   3  -7  -8   -1.30    1.70
   3   7  -8    3.60    2.00
   2  -7  -8   10.40    4.30
   2  -7  -8    6.80    5.70
  -2   7   8   15.70    5.90
   2   7  -8    3.10   15.20
   1  -7  -8    5.50    3.70
   1  -7  -8    9.90    4.20
  -1   7   8    9.30    7.10
   1   7  -8    8.40    5.70
   0  -7  -8   31.80    5.80
   0  -7   8   27.10    5.00
   0  -7  -8   56.89   95.29
   0  -7  -8   23.40    6.90
   0   7  -8   25.40    4.50
   0   7   8   28.50   11.20
  -1  -7  -8    8.90    3.90
   1  -7   8   10.40    2.90
  -1  -7  -8   70.49  151.08
  -1  -7  -8    7.90    3.30
   1   7   8   15.20    5.70
   1   7   8    9.80    9.80
  -1   7  -8   11.60    3.20
   2  -7   8   22.70    4.70
  -2  -7  -8   28.10    4.50
  -2  -7  -8  -26.70   60.09
  -2   7  -8   20.20    3.70
   2   7   8   32.00    7.60
   2   7   8   33.90    9.30
  -3  -7  -8    1.70    2.00
   3  -7   8    2.20    5.60
  -3  -7  -8  -16.20  125.89
  -3   7  -8    2.00    1.80
   3   7   8    4.20    7.30
   3   7   8   11.10    5.90
   2  -8  -8    4.60    2.30
   1  -8  -8   11.20    3.50
   1  -8  -8    8.80    4.60
   1   8  -8    7.90   11.90
  -1   8   8    8.70    8.90
   0  -8  -8    4.10    3.70
   0  -8  -8    8.50    3.90
   0   8  -8    8.00    6.50
   0   8   8   11.80   10.30
  -1  -8  -8   -6.00  110.79
  -1  -8  -8   12.00    4.00
  -1   8  -8   10.70    2.80
   1   8   8   16.40   10.40
  -2  -8  -8   -5.80   88.49
  -2   8  -8   12.80    2.90
   2   8   8   22.20    9.50
  -6   0   9   36.30   96.19
  -5   0   9   -0.60    1.60
   5   0  -9   -0.10    1.80
  -5   0   9  -14.70   72.29
  -4   0   9 -133.69  100.59
  -3   0   9    9.00    3.80
   3   0  -9   14.10    6.10
  -3   0   9  -57.29   96.69
  -2   0   9   14.20    3.60
  -2   0   9   13.40    2.70
  -1   0   9  520.95   23.80
   0   0  -9 1247.38   54.49
   0   0   9 1277.67   52.69
  -1   0  -9   39.70    4.70
   1   0   9   45.60    4.50
  -2   0  -9   15.50    3.20
  -2   0  -9   14.40    3.30
   2   0   9   15.60    3.30
  -2   0  -9   12.80    2.50
   2   0   9   16.70    4.10
  -3   0  -9    6.50    2.40
  -3   0  -9  -26.70   79.39
   3   0   9    6.40    3.60
  -4   0  -9   -3.80   86.09
  -4   0  -9   16.30    4.30
  -4   0  -9   12.50    3.30
   4   0   9   12.70    3.90
  -5   0  -9 -122.49   79.19
  -6   0  -9    1.50    1.60
  -6  -1   9   48.40   86.49
  -6   1   9  -94.59   60.99
  -5  -1   9    5.80    2.20
  -5  -1   9   28.40  127.59
  -5   1   9  -16.40  109.19
   5   1  -9    4.50    2.30
  -5   1   9    7.50    2.70
  -4  -1   9  158.48   14.80
  -4  -1   9  165.48   11.10
  -4  -1   9   94.49  162.88
   4  -1  -9  168.78   13.50
   4  -1  -9  162.28   11.00
  -4   1   9  172.28   15.00
   4   1  -9  162.78   11.60
  -4   1   9  175.38   11.20
  -3  -1   9   84.19    8.50
   3  -1  -9   71.99    9.30
  -3  -1   9   83.99    6.70
  -3  -1   9  115.69  141.39
  -3  -1   9   91.29    9.50
  -3   1   9  249.28  233.78
  -3   1   9   79.29    6.90
  -3   1   9   75.79    9.40
  -3   1   9   76.79    8.00
   3   1  -9   79.29    7.40
  -2  -1   9  106.09    8.70
  -2  -1   9   97.49    6.60
   2  -1  -9   76.59    9.70
  -2   1   9   89.09    8.80
  -2   1   9   36.50  128.99
  -2   1   9   81.29    8.30
  -2   1   9   82.99    6.60
   1  -1  -9   72.19    7.10
  -1  -1   9   78.29    5.60
  -1   1   9   74.79    7.30
  -1   1   9   74.59    5.80
   0  -1  -9 3172.88  128.09
   0   1   9 3236.58  127.39
   0   1  -9 3139.09  128.09
  -1  -1  -9  727.33   35.10
  -1  -1  -9  793.02   33.30
   1  -1   9  719.43   33.50
  -1   1  -9  772.32   34.30
   1   1   9  786.42   33.30
  -2  -1  -9  111.09    9.00
  -2  -1  -9   48.80  108.49
  -2  -1  -9  104.99    8.40
  -2  -1  -9  105.19    7.30
   2  -1   9  112.59    8.50
   2  -1   9  112.49    9.30
   2   1   9  102.79    7.70
   2   1   9  113.19    9.30
  -2   1  -9  101.79    8.60
  -2   1  -9  112.99    8.50
   3  -1   9   -0.30    1.50
  -3  -1  -9    2.60    1.40
  -3  -1  -9  -55.19   60.29
  -3  -1  -9    2.50    1.90
   3  -1   9    4.20    4.10
  -3  -1  -9    2.50    1.60
  -3   1  -9   -5.50  120.49
  -3   1  -9    2.20    1.80
   3   1   9    6.30    2.40
   3   1   9    5.50    2.90
  -3   1  -9    4.30    1.90
   3   1   9  106.99  167.28
  -4  -1  -9   47.00    6.00
  -4  -1  -9   44.60    6.70
  -4  -1  -9   47.50    5.50
  -4  -1  -9 -112.19   71.59
  -4   1  -9   60.59    7.50
   4   1   9   41.90    5.90
   4   1   9   39.70    5.40
  -5  -1  -9    5.80  124.49
   5  -1   9   58.59    7.10
  -5  -1  -9   57.39    6.50
   5   1   9   38.90    5.40
  -5   1  -9   48.70    5.70
   6  -1   9    6.30    2.20
  -6  -1  -9   13.20    3.00
  -6   1  -9    7.30    2.10
  -6  -2   9   47.30   94.79
   5  -2  -9    4.80    2.60
  -5  -2   9  -74.49  116.09
  -5  -2   9    3.90    1.70
  -5   2   9    9.00  121.69
   5   2  -9    2.10    1.80
   5   2  -9    5.20    2.00
   4  -2  -9   24.50    5.70
  -4  -2   9  169.38  165.38
  -4  -2   9   40.20    4.70
  -4   2   9   36.00    7.30
   4   2  -9   41.70    5.40
  -4   2   9   36.30    7.00
   4   2  -9   47.80    5.90
  -4   2   9   43.40  115.49
  -4   2   9   42.90    5.20
   3  -2  -9   14.10    4.30
  -3  -2   9    8.80    2.20
  -3  -2   9   76.09  207.38
  -3  -2   9   12.20    4.40
  -3  -2   9    8.00    3.90
   3   2  -9    8.80    3.30
  -3   2   9 -133.09   65.79
   3   2  -9    3.00    7.20
  -3   2   9    5.10    2.90
  -3   2   9    7.90    2.30
  -3   2   9   11.20    2.90
   2  -2  -9   81.69    8.80
  -2  -2   9   97.09    6.50
  -2  -2   9  108.19    8.70
   2  -2  -9   73.99    9.40
  -2   2   9   88.99    9.10
  -2   2   9   91.69    6.80
   2   2  -9   84.59    8.00
   2   2  -9  103.59    8.00
  -2   2   9   80.29    8.20
   1  -2  -9  271.47   15.90
  -1  -2   9  262.57   13.50
  -1   2   9  280.37   14.00
  -1   2   9  267.67   16.80
   0  -2  -9  324.87   18.40
   0  -2   9  298.67   15.40
   0  -2  -9  304.97   16.50
   0   2  -9  319.77   21.40
   0   2   9  314.57   15.40
  -1  -2  -9   17.10    3.60
   1  -2   9   17.60    3.20
  -1  -2  -9   22.10    3.10
   1   2   9   18.50    3.20
  -1   2  -9   16.50    2.70
  -1   2  -9   18.60    4.20
   2  -2   9    5.60    3.10
  -2  -2  -9  -82.79   79.79
   2  -2   9    6.50    2.40
   3  -2   9  116.79   11.00
   3  -2   9  112.39   11.00
  -3  -2  -9  128.89   10.80
  -3  -2  -9  126.69    8.70
  -3  -2  -9  117.89   10.00
   3   2   9  128.49   10.30
   3   2   9  120.09    9.00
  -3   2  -9  119.19    9.40
  -3   2  -9  117.59    8.80
  -3   2  -9  106.59   10.10
   4  -2   9   36.30    8.30
  -4  -2  -9 -129.39   93.49
  -4  -2  -9   23.40    4.10
  -4  -2  -9   24.80    5.60
   4   2   9   22.50    4.70
   4   2   9   25.70    4.30
  -4   2  -9   23.40    4.40
  -5  -2  -9   33.60    4.90
  -5  -2  -9  -57.49   72.59
  -5   2  -9   32.80    4.40
   6  -2   9    0.70    1.30
  -6  -2  -9    0.00    1.20
  -6   2  -9    3.70    1.60
  -5  -3   9  -88.49  106.99
   5  -3  -9    2.60    2.10
  -5  -3   9    2.30    1.60
   5   3  -9    3.20    1.80
   5   3  -9   -1.30    1.70
  -4  -3   9 -199.08   93.79
  -4   3   9  -65.59   93.99
   3  -3  -9   -6.60    4.30
   3  -3  -9   10.00    4.70
   3   3  -9   19.50   11.90
  -3   3   9  -55.59  151.08
   3   3  -9    7.80    2.90
  -3   3   9    7.30    3.60
  -3   3   9   10.00    4.40
   2  -3  -9  250.57   19.40
   2  -3  -9  228.48   16.20
  -2  -3   9  242.98   12.60
  -2   3   9  240.48   15.80
  -2   3   9   -4.70  133.09
   2   3  -9  257.77   15.40
   2   3  -9  230.48   14.60
  -2   3   9  261.87   17.80
  -2   3   9  232.38   13.80
   1  -3  -9  650.43   34.00
   1  -3  -9  665.03   31.30
  -1  -3   9  627.54   27.40
  -1   3   9  617.74   31.10
   1   3  -9  575.24   29.00
  -1   3   9  602.84   28.80
   1   3  -9  616.24   29.50
   0  -3   9  891.01   40.00
   0  -3  -9  893.41   44.30
   0  -3  -9  957.50   42.00
   0  -3  -9  942.91   44.20
   0   3   9  959.50   43.60
   0   3   9  965.60   41.60
   0   3  -9  963.20   47.30
   0   3   9  920.11   42.70
   0   3  -9  876.71   40.90
  -1  -3  -9  292.27   17.80
   1  -3   9  258.57   15.30
  -1  -3  -9  285.57   17.30
  -1  -3  -9  276.27   15.20
   1   3   9  289.97   15.80
   1   3   9  293.87   17.10
  -1   3  -9  273.07   18.40
  -1   3  -9  278.27   15.40
   2  -3   9   54.99    7.20
  -2  -3  -9   64.99    7.20
   2  -3   9   58.89    6.60
  -2  -3  -9   54.09    6.40
  -2  -3  -9   33.20  108.59
  -2  -3  -9   51.49    5.20
   2   3   9   43.40    5.60
  -2   3  -9   55.29    7.40
  -2   3  -9   53.19    4.90
  -2   3  -9   53.29    5.50
   2   3   9   51.79    5.80
   2   3   9   50.59    6.80
   3  -3   9   25.70    5.50
  -3  -3  -9   36.40    5.20
   3  -3   9   33.50    5.90
  -3  -3  -9   -7.20   91.79
  -3  -3  -9   31.60    4.30
  -3  -3  -9   29.60    6.10
  -3   3  -9   30.00    5.00
  -3   3  -9   27.10    6.80
   3   3   9   36.00    5.20
   3   3   9   25.80    4.40
  -4  -3  -9   32.70    4.60
  -4  -3  -9   27.50    5.00
   4  -3   9   44.20    6.90
  -4  -3  -9   53.19  173.98
   4  -3   9   26.20    8.30
   4   3   9   22.90    4.20
   4   3   9   33.50    4.70
  -5  -3  -9    8.80  111.89
   5  -3   9   53.69    6.70
  -5  -3  -9   37.50    5.40
  -5  -3  -9   40.30    4.70
  -5   3  -9   50.79    5.00
   5   3   9   40.80    4.50
  -5  -4   9 -130.89   86.29
   5  -4  -9    1.90    1.90
  -5  -4   9    0.20    1.30
   5   4  -9    0.70    1.80
   5   4  -9   -1.20    1.00
  -4  -4   9 -270.17  128.39
   3  -4  -9    7.00    6.80
   3  -4  -9   10.50    5.20
  -3  -4   9    8.40    2.10
  -3   4   9    6.60    4.30
   3   4  -9    3.60   14.30
  -3   4   9   11.00    5.00
   3   4  -9   16.80    3.50
  -2  -4   9   -0.70    1.10
   2  -4  -9    3.60    3.80
   2  -4  -9   -1.50    2.70
  -2   4   9    4.00    3.00
  -2   4   9   -1.70    1.50
   2   4  -9    3.40    2.10
  -2   4   9    1.90    2.80
   2   4  -9    0.50    2.70
  -2   4   9    0.70    2.40
   1  -4  -9 -105.69   51.89
   1  -4  -9   15.30    4.20
  -1   4   9   21.70    5.10
   1   4  -9   19.10    4.10
   1   4  -9   18.30    3.70
  -1   4   9   17.20    4.20
   0  -4   9   11.90    2.60
   0  -4  -9   14.30    3.50
   0  -4  -9  -86.59   96.79
   0  -4  -9   11.20    4.40
   0   4  -9   15.10    5.10
   0   4  -9   -0.10    5.70
   0   4   9   10.20    3.70
   0   4   9   15.90    4.40
   0   4  -9   19.10    4.20
  -1  -4  -9  149.19   10.00
  -1  -4  -9  146.69   11.70
  -1  -4  -9  156.48   12.50
   1  -4   9  135.49    9.90
   1   4   9  142.49   10.40
   1   4   9  142.49   10.70
  -1   4  -9  124.19    9.80
   1   4   9  126.69   10.00
  -1   4  -9  124.79   12.40
   2  -4   9  187.58   14.20
  -2  -4  -9  220.58   15.90
  -2  -4  -9  213.68   12.80
   2  -4   9  205.58   14.10
  -2  -4  -9  211.98   14.60
   2   4   9  222.68   12.40
  -2   4  -9  177.58   12.60
   2   4   9  191.08   12.60
  -2   4  -9  164.98   14.90
   2   4   9  225.38   14.30
  -3  -4  -9   34.30    7.30
   3  -4   9   33.90    5.70
  -3  -4  -9   22.40    4.80
  -3  -4  -9   22.10    4.00
   3  -4   9   25.00    6.00
  -3  -4  -9  107.99  142.19
   3   4   9   28.70    4.70
   3   4   9   26.10    4.20
  -3   4  -9   24.10    6.40
  -3   4  -9   14.80    3.50
  -4  -4  -9   18.20    3.70
   4  -4   9   16.30    8.30
  -4  -4  -9  -79.49   97.69
   4  -4   9   25.70    5.20
  -4  -4  -9   27.30    4.80
  -4   4  -9   20.30    3.90
   4   4   9   24.40    3.90
   4   4   9   21.70    3.90
  -5  -4  -9    3.80    2.10
   5  -4   9   10.00    2.50
  -5  -4  -9    7.70    2.20
  -5  -4  -9   13.70   76.09
   5   4   9    5.80    1.90
  -5   4  -9    8.20    2.10
   4  -5  -9    9.50    4.00
  -4  -5   9   16.70    3.00
   4   5  -9   21.00    3.30
   4   5  -9   27.10    4.00
  -3  -5   9  118.29    7.60
   3  -5  -9  119.99   15.00
   3  -5  -9  135.69   13.60
   3   5  -9  100.19    8.80
   3   5  -9  126.39    9.90
   3   5  -9  122.59   21.80
   2  -5  -9  344.07   23.60
  -2  -5   9  385.86   17.80
   2  -5  -9  405.16   27.40
   2   5  -9  403.46   21.30
   2   5  -9  432.66   24.40
  -2   5   9  381.96   20.30
  -2   5   9  356.56   22.00
  -2   5   9  359.26   24.80
   1  -5  -9  160.18   13.00
   1  -5  -9   -6.60   64.29
   1  -5  -9  124.19   14.00
  -1  -5   9  136.59    8.50
   1   5  -9  139.79   11.00
  -1   5   9  150.28   10.90
   1   5  -9  138.69   10.10
  -1   5   9  128.69   11.10
  -1   5   9  140.79   12.80
   0  -5  -9   21.90    4.60
   0  -5  -9   16.30    4.70
   0  -5   9   28.50    4.00
   0  -5  -9   64.59  172.98
   0   5   9   30.50    6.40
   0   5   9   21.20    6.50
   0   5  -9   23.20    6.90
   0   5  -9   21.90    4.00
   0   5   9   16.20    4.20
   0   5   9   24.10    5.00
  -1  -5  -9  -29.60  128.39
  -1  -5  -9   63.69    9.60
  -1  -5  -9   67.69    8.90
   1  -5   9   61.89    6.60
   1   5   9   77.69    8.90
   1   5   9   71.09   10.20
  -1   5  -9   57.19    9.20
  -1   5  -9   68.29    7.00
   2  -5   9   51.29    7.50
  -2  -5  -9   55.09    7.50
   2  -5   9   51.79    6.80
  -2  -5  -9   50.29    5.70
  -2  -5  -9   48.90    9.60
  -2  -5  -9  -47.50   52.99
   2   5   9   42.70    7.90
  -2   5  -9   46.30    5.90
  -2   5  -9   37.70    7.70
   2   5   9   52.19    7.10
   3  -5   9   25.60    6.80
  -3  -5  -9   84.29  181.48
  -3  -5  -9   28.60    5.70
   3  -5   9   31.20    5.40
  -3  -5  -9   33.70    4.70
   3   5   9   29.80    6.30
   3   5   9   27.00    5.00
  -3   5  -9   24.40    4.30
   4  -5   9    7.00    7.20
  -4  -5  -9   11.10    3.00
   4  -5   9    7.90    2.60
  -4  -5  -9   13.50    3.60
  -4  -5  -9  146.59  160.38
   4   5   9   11.90    4.20
   4   5   9   19.20    3.70
  -4   5  -9   14.90    3.20
   4  -6  -9    1.10    2.20
   4   6  -9   -1.90    1.10
   3  -6  -9   53.29    8.30
   3   6  -9   63.39    6.10
   3   6  -9   55.79   19.30
   2  -6  -9    0.70    3.10
   2  -6  -9    7.40    5.00
   2   6  -9   -3.50   10.30
   2   6  -9    4.20    2.10
  -2   6   9    4.00    2.10
   1  -6  -9 -108.39  119.39
   0  -6  -9   11.80    4.90
   0  -6  -9  -74.69   70.89
   0   6   9    6.10    7.30
   0   6  -9    9.70    5.90
   0   6  -9    7.50    3.20
  -1  -6  -9   25.20    4.70
  -1  -6  -9   18.30    4.90
   1  -6   9   20.30    4.50
  -1  -6  -9   11.00  140.99
   1   6   9   21.10    8.10
  -1   6  -9   17.30    3.90
   1   6   9   20.00    6.40
   2  -6   9   39.00    5.80
  -2  -6  -9    2.70   92.09
  -2  -6  -9   32.70    6.10
   2   6   9   35.50    7.90
  -2   6  -9   33.70    4.90
   2   6   9   31.50    7.70
  -3  -6  -9  -68.39   63.79
   3  -6   9    4.10    6.20
  -3  -6  -9    1.20    3.40
  -3  -6  -9   -0.10    1.50
   3  -6   9    2.80    2.60
   3   6   9    3.30    4.80
   3   6   9   -0.90    5.00
   4  -6   9    4.70    2.00
  -4  -6  -9  -21.20   68.79
  -4  -6  -9    1.00    3.10
   4   6   9    0.40    3.70
  -4   6  -9    1.30    1.50
   4   6   9    5.70    4.10
   3  -7  -9    5.20    3.20
   3   7  -9   11.10    2.80
   2  -7  -9   55.89   10.60
   2  -7  -9   88.39    9.50
   2   7  -9   77.49   17.00
  -2   7   9   81.59   10.10
   2   7  -9   86.99    6.50
   1  -7  -9   -0.10    3.30
   1  -7  -9    5.70    3.40
  -1   7   9   -0.50    5.30
   1   7  -9    5.00    5.50
   0  -7  -9   19.50   87.89
   0  -7  -9    9.70    3.80
   0  -7   9   15.30    3.10
   0  -7  -9   10.60    4.60
   0   7  -9   15.30    3.70
   0   7   9    8.30    7.70
   1  -7   9    9.90    3.30
  -1  -7  -9   74.29  168.38
  -1  -7  -9    5.70    4.80
  -1  -7  -9   16.20    3.40
  -1   7  -9   15.60    3.60
   1   7   9   10.80    9.40
  -2  -7  -9    6.60    2.80
   2  -7   9    6.80    4.10
  -2  -7  -9   10.30  123.99
   2   7   9   11.20    8.70
   2   7   9    6.90    5.10
  -3  -7  -9   33.80  116.99
   3   7   9    4.40    4.30
   3   7   9   10.80    7.30
   1  -8  -9    5.70    3.10
  -1   8   9   15.60    8.20
   1   8  -9    7.60   11.60
   0  -8  -9    2.80    3.60
   0  -8  -9   10.70    3.80
   0   8  -9    5.60    6.40
   0   8   9   10.90    8.30
  -1  -8  -9   56.99  140.39
  -6   0  10  -89.49   48.80
   5   0 -10  158.58   10.20
  -5   0  10  171.78   10.50
  -5   0  10   23.00  106.59
   4   0 -10    5.70    2.60
  -4   0  10   36.70   77.49
  -4   0  10    8.70    2.60
  -4   0  10    7.30    4.40
  -3   0  10   -4.80  111.09
  -3   0  10   -3.40    1.70
  -3   0  10    3.00    2.10
  -3   0  10   -1.80    1.10
   3   0 -10    1.60    1.90
  -2   0  10   54.79  168.68
  -2   0  10   99.79    9.40
  -2   0  10  107.29    9.70
  -2   0  10  108.59    7.70
  -1   0  10   88.29    6.60
   0   0  10  569.44   24.70
   0   0 -10  492.05   26.10
   1   0  10    0.10    1.40
  -1   0 -10   -1.50    1.00
  -2   0 -10   12.20    2.80
  -2   0 -10   10.10    2.80
  -2   0 -10  -15.50   86.89
   2   0  10    4.10    2.50
   2   0  10    9.40    3.10
   3   0  10  446.56   23.50
  -3   0 -10  460.55   25.60
  -3   0 -10  466.55   24.60
   3   0  10  487.35   26.30
  -4   0 -10  153.08   11.90
  -4   0 -10   36.70  115.89
   4   0  10   73.49  193.48
  -4   0 -10  165.48   13.90
   4   0  10  165.38   12.90
  -5   0 -10    0.50    1.40
   5   0  10   -1.50    1.80
  -6   0 -10   12.60    2.40
  -6  -1  10 -132.79   61.29
   6  -1 -10    0.20    1.50
   6   1 -10    4.50    1.60
  -5  -1  10   29.30    4.00
  -5  -1  10  -70.49   60.39
   5   1 -10   32.00    4.20
  -5   1  10   26.50    4.50
   5   1 -10   30.20    4.60
  -5   1  10  114.69  129.49
   4  -1 -10   33.30    4.70
  -4  -1  10   98.59  135.49
  -4  -1  10   22.60    3.80
  -4  -1  10   20.10    5.50
   4  -1 -10   29.50    5.90
  -4   1  10  -19.20  115.19
  -4   1  10   29.80    4.30
  -4   1  10   28.50    6.70
   4   1 -10   29.10    4.60
   3  -1 -10  106.89   11.00
  -3  -1  10   77.39  157.28
  -3  -1  10  119.99   10.40
  -3  -1  10  102.59   11.30
  -3  -1  10  119.09    8.60
  -3   1  10  107.29    8.60
  -3   1  10  120.29   10.70
   3   1 -10  123.89    9.60
  -3   1  10  124.99   12.00
  -3   1  10  -11.40  131.59
  -2  -1  10  131.79   11.20
  -2  -1  10  135.69    9.00
   2  -1 -10  149.88   13.00
  -2  -1  10  134.49   11.10
  -2  -1  10 -114.89  136.19
  -2   1  10  134.69   11.10
  -2   1  10  156.98   12.40
  -2   1  10  157.08    9.70
  -2   1  10  -17.90  156.28
  -1  -1  10 1164.18   49.40
  -1   1  10 1229.68   49.99
  -1   1  10 1228.48   53.29
  -1   1  10 1059.69   54.69
   0  -1 -10  249.78   15.70
   0  -1  10  241.68   13.20
   0  -1 -10  261.47   14.20
   0   1  10  244.78   13.30
   1  -1  10  479.15   24.30
  -1  -1 -10  537.55   26.60
  -1  -1 -10  503.35   26.00
   1   1  10  531.15   24.30
   1   1  10  521.25   26.70
  -1   1 -10  528.15   25.40
   2  -1  10  167.18   11.70
  -2  -1 -10  171.88   12.10
  -2  -1 -10  174.58   12.70
   2  -1  10  175.18   12.90
  -2  -1 -10   40.00   87.89
  -2  -1 -10  187.98   10.80
  -2   1 -10  185.88   12.00
   2   1  10  172.58   12.20
   2   1  10  176.38   11.20
   2   1  10  186.78   11.40
  -2   1 -10  184.78   12.30
  -3  -1 -10  197.08   11.80
  -3  -1 -10   15.60   91.89
   3  -1  10  165.68   13.70
   3  -1  10  189.38   14.10
  -3  -1 -10  191.98   13.20
  -3  -1 -10  184.98   14.00
   3   1  10  181.88   13.60
  -3   1 -10  209.08   14.10
  -3   1 -10  204.48   13.10
   3   1  10  201.08   12.30
   3   1  10  -42.40  200.98
  -4  -1 -10  496.45   28.30
  -4  -1 -10  520.15   24.80
  -4  -1 -10  519.75   27.10
   4  -1  10  465.95   27.40
   4   1  10  466.95   23.80
   4   1  10  485.25   26.20
  -4   1 -10  510.55   26.30
  -4   1 -10  483.35   27.50
  -5  -1 -10   48.90    5.80
   5  -1  10   40.50    5.60
  -5  -1 -10  125.59  133.99
   5   1  10   23.70    4.40
  -5   1 -10   33.80    4.70
  -5  -2  10  -92.79  123.99
  -5  -2  10   40.70    4.60
   5   2 -10   40.60    4.90
  -5   2  10   23.90  116.79
   5   2 -10   35.60    4.70
   4  -2 -10   20.30    4.00
  -4  -2  10   31.40    4.20
  -4  -2  10   -2.90  115.99
   4  -2 -10   19.00    5.20
  -4   2  10   14.80    7.20
   4   2 -10   26.30    4.30
  -4   2  10   78.89  121.29
  -4   2  10   18.00    3.70
   4   2 -10   31.00    5.00
  -3  -2  10  -33.70  147.69
  -3  -2  10   44.50    7.20
   3  -2 -10   31.00    7.00
  -3  -2  10   40.90    4.60
  -3   2  10   31.90    6.60
  -3   2  10   35.40    5.80
  -3   2  10   30.80    4.40
  -3   2  10   54.89   93.69
   3   2 -10   32.30    8.40
   3   2 -10   44.50    5.40
   3   2 -10   31.40    6.80
  -2  -2  10   30.20    3.60
   2  -2 -10   22.70    6.40
  -2  -2  10   33.30    5.40
   2  -2 -10   27.20    6.20
  -2   2  10   26.70    3.80
   2   2 -10   21.10    4.20
   2   2 -10   26.20    4.90
  -2   2  10  -13.80   93.79
  -2   2  10   25.90    5.30
  -2   2  10   25.40    5.30
   1  -2 -10   53.79    6.60
  -1  -2  10   35.70    3.90
   1  -2 -10   50.29    7.40
   1  -2 -10   82.39  138.79
  -1   2  10   34.80    5.80
  -1   2  10   51.39    6.60
  -1   2  10   43.50    4.70
  -1   2  10  107.79  149.99
   0  -2 -10  104.89    9.50
   0  -2  10  105.79    7.40
   0  -2 -10  103.29   10.10
   0  -2 -10   41.50   77.59
   0  -2 -10  112.69    8.50
   0   2  10   99.09    9.00
   0   2  10  -32.90  115.09
   0   2  10  105.39    7.40
   1  -2  10    5.70    2.00
  -1  -2 -10    6.90    1.90
  -1  -2 -10    4.60    2.60
  -1  -2 -10    2.80    2.10
   1   2  10    3.30    2.20
   1   2  10   69.39  111.39
   1   2  10    7.40    3.20
  -1   2 -10    2.70    2.10
  -1   2 -10   12.00    2.40
  -1   2 -10    4.80    3.60
   1   2  10    2.10    2.10
   2  -2  10  116.79    9.30
  -2  -2 -10  119.69    8.50
   2  -2  10  122.89   10.60
  -2  -2 -10  112.39    9.50
  -2  -2 -10  114.89   10.20
  -2  -2 -10    6.10   78.59
   2   2  10  116.49   10.10
  -2   2 -10  123.59    9.10
  -2   2 -10  117.49    9.30
  -2   2 -10  116.49   10.90
   2   2  10  113.99    8.80
  -3  -2 -10  513.35   24.90
  -3  -2 -10  488.65   26.80
  -3  -2 -10  468.75   27.70
   3  -2  10  513.15   26.80
   3  -2  10  533.15   28.50
   3   2  10  476.35   25.00
  -3   2 -10  513.25   25.20
   3   2  10  488.55   26.80
  -3   2 -10  515.35   26.40
   4  -2  10  149.99   12.50
  -4  -2 -10  134.19   11.20
  -4  -2 -10   68.29  155.88
  -4  -2 -10  117.49    9.50
   4  -2  10  142.09   13.60
   4   2  10  123.89    9.80
   4   2  10  121.49    9.30
  -4   2 -10  141.39   10.10
  -5  -2 -10   32.10    6.90
  -5  -2 -10  -13.50   77.79
   5  -3 -10   23.00    4.40
  -5  -3  10   28.30  130.59
  -5  -3  10   27.80    3.40
   5   3 -10   32.00    4.10
   5   3 -10   37.50    4.60
   4  -3 -10   18.00    5.30
  -4  -3  10   17.30    3.00
  -4  -3  10  110.29  101.99
  -4   3  10  -46.00  134.29
   4   3 -10   10.40    3.00
   4   3 -10   19.50    3.50
  -3  -3  10   44.40    4.50
  -3  -3  10  -13.70  160.28
   3  -3 -10   58.69    8.80
  -3   3  10  -73.89  110.99
   3   3 -10   46.70    6.20
   3   3 -10   35.90   13.30
  -3   3  10   28.30    6.90
  -3   3  10   34.50    7.50
   3   3 -10   53.39    6.70
  -2   3  10  129.79  161.88
   1  -3 -10  199.18   13.70
  -1  -3  10  177.88   10.70
   1  -3 -10  194.28   15.90
   1   3 -10  195.88   12.10
  -1   3  10  194.78   11.80
  -1   3  10   89.79  114.99
   1   3 -10  181.78   12.50
  -1   3  10  208.98   14.20
  -1   3  10  213.78   15.30
   0  -3 -10  356.86   21.60
   0  -3 -10  326.97   18.90
   0  -3  10  329.37   17.20
   0  -3 -10  350.66   21.50
   0   3  10  364.66   20.10
   0   3 -10  342.27   18.20
   0   3  10  377.46   21.10
   0   3 -10  311.87   23.80
   0   3 -10  328.27   18.30
  -1  -3 -10   33.40    5.50
  -1  -3 -10  138.99  125.59
  -1  -3 -10   42.20    4.90
   1  -3  10   47.80    6.70
   1  -3  10   52.39    5.50
  -1  -3 -10   46.40    6.60
  -1   3 -10   51.49    5.20
   1   3  10   35.60    5.10
  -1   3 -10   48.00    7.40
   1   3  10   39.10    6.00
  -2  -3 -10   13.50  114.99
   2  -3  10   36.20    5.30
   2  -3  10   36.30    6.00
  -2  -3 -10   30.20    5.60
  -2  -3 -10   34.80    5.80
  -2  -3 -10   33.70    4.30
   2   3  10   31.90    4.50
  -2   3 -10   47.10    7.20
  -2   3 -10   33.60    4.40
  -2   3 -10   41.20    4.80
   2   3  10   34.00    5.80
  -3  -3 -10   11.00    2.90
   3  -3  10    4.30    2.90
  -3  -3 -10   11.80    3.10
  -3  -3 -10    4.90    3.00
   3  -3  10   -0.70    4.40
  -3   3 -10    2.00    2.90
  -3   3 -10    0.30    4.80
   3   3  10   11.40    4.00
   4  -3  10  107.09   10.70
  -4  -3 -10  117.09    8.60
  -4  -3 -10   95.19    9.40
   4  -3  10  108.19   13.70
  -4  -3 -10  -50.59   97.69
   4   3  10  109.09    8.60
  -5  -3 -10   65.69    6.80
   5  -3  10   65.49    7.20
  -5   3 -10   67.89    6.00
  -5  -4  10  -22.50  118.39
   5  -4 -10    4.80    2.20
  -4  -4  10  205.08  196.38
   4  -4 -10   29.80    6.00
  -4  -4  10   20.20    3.10
   4   4 -10   21.20    4.40
   4   4 -10   22.80    3.70
  -3  -4  10  189.78   10.90
   3  -4 -10  190.68   17.20
  -3   4  10  179.88   15.60
   3   4 -10  185.68   25.00
  -3   4  10  170.88   16.80
   3   4 -10  196.28   13.20
   2  -4 -10  114.99   13.30
  -2  -4  10  120.09    7.70
   2  -4 -10  110.99   12.00
   2   4 -10  119.59    9.60
  -2   4  10  111.99   12.30
  -2   4  10  122.09    9.10
  -2   4  10  117.49   11.60
  -2   4  10  117.39    9.80
   2   4 -10  131.99   10.80
   1  -4 -10  -41.30   85.39
  -1  -4  10   21.10    3.30
   1  -4 -10   27.10    5.20
   1  -4 -10   32.40    6.50
  -1   4  10   25.70    4.70
  -1   4  10   24.90    5.60
   1   4 -10   27.90    5.30
  -1   4  10   39.80    5.20
  -1   4  10   29.30    5.90
   1   4 -10   25.00    4.20
   0  -4 -10   14.30    3.50
   0  -4 -10   14.30    4.70
   0  -4  10   15.30    3.30
   0  -4 -10  155.68  144.39
   0   4  10   17.90    3.60
   0   4  10   17.30    4.70
   0   4  10   14.30    3.90
   0   4  10   15.60    4.10
   0   4  10   20.00    4.40
   0   4 -10   23.20    4.50
   0   4 -10   12.30    6.00
   0   4 -10   18.20    4.00
  -1  -4 -10  156.88   12.70
  -1  -4 -10  147.19   13.00
  -1  -4 -10  -15.60   74.39
   1  -4  10  127.89    9.80
   1   4  10  153.88   10.90
  -1   4 -10  131.09   10.20
   1   4  10  146.59   10.90
   1   4  10  149.39   11.60
   1   4  10  147.89   10.60
  -1   4 -10  111.19   12.80
  -2  -4 -10  272.47   18.50
   2  -4  10  303.77   17.60
  -2  -4 -10  279.07   19.80
   2  -4  10  270.47   17.90
  -2  -4 -10  278.37   16.20
   2   4  10  270.87   15.30
   2   4  10  276.57   16.50
  -2   4 -10  278.47   16.20
   2   4  10  240.88   16.00
  -2   4 -10  268.87   20.10
  -3  -4 -10   44.80    5.30
   3  -4  10   31.70    5.90
  -3  -4 -10   35.90    5.70
  -3  -4 -10   31.50    8.10
  -3  -4 -10  -33.10   27.00
   3  -4  10   36.40    7.80
   3   4  10   33.70    4.90
   3   4  10   47.60    6.40
  -3   4 -10   40.20    5.00
  -4  -4 -10   34.00    4.90
  -4  -4 -10  -48.90   67.89
   4  -4  10   37.20    8.60
   4  -4  10   39.80    6.20
  -4  -4 -10   38.60    5.50
  -4   4 -10   37.20    5.00
   4   4  10   38.80    5.10
  -5  -4 -10  -54.39   52.39
  -4  -5  10   16.70    2.90
   4  -5 -10   25.30    5.40
   4   5 -10   23.60    3.60
  -3  -5  10   79.99    5.80
   3  -5 -10   56.59   10.80
   3  -5 -10   64.69    9.40
   3   5 -10   51.29   19.00
   3   5 -10   75.49    7.30
   2  -5 -10   52.59    9.00
   2  -5 -10   30.00    7.00
  -2  -5  10   31.20    4.00
   2   5 -10   32.30    7.90
  -2   5  10   52.69    8.30
  -2   5  10   43.90    5.60
  -2   5  10   33.20    7.20
   2   5 -10   38.50    5.30
   1  -5 -10   49.20    7.70
   1  -5 -10   31.80    6.60
   1  -5 -10    0.70   53.69
  -1  -5  10   38.60    4.10
  -1   5  10   40.00    5.30
   1   5 -10   33.80    4.90
  -1   5  10   38.80    7.00
  -1   5  10   34.90    7.40
   1   5 -10   34.40    5.40
   0  -5 -10   31.10    5.80
   0  -5  10   34.00    4.40
   0  -5 -10   22.20    5.90
   0   5  10   18.20    5.00
   0   5  10   30.60    7.00
   0   5 -10   34.30    4.80
   0   5 -10   45.30   11.40
   1  -5  10   64.99    6.60
  -1  -5 -10   58.29    8.00
  -1  -5 -10   52.09    6.70
  -1  -5 -10  -21.90   81.99
  -1   5 -10   62.79   10.30
  -1   5 -10   66.69    6.60
   1   5  10   55.19    8.40
   1   5  10   54.79    7.30
  -2  -5 -10   62.69    6.70
  -2  -5 -10   74.69   13.80
   2  -5  10   54.19    7.00
  -2  -5 -10   10.20   65.59
  -2  -5 -10   50.29    7.40
   2  -5  10   62.89    7.20
   2   5  10   63.39    7.70
  -2   5 -10   57.29    6.40
  -2   5 -10   44.20    9.40
   2   5  10   51.89    7.50
   3  -5  10    4.00    2.90
  -3  -5 -10    7.60    3.20
   3  -5  10    9.10    6.40
  -3  -5 -10   -0.90  141.39
   3   5  10    1.20    2.40
   3   5  10    7.50    3.80
  -3   5 -10   11.80    2.90
  -4  -5 -10  -29.90   61.49
   4  -5  10    1.50    2.00
   4  -5  10   -3.20    5.80
  -4  -5 -10   -2.90    1.40
  -4  -5 -10   -1.50    1.60
   4   5  10    0.70    2.60
  -4   5 -10    0.20    1.20
   4  -6 -10    7.30    2.70
   4   6 -10    7.40    2.00
   3  -6 -10  111.99   11.50
   3   6 -10  115.59    8.40
   2  -6 -10    4.40    5.30
   2  -6 -10    8.30    4.30
  -2   6  10    3.60    2.30
   2   6 -10   -2.40   10.50
   2   6 -10    0.20    1.90
   1  -6 -10   -1.60    2.70
  -1  -6  10    0.80    2.00
  -1   6  10    2.00    2.10
   1   6 -10    2.20    1.70
   1   6 -10   -0.10    2.80
   0  -6 -10   12.30    4.50
   0  -6 -10   26.20    5.80
   0  -6  10   22.70    4.30
   0   6 -10   24.50    5.50
   0   6  10   16.00    4.90
  -1  -6 -10   -0.30    2.10
   1  -6  10    7.90    3.00
  -1  -6 -10    3.90    3.00
  -1  -6 -10  -13.00   57.79
  -1   6 -10    5.30    2.60
   1   6  10    2.70    3.60
   1   6  10   -0.10    6.10
  -2  -6 -10   19.90    4.80
  -2  -6 -10  -14.50   82.19
  -2  -6 -10   18.90    4.00
   2  -6  10   19.60    4.90
   2   6  10   26.90    6.70
   2   6  10   25.10    6.10
  -2   6 -10   19.80    3.70
   3  -6  10    3.70    2.40
  -3  -6 -10  -11.60   89.49
  -3  -6 -10    4.60    2.80
   3  -6  10    6.00    6.40
  -3   6 -10    4.80    2.10
   3   6  10   10.40    5.40
   3   6  10    1.80    4.10
  -4  -6 -10   13.20    3.00
   4  -6  10    7.70    2.50
   4   6  10    7.20    3.00
  -4   6 -10   10.10    2.00
   3  -7 -10    2.90    1.70
   3   7 -10   -2.70    1.80
   2  -7 -10   10.40    6.20
   2  -7 -10   24.70    5.40
   2   7 -10   20.80    3.70
   2   7 -10   25.70   14.00
   1  -7 -10   -0.20    3.60
  -1   7  10   11.00    3.70
   1   7 -10    7.00    6.50
   0  -7 -10 -118.29   76.29
   0  -7 -10    7.10    3.90
   0  -7 -10    6.40    3.80
   0   7  10    5.70    5.50
   1  -7  10    8.80    3.00
  -1  -7 -10  -11.80   84.89
  -1  -7 -10   14.00    4.10
  -1  -7 -10    9.40    3.80
   1   7  10   13.60    7.50
  -1   7 -10   15.10    3.60
  -2  -7 -10   78.99  122.59
  -3  -7 -10   19.70   76.19
   3   7  10   -3.80    5.30
  -3   7 -10    4.30    1.50
   1  -8 -10   10.00    3.20
  -1   8  10   10.80    6.90
   1   8 -10    1.90   10.20
   0  -8 -10    7.10    3.50
   0   8 -10    0.70    6.00
   0   8  10    1.80    6.90
   1   8  10    8.50    6.90
  -1   8 -10    3.00    2.60
  -5   0  11  -63.49   57.29
  -4   0  11  -61.79   81.59
  -3   0  11 -132.79   95.79
   2   0 -11   65.89    9.70
  -2   0  11   78.59    8.60
  -2   0  11   82.29  179.58
  -2   0  11   76.59    8.10
  -2   0  11   74.19    6.60
  -1   0  11   68.59  163.28
   0   0 -11   22.90    4.00
   0   0  11   24.30    3.70
   0   0  11   20.80    4.30
   1   0  11   47.40    5.30
  -1   0 -11   43.90    5.70
   1   0  11   39.90    5.10
  -1   0 -11   38.70    6.00
  -2   0 -11  176.38   12.10
  -2   0 -11 -109.69   99.59
  -2   0 -11  187.18   13.00
   2   0  11  160.18   11.60
   2   0  11  182.68   13.20
  -3   0 -11  894.51   40.90
  -3   0 -11  852.71   42.50
   3   0  11  888.51   42.70
   3   0  11  826.72   39.00
  -4   0 -11   64.09  145.49
   4   0  11  233.18  147.19
  -5   0 -11    4.40    2.10
   5   0  11    2.60    1.90
  -5  -1  11    5.20    2.00
   5   1 -11    6.40    2.50
  -5   1  11  -54.19   59.69
   5   1 -11    4.20    2.20
  -5   1  11    1.40    2.80
  -4  -1  11  115.99  156.38
   4  -1 -11   50.29    5.40
  -4  -1  11   59.19    6.10
  -4   1  11   50.09    5.50
   4   1 -11   57.09    6.60
  -4   1  11   89.79  160.88
   3  -1 -11  116.39   11.10
  -3  -1  11   41.30  151.18
  -3  -1  11   98.39    8.20
  -3  -1  11   92.69    9.80
  -3  -1  11  108.99   11.10
  -3   1  11  120.39   12.20
  -3   1  11  -20.90  101.59
  -3   1  11  127.99   11.00
   3   1 -11   92.69    8.90
  -3   1  11  117.29    8.90
  -2  -1  11   17.90    4.40
  -2  -1  11   19.80    3.20
  -2  -1  11   82.39  153.68
   2  -1 -11   17.10    5.60
  -2  -1  11   18.50    4.40
  -2   1  11   18.40    4.60
  -2   1  11   15.50    4.20
  -2   1  11   18.10    3.50
  -2   1  11  -59.49   69.59
  -1  -1  11   38.20  162.38
  -1  -1  11  397.26   19.40
   1  -1 -11  382.16   23.20
  -1  -1  11  373.56   21.50
  -1   1  11  379.06   19.40
  -1   1  11  390.26   22.50
  -1   1  11  400.46   22.20
   0  -1 -11   14.00    4.50
   0  -1  11   15.90    3.10
   0  -1 -11   23.30    4.20
   0  -1 -11   13.20    4.20
   0   1  11   24.10    3.70
   0   1  11   17.90    4.10
   0   1  11  -33.30  106.89
  -1  -1 -11  448.16   24.00
  -1  -1 -11  427.06   21.60
   1  -1  11  442.16   21.80
  -1  -1 -11  408.86   23.40
   1  -1  11  444.56   23.80
   1   1  11  427.06   21.30
  -1   1 -11  455.55   23.10
   1   1  11  435.56   24.20
  -1   1 -11  433.26   21.10
  -2  -1 -11  151.28    9.90
  -2  -1 -11   44.50  113.69
  -2  -1 -11  157.38   11.50
   2  -1  11  151.98   11.20
  -2  -1 -11  152.38   12.20
   2  -1  11  146.09   11.90
  -2   1 -11  146.69   11.00
   2   1  11  166.68   11.90
  -2   1 -11  146.89   11.10
   2   1  11  147.29   10.30
   2   1  11  -85.29  150.78
   2   1  11  156.78   10.60
   3  -1  11  792.82   37.10
  -3  -1 -11  785.52   39.60
  -3  -1 -11  774.52   37.90
  -3  -1 -11  772.32   35.60
  -3   1 -11  790.22   37.00
  -3   1 -11  802.42   38.80
   3   1  11  794.52   38.50
   3   1  11  726.63   35.90
  -4  -1 -11   76.79  102.89
   4  -1  11  132.59   11.90
  -4  -1 -11  142.19   11.30
   4   1  11  132.59   10.70
  -4   1 -11  129.99   10.30
   5  -1  11    7.00    2.60
  -5  -1 -11    4.90    2.20
   5   1  11    5.50    2.70
  -5   1 -11    6.20    2.40
  -5  -2  11  -26.20   89.49
  -5   2  11 -129.99  110.89
  -4  -2  11   21.70  110.49
  -4   2  11 -110.89   55.19
   3  -2 -11   24.00    6.30
  -3  -2  11   23.00    3.80
  -3  -2  11   35.20  176.38
  -3  -2  11   25.50    5.60
  -3   2  11   26.90    4.30
  -3   2  11  180.48  160.98
  -3   2  11   20.10    5.30
   3   2 -11   29.00    4.70
  -3   2  11   32.20    5.60
   3   2 -11   18.10    4.90
  -2  -2  11   74.09    8.40
  -2  -2  11   94.79    9.20
  -2  -2  11  132.39  196.78
  -2  -2  11   95.59    7.10
   2  -2 -11   87.19   10.50
   2   2 -11   91.89    8.30
  -2   2  11   87.59    7.20
   2   2 -11   78.99    8.30
  -2   2  11   75.09    8.80
  -2   2  11   89.59   10.20
  -1  -2  11    8.10    7.00
   1  -2 -11   23.40    5.20
  -1  -2  11   24.80    3.40
   1  -2 -11   22.60    5.50
   1   2 -11   26.10    4.30
  -1   2  11   54.99  140.19
  -1   2  11   35.80    4.10
  -1   2  11   30.10    5.30
  -1   2  11   33.70    5.70
   0  -2 -11  143.89   12.40
   0  -2  11  149.88    9.80
   0  -2 -11    2.40   91.49
   0  -2 -11  155.68   12.60
   0  -2 -11  156.18   11.00
   0   2  11  157.48   12.20
   0   2  11  159.68    9.90
   0   2  11  164.68   12.60
   0   2  11  176.88  196.18
   0   2 -11  173.18   10.30
   1  -2  11   97.79    9.10
  -1  -2 -11   92.69    9.30
  -1  -2 -11   91.19    8.80
  -1  -2 -11   27.50   97.19
   1  -2  11  108.99    8.10
   1   2  11  104.09    8.20
  -1   2 -11   90.39    7.20
   1   2  11  -24.40  112.49
   1   2  11   90.19    8.70
  -1   2 -11  103.79    7.60
   2  -2  11  355.66   20.80
  -2  -2 -11  348.07   21.40
   2  -2  11  354.46   19.70
  -2  -2 -11  378.46   18.80
  -2  -2 -11   39.50  127.79
  -2  -2 -11  342.07   20.80
  -2   2 -11  345.47   19.20
   2   2  11  373.76   21.00
  -2   2 -11  320.17   19.00
   2   2  11  356.66   19.30
  -3  -2 -11  564.14   31.00
   3  -2  11  595.84   29.90
   3  -2  11  542.55   30.40
  -3  -2 -11  573.84   29.70
  -3  -2 -11  564.94   27.40
  -3   2 -11  526.55   27.30
  -3   2 -11  525.85   28.50
   3   2  11  541.55   27.70
   3   2  11  590.94   29.40
  -4  -2 -11  353.86   18.90
   4  -2  11  327.57   20.10
  -4  -2 -11  376.66   21.10
   4   2  11  327.87   18.30
  -4   2 -11  340.97   18.60
   4   2  11  339.37   18.70
  -5  -2 -11   20.40   83.99
   5  -2  11   24.50    4.40
  -5  -2 -11   31.20    4.30
  -5   2 -11   23.60    4.20
  -5  -3  11  -19.80   75.29
  -5  -3  11    3.00    1.40
   5   3 -11    3.40    1.80
   5   3 -11    2.90    2.50
  -4  -3  11   64.09    5.80
  -4  -3  11    5.50  106.09
   4  -3 -11   65.79    8.20
   4   3 -11   63.69    6.80
   4   3 -11   68.69    6.80
  -3  -3  11   38.20    4.60
  -3  -3  11  -68.79  150.88
   3  -3 -11   43.90    7.60
   3   3 -11   41.30   13.90
  -3   3  11   59.19  147.09
  -3   3  11   54.19    8.30
   3   3 -11   49.40    6.10
  -3   3  11   37.60    7.50
   2  -3 -11    9.30    6.00
  -2   3  11 -131.39  117.59
   1  -3 -11  107.59  197.28
   1  -3 -11  153.48   13.50
   1  -3 -11  132.19   11.40
  -1  -3  11  143.29    9.00
  -1   3  11  125.29   11.90
  -1   3  11  127.39    9.30
  -1   3  11  124.39   11.00
  -1   3  11   24.90  143.89
   1   3 -11  134.99   10.10
   1   3 -11  140.39    9.90
   0  -3  11  215.98   13.10
   0  -3 -11    3.60  140.69
   0  -3 -11  247.38   15.30
   0  -3 -11  235.68   17.00
   0   3 -11  216.38   13.60
   0   3  11  249.18   16.70
   0   3 -11  207.48   13.50
   0   3  11  239.08   15.30
   1  -3  11  218.28   14.90
  -1  -3 -11   27.00   96.29
  -1  -3 -11  207.08   15.30
   1  -3  11  227.78   13.80
  -1  -3 -11  230.08   16.80
   1   3  11  221.58   15.70
  -1   3 -11  234.18   13.60
  -1   3 -11  229.88   18.90
   1   3  11  226.48   14.10
   1   3  11  230.58   15.30
   2  -3  11  658.43   33.80
  -2  -3 -11  661.13   34.30
  -2  -3 -11  642.84   35.20
  -2  -3 -11  651.33   31.50
   2  -3  11  712.03   33.30
  -2   3 -11  622.64   36.60
  -2   3 -11  677.93   31.90
   2   3  11  680.93   33.20
   2   3  11  684.43   32.50
  -3  -3 -11  221.38   15.20
  -3  -3 -11  169.58   15.10
  -3  -3 -11  -15.60   90.39
   3  -3  11  201.28   15.10
   3  -3  11  209.98   15.90
  -3  -3 -11  203.28   13.00
   3   3  11  188.58   12.80
   3   3  11  183.18   13.00
  -3   3 -11  207.68   13.20
  -4  -3 -11   71.29    7.80
  -4  -3 -11   66.79  139.09
   4  -3  11   62.79   10.90
   4  -3  11   68.19    8.10
  -4  -3 -11   74.09    6.80
  -4   3 -11   73.09    6.80
   4   3  11   67.69    6.70
   5  -3  11   51.79    5.90
  -5  -3 -11   49.20   92.79
  -5  -3 -11   48.00    5.30
  -5   3 -11   40.00    4.40
  -5  -4  11   -2.10  110.79
   5  -4 -11    5.50    2.10
   5   4 -11    1.00    0.90
  -4  -4  11 -172.28   78.39
   3  -4 -11   -0.70    2.30
  -3  -4  11    1.50    1.30
   3   4 -11    1.90    1.70
   3   4 -11    1.90   15.30
   2  -4 -11   15.70    5.90
   2  -4 -11   15.70    5.30
  -2  -4  11   16.60    2.90
  -2   4  11   19.00    3.90
  -2   4  11   12.30    4.60
   2   4 -11   14.00    4.50
  -2   4  11   11.40    2.80
  -2   4  11    9.50    4.50
   2   4 -11   14.00    3.30
   1  -4 -11   12.60    4.60
  -1  -4  11   18.80    2.80
   1  -4 -11  -30.60  116.09
   1  -4 -11    9.70    4.30
   1   4 -11   19.00    4.40
  -1   4  11   14.90    3.20
  -1   4  11    7.50    4.10
  -1   4  11   13.90    4.40
   1   4 -11   19.00    3.90
  -1   4  11   10.30    2.90
   0  -4 -11   93.29  122.39
   0  -4 -11   71.09    8.90
   0  -4 -11   65.69    7.80
   0  -4  11   78.79    6.30
   0   4  11   74.59    7.20
   0   4  11   66.29    7.90
   0   4  11   55.29    8.40
   0   4  11   74.09    8.50
   0   4 -11   74.79    7.60
   0   4 -11   80.09    7.10
  -1  -4 -11  375.66   23.90
  -1  -4 -11   71.99  140.19
   1  -4  11  396.06   20.60
  -1  -4 -11  387.76   23.90
  -1  -4 -11  399.86   21.50
   1  -4  11  352.16   21.00
  -1   4 -11  373.26   26.40
   1   4  11  348.77   20.30
   1   4  11  363.06   19.30
   1   4  11  367.46   20.30
  -1   4 -11  375.66   20.50
   1   4  11  365.96   21.70
   2  -4  11  308.47   19.10
  -2  -4 -11  312.77   17.90
  -2  -4 -11  315.07   20.10
   2  -4  11  291.97   18.50
  -2  -4 -11  306.27   21.60
   2   4  11  264.57   17.90
   2   4  11  306.67   18.00
  -2   4 -11  299.37   22.70
   2   4  11  305.47   16.60
  -2   4 -11  339.67   18.10
  -3  -4 -11   72.99  118.29
   3  -4  11   32.20    5.30
  -3  -4 -11   41.20    4.90
  -3  -4 -11   34.50    5.60
   3  -4  11   23.10    7.20
   3   4  11   28.20    4.90
  -3   4 -11   30.70    5.00
  -4  -4 -11   28.70    4.50
  -4  -4 -11   43.20    5.90
   4  -4  11   35.60    5.60
   4  -4  11   27.00    7.70
  -4  -4 -11   88.89  146.89
   4   4  11   32.60    4.50
  -4   4 -11   43.30    5.20
  -5  -4 -11   47.60    4.90
  -5  -4 -11   74.69   78.79
   5  -4  11   43.70    4.90
  -5   4 -11   45.90    4.10
   4  -5 -11    3.10    2.50
   4   5 -11   12.10    2.50
   3  -5 -11   27.10    6.20
  -3  -5  11   18.70    3.30
   3   5 -11   21.70    4.00
   3   5 -11   15.40   17.60
   2  -5 -11    1.60    5.00
  -2  -5  11    6.80    2.00
   2  -5 -11    4.30    4.30
   2   5 -11    5.70    1.90
   2   5 -11    5.10    6.80
  -2   5  11    3.10    2.20
   1  -5 -11   33.10    6.90
   1  -5 -11  -61.99   87.79
   1  -5 -11   33.60    6.80
  -1  -5  11   35.80    4.10
  -1   5  11   24.60    6.70
  -1   5  11   31.50    4.80
   1   5 -11   33.20    4.70
   1   5 -11   31.10    5.00
  -1   5  11   28.20    6.10
   0  -5 -11   86.89    9.80
   0  -5 -11   96.29   11.40
   0  -5  11  122.79    8.40
   0   5  11  105.49    8.60
   0   5 -11  119.99    9.40
   1  -5  11   24.30    4.60
  -1  -5 -11   14.10  147.29
  -1  -5 -11   12.80    3.90
  -1  -5 -11   12.80    3.50
   1   5  11   15.10    3.60
  -1   5 -11   16.10    7.70
   1   5  11   14.80    3.90
  -1   5 -11   20.80    3.90
   2  -5  11  112.49    9.60
  -2  -5 -11  120.69   11.50
   2  -5  11  117.19   10.50
   2   5  11  109.79    9.60
  -2   5 -11  111.39    9.20
   2   5  11  110.69    8.90
  -3  -5 -11  102.69  141.59
  -4  -5 -11   38.80    5.30
   4  -5  11   29.10    6.60
   4  -5  11   35.10    5.00
   4   5  11   41.30    5.20
  -4   5 -11   33.00    3.90
   3  -6 -11    2.10    2.50
   3   6 -11    1.70    1.60
   2  -6 -11   -6.10    5.10
   2  -6 -11    3.20    2.60
  -2   6  11    0.50    1.70
   2   6 -11   -1.80   12.30
   2   6 -11    3.40    1.80
  -1  -6  11    8.40    2.30
   1  -6 -11    5.30    3.90
   1  -6 -11    4.60    4.00
   1   6 -11   10.20    3.30
   1   6 -11   11.30    3.10
   0  -6 -11   45.60    7.20
   0  -6  11   53.29    5.20
   0  -6 -11   77.39  155.38
   0  -6 -11   46.70    7.40
   0   6  11   39.10    5.60
   0   6 -11   46.60    6.00
  -1  -6 -11   99.29  161.98
   1  -6  11  255.27   14.50
  -1  -6 -11  216.58   15.90
  -1  -6 -11  227.88   17.60
  -1   6 -11  260.57   15.40
   1   6  11  233.08   14.60
  -2  -6 -11   36.60  106.29
  -2  -6 -11   79.69    7.90
  -2  -6 -11   67.89    8.00
   2  -6  11   78.09    9.00
   2   6  11   78.09    7.80
   2   6  11   81.19    9.10
  -2   6 -11   79.79    7.30
  -3  -6 -11   61.49  124.79
   3  -6  11   -1.90    5.10
   3   6  11   12.90    5.00
   2   7 -11   14.80   14.80
   1  -7 -11    0.50    4.00
   1  -7 -11    4.50    2.50
   1   7 -11    4.30    6.80
   0  -7 -11   44.10    7.50
   0  -7 -11   31.70    6.70
   0   7  11   40.00    8.90
  -1  -7 -11   51.99  130.69
   1  -7  11   31.30    4.70
  -1  -7 -11   34.40    5.60
  -1  -7 -11   28.60    6.30
  -1   7 -11   40.80    4.70
   1   7  11   39.90    7.50
  -2  -7 -11   26.00    5.30
  -2  -7 -11   23.60    4.90
  -2  -7 -11   -7.70   70.19
  -2   7 -11   34.70    4.00
   2   7  11   25.60    6.80
  -5   0  12  111.79  152.38
  -4   0  12   48.00  147.99
  -3   0  12   69.69    6.80
  -3   0  12  -28.20   58.19
  -3   0  12   66.99    9.50
  -3   0  12   50.09    6.80
   3   0 -12   70.29    7.30
  -2   0  12  125.49  178.98
  -1   0  12  498.35   26.60
  -1   0  12  484.05   23.30
  -1   0  12   33.80  172.18
  -1   0  12  456.85   25.50
   1   0 -12  452.25   25.90
   0   0  12   42.10    5.10
   0   0  12   86.09  148.19
   0   0  12   38.50    5.60
   0   0 -12   43.00    6.50
   1   0  12  246.98   16.30
  -1   0 -12  218.08   13.70
   1   0  12  259.47   14.80
  -1   0 -12  278.07   17.20
  -1   0 -12  274.27   16.30
   2   0  12  329.47   18.40
  -2   0 -12  326.37   20.00
   2   0  12  324.67   19.70
  -2   0 -12  335.47   19.30
  -3   0 -12  232.88   15.70
  -3   0 -12  235.88   16.90
   3   0  12  255.17   17.00
  -4   0 -12   63.99    7.20
   4   0  12   59.19    7.10
  -5   0 -12    5.50    2.20
   5   0  12    2.80    1.90
  -5  -1  12    8.90   89.59
  -5  -1  12    1.70    1.70
   5   1 -12    8.30    2.20
   5   1 -12    7.80    2.80
  -5   1  12   -3.00   80.49
  -4  -1  12   53.29  122.79
  -4   1  12   94.49  135.59
   4   1 -12   14.00    3.10
  -4   1  12    6.60    2.40
  -3  -1  12   75.99    6.90
  -3  -1  12   31.50  179.28
  -3  -1  12   69.89    7.80
   3  -1 -12   50.29    8.20
  -3  -1  12   68.79   10.30
  -3   1  12   77.09    7.00
   3   1 -12   75.59    7.40
  -3   1  12   65.19    8.20
  -3   1  12  -18.00   82.39
  -3   1  12   68.89    9.50
  -2  -1  12  611.44   27.80
  -2  -1  12  602.24   31.70
   2  -1 -12  564.14   32.50
  -2  -1  12  148.49  209.48
  -2  -1  12  569.64   30.00
  -2   1  12  542.85   31.70
  -2   1  12  569.14   27.60
  -2   1  12   89.89  179.58
  -2   1  12  580.64   30.80
  -1  -1  12  499.95   26.70
  -1  -1  12  533.85   24.50
  -1  -1  12  516.65   26.70
   1  -1 -12  488.05   28.10
  -1   1  12  496.55   24.30
  -1   1  12   63.89  163.78
  -1   1  12  484.25   27.70
  -1   1  12  469.55   26.80
   0  -1 -12   84.09    8.80
   0  -1  12   84.29    8.40
   0  -1 -12  194.98  168.18
   0  -1  12   83.99    7.00
   0  -1 -12   89.99    9.20
   0   1  12   77.59    8.20
   0   1  12   19.80  118.39
   0   1  12   89.39    7.30
  -1  -1 -12   45.70    6.00
  -1  -1 -12   44.30    6.70
  -1  -1 -12   32.00    6.60
   1  -1  12   53.79    5.70
   1  -1  12   55.19    6.30
  -1  -1 -12   54.59  101.79
   1   1  12   29.10  144.09
  -1   1 -12   46.80    5.90
  -1   1 -12   47.90    5.10
   1   1  12   47.00    5.70
   1   1  12   47.70    6.50
  -1   1 -12   35.20    6.10
   2  -1  12  434.16   23.00
  -2  -1 -12  443.96   24.10
   2  -1  12  429.46   24.60
  -2  -1 -12  459.45   25.40
  -2  -1 -12   75.19  146.49
  -2   1 -12  408.66   23.50
   2   1  12  443.26   24.70
   2   1  12  142.39  246.08
   2   1  12  432.06   21.80
  -2   1 -12  428.16   23.10
   3  -1  12  521.65   27.50
   3  -1  12  575.64   30.30
  -3  -1 -12  548.75   28.80
  -3  -1 -12  527.15   30.10
  -3   1 -12  516.55   27.50
   3   1  12  536.65   28.90
  -3   1 -12  529.55   29.00
  -4  -1 -12    5.70    2.80
   4  -1  12   13.00    3.70
  -4  -1 -12   17.90  130.59
  -4   1 -12    7.90    2.80
   4   1  12    4.80    2.40
   5  -1  12   -0.20    1.40
  -5  -1 -12    2.60    1.80
  -5   1 -12    3.20    1.90
   5   1  12   -0.70    2.50
  -5  -2  12  -50.79   47.80
  -5  -2  12    1.00    1.40
   5   2 -12   -1.20    1.30
   5   2 -12   -5.10    2.70
   4  -2 -12    3.70    3.10
  -4  -2  12  -20.40  164.98
  -4  -2  12    5.00    2.30
   4  -2 -12    3.60    2.60
   4   2 -12   -1.70    2.80
   4   2 -12    3.90    1.90
  -4   2  12  -37.30   60.99
  -3  -2  12   46.50  127.49
  -3  -2  12    7.70    3.40
   3   2 -12    2.90    1.80
  -3   2  12    2.60    1.80
   2  -2 -12   87.69   10.50
  -2  -2  12   72.69    8.90
  -2  -2  12   82.59    8.90
  -2  -2  12   81.29    6.80
  -2  -2  12  -43.10  159.38
  -2   2  12   79.59    7.10
   2   2 -12   71.29    7.70
   2   2 -12   87.59    9.10
  -2   2  12   78.79   10.00
  -2   2  12  -78.09  115.99
  -2   2  12   79.29    8.90
   1  -2 -12  471.65   28.70
  -1  -2  12  504.75   23.90
  -1  -2  12  498.65   26.30
  -1   2  12  472.95   23.70
  -1   2  12  518.35   28.80
  -1   2  12  481.25   26.90
   1   2 -12  497.05   24.20
   0  -2 -12   31.50    5.60
   0  -2 -12  -90.09   77.89
   0  -2  12   32.80    5.70
   0   2  12  -88.09  108.19
  -1  -2 -12  -32.70   70.49
  -1  -2 -12   42.50    6.70
   1  -2  12   45.10    6.00
  -1  -2 -12   39.10    5.70
  -1  -2 -12   46.30    6.70
   1  -2  12   46.70    5.50
   1   2  12   59.29  153.58
  -1   2 -12   33.10    4.80
   1   2  12   49.20    6.60
   2  -2  12  575.44   29.60
   2  -2  12  580.44   31.00
  -2  -2 -12  592.64   28.60
  -2  -2 -12  598.64   32.20
  -2  -2 -12  610.54   31.10
   2   2  12  594.64   29.30
  -2   2 -12  605.04   28.50
  -2   2 -12  551.34   29.00
   2   2  12  587.14   30.70
  -3  -2 -12   24.30    4.50
  -3  -2 -12   21.70    4.20
   3  -2  12   21.90    7.10
  -3  -2 -12   16.90    5.00
   3  -2  12   30.90    5.30
  -3  -2 -12  129.79  175.08
   3   2  12   22.40    4.40
   3   2  12   26.70    4.50
  -3   2 -12   17.40    4.30
  -3   2 -12   16.60    4.00
   4  -2  12    7.90    5.60
  -4  -2 -12   10.50    4.00
  -4  -2 -12 -173.18   85.99
   5  -2  12   17.60    3.20
  -5  -2 -12   12.80    3.00
  -5   2 -12   14.80    2.70
  -5  -3  12 -109.39   59.99
  -4  -3  12   60.39  151.38
   4  -3 -12   10.90    4.00
  -4  -3  12   19.00    3.10
   4   3 -12   10.60    3.10
   3  -3 -12  107.69   12.10
  -3  -3  12  205.88  225.28
  -3  -3  12  102.69    7.80
   3   3 -12  104.19    9.30
  -3   3  12  -46.00   94.19
   3   3 -12  102.69   15.60
   2  -3 -12  201.38   17.50
  -2  -3  12   61.89  227.48
  -2  -3  12  182.78   11.50
   2   3 -12  186.88   13.80
  -2   3  12  194.98   16.20
  -2   3  12  187.58   14.30
   2   3 -12  203.58   13.40
  -2   3  12  -47.00  140.19
   1  -3 -12  305.57   22.00
  -1  -3  12  327.57   16.70
   1  -3 -12  311.87   19.90
  -1   3  12  292.37   16.50
  -1   3  12  291.67   19.40
  -1   3  12  319.67   21.60
   1   3 -12  310.77   17.50
  -1   3  12   28.30  142.19
   1   3 -12  346.67   18.40
   0  -3  12  444.66   24.30
   0  -3 -12  440.36   24.30
   0  -3  12  454.85   22.30
   0  -3 -12   78.49  143.89
   0  -3 -12  425.66   26.40
   0   3  12  474.55   26.70
   0   3  12  443.76   24.50
   0   3 -12  452.85   22.80
   0   3 -12  425.56   22.40
   0   3  12  434.26   24.60
  -1  -3 -12  924.51   43.30
   1  -3  12  876.41   42.40
  -1  -3 -12  940.01   47.20
  -1  -3 -12  938.01   46.20
   1  -3  12  929.21   44.30
   1   3  12  934.41   45.80
   1   3  12  996.40   45.00
  -1   3 -12  960.70   42.50
  -2  -3 -12  318.17   18.20
  -2  -3 -12  329.97   21.00
   2  -3  12  310.47   20.00
  -2  -3 -12  139.79  184.28
  -2  -3 -12  329.07   22.00
   2  -3  12  314.17   19.30
  -2   3 -12  301.87   17.80
   2   3  12  353.86   19.10
   2   3  12  338.37   19.50
  -3  -3 -12  169.08   13.20
   3  -3  12  150.38   12.70
  -3  -3 -12   41.30  109.59
   3  -3  12  138.49   14.80
  -3  -3 -12  158.18   11.00
   3   3  12  154.98   11.30
  -3   3 -12  153.78   10.90
   3   3  12  148.39   11.10
  -4  -3 -12   95.99  143.99
   4  -3  12   38.20    5.90
   4  -3  12   22.10    6.70
  -4  -3 -12   32.70    4.90
  -4  -3 -12   29.20    5.40
  -4   3 -12   36.50    4.60
   5  -3  12    2.60    1.80
  -5  -3 -12  -79.59   66.69
  -5   3 -12    3.60    1.70
  -4  -4  12  116.79  173.28
  -3  -4  12    8.20  218.88
  -3  -4  12   11.30    2.50
   3  -4 -12    7.70    4.30
   3   4 -12    4.60   15.50
   3   4 -12   10.70    3.20
   2  -4 -12   49.00    8.10
  -2  -4  12   45.40    4.80
   2  -4 -12   42.20    9.80
  -2   4  12   52.09    8.60
  -2   4  12   44.50    8.90
  -2   4  12   49.60    6.10
   2   4 -12   47.10    5.90
   2   4 -12   43.00    8.50
   1  -4 -12   86.79   11.30
   1  -4 -12   81.49    9.80
  -1  -4  12   99.49    7.40
  -1   4  12  101.89    9.10
  -1   4  12   96.99    7.60
   1   4 -12  100.49    8.30
  -1   4  12   86.29   10.80
  -1   4  12   99.69   11.20
   1   4 -12  110.39    8.80
   0  -4 -12  177.18   15.70
   0  -4  12  205.28   12.00
   0  -4 -12   41.70  132.39
   0  -4 -12  188.98   14.10
   0   4 -12  185.98   12.00
   0   4  12  185.68   11.70
   0   4  12  172.98   14.60
   0   4  12  172.48   13.20
   0   4 -12  179.08   12.20
  -1  -4 -12  368.76   24.50
  -1  -4 -12  361.06   21.20
   1  -4  12  353.36   21.10
  -1  -4 -12  399.46   24.40
   1  -4  12  343.17   19.80
   1   4  12  386.86   20.90
   1   4  12  366.96   22.20
  -1   4 -12  369.06   20.40
   1   4  12  395.96   21.10
   2  -4  12  213.68   15.10
  -2  -4 -12  224.08   16.20
  -2  -4 -12  212.58   17.50
   2  -4  12  220.18   14.90
   2   4  12  168.28   15.30
  -2   4 -12  218.58   13.70
   2   4  12  207.88   13.80
   3  -4  12   12.50    3.20
  -3  -4 -12    8.20    3.10
   3  -4  12   10.60    6.80
  -3  -4 -12    4.40    2.30
  -3   4 -12    5.10    2.40
   3   4  12    6.30    2.30
  -4  -4 -12   -1.50   84.49
   4  -4  12   -0.30    1.70
  -4  -4 -12    6.30    2.60
   4  -4  12   -2.60    4.60
  -4   4 -12    4.00    1.80
   4  -5 -12    3.90    2.60
   4   5 -12    1.40    1.50
  -3  -5  12   42.80    4.20
   3  -5 -12   38.60    6.90
   3   5 -12   21.90   16.50
   3   5 -12   31.40    4.80
  -2  -5  12   32.30    4.00
   2  -5 -12   33.70    8.70
   2  -5 -12   38.80    7.80
   2   5 -12   30.50    9.50
   2   5 -12   32.20    4.80
   1  -5 -12   39.40    8.00
   1  -5 -12   54.89    9.00
  -1  -5  12   53.09    4.80
   1   5 -12   64.09    5.80
  -1   5  12   56.89    5.60
   1   5 -12   54.29    6.60
   0  -5 -12  334.97   21.40
   0  -5 -12  332.47   23.90
   0  -5 -12  111.59  169.58
   0  -5  12  361.16   18.50
   0   5  12  352.16   18.30
   0   5 -12  372.16   20.10
   1  -5  12  383.46   20.50
  -1  -5 -12  388.66   24.70
  -1  -5 -12  372.26   22.40
  -1  -5 -12  109.49  236.28
  -1   5 -12  382.86   20.90
   1   5  12  389.26   19.50
   2  -5  12   30.00    5.70
  -2  -5 -12   28.20    5.20
   2  -5  12   38.60    7.50
  -2  -5 -12   29.00    5.80
  -2  -5 -12   77.09  150.88
  -2   5 -12   37.70    5.20
   2   5  12   31.20    4.60
   2   5  12   33.60    6.20
   3  -5  12    5.50    2.60
  -3  -5 -12   45.50   82.19
   3  -5  12   10.50    6.70
  -3  -5 -12   11.80    2.90
  -3  -5 -12   11.90    3.20
  -3   5 -12    8.10    2.60
   4  -5  12    6.00    2.60
  -4  -5 -12   10.90    2.90
  -4  -5 -12   25.50   95.39
  -4   5 -12   10.40    2.30
   3  -6 -12    4.70    2.20
   3   6 -12   -1.10    1.20
   2  -6 -12    4.10    2.60
   2  -6 -12    1.60    6.50
   2   6 -12    3.80    2.00
   2   6 -12    5.20   12.90
   1  -6 -12   29.20    6.50
   1  -6 -12   29.30    7.10
  -1  -6  12   31.00    3.90
   1   6 -12   39.10    5.50
  -1   6  12   34.60    4.40
   0  -6 -12   81.89   10.10
   0  -6 -12   74.99    9.10
   0  -6 -12  113.29  184.18
   0  -6  12   86.39    6.70
   0   6 -12   97.59    8.90
   0   6  12   90.09    7.00
  -1  -6 -12   41.20  142.79
  -1  -6 -12  189.48   14.10
  -1  -6 -12  186.28   15.40
   1  -6  12  187.78   12.10
  -1   6 -12  184.78   12.80
   1   6  12  210.18   11.50
  -2  -6 -12   26.90    5.30
  -2  -6 -12   17.60   82.29
  -2  -6 -12   25.10    4.90
   2  -6  12   29.30    6.30
  -2   6 -12   31.20    4.00
   2   6  12   24.90    4.20
   3  -6  12    3.80    4.70
  -3  -6 -12    5.40    2.90
   3  -6  12    0.80    2.30
  -3  -6 -12  -80.39   56.39
  -3   6 -12    5.00    1.80
   2  -7 -12    3.60    2.10
   2   7 -12    0.40   12.90
   1  -7 -12    2.50    2.90
   1   7 -12    3.10    7.80
  -1   7  12    5.40    3.40
   0  -7 -12  204.08   15.00
   0  -7 -12  174.38   13.90
   0   7  12  221.58   13.20
   0   7 -12  211.68   12.80
  -1  -7 -12  193.08   14.00
  -1  -7 -12  -49.50   91.89
  -1  -7 -12  179.58   12.80
  -1   7 -12  190.58   11.60
   1   7  12  204.18   13.00
  -2  -7 -12    5.20    2.90
  -2  -7 -12  -18.50   82.49
  -5   0  13  -56.49   65.19
   5   0 -13    4.80    1.50
   5   0 -13   -0.90    2.50
   4   0 -13    1.60    1.60
  -4   0  13   -0.40   85.49
  -4   0  13   -0.30    1.40
  -3   0  13  608.94   32.00
  -3   0  13  112.29  174.08
   3   0 -13  617.34   30.40
  -3   0  13  572.04   34.40
  -3   0  13  611.14   29.60
  -2   0  13  367.96   21.90
  -2   0  13  -18.70  131.79
  -2   0  13  388.56   19.90
  -2   0  13  333.47   22.60
  -1   0  13  211.48   16.10
   1   0 -13  224.48   16.30
  -1   0  13  231.08   13.80
  -1   0  13  227.68   15.90
   0   0  13  305.07   19.10
   0   0  13  309.37   17.10
   0   0 -13  303.27   19.20
  -1   0 -13    3.30    3.10
   1   0  13    1.10    2.90
  -1   0 -13    1.70    2.30
   1   0  13    0.60    2.20
  -2   0 -13    1.40    2.30
   2   0  13    2.50    2.50
   2   0  13    5.70    4.10
  -2   0 -13    1.60    1.80
   3   0  13 -107.59  242.48
   4   0  13   32.00    4.80
  -4   0 -13   24.40    4.40
   5   0  13    1.00    1.50
  -5   0 -13    0.60    1.50
  -5  -1  13  -75.29   62.19
  -5  -1  13    3.70    1.80
   5   1 -13    2.50    1.20
  -5   1  13  -51.59   89.19
  -4  -1  13  -52.99   92.99
   4  -1 -13   20.20    3.70
   4   1 -13    9.00    2.90
   4   1 -13    9.60    4.00
  -4   1  13   18.00    3.40
  -4   1  13   60.79  118.99
  -3  -1  13  -32.40  104.19
   3  -1 -13   25.70    5.80
  -3  -1  13   34.80    6.00
  -3  -1  13   46.70    5.40
  -3  -1  13   30.10    6.80
  -3   1  13   42.10    5.10
  -3   1  13   34.60    7.20
  -3   1  13   26.10  141.59
  -3   1  13   33.70    5.80
   3   1 -13   46.50    5.70
  -2  -1  13 1155.58   53.19
   2  -1 -13 1040.90   52.19
  -2  -1  13 1117.89   47.80
  -2  -1  13 1106.29   50.59
  -2   1  13 1003.10   47.30
  -2   1  13 1070.19   51.19
  -2   1  13 1033.90   53.09
  -1  -1  13  502.95   24.10
   1  -1 -13  460.25   27.80
  -1  -1  13  504.35   26.60
  -1  -1  13  494.55   27.30
  -1   1  13  440.36   26.40
  -1   1  13  439.56   27.20
  -1   1  13  492.05   24.10
   0  -1  13  113.89   10.00
   0  -1 -13  135.29   11.20
   0  -1  13  115.59    8.80
   0   1 -13  114.29    8.40
   0   1  13  100.29   10.00
   0   1  13  123.89    9.10
   0   1  13   62.79  164.58
  -1  -1 -13  132.49   11.90
   1  -1  13  135.79   10.30
  -1  -1 -13  121.29   11.10
  -1  -1 -13   42.80  127.99
   1  -1  13  128.09   10.70
  -1   1 -13  139.99   10.60
   1   1  13  120.09    9.40
   1   1  13  128.39   11.00
   1   1  13  -67.89  108.59
  -1   1 -13  131.29    8.90
  -1   1 -13  112.29   10.80
  -2  -1 -13   30.10    5.90
   2  -1  13   37.40    5.80
  -2  -1 -13   28.40  117.09
   2  -1  13   24.90    5.80
  -2  -1 -13   34.00    5.90
  -2   1 -13   23.50    5.40
   2   1  13   27.10    5.40
  -2   1 -13   25.90    3.90
   2   1  13 -150.78  130.89
  -2   1 -13   36.80    5.50
   3  -1  13    4.60    2.60
  -3  -1 -13   11.70    3.00
  -3  -1 -13  100.99  145.99
   3  -1  13    6.40    4.90
  -3  -1 -13   10.00    4.20
  -3   1 -13    3.50    3.20
   3   1  13    4.10    2.40
  -4  -1 -13   18.10    3.80
   4  -1  13   19.50    4.50
   4  -1  13   33.40  245.18
  -4   1 -13   18.20    4.10
   4   1  13   23.10    4.50
  -5  -1 -13    1.30    1.50
   5  -1  13    3.40    2.10
  -5   1 -13    2.70    1.60
  -5   1 -13    1.00    2.30
  -5  -2  13  -87.59   56.29
   5   2 -13    0.70    1.00
  -4  -2  13  212.18  230.78
   4  -2 -13   34.50    4.70
  -4  -2  13   34.50    4.40
  -4   2  13  130.29  106.29
   4   2 -13   50.69    5.50
  -3  -2  13   17.20  149.29
   3  -2 -13  426.56   26.30
  -3  -2  13  431.86   24.10
  -3  -2  13  462.25   22.50
  -3   2  13  434.96   25.30
   3   2 -13  468.55   24.20
  -3   2  13  413.36   21.80
  -2  -2  13  524.95   27.80
   2  -2 -13  512.35   31.30
  -2  -2  13  528.05   25.60
   2   2 -13  498.55   26.90
  -2   2  13  525.65   29.40
   2   2 -13  547.85   27.50
  -2   2  13  494.05   30.80
  -2   2  13  510.15   25.50
  -1  -2  13  718.23   36.40
  -1  -2  13  692.23   32.50
   1  -2 -13  740.83   38.40
  -1  -2  13  682.73   35.00
  -1   2  13  718.63   38.20
   1   2 -13  634.54   32.10
  -1   2  13  719.93   36.30
  -1   2  13  688.03   32.30
   0  -2  13  287.77   18.30
   0  -2 -13  306.57   20.20
   0  -2 -13  258.67   17.40
   0  -2  13  308.87   16.70
   0   2  13  306.57   19.30
   0   2  13  292.87   16.10
   0   2  13  313.27   20.50
   0   2 -13  292.77   16.00
   0   2  13  -48.80  121.89
  -1  -2 -13   76.59    8.90
  -1  -2 -13   11.50  120.09
   1  -2  13   77.29    8.20
  -1  -2 -13   81.09    9.40
   1  -2  13   80.39    7.70
  -1  -2 -13   70.89    7.90
   1   2  13   77.19    8.60
  -1   2 -13   87.29    7.30
   1   2  13  133.19  175.58
  -2  -2 -13    4.50    2.80
  -2  -2 -13    9.40    3.90
  -2  -2 -13   35.30  128.69
   2  -2  13   11.70    3.30
  -2  -2 -13    4.50    2.90
   2  -2  13    6.20    4.70
   2   2  13    8.00    2.80
  -2   2 -13    8.00    3.30
  -2   2 -13    4.80    1.60
   3  -2  13   31.60    7.30
  -3  -2 -13   67.09  148.39
   3  -2  13   36.60    6.00
  -3  -2 -13   37.10    6.30
   3   2  13   40.70    5.30
  -3   2 -13   37.60    4.70
  -4  -2 -13   12.90    3.50
   4  -2  13   10.10    3.20
   4   2  13    5.70    2.70
  -4   2 -13   10.20    2.80
   5  -2  13   39.20    4.60
  -5  -2 -13   37.10    4.60
  -5   2 -13   35.80    3.70
  -4  -3  13  104.89  135.19
  -3  -3  13   -7.20  109.39
  -3   3  13  -50.39  106.29
  -2  -3  13  149.29  217.98
   2  -3 -13  155.48   14.70
  -2  -3  13  149.19   10.10
   2   3 -13  151.78   13.30
  -2   3  13  160.18   12.80
  -2   3  13    6.80  142.49
  -2   3  13  137.79   14.30
   2   3 -13  163.58   11.50
  -1  -3  13  423.66   25.70
   1  -3 -13  466.15   28.90
  -1  -3  13  470.55   22.80
   1   3 -13  458.65   23.90
  -1   3  13  449.56   28.00
  -1   3  13  234.88  186.98
   1   3 -13  467.05   23.80
  -1   3  13  470.85   26.50
   0  -3 -13   57.39    7.50
   0  -3 -13   56.09    8.50
   0  -3  13   73.89    6.40
   0  -3 -13   72.49  118.19
   0  -3  13   50.99    8.10
   0   3  13   61.59    7.10
   0   3 -13   67.99    6.40
   0   3  13   65.39    8.70
   0   3 -13   71.79    6.60
   0   3  13   42.90    8.00
  -1  -3 -13   19.10    4.90
  -1  -3 -13   11.60    3.80
   1  -3  13    7.40    3.20
  -1  -3 -13   35.00  113.59
  -1  -3 -13    7.90    3.80
   1  -3  13    7.50    2.90
   1   3  13   11.20    4.30
  -1   3 -13    5.70    2.50
  -2  -3 -13  201.88   17.30
   2  -3  13  215.08   15.20
  -2  -3 -13   98.59  141.99
  -2  -3 -13  209.18   15.70
  -2  -3 -13  197.18   13.90
   2  -3  13  199.48   14.80
  -2   3 -13  210.88   13.20
   2   3  13  216.18   15.70
   2   3  13  215.08   14.40
  -3  -3 -13   12.70    3.80
   3  -3  13    5.10    6.50
  -3  -3 -13   22.10   89.49
   3  -3  13    8.60    3.30
   3   3  13   11.90    3.40
  -3   3 -13   13.50    3.60
   4  -3  13    2.30    1.80
  -4  -3 -13    7.00   91.19
   4  -3  13    6.90    4.50
  -4  -3 -13    2.80    2.20
  -4   3 -13    4.40    2.00
  -4  -4  13  233.38  160.98
  -4  -4  13   94.19    6.10
   4  -4 -13   81.99    7.60
   4   4 -13   80.59    6.80
  -3  -4  13 -167.98  140.19
  -2  -4  13 -169.98  113.79
   2   4 -13   21.10    8.40
   1  -4 -13  315.37   22.90
  -1  -4  13  293.77   16.00
   1  -4 -13  287.57   20.00
  -1   4  13  311.17   18.60
  -1   4  13  295.67   20.80
   1   4 -13  308.17   17.70
  -1   4  13  305.07   15.70
  -1   4  13  271.97   20.70
   1   4 -13  304.47   17.30
   0  -4 -13  325.47   23.00
   0  -4  13  345.17   17.90
   0  -4 -13   94.99  157.88
   0  -4 -13  319.97   20.20
   0   4  13  341.77   19.90
   0   4  13  300.57   21.50
   0   4 -13  330.47   17.90
   0   4 -13  330.67   18.50
  -1  -4 -13 -100.79   80.19
  -1  -4 -13   45.20    6.90
   1  -4  13   35.70    5.60
   1  -4  13   34.50    5.30
  -1  -4 -13   35.90    5.50
  -1   4 -13   41.40    5.20
   1   4  13   28.20    6.40
   1   4  13   29.70    5.80
  -2  -4 -13   34.00    5.70
  -2  -4 -13   43.90    7.00
   2  -4  13   24.60    5.00
   2  -4  13   37.70    8.30
  -2  -4 -13  -50.29   61.49
  -2   4 -13   31.60    4.60
  -3  -4 -13    1.30    2.80
   3  -4  13    9.20    6.60
  -3  -4 -13  -29.60   91.49
  -3  -4 -13    4.60    2.40
  -3   4 -13    8.00    2.80
  -4  -4 -13    5.60    2.50
   4  -4  13    1.80    2.10
  -4  -4 -13   16.60   75.39
  -4   4 -13    2.50    1.50
  -3  -5  13   16.00    2.90
   3  -5 -13   18.20    4.40
   3   5 -13   22.00    3.60
  -2  -5  13   28.90    3.40
   2  -5 -13   22.10    6.10
   2   5 -13   19.60    4.10
   2   5 -13   19.10   10.60
   1  -5 -13   99.49   12.90
   1  -5 -13  140.79   14.30
  -1  -5  13  141.89    9.00
   1   5 -13  148.49   10.80
   1   5 -13  134.89    9.40
  -1   5  13  141.29    9.00
   0  -5 -13  152.48   14.60
   0  -5 -13  139.49   12.70
   0  -5 -13   15.50  132.99
   0  -5  13  152.48   10.00
   0   5 -13  151.58   10.90
   0   5  13  146.09    9.40
   1  -5  13  152.08   11.20
  -1  -5 -13   40.60  135.89
  -1  -5 -13  169.88   12.80
  -1  -5 -13  174.68   14.80
   1   5  13  147.49   14.40
  -1   5 -13  160.08   11.50
  -2  -5 -13   32.00    5.50
   2  -5  13   22.00    5.00
   2  -5  13   25.80    6.40
  -2  -5 -13   43.60  126.09
  -2   5 -13   20.00    3.80
  -3  -5 -13   18.10  100.59
  -3  -5 -13    4.90    2.60
   3  -5  13    7.10    2.60
  -3  -5 -13    9.90    3.50
   3  -5  13   -1.60    5.30
  -3   5 -13    5.50    2.50
   3  -6 -13    4.90    2.20
   3   6 -13    7.60    1.60
   2  -6 -13    3.10    2.60
   2   6 -13   -1.20   12.00
   1  -6 -13   18.40    5.60
  -1  -6  13   13.30    2.60
   1  -6 -13    9.80    5.60
   1   6 -13   26.80    5.30
   0  -6 -13   90.49  173.38
   0  -6 -13  182.48   15.40
   0  -6 -13  168.68   13.70
   0  -6  13  176.18   10.40
   0   6 -13  190.48   12.40
   0   6  13  174.38   10.10
   1  -6  13   42.80    6.00
  -1  -6 -13   46.70    7.20
  -1  -6 -13   56.79    7.80
  -1  -6 -13  -26.50   91.79
  -1   6 -13   47.40    5.60
   1   6  13   46.80    5.60
  -2  -6 -13  -37.10   72.49
   2  -6  13   12.80    4.80
  -3  -6 -13    1.60    2.20
  -3  -6 -13 -112.69   51.89
  -3   6 -13   -0.10    1.20
   1  -7 -13   13.50    3.90
   1   7 -13    8.00    8.40
   0  -7 -13   16.10    3.80
   0   7 -13   13.30    3.30
  -1  -7 -13   40.30    5.80
  -1   7 -13   30.20    3.90
  -5   0  14   73.79  101.29
  -4   0  14   32.60  112.69
   4   0 -14   10.50    2.70
  -4   0  14    9.30    2.60
  -3   0  14  209.08   13.20
  -3   0  14  203.98   15.00
  -3   0  14   49.90  130.29
   3   0 -14  199.78   13.70
  -2   0  14  956.50   45.90
  -2   0  14  898.71   47.70
  -2   0  14  959.40   43.00
  -1   0  14    2.60   98.59
   1   0 -14   -4.40    4.80
  -1   0  14    0.10    1.90
  -1   0  14   -1.40    1.70
  -1   0  14    4.30    3.30
   0   0 -14   -0.50    3.30
   0   0  14  -23.80  179.78
   0   0  14    5.50    3.10
   0   0  14    1.00    2.60
   1   0  14   -0.60    2.70
   1   0  14  -56.99  149.39
  -1   0 -14    3.30    3.30
   1   0  14    0.10    3.00
  -2   0 -14    1.10    2.70
  -2   0 -14    2.80    2.40
  -2   0 -14   -1.80    1.70
   2   0  14   41.10  294.37
   2   0  14    1.80    2.00
   2   0  14    3.40    4.00
   3   0  14    2.90    2.00
   3   0  14  -64.99  182.28
  -3   0 -14    2.20    2.00
  -4   0 -14   46.60    5.90
   4   0  14   36.90    5.80
   5   0  14   -0.30    1.50
  -5   0 -14    2.70    1.70
  -5   0 -14    0.40    1.30
  -5  -1  14  -37.50   49.10
  -5   1  14  111.29   88.89
  -4  -1  14  208.58  208.18
  -4   1  14  -26.40   62.89
  -3  -1  14  297.47   16.80
  -3  -1  14  105.59  191.68
  -3  -1  14  293.77   18.40
   3   1 -14  286.67   17.50
  -3   1  14  291.17   19.10
  -3   1  14  170.18  192.68
  -3   1  14  281.67   16.30
  -2  -1  14    5.60  155.68
  -2  -1  14  363.76   20.40
  -2  -1  14  354.16   22.40
   2  -1 -14  382.76   23.60
  -2  -1  14  352.96   24.20
  -2   1  14  405.76   26.10
  -2   1  14  417.86   23.90
  -2   1  14  416.36   20.80
   1  -1 -14   72.19    9.20
  -1  -1  14   50.79    8.70
  -1  -1  14   57.49    7.50
  -1  -1  14   64.79    6.80
  -1  -1  14  115.69  163.78
  -1   1  14   87.09    9.50
  -1   1  14   72.59    8.30
  -1   1  14   74.09    7.20
  -1   1  14 -125.69   84.79
   0  -1  14    5.90    2.90
   0  -1 -14    8.60    4.20
   0  -1  14    3.50    2.40
   0   1  14    9.60    3.30
   0   1  14   64.69  153.78
   0   1  14    2.60    2.60
  -1  -1 -14   13.90    4.30
   1  -1  14   22.80    4.90
   1  -1  14   19.00    4.70
  -1  -1 -14   23.50    5.10
   1   1  14   23.20    4.80
  -1   1 -14   21.90    3.90
  -1   1 -14   12.80    4.40
   1   1  14  -65.29  164.68
   2  -1  14   49.70    6.70
  -2  -1 -14 -118.59  125.89
  -2  -1 -14   52.29    7.80
  -2  -1 -14   61.79    7.40
   2  -1  14   46.00    8.40
   2   1  14  -28.60  161.18
   2   1  14   54.59    7.10
  -2   1 -14   36.80    6.80
  -2   1 -14   49.40    4.90
  -2   1 -14   47.40    6.50
  -3  -1 -14  111.49   10.20
   3  -1  14   82.79   10.00
   3  -1  14  120.79   10.50
   3   1  14  120.99   10.40
  -3   1 -14  110.29    8.40
  -3   1 -14  100.89    8.80
  -4  -1 -14   16.50    3.60
   4  -1  14   10.40    3.00
   4  -1  14   24.40  156.68
   4   1  14    4.00    2.20
  -4   1 -14    9.60    2.50
  -4   1 -14    6.10    2.60
  -5  -1 -14    6.60    1.60
   5  -1  14    5.80    1.90
  -5  -1 -14    5.80    1.90
  -5   1 -14    9.10    1.90
  -4  -2  14 -104.59   79.89
  -4  -2  14   87.79    6.70
   4  -2 -14   65.89    5.70
  -4   2  14   58.89  102.19
   4   2 -14   81.99    7.00
  -3  -2  14   96.89    8.70
   3  -2 -14   83.49    9.80
  -3  -2  14   38.70  181.28
  -3  -2  14   91.29    7.70
   3   2 -14   97.39    8.40
  -3   2  14  101.89    9.70
  -3   2  14   68.29    7.50
   2  -2 -14  383.36   24.80
  -2  -2  14  370.66   21.50
  -2  -2  14   52.29  168.68
  -2  -2  14  381.96   19.90
  -2   2  14  354.56   19.30
   2   2 -14  373.36   21.10
  -2   2  14  325.37   24.30
  -2   2  14  385.86   23.30
  -1  -2  14   35.40    5.10
  -1  -2  14   29.40    6.30
   1  -2 -14   25.00    6.00
  -1  -2  14   66.59  126.79
  -1  -2  14   47.70    7.00
  -1   2  14   25.50    5.10
  -1   2  14   24.40    5.10
   1   2 -14   33.50    5.10
  -1   2  14   44.70  119.89
  -1   2  14   34.70    6.70
   0  -2 -14   14.10    5.30
   0  -2  14   14.40    4.30
   0  -2  14   15.30    3.70
   0   2  14   16.30    4.50
   0   2  14   18.90    5.20
   0   2  14   66.69  150.88
   0   2 -14   22.50    3.80
  -1  -2 -14   -1.60    2.40
   1  -2  14   -0.60    2.30
   1  -2  14    8.70    3.80
  -1  -2 -14   16.80  161.08
  -1  -2 -14    2.10    3.10
   1   2  14  -49.30  103.79
  -1   2 -14    2.00    2.10
   1   2  14   -0.40    1.70
  -2  -2 -14    4.60    3.10
   2  -2  14    5.80    5.20
  -2  -2 -14    4.70    3.20
   2  -2  14    7.30    2.80
  -2  -2 -14   41.60  130.79
  -2   2 -14   10.30    2.50
   2   2  14    7.10    2.70
  -3  -2 -14   76.79  146.19
   3  -2  14   83.59    8.80
  -3  -2 -14   79.79    8.50
   3  -2  14   62.09   10.20
   3   2  14   71.79    7.60
  -3   2 -14   84.19    6.90
  -4  -2 -14    4.90    2.20
   4  -2  14    7.00    2.80
   4   2  14    4.10    2.80
  -4   2 -14    3.90    1.80
   4  -3 -14   88.29    7.70
  -4  -3  14  115.69    7.20
  -4  -3  14  -14.20   79.19
   4   3 -14  110.19    8.10
   3  -3 -14  272.87   18.80
  -3  -3  14  249.28   14.50
  -3  -3  14   82.99  164.68
   3   3 -14  272.57   16.20
  -2  -3  14 -114.99  122.49
   2   3 -14   50.19    9.70
  -2   3  14  -82.79   92.29
  -1  -3  14   84.59    9.10
  -1  -3  14   91.99    7.80
   1  -3 -14  102.29   11.70
   1   3 -14   87.89    7.60
   1   3 -14   93.89    8.20
  -1   3  14  101.19   10.00
  -1   3  14   95.19   11.50
  -1   3  14   13.30  164.08
   0  -3  14   35.20    5.20
   0  -3 -14   19.20    6.40
   0  -3 -14   15.00  109.69
   0  -3 -14   39.70    7.00
   0  -3  14   26.70    5.80
   0   3  14   39.70    7.80
   0   3 -14   32.10    4.80
   0   3  14   50.39    6.60
   0   3 -14   31.60    4.60
  -1  -3 -14   32.30    7.70
  -1  -3 -14   41.20    6.80
   1  -3  14   41.00    6.80
  -1  -3 -14   51.09    7.80
  -1  -3 -14   21.40  120.89
   1  -3  14   38.30    6.20
   1   3  14   50.19    6.30
  -1   3 -14   51.59    5.70
   1   3  14   48.10    7.90
  -2  -3 -14  192.38  190.48
   2  -3  14  129.99   12.40
   2  -3  14  118.59   10.90
  -2  -3 -14  110.99   10.70
  -2  -3 -14  125.99   12.00
  -2   3 -14  131.19    9.80
   2   3  14  134.79   10.40
  -3  -3 -14    4.20    2.70
  -3  -3 -14    1.40    4.80
  -3  -3 -14  -61.59   72.69
   3  -3  14   11.60    6.10
   3  -3  14    4.10    2.50
  -3   3 -14    7.40    2.20
   3   3  14    4.30    2.70
  -4  -3 -14   31.80    4.80
  -4  -3 -14   26.00   90.09
   4  -3  14   33.30    4.80
  -4   3 -14   28.10    3.70
   4  -4 -14   44.30    5.10
  -4  -4  14   64.39  114.59
   4   4 -14   58.99    4.90
  -3  -4  14 -129.79  145.39
  -2  -4  14  -45.20  181.78
   2   4 -14    9.30    9.40
  -1  -4  14   43.20    5.10
   1   4 -14   51.89    5.70
  -1   4  14   41.10    5.80
   1   4 -14   46.50    5.50
   0  -4  14    1.60    1.90
   0  -4 -14   -1.10    3.90
   0  -4 -14    2.40    2.10
   0   4 -14   -0.30    2.90
   0   4  14    2.10    2.40
   0   4 -14    1.80    1.60
  -1  -4 -14   -5.80   97.39
   1  -4  14    1.40    2.90
  -1  -4 -14   11.00    4.90
  -1  -4 -14   11.80    4.00
   1  -4  14    9.50    3.90
  -1   4 -14    5.30    2.20
   1   4  14    9.80    3.10
  -2  -4 -14  -36.20   73.29
  -2  -4 -14   -3.80    3.10
   2  -4  14    4.70    2.70
  -2  -4 -14   -1.30    2.50
   2  -4  14    1.60    5.20
  -2   4 -14    0.00    1.30
  -3  -4 -14    7.70    3.00
  -3  -4 -14    1.20    3.90
   3  -4  14    8.10    5.70
  -3  -4 -14  -29.40   94.69
   3  -4  14    6.70    2.70
  -3   4 -14    3.90    2.00
  -4  -4 -14   28.90   75.99
   4  -4  14    9.80    2.70
  -4  -4 -14   12.40    2.90
  -4   4 -14   12.30    2.40
  -3  -5  14  -16.80  110.59
  -2  -5  14   -1.00    1.60
   2   5 -14    3.30    1.70
   2   5 -14    6.50   11.40
   1  -5 -14   -3.30    7.10
  -1  -5  14  -28.80  177.18
   1  -5 -14    4.70    3.70
   1   5 -14    3.70    2.20
   1   5 -14    4.10    2.40
   0  -5 -14   -3.50    3.60
   0  -5 -14    0.70    3.20
   0  -5  14    4.10    2.30
   0  -5 -14 -107.79   62.79
   0   5 -14    0.20    1.40
  -1  -5 -14    2.10    3.40
  -1  -5 -14    9.60    4.20
  -1  -5 -14  -79.29   72.09
   1  -5  14    7.10    3.80
  -1   5 -14    9.40    3.00
  -2  -5 -14    6.50  111.49
   2  -5  14   16.20    5.70
   2  -5  14   17.30    4.10
  -2  -5 -14    9.80    3.90
  -2  -5 -14   10.40    3.40
  -2   5 -14   17.10    3.20
  -3  -5 -14   -0.10    1.80
  -3  -5 -14 -110.99   87.49
   3  -5  14    3.80    4.20
   3  -5  14    3.60    2.20
  -3   5 -14    3.30    1.50
   2  -6 -14    5.60    2.70
   2   6 -14    6.40    2.40
   2   6 -14    4.20   12.20
   1  -6 -14    3.60    2.30
   1   6 -14    0.90    5.00
   0  -6 -14    6.20    3.20
   0  -6 -14   17.70    5.20
   0  -6  14    8.00    2.40
   0   6 -14    9.40    2.50
   1  -6  14    1.50    3.00
  -1  -6 -14    3.00    4.50
  -1  -6 -14    4.30    1.90
  -1  -6 -14  -34.10   98.39
  -1   6 -14   -0.20    1.30
  -2  -6 -14   52.19  117.09
  -4   0  15   56.39  127.39
  -3   0  15   49.10    5.70
   3   0 -15   47.60    5.90
  -3   0  15   47.70    6.60
  -3   0  15   17.00  101.89
  -2   0  15    1.10    2.00
  -2   0  15    4.00    3.00
  -2   0  15    6.90    4.70
  -2   0  15  -22.20   86.79
  -1   0  15   24.70    5.10
  -1   0  15   15.60   99.99
  -1   0  15   20.40    5.40
  -1   0  15   31.40    5.80
   0   0  15   82.09    8.80
   0   0  15   78.59    8.10
   0   0 -15   62.09    8.70
   0   0  15  139.29  272.87
   1   0  15  -34.00  162.58
  -1   0 -15   13.50    4.40
   1   0  15   23.80    4.40
   2   0  15   26.30  274.47
  -2   0 -15    1.40    2.10
   2   0  15   -1.60    3.00
  -2   0 -15   -3.90    2.60
   2   0  15   -0.20    1.70
  -2   0 -15   -0.20    1.80
  -3   0 -15    3.00    1.70
   3   0  15    1.90    2.00
   3   0  15   10.00  178.48
  -3   0 -15    2.60    2.10
  -4   0 -15    4.30    2.20
   4   0  15    2.60    1.90
  -4   0 -15    7.70    2.20
  -4  -1  15    0.30   83.89
   4  -1 -15    3.50    1.90
   4   1 -15    6.00    2.10
  -4   1  15   -8.20   88.69
  -3  -1  15 -110.29   80.29
   3  -1 -15   32.20    4.70
  -3  -1  15   26.80    4.60
  -3  -1  15   22.30    4.70
  -3   1  15   19.50    4.10
  -3   1  15   27.10    5.20
  -3   1  15   21.20   65.39
   3   1 -15   26.10    4.30
  -2  -1  15    4.20    5.20
  -2  -1  15  -83.89  102.89
  -2   1  15 -121.09   72.09
  -1  -1  15   28.80    5.30
   1  -1 -15   16.00    5.20
  -1  -1  15   22.40    5.20
  -1  -1  15    6.00  106.69
  -1  -1  15   19.40    5.50
  -1   1  15   19.80  100.39
  -1   1  15   16.20    5.00
  -1   1  15   21.80    4.60
  -1   1  15   19.60    4.10
   0  -1  15    7.50    3.70
   0  -1  15   38.10  123.69
   0  -1  15   19.00    4.30
   0  -1 -15    7.30    3.70
   0   1  15   17.80    4.10
   0   1  15    7.00    3.60
   0   1  15    7.50    2.90
   0   1  15  -28.90  120.29
   1  -1  15   42.60    7.30
  -1  -1 -15   35.10    6.00
  -1  -1 -15   34.50    6.80
   1  -1  15   35.60    5.80
   1   1  15   29.30    5.80
   1   1  15  -40.70  130.69
  -1   1 -15   39.10    4.50
   1   1  15   32.20    5.50
   2  -1  15    6.00    4.90
   2  -1  15    7.40    2.90
  -2  -1 -15   15.00    4.60
  -2  -1 -15   13.10    4.00
  -2   1 -15    4.10    3.90
  -2   1 -15    4.30    3.50
   2   1  15    3.70    2.60
  -2   1 -15   10.00    2.70
   2   1  15   56.69  139.59
   3  -1  15   -9.60  305.57
   3  -1  15    3.70    4.50
   3  -1  15    3.40    2.00
  -3  -1 -15    2.70    2.30
  -3   1 -15    8.20    3.30
  -3   1 -15    2.50    2.30
   3   1  15   -0.50    1.80
   4  -1  15   31.80    4.90
  -4  -1 -15   27.20    3.40
  -4  -1 -15   27.10    4.20
  -4   1 -15   35.50    3.60
   4   1  15   29.90    4.10
  -4  -2  15  -12.60   46.60
   4  -2 -15   14.80    2.90
  -4  -2  15   14.10    2.80
  -3  -2  15  112.69  171.58
   3  -2 -15   36.00    5.60
  -3  -2  15   32.80    5.90
  -3  -2  15   32.90    4.60
   3  -2 -15   30.80    4.70
  -3   2  15   73.69  109.99
   3   2 -15   32.50    4.90
  -3   2  15   41.50    6.00
  -2  -2  15  172.78  219.88
  -2  -2  15   34.80    5.20
  -2  -2  15   33.40    5.90
   2  -2 -15   28.90    5.90
  -2   2  15   30.20    5.80
  -2   2  15  -56.69   75.89
   2   2 -15   32.30    4.70
   1  -2 -15   11.60    4.60
  -1  -2  15  -76.09  137.59
  -1   2  15   -4.80    2.70
   1   2 -15   -0.20    3.40
  -1   2  15    0.10   71.99
   0  -2 -15   25.00    6.30
   0  -2  15   31.40    4.70
   0  -2  15   28.00    5.50
   0   2  15  -61.49   55.59
   0   2  15   30.10    5.40
   0   2 -15   27.40    4.10
   0   2  15   18.70    5.90
  -1  -2 -15   48.70  136.09
  -1  -2 -15   36.90    7.30
   1  -2  15   48.10    6.80
  -1  -2 -15   47.00    7.40
   1  -2  15   47.10    7.80
   1   2  15   47.50    6.80
   1   2  15   44.60    7.80
  -1   2 -15   52.79    5.20
   1   2  15  -52.69  125.59
   2  -2  15    1.60    5.00
  -2  -2 -15   -0.50    2.30
  -2  -2 -15  -69.59  125.29
   2  -2  15   -0.20    2.00
   2   2  15   -0.30    1.30
   3  -2  15   42.90    7.80
  -3  -2 -15   48.20    6.70
   3  -2  15   49.40    6.50
  -3   2 -15   49.10    5.00
   3   2  15   49.50    6.00
   4  -2  15   80.89  179.98
  -4  -3  15  -68.69   76.59
   4   3 -15    3.80    1.70
   3  -3 -15    6.50    3.30
   3  -3 -15    6.00    2.00
  -3  -3  15  -77.09   89.69
   2  -3 -15   11.20    4.30
  -2  -3  15    8.00    2.80
  -2  -3  15  -52.59  151.98
   2   3 -15   12.10    9.00
  -2   3  15    6.70    3.00
  -1  -3  15   11.60    3.30
  -1  -3  15  115.89  215.28
  -1  -3  15    9.60    3.50
   1  -3 -15   13.10    5.20
   1   3 -15    7.90    2.70
   1   3 -15   13.00    3.40
  -1   3  15   13.20    3.70
   0  -3 -15   88.49   10.60
   0  -3  15   82.19    8.80
   0  -3  15   91.99    8.40
   0   3 -15   77.49    7.10
   0   3  15   77.79   11.90
   0   3 -15   84.99    7.20
   0   3  15   88.99    9.10
  -1  -3 -15   57.49    8.00
   1  -3  15   70.79    8.70
   1  -3  15   53.89    6.80
  -1  -3 -15   25.50  107.09
   1   3  15   54.49    6.60
  -1   3 -15   58.29    5.90
  -2  -3 -15  177.88   14.40
   2  -3  15  185.18   12.90
   2  -3  15  176.58   14.30
  -2  -3 -15   58.49   99.19
  -2   3 -15  194.28   11.90
   2   3  15  153.48   11.60
  -3  -3 -15   94.89  142.99
   4  -3  15    4.70    2.40
   4  -3  15  -48.80  149.79
  -4  -3 -15    4.00    2.40
  -3  -4  15   71.29  119.49
  -2  -4  15   42.40  159.68
   2  -4 -15    6.90    3.10
  -2  -4  15    3.80    2.10
   2   4 -15    6.10    2.20
   2   4 -15    1.30   10.50
  -1  -4  15  186.88  196.68
   0  -4  15   16.40    3.70
   0  -4 -15    9.20    3.80
   0  -4  15   -1.60    4.00
   0   4  15   19.10    3.90
   0   4 -15   18.30    3.90
  -1  -4 -15  -80.29   95.39
  -1  -4 -15    5.00    4.90
   1  -4  15   15.00    4.80
  -2  -4 -15   28.20    5.90
   2  -4  15   20.10    6.00
  -2  -4 -15   12.90    5.70
  -2  -4 -15  -65.09   94.29
  -2   4 -15   21.60    3.80
  -3  -4 -15 -103.39   77.89
   3  -4  15    5.40    4.60
  -3  -4 -15    4.70    2.50
   3  -4  15    4.70    2.30
  -3   4 -15    1.50    1.40
   3  -5 -15    2.80    1.60
   3   5 -15    1.50    1.00
  -2  -5  15   -0.50    1.50
  -2  -5  15  -25.40  130.19
   2  -5 -15   -0.70    2.00
   2   5 -15   -0.50    1.40
   2   5 -15    1.50   11.70
  -1  -5  15 -128.59  155.18
   1  -5 -15    8.90    4.30
   1   5 -15    5.60    3.40
   0  -5 -15    6.80    3.50
   0  -5  15    2.00    2.60
   0   5 -15    6.30    2.70
  -1  -5 -15   34.50    6.50
  -1  -5 -15  -42.30  102.49
   1  -5  15   36.80    6.50
  -1  -5 -15   18.50    5.90
   2  -5  15   27.10    5.50
  -2  -5 -15   32.90    5.50
   2  -5  15   23.70    4.40
  -2  -5 -15   17.70  105.39
  -2   5 -15   28.50    3.60
  -3  -5 -15  -50.19   62.69
   1  -6 -15    5.30    2.80
   1   6 -15    0.90    6.90
   0  -6  15 -102.59  138.59
  -1  -6 -15    6.40    3.50
  -1   6 -15    8.80    2.40
  -4   0  16  -16.10   99.79
   4   0 -16    0.90    1.10
  -3   0  16   26.50    4.50
  -3   0  16   14.40    3.20
   3   0 -16   17.90    4.20
  -2   0  16  111.89   10.70
  -2   0  16   22.40   90.79
  -2   0  16  117.09    9.20
  -1   0  16    9.00    3.50
  -1   0  16 -132.39  130.49
   0   0  16   24.40    5.80
   0   0  16   24.20    5.00
   0   0  16   36.90    5.90
   0   0 -16   33.50    7.40
   0   0  16  -19.70  103.99
   1   0  16   43.80  234.38
   1   0  16    0.20    2.80
   1   0  16    2.10    2.00
  -1   0 -16    6.30    3.90
   2   0  16 -166.58  207.28
  -3   0 -16   17.80    3.00
  -3   0 -16    9.40    3.30
   3   0  16   10.90  132.79
   3   0  16   21.10    4.50
   4   0  16    3.00    1.50
  -4   0 -16   -0.70    2.00
  -4   0 -16   -1.50    1.20
  -4  -1  16    1.40    1.90
   4  -1 -16    1.20    1.40
  -4  -1  16   -3.30   66.79
  -4   1  16  -58.19   74.59
   4   1 -16    0.20    1.20
  -3  -1  16    2.00    2.30
  -3  -1  16   53.89  120.39
  -3  -1  16    0.00    1.70
   3  -1 -16   -1.60    1.30
   3   1 -16    1.70    1.70
  -3   1  16  -24.50   61.19
  -3   1  16    0.50    1.40
  -3   1  16   -2.80    2.20
  -2  -1  16   11.80    3.30
  -2  -1  16    3.50   54.99
  -2  -1  16    7.50    3.60
   2   1 -16   10.80    3.10
  -2   1  16   11.10    3.70
  -2   1  16    7.60    3.20
  -2   1  16  -30.20   40.90
   1  -1 -16   71.79    8.70
  -1  -1  16   15.10  103.29
  -1  -1  16   72.89    7.60
  -1  -1  16   74.89    8.40
  -1   1  16   60.99    6.90
  -1   1  16   73.79    8.60
  -1   1  16   60.29   10.10
  -1   1  16  -30.50  127.39
   0  -1 -16    4.70    3.90
   0  -1  16  -24.20  181.48
   0  -1  16    9.00    3.20
   0  -1  16   12.50    4.20
   0   1  16   13.20    4.50
   0   1  16   46.50  122.69
   0   1  16   18.30    3.80
   0   1  16   14.60    3.80
   1  -1  16  248.28   16.60
  -1  -1 -16  237.68   16.80
   1  -1  16  244.78   15.70
   1  -1  16   47.20  339.27
   1   1  16  244.28   17.10
   1   1  16   43.10  166.58
  -1   1 -16  221.28   12.90
  -2  -1 -16   36.10    5.60
   2  -1  16   40.60    6.10
   2  -1  16  -27.70  254.87
   2  -1  16   32.10    6.90
  -2   1 -16   29.20    4.00
   2   1  16   36.30    5.70
   2   1  16   31.40  180.78
   3  -1  16  -21.30  198.28
   4  -1  16   14.70    3.30
  -4  -1 -16   10.50    2.70
  -4   1 -16   10.50    2.10
   4   1  16    8.20    2.30
  -4  -2  16   72.19  133.49
   3  -2 -16    1.50    1.50
  -3  -2  16   -2.90    2.20
  -3  -2  16   -0.70    1.40
  -3  -2  16  -26.90  128.59
  -3   2  16    2.00    1.70
   3   2 -16    1.20    1.30
  -3   2  16  -26.60   81.19
  -2  -2  16   15.80  130.09
  -2   2  16   85.69  107.79
  -1  -2  16  115.19   10.20
  -1  -2  16  114.69    9.70
   1  -2 -16  110.99   11.10
  -1  -2  16  -34.10  115.79
  -1   2  16  118.49   10.90
  -1   2  16   96.59  134.89
   1   2 -16  112.59    9.40
   0  -2  16  -14.80  199.58
   0  -2  16  138.79   11.30
   0  -2 -16  168.08   14.20
   0  -2  16  156.88   12.30
   0   2 -16  125.79    9.30
   0   2  16  161.68   12.60
   0   2  16  197.48  176.28
   1  -2  16    1.50    3.90
   1  -2  16    2.10    2.20
  -1  -2 -16    2.10    2.30
  -1   2 -16    7.90    2.60
   1   2  16    1.10    1.60
   2  -2  16   29.40    5.60
  -2  -2 -16   27.10    5.10
   2  -2  16   19.40    5.70
   2   2  16   27.10    5.00
  -2   2 -16   21.60    3.60
  -3  -2 -16    9.80    2.80
   3  -2  16    4.60    4.20
   3  -2  16   14.50    3.70
  -3   2 -16    9.40    2.60
   3   2  16    4.00    2.50
   4  -2  16    0.60    1.60
  -4  -2 -16    2.50    1.90
  -4   2 -16    1.90    1.40
  -3  -3  16 -108.19  100.99
   3  -3 -16    5.20    3.20
  -2  -3  16 -137.89   86.79
   2  -3 -16   -0.90    2.10
  -2  -3  16    0.80    2.00
  -2  -3  16   -0.40    3.20
   2   3 -16   -0.10    1.80
  -2   3  16    2.60    2.20
   1  -3 -16   18.20    4.90
  -1  -3  16   11.50    3.40
  -1  -3  16  161.38  203.58
  -1  -3  16   17.70    4.50
   1   3 -16    6.90    3.30
  -1   3  16   12.00    3.60
   1   3 -16   18.90    3.80
   0  -3  16   29.20  221.38
   0  -3  16  120.29   10.30
   0  -3 -16  135.69   13.00
   0  -3  16  115.69   10.10
   0   3  16  139.99   11.40
   0   3 -16  130.09    8.80
   0   3 -16  120.59    9.10
   1  -3  16    9.40    3.20
   1  -3  16    9.10    4.50
  -1  -3 -16    6.20    3.40
   1   3  16   11.40    3.30
  -1   3 -16   12.70    2.70
  -2  -3 -16   54.79    7.30
   2  -3  16   53.39    8.70
  -2  -3 -16  164.78  155.88
   2  -3  16   54.19    7.10
  -2   3 -16   48.30    5.30
   2   3  16   52.89    5.70
  -3  -3 -16    1.10    1.80
   3  -3  16    0.00    1.80
   3  -3  16    4.30    3.70
  -3   3 -16    4.10    1.70
  -3  -4  16    5.90  102.29
   3  -4 -16    7.30    2.30
   3   4 -16    5.30    2.00
  -2  -4  16  -47.80  145.49
   2  -4 -16   12.40    3.80
   2   4 -16    6.80    2.30
   2   4 -16    5.90   10.60
   1  -4 -16   34.90    6.90
  -1  -4  16   43.30    5.00
  -1  -4  16  -28.30  123.99
   1   4 -16   38.30    4.50
   1   4 -16   49.30    5.80
  -1   4  16   36.20    5.10
   0  -4 -16    0.70    1.90
   0  -4  16    2.10    3.60
   0  -4  16   -0.50    2.70
   0  -4  16  -61.49  203.88
   0   4  16   -1.70    1.90
   0   4 -16   -0.50    1.80
   1  -4  16   90.59    9.00
  -1  -4 -16   95.79   10.70
   1  -4  16   88.19    7.90
  -1   4 -16   73.89    6.70
   2  -4  16   13.10    5.00
  -2  -4 -16   15.50    4.10
  -2  -4 -16   75.29  122.89
   2  -4  16   14.30    3.50
  -2   4 -16   15.10    2.70
  -3  -4 -16    4.90    2.30
   3  -4  16    3.20    1.80
  -3   4 -16    1.20    1.40
   2  -5 -16    0.70    2.20
  -2  -5  16  -98.29   95.99
   2   5 -16    1.90    1.60
   1  -5 -16   -1.30    1.70
  -1  -5  16    0.80    1.50
  -1  -5  16  -35.60  166.38
   1   5 -16   -6.70    5.50
   0  -5  16  -99.69  143.99
   1  -5  16    2.60    3.10
  -1  -5 -16    7.30    3.20
  -1   5 -16    7.80    2.10
   2  -5  16    6.60    2.70
  -2  -5 -16    7.10    3.00
  -2   5 -16    7.50    1.80
   0  -6  16   50.19  120.29
  -4   0  17   48.10   68.69
  -3   0  17   33.00   80.49
  -2   0  17   43.10    6.00
  -2   0  17   38.50    5.00
  -2   0  17   43.50  122.79
  -1   0  17   18.60  165.38
   0   0  17  -51.09  102.89
   1   0  17   12.00  191.68
   2   0  17    4.40    2.40
  -2   0 -17    0.10    2.80
   2   0  17   -8.80  166.18
   3   0  17    4.10    2.20
  -3   0 -17    5.60    3.00
   4   0  17    1.40    1.20
   4  -1 -17   13.30    2.20
  -4  -1  17   39.80   79.59
   4   1 -17   16.90    2.60
  -3  -1  17   -0.70  100.49
   3  -1 -17   26.80    4.00
  -3  -1  17   25.90    4.10
  -3  -1  17   28.60    4.40
  -3   1  17   22.60   92.29
  -3   1  17   22.90    4.50
   3   1 -17   22.00    3.70
  -2  -1  17  -21.00  113.39
  -2   1  17  -74.09   68.19
  -1  -1  17    3.90    2.50
  -1  -1  17  -48.90  100.09
  -1  -1  17    8.70    3.30
   1  -1 -17    4.90    4.40
  -1   1  17    8.50    3.20
  -1   1  17    7.40    3.40
   0  -1  17   95.29  216.88
   0   1  17   91.59  161.88
  -1  -1 -17   49.20    7.10
   1  -1  17   53.19    6.90
   1  -1  17   37.10  307.47
   1  -1  17   46.40    6.90
   1   1  17  -13.30  121.49
   1   1  17   56.89    7.20
   2  -1  17    5.00    2.30
   2  -1  17    4.10    3.60
   2  -1  17   16.70  270.17
  -2   1 -17    5.00    2.30
   2   1  17    2.60    2.00
   3  -1  17  -89.69  116.09
  -3  -1 -17    8.10    2.90
  -3   1 -17    3.20    1.80
   3   1  17    6.40    2.40
  -4  -1 -17   -0.30    2.00
   4  -1  17    0.80    1.40
  -4   1 -17   -1.60    1.40
  -3  -2  17   52.99    5.20
   3  -2 -17   55.79    5.00
  -3  -2  17  -16.60  107.29
   3   2 -17   57.09    5.70
  -2  -2  17   94.69  151.48
  -2  -2  17   24.20    4.40
  -2  -2  17   30.40    4.90
   2   2 -17   25.30    4.00
  -2   2  17   20.10    4.40
  -2   2  17  -18.70  118.99
  -1  -2  17  136.69   10.70
  -1  -2  17  111.59    9.50
   1  -2 -17  117.89   11.20
  -1  -2  17  136.19  246.08
   1   2 -17  121.59    9.40
  -1   2  17  125.69   11.40
  -1   2  17   99.59  133.19
   0  -2  17   16.10    4.60
   0  -2  17   25.50    4.60
   0  -2 -17   13.70    4.10
   0  -2  17   58.99  239.28
   0   2  17   16.10  142.89
   0   2  17   10.60    3.80
   1  -2  17 -177.98  237.88
  -1  -2 -17    7.40    3.70
   1  -2  17    4.60    4.20
  -1   2 -17    5.20    2.10
  -2  -2 -17    0.60    1.80
   2  -2  17  -23.00  329.27
   2  -2  17    2.20    3.90
   2  -2  17    0.10    1.80
  -2   2 -17   -0.80    1.20
   2   2  17    1.60    1.80
   3  -2  17    3.50    1.70
   3  -2  17  -86.99  190.18
  -3  -2 -17    3.80    2.20
   3   2  17    3.70    1.90
  -3   2 -17    3.50    1.80
  -3  -3  17  -80.29   87.89
   2  -3 -17    3.10    2.70
  -2  -3  17    6.10    3.80
  -2  -3  17    2.60    2.10
  -2  -3  17   23.90  141.39
   2   3 -17    3.90    2.10
  -2   3  17    3.30    1.70
   1  -3 -17    2.70    3.50
  -1  -3  17  117.09  195.08
  -1  -3  17    5.90    2.70
  -1  -3  17    9.70    3.00
   1   3 -17    2.60    5.50
  -1   3  17   12.50    3.60
   1   3 -17   11.00    2.70
   0  -3  17    2.50    3.40
   0  -3  17  -73.79  178.18
   0  -3 -17    4.70    2.70
   0  -3  17    2.00    2.60
   0   3  17    2.50    1.90
   0   3 -17    0.60    2.20
   1  -3  17    2.90    2.40
   1  -3  17   -0.50    3.60
   1   3  17   -2.60    1.50
  -1   3 -17    2.80    1.80
   2  -3  17    8.10    2.90
   2  -3  17   10.50    4.60
  -2  -3 -17   12.10    3.80
  -2   3 -17    7.50    2.30
   2   3  17   11.90    3.10
   3  -3  17    9.20  238.38
   3  -3  17    8.30    2.70
  -3  -3 -17   11.80    3.20
  -3   3 -17    7.00    1.70
  -2  -4  17  -31.60  107.49
   2  -4 -17    7.20    3.10
   1  -4 -17   31.20    5.90
  -1  -4  17   -2.90  140.59
   1   4 -17   19.30    3.30
   1   4 -17   22.60    7.20
   0  -4  17  107.69  236.68
   1  -4  17    5.20    2.70
  -1  -4 -17    6.60    2.80
   1  -4  17    2.60    3.30
   2  -4  17    3.40    3.30
  -2  -4 -17    0.60    1.50
   2  -4  17    1.20    1.90
  -2   4 -17    2.70    1.20
  -1  -5  17  101.19  137.29
   0  -5  17  199.08  216.18
   1  -5  17   42.30  213.48
   3   0 -18    4.00    1.40
  -3   0  18    5.70    2.10
  -3   0  18   11.40  103.39
  -2   0  18    1.20    2.30
  -2   0  18   24.50   80.99
  -2   0  18    5.50    2.40
  -1   0  18   33.60  134.49
   0   0  18  -22.90  152.88
   1   0  18   49.99  154.48
   2   0  18   89.79  159.78
   3   0  18   15.60    3.10
  -3  -1  18   55.59   89.69
  -3   1  18  113.59  107.29
  -2  -1  18  -29.60  102.69
  -2  -1  18    2.10    2.40
  -2  -1  18    1.30    1.50
  -2   1  18    4.30    2.40
  -2   1  18    5.50    5.10
   2   1 -18    4.10    2.10
  -2   1  18   17.50   89.39
  -1  -1  18  -28.80   93.59
  -1  -1  18    6.00    2.60
  -1   1  18  -63.69   55.79
  -1   1  18    6.90    3.80
  -1   1  18    6.00    2.80
   0  -1 -18    3.00    3.60
   0  -1  18   74.79  247.98
   0  -1  18    3.50    2.60
   0  -1  18    0.40    1.90
   0   1  18  -15.80   98.99
   0   1  18    0.50    1.90
   1  -1  18    3.70    2.20
   1  -1  18    1.10    2.80
  -1  -1 -18   -0.90    2.50
   1  -1  18  -90.79  161.88
   1   1  18    3.70    2.30
   1   1  18  -94.69  105.49
   2  -1  18    5.00    3.70
   2  -1  18   11.50    3.50
  -2  -1 -18   15.60    3.80
   2  -1  18   13.90  178.78
   2   1  18    6.90    2.40
   3  -1  18    2.60    1.60
  -3  -1 -18    6.30    2.50
   3   1  18   -1.10    1.30
  -3  -2  18   23.20   99.29
   3  -2 -18   14.30    2.60
  -2  -2  18    5.80   57.49
  -2  -2  18    3.00    1.90
  -2  -2  18    2.60    2.00
  -2   2  18    1.20    1.90
   2   2 -18    2.30    1.60
  -1  -2  18  108.39  222.68
  -1   2  18   29.00   95.29
   0  -2 -18   10.30    3.40
   0  -2  18    5.30    3.10
   0  -2  18    3.90    2.70
   0  -2  18   46.70  203.18
   0   2  18    7.70    3.00
   0   2 -18    3.70    2.10
   1  -2  18  222.58  323.57
   2  -2  18    4.80    3.10
   2  -2  18    2.60    1.90
  -2  -2 -18    7.60    3.20
   2  -2  18 -126.99  197.38
  -2   2 -18   -0.40    1.70
   3  -2  18   36.00  101.09
   2  -3 -18   -1.30    2.40
  -2  -3  18    5.40    3.10
  -2  -3  18   30.30  121.19
  -2  -3  18   -1.20    1.50
   2   3 -18    3.40    1.40
  -2   3  18    2.90    1.50
  -1  -3  18   87.29  134.29
   0  -3  18   10.10    3.40
   0  -3  18 -144.39  134.09
   1  -3  18  -91.99  233.78
   2  -3  18  -13.20  197.58
  -2  -3 -18    5.10    2.40
  -2  -4  18   52.39  103.99
   2   4 -18   19.30    2.60
  -1  -4  18  -57.99  110.79
   1  -4 -18    1.50    2.70
   1   4 -18    3.60    2.00
   0  -4  18    2.70    2.30
   0  -4  18    2.10  159.98
   0  -4 -18    1.90    2.30
   0   4 -18    6.90    2.60
  -1  -4 -18    6.00    2.70
   1  -4  18 -181.88  148.99
   1  -4  18    3.90    2.60
   1  -4  18    0.80    2.30
  -1   4 -18    1.20    1.30
   2  -4  18  108.89  215.88
  -3   0  19   13.60   70.89
   2   0 -19    8.60    2.70
  -2   0  19    4.80    2.10
  -2   0  19   11.10   77.99
  -1   0  19    1.30    2.20
  -1   0  19  -31.80   54.89
  -1   0  19    2.10    1.70
   0   0  19   10.70    3.40
   0   0  19   -2.40  106.59
   0   0  19   21.40    4.10
   1   0  19  -88.99   79.69
   2   0  19   13.90    3.30
   3   0  19    1.10    1.50
  -2  -1  19    6.30    2.40
   2  -1 -19    3.70    1.70
  -2  -1  19    5.60    2.00
  -2  -1  19  126.49  165.88
  -2   1  19  -82.29   62.09
  -2   1  19    0.80    2.00
   2   1 -19    8.20    2.10
  -1  -1  19   13.40    3.10
  -1  -1  19   16.30    3.70
  -1  -1  19  -57.39   78.39
  -1   1  19  107.09  147.19
   1   1 -19   11.10    2.80
  -1   1  19   20.20    4.20
   0  -1  19   29.00  128.09
   0   1  19   80.19  129.69
   1  -1  19   48.80  162.18
   2  -1  19   52.09  142.09
  -2  -2  19    8.00    2.60
  -2  -2  19   18.10  103.09
  -2  -2  19    1.60    2.40
   2   2 -19    3.30    1.80
  -1  -2  19   71.49  147.89
   0  -2 -19    2.20    2.80
   0  -2  19    5.40    2.30
   0  -2  19    2.10    2.50
   0  -2  19  -53.79  132.49
   0   2 -19    1.90    1.90
   0   2  19    1.00    2.00
   1  -2  19    4.60    2.70
   1  -2  19   58.79  200.98
  -1  -2 -19   10.30    3.10
   1  -2  19    3.20    2.10
   1   2  19    8.10    2.40
   2  -2  19  -61.89  134.69
  -2  -3  19   41.60   95.29
  -1  -3  19    0.80    1.60
   1  -3 -19    6.20    2.60
  -1  -3  19   -0.40  103.59
  -1  -3  19   -3.00    2.10
  -1   3  19   -0.90    1.10
   1   3 -19    1.90    1.30
   0  -3  19    7.00  157.08
   0  -3 -19    2.20    2.50
   0  -3  19    7.40    2.70
   0  -3  19    3.90    2.20
   0   3  19    5.20    2.00
   1  -3  19  -16.00  159.78
   2  -3  19   -0.90    1.20
  -2  -3 -19    1.60    1.70
   2  -3  19  -22.00  149.29
   0  -4  19   22.30   80.79
  -2   0  20   11.80   80.49
  -1   0  20   -3.80   76.99
  -1   0  20   -0.20    1.50
   1   0 -20    3.10    1.40
   0   0  20  -17.30   94.99
   0   0  20    3.20    2.20
   1   0  20    0.20    1.40
   1   0  20  -26.90   82.99
   2   0  20    6.10    1.90
  -2  -1  20   91.49  109.39
  -1  -1  20  104.99  142.29
  -1  -1  20   31.00    4.50
   1   1 -20   28.00    3.90
  -1   1  20   31.40    4.40
   0  -1  20   37.80  106.79
   1  -1  20   56.79  141.19
   2  -1  20    4.20    2.00
   2   1  20    4.50    1.80
  -1  -2  20    4.00    1.80
  -1  -2  20   32.60   73.29
  -1   2  20    3.10    2.00
   1   2 -20    6.20    1.60
   0  -2  20  -19.50   91.69
   1  -2  20   -0.50    1.40
   1  -2  20    0.20  102.39
   1   2  20    1.60    1.30
   0  -3  20   24.30  114.79
   0  -3  20    7.50    2.40
   0   0 -21   -1.00    0.80
   0   0  21    1.20    1.50
   0  -1  21  -32.10   38.70
   0  -1  21    0.80    1.20
   0   1  21    0.50    1.30
   0   1 -21   -0.10    1.30
   0   0   0    0.00    0.00

_computing_structure_solution     'SHELXT 2014/5 (Sheldrick, 2014)'
;
_shelx_hkl_checksum              15240
loop_
_space_group_symop_operation_xyz
'x, y, z'
'-x, y+1/2, -z'
loop_
_atom_site_label
_atom_site_type_symbol
_atom_site_fract_x
_atom_site_fract_y
_atom_site_fract_z
_atom_site_U_iso_or_equiv
_atom_site_adp_type
_atom_site_occupancy
_atom_site_site_symmetry_order
_atom_site_calc_flag
_atom_site_refinement_flags_posn
_atom_site_refinement_flags_adp
_atom_site_refinement_flags_occupancy
_atom_site_disorder_assembly
_atom_site_disorder_group
C1 C 0.7503(4) 0.3449(3) 0.51244(15) 0.0486(6) Uani 1 1 d . . . . .
N1 N 0.2429(6) 0.1570(5) 0.14901(17) 0.0909(10) Uani 1 1 d . . . . .
N2 N 1.2027(8) 0.7816(6) 0.0023(2) 0.1119(12) Uani 1 1 d . . . . .
C2 C 0.5923(6) 0.4237(4) 0.56135(19) 0.0688(9) Uani 1 1 d . . . . .
H2 H 0.459979 0.477554 0.541080 0.083 Uiso 1 1 calc R U . . .
C4 C 0.8170(6) 0.3468(4) 0.67067(19) 0.0685(8) Uani 1 1 d . . . . .
H4 H 0.839395 0.347684 0.723043 0.082 Uiso 1 1 calc R U . . .
C3 C 0.6246(6) 0.4250(5) 0.63902(19) 0.0749(9) Uani 1 1 d . . . . .
H3 H 0.514978 0.479374 0.670056 0.090 Uiso 1 1 calc R U . . .
C5 C 0.9761(6) 0.2673(5) 0.62406(19) 0.0735(9) Uani 1 1 d . . . . .
H5 H 1.107670 0.213772 0.644979 0.088 Uiso 1 1 calc R U . . .
C7 C 0.7139(4) 0.3438(3) 0.42862(15) 0.0476(6) Uani 1 1 d . . . . .
C6 C 0.9434(5) 0.2655(4) 0.54641(17) 0.0661(8) Uani 1 1 d . . . . .
H6 H 1.053347 0.209868 0.515929 0.079 Uiso 1 1 calc R U . . .
C8 C 0.5164(5) 0.4177(4) 0.39503(18) 0.0637(8) Uani 1 1 d . . . . .
H8 H 0.403389 0.468845 0.425847 0.076 Uiso 1 1 calc R U . . .
C9 C 0.4833(5) 0.4173(4) 0.31752(17) 0.0649(8) Uani 1 1 d . . . . .
H9 H 0.348887 0.468258 0.297279 0.078 Uiso 1 1 calc R U . . .
C10 C 0.6457(4) 0.3428(3) 0.26904(15) 0.0511(6) Uani 1 1 d . . . . .
C11 C 0.8413(5) 0.2676(4) 0.30145(16) 0.0617(7) Uani 1 1 d . . . . .
H11 H 0.953233 0.215847 0.270387 0.074 Uiso 1 1 calc R U . . .
C12 C 0.8743(5) 0.2676(4) 0.37934(17) 0.0618(8) Uani 1 1 d . . . . .
H12 H 1.007848 0.215058 0.399381 0.074 Uiso 1 1 calc R U . . .
C13 C 0.6102(5) 0.3440(4) 0.18367(16) 0.0596(7) Uani 1 1 d . . . . .
H13 H 0.748658 0.290556 0.160381 0.071 Uiso 1 1 calc R U . . .
C14 C 0.5815(6) 0.5269(4) 0.14970(18) 0.0655(8) Uani 1 1 d . . . . .
H14A H 0.557124 0.517096 0.095296 0.079 Uiso 1 1 calc R U . . .
H14B H 0.443182 0.581127 0.171333 0.079 Uiso 1 1 calc R U . . .
C15 C 0.7947(6) 0.6425(5) 0.1647(2) 0.0758(10) Uani 1 1 d . . . . .
H15A H 0.823910 0.646942 0.218964 0.091 Uiso 1 1 calc R U . . .
H15B H 0.931378 0.590845 0.140821 0.091 Uiso 1 1 calc R U . . .
C16 C 0.7641(7) 0.8262(5) 0.1350(2) 0.0901(11) Uani 1 1 d . . . . .
H16A H 0.611032 0.868747 0.150364 0.108 Uiso 1 1 calc R U . . .
H16B H 0.881725 0.900057 0.158462 0.108 Uiso 1 1 calc R U . . .
C17 C 0.7846(7) 0.8417(6) 0.0494(2) 0.0913(12) Uani 1 1 d . . . . .
H17A H 0.676663 0.760574 0.025725 0.110 Uiso 1 1 calc R U . . .
H17B H 0.738744 0.957976 0.034191 0.110 Uiso 1 1 calc R U . . .
C18 C 1.0172(9) 0.8078(5) 0.0225(2) 0.0815(11) Uani 1 1 d . . . . .
C19 C 0.4045(6) 0.2382(4) 0.16330(18) 0.0650(8) Uani 1 1 d . . . . .
loop_
_atom_site_aniso_label
_atom_site_aniso_U_11
_atom_site_aniso_U_22
_atom_site_aniso_U_33
_atom_site_aniso_U_23
_atom_site_aniso_U_13
_atom_site_aniso_U_12
C1 0.0465(15) 0.0416(13) 0.0577(18) 0.0018(13) 0.0005(12) -0.0026(12)
N1 0.096(2) 0.095(2) 0.081(2) -0.0181(16) 0.0053(17) -0.0308(18)
N2 0.101(3) 0.124(3) 0.110(3) -0.004(2) 0.017(2) -0.015(2)
C2 0.068(2) 0.074(2) 0.065(2) -0.0018(16) -0.0027(15) 0.0199(16)
C4 0.081(2) 0.0676(19) 0.0570(19) 0.0004(16) -0.0069(16) -0.0062(18)
C3 0.083(2) 0.083(2) 0.059(2) -0.0100(18) 0.0073(16) 0.0161(19)
C5 0.069(2) 0.088(2) 0.063(2) 0.0063(18) -0.0107(16) 0.0126(18)
C7 0.0477(15) 0.0404(13) 0.0547(16) 0.0011(12) 0.0026(11) -0.0020(12)
C6 0.0609(19) 0.073(2) 0.064(2) 0.0022(16) 0.0002(14) 0.0151(16)
C8 0.0586(19) 0.0698(18) 0.063(2) -0.0016(16) 0.0031(14) 0.0172(15)
C9 0.0607(19) 0.0742(19) 0.0598(19) 0.0012(16) -0.0025(14) 0.0185(15)
C10 0.0518(16) 0.0486(14) 0.0531(17) 0.0010(12) 0.0051(12) -0.0029(13)
C11 0.0566(18) 0.0713(19) 0.0572(18) -0.0042(15) 0.0083(13) 0.0103(14)
C12 0.0533(17) 0.0702(18) 0.0620(19) -0.0005(15) 0.0012(13) 0.0159(14)
C13 0.0604(17) 0.0618(17) 0.0565(17) -0.0025(14) 0.0024(13) -0.0062(14)
C14 0.076(2) 0.0637(18) 0.0567(18) 0.0053(14) -0.0046(15) -0.0063(14)
C15 0.094(3) 0.074(2) 0.059(2) 0.0088(15) -0.0088(17) -0.0214(18)
C16 0.105(3) 0.069(2) 0.096(3) 0.000(2) 0.018(2) -0.019(2)
C17 0.081(3) 0.092(3) 0.101(3) 0.041(2) 0.000(2) -0.003(2)
C18 0.083(3) 0.087(3) 0.074(2) 0.0111(18) 0.0037(19) -0.018(2)
C19 0.073(2) 0.0628(18) 0.0594(19) -0.0054(14) 0.0051(14) -0.0056(17)
loop_
_atom_type_symbol
_atom_type_description
_atom_type_scat_dispersion_real
_atom_type_scat_dispersion_imag
_atom_type_scat_source
C C 0.0181 0.0091 'International Tables Vol C Tables 4.2.6.8 and 6.1.1.4'
H H 0.0000 0.0000 'International Tables Vol C Tables 4.2.6.8 and 6.1.1.4'
N N 0.0311 0.0180 'International Tables Vol C Tables 4.2.6.8 and 6.1.1.4'
loop_
_geom_angle_atom_site_label_1
_geom_angle_atom_site_label_2
_geom_angle_atom_site_label_3
_geom_angle
_geom_angle_site_symmetry_1
_geom_angle_site_symmetry_3
_geom_angle_publ_flag
C2 C1 C6 116.0(3) . . ?
C2 C1 C7 121.9(2) . . ?
C6 C1 C7 122.1(2) . . ?
C3 C2 C1 122.2(3) . . ?
C3 C2 H2 118.9 . . ?
C1 C2 H2 118.9 . . ?
C3 C4 C5 118.9(3) . . ?
C3 C4 H4 120.5 . . ?
C5 C4 H4 120.5 . . ?
C4 C3 C2 120.4(3) . . ?
C4 C3 H3 119.8 . . ?
C2 C3 H3 119.8 . . ?
C4 C5 C6 120.7(3) . . ?
C4 C5 H5 119.6 . . ?
C6 C5 H5 119.6 . . ?
C12 C7 C8 116.0(3) . . ?
C12 C7 C1 122.0(2) . . ?
C8 C7 C1 121.9(2) . . ?
C5 C6 C1 121.8(3) . . ?
C5 C6 H6 119.1 . . ?
C1 C6 H6 119.1 . . ?
C9 C8 C7 121.9(3) . . ?
C9 C8 H8 119.0 . . ?
C7 C8 H8 119.0 . . ?
C8 C9 C10 121.4(2) . . ?
C8 C9 H9 119.3 . . ?
C10 C9 H9 119.3 . . ?
C11 C10 C9 117.4(2) . . ?
C11 C10 C13 121.3(2) . . ?
C9 C10 C13 121.4(2) . . ?
C10 C11 C12 121.2(3) . . ?
C10 C11 H11 119.4 . . ?
C12 C11 H11 119.4 . . ?
C11 C12 C7 122.0(3) . . ?
C11 C12 H12 119.0 . . ?
C7 C12 H12 119.0 . . ?
C19 C13 C10 110.0(3) . . ?
C19 C13 C14 109.2(2) . . ?
C10 C13 C14 113.9(3) . . ?
C19 C13 H13 107.8 . . ?
C10 C13 H13 107.8 . . ?
C14 C13 H13 107.8 . . ?
C15 C14 C13 112.5(2) . . ?
C15 C14 H14A 109.1 . . ?
C13 C14 H14A 109.1 . . ?
C15 C14 H14B 109.1 . . ?
C13 C14 H14B 109.1 . . ?
H14A C14 H14B 107.8 . . ?
C16 C15 C14 113.2(3) . . ?
C16 C15 H15A 108.9 . . ?
C14 C15 H15A 108.9 . . ?
C16 C15 H15B 108.9 . . ?
C14 C15 H15B 108.9 . . ?
H15A C15 H15B 107.8 . . ?
C17 C16 C15 114.0(4) . . ?
C17 C16 H16A 108.8 . . ?
C15 C16 H16A 108.8 . . ?
C17 C16 H16B 108.8 . . ?
C15 C16 H16B 108.8 . . ?
H16A C16 H16B 107.7 . . ?
C18 C17 C16 112.8(3) . . ?
C18 C17 H17A 109.0 . . ?
C16 C17 H17A 109.0 . . ?
C18 C17 H17B 109.0 . . ?
C16 C17 H17B 109.0 . . ?
H17A C17 H17B 107.8 . . ?
N2 C18 C17 178.9(4) . . ?
N1 C19 C13 178.5(4) . . ?
loop_
_geom_bond_atom_site_label_1
_geom_bond_atom_site_label_2
_geom_bond_distance
_geom_bond_site_symmetry_2
_geom_bond_publ_flag
C1 C2 1.387(4) . ?
C1 C6 1.391(3) . ?
C1 C7 1.489(3) . ?
N1 C19 1.140(4) . ?
N2 C18 1.133(5) . ?
C2 C3 1.379(4) . ?
C2 H2 0.9300 . ?
C4 C3 1.367(4) . ?
C4 C5 1.368(5) . ?
C4 H4 0.9300 . ?
C3 H3 0.9300 . ?
C5 C6 1.379(4) . ?
C5 H5 0.9300 . ?
C7 C12 1.390(4) . ?
C7 C8 1.391(4) . ?
C6 H6 0.9300 . ?
C8 C9 1.376(4) . ?
C8 H8 0.9300 . ?
C9 C10 1.384(4) . ?
C9 H9 0.9300 . ?
C10 C11 1.378(4) . ?
C10 C13 1.515(4) . ?
C11 C12 1.383(4) . ?
C11 H11 0.9300 . ?
C12 H12 0.9300 . ?
C13 C19 1.470(4) . ?
C13 C14 1.538(5) . ?
C13 H13 0.9800 . ?
C14 C15 1.527(4) . ?
C14 H14A 0.9700 . ?
C14 H14B 0.9700 . ?
C15 C16 1.518(6) . ?
C15 H15A 0.9700 . ?
C15 H15B 0.9700 . ?
C16 C17 1.516(6) . ?
C16 H16A 0.9700 . ?
C16 H16B 0.9700 . ?
C17 C18 1.431(6) . ?
C17 H17A 0.9700 . ?
C17 H17B 0.9700 . ?
loop_
_geom_torsion_atom_site_label_1
_geom_torsion_atom_site_label_2
_geom_torsion_atom_site_label_3
_geom_torsion_atom_site_label_4
_geom_torsion
_geom_torsion_site_symmetry_1
_geom_torsion_site_symmetry_2
_geom_torsion_site_symmetry_3
_geom_torsion_site_symmetry_4
_geom_torsion_publ_flag
C6 C1 C2 C3 0.5(5) . . . . ?
C7 C1 C2 C3 179.9(3) . . . . ?
C5 C4 C3 C2 -0.1(5) . . . . ?
C1 C2 C3 C4 -0.1(5) . . . . ?
C3 C4 C5 C6 -0.1(5) . . . . ?
C2 C1 C7 C12 178.8(3) . . . . ?
C6 C1 C7 C12 -1.9(4) . . . . ?
C2 C1 C7 C8 -1.7(4) . . . . ?
C6 C1 C7 C8 177.6(3) . . . . ?
C4 C5 C6 C1 0.5(5) . . . . ?
C2 C1 C6 C5 -0.7(5) . . . . ?
C7 C1 C6 C5 179.9(3) . . . . ?
C12 C7 C8 C9 -0.8(4) . . . . ?
C1 C7 C8 C9 179.7(3) . . . . ?
C7 C8 C9 C10 0.1(5) . . . . ?
C8 C9 C10 C11 0.5(4) . . . . ?
C8 C9 C10 C13 -179.4(3) . . . . ?
C9 C10 C11 C12 -0.4(4) . . . . ?
C13 C10 C11 C12 179.6(3) . . . . ?
C10 C11 C12 C7 -0.4(5) . . . . ?
C8 C7 C12 C11 0.9(4) . . . . ?
C1 C7 C12 C11 -179.6(3) . . . . ?
C11 C10 C13 C19 114.5(3) . . . . ?
C9 C10 C13 C19 -65.6(4) . . . . ?
C11 C10 C13 C14 -122.6(3) . . . . ?
C9 C10 C13 C14 57.4(4) . . . . ?
C19 C13 C14 C15 -176.9(3) . . . . ?
C10 C13 C14 C15 59.7(4) . . . . ?
C13 C14 C15 C16 -177.1(3) . . . . ?
C14 C15 C16 C17 -74.7(4) . . . . ?
C15 C16 C17 C18 -67.7(5) . . . . ?
