#------------------------------------------------------------------------------
#$Date: 2022-04-03 23:34:41 +0300 (Sun, 03 Apr 2022) $
#$Revision: 274276 $
#$URL: file:///home/coder/svn-repositories/cod/cif/4/51/94/4519425.cif $
#------------------------------------------------------------------------------
#
# This file is available in the Crystallography Open Database (COD),
# http://www.crystallography.net/
#
# All data on this site have been placed in the public domain by the
# contributors.
#
data_4519425
loop_
_publ_author_name
'Zhang, Xiaodong'
'Cao, Dongxu'
'Yang, Daqing'
'Wang, Ying'
'Wu, Kui'
'Lee, Ming-Hsien'
'Zhang, Bingbing'
_publ_section_title
;
 Finding the First Squarates Nonlinear Optical Crystal NaHC4O4&#x00B7;H2O
 with Strong Second Harmonic Generation and Giant Birefringence
;
_journal_name_full               'ACS Materials Letters'
_journal_page_first              572
_journal_page_last               576
_journal_paper_doi               10.1021/acsmaterialslett.2c00114
_journal_year                    2022
_chemical_formula_sum            'C4 H3 Na O5'
_chemical_formula_weight         154.05
_space_group_crystal_system      monoclinic
_space_group_IT_number           7
_space_group_name_Hall           'P -2yc'
_space_group_name_H-M_alt        'P 1 c 1'
_atom_sites_solution_hydrogens   difmap
_audit_creation_method           SHELXL-2018/3
_cell_angle_alpha                90
_cell_angle_beta                 97.981(6)
_cell_angle_gamma                90
_cell_formula_units_Z            2
_cell_length_a                   3.6294(6)
_cell_length_b                   8.1444(13)
_cell_length_c                   9.4044(16)
_cell_measurement_temperature    273(2)
_cell_volume                     275.29(8)
_computing_structure_refinement  'SHELXL-2018/3 (Sheldrick, 2018)'
_computing_structure_solution    'SHELXT 2018/2 (Sheldrick, 2018)'
_diffrn_ambient_temperature      273(2)
_diffrn_measured_fraction_theta_full 0.994
_diffrn_measured_fraction_theta_max 0.995
_diffrn_radiation_type           MoK\a
_diffrn_radiation_wavelength     0.71073
_diffrn_reflns_av_R_equivalents  0.0215
_diffrn_reflns_av_unetI/netI     0.0127
_diffrn_reflns_Laue_measured_fraction_full 0.994
_diffrn_reflns_Laue_measured_fraction_max 0.995
_diffrn_reflns_limit_h_max       4
_diffrn_reflns_limit_h_min       -4
_diffrn_reflns_limit_k_max       10
_diffrn_reflns_limit_k_min       -10
_diffrn_reflns_limit_l_max       12
_diffrn_reflns_limit_l_min       -12
_diffrn_reflns_number            8945
_diffrn_reflns_point_group_measured_fraction_full 0.995
_diffrn_reflns_point_group_measured_fraction_max 0.996
_diffrn_reflns_theta_full        25.242
_diffrn_reflns_theta_max         27.453
_diffrn_reflns_theta_min         2.501
_exptl_absorpt_coefficient_mu    0.237
_exptl_crystal_density_diffrn    1.858
_exptl_crystal_F_000             156
_refine_diff_density_max         0.280
_refine_diff_density_min         -0.160
_refine_diff_density_rms         0.035
_refine_ls_abs_structure_details
;
 Refined as an inversion twin.
;
_refine_ls_abs_structure_Flack   0.2(4)
_refine_ls_extinction_method     none
_refine_ls_goodness_of_fit_ref   1.060
_refine_ls_hydrogen_treatment    refxyz
_refine_ls_matrix_type           full
_refine_ls_number_parameters     101
_refine_ls_number_reflns         1263
_refine_ls_number_restraints     5
_refine_ls_restrained_S_all      1.059
_refine_ls_R_factor_all          0.0216
_refine_ls_R_factor_gt           0.0209
_refine_ls_shift/su_max          0.000
_refine_ls_shift/su_mean         0.000
_refine_ls_structure_factor_coef Fsqd
_refine_ls_weighting_details
'w=1/[\s^2^(Fo^2^)+(0.0358P)^2^+0.0221P] where P=(Fo^2^+2Fc^2^)/3'
_refine_ls_weighting_scheme      calc
_refine_ls_wR_factor_gt          0.0550
_refine_ls_wR_factor_ref         0.0557
_reflns_Friedel_coverage         0.986
_reflns_Friedel_fraction_full    0.996
_reflns_Friedel_fraction_max     0.997
_reflns_number_gt                1226
_reflns_number_total             1263
_reflns_threshold_expression     'I > 2\s(I)'
_cod_data_source_file            tz2c00114_si_002.cif
_cod_data_source_block           1
_cod_original_sg_symbol_H-M      'P c'
_cod_database_code               4519425
_shelx_shelxl_version_number     2018/3
_shelx_space_group_comment
;
The symmetry employed for this shelxl refinement is uniquely defined
by the following loop, which should always be used as a source of
symmetry information in preference to the above space-group names.
They are only intended as comments.
;
_shelx_res_file
;
TITL 1_a.res in Pc
    1.res
    created by SHELXL-2018/3 at 16:24:27 on 17-Aug-2021
REM Old TITL 1 in P2/c
REM SHELXT solution in Pc: R1 0.087, Rweak 0.006, Alpha 0.003
REM <I/s> 0.869 for 42 systematic absences, Orientation as input
REM Flack x = 0.199 ( 0.088 ) from 531 Parsons' quotients
REM Formula found by SHELXT: C4 O5 Na
CELL 0.71073 3.6294 8.1444 9.4044 90 97.981 90
ZERR 2 0.0006 0.0013 0.0016 0 0.006 0
LATT -1
SYMM +X,-Y,0.5+Z
SFAC C H O Na
UNIT 8 6 10 2

L.S. 4
PLAN  50

TEMP 0
BOND
HTAB
EQIV $9 x-1, -y, z-1/2
HTAB O2 O1_$9
EQIV $10 x+1, y+1, z
HTAB O4 O2_$10
EQIV $3 x+1, y, z
HTAB O4 O3_$3
list 4
DFIX 0.88 O2 H1 O4 H2 O4 H3
TWIN
ACTA
OMIT 0 9 0
fmap 2
REM <olex2.extras>
REM <HklSrc "%.\\1.hkl">
REM </olex2.extras>

WGHT    0.035800    0.022100
BASF   0.17860
FVAR       1.71377
NA1   4    0.549086    0.637418    0.652842    11.00000    0.03120    0.02416 =
         0.02886   -0.00335   -0.00547   -0.00051
C1    1    0.184849    0.234652    0.431951    11.00000    0.02161    0.01838 =
         0.01786   -0.00055   -0.00175    0.00082
C2    1    0.172602    0.058714    0.440002    11.00000    0.01971    0.01769 =
         0.01718    0.00042   -0.00167   -0.00018
C3    1    0.416124    0.053549    0.573041    11.00000    0.01938    0.01693 =
         0.01742   -0.00009   -0.00018   -0.00023
C4    1    0.429252    0.237680    0.575063    11.00000    0.02279    0.01725 =
         0.01929    0.00033   -0.00238    0.00020
O1    3    0.566336   -0.058324    0.653134    11.00000    0.02970    0.01860 =
         0.02083    0.00234   -0.00776    0.00219
O2    3    0.005948   -0.056348    0.358845    11.00000    0.03444    0.01712 =
         0.02151    0.00006   -0.00941   -0.00218
H1    2   -0.144755   -0.013866    0.286455    11.00000   -1.20000
O3    3    0.054283    0.339824    0.342651    11.00000    0.04010    0.01922 =
         0.02416    0.00332   -0.00833    0.00285
O4    3    0.993853    0.634524    0.490727    11.00000    0.04061    0.02089 =
         0.02752    0.00053   -0.00155    0.00043
H2    2    0.965028    0.715269    0.433246    11.00000   -1.40000
H3    2    0.986984    0.551341    0.433590    11.00000   -1.40000
O5    3    0.575540    0.342418    0.656164    11.00000    0.04062    0.01952 =
         0.02997   -0.00376   -0.01077   -0.00336
HKLF 4




REM  1_a.res in Pc
REM wR2 = 0.0557, GooF = S = 1.060, Restrained GooF = 1.059 for all data
REM R1 = 0.0209 for 1226 Fo > 4sig(Fo) and 0.0216 for all 1263 data
REM 101 parameters refined using 5 restraints

END

WGHT      0.0361      0.0196

REM Instructions for potential hydrogen bonds
HTAB O2 O1_$9
HTAB O4 O2_$10
HTAB O4 O3_$3

REM Highest difference peak  0.280,  deepest hole -0.160,  1-sigma level  0.035
Q1    1   0.1363  0.1447  0.4220  11.00000  0.05    0.28
Q2    1   0.4507  0.1433  0.5879  11.00000  0.05    0.24
Q3    1   0.3031  0.0391  0.5048  11.00000  0.05    0.23
Q4    1   0.3096  0.2581  0.5042  11.00000  0.05    0.21
Q5    1  -0.3321 -0.1508  0.2319  11.00000  0.05    0.16
Q6    1  -0.0106 -0.1454  0.3936  11.00000  0.05    0.14
Q7    1   0.3909 -0.1537  0.5813  11.00000  0.05    0.11
Q8    1   0.7130 -0.1567  0.7240  11.00000  0.05    0.11
Q9    1   0.7763  0.7441  0.3141  11.00000  0.05    0.10
Q10   1   0.5743  0.4435  0.6540  11.00000  0.05    0.10
Q11   1   0.3669  0.4507  0.6073  11.00000  0.05    0.10
Q12   1   0.5761  0.2763  0.6383  11.00000  0.05    0.10
Q13   1   0.6849 -0.0403  0.7070  11.00000  0.05    0.09
Q14   1   0.5916 -0.1477  0.6449  11.00000  0.05    0.09
Q15   1   1.3282  0.5537  0.4841  11.00000  0.05    0.09
Q16   1   0.1181  0.4274  0.3439  11.00000  0.05    0.08
Q17   1  -0.0950  0.2719  0.3031  11.00000  0.05    0.08
Q18   1   0.0063  0.2989  0.3982  11.00000  0.05    0.08
Q19   1   0.2291 -0.1473  0.3224  11.00000  0.05    0.08
Q20   1   1.2873  0.4325  0.5070  11.00000  0.05    0.07
Q21   1   0.9717  0.4372  0.4059  11.00000  0.05    0.07
Q22   1   0.6760  0.4428  0.7213  11.00000  0.05    0.07
Q23   1  -0.1154  0.1803  0.4950  11.00000  0.05    0.07
Q24   1  -0.0912  0.1482  0.2852  11.00000  0.05    0.07
Q25   1   1.1478  0.5454  0.3902  11.00000  0.05    0.07
Q26   1   0.0477  0.2960  0.2624  11.00000  0.05    0.06
Q27   1   0.2212  0.5390  0.6523  11.00000  0.05    0.06
Q28   1   1.2628  0.7155  0.4809  11.00000  0.05    0.06
Q29   1   1.3090  0.6388  0.4906  11.00000  0.05    0.06
Q30   1  -0.0718 -0.0540  0.3266  11.00000  0.05    0.06
Q31   1   0.3208 -0.0876  0.7603  11.00000  0.05    0.06
Q32   1   0.9142 -0.1317  0.6585  11.00000  0.05    0.06
Q33   1   0.3781  0.5607  0.5741  11.00000  0.05    0.06
Q34   1   0.8821 -0.0664  0.6432  11.00000  0.05    0.06
Q35   1   0.3851  0.4427  0.7342  11.00000  0.05    0.06
Q36   1   0.2621  0.3484  0.2465  11.00000  0.05    0.06
Q37   1   0.4688  0.6466  0.5535  11.00000  0.05    0.06
Q38   1   0.7447  0.5531  0.3508  11.00000  0.05    0.06
Q39   1   0.3953 -0.1635  0.7489  11.00000  0.05    0.06
Q40   1   0.6002  0.3203  0.7306  11.00000  0.05    0.05
Q41   1   0.1705  0.2475  0.6713  11.00000  0.05    0.05
Q42   1   0.1893 -0.0816  0.2360  11.00000  0.05    0.05
Q43   1   0.8104  0.7567  0.6992  11.00000  0.05    0.05
Q44   1  -0.2510  0.3868  0.3445  11.00000  0.05    0.05
Q45   1  -0.2389 -0.0616  0.4007  11.00000  0.05    0.05
Q46   1   0.9421  0.5635  0.4697  11.00000  0.05    0.05
Q47   1   0.3357  0.2053  0.7449  11.00000  0.05    0.05
Q48   1   0.9571  0.5405  0.2848  11.00000  0.05    0.05
Q49   1   0.9358  0.4707  0.6322  11.00000  0.05    0.05
Q50   1   0.8168 -0.1212  0.5262  11.00000  0.05    0.05
;
_shelx_res_checksum              42841
_shelx_hkl_file
;
   1   0   0  475.25   10.00
   1   0   0  463.25   10.70
   1   0   0  457.65    9.30
  -1   0   0  467.95    9.60
  -1   0   0  456.75   10.00
  -1   0   0  475.95   10.60
  -1   0   0  478.45   10.20
   1   0   0  471.35    9.70
   1   0   0  474.25    9.00
   1   0   0  472.95   10.20
  -2   0   0 5452.05   98.29
  -2   0   0 5322.07   99.49
   2   0   0 5301.37   99.39
   2   0   0 5339.07  101.69
   2   0   0 5405.16  100.89
   2   0   0 5551.54  100.19
  -2   0   0 5462.75  101.49
   3   0   0  109.29    4.60
   3   0   0  114.09    3.30
   3   0   0  106.49    6.10
   3   0   0  109.19    5.30
  -3   0   0  111.79    5.50
  -3   0   0  116.39    5.20
  -3   0   0  111.19    4.60
  -4   0   0   13.60    2.60
   4   0   0   13.50    2.20
  -4   0   0   11.70    1.90
  -4   0   0   18.10    2.60
   0  -1   0  361.46    6.60
   0  -1   0  355.56    6.80
   0  -1   0  357.06    6.70
   0  -1   0  351.66    6.80
   0  -1   0  346.17    6.90
   0  -1   0  363.66    6.70
   0  -1   0  343.37    7.50
   0  -1   0  358.26    6.50
   0  -1   0  365.46    6.80
   0  -1   0  362.76    7.70
   0   1   0  332.37    6.50
   0   1   0  349.27    6.70
   0   1   0  353.96    6.90
   0   1   0  338.07    6.70
   0   1   0  357.16    7.70
   0   1   0  345.37    6.60
   0   1   0  335.97    7.60
  -1  -1   0  375.46    7.20
  -1  -1   0  384.56    7.90
  -1  -1   0  362.06    8.00
  -1  -1   0  373.16    7.10
   1  -1   0  369.76    8.50
   1  -1   0  368.96    8.10
   1  -1   0  373.06    8.40
   1  -1   0  370.86    7.70
  -1  -1   0  378.86    9.00
   1  -1   0  346.37    7.60
   1  -1   0  373.16    7.40
  -1  -1   0  373.06    8.10
   1   1   0  367.76    7.00
  -1   1   0  372.06    8.20
   1   1   0  345.27    7.30
  -1   1   0  362.66    7.60
  -1   1   0  362.66    8.20
   1   1   0  364.66    8.70
   1   1   0  376.26    9.20
   1   1   0  376.46    9.60
  -1   1   0  366.86    8.50
   1   1   0  362.16    8.20
  -2  -1   0  141.79    4.20
  -2  -1   0  146.49    4.80
  -2  -1   0  147.79    5.80
   2  -1   0  144.29    4.50
   2  -1   0  141.09    5.50
   2  -1   0  154.08    3.80
  -2  -1   0  134.99    4.80
  -2   1   0  151.88    5.20
   2   1   0  140.29    5.30
   2   1   0  144.79    3.40
   2   1   0  149.49    5.60
  -2   1   0  143.59    4.50
   2   1   0  143.69    6.10
   2   1   0  145.29    4.90
  -2   1   0  148.49    5.60
   3  -1   0   44.80    2.70
  -3  -1   0   49.20    3.60
  -3  -1   0   42.40    3.00
  -3  -1   0   42.20    2.20
  -3  -1   0   40.90    2.70
   3  -1   0   40.70    3.80
  -3   1   0   40.40    2.90
  -3   1   0   41.80    3.10
   3   1   0   39.20    3.20
   3   1   0   46.10    4.30
   3   1   0   39.50    2.70
   3   1   0   44.20    3.30
   4  -1   0   86.29    4.40
  -4  -1   0   80.69    4.70
  -4  -1   0   86.49    5.40
   4  -1   0   86.99    5.80
  -4  -1   0   85.29    4.80
   4   1   0   83.59    6.40
   4   1   0   86.09    5.50
  -4   1   0   85.59    4.50
   4   1   0   83.89    4.80
  -4   1   0   89.99    5.00
   0  -2   0    9.40    0.50
   0  -2   0   10.50    0.70
   0  -2   0    9.60    0.60
   0  -2   0   10.00    0.50
   0  -2   0   10.10    0.70
   0   2   0   10.50    0.50
   0   2   0    9.40    1.00
   0   2   0    9.50    0.60
   0   2   0   11.30    1.10
   0   2   0   10.80    0.50
   0   2   0    9.80    0.60
  -1  -2   0   78.09    2.30
   1  -2   0   77.39    2.50
   1  -2   0   77.89    2.20
  -1  -2   0   76.69    3.10
  -1  -2   0   77.39    2.70
   1  -2   0   79.69    2.90
  -1  -2   0   75.59    2.10
   1  -2   0   79.29    2.40
   1  -2   0   78.79    2.20
   1  -2   0   76.79    3.00
  -1  -2   0   73.09    2.60
   1  -2   0   76.59    2.60
  -1  -2   0   79.49    2.40
  -1   2   0   78.59    2.20
   1   2   0   75.49    4.00
   1   2   0   73.99    2.80
   1   2   0   74.39    3.60
  -1   2   0   77.59    2.70
   1   2   0   74.49    3.40
   2  -2   0   21.50    2.20
  -2  -2   0   23.70    1.70
  -2  -2   0   20.80    1.60
   2  -2   0   21.80    1.50
   2  -2   0   22.10    1.20
   2  -2   0   21.10    1.40
  -2  -2   0   21.30    1.50
   2  -2   0   22.80    2.00
  -2  -2   0   18.30    1.90
   2   2   0   23.60    2.10
   2   2   0   22.10    1.80
   2   2   0   21.40    0.80
   2   2   0   22.20    2.40
   2   2   0   19.00    2.20
  -2   2   0   21.60    1.80
   3  -2   0   16.90    1.20
  -3  -2   0   18.20    1.90
   3  -2   0   17.20    2.70
  -3  -2   0   12.40    1.70
  -3  -2   0   17.10    1.50
  -3  -2   0   19.40    2.40
   3  -2   0   19.60    1.70
   3   2   0   19.00    3.10
  -3   2   0   15.70    1.70
   3   2   0   18.50    2.70
  -3   2   0   17.50    2.00
   3   2   0   16.50    1.90
   3   2   0   20.70    2.30
  -3   2   0   21.60    2.20
   4  -2   0    2.30    1.70
   4  -2   0    0.60    1.00
  -4  -2   0    1.30    0.80
   4  -2   0    2.20    0.90
  -4  -2   0    2.00    1.00
   4  -2   0    3.00    1.50
  -4  -2   0    2.50    1.30
  -4   2   0    2.10    1.20
  -4   2   0    2.40    1.10
   4   2   0    1.50    1.00
   4   2   0    1.80    2.20
  -4   2   0    1.50    0.80
   4   2   0    2.60    1.30
   0  -3   0 9999.00  199.88
   0  -3   0 9934.31  202.28
  -1  -3   0  125.59    3.30
  -1  -3   0  123.49    3.20
   1  -3   0  125.09    3.90
   1  -3   0  121.09    4.10
   1  -3   0  110.89    4.50
   1  -3   0  130.79    3.60
  -1  -3   0  121.99    3.50
  -1  -3   0  127.89    4.00
  -1  -3   0  120.59    3.80
  -1  -3   0  119.39    4.20
   1  -3   0  125.49    3.50
   1   3   0  113.19    5.80
   1   3   0  124.89    5.30
   1   3   0  124.29    4.10
  -1   3   0  123.69    3.20
  -1   3   0  131.29    6.80
   1   3   0  117.29    5.40
  -1   3   0  121.99    3.70
  -2  -3   0 2100.69   40.30
   2  -3   0 2077.99   38.80
   2  -3   0 2083.69   39.20
   2  -3   0 2026.20   41.70
  -2  -3   0 2096.59   40.60
   2  -3   0 2062.69   40.00
  -2  -3   0 2138.09   40.90
   2  -3   0 2100.69   40.10
  -2  -3   0 2144.99   39.30
   2  -3   0 2083.59   41.60
  -2  -3   0 2067.69   42.30
   2   3   0 2050.19   45.20
   2   3   0 2069.99   44.60
  -2   3   0 2087.09   40.30
   2   3   0 2119.39   43.20
  -2   3   0 2122.19   41.10
   2   3   0 2094.39   41.40
  -3  -3   0   81.89    4.90
  -3  -3   0   76.19    3.80
  -3  -3   0   86.39    3.80
   3  -3   0   75.89    4.80
   3  -3   0   77.69    3.00
   3  -3   0   79.29    4.70
  -3  -3   0   84.09    4.20
   3  -3   0   84.39    3.60
   3   3   0   78.19    5.40
  -3   3   0   88.39    4.50
   3   3   0   80.59    5.50
   3   3   0   88.69    4.50
   3   3   0   77.19    4.80
  -3   3   0   76.29    4.10
  -3   3   0   81.29    3.70
   4  -3   0   91.89    6.10
  -4  -3   0   91.49    5.00
  -4  -3   0   94.39    4.90
   4  -3   0   86.59    5.70
  -4  -3   0   86.59    5.70
   4  -3   0   96.89    4.30
  -4   3   0   83.99    5.00
   4   3   0   92.09    5.20
   4   3   0   83.99    6.00
  -4   3   0   91.89    5.10
   4   3   0   89.29    7.20
   4   3   0   83.29    5.70
   0  -4   0  929.41   19.30
   0  -4   0  928.01   18.90
   0  -4   0  962.60   18.90
   0  -4   0  944.21   19.00
   0   4   0  986.60   22.60
   0   4   0  911.41   22.40
   0   4   0  925.11   18.70
   1  -4   0  324.17    7.70
   1  -4   0  338.77    7.60
   1  -4   0  335.57    7.20
   1  -4   0  336.27    8.60
   1  -4   0  317.37    8.10
  -1  -4   0  334.97    7.60
  -1  -4   0  329.47    8.40
  -1  -4   0  319.07    8.40
  -1  -4   0  329.57    7.90
  -1  -4   0  316.17    7.90
   1   4   0  324.87   10.80
   1   4   0  331.47    8.60
   1   4   0  317.27   11.70
  -1   4   0  323.37    7.20
  -1   4   0  331.27    7.60
  -1   4   0  329.27   11.00
   1   4   0  318.47   10.40
   2  -4   0  860.91   18.60
  -2  -4   0  875.71   17.90
  -2  -4   0  874.71   19.00
   2  -4   0  857.41   17.90
   2  -4   0  845.42   18.50
   2  -4   0  871.51   20.70
  -2  -4   0  871.01   19.00
   2  -4   0  858.91   17.50
  -2  -4   0  878.71   17.90
  -2  -4   0  868.51   20.00
  -2   4   0  882.41   19.00
   2   4   0  847.42   23.10
  -2   4   0  869.31   23.30
   2   4   0  876.71   21.60
   2   4   0  850.81   19.70
   2   4   0  873.91   23.90
  -3  -4   0  116.69    4.70
   3  -4   0  115.79    5.80
  -3  -4   0  113.39    5.20
  -3  -4   0  115.39    5.90
   3  -4   0  123.39    4.80
   3  -4   0  121.09    4.00
  -3  -4   0  120.29    5.00
  -3  -4   0  114.19    3.70
   3   4   0  122.69    5.70
  -3   4   0  128.99    7.90
  -3   4   0  116.59    4.60
   3   4   0  124.49    6.50
   3   4   0  101.59    6.90
   3   4   0  116.79    7.30
  -3   4   0  118.79    5.30
  -4  -4   0  177.08    7.00
   4  -4   0  189.68    6.80
  -4  -4   0  166.68    8.30
  -4  -4   0  186.58    7.70
   4  -4   0  180.18    8.40
   4  -4   0  180.28    8.40
   4   4   0  164.28    9.20
   4   4   0  190.08   10.60
  -4   4   0  192.18   11.20
   4   4   0  177.58    8.80
  -4   4   0  174.88    7.50
   4   4   0  173.48    7.80
  -4   4   0  171.08    8.20
   0  -5   0   20.00    1.50
   0  -5   0   18.00    1.50
   0  -5   0   19.00    1.40
   0  -5   0   17.70    1.40
   0   5   0   18.00    1.40
   0   5   0   19.40    2.40
   0   5   0   24.30    2.70
   1  -5   0   13.30    1.30
  -1  -5   0   12.00    1.20
   1  -5   0   12.40    1.10
  -1  -5   0   12.60    1.30
  -1  -5   0   12.50    1.10
  -1  -5   0   12.60    1.30
   1  -5   0   15.10    1.00
  -1  -5   0   13.30    1.20
   1  -5   0   13.00    1.00
   1  -5   0   15.10    1.50
   1   5   0   11.00    2.20
  -1   5   0   12.50    2.40
  -1   5   0   13.90    1.00
   1   5   0    9.20    2.20
  -1   5   0   17.00    2.90
   1   5   0   12.20    1.40
   1   5   0   10.80    2.20
  -1   5   0   13.00    1.00
  -2  -5   0    8.60    1.50
  -2  -5   0    8.20    0.90
   2  -5   0    7.00    1.50
   2  -5   0    7.80    0.80
  -2  -5   0    8.10    1.00
  -2  -5   0    6.30    0.80
  -2  -5   0    7.70    1.60
  -2  -5   0    6.50    1.20
   2  -5   0    7.60    1.10
  -2   5   0    7.10    2.20
   2   5   0    4.10    1.30
   2   5   0    9.30    2.50
  -2   5   0    8.50    1.00
   2   5   0    8.40    2.50
   2   5   0    7.10    1.40
  -2   5   0    4.90    0.90
   3  -5   0    3.40    0.90
  -3  -5   0    7.30    1.10
  -3  -5   0    5.20    1.70
  -3  -5   0    6.20    1.20
  -3  -5   0    7.80    1.90
   3   5   0    7.70    2.60
  -3   5   0    6.10    1.30
   3   5   0    8.90    2.40
   3   5   0    5.30    1.90
   3   5   0    5.60    1.50
  -3   5   0    6.50    1.30
  -3   5   0   10.00    3.80
   4  -5   0    2.30    1.10
   4  -5   0    2.60    1.30
  -4  -5   0    3.70    1.20
  -4  -5   0    2.80    2.20
   4   5   0    3.40    2.40
   4   5   0    2.80    1.80
  -4   5   0    1.20    1.00
   4   5   0    3.40    1.50
  -4   5   0    3.10    1.30
  -4   5   0    1.50    2.30
   0  -6   0    2.20    0.60
   0  -6   0    1.70    0.70
   0  -6   0    1.20    0.50
   0  -6   0    1.40    0.50
   0   6   0    3.20    0.70
   0   6   0    3.40    1.40
   0   6   0    2.90    1.30
  -1  -6   0  151.68    5.50
   1  -6   0  145.29    5.20
   1  -6   0  157.88    4.50
  -1  -6   0  152.38    5.20
  -1  -6   0  155.08    5.00
   1  -6   0  146.09    5.10
  -1  -6   0  152.88    4.20
   1  -6   0  145.29    5.70
  -1  -6   0  151.28    4.80
  -1  -6   0  148.09    4.70
  -1   6   0  163.68    8.70
   1   6   0  157.28    5.70
   1   6   0  149.69    8.60
   1   6   0  133.19    7.80
   1   6   0  148.39    8.00
  -1   6   0  142.29    7.70
  -2  -6   0  120.19    4.60
  -2  -6   0  111.29    5.00
  -2  -6   0  117.89    4.80
   2  -6   0  120.69    4.40
   2  -6   0  117.79    5.50
  -2  -6   0  120.89    5.20
  -2  -6   0  116.59    4.10
   2  -6   0  126.09    5.00
   2   6   0  115.79    6.80
  -2   6   0  114.19    4.10
   2   6   0  125.59    8.10
  -2   6   0  121.89    4.50
   2   6   0  112.79    5.30
  -2   6   0  113.59    7.70
   2   6   0  116.19    8.30
  -3  -6   0   42.90    2.60
   3  -6   0   42.90    3.00
   3  -6   0   40.60    3.50
  -3  -6   0   40.10    2.30
  -3  -6   0   39.20    3.10
  -3  -6   0   42.00    3.40
  -3  -6   0   38.20    3.00
   3  -6   0   37.30    2.30
   3   6   0   43.00    6.30
  -3   6   0   40.20    2.70
   3   6   0   38.20    3.50
  -3   6   0   41.10    5.00
  -3   6   0   38.20    2.80
   3   6   0   44.60    5.40
   3   6   0   42.30    4.00
   0  -7   0 2732.43   52.99
   0  -7   0 2772.02   53.39
   0  -7   0 2729.93   53.89
   0  -7   0 2751.82   52.79
   0   7   0 2756.32   60.89
   0   7   0 2742.83   52.99
   0   7   0 2743.33   60.09
   1  -7   0   52.99    3.10
   1  -7   0   58.39    3.20
  -1  -7   0   56.99    3.20
   1  -7   0   57.09    3.50
  -1  -7   0   57.59    2.60
  -1  -7   0   56.79    3.20
   1  -7   0   56.69    2.40
  -1  -7   0   56.59    2.90
   1   7   0   58.59    5.80
  -1   7   0   54.49    5.20
   1   7   0   61.59    5.00
   1   7   0   57.89    3.50
   1   7   0   50.99    4.90
  -1   7   0   57.19    2.90
  -2  -7   0  645.34   15.30
  -2  -7   0  647.74   15.10
  -2  -7   0  633.74   14.30
   2  -7   0  627.34   14.90
  -2  -7   0  639.94   15.70
   2  -7   0  575.04   18.50
   2  -7   0  627.84   15.70
   2   7   0  640.24   22.10
   2   7   0  621.84   24.00
   2   7   0  610.74   16.50
  -2   7   0  660.43   22.50
  -2   7   0  557.64   20.00
  -2   7   0  628.14   14.20
  -2   7   0  624.74   14.10
   2   7   0  635.34   19.70
   3  -7   0   28.60    2.30
  -3  -7   0   28.10    3.10
   3  -7   0   29.70    2.70
   3  -7   0   29.80    3.20
  -3  -7   0   34.60    2.40
  -3  -7   0   31.30    2.80
   3   7   0   29.10    3.10
   3   7   0   31.80    5.80
  -3   7   0   28.40    3.10
  -3   7   0   34.00    5.90
   3   7   0   34.70    6.30
   3   7   0   39.20    4.20
   0  -8   0   10.10    1.60
   0  -8   0    8.80    1.30
   0   8   0   19.30    3.90
   0   8   0   12.00    3.00
  -1  -8   0   17.60    1.90
  -1  -8   0   21.00    1.80
  -1  -8   0   23.40    2.20
   1  -8   0   19.80    2.00
   1  -8   0   19.50    2.20
   1  -8   0   13.90    2.20
  -1   8   0   17.10    3.90
  -1   8   0   19.50    1.90
   1   8   0   20.00    2.20
   1   8   0   17.80    4.40
   1   8   0   23.10    4.10
  -1   8   0   19.70    3.90
   2  -8   0    2.30    0.80
  -2  -8   0    1.80    1.00
  -2  -8   0    3.10    0.80
  -2  -8   0    2.80    1.00
   2  -8   0    5.90    1.50
  -2  -8   0    3.00    1.00
  -2  -8   0    4.10    1.10
  -2  -8   0    2.30    0.80
  -2   8   0    2.60    0.60
  -2   8   0    4.10    1.80
   2   8   0   -0.70    1.70
  -2   8   0    1.00    1.90
  -2   8   0    3.90    1.00
   2   8   0    3.20    1.30
   2   8   0    3.60    1.50
   2   8   0    5.10    2.10
   3  -8   0    5.20    1.50
  -3  -8   0    6.40    1.30
  -3  -8   0    7.90    1.90
   3  -8   0    5.00    1.90
  -3  -8   0    8.60    2.20
   3  -8   0    9.00    2.10
  -3   8   0    7.70    1.40
   3   8   0    6.30    2.30
   3   8   0   11.80    3.80
   3   8   0   10.30    4.10
  -3   8   0   12.80    3.70
  -3   8   0    6.30    2.70
   3   8   0   18.10    4.70
   0  -9   0   49.70    3.50
   0  -9   0   47.30    3.30
   0  -9   0   44.60    3.10
   0   9   0   41.50    5.00
   0   9   0   49.40    6.10
   0   9   0   49.30    3.30
   0   9   0   57.79    5.90
  -1  -9   0    0.50    0.70
   1  -9   0   -0.50    0.50
   1  -9   0    0.10    0.50
   1  -9   0   -0.10    0.60
  -1  -9   0    0.20    0.40
   1   9   0    0.90    0.90
   1   9   0   -0.30    1.30
  -1   9   0    1.70    1.60
   1   9   0    0.30    1.70
  -1   9   0    1.80    1.60
   1   9   0    2.10    2.00
  -1   9   0   -0.50    0.80
  -2  -9   0   10.20    2.20
   2  -9   0   11.60    1.80
   2  -9   0   10.50    1.90
  -2  -9   0   12.30    1.90
   2  -9   0    8.80    1.90
  -2  -9   0   13.90    1.90
  -2  -9   0   12.40    2.10
   2   9   0   10.40    2.80
  -2   9   0    7.60    2.80
   2   9   0   10.80    2.10
  -2   9   0    5.10    2.90
   2   9   0    5.30    3.10
   2   9   0   16.50    4.80
   0 -10   0  908.11   22.70
   0 -10   0  900.41   22.00
   0 -10   0  886.71   21.30
   0  10   0  903.41   21.70
   0  10   0  891.71   31.30
   0  10   0  891.71   29.50
   0  10   0  915.21   30.00
  -1 -10   0   32.10    3.10
   1 -10   0   29.90    3.40
   1 -10   0   30.90    4.30
  -1 -10   0   28.50    2.50
   1 -10   0   38.60    3.20
   1  10   0   30.40    7.20
  -1  10   0   27.20    5.30
   1  10   0   27.20    4.80
   1  10   0   25.50    3.00
  -1  10   0   26.50    4.90
  -1  10   0   35.40    5.60
  -4   0   1    0.00    0.60
  -4   0   1   -0.10    0.60
   4   0  -1   -1.80    1.50
  -4   0   1    0.40    0.90
   3   0  -1    0.00    0.40
  -3   0   1    0.00    0.40
   3   0  -1   -0.60    0.40
   3   0  -1    1.00    1.50
   3   0  -1    1.30    1.50
  -3   0   1    0.80    0.60
  -3   0   1   -0.30    0.40
   2   0  -1    0.20    0.40
  -2   0   1    0.10    0.30
   2   0  -1    0.00    0.30
  -2   0   1    0.10    0.20
  -2   0   1    0.70    0.40
   2   0  -1    0.10    0.80
   2   0  -1    0.40    1.20
   1   0  -1    0.20    0.10
   1   0  -1    0.00    0.40
   1   0  -1    0.10    0.20
   1   0  -1    0.40    0.70
  -1   0   1    0.20    0.20
  -1   0   1    0.10    0.10
   1   0  -1    0.10    0.20
   0   0  -1    0.00    0.10
   0   0   1    0.00    0.10
   0   0  -1   -0.10    0.10
   0   0  -1    0.10    0.10
   0   0   1   -0.20    0.10
   0   0  -1    0.00    0.10
   0   0   1    0.10    0.10
   0   0   1    0.00    0.10
   0   0   1    0.10    0.10
   0   0  -1    0.00    0.10
   0   0  -1    0.00    0.20
   0   0  -1    0.00    0.10
   0   0  -1    0.20    0.10
   0   0   1    0.00    0.10
   0   0   1   -0.10    0.10
   1   0   1    0.00    0.10
   1   0   1    1.10    0.60
   1   0   1    0.00    0.20
  -1   0  -1    0.30    0.30
  -1   0  -1    0.70    0.40
  -1   0  -1   -0.10    0.10
  -1   0  -1    0.10    0.20
   1   0   1    0.10    0.10
   1   0   1    0.00    0.20
   1   0   1   -0.10    0.40
  -2   0  -1   -0.50    0.20
   2   0   1    0.30    0.30
  -2   0  -1    0.10    0.30
  -2   0  -1   -0.70    0.50
   2   0   1    1.10    1.20
   2   0   1   -0.20    0.30
   2   0   1    0.20    0.10
  -2   0  -1    0.10    0.30
  -3   0  -1    1.60    0.90
   3   0   1    0.20    0.60
  -3   0  -1   -0.60    0.40
   3   0   1    0.30    1.40
   3   0   1    0.00    0.50
   3   0   1    0.00    0.20
  -3   0  -1   -0.30    0.40
  -3   0  -1   -0.10    0.30
  -4   0  -1   -0.20    0.70
   4   0   1    1.50    1.90
  -4   0  -1   -1.30    1.10
   4   0   1    0.40    0.90
  -4   0  -1   -0.30    0.70
   4   0   1   -0.60    0.30
  -4  -1   1  147.49    6.30
   4  -1  -1  148.59    7.50
  -4  -1   1  136.29    6.20
  -4  -1   1  140.99    6.90
   4  -1  -1  143.39    6.10
   4  -1  -1  138.49    7.70
  -4   1   1  140.69    6.40
   4   1  -1  140.09    6.40
   4   1  -1  140.79    7.20
   4   1  -1  150.78    8.40
   4   1  -1  138.29    7.00
  -4   1   1  151.58    6.70
  -4   1   1  140.99    6.10
   3  -1  -1   28.60    3.20
  -3  -1   1   23.80    2.10
  -3  -1   1   28.30    2.20
  -3  -1   1   26.40    2.40
   3  -1  -1   26.20    3.30
   3   1  -1   20.50    3.30
  -3   1   1   21.40    1.90
  -3   1   1   26.90    2.30
   3   1  -1   24.40    2.80
   3   1  -1   24.20    2.40
   3   1  -1   25.20    2.20
  -3   1   1   24.40    2.10
   2  -1  -1  886.71   18.70
   2  -1  -1  899.61   20.20
  -2  -1   1  884.11   18.70
   2  -1  -1  908.61   19.80
  -2  -1   1  889.51   18.80
  -2  -1   1  882.41   19.60
   2   1  -1  884.11   21.30
  -2   1   1  889.21   19.00
  -2   1   1  894.91   19.20
   2   1  -1  914.21   19.10
   2   1  -1  957.80   21.00
   2   1  -1  914.61   19.70
  -2   1   1  880.81   18.40
   1  -1  -1 1623.14   31.00
  -1  -1   1 1596.24   29.60
   1  -1  -1 1633.74   30.70
  -1  -1   1 1607.74   30.50
  -1  -1   1 1674.83   30.70
  -1  -1   1 1684.53   30.00
   1  -1  -1 1630.84   31.60
  -1  -1   1 1643.84   31.10
   1  -1  -1 1661.13   31.80
  -1   1   1 1624.74   30.50
   1   1  -1 1622.74   30.90
  -1   1   1 1663.73   30.70
   1   1  -1 1555.34   29.90
   1   1  -1 1637.04   32.50
   1   1  -1 1644.24   31.30
   1   1  -1 1626.24   32.90
   0  -1   1  729.93   14.50
   0  -1  -1  700.23   13.50
   0  -1   1  730.53   13.40
   0  -1   1  732.43   13.30
   0  -1  -1  714.43   14.00
   0  -1  -1  667.73   14.10
   0  -1  -1  669.63   14.50
   0  -1   1  722.33   13.60
   0  -1  -1  727.63   13.30
   0  -1  -1  726.33   13.10
   0  -1   1  705.23   14.10
   0   1  -1  712.93   14.60
   0   1  -1  694.13   14.20
   0   1  -1  688.13   13.40
   0   1  -1  721.53   13.30
   0   1   1  691.83   13.80
   0   1  -1  730.83   13.50
   0   1   1  708.53   14.10
   0   1   1  692.33   13.60
   0   1  -1  720.73   13.80
   0   1  -1  705.13   13.70
   0   1  -1  714.03   13.10
   0   1   1  689.13   13.90
   0   1   1  714.23   13.30
   0   1  -1  722.13   13.40
  -1  -1  -1  436.56   11.20
  -1  -1  -1  446.96    9.80
  -1  -1  -1  456.35   10.00
  -1  -1  -1  450.65    9.80
   1  -1   1  458.55    9.00
   1  -1   1  449.76    9.20
   1  -1   1  452.85    9.10
   1  -1   1  452.15   10.00
   1  -1   1  456.75    9.80
  -1   1  -1  445.66    8.80
  -1   1  -1  459.15    9.20
   1   1   1  469.15   10.20
   1   1   1  457.15   10.80
   1   1   1  464.05    8.90
  -1   1  -1  446.06   10.90
   1   1   1  466.25    9.90
   1   1   1  451.45   11.00
  -2  -1  -1   11.70    1.40
   2  -1   1   10.40    1.30
   2  -1   1   12.80    1.90
   2  -1   1   11.50    0.90
  -2  -1  -1   13.20    1.80
  -2  -1  -1   12.70    1.30
  -2  -1  -1   11.70    1.60
   2   1   1   11.40    0.80
   2   1   1   13.40    2.10
  -2   1  -1   11.50    1.30
   2   1   1   14.40    1.60
  -2   1  -1    9.40    1.70
   2   1   1   11.20    1.20
  -2   1  -1   11.60    1.10
  -3  -1  -1  385.06   11.20
  -3  -1  -1  384.26   12.70
  -3  -1  -1  384.86    9.50
   3  -1   1  383.86   11.80
  -3  -1  -1  385.06   10.60
   3  -1   1  377.16    8.80
   3  -1   1  378.26    9.90
   3   1   1  383.96   10.50
  -3   1  -1  370.46   11.30
  -3   1  -1  380.16   12.40
   3   1   1  376.76    8.30
   3   1   1  391.46   11.90
   3   1   1  363.76   14.60
   4  -1   1   90.79    5.90
  -4  -1  -1   87.49    4.90
   4  -1   1   91.69    3.80
   4  -1   1   95.79    6.10
  -4  -1  -1   91.59    5.90
   4  -1   1   86.79    3.40
  -4  -1  -1   85.59    5.20
   4  -1   1   98.99    4.60
   4   1   1   90.49    5.80
   4   1   1   86.99    4.80
  -4   1  -1   93.49    5.90
  -4   1  -1   92.69    5.50
  -4   1  -1   93.59    4.90
   4   1   1  104.39    8.40
   4  -2  -1   96.49    4.80
  -4  -2   1   92.99    4.90
   4  -2  -1  105.29    6.30
  -4  -2   1  104.69    5.20
   4  -2  -1   98.09    6.50
  -4  -2   1  103.49    5.90
   4   2  -1   95.49    5.30
   4   2  -1  100.09    5.90
  -4   2   1  108.39    5.10
   4   2  -1  110.89    7.90
  -4   2   1  102.79    5.30
   4   2  -1  105.79    6.70
  -4   2   1   98.79    5.30
   3  -2  -1    9.50    1.40
   3  -2  -1   12.30    2.00
  -3  -2   1    8.60    1.80
   3  -2  -1   14.70    2.60
  -3  -2   1    6.70    1.40
   3  -2  -1    8.70    2.00
   3   2  -1   11.60    2.20
  -3   2   1    9.00    1.50
   3   2  -1    8.50    2.40
  -3   2   1   10.40    1.70
  -3   2   1    9.50    1.40
   3   2  -1    9.90    1.70
   3   2  -1    9.50    1.70
  -2  -2   1  516.55   11.50
   2  -2  -1  504.35   13.00
  -2  -2   1  509.75   11.40
  -2  -2   1  516.25   11.90
   2  -2  -1  506.65   11.50
   2  -2  -1  518.65   12.20
   2  -2  -1  505.35   12.60
  -2  -2   1  491.85   12.60
   2   2  -1  512.35   12.30
   2   2  -1  517.75   14.50
   2   2  -1  496.05   14.50
  -2   2   1  527.95   12.00
   2   2  -1  516.45   13.00
  -2   2   1  497.25   11.40
   1  -2  -1   96.19    3.10
  -1  -2   1  103.69    3.00
  -1  -2   1   98.69    2.60
   1  -2  -1  100.19    3.70
  -1  -2   1   99.09    3.10
  -1  -2   1   97.89    2.70
  -1  -2   1   95.99    3.30
   1  -2  -1   96.19    3.20
   1  -2  -1   96.29    3.40
  -1  -2   1  100.09    2.80
  -1   2   1   99.59    3.00
   1   2  -1   99.39    3.20
  -1   2   1   96.39    2.80
   1   2  -1   98.59    3.80
   1   2  -1  102.19    4.70
   0  -2   1 1047.70   19.00
   0  -2  -1 1031.40   18.70
   0  -2  -1 1050.99   19.50
   0  -2  -1 1012.70   20.10
   0  -2   1 1039.90   19.50
   0  -2   1  915.21   20.40
   0  -2  -1 1034.00   19.30
   0  -2   1 1005.60   19.40
   0  -2  -1 1035.80   19.80
   0  -2   1 1005.00   19.50
   0  -2   1 1020.30   19.60
   0  -2  -1 1021.10   19.60
   0   2  -1 1033.40   20.80
   0   2   1 1062.99   19.70
   0   2   1 1025.10   21.20
   0   2   1 1011.30   21.60
   0   2  -1 1028.20   21.20
   0   2  -1 1019.70   21.20
   1  -2   1  830.02   17.40
  -1  -2  -1  843.12   17.50
   1  -2   1  841.02   16.50
  -1  -2  -1  849.91   18.70
  -1  -2  -1  862.81   17.20
   1  -2   1  849.12   17.00
  -1  -2  -1  855.81   17.40
   1  -2   1  854.61   16.70
   1  -2   1  884.61   16.40
  -1  -2  -1  870.11   16.00
   1   2   1  849.61   17.60
   1   2   1  867.91   19.70
   1   2   1  862.61   19.00
  -1   2  -1  809.22   16.60
  -1   2  -1  863.01   17.50
   2  -2   1  149.69    5.40
   2  -2   1  141.99    5.40
  -2  -2  -1  137.09    6.10
  -2  -2  -1  146.09    4.90
  -2  -2  -1  145.19    4.80
   2  -2   1  146.69    4.20
  -2  -2  -1  138.39    5.00
   2  -2   1  149.88    4.10
  -2   2  -1  144.19    4.30
   2   2   1  139.29    5.90
   2   2   1  148.39    5.20
  -2   2  -1  144.29    5.90
   2   2   1  140.39    6.20
  -2   2  -1  142.69    5.30
   2   2   1  142.79    5.90
   2   2   1  143.29    3.50
  -3  -2  -1  126.39    6.50
   3  -2   1  113.39    3.80
   3  -2   1  123.79    6.00
   3  -2   1  115.19    4.10
   3  -2   1  119.49    5.80
  -3  -2  -1  115.49    5.10
  -3  -2  -1  121.39    4.60
  -3  -2  -1  116.29    5.20
   3  -2   1  116.19    4.20
   3   2   1  120.79    3.30
  -3   2  -1  115.69    4.60
   3   2   1  126.59    5.80
  -3   2  -1  111.89    5.40
   3   2   1  114.09    5.10
   3   2   1  115.69    5.90
   3   2   1  114.49    6.60
  -4  -2  -1    9.40    2.30
   4  -2   1    6.10    2.10
  -4  -2  -1    8.30    1.40
  -4  -2  -1    4.40    1.40
   4  -2   1    9.20    1.20
   4  -2   1    6.80    1.50
  -4  -2  -1    4.90    1.60
   4  -2   1   10.40    1.40
   4   2   1   14.10    3.50
   4   2   1    8.90    1.70
   4   2   1    7.90    1.90
  -4   2  -1    8.30    1.90
   4  -3  -1   81.59    5.60
   4  -3  -1   87.69    4.40
   4  -3  -1   92.59    6.50
  -4  -3   1   85.39    5.40
   4  -3  -1   87.39    4.70
  -4  -3   1   95.09    4.70
  -4  -3   1   92.49    5.10
   4   3  -1   77.69    6.10
  -4   3   1   87.79    4.70
   4   3  -1   89.99    5.30
   4   3  -1   88.59    5.70
  -4   3   1   86.39    4.50
   4   3  -1  105.09    7.70
  -4   3   1  102.69    5.30
   3  -3  -1   21.30    2.50
  -3  -3   1   17.30    1.90
  -3  -3   1   19.20    1.70
   3  -3  -1   16.40    1.70
   3  -3  -1   15.40    1.80
   3  -3  -1   18.60    3.00
  -3  -3   1   17.80    2.10
  -3   3   1   22.20    2.20
  -3   3   1   15.90    1.70
   3   3  -1   21.90    2.30
   3   3  -1   20.20    3.20
   3   3  -1   16.80    3.00
   3   3  -1   14.30    1.80
  -2  -3   1  683.53   15.10
  -2  -3   1  679.13   14.90
  -2  -3   1  672.53   16.00
  -2  -3   1  674.13   14.40
   2  -3  -1  671.43   16.40
   2  -3  -1  661.73   15.80
  -2  -3   1  677.33   13.80
   2  -3  -1  699.43   15.50
   2  -3  -1  686.83   14.60
   2  -3  -1  665.23   13.50
  -2   3   1  682.13   14.50
   2   3  -1  653.23   18.70
  -2   3   1  675.33   15.00
   2   3  -1  680.03   16.60
  -2   3   1  672.83   18.40
   2   3  -1  695.83   15.70
   2   3  -1  669.63   19.30
  -1  -3   1  603.24   11.60
   1  -3  -1  583.24   14.00
  -1  -3   1  605.84   12.90
  -1  -3   1  616.84   12.30
  -1  -3   1  614.94   12.50
   1  -3  -1  600.24   12.70
   1  -3  -1  603.34   12.40
  -1  -3   1  614.44   13.00
  -1  -3   1  610.64   12.50
   1  -3  -1  595.24   13.40
  -1   3   1  607.94   12.30
  -1   3   1  605.94   12.40
   1   3  -1  604.84   13.00
   1   3  -1  563.14   16.00
   1   3  -1  618.24   14.70
  -1   3   1  592.24   15.50
   0  -3   1 1507.25   28.70
   0  -3  -1 1513.65   29.00
   0  -3  -1 1531.75   29.70
   0  -3  -1 1545.45   28.90
   0  -3   1 1477.45   29.00
   0  -3   1 1510.75   27.90
   0  -3   1 1500.45   28.50
   0  -3  -1 1544.35   28.80
   0  -3   1 1497.85   28.70
   0  -3  -1 1515.65   28.60
   0   3   1 1490.25   31.40
   0   3   1 1473.55   31.80
   0   3  -1 1507.45   31.50
   0   3  -1 1551.34   31.00
   0   3   1 1508.85   28.90
   0   3  -1 1494.65   31.10
  -1  -3  -1 1248.28   26.00
  -1  -3  -1 1265.07   23.50
   1  -3   1 1235.48   25.00
  -1  -3  -1 1256.77   24.10
  -1  -3  -1 1230.18   24.80
   1  -3   1 1248.58   23.90
   1  -3   1 1243.98   24.40
  -1  -3  -1 1223.28   25.00
   1  -3   1 1231.98   23.80
   1   3   1 1236.98   27.50
  -1   3  -1 1238.18   24.70
  -1   3  -1 1245.58   28.30
   1   3   1 1302.77   25.40
   2  -3   1  155.08    5.70
  -2  -3  -1  164.58    4.40
   2  -3   1  156.98    5.80
   2  -3   1  165.48    4.90
  -2  -3  -1  164.68    5.40
   2  -3   1  159.88    4.20
   2  -3   1  158.08    4.50
  -2  -3  -1  155.68    5.40
  -2  -3  -1  155.68    6.60
  -2  -3  -1  159.48    5.50
   2   3   1  154.18    7.00
   2   3   1  156.38    5.70
  -2   3  -1  158.88    5.70
  -2   3  -1  162.58    4.60
   2   3   1  159.38    6.80
   2   3   1  156.58    7.50
  -3  -3  -1  236.58    8.10
  -3  -3  -1  244.08    8.10
  -3  -3  -1  259.57    9.80
   3  -3   1  231.98    8.60
  -3  -3  -1  237.38    7.50
   3  -3   1  246.28    8.90
   3  -3   1  238.88    8.10
   3  -3   1  245.28    6.50
   3   3   1  246.58    8.40
  -3   3  -1  255.17    7.40
   3   3   1  243.08   10.00
   3   3   1  241.08    9.40
  -3   3  -1  244.88    8.60
   3   3   1  236.88    9.70
  -3   3  -1  230.68    8.80
   4  -3   1    1.10    1.20
  -4  -3  -1    0.90    0.90
   4  -3   1    0.50    0.80
  -4  -3  -1    1.80    1.00
   4  -3   1    0.00    0.40
  -4  -3  -1    1.70    1.20
   4  -3   1    2.60    1.80
  -4  -3  -1    0.80    0.80
   4   3   1    1.00    1.30
   4   3   1    1.10    0.90
  -4   3  -1    0.60    1.40
  -4   3  -1    0.40    1.00
  -4   3  -1    1.10    1.10
   4   3   1   -0.90    1.80
  -4  -4   1   83.69    4.90
   4  -4  -1   87.59    5.90
   4  -4  -1   88.39    5.70
   4  -4  -1   84.59    4.40
  -4  -4   1   88.49    5.40
  -4  -4   1   86.29    4.30
   4   4  -1   87.19    5.30
   4   4  -1   91.99    7.60
  -4   4   1   84.39    4.60
   4   4  -1   83.69    6.70
   4   4  -1   83.49    5.70
  -4   4   1   83.79    7.20
  -4   4   1   83.79    4.80
  -3  -4   1    0.30    0.50
   3  -4  -1    2.30    0.90
   3  -4  -1    0.60    1.20
  -3  -4   1    1.80    0.60
  -3  -4   1   -0.10    0.80
  -3  -4   1   -0.30    0.60
   3  -4  -1    0.60    0.90
   3  -4  -1    1.00    0.60
   3   4  -1    1.10    0.80
   3   4  -1    2.50    1.40
  -3   4   1    2.00    0.70
  -3   4   1    1.20    0.70
  -3   4   1    2.80    1.10
   3   4  -1   -0.20    1.30
   3   4  -1    0.40    0.70
  -2  -4   1  276.87    7.90
  -2  -4   1  280.77    7.20
   2  -4  -1  283.27    6.90
   2  -4  -1  286.87    8.70
  -2  -4   1  289.27    6.90
  -2  -4   1  292.67    8.60
   2  -4  -1  285.97    7.80
   2  -4  -1  292.97    8.30
  -2  -4   1  284.47    8.00
  -2   4   1  286.87    7.40
  -2   4   1  290.27    7.80
   2   4  -1  295.87    9.80
   2   4  -1  282.57    8.50
  -2   4   1  288.57   11.90
   2   4  -1  267.07   11.50
   2   4  -1  287.87   11.60
  -1  -4   1   13.80    1.10
  -1  -4   1   17.00    1.30
   1  -4  -1   15.30    1.40
  -1  -4   1   13.70    1.10
  -1  -4   1   16.80    1.30
  -1  -4   1   15.10    1.30
   1  -4  -1   14.50    0.90
   1  -4  -1   15.00    1.50
   1  -4  -1   16.00    1.30
   1  -4  -1   14.20    1.10
   1   4  -1   13.20    2.40
   1   4  -1   13.50    1.80
  -1   4   1   19.80    2.30
  -1   4   1   15.40    1.10
  -1   4   1   17.50    1.00
   1   4  -1   10.00    2.00
   0  -4   1   37.50    1.70
   0  -4   1   37.40    2.10
   0  -4   1   40.90    1.40
   0  -4   1   41.40    2.00
   0  -4  -1   41.10    2.00
   0  -4  -1   38.90    2.00
   0  -4  -1   39.20    1.90
   0  -4  -1   41.70    2.10
   0  -4   1   44.10    2.00
   0  -4  -1   41.40    1.90
   0   4   1   46.40    3.50
   0   4   1   43.10    3.30
   0   4   1   44.10    2.10
   0   4  -1   39.20    3.10
   0   4  -1   39.80    3.00
  -1  -4  -1  305.47    8.30
   1  -4   1  302.57    7.30
   1  -4   1  299.57    7.40
   1  -4   1  298.67    6.80
  -1  -4  -1  298.27    6.90
  -1  -4  -1  302.07    8.10
  -1  -4  -1  307.67    7.40
   1  -4   1  293.77    8.10
   1  -4   1  299.77    7.60
  -1  -4  -1  295.97    7.70
   1   4   1  301.77    8.20
   1   4   1  292.17   10.20
  -1   4  -1  288.07    7.40
  -1   4  -1  314.27   10.30
   1   4   1  299.87   11.00
  -2  -4  -1    5.50    1.40
  -2  -4  -1    5.70    1.20
   2  -4   1    4.50    0.70
  -2  -4  -1    5.60    0.80
   2  -4   1    4.40    0.70
  -2  -4  -1    4.40    1.30
   2  -4   1    5.60    1.30
  -2  -4  -1    2.80    0.70
   2  -4   1    3.90    0.80
   2  -4   1    4.00    0.80
  -2   4  -1    4.40    1.50
   2   4   1    6.50    1.70
  -2   4  -1    8.40    1.50
   2   4   1    2.10    1.00
   2   4   1    3.30    1.40
   2   4   1    3.30    1.50
  -2   4  -1    4.70    0.70
   3  -4   1  159.78    5.00
  -3  -4  -1  165.28    4.70
  -3  -4  -1  155.28    6.00
   3  -4   1  156.98    5.60
  -3  -4  -1  162.78    7.60
   3  -4   1  163.78    7.10
  -3  -4  -1  165.48    6.60
  -3  -4  -1  159.08    6.10
   3   4   1  156.88    8.70
  -3   4  -1  166.88    5.50
  -3   4  -1  161.88    6.70
   3   4   1  163.48    6.90
   3   4   1  162.08    8.60
   3   4   1  158.18    7.80
  -4  -4  -1   10.50    2.00
   4  -4   1   12.80    1.30
   4  -4   1   11.80    2.80
  -4  -4  -1   10.00    1.90
   4  -4   1    7.00    1.90
  -4  -4  -1    8.70    1.60
   4   4   1   11.70    3.60
  -4   4  -1   14.40    2.40
   4   4   1   10.20    2.10
  -4   4  -1    8.20    1.80
  -4   4  -1    9.70    2.20
   4   4   1   10.50    2.30
  -4  -5   1  185.38    6.50
   4  -5  -1  186.08   11.80
   4  -5  -1  175.38    7.10
  -4  -5   1  192.48    7.80
   4   5  -1  183.08   10.60
   4   5  -1  185.48   11.10
  -4   5   1  190.28    7.60
  -4   5   1  190.78    7.30
   4   5  -1  193.18    9.20
  -3  -5   1    1.10    0.60
  -3  -5   1    2.00    0.90
  -3  -5   1    2.10    0.70
  -3  -5   1    4.00    1.30
   3  -5  -1    2.90    1.30
   3  -5  -1    1.50    0.90
   3  -5  -1    0.20    0.60
   3   5  -1    1.00    1.60
  -3   5   1    2.10    0.70
   3   5  -1   -0.70    1.40
  -3   5   1    3.60    1.00
   3   5  -1    0.00    0.80
  -3   5   1    2.10    2.00
   3   5  -1    1.10    0.90
   2  -5  -1  435.06   11.90
   2  -5  -1  466.15   11.60
   2  -5  -1  459.25   12.40
  -2  -5   1  459.35   11.00
  -2  -5   1  456.25   11.80
  -2  -5   1  474.15   12.20
   2  -5  -1  460.65   10.70
  -2   5   1  492.85   16.40
   2   5  -1  438.96   18.90
  -2   5   1  465.25   11.00
   2   5  -1  467.15   16.50
   2   5  -1  458.45   16.80
   2   5  -1  455.15   12.30
  -2   5   1  464.45   11.00
  -1  -5   1   32.50    1.90
  -1  -5   1   30.90    2.00
   1  -5  -1   30.90    1.90
   1  -5  -1   28.40    2.30
  -1  -5   1   30.30    1.70
  -1  -5   1   29.80    1.60
   1  -5  -1   29.10    2.00
   1  -5  -1   30.30    1.50
  -1  -5   1   25.90    2.00
   1  -5  -1   34.20    2.10
  -1  -5   1   33.80    2.00
   1   5  -1   29.80    2.10
   1   5  -1   30.30    3.40
  -1   5   1   29.00    1.70
   1   5  -1   28.30    2.80
  -1   5   1   24.60    2.90
  -1   5   1   30.80    1.40
   1   5  -1   27.70    3.10
   0  -5   1  556.04   11.90
   0  -5  -1  553.44   12.50
   0  -5   1  537.05   12.90
   0  -5  -1  563.24   12.90
   0  -5  -1  548.35   12.60
   0  -5  -1  556.44   11.90
   0  -5   1  555.24   12.40
   0  -5   1  551.24   10.90
   0  -5   1  560.74   12.60
   0  -5  -1  578.74   12.50
   0   5   1  534.95   16.30
   0   5   1  561.84   13.80
   0   5  -1  555.94   15.90
   0   5  -1  544.85   11.80
   0   5  -1  555.04   15.90
   0   5   1  529.25   16.30
   0   5  -1  561.34   16.50
  -1  -5  -1  819.32   17.70
  -1  -5  -1  835.02   16.90
   1  -5   1  812.52   17.70
  -1  -5  -1  840.72   18.40
   1  -5   1  826.92   17.20
   1  -5   1  812.12   17.40
  -1  -5  -1  816.22   18.00
   1  -5   1  780.12   18.30
   1  -5   1  823.92   16.50
  -1  -5  -1  822.82   17.50
   1   5   1  824.72   22.00
   1   5   1  815.12   18.50
  -1   5  -1  844.32   21.40
  -1   5  -1  868.51   22.30
   1   5   1  842.22   23.10
  -1   5  -1  830.62   17.00
  -2  -5  -1   95.99    4.90
  -2  -5  -1   94.19    4.30
   2  -5   1   91.39    3.30
   2  -5   1   89.19    3.40
  -2  -5  -1   88.19    3.60
  -2  -5  -1   90.59    4.30
   2  -5   1   91.69    3.70
  -2  -5  -1   89.59    3.40
   2  -5   1   96.09    4.70
  -2  -5  -1   94.49    3.20
   2  -5   1   91.29    3.90
  -2   5  -1   96.39    4.20
   2   5   1   94.59    4.60
   2   5   1   87.79    6.80
  -2   5  -1   91.49    3.20
   2   5   1   93.79    5.80
   2   5   1   90.29    6.80
  -2   5  -1   98.19    6.40
  -3  -5  -1  376.46   11.10
   3  -5   1  379.96    9.40
  -3  -5  -1  377.76   11.30
   3  -5   1  371.56   12.10
   3  -5   1  369.06   10.40
  -3  -5  -1  381.66   10.20
  -3  -5  -1  374.56    9.30
  -3   5  -1  362.96    9.70
   3   5   1  374.16   13.40
   3   5   1  389.26   15.10
  -3   5  -1  367.26   11.30
  -3   5  -1  387.66   16.00
   3   5   1  377.66   12.00
   3   5   1  358.06   14.70
   4  -5   1   52.09    3.50
   4  -5   1   53.99    4.60
  -4  -5  -1   54.19    3.70
  -4  -5  -1   53.39    4.20
  -4  -5  -1   52.59    3.70
  -4  -5  -1   58.79    5.00
   4   5   1   54.49    4.50
  -4   5  -1   55.39    4.20
  -4   5  -1   57.29    6.70
   4   5   1   53.89    4.90
   4   5   1   47.80    6.00
  -3  -6   1   -0.90    0.80
  -3  -6   1   -1.40    0.80
  -3  -6   1    1.80    0.70
  -3  -6   1    0.40    0.50
   3  -6  -1    0.90    0.90
   3  -6  -1    1.20    0.70
   3  -6  -1   -0.10    0.60
   3   6  -1    0.30    0.80
  -3   6   1    1.00    0.60
   3   6  -1   -0.50    1.40
  -3   6   1   -0.80    1.10
   3   6  -1    0.90    0.90
  -3   6   1   -0.70    0.70
   3   6  -1   -2.20    1.60
   2  -6  -1  603.94   14.80
  -2  -6   1  590.84   14.90
  -2  -6   1  599.84   14.20
   2  -6  -1  613.64   14.00
  -2  -6   1  616.44   14.30
   2  -6  -1  584.04   15.50
  -2  -6   1  619.64   13.80
   2   6  -1  598.14   17.90
   2   6  -1  602.34   15.60
   2   6  -1  641.54   21.70
  -2   6   1  641.24   20.90
   2   6  -1  592.24   20.50
  -2   6   1  597.04   14.00
  -2   6   1  602.14   13.50
  -1  -6   1    1.20    0.50
  -1  -6   1    1.40    0.60
   1  -6  -1    1.80    0.60
  -1  -6   1    1.00    0.40
   1  -6  -1    0.90    0.50
   1  -6  -1    0.60    0.50
  -1  -6   1    1.50    0.50
   1  -6  -1    1.80    0.50
  -1   6   1    0.50    0.80
   1   6  -1    0.20    1.00
   1   6  -1    1.80    1.00
   1   6  -1    1.40    0.90
   1   6  -1    1.20    0.60
  -1   6   1    0.80    0.50
  -1   6   1    1.20    1.20
   0  -6  -1  151.28    4.40
   0  -6   1  154.58    5.20
   0  -6   1  135.39    6.20
   0  -6  -1  156.08    5.10
   0  -6   1  151.08    4.80
   0  -6  -1  149.69    5.40
   0  -6   1  155.48    3.70
   0  -6   1  136.79    6.60
   0  -6  -1  140.09    6.70
   0  -6  -1  149.19    5.10
   0   6  -1  147.49    4.70
   0   6  -1  152.48    7.70
   0   6  -1  163.28    8.30
   0   6   1  149.39    5.30
   0   6   1  149.59    8.10
   0   6  -1  150.78    7.70
   1  -6   1  747.23   16.00
   1  -6   1  720.93   17.40
   1  -6   1  749.62   15.10
   1  -6   1  740.73   16.70
  -1  -6  -1  742.23   16.40
  -1  -6  -1  730.13   15.80
  -1  -6  -1  751.52   16.70
   1  -6   1  759.32   16.90
  -1  -6  -1  748.93   17.30
  -1   6  -1  735.43   22.10
   1   6   1  770.62   21.70
   1   6   1  723.53   17.50
  -1   6  -1  749.03   15.30
   1   6   1  725.43   22.40
  -2  -6  -1   34.60    1.90
  -2  -6  -1   35.00    2.50
  -2  -6  -1   36.20    2.90
   2  -6   1   35.30    2.20
   2  -6   1   33.10    1.90
   2  -6   1   30.80    2.70
   2  -6   1   35.00    2.40
  -2  -6  -1   33.50    2.20
  -2  -6  -1   31.90    2.60
   2  -6   1   33.30    2.10
  -2   6  -1   31.70    2.30
   2   6   1   35.60    5.50
   2   6   1   34.80    3.70
   2   6   1   31.70    3.90
   2   6   1   33.10    2.80
  -2   6  -1   34.50    4.20
   3  -6   1  427.56   10.50
  -3  -6  -1  432.76   13.80
  -3  -6  -1  433.46   11.00
   3  -6   1  430.36   13.50
  -3  -6  -1  447.56   12.90
   3  -6   1  422.96   10.60
   3  -6   1  442.76   12.00
  -3  -6  -1  417.66   12.60
   3   6   1  433.46   13.50
   3   6   1  444.06   15.60
   3   6   1  414.26   17.10
  -3   6  -1  446.46   11.10
  -3   6  -1  453.55   18.40
   3   6   1  419.46   17.40
  -3   6  -1  435.46   12.40
  -3  -7   1    1.40    1.00
   3  -7  -1   -0.10    0.90
   3  -7  -1    4.00    1.30
  -3  -7   1    1.50    0.80
  -3  -7   1    2.30    1.20
   3  -7  -1    2.40    0.90
   3   7  -1    0.80    2.10
   3   7  -1    3.20    1.30
  -3   7   1    3.70    2.00
  -3   7   1    1.00    0.60
  -3   7   1    3.30    1.00
   3   7  -1    0.30    2.20
   3   7  -1    2.60    1.20
  -2  -7   1    2.80    0.80
   2  -7  -1    3.50    0.90
  -2  -7   1    4.50    0.90
  -2  -7   1    4.70    1.10
   2  -7  -1    2.60    0.90
  -2  -7   1    3.30    1.00
   2  -7  -1    2.00    0.90
   2   7  -1    5.40    2.30
   2   7  -1    4.40    1.20
  -2   7   1    2.80    1.70
  -2   7   1    3.70    1.00
   2   7  -1    4.20    1.70
  -2   7   1    4.70    0.80
  -1  -7   1    1.00    0.50
  -1  -7   1    1.30    0.50
   1  -7  -1    0.30    0.40
   1  -7  -1    1.40    0.70
   1  -7  -1    1.60    0.60
   1  -7  -1    1.60    0.60
  -1  -7   1    2.60    0.80
   1   7  -1    0.10    1.10
  -1   7   1    3.00    1.00
   1   7  -1    2.90    1.30
   1   7  -1    2.80    0.90
   1   7  -1    0.00    1.60
  -1   7   1    0.70    1.10
  -1   7   1    0.20    1.20
   0  -7   1   11.00    1.30
   0  -7   1   10.20    1.60
   0  -7  -1   11.20    1.70
   0  -7   1   10.30    1.10
   0  -7  -1   13.80    1.60
   0  -7   1   11.40    1.30
   0  -7  -1   11.10    1.30
   0   7  -1   10.90    2.70
   0   7   1    9.40    2.70
   0   7   1   10.10    1.50
   0   7  -1   10.10    2.40
   0   7   1    8.00    2.10
   0   7  -1   12.80    2.70
   0   7  -1   11.00    1.30
   1  -7   1   14.90    1.10
   1  -7   1   11.30    1.40
  -1  -7  -1   16.50    1.70
   1  -7   1   15.80    1.40
   1  -7   1   13.20    1.70
  -1  -7  -1   10.70    1.70
   1  -7   1   18.30    1.80
  -1  -7  -1   17.10    1.50
  -1  -7  -1   15.10    1.50
   1   7   1   22.40    4.00
   1   7   1   12.40    2.60
   1   7   1   15.80    1.90
  -1   7  -1   14.20    3.00
  -1   7  -1    9.80    2.60
   1   7   1   17.80    3.80
  -2  -7  -1    7.00    1.10
   2  -7   1    8.80    1.40
  -2  -7  -1    7.20    1.20
   2  -7   1    6.70    1.30
  -2  -7  -1    5.70    1.40
   2  -7   1    7.90    1.70
  -2  -7  -1    6.60    1.50
   2   7   1    6.90    1.70
   2   7   1    6.70    2.60
   2   7   1    8.80    2.60
  -2   7  -1    6.50    1.20
  -2   7  -1    4.30    1.90
  -2   7  -1    3.90    1.90
   2   7   1    7.20    2.00
   3  -7   1   15.50    1.80
  -3  -7  -1   17.70    2.10
   3  -7   1   20.40    2.50
  -3  -7  -1   16.20    2.60
  -3  -7  -1   14.00    1.70
   3  -7   1   17.00    2.00
  -3  -7  -1   19.90    2.70
  -3   7  -1   16.90    4.00
   3   7   1   14.50    2.50
  -3   7  -1   18.10    2.10
   3   7   1   12.30    3.00
   3   7   1   19.10    3.90
   3   7   1   17.00    4.20
  -3  -8   1    6.50    1.60
   3  -8  -1    5.70    2.30
   3  -8  -1    5.40    1.60
   3  -8  -1    7.70    1.50
  -3  -8   1    8.00    1.60
  -3  -8   1    7.40    1.70
   3   8  -1    6.50    2.90
  -3   8   1    4.60    1.10
  -3   8   1    8.80    3.40
   3   8  -1    4.70    3.20
   3   8  -1    6.20    1.90
   3   8  -1    4.80    2.00
  -2  -8   1   37.70    2.90
   2  -8  -1   33.00    2.80
  -2  -8   1   36.80    2.80
   2  -8  -1   34.30    2.60
   2  -8  -1   36.60    3.20
  -2  -8   1   39.60    2.50
  -2  -8   1   38.10    2.50
  -2  -8   1   35.40    2.30
   2   8  -1   36.70    3.30
  -2   8   1   35.40    1.90
  -2   8   1   25.00    4.60
   2   8  -1   29.70    5.20
   2   8  -1   34.20    4.00
  -2   8   1   42.80    5.70
  -1  -8   1   66.59    3.00
  -1  -8   1   61.49    3.30
   1  -8  -1   65.29    4.00
   1  -8  -1   63.69    3.60
   1  -8  -1   62.39    4.10
  -1  -8   1   63.19    3.60
   1   8  -1   57.19    5.30
   1   8  -1   60.69    3.70
  -1   8   1   64.09    6.30
   1   8  -1   76.79    8.90
   1   8  -1   44.20    8.60
  -1   8   1   64.09    3.50
  -1   8   1   76.09    7.70
   0  -8   1   48.80    3.00
   0  -8  -1   49.80    3.30
   0  -8  -1   49.80    3.20
   0  -8  -1   42.40    2.80
   0  -8   1   50.99    3.20
   0  -8  -1   47.20    2.90
   0  -8   1   42.80    3.20
   0   8   1   40.70    4.90
   0   8   1   50.49    5.30
   0   8  -1   50.59    5.20
   0   8  -1   51.09    5.10
   0   8  -1   50.19    2.90
   0   8  -1   44.20    5.10
   1  -8   1   43.00    3.80
  -1  -8  -1   46.20    2.70
   1  -8   1   41.80    3.80
  -1  -8  -1   43.20    2.70
   1  -8   1   44.20    3.00
  -1  -8  -1   41.70    3.10
  -1  -8  -1   46.10    3.00
   1  -8   1   42.90    2.40
   1   8   1   43.10    4.80
   1   8   1   48.10    3.40
  -1   8  -1   37.20    4.30
  -1   8  -1   40.50    4.60
  -1   8  -1   45.60    5.10
  -2  -8  -1    0.90    0.70
  -2  -8  -1    0.10    0.80
  -2  -8  -1    1.40    0.70
   2  -8   1    0.00    0.60
   2  -8   1    1.10    0.80
   2  -8   1   -0.70    0.60
  -2  -8  -1    0.00    0.60
  -2  -8  -1    1.10    1.10
   2   8   1    2.50    1.10
  -2   8  -1    0.80    1.70
   2   8   1   -0.20    1.80
  -2   8  -1    4.00    2.10
   2   8   1    2.20    1.40
  -2   8  -1   -0.10    0.60
   2   8   1    2.00    2.10
   2  -9  -1   56.89    3.90
   2  -9  -1   50.49    3.40
  -2  -9   1   54.39    3.20
   2  -9  -1   50.99    4.00
  -2  -9   1   51.59    3.60
   2   9  -1   50.29    5.10
   2   9  -1   59.79    7.10
   2   9  -1   38.50    6.90
  -2   9   1   61.99    6.90
  -2   9   1   52.49    6.20
   2   9  -1   45.20    3.80
  -1  -9   1   20.00    2.00
  -1  -9   1   19.00    2.20
   1  -9  -1   14.30    2.20
   1  -9  -1   13.80    2.00
   1  -9  -1   17.40    2.00
  -1   9   1   14.70    3.80
  -1   9   1   18.90    2.20
   1   9  -1   18.00    2.30
   1   9  -1   29.30    5.20
   1   9  -1   15.40    4.40
   1   9  -1   18.30    3.70
   0  -9  -1   15.50    1.80
   0  -9   1   13.60    2.10
   0  -9   1   12.70    2.00
   0  -9   1   13.80    2.00
   0  -9  -1   18.20    2.10
   0  -9  -1   18.20    2.10
   0  -9  -1   20.20    2.00
   0   9   1   17.60    3.40
   0   9  -1   17.20    2.20
   0   9  -1   20.30    4.00
   0   9  -1   18.70    5.10
   0   9   1   13.80    2.20
   0   9   1   13.50    3.50
   1  -9   1   28.40    2.80
   1  -9   1   32.20    2.70
  -1  -9  -1   28.30    2.30
  -1  -9  -1   30.30    2.60
   1  -9   1   29.00    2.60
  -1  -9  -1   26.20    2.50
   1  -9   1   27.70    2.10
   1   9   1   30.10    5.50
  -1   9  -1   25.20    4.60
  -1   9  -1   25.80    4.90
  -1   9  -1   27.50    4.70
   1   9   1   26.20    4.50
   1   9   1   31.40    3.00
   1   9   1   34.00    5.30
  -2  -9  -1    8.30    1.80
  -2  -9  -1    8.30    1.60
   2  -9   1    9.60    1.80
  -2  -9  -1    3.10    1.50
   2  -9   1    6.90    1.40
  -2  -9  -1    4.20    1.30
   2  -9   1    3.60    1.20
  -2   9  -1    2.50    2.40
  -2   9  -1    2.20    2.70
   2   9   1    6.10    1.70
  -2   9  -1    6.50    3.40
   2   9   1    1.90    2.50
   2   9   1    6.00    2.80
   2   9   1    5.80    2.20
   1 -10  -1   98.29    5.30
  -1 -10   1   83.69    5.00
   1 -10  -1   92.59    5.40
   1 -10  -1   95.99    5.50
  -1 -10   1   94.59    4.80
  -1  10   1   96.69   10.90
  -1  10   1   93.09    8.80
   1  10  -1   94.89    7.60
   1  10  -1  110.59   12.60
   1  10  -1   89.39    5.90
   0 -10   1  135.19    6.80
   0 -10  -1  142.09    6.70
   0 -10  -1  142.39    6.10
   0 -10  -1  134.39    6.40
   0 -10   1  148.39    6.60
   0 -10   1  135.89    6.00
   0  10  -1  140.19   10.30
   0  10   1  160.58   10.90
   0  10   1  141.19    6.60
   0  10  -1  146.99   11.10
   0  10  -1  132.09    9.70
   0  10   1  132.69   10.10
   0  10   1  138.99   11.00
   1 -10   1   81.89    7.00
   1 -10   1   89.39    5.70
   1 -10   1   89.39    4.90
  -1 -10  -1   82.39    5.60
  -1 -10  -1   85.59    4.30
   1  10   1   73.79   13.00
   1  10   1   83.69    5.40
  -1  10  -1   86.89    8.50
  -1  10  -1   92.19    8.00
  -1  10  -1   94.09    8.30
   1  10   1  102.19    8.40
   4   0  -2  122.09    5.90
   4   0  -2  137.69    8.00
  -4   0   2  142.19    6.00
  -4   0   2  128.39    5.70
  -4   0   2  117.89    7.30
   4   0  -2  129.69    7.30
   3   0  -2  617.44   16.90
   3   0  -2  601.44   17.30
   3   0  -2  607.04   15.10
  -3   0   2  619.64   14.70
   3   0  -2  614.44   14.30
  -3   0   2  624.44   15.20
  -3   0   2  617.34   14.80
   2   0  -2 1149.69   23.90
  -2   0   2 1190.78   23.50
  -2   0   2 1153.98   23.80
   2   0  -2 1195.88   23.60
  -2   0   2 1154.28   23.60
   2   0  -2 1183.88   26.00
   0   0  -2 1108.49   22.60
   0   0   2 1241.98   22.70
   0   0  -2 1241.68   24.20
   0   0   2 1212.78   22.60
   0   0   2 1210.78   22.60
   0   0  -2 1271.17   23.70
   0   0   2 1174.88   23.60
   0   0  -2 1114.49   22.50
   0   0  -2 1283.07   23.90
   0   0  -2 1240.88   23.20
  -2   0  -2  116.99    4.20
  -2   0  -2  113.89    4.80
   2   0   2  122.09    3.60
  -2   0  -2  113.69    4.00
  -2   0  -2  123.09    6.00
   2   0   2  125.39    4.10
   2   0   2  118.09    5.50
   2   0   2  117.09    4.90
   3   0   2  229.78    8.50
  -3   0  -2  231.08    8.40
  -3   0  -2  220.18    6.30
  -3   0  -2  212.58    9.20
   3   0   2  232.18    8.60
  -3   0  -2  219.78    7.30
   4   0   2  391.46    9.30
   4   0   2  397.86   11.30
   4   0   2  381.66   13.00
   4   0   2  395.46   13.50
  -4   0  -2  390.16   14.30
  -4   0  -2  388.46   11.90
  -4   0  -2  383.26   12.90
   4  -1  -2   20.50    3.40
  -4  -1   2   22.70    2.30
  -4  -1   2   23.50    2.60
   4  -1  -2   23.00    3.40
   4  -1  -2   21.50    4.10
   4  -1  -2   20.30    3.50
  -4  -1   2   19.60    2.30
   4   1  -2   24.10    2.70
  -4   1   2   22.70    2.30
  -4   1   2   20.10    2.20
   4   1  -2   17.70    3.60
  -4   1   2   21.60    2.40
   4   1  -2   27.00    4.10
  -3  -1   2    0.30    0.30
   3  -1  -2    0.40    0.60
  -3  -1   2    0.10    0.60
   3  -1  -2    1.20    1.60
  -3  -1   2   -0.20    0.40
   3   1  -2   -0.40    0.50
   3   1  -2    0.30    0.50
  -3   1   2    1.00    0.50
  -3   1   2    0.10    0.40
   3   1  -2   -2.10    1.20
  -3   1   2   -0.20    0.40
   3   1  -2    0.10    1.10
   2  -1  -2  360.46    9.10
  -2  -1   2  367.46    9.30
  -2  -1   2  359.86    8.60
  -2  -1   2  360.56    8.90
   2  -1  -2  372.26   10.50
   2  -1  -2  312.37   13.70
   2   1  -2  365.46    9.40
   2   1  -2  361.06   11.00
  -2   1   2  365.36    8.80
  -2   1   2  364.86    8.80
   2   1  -2  383.86    9.40
  -1  -1   2  983.60   18.20
  -1  -1   2  957.30   18.10
   1  -1  -2  966.90   18.80
   1  -1  -2  946.71   20.50
   1  -1  -2  969.80   18.90
  -1  -1   2  959.80   18.50
   1  -1  -2  982.50   19.00
   1  -1  -2  958.30   19.60
  -1  -1   2  956.50   18.70
  -1   1   2  957.60   18.30
   1   1  -2  962.40   20.40
  -1   1   2  973.00   18.70
  -1   1   2  959.60   20.00
   1   1  -2  945.11   18.60
  -1   1   2  931.11   18.20
   1   1  -2  941.81   18.80
  -1   1   2  859.31   19.70
   1   1  -2  941.71   21.20
   0  -1  -2  250.57    7.10
   0  -1  -2  284.07    7.20
   0  -1   2  280.97    6.30
   0  -1   2  261.87    7.80
   0  -1   2  249.18    6.30
   0  -1   2  295.27    6.00
   0  -1  -2  283.77    6.80
   0  -1   2  288.87    6.10
   0  -1  -2  292.27    6.50
   0  -1  -2  287.37    5.70
   0  -1   2  291.67    5.80
   0   1  -2  290.27    6.60
   0   1   2  277.47    6.40
   0   1   2  290.47    5.90
   0   1  -2  291.27    5.90
   0   1  -2  282.07    6.80
   0   1  -2  290.67    7.40
   0   1   2  289.77    7.30
   0   1   2  299.97    5.80
   1  -1   2  502.85    9.80
   1  -1   2  497.85   10.30
   1  -1   2  478.15   10.80
   1  -1   2  488.45   10.80
   1  -1   2  489.85   10.90
  -1  -1  -2  502.55   11.00
  -1  -1  -2  499.95   12.90
  -1  -1  -2  497.05   11.30
  -1  -1  -2  489.95   11.20
   1  -1   2  512.85   10.00
  -1   1  -2  501.65   10.20
   1   1   2  491.75   10.00
   1   1   2  480.75   10.30
  -1   1  -2  491.75   12.70
   1   1   2  503.45   11.70
   1   1   2  487.65   10.90
   1   1   2  515.55   10.30
  -1   1  -2  506.95   11.30
   2  -1   2   18.40    1.30
   2  -1   2   18.40    2.00
   2  -1   2   19.90    2.30
  -2  -1  -2   18.10    1.70
  -2  -1  -2   19.70    1.60
  -2  -1  -2   19.90    2.40
  -2  -1  -2   17.60    1.50
   2  -1   2   19.50    1.80
   2  -1   2   18.10    1.10
   2  -1   2   17.50    1.20
   2   1   2   17.50    1.80
   2   1   2   20.20    1.60
  -2   1  -2   17.20    1.40
  -2   1  -2   19.10    1.30
  -2   1  -2   18.50    1.80
   2   1   2   17.70    1.10
   2   1   2   17.20    2.00
  -2   1  -2   22.80    2.50
  -3  -1  -2  309.07    9.60
   3  -1   2  328.07    7.90
   3  -1   2  338.17   10.30
  -3  -1  -2  337.67    8.90
   3  -1   2  327.07    8.70
  -3  -1  -2  317.27   12.00
   3  -1   2  327.37    8.10
  -3  -1  -2  339.17   10.60
   3  -1   2  329.87   10.70
  -3   1  -2  351.96   12.00
   3   1   2  328.17   11.30
   3   1   2  332.17    7.70
  -3   1  -2  324.77   10.60
   3   1   2  325.27   10.90
   3   1   2  325.47    9.50
  -3   1  -2  320.17   10.60
  -4  -1  -2   45.50    4.60
   4  -1   2   38.90    4.20
  -4  -1  -2   49.80    4.00
  -4  -1  -2   50.89    3.70
   4  -1   2   51.59    2.50
   4  -1   2   51.19    4.60
  -4  -1  -2   49.80    2.90
   4  -1   2   43.40    3.10
   4   1   2   50.69    3.50
   4   1   2   48.40    2.20
  -4   1  -2   50.69    4.80
   4   1   2   47.70    4.30
  -4   1  -2   52.29    3.70
   4   1   2   60.19    5.30
  -4   1  -2   44.60    3.90
  -4  -2   2    6.50    1.70
   4  -2  -2   10.20    2.30
   4  -2  -2    5.60    1.40
  -4  -2   2    7.80    1.60
   4  -2  -2    8.20    2.00
  -4  -2   2    7.40    1.70
   4  -2  -2   11.50    2.90
  -4   2   2    9.20    1.60
  -4   2   2    9.10    1.70
   4   2  -2   10.00    2.90
  -4   2   2    4.70    1.20
   4   2  -2    7.50    1.70
   3  -2  -2   23.10    3.50
   3  -2  -2   17.50    2.80
   3  -2  -2   16.10    2.30
   3  -2  -2   18.10    1.90
  -3  -2   2   19.50    1.70
  -3  -2   2   22.90    2.10
  -3  -2   2   20.50    1.90
   3   2  -2   16.80    1.90
   3   2  -2   20.70    2.20
   3   2  -2   20.30    3.00
  -3   2   2   21.60    1.80
  -3   2   2   20.20    1.80
   3   2  -2   22.40    3.90
  -3   2   2   17.90    1.80
  -2  -2   2   72.09    2.40
  -2  -2   2   68.29    2.60
   2  -2  -2   70.49    4.00
   2  -2  -2   68.39    3.20
  -2  -2   2   69.19    3.00
   2  -2  -2   72.79    3.50
   2  -2  -2   72.59    4.20
  -2  -2   2   64.79    3.20
   2   2  -2   63.59    4.20
   2   2  -2   68.09    3.40
  -2   2   2   68.69    2.90
  -2   2   2   69.89    2.90
   2   2  -2   67.99    3.20
   2   2  -2   71.89    4.80
   1  -2  -2   53.79    2.20
   1  -2  -2   51.79    2.40
   1  -2  -2   54.59    2.80
   1  -2  -2   54.09    2.90
  -1  -2   2   53.29    1.70
  -1  -2   2   53.69    2.00
  -1  -2   2   51.89    2.20
  -1  -2   2   50.79    1.90
   1  -2  -2   55.99    2.20
  -1   2   2   55.29    1.90
   1   2  -2   52.29    3.60
  -1   2   2   53.39    3.10
   1   2  -2   49.90    3.30
   1   2  -2   51.49    2.30
   1   2  -2   52.89    2.20
  -1   2   2   54.39    2.10
   0  -2  -2   70.89    2.00
   0  -2   2   66.59    2.40
   0  -2  -2   65.09    2.70
   0  -2   2   68.09    2.40
   0  -2  -2   68.09    2.50
   0  -2   2   66.49    2.10
   0  -2   2   64.39    2.20
   0  -2   2   68.19    2.10
   0  -2  -2   70.69    2.10
   0   2   2   72.19    2.00
   0   2   2   67.39    2.50
   0   2   2   69.09    3.10
   0   2  -2   68.09    3.10
   0   2  -2   64.69    2.60
   0   2  -2   69.29    2.70
   0   2  -2   75.29    3.50
   0   2   2   68.29    3.40
  -1  -2  -2   40.60    2.80
   1  -2   2   40.30    1.60
   1  -2   2   42.00    1.60
   1  -2   2   35.90    1.90
   1  -2   2   37.90    2.00
  -1  -2  -2   32.50    1.90
  -1  -2  -2   37.30    2.20
  -1   2  -2   37.90    2.00
   1   2   2   33.30    2.80
   1   2   2   37.20    1.40
  -1   2  -2   38.10    2.20
  -1   2  -2   41.40    2.70
   1   2   2   39.20    2.80
   2  -2   2   47.70    2.70
   2  -2   2   58.49    3.20
  -2  -2  -2   60.69    3.20
   2  -2   2   56.39    2.40
  -2  -2  -2   56.99    4.00
   2  -2   2   55.49    3.20
   2  -2   2   56.39    2.70
  -2  -2  -2   59.29    3.00
  -2  -2  -2   58.59    3.00
   2   2   2   54.69    3.40
   2   2   2   54.69    3.50
  -2   2  -2   55.09    3.20
   2   2   2   57.59    2.00
  -2   2  -2   52.69    3.70
  -2   2  -2   56.49    2.40
   2   2   2   59.39    3.70
   2   2   2   54.59    3.00
   3  -2   2    6.60    1.80
   3  -2   2    4.00    0.80
   3  -2   2    5.20    0.90
  -3  -2  -2    3.60    1.10
  -3  -2  -2    2.60    0.90
   3  -2   2    4.40    1.50
  -3  -2  -2    4.50    1.90
   3   2   2    4.70    0.70
   3   2   2    1.70    1.60
   3   2   2    4.80    1.40
  -3   2  -2    2.90    1.10
  -3   2  -2    4.80    1.60
  -3   2  -2    4.30    1.00
   4  -2   2    5.80    2.40
  -4  -2  -2    5.70    2.10
   4  -2   2    9.60    2.10
   4  -2   2    7.10    1.00
   4  -2   2    9.00    1.40
  -4  -2  -2   11.30    1.70
  -4  -2  -2    7.90    1.90
  -4  -2  -2    7.40    1.90
  -4   2  -2    5.90    1.90
  -4   2  -2   12.90    2.90
   4   2   2    8.20    3.20
  -4   2  -2   11.10    2.20
   4   2   2    6.80    1.90
   4   2   2    8.20    1.70
   4   2   2    8.10    0.90
   4  -3  -2   40.10    3.20
   4  -3  -2   34.70    4.30
   4  -3  -2   33.40    3.60
  -4  -3   2   36.20    3.10
   4  -3  -2   32.60    3.30
  -4  -3   2   37.90    3.40
  -4  -3   2   29.90    2.40
  -4   3   2   37.70    2.90
   4   3  -2   36.50    4.40
   4   3  -2   33.00    5.20
  -4   3   2   39.10    3.00
   4   3  -2   34.60    3.50
   4   3  -2   32.20    3.20
   3  -3  -2  298.37    9.70
  -3  -3   2  291.37    8.00
  -3  -3   2  290.27    9.50
   3  -3  -2  296.87    9.90
   3  -3  -2  306.77    9.20
   3  -3  -2  301.57   10.80
  -3  -3   2  297.77    8.80
   3   3  -2  281.27   11.70
  -3   3   2  286.97    8.60
   3   3  -2  291.37    9.70
   3   3  -2  292.97    9.40
  -3   3   2  294.17    8.60
   3   3  -2  289.57   11.70
   2  -3  -2  298.07    8.70
   2  -3  -2  311.27    8.70
  -2  -3   2  298.37    7.10
  -2  -3   2  296.17    8.40
  -2  -3   2  264.17    7.60
  -2  -3   2  304.17    7.90
   2  -3  -2  307.67    9.40
   2  -3  -2  297.67    8.10
  -2   3   2  305.77    7.70
   2   3  -2  309.37   11.10
  -2   3   2  292.77    7.80
   2   3  -2  309.27    8.60
   2   3  -2  312.97   11.60
  -2   3   2  306.47   11.00
   2   3  -2  299.37    9.00
   1  -3  -2 4041.60   72.99
  -1  -3   2 3927.41   71.39
   1  -3  -2 3980.00   74.19
   1  -3  -2 3942.71   72.89
   1  -3  -2 4033.10   72.39
  -1  -3   2 3937.51   72.79
  -1  -3   2 3875.81   72.09
   1   3  -2 3878.91   77.39
   1   3  -2 3966.40   74.19
   1   3  -2 3817.32   72.79
  -1   3   2 3941.51   76.59
   0  -3   2  429.36    8.80
   0  -3   2  416.36    9.40
   0  -3  -2  428.76    9.20
   0  -3  -2  426.86    9.70
   0  -3  -2  418.36    9.90
   0  -3  -2  425.96    9.00
   0  -3   2  419.26    9.30
   0  -3  -2  418.36   10.20
   0  -3   2  425.76    9.50
   0  -3   2  425.86    9.20
   0   3   2  415.36    8.40
   0   3  -2  424.16   11.60
   0   3  -2  420.06   10.70
   0   3   2  410.66    9.70
   0   3  -2  429.36   11.80
   0   3   2  420.96   11.50
   0   3   2  448.96   12.30
   1  -3   2 3715.23   68.69
  -1  -3  -2 3708.43   66.79
   1  -3   2 3671.93   68.29
  -1  -3  -2 3684.93   68.19
  -1  -3  -2 3640.84   70.49
  -1  -3  -2 3686.63   68.89
  -1  -3  -2 3644.64   69.19
  -1   3  -2 3694.73   67.99
   1   3   2 3482.55   71.59
   1   3   2 3609.54   68.99
  -1   3  -2 3657.53   68.69
  -1   3  -2 3680.63   69.39
  -1   3  -2 3836.12   70.99
   2  -3   2  199.38    6.10
   2  -3   2  201.18    5.10
  -2  -3  -2  190.38    6.50
  -2  -3  -2  204.68    8.20
  -2  -3  -2  204.18    6.50
   2  -3   2  203.28    5.60
   2  -3   2  202.68    5.60
  -2  -3  -2  196.08    6.50
   2  -3   2  200.38    6.80
   2   3   2  202.98    6.80
  -2   3  -2  203.98    7.80
   2   3   2  194.38    7.90
  -2   3  -2  195.48    5.30
  -2   3  -2  196.58    6.90
   2   3   2  199.28    8.50
   2   3   2  186.68    7.60
  -3  -3  -2  439.76   14.70
  -3  -3  -2  437.26   12.30
   3  -3   2  431.36   10.40
   3  -3   2  432.76   12.90
   3  -3   2  419.66   12.20
  -3  -3  -2  423.26   11.60
   3  -3   2  448.96   10.60
  -3  -3  -2  434.16   12.30
   3   3   2  425.16    9.00
   3   3   2  431.86   14.00
   3   3   2  438.96   12.50
  -3   3  -2  434.66   13.60
  -3   3  -2  424.16   10.90
   3   3   2  444.56   14.30
  -3   3  -2  423.56   12.80
   3   3   2  431.06   13.70
   4  -3   2   65.09    5.00
  -4  -3  -2   65.09    4.50
  -4  -3  -2   58.39    4.70
   4  -3   2   68.69    3.20
   4  -3   2   66.49    3.50
  -4  -3  -2   71.39    4.60
  -4  -3  -2   57.99    5.20
  -4   3  -2   61.89    4.90
  -4   3  -2   69.09    4.90
   4   3   2   68.99    5.30
   4   3   2   72.39    4.70
   4   3   2   69.89    6.30
  -4   3  -2   59.09    5.00
   4  -4  -2   35.20    4.20
   4  -4  -2   41.00    3.90
   4  -4  -2   39.10    3.20
  -4  -4   2   39.60    2.70
   4  -4  -2   41.60    3.00
  -4  -4   2   38.80    3.60
  -4  -4   2   40.70    3.40
   4   4  -2   38.20    4.80
  -4   4   2   29.20    5.40
   4   4  -2   42.40    5.40
   4   4  -2   36.80    3.40
   4   4  -2   40.90    3.90
  -4   4   2   37.10    3.00
  -4   4   2   39.60    3.10
   3  -4  -2  110.29    5.90
  -3  -4   2  107.19    3.90
   3  -4  -2  101.89    5.30
   3  -4  -2  110.29    5.00
  -3  -4   2  107.59    3.70
  -3  -4   2  105.09    4.70
   3  -4  -2  109.19    4.60
   3  -4  -2  112.49    4.60
  -3  -4   2  106.09    5.20
   3   4  -2  105.09    5.20
   3   4  -2  112.69    7.20
  -3   4   2  106.79    7.40
  -3   4   2  102.79    4.50
  -3   4   2  102.19    4.50
   3   4  -2   96.79    7.20
   3   4  -2  107.49    5.70
   2  -4  -2  323.67    9.60
  -2  -4   2  344.27    8.80
  -2  -4   2  344.17    7.70
  -2  -4   2  341.67    9.50
  -2  -4   2  355.86    8.50
   2  -4  -2  347.07    9.70
   2  -4  -2  336.97    8.70
   2  -4  -2  343.17    9.80
   2  -4  -2  334.47    8.10
   2   4  -2  344.07    9.60
   2   4  -2  355.56   10.60
   2   4  -2  314.27   15.10
   2   4  -2  339.97   13.60
  -2   4   2  349.47    8.50
  -2   4   2  348.77    8.90
  -1  -4   2  286.17    7.10
  -1  -4   2  281.27    6.40
   1  -4  -2  267.27    7.10
   1  -4  -2  290.07    7.50
  -1  -4   2  278.57    7.20
   1  -4  -2  278.77    6.80
   1  -4  -2  275.47    8.20
  -1   4   2  280.67    6.30
   1   4  -2  273.77   10.60
   1   4  -2  265.07    9.30
  -1   4   2  280.67   10.30
  -1   4   2  289.07    7.90
   1   4  -2  286.57    7.30
   1   4  -2  275.27   10.60
   0  -4  -2  465.75   10.90
   0  -4  -2  449.76   11.30
   0  -4   2  456.55   10.30
   0  -4  -2  442.36   10.50
   0  -4   2  453.55    9.40
   0  -4  -2  454.35   10.30
   0  -4   2  463.55   10.70
   0  -4  -2  454.95   10.10
   0  -4   2  456.55   10.30
   0   4  -2  443.56   13.20
   0   4  -2  477.95   13.50
   0   4   2  464.55   10.90
   0   4  -2  445.36   12.40
  -1  -4  -2 1428.16   29.30
  -1  -4  -2 1446.76   30.10
   1  -4   2 1436.26   28.00
   1  -4   2 1424.36   27.50
  -1  -4  -2 1441.26   27.80
   1  -4   2 1412.36   28.90
   1  -4   2 1459.85   28.20
  -1  -4  -2 1445.46   27.20
   1  -4   2 1398.16   28.30
  -1  -4  -2 1390.06   28.90
  -1   4  -2 1441.56   31.60
  -1   4  -2 1414.46   30.50
  -1   4  -2 1450.35   31.00
   1   4   2 1424.66   32.90
   1   4   2 1441.56   32.40
  -1   4  -2 1393.56   29.00
   1   4   2 1442.16   29.40
  -1   4  -2 1441.16   28.40
   2  -4   2  159.58    5.20
   2  -4   2  159.18    6.10
   2  -4   2  167.08    4.70
   2  -4   2  158.28    4.80
  -2  -4  -2  175.38    6.10
  -2  -4  -2  154.58    8.30
  -2  -4  -2  162.88    6.00
  -2  -4  -2  154.78    5.50
   2  -4   2  149.79    6.60
  -2  -4  -2  162.88    4.90
   2   4   2  156.28    7.50
  -2   4  -2  167.18    6.20
   2   4   2  165.08    8.40
   2   4   2  150.28    7.40
   2   4   2  158.78    6.10
  -2   4  -2  159.98    7.90
   3  -4   2  607.64   14.40
  -3  -4  -2  614.24   13.30
   3  -4   2  604.44   16.60
  -3  -4  -2  615.74   17.50
  -3  -4  -2  601.14   18.10
  -3  -4  -2  620.54   15.60
   3  -4   2  626.14   13.90
  -3  -4  -2  607.74   15.60
   3   4   2  622.94   19.00
  -3   4  -2  627.34   16.60
  -3   4  -2  594.24   14.20
   3   4   2  599.04   16.60
   3   4   2  635.24   19.10
   3   4   2  620.14   18.70
   4  -4   2   10.30    2.50
   4  -4   2   10.50    1.60
  -4  -4  -2   11.30    2.00
  -4   4  -2   10.60    1.70
   4   4   2    5.70    2.90
   4   4   2    7.80    1.90
   4   4   2   11.20    3.00
  -4   4  -2    9.60    2.10
  -4  -5   2    4.50    1.50
   4  -5  -2    7.20    1.70
   4  -5  -2    4.10    1.70
  -4  -5   2    7.50    1.40
  -4   5   2    5.50    1.50
  -4   5   2   10.60    4.50
   4   5  -2   11.70    3.90
  -4   5   2    9.20    1.80
   4   5  -2    8.70    3.10
   4   5  -2    4.70    1.60
   3  -5  -2   12.70    2.00
  -3  -5   2   12.10    1.70
   3  -5  -2   14.90    1.70
   3  -5  -2   12.70    1.20
  -3  -5   2   15.60    1.50
  -3  -5   2   19.60    4.10
   3  -5  -2   14.70    2.30
  -3  -5   2   11.80    1.40
   3   5  -2   16.40    2.40
   3   5  -2   11.60    3.50
  -3   5   2   15.00    3.20
   3   5  -2   17.40    3.90
  -3   5   2   15.10    1.60
   3   5  -2   18.10    2.40
  -3   5   2   15.30    1.70
   2  -5  -2   42.10    2.20
  -2  -5   2   37.20    2.30
   2  -5  -2   37.10    2.70
   2  -5  -2   38.60    2.20
  -2  -5   2   36.10    2.20
   2  -5  -2   37.30    2.50
   2  -5  -2   36.80    2.80
  -2  -5   2   43.10    2.70
   2   5  -2   47.90    4.80
   2   5  -2   41.60    4.30
  -2   5   2   37.90    4.10
   2   5  -2   43.30    3.40
  -2   5   2   40.60    2.10
  -2   5   2   38.90    2.40
   2   5  -2   42.40    3.40
   1  -5  -2   39.30    2.30
  -1  -5   2   38.40    2.10
  -1  -5   2   41.20    2.20
   1  -5  -2   37.50    2.30
   1  -5  -2   40.00    2.00
   1  -5  -2   38.30    2.10
   1  -5  -2   41.50    2.80
  -1  -5   2   41.00    2.10
  -1  -5   2   37.50    2.20
   1   5  -2   37.00    3.90
  -1   5   2   44.70    4.10
   1   5  -2   47.40    3.40
   1   5  -2   38.50    3.90
  -1   5   2   39.50    1.60
   1   5  -2   39.10    2.30
   0  -5   2   95.19    4.00
   0  -5   2  101.79    3.70
   0  -5  -2   92.39    3.60
   0  -5   2   97.39    3.60
   0  -5   2   90.69    3.40
   0  -5  -2  100.49    3.60
   0  -5  -2  101.09    4.00
   0  -5  -2  103.69    3.90
   0  -5   2   97.39    3.70
   0   5  -2  105.89    6.00
   0   5   2  107.19    4.20
   0   5   2   96.49    5.70
   0   5   2   98.09    6.00
   0   5  -2   91.89    5.20
   0   5  -2  100.09    5.80
   1  -5   2   31.80    2.00
   1  -5   2   26.30    1.80
  -1  -5  -2   29.60    2.10
  -1  -5  -2   27.40    2.40
   1  -5   2   29.00    1.60
  -1  -5  -2   31.10    1.70
   1  -5   2   26.50    1.80
  -1  -5  -2   30.80    2.30
   1  -5   2   29.10    2.10
   1   5   2   27.30    2.20
  -1   5  -2   23.70    2.60
   1   5   2   25.90    2.90
  -1   5  -2   29.10    1.90
  -1   5  -2   36.50    3.30
  -1   5  -2   28.20    2.00
   1   5   2   29.00    3.40
  -1   5  -2   33.40    3.20
   2  -5   2   44.20    2.20
  -2  -5  -2   45.10    3.00
  -2  -5  -2   47.70    3.10
  -2  -5  -2   42.50    2.40
   2  -5   2   44.90    2.60
   2  -5   2   45.90    2.40
   2  -5   2   41.10    2.60
  -2  -5  -2   43.80    2.40
   2  -5   2   43.20    3.10
  -2  -5  -2   39.10    3.30
  -2  -5  -2   44.60    1.90
  -2   5  -2   42.00    3.20
  -2   5  -2   41.80    2.80
  -2   5  -2   37.40    4.00
   2   5   2   41.70    4.60
   2   5   2   44.50    4.00
   2   5   2   45.40    3.20
   2   5   2   44.40    4.50
  -3  -5  -2    1.20    1.30
   3  -5   2    2.80    1.10
  -3  -5  -2    2.00    1.10
   3  -5   2    1.40    0.60
  -3  -5  -2    1.60    0.60
  -3  -5  -2    1.80    0.90
   3  -5   2    1.80    0.60
  -3  -5  -2    0.70    0.80
   3   5   2    1.00    1.10
  -3   5  -2    0.90    0.80
  -3   5  -2    1.60    0.70
  -3   5  -2    0.90    1.50
   3   5   2    0.40    0.80
   3   5   2   -1.00    1.80
   3   5   2    4.00    1.80
   3  -6  -2   22.00    1.80
  -3  -6   2   20.90    1.50
  -3  -6   2   24.30    1.90
   3  -6  -2   26.30    2.70
   3  -6  -2   24.60    2.30
   3  -6  -2   28.70    2.70
  -3  -6   2   23.50    2.40
   3   6  -2   23.90    2.90
   3   6  -2   22.20    4.30
  -3   6   2   26.30    2.00
  -3   6   2   21.80    4.40
   3   6  -2   31.40    5.00
  -3   6   2   24.60    2.30
   3   6  -2   26.50    2.80
  -2  -6   2   72.99    3.80
  -2  -6   2   76.79    3.50
   2  -6  -2   77.19    4.20
   2  -6  -2   70.89    3.40
  -2  -6   2   75.19    3.80
   2  -6  -2   72.99    4.20
  -2  -6   2   68.19    3.30
   2  -6  -2   72.29    3.80
   2   6  -2   70.09    6.30
   2   6  -2   76.19    4.00
  -2   6   2   73.39    6.20
  -2   6   2   74.19    3.50
   2   6  -2   75.09    5.00
   2   6  -2   76.89    6.60
  -2   6   2   74.49    3.00
  -1  -6   2   17.00    1.50
  -1  -6   2   19.60    1.50
   1  -6  -2   13.60    2.00
   1  -6  -2   14.00    1.50
  -1  -6   2   16.90    1.60
   1  -6  -2   15.90    1.70
   1  -6  -2   17.90    1.60
   1  -6  -2   17.10    1.40
  -1  -6   2   17.50    1.50
   1   6  -2   14.10    3.20
  -1   6   2   22.50    3.80
   1   6  -2   12.90    2.90
  -1   6   2   15.90    1.00
   1   6  -2   17.00    1.60
  -1   6   2   14.20    1.60
   1   6  -2   17.60    2.30
  -1   6   2   15.70    3.20
   0  -6  -2  220.58    6.40
   0  -6  -2  210.68    6.70
   0  -6  -2  223.08    6.80
   0  -6  -2  224.28    6.30
   0  -6   2  220.38    6.30
   0  -6   2  223.68    6.70
   0  -6   2  204.98    6.40
   0  -6  -2  207.48    6.60
   0  -6   2  213.08    7.00
   0  -6   2  221.78    5.20
   0   6  -2  212.38    9.10
   0   6  -2  219.98   10.00
   0   6  -2  217.28    9.70
   0   6   2  215.78   10.00
   0   6   2  224.58   10.30
   0   6   2  211.08    7.00
  -1  -6  -2  134.19    4.40
   1  -6   2  135.19    4.10
   1  -6   2  136.29    4.90
   1  -6   2  132.79    4.90
  -1  -6  -2  136.19    5.00
   1  -6   2  128.99    5.40
  -1  -6  -2  133.79    5.10
  -1  -6  -2  137.59    5.60
   1  -6   2  134.29    4.80
  -1   6  -2  137.09    7.00
  -1   6  -2  133.39    5.10
  -1   6  -2  125.79    7.10
   1   6   2  153.18    8.60
  -1   6  -2  137.19    7.70
   1   6   2  148.79    8.10
  -1   6  -2  137.29    4.50
   1   6   2  134.29    5.60
   2  -6   2  100.29    4.40
  -2  -6  -2  100.69    4.70
   2  -6   2  102.39    4.50
   2  -6   2  100.09    5.10
  -2  -6  -2   99.39    4.20
  -2  -6  -2  103.59    5.10
  -2  -6  -2   98.49    5.40
   2  -6   2  103.19    3.80
  -2  -6  -2  103.89    3.40
   2  -6   2  110.29    4.20
  -2   6  -2   98.99    7.10
   2   6   2  103.39    7.60
   2   6   2  102.29    7.00
  -2   6  -2  100.39    5.70
   2   6   2   97.69    6.60
   2   6   2   96.29    5.20
  -2   6  -2  111.79    6.80
  -2   6  -2   91.89    4.60
  -3  -6  -2  230.88    8.70
   3  -6   2  226.28    7.80
   3  -6   2  245.38    7.10
  -3  -6  -2  238.48    7.50
   3  -6   2  215.48    6.90
   3  -6   2  238.68    9.30
  -3  -6  -2  229.38    7.10
  -3  -6  -2  244.78    9.90
  -3  -6  -2  234.08    8.70
   3   6   2  223.28   11.80
   3   6   2  246.78   11.20
   3   6   2  237.08   12.30
  -3   6  -2  240.38    8.90
  -3   6  -2  222.88   12.40
   3   6   2  252.47    9.50
   3  -7  -2  110.49    5.40
  -3  -7   2  106.49    5.50
   3  -7  -2  104.79    5.90
  -3  -7   2  108.59    5.00
  -3  -7   2  116.59    4.90
   3  -7  -2  112.49    4.60
   3   7  -2  119.59    9.90
   3   7  -2  108.79    6.50
   3   7  -2  110.39    6.10
  -3   7   2  113.19    9.20
  -3   7   2  106.99    5.60
   3   7  -2  122.59    9.30
  -3   7   2  112.59    5.20
  -2  -7   2  170.28    5.40
   2  -7  -2  158.48    5.70
  -2  -7   2  163.98    5.70
  -2  -7   2  168.68    6.10
  -2  -7   2  165.58    5.70
  -2  -7   2  163.38    6.10
   2  -7  -2  170.58    6.80
   2  -7  -2  140.89    7.60
  -2   7   2  165.08    4.90
  -2   7   2  161.98   13.20
  -2   7   2  153.78    5.90
   2   7  -2  148.49   10.20
   2   7  -2  162.48    8.20
   2   7  -2  163.98    6.60
  -1  -7   2 1469.85   30.20
   1  -7  -2 1571.34   30.10
  -1  -7   2 1535.85   30.80
   1  -7  -2 1519.15   31.80
  -1  -7   2 1465.85   30.20
  -1  -7   2 1469.15   31.10
   1  -7  -2 1495.45   31.30
   1  -7  -2 1485.65   31.00
   1   7  -2 1498.05   39.00
  -1   7   2 1499.45   38.00
  -1   7   2 1531.75   31.30
   1   7  -2 1466.85   31.00
   1   7  -2 1551.44   39.80
   1   7  -2 1533.85   35.90
  -1   7   2 1493.95   38.60
   0  -7   2  123.99    5.30
   0  -7   2  116.39    4.90
   0  -7  -2  123.09    5.10
   0  -7  -2  120.29    4.90
   0  -7   2  120.99    3.40
   0  -7  -2  125.59    5.00
   0  -7   2  124.09    4.50
   0  -7  -2  129.79    4.80
   0  -7  -2  122.99    4.30
   0  -7   2  119.59    4.80
   0   7  -2  112.39   10.30
   0   7   2  122.69    5.20
   0   7  -2  124.19    7.70
   0   7  -2  128.79    8.10
   0   7   2  126.09    8.00
   0   7   2  123.09    8.00
   1  -7   2  965.20   21.30
   1  -7   2  987.90   20.80
   1  -7   2  977.70   22.40
  -1  -7  -2  948.61   21.20
  -1  -7  -2  968.70   21.20
  -1  -7  -2  970.50   22.10
   1  -7   2  966.50   19.40
   1  -7   2  962.40   21.10
  -1  -7  -2  968.50   20.30
  -1   7  -2  952.40   21.50
   1   7   2  941.41   28.30
  -1   7  -2  977.00   27.30
   1   7   2  933.41   27.20
  -1   7  -2  930.71   25.70
  -1   7  -2  978.00   27.20
   1   7   2  934.21   22.40
  -2  -7  -2   31.60    2.80
   2  -7   2   36.70    3.20
  -2  -7  -2   39.20    3.20
  -2  -7  -2   39.70    2.70
  -2  -7  -2   34.60    2.10
   2  -7   2   40.70    2.70
   2  -7   2   33.90    2.90
   2  -7   2   36.70    2.50
   2  -7   2   31.90    2.70
  -2  -7  -2   38.00    2.90
  -2   7  -2   36.00    2.60
   2   7   2   41.50    6.90
  -2   7  -2   43.20    5.10
   2   7   2   30.90    3.80
   2   7   2   35.50    4.40
  -2   7  -2   31.00    3.50
   2   7   2   40.70    4.30
  -2   7  -2   34.80    4.40
  -3  -7  -2   49.99    3.90
   3  -7   2   51.49    3.50
  -3  -7  -2   50.89    3.20
  -3  -7  -2   50.19    3.90
   3  -7   2   47.80    2.70
   3  -7   2   49.30    4.10
  -3  -7  -2   45.80    4.20
   3   7   2   54.29    4.40
   3   7   2   49.90    5.10
  -3   7  -2   53.09    5.70
   3   7   2   59.39    6.70
   3   7   2   59.99    6.20
  -3   7  -2   47.90    6.10
  -3   7  -2   51.39    3.60
   3  -8  -2   22.80    4.40
   3  -8  -2   14.20    2.40
  -3  -8   2   14.00    2.40
   3  -8  -2   19.40    2.50
  -3  -8   2   22.40    2.20
  -3  -8   2   13.30    2.00
   3   8  -2   25.00    5.40
  -3   8   2   17.00    4.30
   3   8  -2   16.10    4.40
   3   8  -2   21.30    3.50
  -3   8   2   16.80    1.70
  -2  -8   2   64.59    3.40
  -2  -8   2   66.89    3.70
  -2  -8   2   65.99    3.50
   2  -8  -2   66.59    3.70
  -2  -8   2   71.59    3.90
   2  -8  -2   71.29    4.40
   2  -8  -2   68.79    4.10
  -2   8   2   64.09    3.90
   2   8  -2   56.69    6.80
  -2   8   2   51.79    4.00
  -2   8   2   57.89    6.20
   2   8  -2   71.19    4.30
   2   8  -2   68.39    5.40
   2   8  -2   61.89    6.60
  -2   8   2   66.09    6.80
  -1  -8   2   57.29    3.30
   1  -8  -2   64.99    3.10
  -1  -8   2   63.59    3.20
  -1  -8   2   68.49    5.00
   1  -8  -2   61.09    3.80
   1  -8  -2   64.39    3.60
   1  -8  -2   54.39    4.30
   1   8  -2   51.59    6.00
  -1   8   2   48.50    5.70
   1   8  -2   62.29    5.20
  -1   8   2   70.89    8.30
  -1   8   2   63.59    3.80
   0  -8  -2   70.79    3.90
   0  -8  -2   74.39    4.10
   0  -8   2   74.19    3.80
   0  -8   2   75.69    3.50
   0  -8   2   78.49    4.40
   0  -8  -2   74.29    3.90
   0  -8   2   72.59    3.90
   0  -8  -2   73.59    3.70
   0   8   2   74.39    6.80
   0   8  -2   82.99    6.20
   0   8  -2   76.69    6.50
   0   8  -2   76.29    3.50
   0   8  -2   67.19    6.40
   0   8   2   74.99    6.60
   0   8   2   76.39    4.30
  -1  -8  -2   29.90    3.10
   1  -8   2   35.00    3.00
   1  -8   2   37.50    2.70
   1  -8   2   35.20    1.90
  -1  -8  -2   36.50    2.30
  -1  -8  -2   28.90    3.00
  -1  -8  -2   32.50    2.40
   1  -8   2   37.50    2.70
   1  -8   2   37.10    2.50
  -1   8  -2   36.80    2.80
  -1   8  -2   32.70    4.20
   1   8   2   34.30    3.00
   1   8   2   44.80    6.90
  -1   8  -2   32.30    5.00
   1   8   2   32.70    4.40
  -1   8  -2   33.90    5.40
   2  -8   2   31.50    2.90
  -2  -8  -2   38.70    2.90
   2  -8   2   38.40    2.60
   2  -8   2   40.90    2.30
  -2  -8  -2   41.00    2.40
  -2  -8  -2   38.40    3.30
   2  -8   2   44.70    3.10
  -2  -8  -2   42.30    3.10
  -2  -8  -2   38.90    3.30
   2  -8   2   38.60    3.40
  -2   8  -2   37.20    4.30
   2   8   2   40.50    4.80
  -2   8  -2   49.50    6.00
   2   8   2   43.20    3.70
   2   8   2   31.30    5.20
   2   8   2   45.00    5.80
  -2   8  -2   39.00    2.50
  -2  -9   2    2.50    1.10
  -2  -9   2    0.50    0.80
   2  -9  -2    1.90    0.90
  -2  -9   2    0.40    0.80
   2  -9  -2    0.40    0.90
   2  -9  -2   -0.30    0.70
  -2   9   2   -1.40    1.00
   2   9  -2    2.20    1.50
  -2   9   2    2.50    2.10
   2   9  -2   -0.30    2.20
   2   9  -2   -0.40    2.30
  -2   9   2    2.50    1.90
   2   9  -2    0.90    1.30
  -1  -9   2   34.50    2.60
   1  -9  -2   32.50    3.00
   1  -9  -2   32.00    2.80
   1  -9  -2   30.30    2.70
  -1  -9   2   30.60    2.70
  -1  -9   2   27.50    3.00
  -1   9   2   41.00    5.30
  -1   9   2   36.10    6.30
  -1   9   2   30.60    2.90
   1   9  -2   28.90    4.60
   1   9  -2   36.60    6.50
   1   9  -2   34.30    2.80
   1   9  -2   32.40    5.30
   0  -9  -2   11.50    1.80
   0  -9  -2   12.70    2.00
   0  -9  -2   11.80    1.80
   0  -9   2   11.80    1.50
   0  -9  -2   10.00    1.90
   0  -9   2    7.70    1.50
   0  -9   2   10.20    1.70
   0  -9   2   10.50    1.90
   0   9  -2   11.10    3.00
   0   9   2   19.80    4.60
   0   9   2   16.70    4.20
   0   9  -2    4.00    2.60
   0   9   2   10.40    1.90
   0   9  -2    7.00    3.10
  -1  -9  -2    2.90    1.50
   1  -9   2    3.30    1.10
  -1  -9  -2    2.60    1.10
   1  -9   2    1.80    0.80
   1  -9   2    1.10    0.80
   1  -9   2    2.60    1.00
  -1  -9  -2    4.90    1.20
  -1  -9  -2    2.90    1.00
   1   9   2    1.00    2.10
  -1   9  -2    5.10    2.60
   1   9   2    3.30    2.80
   1   9   2    3.80    1.70
  -1   9  -2    3.20    2.10
  -1   9  -2    3.60    1.40
  -1   9  -2    3.10    2.20
   1   9   2    4.80    1.40
   2  -9   2   -0.70    0.80
   2  -9   2    1.30    0.90
  -2  -9  -2    0.10    1.30
  -2  -9  -2    1.40    1.00
  -2  -9  -2    0.00    1.40
   2  -9   2    0.60    1.10
  -2  -9  -2   -1.20    0.80
  -2  -9  -2   -0.50    0.60
  -2   9  -2    0.00    2.10
   2   9   2   -1.30    1.50
   2   9   2   -0.70    1.20
   2   9   2    0.80    2.20
   2   9   2   -2.10    2.00
  -2   9  -2   -1.10    2.00
  -2   9  -2    0.80    1.90
  -1 -10   2  551.54   19.70
  -1 -10   2  565.74   14.80
   1 -10  -2  553.94   15.90
   1 -10  -2  570.64   15.60
   1 -10  -2  527.85   16.30
  -1  10   2  530.25   23.80
   1  10  -2  537.35   26.40
   1  10  -2  581.04   20.40
   1  10  -2  534.55   15.10
  -1  10   2  628.94   33.00
  -1  10   2  555.94   16.00
   0 -10  -2   26.50    2.50
   0 -10   2   21.60    2.30
   0 -10  -2   28.60    2.70
   0 -10   2   26.80    2.90
   0 -10   2   24.90    2.60
   0 -10  -2   25.20    2.40
   0  10   2   27.50    5.50
   0  10  -2   21.00    4.30
   0  10   2   32.30    6.30
   0  10  -2   27.40    5.90
   0  10   2   21.80    2.70
   0  10  -2   37.40    6.90
   1 -10   2  219.48    9.40
  -1 -10  -2  223.38    9.00
   1 -10   2  248.58    9.10
  -1 -10  -2  242.88    9.00
  -1 -10  -2  237.58    7.90
   1 -10   2  234.38    8.60
   1  10   2  237.28   15.20
   1  10   2  228.88    9.60
   1  10   2  206.28   15.50
   1  10   2  257.27   14.50
  -1  10  -2  249.97   13.80
  -1  10  -2  262.47   14.80
  -1  10  -2  258.87   13.80
   4   0  -3    0.70    1.80
  -4   0   3   -0.10    0.70
   4   0  -3   -1.50    2.20
   4   0  -3   -2.00    1.00
  -4   0   3   -0.20    0.80
  -4   0   3   -0.20    0.50
   3   0  -3    1.50    1.70
   3   0  -3    0.50    0.60
  -3   0   3    0.20    0.40
  -3   0   3   -0.10    0.30
   3   0  -3   -0.50    0.50
   3   0  -3   -1.70    1.40
  -3   0   3   -0.10    0.50
   2   0  -3   -0.50    0.30
  -2   0   3   -0.20    0.30
  -2   0   3    1.10    0.40
   2   0  -3    0.20    1.10
   2   0  -3   -1.70    0.80
   2   0  -3    0.30    0.40
  -2   0   3   -0.50    0.30
   1   0  -3   -1.30    0.70
  -1   0   3    0.00    0.20
  -1   0   3    0.10    0.20
   1   0  -3    0.10    0.70
   1   0  -3    0.20    0.30
   1   0  -3    0.30    0.30
   0   0   3    0.50    0.20
   0   0   3    0.10    0.10
   0   0   3    0.10    0.10
   0   0  -3    0.40    0.50
   0   0  -3   -0.10    0.80
   0   0  -3    0.70    0.50
   0   0  -3   -0.10    0.30
  -1   0  -3    0.00    0.70
   1   0   3    0.00    0.10
  -1   0  -3    0.00    0.30
   1   0   3    0.20    0.20
  -1   0  -3    0.30    0.30
  -1   0  -3    0.20    0.70
   1   0   3   -0.20    0.20
   1   0   3    0.00    0.20
  -2   0  -3   -0.10    0.50
   2   0   3    0.40    1.00
  -2   0  -3   -0.70    0.80
   2   0   3   -0.20    0.30
   2   0   3   -0.10    0.20
   2   0   3   -0.50    0.30
   2   0   3   -0.10    0.20
  -2   0  -3    0.50    0.30
  -2   0  -3    0.30    0.40
   3   0   3    2.30    1.50
  -3   0  -3    0.30    0.80
  -3   0  -3    0.40    0.50
  -3   0  -3    1.40    0.50
   3   0   3   -1.20    0.60
   3   0   3   -0.30    0.30
   3   0   3   -0.90    0.50
  -3   0  -3    2.00    1.10
  -4   0  -3   -2.00    0.80
   4   0   3    1.60    1.80
   4   0   3    0.30    0.40
  -4   0  -3    1.00    1.50
   4   0   3   -1.00    0.70
  -4   0  -3   -1.40    0.80
   4   0   3   -0.70    1.20
   4   0   3    0.60    1.00
  -4  -1   3    1.70    1.00
   4  -1  -3    0.50    1.00
  -4  -1   3    0.60    0.60
  -4  -1   3   -0.80    0.80
   4  -1  -3    1.50    1.40
   4  -1  -3   -0.60    2.10
   4  -1  -3    5.40    2.20
   4   1  -3   -1.40    2.40
  -4   1   3    0.80    0.70
   4   1  -3   -1.20    1.70
   4   1  -3    0.60    0.90
   4   1  -3    1.60    1.10
  -4   1   3    0.00    1.00
  -4   1   3    2.70    1.00
   3  -1  -3  190.78    8.30
   3  -1  -3  192.88    6.80
  -3  -1   3  190.48    6.00
  -3  -1   3  191.98    6.50
   3  -1  -3  186.48    8.50
  -3  -1   3  181.78    6.60
  -3   1   3  190.98    6.20
   3   1  -3  187.38    6.70
  -3   1   3  184.28    6.50
   3   1  -3  206.18    9.40
  -3   1   3  191.38    6.30
   3   1  -3  191.68    8.90
   3   1  -3  192.88    7.00
   3   1  -3  187.38    7.00
  -2  -1   3  546.85   11.30
  -2  -1   3  540.65   12.40
   2  -1  -3  546.75   12.40
   2  -1  -3  526.75   12.80
   2  -1  -3  548.15   15.10
   2  -1  -3  540.35   14.00
  -2  -1   3  540.55   12.30
  -2  -1   3  548.95   11.80
  -2   1   3  539.65   12.00
   2   1  -3  549.15   13.20
  -2   1   3  547.95   12.00
   2   1  -3  554.14   15.60
   2   1  -3  550.74   12.70
   2   1  -3  534.25   15.10
  -2   1   3  540.65   12.40
   1  -1  -3 1527.65   29.30
   1  -1  -3 1579.34   30.70
   1  -1  -3 1544.65   30.50
   1  -1  -3 1577.34   32.30
  -1  -1   3 1538.45   29.50
  -1  -1   3 1549.54   29.70
  -1  -1   3 1548.45   29.00
   1  -1  -3 1518.65   30.20
  -1  -1   3 1382.16   29.20
  -1  -1   3 1561.84   29.30
   1   1  -3 1546.65   31.20
   1   1  -3 1571.74   32.70
   1   1  -3 1567.84   29.00
  -1   1   3 1558.44   29.10
  -1   1   3 1613.54   31.30
   1   1  -3 1578.84   31.00
   1   1  -3 1529.45   29.90
  -1   1   3 1586.94   29.80
   0  -1   3   37.20    1.70
   0  -1  -3   34.80    2.50
   0  -1   3   37.40    1.40
   0  -1  -3   36.50    2.40
   0  -1  -3   34.80    1.80
   0  -1   3   33.80    1.50
   0  -1   3   37.10    1.70
   0  -1   3   37.60    1.30
   0   1   3   36.00    1.40
   0   1  -3   32.70    1.20
   0   1   3   37.40    1.80
   0   1  -3   34.90    2.40
   0   1  -3   36.40    2.20
   0   1  -3   36.80    1.40
   0   1   3   33.70    1.60
   0   1   3   38.60    2.20
   0   1  -3   39.20    2.30
   1  -1   3  693.83   13.10
  -1  -1  -3  665.33   17.10
   1  -1   3  673.63   14.50
  -1  -1  -3  684.13   14.70
   1  -1   3  684.73   14.30
   1  -1   3  704.13   14.10
  -1  -1  -3  681.13   13.70
  -1  -1  -3  688.43   15.40
   1  -1   3  678.03   13.80
   1  -1   3  680.63   14.40
  -1  -1  -3  623.84   16.70
  -1   1  -3  674.93   15.40
   1   1   3  698.43   13.80
   1   1   3  684.63   14.00
  -1   1  -3  669.13   15.80
   1   1   3  674.83   15.60
   1   1   3  673.93   14.50
  -1   1  -3  670.03   13.80
  -2  -1  -3  263.67    8.50
   2  -1   3  276.57    7.00
  -2  -1  -3  267.57    7.90
   2  -1   3  264.87    7.40
  -2  -1  -3  265.27    7.80
  -2  -1  -3  267.87   10.20
   2  -1   3  282.47    8.30
   2  -1   3  263.57    8.00
   2   1   3  270.97    8.70
  -2   1  -3  264.37    7.30
  -2   1  -3  267.17    7.30
   2   1   3  276.97    7.60
   2   1   3  278.47    6.70
  -2   1  -3  271.67   10.20
   2   1   3  268.67    9.20
  -2   1  -3  271.17    8.80
   3  -1   3  339.77    8.60
  -3  -1  -3  325.37   10.90
  -3  -1  -3  341.87    9.50
  -3  -1  -3  341.37   10.10
   3  -1   3  337.97   11.00
   3  -1   3  339.97   10.10
  -3  -1  -3  331.17   12.80
   3  -1   3  336.17   10.80
  -3   1  -3  328.17    8.50
  -3   1  -3  314.57   12.40
  -3   1  -3  355.16   11.50
   3   1   3  339.27    9.70
  -3   1  -3  354.96    9.70
   3   1   3  312.57    9.10
   3   1   3  335.97   11.30
   3   1   3  341.47   11.10
   4  -1   3    0.40    1.90
  -4  -1  -3    3.00    1.00
   4  -1   3    0.80    1.30
  -4  -1  -3    3.10    1.30
  -4  -1  -3    4.90    2.10
   4  -1   3    3.30    0.90
   4   1   3    4.70    1.30
   4   1   3    5.50    2.50
   4   1   3    1.50    1.10
  -4   1  -3    0.60    1.00
  -4   1  -3    6.70    1.80
   4   1   3    1.90    0.60
  -4   1  -3    7.50    2.70
   4  -2  -3    1.20    2.20
  -4  -2   3    7.50    1.70
   4  -2  -3    7.90    2.00
  -4  -2   3    3.70    1.00
  -4  -2   3    4.50    1.40
   4  -2  -3    7.30    1.80
   4  -2  -3    5.30    2.40
   4   2  -3   10.20    3.10
  -4   2   3    7.00    1.40
  -4   2   3    8.30    1.60
   4   2  -3    4.10    1.50
   4   2  -3    4.60    1.40
   4   2  -3    7.10    3.00
   4   2  -3    4.30    1.60
  -4   2   3    6.70    1.50
   3  -2  -3  255.67   10.20
  -3  -2   3  265.37    8.20
   3  -2  -3  268.67   10.10
  -3  -2   3  264.57    8.60
   3  -2  -3  264.57    9.10
   3  -2  -3  272.87    8.60
  -3  -2   3  266.47    7.50
   3   2  -3  280.77    9.00
  -3   2   3  270.27    8.20
   3   2  -3  282.87   11.60
   3   2  -3  280.77    8.90
   3   2  -3  274.07   11.30
  -3   2   3  267.67    7.90
  -3   2   3  268.77    7.60
   2  -2  -3   73.09    4.20
   2  -2  -3   75.99    3.50
  -2  -2   3   72.89    2.60
  -2  -2   3   72.29    3.20
   2  -2  -3   70.99    4.70
  -2  -2   3   66.79    2.60
   2  -2  -3   68.59    3.40
  -2  -2   3   70.49    3.00
   2   2  -3   71.59    4.40
   2   2  -3   77.69    5.00
  -2   2   3   66.69    3.10
  -2   2   3   73.89    4.50
   2   2  -3   69.99    3.30
   2   2  -3   75.99    3.40
  -2   2   3   69.39    2.80
   1  -2  -3 1384.86   29.20
   1  -2  -3 1391.76   26.60
   1  -2  -3 1418.96   28.20
  -1  -2   3 1366.26   27.00
  -1  -2   3 1385.76   26.60
   1  -2  -3 1364.36   28.60
  -1  -2   3 1385.26   26.00
  -1  -2   3 1369.76   26.40
   1  -2  -3 1401.96   28.90
  -1   2   3 1369.76   26.20
  -1   2   3 1377.66   29.40
   1   2  -3 1388.56   30.90
   1   2  -3 1371.16   29.50
   1   2  -3 1366.46   26.40
   1   2  -3 1381.46   26.80
   0  -2  -3 2964.10   56.79
   0  -2   3 2956.40   55.39
   0  -2   3 2960.30   54.69
   0  -2  -3 2945.11   55.69
   0  -2  -3 2970.70   56.29
   0  -2  -3 3060.49   56.19
   0  -2   3 2959.90   54.49
   0   2   3 2991.50   56.49
   0   2   3 2926.71   57.69
   0   2   3 2925.21   55.59
   0   2  -3 3005.80   56.39
   0   2  -3 2953.60   57.79
   0   2  -3 2960.80   56.49
   1  -2   3 1353.46   25.80
  -1  -2  -3 1353.86   29.90
  -1  -2  -3 1360.66   27.90
   1  -2   3 1352.06   27.10
  -1  -2  -3 1391.16   27.80
   1  -2   3 1382.56   27.00
  -1  -2  -3 1376.06   26.70
  -1  -2  -3 1341.07   27.50
   1  -2   3 1329.77   26.20
   1   2   3 1377.96   26.00
   1   2   3 1364.96   28.90
   1   2   3 1400.86   26.00
   1   2   3 1334.67   29.10
   1   2   3 1345.17   27.40
  -1   2  -3 1343.57   27.90
  -1   2  -3 1408.06   27.90
   2  -2   3  820.12   17.80
   2  -2   3  791.32   18.30
  -2  -2  -3  815.52   18.30
  -2  -2  -3  810.22   18.20
   2  -2   3  795.62   16.20
   2  -2   3  797.82   17.70
   2  -2   3  811.12   16.20
   2  -2   3  805.32   16.80
  -2  -2  -3  795.02   18.70
  -2  -2  -3  789.12   21.20
   2   2   3  821.82   18.20
  -2   2  -3  780.02   16.80
   2   2   3  802.32   19.70
  -2   2  -3  789.42   20.90
   2   2   3  799.82   16.20
   2   2   3  808.92   19.30
  -2   2  -3  776.52   19.00
   3  -2   3  109.39    5.20
  -3  -2  -3   94.19    4.80
   3  -2   3   94.99    5.20
   3  -2   3   94.29    3.80
  -3  -2  -3   99.09    5.20
  -3  -2  -3  100.09    4.60
  -3  -2  -3  103.19    6.60
   3  -2   3   99.39    3.50
   3   2   3  103.69    3.40
  -3   2  -3   98.59    6.30
   3   2   3   99.99    4.80
   3   2   3   98.69    5.70
  -3   2  -3  102.19    5.50
  -3   2  -3  102.09    4.30
   4  -2   3    5.30    2.10
  -4  -2  -3    1.40    1.00
   4  -2   3    1.00    1.70
  -4  -2  -3    2.00    1.20
  -4  -2  -3    6.20    2.60
   4  -2   3    1.60    0.60
  -4  -2  -3    2.50    1.10
   4   2   3    1.80    2.30
  -4   2  -3    1.40    1.20
   4   2   3    1.50    1.30
  -4   2  -3    1.80    1.00
   4   2   3    0.50    1.10
   4   2   3    3.20    0.70
  -4   2  -3    0.00    1.60
  -4  -3   3    5.80    1.70
   4  -3  -3   10.60    2.20
   4  -3  -3    8.30    2.10
  -4  -3   3    9.50    1.50
   4  -3  -3    9.60    2.00
   4  -3  -3    7.40    2.90
  -4  -3   3   10.40    1.90
   4   3  -3   12.70    2.40
  -4   3   3    9.80    1.80
  -4   3   3   10.20    1.80
   4   3  -3   13.30    3.20
  -4   3   3    9.50    2.80
   4   3  -3    9.40    2.00
   4   3  -3   15.80    3.80
   3  -3  -3  113.19    6.50
  -3  -3   3  117.59    4.90
  -3  -3   3  120.39    5.40
  -3  -3   3  118.69    3.80
   3  -3  -3  115.39    5.20
  -3  -3   3  120.69    4.30
   3  -3  -3  113.39    5.80
   3  -3  -3  123.19    5.80
  -3   3   3  119.79    7.40
   3   3  -3  124.19    5.60
   3   3  -3  118.39    5.40
   3   3  -3  120.59    7.50
  -3   3   3  118.59    5.00
   3   3  -3  128.49    7.70
  -3   3   3  118.09    4.70
   2  -3  -3  185.38    7.10
   2  -3  -3  183.58    6.10
  -2  -3   3  191.48    5.70
   2  -3  -3  187.68    6.30
  -2  -3   3  190.28    4.90
  -2  -3   3  190.88    6.10
   2  -3  -3  193.48    7.20
  -2  -3   3  183.68    5.20
  -2   3   3  189.78    8.40
  -2   3   3  189.68    5.90
   2   3  -3  187.58    6.20
   2   3  -3  187.78    9.00
   2   3  -3  185.38    8.20
  -2   3   3  190.28    5.40
   2   3  -3  185.08    6.30
   1  -3  -3  495.55   11.70
   1  -3  -3  491.05   12.60
   1  -3  -3  498.25   11.40
  -1  -3   3  518.25   10.50
  -1  -3   3  501.55   10.10
  -1  -3   3  494.35   11.30
  -1  -3   3  499.75   10.10
  -1  -3   3  511.85   11.10
   1  -3  -3  499.35   11.00
   1   3  -3  500.95   11.10
   1   3  -3  503.35   15.40
   1   3  -3  492.15   14.40
  -1   3   3  496.45   14.20
  -1   3   3  496.95   11.30
   1   3  -3  495.45   11.50
   0  -3  -3  672.23   15.20
   0  -3  -3  687.33   14.90
   0  -3   3  671.33   14.20
   0  -3   3  669.33   14.20
   0  -3   3  682.43   13.80
   0  -3  -3  676.43   15.30
   0  -3   3  684.43   14.60
   0  -3   3  667.03   13.90
   0  -3  -3  686.03   13.80
   0  -3  -3  678.93   13.70
   0   3   3  679.43   13.50
   0   3   3  683.43   16.50
   0   3  -3  667.93   17.30
   0   3  -3  695.73   15.70
   0   3  -3  677.83   15.10
   0   3   3  686.13   17.50
   0   3  -3  668.03   16.40
   1  -3   3  370.66    9.30
   1  -3   3  362.26    9.10
   1  -3   3  369.96    8.50
   1  -3   3  357.96    8.50
   1  -3   3  374.26    8.40
  -1  -3  -3  388.16    9.40
  -1  -3  -3  359.56   11.00
  -1  -3  -3  356.56    9.90
   1   3   3  370.06    8.00
  -1   3  -3  355.76   12.30
   1   3   3  366.06    9.70
  -1   3  -3  354.86    9.30
  -1   3  -3  374.96    9.70
  -1   3  -3  369.26   10.10
  -1   3  -3  365.96    9.80
  -1   3  -3  369.76   10.40
   1   3   3  361.76   11.50
   2  -3   3  282.37    7.10
   2  -3   3  284.07    7.40
   2  -3   3  284.97    8.20
   2  -3   3  273.27    8.50
  -2  -3  -3  286.37    8.70
   2  -3   3  279.47    6.90
  -2  -3  -3  270.87    8.50
  -2  -3  -3  289.37   11.00
  -2  -3  -3  278.07    8.60
  -2   3  -3  277.27    9.00
  -2   3  -3  278.47   10.20
  -2   3  -3  269.07    6.90
   2   3   3  286.67    9.40
   2   3   3  284.27   10.20
   2   3   3  273.17   10.30
   2   3   3  284.97    8.70
   3  -3   3   20.50    1.60
  -3  -3  -3   23.50    2.20
   3  -3   3   19.90    1.60
  -3  -3  -3   21.10    2.30
   3  -3   3   23.80    2.60
  -3  -3  -3   24.20    4.10
  -3  -3  -3   16.70    2.40
  -3   3  -3   25.20    2.00
   3   3   3   19.70    2.20
   3   3   3   24.50    3.50
  -3   3  -3   24.30    3.80
   3   3   3   17.10    2.80
  -3   3  -3   19.50    2.80
   3   3   3   22.80    1.30
  -4  -3  -3   36.90    3.50
   4  -3   3   37.90    2.40
  -4  -3  -3   41.80    3.80
   4  -3   3   31.60    3.60
  -4  -3  -3   42.40    3.20
  -4   3  -3   36.90    4.50
   4   3   3   43.80    5.40
   4   3   3   40.60    3.50
   4   3   3   41.50    5.10
  -4   3  -3   38.00    3.90
   4  -4  -3    0.00    1.60
   4  -4  -3    0.80    0.70
   4  -4  -3   -0.50    1.20
  -4  -4   3    0.40    1.10
   4  -4  -3    0.70    1.50
  -4  -4   3    1.00    0.70
  -4  -4   3    1.40    0.90
   4  -4  -3   -1.00    0.80
   4   4  -3    0.70    0.90
  -4   4   3    0.60    0.60
   4   4  -3   -0.20    0.90
   4   4  -3    3.60    2.40
   4   4  -3    0.40    2.00
  -3  -4   3   94.69    3.60
   3  -4  -3  101.79    4.70
   3  -4  -3   98.09    5.20
   3  -4  -3  100.39    5.20
  -3  -4   3   96.69    4.40
  -3  -4   3  100.39    3.70
  -3  -4   3   90.89    4.80
   3  -4  -3   97.19    3.30
   3  -4  -3   94.09    5.80
  -3   4   3   96.49    4.50
  -3   4   3   99.19    7.10
   3   4  -3   93.89    7.10
   3   4  -3   91.09    4.90
   3   4  -3  101.79    5.20
  -3   4   3   99.69    4.20
   3   4  -3   93.99    6.70
   2  -4  -3   13.40    2.10
   2  -4  -3   15.40    1.60
  -2  -4   3   13.00    1.40
  -2  -4   3   12.60    1.20
  -2  -4   3   11.20    0.90
  -2  -4   3   14.00    1.30
   2  -4  -3   11.80    1.50
   2   4  -3   10.80    1.60
  -2   4   3   11.60    2.60
   2   4  -3   11.50    1.50
   2   4  -3   11.80    2.50
   2   4  -3   12.40    2.80
  -2   4   3   11.90    1.10
  -2   4   3   12.10    1.40
  -1  -4   3   80.79    3.30
   1  -4  -3   75.99    4.00
   1  -4  -3   79.99    3.20
  -1  -4   3   79.19    2.40
   1  -4  -3   78.89    3.20
  -1  -4   3   77.39    3.00
   1  -4  -3   81.69    3.20
  -1  -4   3   78.29    3.10
   1  -4  -3   78.99    3.50
  -1  -4   3   83.59    3.20
  -1   4   3   78.59    2.50
  -1   4   3   76.29    3.30
   1   4  -3   77.89    5.40
  -1   4   3   69.79    5.00
   1   4  -3   78.99    3.80
   1   4  -3   80.49    3.10
   1   4  -3   77.89    5.20
   0  -4  -3  147.49    4.20
   0  -4   3  142.09    4.40
   0  -4   3  143.89    4.70
   0  -4  -3  128.39    6.10
   0  -4  -3  138.99    4.90
   0  -4  -3  150.28    5.20
   0  -4   3  140.69    4.60
   0  -4   3  142.09    4.50
   0  -4   3  135.09    4.50
   0  -4  -3  144.19    5.40
   0   4   3  155.28    6.80
   0   4   3  141.59    5.00
   0   4  -3  148.19    6.90
   0   4  -3  144.39    5.60
   0   4   3  147.79    3.80
   0   4   3  134.69    6.70
   0   4  -3  148.39    5.40
   0   4  -3  145.79    6.50
  -1  -4  -3   65.59    2.20
   1  -4   3   63.69    3.00
   1  -4   3   62.99    2.80
   1  -4   3   61.99    2.70
  -1  -4  -3   67.09    3.60
  -1  -4  -3   63.49    4.00
  -1  -4  -3   63.99    3.30
   1  -4   3   65.69    2.70
  -1  -4  -3   60.19    2.90
   1  -4   3   63.49    3.10
  -1   4  -3   64.19    4.10
   1   4   3   75.09    4.80
  -1   4  -3   64.89    4.10
  -1   4  -3   66.29    3.30
  -1   4  -3   68.19    3.20
  -1   4  -3   56.09    3.80
   1   4   3   63.29    4.60
  -1   4  -3   64.79    3.90
   1   4   3   73.59    3.60
   2  -4   3  180.58    5.30
  -2  -4  -3  180.88    6.30
   2  -4   3  180.78    6.20
   2  -4   3  175.68    5.50
  -2  -4  -3  175.98    6.70
   2  -4   3  171.88    5.40
   2  -4   3  179.78    6.60
  -2  -4  -3  170.58    6.50
  -2  -4  -3  178.48    8.00
   2   4   3  178.28    7.90
  -2   4  -3  181.38    6.90
   2   4   3  165.88    8.50
   2   4   3  184.08    8.50
  -2   4  -3  181.18    7.80
   2   4   3  183.88    6.90
  -3  -4  -3   40.50    3.10
  -3  -4  -3   31.00    2.80
  -3  -4  -3   29.10    3.80
  -3  -4  -3   33.90    2.80
   3  -4   3   35.20    2.30
  -3  -4  -3   36.70    2.00
   3  -4   3   32.80    4.00
   3  -4   3   38.40    2.30
   3   4   3   30.90    4.20
  -3   4  -3   30.50    3.70
   3   4   3   35.30    3.90
  -3   4  -3   35.40    2.30
   3   4   3   31.80    3.00
   3   4   3   37.10    3.80
  -3   4  -3   40.40    3.40
   4  -4   3    6.70    1.10
  -4  -4  -3    5.10    1.60
  -4   4  -3    7.80    2.00
  -4  -5   3    3.90    1.60
  -4  -5   3    3.60    1.40
   4  -5  -3    1.30    1.90
  -4  -5   3    2.20    0.90
   4  -5  -3    3.40    1.10
   4  -5  -3    0.90    1.30
   4   5  -3    2.10    1.30
   4   5  -3   -1.00    2.40
   4   5  -3    1.20    1.70
   4   5  -3    2.70    2.50
  -4   5   3    2.60    1.00
  -4   5   3    1.10    1.00
  -4   5   3    1.00    2.70
   3  -5  -3  271.77    9.10
  -3  -5   3  276.97    9.30
   3  -5  -3  273.77    7.30
  -3  -5   3  240.28    9.10
   3  -5  -3  281.47    8.40
   3  -5  -3  286.47    9.80
  -3  -5   3  280.07    8.60
   3  -5  -3  279.57    9.60
  -3  -5   3  277.77    7.10
   3   5  -3  290.47   10.10
  -3   5   3  285.67   13.40
   3   5  -3  277.47   10.60
  -3   5   3  285.67    8.90
  -3   5   3  286.07    8.20
   3   5  -3  272.57   12.60
   3   5  -3  268.27   13.40
  -2  -5   3   38.40    1.70
  -2  -5   3   40.50    2.40
  -2  -5   3   38.00    2.60
   2  -5  -3   42.90    3.30
   2  -5  -3   41.20    2.60
   2  -5  -3   42.60    2.80
   2  -5  -3   39.10    2.50
  -2  -5   3   44.00    2.30
   2   5  -3   41.60    3.60
  -2   5   3   39.00    2.00
  -2   5   3   37.90    2.50
   2   5  -3   47.50    4.60
   2   5  -3   41.30    3.10
   2   5  -3   35.20    4.30
  -2   5   3   42.50    4.40
   1  -5  -3  504.75   12.20
  -1  -5   3  513.95   12.10
   1  -5  -3  516.95   12.00
  -1  -5   3  526.15   12.00
   1  -5  -3  521.15   12.30
   1  -5  -3  514.65   13.80
  -1  -5   3  519.65   12.20
   1  -5  -3  513.35   12.30
  -1  -5   3  519.95   11.90
   1   5  -3  510.15   17.20
  -1   5   3  511.95   10.70
   1   5  -3  510.95   13.90
   1   5  -3  530.35   17.00
   1   5  -3  508.55   12.00
  -1   5   3  502.05   16.70
  -1   5   3  521.25   12.60
   0  -5   3 1499.75   30.00
   0  -5   3 1487.55   29.30
   0  -5  -3 1517.45   29.50
   0  -5   3 1450.85   29.60
   0  -5   3 1497.15   29.70
   0  -5  -3 1485.75   30.10
   0  -5  -3 1465.05   30.40
   0  -5  -3 1463.75   29.00
   0  -5   3 1462.65   28.20
   0  -5  -3 1507.45   31.20
   0   5   3 1489.65   34.30
   0   5   3 1468.05   30.40
   0   5  -3 1449.15   34.00
   0   5  -3 1452.85   31.00
   0   5  -3 1470.55   32.40
   0   5  -3 1521.45   35.00
   0   5   3 1395.76   34.70
   1  -5   3  516.95   13.00
   1  -5   3  520.75   12.20
  -1  -5  -3  530.05   11.30
  -1  -5  -3  506.15   13.90
   1  -5   3  526.15   12.80
  -1  -5  -3  524.85   13.60
  -1  -5  -3  530.05   12.00
  -1  -5  -3  502.55   13.60
   1  -5   3  530.35   11.70
   1  -5   3  528.85   12.30
  -1   5  -3  530.65   13.10
   1   5   3  547.15   16.80
   1   5   3  528.45   16.90
  -1   5  -3  524.45   15.70
  -1   5  -3  547.85   15.50
  -1   5  -3  542.35   12.80
  -1   5  -3  518.55   15.30
  -2  -5  -3 1102.59   23.80
  -2  -5  -3 1143.29   25.10
   2  -5   3 1101.79   24.10
   2  -5   3 1128.79   23.50
   2  -5   3 1117.89   25.10
   2  -5   3 1101.59   22.90
  -2  -5  -3 1141.89   27.40
   2  -5   3 1101.79   22.90
  -2  -5  -3 1096.59   25.20
   2   5   3 1159.28   30.40
  -2   5  -3 1141.79   27.30
  -2   5  -3 1129.89   29.40
   2   5   3 1063.29   32.00
   2   5   3 1093.99   28.60
  -2   5  -3 1099.89   25.00
   2   5   3 1125.09   25.70
   3  -5   3   67.89    3.50
  -3  -5  -3   66.99    4.20
  -3  -5  -3   64.49    4.20
   3  -5   3   66.39    4.40
   3  -5   3   61.09    3.10
  -3  -5  -3   64.09    3.10
  -3  -5  -3   56.99    5.00
  -3  -5  -3   64.39    3.90
  -3   5  -3   58.69    4.20
   3   5   3   51.79    5.30
  -3   5  -3   51.79    5.50
   3   5   3   64.79    5.50
  -3   5  -3   54.59    3.70
   3   5   3   58.39    5.00
   3   5   3   68.19    4.50
   3  -6  -3  138.19    6.50
  -3  -6   3  127.49    6.00
   3  -6  -3  125.69    5.80
  -3  -6   3  130.39    4.20
  -3  -6   3  129.79    5.40
  -3  -6   3  135.69    5.10
   3  -6  -3  136.49    6.50
   3  -6  -3  132.29    4.80
   3   6  -3  136.99    6.90
  -3   6   3  135.09    5.90
   3   6  -3  141.79    9.20
   3   6  -3  133.49    6.40
   3   6  -3  147.89   10.10
  -3   6   3  142.59    9.80
  -3   6   3  130.69    5.00
   2  -6  -3   17.30    1.90
  -2  -6   3   20.40    1.60
  -2  -6   3   20.90    1.80
   2  -6  -3   22.20    3.00
   2  -6  -3   19.80    1.70
  -2  -6   3   19.50    1.90
   2  -6  -3   20.20    1.90
   2  -6  -3   21.30    1.80
   2   6  -3   24.40    4.50
   2   6  -3   14.10    2.50
   2   6  -3   20.20    2.00
   2   6  -3   17.40    3.70
  -2   6   3   15.40    3.10
  -2   6   3   15.80    1.70
  -2   6   3   17.20    1.60
   1  -6  -3  278.37    7.70
  -1  -6   3  277.47    7.70
   1  -6  -3  278.97    8.10
   1  -6  -3  285.07    7.90
  -1  -6   3  283.77    7.90
   1  -6  -3  283.87    9.40
   1  -6  -3  252.87    9.30
  -1  -6   3  286.47    7.90
  -1  -6   3  286.47    8.20
  -1   6   3  286.67    8.40
   1   6  -3  266.47   12.20
  -1   6   3  268.37    6.40
  -1   6   3  271.87   12.30
   1   6  -3  268.47   12.40
  -1   6   3  276.77   11.60
   1   6  -3  278.77    7.80
   1   6  -3  291.27   10.10
   0  -6   3  314.87    9.20
   0  -6  -3  328.67    8.50
   0  -6  -3  320.87    9.30
   0  -6  -3  330.67    8.90
   0  -6  -3  317.57    9.00
   0  -6   3  319.17    8.70
   0  -6   3  333.07    8.90
   0  -6   3  331.67    9.10
   0  -6   3  334.57    7.60
   0   6   3  328.37    9.60
   0   6   3  300.37   12.70
   0   6  -3  316.67   11.40
   0   6   3  315.97   12.70
   0   6  -3  337.27   12.80
   1  -6   3  211.18    6.60
  -1  -6  -3  207.18    7.50
  -1  -6  -3  207.28    5.80
   1  -6   3  209.78    6.80
   1  -6   3  216.18    7.30
   1  -6   3  215.28    5.80
   1  -6   3  203.88    6.50
  -1  -6  -3  212.68    7.20
  -1   6  -3  203.08    9.10
   1   6   3  203.78    7.50
   1   6   3  205.18   10.00
  -1   6  -3  212.08    9.60
  -1   6  -3  214.78    7.30
  -1   6  -3  207.78    6.40
  -1   6  -3  201.68    9.30
   1   6   3  198.28   10.20
  -2  -6  -3  451.25   13.20
  -2  -6  -3  448.36   11.40
   2  -6   3  465.75   11.20
   2  -6   3  454.75   13.20
  -2  -6  -3  487.05   14.50
   2  -6   3  469.95   12.40
   2  -6   3  460.25   11.50
  -2  -6  -3  477.85   13.10
   2  -6   3  470.45   11.90
  -2  -6  -3  463.85   11.80
   2   6   3  479.25   17.90
   2   6   3  471.05   16.50
  -2   6  -3  459.05   14.20
  -2   6  -3  458.65   16.70
  -2   6  -3  467.95   15.60
   2   6   3  469.75   16.50
   2   6   3  459.65   13.70
  -2   6  -3  464.15   12.70
  -3  -6  -3  141.39    5.20
  -3  -6  -3  141.39    5.90
   3  -6   3  137.79    5.10
  -3  -6  -3  137.39    6.60
   3  -6   3  130.19    5.50
  -3  -6  -3  142.29    7.70
   3  -6   3  134.09    6.80
  -3  -6  -3  142.09    6.60
  -3   6  -3  147.99    6.80
  -3   6  -3  126.59    9.40
   3   6   3  134.79    8.20
   3   6   3  139.19    8.90
   3   6   3  147.99    9.40
   3   6   3  142.59    7.00
  -3  -7   3    0.70    1.10
   3  -7  -3    0.30    0.80
   3  -7  -3    2.00    1.20
  -3  -7   3    0.10    0.90
   3  -7  -3    2.60    1.00
   3  -7  -3    2.30    1.00
  -3  -7   3    1.30    0.80
   3   7  -3    2.90    2.00
   3   7  -3    1.20    1.00
  -3   7   3    1.80    0.70
  -3   7   3    3.50    2.50
   3   7  -3    2.60    1.20
   3   7  -3    1.80    1.90
   2  -7  -3    4.90    1.40
   2  -7  -3    5.90    1.10
  -2  -7   3    5.10    1.20
  -2  -7   3    6.00    1.20
  -2  -7   3    6.10    1.20
  -2  -7   3    5.80    1.20
   2  -7  -3    5.50    1.20
  -2  -7   3    5.20    1.00
   2  -7  -3    6.70    1.60
  -2   7   3    2.30    1.90
   2   7  -3    5.80    1.50
  -2   7   3    6.30    0.90
   2   7  -3    4.30    2.30
  -2   7   3    6.40    1.30
   2   7  -3   10.20    3.20
   2   7  -3    6.10    1.30
  -1  -7   3   28.00    2.10
  -1  -7   3   24.30    2.20
   1  -7  -3   28.20    2.30
   1  -7  -3   25.30    2.20
   1  -7  -3   26.10    2.00
  -1  -7   3   28.10    2.20
   1  -7  -3   29.30    2.30
   1  -7  -3   29.50    2.10
   1   7  -3   22.80    4.30
   1   7  -3   23.30    4.00
  -1   7   3   18.60    3.60
  -1   7   3   28.00    3.80
   1   7  -3   32.00    3.30
   1   7  -3   25.30    2.00
  -1   7   3   27.90    2.40
   0  -7   3    2.10    0.70
   0  -7  -3    2.50    0.70
   0  -7   3    5.10    1.10
   0  -7   3    4.70    0.70
   0  -7  -3    2.50    0.80
   0  -7  -3    4.30    1.00
   0  -7   3    2.40    0.70
   0  -7  -3    4.60    1.00
   0  -7   3    3.40    1.00
   0  -7  -3    4.30    1.10
   0   7  -3    3.30    1.50
   0   7  -3    2.40    1.60
   0   7   3    6.30    2.10
   0   7  -3    2.90    1.40
   0   7   3    0.10    1.20
   0   7   3    5.30    1.20
  -1  -7  -3   11.50    2.20
   1  -7   3   10.80    1.40
   1  -7   3   11.80    1.50
   1  -7   3   10.20    1.50
  -1  -7  -3   14.60    2.20
   1  -7   3   11.70    1.10
  -1  -7  -3    9.40    1.50
  -1  -7  -3    7.70    1.40
   1  -7   3   11.50    1.80
   1   7   3   10.70    2.00
   1   7   3    8.40    2.30
   1   7   3    8.30    2.50
  -1   7  -3   11.10    1.80
  -1   7  -3    8.40    1.20
  -1   7  -3    6.40    2.20
  -1   7  -3    9.50    2.60
  -1   7  -3   17.30    3.40
  -2  -7  -3   16.10    1.40
  -2  -7  -3   19.70    2.40
  -2  -7  -3   14.50    2.20
  -2  -7  -3   15.50    1.70
   2  -7   3   16.00    1.80
   2  -7   3   20.40    2.30
   2  -7   3   14.30    2.10
   2  -7   3   15.40    1.70
   2  -7   3   14.50    1.40
  -2  -7  -3   14.60    2.60
  -2   7  -3   16.60    2.00
   2   7   3   22.60    3.80
   2   7   3   11.20    2.00
   2   7   3    8.60    2.40
  -2   7  -3   12.90    3.20
  -2   7  -3   21.60    4.00
   3  -7   3    7.40    1.50
  -3  -7  -3   10.90    1.70
   3  -7   3    4.70    1.50
  -3  -7  -3    8.10    2.40
   3  -7   3    6.80    2.10
  -3  -7  -3    7.00    1.80
  -3  -7  -3    8.60    2.40
  -3   7  -3    5.90    1.60
   3   7   3    7.90    2.30
   3   7   3    8.90    3.40
  -3   7  -3    7.00    3.00
   3   7   3   12.10    3.40
   3   7   3    2.70    1.70
  -2  -8   3   54.49    3.50
  -2  -8   3   48.50    3.10
   2  -8  -3   44.60    3.40
   2  -8  -3   46.90    3.10
   2  -8  -3   50.09    3.50
  -2  -8   3   46.10    3.70
  -2  -8   3   54.09    3.20
  -2   8   3   49.50    3.50
  -2   8   3   54.39    6.30
   2   8  -3   50.09    3.60
   2   8  -3   56.29    4.70
   2   8  -3   50.39    6.30
   2   8  -3   58.29    6.60
  -2   8   3   44.40    5.40
  -2   8   3   50.49    2.30
   1  -8  -3   75.79    4.30
  -1  -8   3   72.79    4.10
  -1  -8   3   79.39    3.90
   1  -8  -3   66.19    5.20
   1  -8  -3   77.29    3.70
  -1  -8   3   75.29    3.80
   1  -8  -3   71.49    4.40
  -1   8   3   75.39    4.40
  -1   8   3   74.69    7.00
  -1   8   3   78.19    7.20
   1   8  -3   78.29    5.60
   1   8  -3   85.49    7.50
   1   8  -3   74.09    3.80
   0  -8  -3   99.29    4.30
   0  -8   3  103.09    4.50
   0  -8   3  122.19    7.40
   0  -8   3   96.79    4.60
   0  -8  -3  102.19    4.90
   0  -8   3   94.29    5.30
   0  -8  -3  104.39    4.50
   0  -8  -3  105.99    5.00
   0  -8  -3   99.29    4.90
   0  -8   3  100.69    3.20
   0   8  -3  104.69    7.00
   0   8   3   96.99    5.20
   0   8  -3  102.49    7.90
   0   8  -3   97.59    7.70
   0   8   3  114.29    9.00
   1  -8   3   24.30    2.20
   1  -8   3   28.10    2.70
   1  -8   3   26.10    1.70
  -1  -8  -3   28.20    2.40
   1  -8   3   28.10    2.50
  -1  -8  -3   28.60    2.80
   1  -8   3   27.00    2.40
  -1  -8  -3   26.00    2.00
  -1  -8  -3   27.10    2.40
  -1   8  -3   25.60    4.30
   1   8   3   19.20    3.90
  -1   8  -3   32.30    4.20
  -1   8  -3   27.10    2.60
  -1   8  -3   29.40    4.50
   1   8   3   35.80    6.00
   1   8   3   27.10    3.00
   2  -8   3   24.80    1.90
  -2  -8  -3   26.40    2.40
  -2  -8  -3   24.90    2.50
   2  -8   3   25.00    2.30
   2  -8   3   22.40    2.20
  -2  -8  -3   25.80    3.00
  -2  -8  -3   20.90    1.70
   2  -8   3   22.30    2.50
  -2  -8  -3   24.80    2.70
   2  -8   3   24.80    2.80
  -2   8  -3   22.70    2.30
  -2   8  -3   17.80    3.60
   2   8   3   22.40    3.90
   2   8   3   27.50    3.10
  -2   8  -3   27.80    4.50
   2   8   3   28.00    5.30
   2   8   3   26.20    4.50
  -2   8  -3   23.70    4.50
  -2  -9   3   25.70    2.40
  -2  -9   3   21.30    2.30
   2  -9  -3   25.40    2.60
  -2  -9   3   27.00    2.70
  -2  -9   3   22.80    2.50
   2  -9  -3   18.90    2.50
   2  -9  -3   20.40    3.20
  -2   9   3   22.80    3.90
   2   9  -3   17.00    5.40
   2   9  -3   24.70    3.70
  -2   9   3   32.90    7.80
   2   9  -3   17.20    5.10
   2   9  -3   27.00    2.80
  -1  -9   3   73.29    4.00
   1  -9  -3   83.49    4.50
  -1  -9   3   81.79    4.20
  -1  -9   3   78.09    4.60
   1  -9  -3   75.99    4.60
   1  -9  -3   71.99    4.20
   1  -9  -3   74.79    3.80
   1   9  -3   85.99    8.30
   1   9  -3   76.59    6.00
  -1   9   3   91.09    8.20
   1   9  -3   80.29    7.60
  -1   9   3   74.69    7.50
  -1   9   3   71.99    4.60
   1   9  -3   72.49    4.10
   0  -9  -3    2.20    0.90
   0  -9   3    1.70    0.60
   0  -9   3    1.80    1.00
   0  -9   3    2.10    1.00
   0  -9  -3    3.20    0.90
   0  -9  -3    3.30    1.00
   0  -9  -3    1.40    0.90
   0  -9  -3    2.30    1.60
   0  -9   3    2.70    1.00
   0  -9   3    0.40    0.70
   0   9   3    4.60    2.30
   0   9   3    2.30    2.10
   0   9   3    5.50    1.40
   0   9  -3   -1.60    1.90
   0   9  -3    1.60    1.90
   0   9  -3    2.90    2.00
  -1  -9  -3   78.29    4.70
  -1  -9  -3   71.19    4.30
   1  -9   3   80.69    4.50
  -1  -9  -3   82.09    4.20
  -1  -9  -3   73.79    3.70
   1  -9   3   73.89    3.90
   1  -9   3   72.79    4.70
   1  -9   3   79.99    4.40
   1   9   3   70.19    7.60
  -1   9  -3   68.49    6.80
  -1   9  -3   73.79    4.70
  -1   9  -3   76.69    7.10
   1   9   3   71.79    4.90
   1   9   3   59.19    6.30
  -1   9  -3   62.99    6.60
  -1 -10   3   43.60    3.70
   1 -10  -3   52.39    4.00
  -1 -10   3   55.09    3.60
   1 -10  -3   36.70    4.10
   1 -10  -3   45.60    5.20
   1 -10  -3   43.90    3.30
   1  10  -3   51.19    7.90
  -1  10   3   47.90    6.50
   1  10  -3   54.79    5.50
  -1  10   3   53.29    4.30
   1  10  -3   39.10    8.70
  -1  10   3   47.20    7.40
   0 -10   3   47.40    5.70
   0 -10   3   46.10    5.00
   0 -10  -3   51.29    3.70
   0 -10   3   45.30    3.90
   0 -10  -3   46.40    3.90
   0 -10  -3   53.69    3.50
   0  10   3   45.00    9.20
   0  10  -3   57.09    6.10
   0  10  -3   53.69    4.50
   0  10  -3   49.60    7.60
   0  10   3   54.09    4.40
   0  10  -3   54.39    7.00
   4   0  -4   63.59    6.20
  -4   0   4   49.70    3.20
   4   0  -4   54.59    3.80
   4   0  -4   57.09    5.50
   4   0  -4   50.99    3.90
  -4   0   4   55.09    3.60
  -4   0   4   57.59    3.80
  -3   0   4  914.81   20.70
  -3   0   4  924.31   20.40
   3   0  -4  912.51   23.70
  -3   0   4  943.21   19.90
   3   0  -4  911.71   21.40
   3   0  -4  911.91   21.10
   3   0  -4  939.31   24.80
   2   0  -4 3719.23   69.59
  -2   0   4 3626.24   67.49
  -2   0   4 3661.63   68.19
   2   0  -4 3621.94   72.79
   2   0  -4 3574.64   68.99
   2   0  -4 3640.74   70.89
  -2   0   4 3641.84   68.49
   1   0  -4 1576.44   33.90
  -1   0   4 1592.64   30.90
  -1   0   4 1580.54   30.50
  -1   0   4 1589.44   30.00
   1   0  -4 1571.44   31.50
   1   0  -4 1577.74   32.20
   1   0  -4 1586.74   32.00
   0   0   4 4389.96   81.39
   0   0  -4 4515.65   84.89
   0   0  -4 4366.06   81.69
   0   0  -4 4461.65   83.49
   1   0   4 1116.19   22.00
  -1   0  -4 1138.49   24.10
   1   0   4 1080.09   22.30
   1   0   4 1104.79   21.80
   1   0   4 1082.79   21.70
  -1   0  -4 1101.59   23.70
   1   0   4 1095.49   22.80
  -1   0  -4 1069.89   25.90
  -1   0  -4 1115.99   22.40
  -2   0  -4  276.57    8.30
   2   0   4  282.27    7.40
  -2   0  -4  282.97    8.10
  -2   0  -4  263.07   12.10
   2   0   4  280.17    7.40
   2   0   4  293.97    8.00
   2   0   4  267.07    8.70
  -2   0  -4  290.97   12.70
   3   0   4  918.61   19.80
  -3   0  -4  899.81   22.80
   3   0   4  910.81   22.60
   3   0   4  919.01   19.20
  -3   0  -4  897.41   20.20
   3   0   4  891.01   20.50
  -3   0  -4  857.91   25.20
  -3   0  -4  894.61   20.90
  -4   0  -4   76.09    6.80
   4   0   4   92.59    6.10
  -4   0  -4   81.39    4.90
   4   0   4   88.59    6.20
   4   0   4   82.59    4.30
   4   0   4   91.79    6.10
   4   0   4   87.19    3.70
  -4   0  -4   88.59    5.80
  -4  -1   4    4.00    1.10
  -4  -1   4    5.10    1.10
   4  -1  -4    3.90    1.40
  -4  -1   4    4.00    1.20
   4  -1  -4    3.00    2.20
   4  -1  -4    8.00    3.20
   4  -1  -4    3.30    1.60
   4   1  -4    5.00    2.50
   4   1  -4    7.60    1.80
   4   1  -4    1.50    1.10
  -4   1   4    5.70    1.50
  -4   1   4    3.20    1.10
  -4   1   4    2.60    0.80
   4   1  -4    2.60    2.60
   3  -1  -4   86.79    5.60
  -3  -1   4   86.59    3.60
   3  -1  -4   78.69    4.30
  -3  -1   4   80.29    4.00
  -3  -1   4   81.39    4.00
   3  -1  -4   82.99    6.10
   3  -1  -4   75.59    3.90
  -3   1   4   80.69    4.00
  -3   1   4   79.19    3.60
   3   1  -4   75.49    4.30
   3   1  -4   84.99    6.00
   3   1  -4   79.59    4.30
   3   1  -4   73.29    5.80
  -3   1   4   81.69    3.70
  -2  -1   4  437.26   10.60
  -2  -1   4  441.36    9.80
   2  -1  -4  435.46   13.70
   2  -1  -4  428.96   11.30
   2  -1  -4  442.06   11.30
  -2  -1   4  433.16   10.60
   2  -1  -4  441.56   12.30
   2   1  -4  432.76   11.10
   2   1  -4  435.56   13.10
   2   1  -4  442.46   11.80
  -2   1   4  428.06   10.10
  -2   1   4  424.06   12.30
  -2   1   4  439.86   10.00
   2   1  -4  459.75   14.10
  -2   1   4  426.46   10.70
  -1  -1   4  878.71   19.10
   1  -1  -4  873.91   21.10
   1  -1  -4  877.71   17.40
   1  -1  -4  889.61   19.90
   1  -1  -4  884.71   18.90
  -1  -1   4  889.51   17.50
   1  -1  -4  897.61   18.80
  -1  -1   4  872.81   17.90
   1   1  -4  888.31   18.30
  -1   1   4  874.31   18.30
   1   1  -4  863.81   19.60
  -1   1   4  923.91   17.70
   1   1  -4  933.31   20.00
  -1   1   4  899.21   19.60
   0  -1   4  286.27    7.10
   0  -1  -4  271.47    7.30
   0  -1   4  269.07    6.00
   0  -1  -4  281.07    9.00
   0  -1   4  257.07    7.80
   0  -1  -4  291.67    8.50
   0  -1   4  277.77    6.70
   0   1   4  288.97    6.70
   0   1   4  284.87    6.60
   0   1   4  281.87    7.90
   0   1   4  276.17    7.10
   0   1  -4  285.37    8.40
   0   1  -4  280.27    6.60
  -1  -1  -4  339.37    7.90
  -1  -1  -4  325.27    9.40
   1  -1   4  329.97    8.10
   1  -1   4  335.57    8.50
  -1  -1  -4  325.07   11.10
   1  -1   4  330.97    7.90
  -1  -1  -4  334.97    8.70
   1  -1   4  339.97    8.30
   1   1   4  329.47    9.30
   1   1   4  330.17    8.00
  -1   1  -4  332.97   11.10
  -1   1  -4  331.17   10.20
  -1   1  -4  324.77    7.90
   1   1   4  332.47    7.90
   1   1   4  329.17    8.40
   2  -1   4  326.27    9.50
  -2  -1  -4  327.67    9.60
  -2  -1  -4  342.57   12.60
  -2  -1  -4  329.37   10.30
   2  -1   4  336.37    8.40
   2  -1   4  298.17   10.80
  -2  -1  -4  319.07    9.30
   2  -1   4  317.47    9.30
   2   1   4  336.87    8.60
  -2   1  -4  331.07    8.80
   2   1   4  329.47    8.10
  -2   1  -4  320.77   10.40
   2   1   4  340.07   10.30
  -2   1  -4  325.67    9.20
   2   1   4  321.87    9.20
  -2   1  -4  329.17   12.20
   2   1   4  338.47    8.80
   3  -1   4   99.99    4.00
  -3  -1  -4  104.09    5.00
   3  -1   4  102.19    5.40
  -3  -1  -4   94.89    5.50
  -3  -1  -4  102.09    6.90
  -3  -1  -4   98.49    4.60
   3  -1   4   97.69    4.70
   3  -1   4   95.59    5.30
   3   1   4   97.49    5.50
  -3   1  -4   90.19    5.40
  -3   1  -4   99.49    4.70
   3   1   4   97.79    3.70
  -3   1  -4   91.29    6.60
   3   1   4  106.09    5.40
  -3   1  -4  101.49    4.20
   3   1   4  101.19    4.50
  -4  -1  -4   32.70    3.20
  -4  -1  -4   30.70    4.00
  -4  -1  -4   25.40    4.50
   4  -1   4   28.00    2.10
  -4  -1  -4   22.70    2.40
   4  -1   4   32.40    3.60
  -4   1  -4   24.40    3.60
   4   1   4   29.50    3.50
  -4   1  -4   23.40    4.60
   4   1   4   24.50    2.80
   4   1   4   32.30    4.10
  -4   1  -4   25.40    2.80
   4   1   4   28.20    1.90
   4  -2  -4    7.90    2.50
   4  -2  -4    9.00    1.90
  -4  -2   4    9.50    1.90
  -4  -2   4    8.20    1.70
   4  -2  -4    7.40    3.00
   4  -2  -4    4.10    1.50
  -4  -2   4    8.20    1.30
   4   2  -4    7.90    2.20
   4   2  -4    9.20    3.20
   4   2  -4   13.10    3.40
  -4   2   4    9.50    1.70
  -4   2   4    7.50    1.60
   4   2  -4    7.30    1.80
  -4   2   4    8.20    1.60
   3  -2  -4   41.90    3.10
   3  -2  -4   39.60    3.20
  -3  -2   4   37.80    2.70
  -3  -2   4   38.40    2.80
   3  -2  -4   38.70    4.40
  -3  -2   4   39.80    2.20
   3  -2  -4   35.20    3.80
  -3   2   4   39.30    2.30
  -3   2   4   30.40    2.50
  -3   2   4   37.90    2.40
   3   2  -4   35.10    4.10
   3   2  -4   35.50    3.00
   3   2  -4   29.20    3.70
   3   2  -4   39.20    4.10
  -3   2   4   36.70    3.60
   3   2  -4   37.40    3.00
  -2  -2   4   63.59    3.10
   2  -2  -4   58.99    3.50
   2  -2  -4   62.69    3.20
  -2  -2   4   61.59    2.50
  -2  -2   4   62.39    2.60
   2  -2  -4   56.99    4.70
   2  -2  -4   55.69    3.20
   2  -2  -4   65.59    4.10
  -2  -2   4   59.59    2.80
   2   2  -4   69.79    4.90
   2   2  -4   61.09    2.90
  -2   2   4   65.99    3.10
   2   2  -4   57.79    3.50
   2   2  -4   60.59    4.30
   2   2  -4   61.39    3.20
  -2   2   4   58.69    2.50
  -2   2   4   62.99    4.30
  -1  -2   4   28.50    1.40
   1  -2  -4   27.80    2.10
  -1  -2   4   26.00    1.60
   1  -2  -4   26.80    1.40
  -1  -2   4   26.50    1.40
   1  -2  -4   26.20    3.00
   1  -2  -4   25.90    2.60
   1  -2  -4   24.20    2.10
   1   2  -4   26.60    2.20
  -1   2   4   29.00    1.80
  -1   2   4   27.30    1.40
   1   2  -4   26.90    2.70
   1   2  -4   26.00    1.60
  -1   2   4   25.70    2.40
   0  -2   4   39.30    2.10
   0  -2   4   42.30    2.10
   0  -2   4   42.00    1.70
   0  -2  -4   43.90    2.90
   0  -2   4   42.40    1.80
   0  -2  -4   41.70    2.70
   0  -2  -4   40.50    2.90
   0  -2   4   41.00    1.90
   0  -2  -4   45.90    2.50
   0   2  -4   48.30    3.20
   0   2   4   39.10    2.20
   0   2  -4   43.50    2.70
   0   2   4   38.70    2.40
   0   2   4   41.90    1.70
   0   2   4   41.10    1.80
   0   2  -4   41.00    3.10
   0   2   4   43.80    3.00
   1  -2   4   69.99    3.20
  -1  -2  -4   74.59    3.60
  -1  -2  -4   82.69    4.90
   1  -2   4   74.49    2.90
   1  -2   4   72.89    2.90
  -1  -2  -4   75.49    3.80
   1  -2   4   78.89    2.50
  -1  -2  -4   70.79    3.00
   1  -2   4   62.89    3.70
  -1  -2  -4   72.29    3.40
   1   2   4   73.39    2.70
   1   2   4   75.19    3.90
  -1   2  -4   79.39    3.80
   1   2   4   70.99    4.00
  -1   2  -4   76.79    4.10
  -1   2  -4   74.59    4.70
   1   2   4   71.29    3.30
   1   2   4   72.39    2.70
   2  -2   4   21.30    1.60
   2  -2   4   21.90    2.10
  -2  -2  -4   21.60    2.20
   2  -2   4   23.20    1.90
   2  -2   4   24.40    1.30
  -2  -2  -4   24.10    2.10
  -2  -2  -4   20.00    3.40
   2   2   4   23.60    1.50
   2   2   4   25.30    2.50
  -2   2  -4   20.50    2.10
  -2   2  -4   27.10    3.10
   2   2   4   22.70    2.30
  -2   2  -4   24.20    2.40
  -2   2  -4   24.20    1.80
   2   2   4   21.50    2.30
   3  -2   4   10.80    1.80
   3  -2   4    9.60    2.00
  -3  -2  -4   10.80    1.80
  -3  -2  -4   10.40    1.70
  -3  -2  -4    7.70    1.70
   3  -2   4   11.50    1.30
   3   2   4   14.50    2.10
  -3   2  -4   13.80    3.00
   3   2   4    8.00    2.40
   3   2   4   11.80    1.10
   3   2   4    9.30    2.10
  -3   2  -4   10.40    1.80
  -3   2  -4    9.90    2.00
   4  -2   4    0.00    1.30
   4  -2   4    0.20    0.50
  -4  -2  -4   -0.80    2.50
  -4  -2  -4    2.20    1.30
  -4  -2  -4    0.20    0.90
  -4  -2  -4   -1.40    0.80
   4   2   4    1.10    0.50
  -4   2  -4   -0.30    1.60
   4   2   4   -0.70    2.10
  -4   2  -4    0.60    1.10
   4   2   4    1.80    1.00
  -4   2  -4    2.10    1.20
  -4  -3   4   46.20    2.80
  -4  -3   4   40.70    3.40
  -4  -3   4   43.20    3.40
   4  -3  -4   46.40    5.00
   4  -3  -4   41.90    4.20
   4  -3  -4   43.40    3.70
   4  -3  -4   41.10    3.90
   4   3  -4   43.80    4.90
   4   3  -4   43.00    5.30
  -4   3   4   42.00    5.10
  -4   3   4   43.10    3.40
   4   3  -4   41.70    3.60
   4   3  -4   47.80    3.90
  -4   3   4   37.70    2.90
   4   3  -4   44.70    5.40
   3  -3  -4  204.38    8.60
  -3  -3   4  198.48    5.80
   3  -3  -4  202.08    7.70
   3  -3  -4  211.68    7.80
  -3  -3   4  208.38    7.10
   3  -3  -4  213.98    9.20
  -3  -3   4  208.18    6.10
  -3  -3   4  207.38    7.40
   3   3  -4  203.88    7.70
  -3   3   4  204.18    6.50
   3   3  -4  203.98   10.00
   3   3  -4  217.78    8.40
  -3   3   4  209.08   10.20
   3   3  -4  206.28   10.30
  -3   3   4  206.38    7.20
   3   3  -4  206.98    7.50
  -2  -3   4  575.84   12.10
  -2  -3   4  554.04   12.60
   2  -3  -4  575.84   13.40
   2  -3  -4  566.54   13.50
  -2  -3   4  563.54   13.00
   2  -3  -4  588.24   15.70
   2  -3  -4  563.44   14.20
   2   3  -4  569.04   18.20
   2   3  -4  566.64   15.10
  -2   3   4  563.14   16.80
   2   3  -4  583.04   13.30
   2   3  -4  576.74   13.80
  -2   3   4  568.44   13.60
  -2   3   4  569.94   12.50
   2   3  -4  562.54   16.60
   1  -3  -4 1226.28   25.50
   1  -3  -4 1229.48   24.00
  -1  -3   4 1197.88   23.60
  -1  -3   4 1224.58   24.50
  -1  -3   4 1244.08   24.80
   1  -3  -4 1208.38   26.60
  -1  -3   4 1257.97   23.60
   1  -3  -4 1177.18   27.90
  -1  -3   4 1248.98   24.90
   1   3  -4 1257.37   29.90
   1   3  -4 1209.78   28.00
  -1   3   4 1225.28   28.60
   1   3  -4 1209.78   24.30
   1   3  -4 1218.58   26.60
  -1   3   4 1241.38   25.10
  -1   3   4 1229.08   23.80
   0  -3   4 1063.49   21.50
   0  -3  -4 1087.39   22.70
   0  -3  -4 1077.99   23.90
   0  -3   4 1092.79   21.80
   0  -3  -4 1049.89   20.90
   0  -3   4 1052.69   22.20
   0  -3   4 1073.49   21.40
   0  -3   4 1049.09   21.20
   0  -3  -4 1091.79   23.40
   0  -3  -4 1060.69   23.20
   0   3  -4 1110.79   25.60
   0   3   4 1078.89   25.50
   0   3  -4 1088.79   24.00
   0   3   4 1085.69   25.40
   0   3  -4 1091.39   23.70
   0   3   4 1086.99   22.70
  -1  -3  -4 1015.90   24.80
   1  -3   4 1030.30   20.50
   1  -3   4 1021.60   21.10
   1  -3   4 1037.30   21.00
   1  -3   4  997.80   21.90
   1  -3   4 1038.40   21.50
  -1  -3  -4 1036.50   21.80
  -1  -3  -4 1043.50   22.50
  -1  -3  -4 1056.59   23.20
  -1  -3  -4 1049.89   22.40
  -1   3  -4 1059.19   25.10
   1   3   4 1005.20   22.30
  -1   3  -4 1049.59   23.00
   1   3   4 1025.10   24.70
  -1   3  -4 1023.70   22.70
   1   3   4 1028.80   20.50
  -1   3  -4 1051.99   22.70
   2  -3   4  378.46   13.30
   2  -3   4  409.26   10.20
   2  -3   4  417.26   11.00
   2  -3   4  412.86    9.50
  -2  -3  -4  405.06   11.70
  -2  -3  -4  415.36   11.80
  -2  -3  -4  411.36   14.20
   2  -3   4  409.16    9.70
  -2  -3  -4  410.26   11.60
   2   3   4  416.96   13.00
   2   3   4  415.86   13.30
  -2   3  -4  416.06   13.90
  -2   3  -4  404.76   10.90
  -2   3  -4  419.36   12.30
   2   3   4  423.36    9.50
   2   3   4  428.36   11.50
  -3  -3  -4  198.68    7.70
  -3  -3  -4  212.98   10.30
   3  -3   4  212.38    6.60
   3  -3   4  210.78    5.90
   3  -3   4  211.38    8.20
  -3  -3  -4  217.78    8.20
  -3  -3  -4  205.48    8.20
   3   3   4  209.28    5.70
   3   3   4  204.48    9.20
   3   3   4  204.38    8.90
  -3   3  -4  223.28    9.00
  -3   3  -4  210.58    6.80
   3   3   4  207.18    8.00
  -3   3  -4  193.58    9.70
  -4  -4   4   26.70    2.80
   4  -4  -4   26.40    3.50
  -4  -4   4   24.90    2.10
   4  -4  -4   31.40    3.30
  -4  -4   4   28.90    3.00
   4  -4  -4   31.10    4.60
   4  -4  -4   25.90    3.10
   4   4  -4   20.60    3.40
   4   4  -4   32.60    3.40
   4   4  -4   32.70    5.20
  -4   4   4   22.60    4.70
  -4   4   4   23.60    2.60
  -4   4   4   27.10    2.40
   4   4  -4   24.50    4.40
   4   4  -4   25.80    2.90
   3  -4  -4   74.29    4.20
  -3  -4   4   74.89    4.20
   3  -4  -4   74.69    4.40
  -3  -4   4   70.79    3.20
   3  -4  -4   69.59    4.70
  -3  -4   4   70.19    3.80
  -3  -4   4   69.59    3.00
   3  -4  -4   72.39    5.20
   3   4  -4   67.29    4.10
   3   4  -4   70.29    4.20
   3   4  -4   69.79    6.20
  -3   4   4   70.29    3.40
  -3   4   4   66.69    3.80
  -3   4   4   78.59    6.40
   3   4  -4   80.09    5.90
  -2  -4   4   15.10    1.60
   2  -4  -4   15.30    1.60
   2  -4  -4   12.70    1.90
  -2  -4   4   16.70    1.40
  -2  -4   4   15.30    1.50
  -2  -4   4   15.40    1.10
   2  -4  -4   20.00    2.80
   2   4  -4   15.90    1.70
  -2   4   4   14.40    2.80
   2   4  -4   13.70    2.60
  -2   4   4   15.80    1.30
   2   4  -4   17.90    3.50
   2   4  -4   16.90    1.70
  -1  -4   4 1068.99   21.00
  -1  -4   4 1050.89   21.90
  -1  -4   4 1098.79   21.10
  -1  -4   4 1104.79   22.40
   1  -4  -4 1075.79   23.20
   1  -4  -4 1075.79   22.90
   1  -4  -4 1074.49   21.90
  -1  -4   4 1091.39   22.50
   1  -4  -4 1142.39   24.80
   1   4  -4 1065.39   24.50
   1   4  -4 1087.19   27.00
  -1   4   4 1092.99   21.20
  -1   4   4 1045.60   27.00
   1   4  -4 1063.99   22.00
  -1   4   4 1063.29   23.00
   1   4  -4 1100.19   22.60
   1   4  -4 1108.79   28.50
   0  -4  -4  263.57    6.70
   0  -4   4  262.07    6.90
   0  -4   4  263.17    7.20
   0  -4   4  271.37    6.70
   0  -4   4  262.27    7.30
   0  -4  -4  277.27    8.40
   0  -4   4  268.67    7.60
   0  -4  -4  266.07    7.90
   0  -4  -4  273.37    8.30
   0  -4  -4  261.57    6.70
   0   4  -4  270.47    8.00
   0   4  -4  297.17    8.90
   0   4  -4  254.47    9.40
   0   4   4  276.47    9.70
   0   4   4  266.27    8.00
   0   4   4  258.07   10.20
   0   4  -4  273.67   10.70
   0   4   4  273.67    7.40
  -1  -4  -4  817.42   20.60
   1  -4   4  817.52   17.20
  -1  -4  -4  797.52   19.20
   1  -4   4  825.02   17.10
  -1  -4  -4  814.82   18.20
   1  -4   4  805.12   18.00
   1  -4   4  815.32   17.50
   1  -4   4  820.92   18.40
   1   4   4  796.72   18.80
  -1   4  -4  802.42   21.50
  -1   4  -4  835.12   21.10
  -1   4  -4  812.02   18.80
   1   4   4  808.12   21.80
  -1   4  -4  808.62   18.60
   1   4   4  815.92   21.40
  -1   4  -4  812.42   20.00
   2  -4   4  598.54   14.90
  -2  -4  -4  580.74   15.20
  -2  -4  -4  585.74   17.70
  -2  -4  -4  577.14   15.40
   2  -4   4  574.24   13.40
  -2  -4  -4  576.94   14.80
   2  -4   4  565.94   13.10
   2  -4   4  577.14   14.40
   2  -4   4  567.74   13.00
   2   4   4  569.94   15.30
   2   4   4  589.04   12.40
  -2   4  -4  567.34   17.30
   2   4   4  596.14   17.90
  -2   4  -4  585.64   15.60
   2   4   4  576.04   17.50
   3  -4   4   47.00    2.70
  -3  -4  -4   45.20    2.50
   3  -4   4   44.30    2.50
  -3  -4  -4   45.10    3.60
  -3  -4  -4   47.50    4.80
  -3  -4  -4   41.30    3.50
  -3  -4  -4   42.50    3.40
   3  -4   4   52.39    3.90
   3   4   4   39.80    3.40
   3   4   4   39.70    4.20
  -3   4  -4   53.49    4.10
   3   4   4   48.00    4.40
  -3   4  -4   45.30    2.70
  -3   4  -4   53.19    4.90
   3   4   4   39.70    4.10
   4  -5  -4    2.20    1.60
  -4  -5   4    2.50    1.30
   4  -5  -4    2.00    1.60
   4  -5  -4    2.20    1.50
  -4  -5   4    4.40    1.50
   4  -5  -4    1.50    1.40
  -4  -5   4    2.40    1.00
   4   5  -4    1.10    2.40
   4   5  -4    0.20    2.20
   4   5  -4    4.20    1.70
  -4   5   4    0.10    1.80
  -4   5   4    2.50    1.20
   3  -5  -4   19.40    2.90
   3  -5  -4   19.70    2.10
   3  -5  -4   18.90    1.60
  -3  -5   4   20.10    1.60
  -3  -5   4   20.80    2.20
   3  -5  -4   17.20    2.20
  -3  -5   4   19.00    1.70
   3  -5  -4   20.50    2.30
  -3  -5   4   20.10    2.00
  -3   5   4   18.40    2.10
   3   5  -4   18.90    2.30
   3   5  -4   24.10    4.20
  -3   5   4   14.20    3.40
   3   5  -4   17.50    5.30
  -3   5   4   18.70    1.70
   2  -5  -4    4.90    1.40
  -2  -5   4    2.80    0.60
   2  -5  -4    3.90    1.00
  -2  -5   4    4.30    1.00
  -2  -5   4    3.70    0.80
   2  -5  -4    3.80    1.30
  -2  -5   4    3.80    1.00
   2  -5  -4    4.40    1.00
  -2   5   4    4.10    1.00
   2   5  -4    4.40    1.10
  -2   5   4    2.40    1.40
  -2   5   4    3.40    0.70
   2   5  -4    4.40    1.80
   2   5  -4    3.10    1.50
   2   5  -4    2.10    0.70
   1  -5  -4   48.50    2.60
   1  -5  -4   52.49    2.90
   1  -5  -4   49.10    2.70
   1  -5  -4   51.59    3.60
  -1  -5   4   49.10    2.60
  -1  -5   4   49.30    2.00
  -1  -5   4   49.80    2.80
  -1  -5   4   49.30    2.70
  -1  -5   4   48.50    1.90
   1  -5  -4   49.40    2.90
   1   5  -4   48.00    5.00
   1   5  -4   50.29    4.80
  -1   5   4   44.20    4.30
   1   5  -4   46.70    2.50
  -1   5   4   52.09    3.00
   1   5  -4   44.70    4.20
  -1   5   4   49.70    2.10
   0  -5  -4   47.90    2.40
   0  -5  -4   49.40    3.10
   0  -5   4   50.59    2.20
   0  -5   4   48.50    2.50
   0  -5  -4   48.60    2.90
   0  -5   4   48.60    2.80
   0  -5  -4   51.89    2.40
   0  -5  -4   46.10    3.40
   0  -5   4   51.59    2.90
   0   5  -4   45.60    3.90
   0   5  -4   49.20    2.60
   0   5  -4   50.09    3.40
   0   5   4   51.69    4.20
   0   5   4   45.40    3.00
   0   5   4   48.40    4.40
   0   5  -4   49.99    3.40
   0   5  -4   48.70    4.30
  -1  -5  -4   91.59    4.70
  -1  -5  -4   87.99    3.00
  -1  -5  -4   89.99    5.10
   1  -5   4   85.99    4.30
   1  -5   4   80.89    5.00
   1  -5   4   90.89    3.50
  -1  -5  -4   94.89    4.50
   1  -5   4   97.59    4.30
  -1  -5  -4   89.49    3.90
  -1   5  -4   93.89    4.30
  -1   5  -4   93.29    4.50
   1   5   4   97.19    4.80
  -1   5  -4   92.49    5.30
  -1   5  -4   93.39    5.40
   1   5   4   91.89    6.10
  -1   5  -4   97.39    5.70
   1   5   4   82.29    5.80
  -2  -5  -4   33.70    2.60
   2  -5   4   35.90    2.90
  -2  -5  -4   36.70    3.70
   2  -5   4   35.90    2.30
  -2  -5  -4   35.40    2.90
   2  -5   4   32.50    2.20
  -2  -5  -4   37.00    3.10
   2  -5   4   35.90    2.40
   2  -5   4   35.30    2.70
   2   5   4   33.40    4.20
   2   5   4   37.30    3.10
  -2   5  -4   34.80    3.40
  -2   5  -4   30.10    3.60
  -2   5  -4   33.60    2.90
   2   5   4   33.20    3.80
  -3  -5  -4   11.10    1.90
  -3  -5  -4    8.60    1.70
  -3  -5  -4    7.80    2.60
   3  -5   4   10.10    1.90
  -3  -5  -4   16.60    2.60
  -3  -5  -4    8.40    1.30
   3  -5   4    7.10    1.10
   3  -5   4   12.00    1.90
   3  -5   4   11.10    1.60
  -3   5  -4    9.00    2.90
   3   5   4    9.30    2.60
   3   5   4    7.80    1.90
   3   5   4   10.30    3.00
   3   5   4   10.80    2.30
  -3   5  -4    5.10    1.60
   3  -6  -4   19.40    2.20
   3  -6  -4   24.00    2.50
   3  -6  -4   15.40    2.30
  -3  -6   4   16.80    1.90
  -3  -6   4   18.50    1.90
  -3  -6   4   18.70    1.50
   3  -6  -4   16.80    1.70
   3  -6  -4   19.60    3.10
  -3  -6   4   14.00    2.30
  -3   6   4   19.00    3.80
  -3   6   4   22.00    1.80
   3   6  -4   19.90    2.80
   3   6  -4   20.30    4.20
   3   6  -4   16.20    2.50
   3   6  -4   14.50    3.60
  -2  -6   4   56.99    2.70
  -2  -6   4   61.59    3.60
   2  -6  -4   58.49    3.50
   2  -6  -4   54.59    3.30
   2  -6  -4   58.79    3.40
   2  -6  -4   57.39    4.10
  -2  -6   4   55.39    3.10
  -2  -6   4   59.19    3.40
  -2  -6   4   63.19    2.40
  -2   6   4   61.49    2.70
   2   6  -4   56.69    3.50
   2   6  -4   61.19    5.80
  -2   6   4   58.89    3.60
   2   6  -4   63.39    6.30
  -2   6   4   58.29    5.70
   2   6  -4   57.49    3.80
   1  -6  -4  292.77    8.60
  -1  -6   4  308.27    8.90
   1  -6  -4  301.87    8.60
   1  -6  -4  303.17    8.70
  -1  -6   4  305.77    8.80
   1  -6  -4  304.67    9.50
  -1  -6   4  305.97    8.50
   1  -6  -4  295.87   10.30
   1   6  -4  299.57   12.80
   1   6  -4  291.97   13.50
   1   6  -4  299.27    8.20
  -1   6   4  316.87    9.50
  -1   6   4  316.67   12.60
  -1   6   4  315.77   13.40
   1   6  -4  312.47   10.30
  -1   6   4  293.87    7.20
   0  -6  -4    8.40    1.10
   0  -6   4    6.20    1.00
   0  -6  -4    6.60    1.40
   0  -6  -4    4.10    1.10
   0  -6   4    7.30    1.30
   0  -6  -4    5.80    1.40
   0  -6   4    6.50    1.20
   0  -6  -4    6.70    1.10
   0  -6   4    7.30    1.40
   0   6   4    8.20    1.50
   0   6  -4    5.60    1.50
   0   6   4    6.90    2.00
   0   6  -4    7.60    1.90
   0   6  -4    6.50    1.70
   0   6  -4    3.80    1.50
   0   6   4    4.50    1.60
  -1  -6  -4  272.77    8.80
  -1  -6  -4  275.97    9.20
   1  -6   4  268.67    7.20
   1  -6   4  263.87    7.90
   1  -6   4  255.27    8.40
   1  -6   4  268.07    7.80
  -1  -6  -4  273.07    6.90
   1  -6   4  267.57    8.30
   1   6   4  257.17    9.10
   1   6   4  284.67   12.30
  -1   6  -4  249.58    8.00
   1   6   4  256.57   11.60
  -1   6  -4  261.77   10.70
  -1   6  -4  258.77    8.70
  -1   6  -4  248.08   10.60
  -1   6  -4  275.47   10.90
  -2  -6  -4  232.88    7.40
   2  -6   4  227.28    7.80
   2  -6   4  230.28    7.20
  -2  -6  -4  216.28    8.50
   2  -6   4  227.18    7.30
   2  -6   4  227.18    7.20
   2  -6   4  232.58    8.40
  -2  -6  -4  223.28    9.70
  -2  -6  -4  228.18    8.50
  -2   6  -4  229.68   10.00
   2   6   4  230.38   11.70
  -2   6  -4  225.88    9.20
  -2   6  -4  221.08    8.20
   2   6   4  221.58    8.90
   2   6   4  229.38   11.00
  -2   6  -4  230.58   11.00
  -3  -6  -4   12.50    3.00
  -3  -6  -4   12.40    2.20
   3  -6   4   10.20    1.50
   3  -6   4   10.10    1.60
   3  -6   4   10.50    2.00
  -3  -6  -4   12.40    1.60
  -3  -6  -4    7.30    1.80
  -3  -6  -4   11.60    2.00
   3   6   4   13.30    3.50
  -3   6  -4   11.10    3.20
  -3   6  -4    9.70    3.10
   3   6   4    5.50    2.20
   3   6   4   13.10    2.40
   3   6   4    9.60    3.50
  -3  -7   4  171.88    7.30
  -3  -7   4  178.78    6.60
   3  -7  -4  176.58    6.30
   3  -7  -4  176.08    8.20
   3  -7  -4  181.18    7.70
   3  -7  -4  170.18    7.30
  -3  -7   4  173.38    6.80
  -3   7   4  188.58   12.20
   3   7  -4  181.48   11.20
  -3   7   4  184.48    7.50
   3   7  -4  170.38   12.00
   3   7  -4  171.28    8.10
   3   7  -4  177.48    7.80
  -3   7   4  182.68    6.10
  -2  -7   4  480.55   12.70
   2  -7  -4  477.35   13.20
  -2  -7   4  461.75   12.50
   2  -7  -4  468.95   19.00
  -2  -7   4  478.75   12.90
   2  -7  -4  479.45   12.40
   2  -7  -4  487.75   13.10
   2  -7  -4  466.75   12.00
  -2   7   4  454.35   10.80
   2   7  -4  467.05   20.20
   2   7  -4  462.25   13.00
  -2   7   4  478.65   13.40
   2   7  -4  470.05   14.30
  -2   7   4  457.75   19.10
   2   7  -4  469.05   18.80
   1  -7  -4  188.18    6.60
   1  -7  -4  194.98    8.20
   1  -7  -4  199.18    6.80
  -1  -7   4  192.38    6.80
  -1  -7   4  193.58    6.50
  -1  -7   4  188.28    6.80
   1  -7  -4  197.18    6.70
   1  -7  -4  189.28    6.70
  -1   7   4  181.48   10.00
   1   7  -4  217.98   11.80
   1   7  -4  201.78   10.80
  -1   7   4  192.38    7.30
   1   7  -4  187.28    6.10
  -1   7   4  188.68   10.90
   1   7  -4  180.38    8.00
  -1   7   4  192.38    5.20
   0  -7   4  411.56    9.50
   0  -7   4  411.46   11.30
   0  -7  -4  415.06   10.70
   0  -7  -4  400.96   11.70
   0  -7   4  413.46   11.30
   0  -7  -4  415.06   11.40
   0  -7   4  410.36   10.90
   0  -7  -4  415.56   11.10
   0  -7   4  407.86   11.60
   0   7   4  405.76   16.00
   0   7   4  399.86   16.30
   0   7  -4  402.16   15.50
   0   7  -4  432.46   14.10
   0   7  -4  424.06   16.40
   0   7   4  421.36   12.30
   0   7  -4  419.76   12.90
  -1  -7  -4  214.98    8.00
   1  -7   4  201.28    6.80
   1  -7   4  192.78    7.40
   1  -7   4  194.78    6.80
  -1  -7  -4  194.48    5.90
   1  -7   4  187.58    5.80
  -1  -7  -4  193.38    7.30
   1  -7   4  186.18    6.90
  -1   7  -4  190.68    7.70
   1   7   4  193.48    7.90
   1   7   4  185.48   10.80
  -1   7  -4  199.28    9.90
  -1   7  -4  189.28    9.70
   1   7   4  187.88   10.70
  -1   7  -4  197.68   10.00
  -1   7  -4  201.78    6.50
   2  -7   4   52.99    3.40
   2  -7   4   43.70    2.90
   2  -7   4   52.39    3.80
   2  -7   4   50.39    3.10
  -2  -7  -4   48.00    4.20
  -2  -7  -4   48.40    3.60
  -2  -7  -4   46.50    3.20
   2  -7   4   46.80    2.70
  -2  -7  -4   44.60    3.60
  -2   7  -4   48.70    5.00
  -2   7  -4   49.70    4.50
   2   7   4   46.20    7.70
   2   7   4   47.80    5.00
   2   7   4   41.80    3.80
   2   7   4   59.09    9.30
  -2   7  -4   52.19    3.60
  -2   7  -4   45.90    5.20
  -2  -8   4   45.00    3.30
   2  -8  -4   48.30    4.20
   2  -8  -4   50.69    3.30
  -2  -8   4   53.29    3.40
  -2  -8   4   46.70    3.40
   2  -8  -4   52.19    3.60
   2  -8  -4   45.00    3.30
  -2  -8   4   46.40    3.30
   2   8  -4   55.69    4.50
   2   8  -4   46.10    5.90
  -2   8   4   47.40    6.10
   2   8  -4   53.29    3.60
  -2   8   4   55.19    6.20
   2   8  -4   43.00    7.60
  -2   8   4   47.60    2.40
  -1  -8   4   76.89    4.00
  -1  -8   4   77.39    4.30
   1  -8  -4   76.19    4.30
   1  -8  -4   71.99    3.80
   1  -8  -4   78.39    3.90
   1  -8  -4   79.39    4.20
  -1  -8   4   74.79    4.00
   1  -8  -4   79.29    4.10
   1   8  -4   71.79    3.70
  -1   8   4   78.59    7.30
   1   8  -4   77.99    7.10
   1   8  -4   91.69    7.90
  -1   8   4   76.69    4.60
   1   8  -4   82.79    5.60
  -1   8   4   63.49    6.70
   0  -8   4   55.49    3.80
   0  -8   4   57.59    2.40
   0  -8  -4   55.39    3.20
   0  -8   4   61.99    3.50
   0  -8   4   60.49    3.70
   0  -8  -4   61.79    3.70
   0  -8   4   62.39    3.70
   0  -8  -4   53.49    3.50
   0  -8  -4   62.19    3.60
   0   8   4   58.19    6.10
   0   8  -4   64.79    6.10
   0   8  -4   71.59    5.50
   0   8   4   60.19    4.20
   0   8  -4   59.19    4.30
   0   8   4   59.59    6.30
   0   8  -4   70.49    6.50
  -1  -8  -4   90.89    3.80
   1  -8   4   93.29    4.70
   1  -8   4   90.09    4.50
   1  -8   4   90.89    5.10
  -1  -8  -4   92.99    4.70
   1  -8   4   90.59    3.60
   1  -8   4   91.89    4.50
  -1  -8  -4   92.89    5.20
   1   8   4   96.39    8.10
  -1   8  -4   89.59    5.20
   1   8   4   82.59    7.00
  -1   8  -4  101.59    7.30
  -1   8  -4   85.39    7.10
   1   8   4   87.39    5.30
  -1   8  -4   90.69    7.10
   2  -8   4   34.00    2.90
  -2  -8  -4   34.50    2.80
  -2  -8  -4   30.00    3.20
   2  -8   4   32.70    2.80
  -2  -8  -4   32.30    3.20
  -2  -8  -4   29.40    3.50
   2  -8   4   33.10    3.20
   2  -8   4   29.80    2.20
   2  -8   4   34.20    2.80
  -2   8  -4   27.30    5.40
  -2   8  -4   31.00    5.20
   2   8   4   29.20    3.40
  -2   8  -4   36.50    3.00
   2   8   4   29.90    5.20
   2   8   4   25.90    5.20
   2  -9  -4   28.00    2.70
  -2  -9   4   23.40    2.60
  -2  -9   4   27.40    2.70
   2  -9  -4   29.50    2.90
   2  -9  -4   25.50    2.60
  -2  -9   4   28.60    2.80
   2   9  -4   29.00    3.10
  -2   9   4   27.90    3.20
  -2   9   4   22.50    5.00
   2   9  -4   22.70    5.60
   2   9  -4   35.90    4.10
  -2   9   4   18.40    4.30
   1  -9  -4    8.80    1.70
  -1  -9   4    7.60    1.50
   1  -9  -4    7.30    1.50
   1  -9  -4    9.20    1.70
  -1  -9   4    9.00    1.70
   1  -9  -4    7.40    1.60
  -1  -9   4    6.90    1.30
   1   9  -4   10.10    2.50
  -1   9   4   11.40    2.10
  -1   9   4    3.20    2.10
   1   9  -4    6.30    2.90
   1   9  -4   13.20    4.30
   0  -9   4    5.20    1.40
   0  -9  -4    5.90    1.60
   0  -9  -4    5.20    1.30
   0  -9   4    2.20    1.10
   0  -9   4    5.70    1.40
   0  -9  -4    3.60    1.20
   0  -9   4    3.40    0.70
   0  -9  -4    5.40    1.20
   0  -9   4    6.10    1.40
   0   9   4    8.90    1.70
   0   9  -4    2.20    2.10
   0   9  -4    3.90    2.50
   0   9  -4    3.60    1.60
   0   9   4    4.80    2.90
   0   9  -4    3.10    2.60
   0   9   4    1.90    1.80
  -1  -9  -4    0.70    0.80
   1  -9   4    0.60    0.90
   1  -9   4    1.90    0.70
   1  -9   4    2.60    0.90
   1  -9   4    0.20    0.70
  -1  -9  -4    1.40    0.80
  -1  -9  -4    1.10    1.00
   1  -9   4    0.50    1.30
  -1  -9  -4    1.90    0.80
   1   9   4   -1.20    2.20
  -1   9  -4    1.60    1.40
  -1   9  -4   -0.20    1.80
  -1   9  -4    0.30    2.30
  -1   9  -4    1.70    2.20
   1   9   4    1.50    1.60
   1   9   4   -0.40    1.10
   4   0  -5    0.60    2.40
  -4   0   5    2.50    1.00
  -4   0   5   -1.50    0.70
  -4   0   5    0.30    0.50
   4   0  -5   -0.70    0.90
   4   0  -5   -1.30    1.50
   3   0  -5   -0.50    0.60
  -3   0   5   -0.70    0.50
   3   0  -5    0.60    0.80
  -3   0   5   -0.20    0.50
   3   0  -5    0.30    1.60
  -3   0   5    0.10    0.30
   3   0  -5    1.70    2.20
   2   0  -5   -0.30    0.50
  -2   0   5    0.10    0.30
   2   0  -5    0.00    0.50
   2   0  -5    1.10    1.70
  -2   0   5   -0.40    0.30
  -2   0   5    0.40    0.40
   2   0  -5   -0.60    1.00
   1   0  -5    0.10    1.20
   1   0  -5    1.30    0.90
   1   0  -5    0.60    0.50
   0   0   5    1.50    0.40
   0   0  -5   -0.30    0.70
   0   0  -5    0.10    1.30
   0   0  -5    0.30    0.40
   0   0   5    0.80    0.40
   0   0  -5    0.40    0.70
   1   0   5    0.50    0.30
   1   0   5   -0.10    0.50
  -1   0  -5    0.50    0.40
  -1   0  -5    0.40    0.60
   1   0   5    0.10    0.30
  -1   0  -5    0.40    0.40
  -1   0  -5    2.00    1.20
  -2   0  -5    1.00    0.60
   2   0   5    0.20    0.30
  -2   0  -5   -1.00    0.90
   2   0   5    0.10    0.30
   2   0   5   -0.70    0.40
  -2   0  -5    1.20    0.70
   2   0   5   -0.40    0.80
  -2   0  -5    0.10    0.50
   2   0   5    0.80    0.50
  -3   0  -5   -1.00    0.80
  -3   0  -5   -1.90    1.20
   3   0   5    0.40    0.50
  -3   0  -5    0.80    0.70
   3   0   5    0.40    0.80
   3   0   5    1.20    1.20
   3   0   5    0.20    0.60
  -3   0  -5   -0.80    0.70
   4  -1  -5   33.80    4.10
   4  -1  -5   22.90    4.20
  -4  -1   5   22.90    2.50
  -4  -1   5   24.00    2.10
   4  -1  -5   28.40    3.10
  -4  -1   5   26.40    2.60
   4  -1  -5   19.30    2.90
   4   1  -5   28.30    3.20
   4   1  -5   19.10    3.70
  -4   1   5   26.80    2.70
  -4   1   5   26.80    2.40
   4   1  -5   28.80    5.50
  -4   1   5   21.20    2.00
   4   1  -5   26.50    3.10
  -3  -1   5   35.30    2.20
   3  -1  -5   35.80    3.90
   3  -1  -5   34.20    3.00
  -3  -1   5   34.30    2.50
   3  -1  -5   31.70    2.80
   3  -1  -5   32.30    4.70
  -3  -1   5   36.40    2.70
  -3   1   5   32.30    2.20
   3   1  -5   38.00    4.60
   3   1  -5   32.20    4.10
  -3   1   5   33.90    2.70
   3   1  -5   38.00    3.10
  -3   1   5   36.90    2.40
   2  -1  -5  307.87    9.40
   2  -1  -5  294.57    9.10
  -2  -1   5  299.57    8.40
   2  -1  -5  296.77    9.70
  -2  -1   5  310.97    7.60
   2  -1  -5  302.17   11.60
  -2  -1   5  303.07    8.30
  -2   1   5  317.47   10.20
  -2   1   5  309.17    7.70
  -2   1   5  304.77    8.60
   2   1  -5  304.57    9.80
  -2   1   5  296.97    7.90
   2   1  -5  294.17    8.80
   2   1  -5  311.77   10.60
   2   1  -5  305.57   11.80
   1  -1  -5   47.30    4.00
   1  -1  -5   41.80    3.30
  -1  -1   5   46.60    2.10
   1  -1  -5   46.30    2.70
  -1  -1   5   47.40    2.40
   1  -1  -5   44.90    2.70
  -1  -1   5   46.10    2.20
   1   1  -5   44.90    3.00
   1   1  -5   40.60    3.50
  -1   1   5   48.50    2.50
   1   1  -5   49.50    3.10
  -1   1   5   43.90    2.00
  -1   1   5   44.10    2.90
   1   1  -5   48.00    2.50
   0  -1  -5  612.14   16.80
   0  -1   5  624.04   12.90
   0  -1   5  631.74   14.00
   0  -1  -5  644.54   14.40
   0  -1   5  625.94   13.60
   0  -1  -5  625.34   15.90
   0  -1  -5  639.94   17.00
   0   1   5  653.03   14.80
   0   1  -5  635.14   13.70
   0   1  -5  590.04   18.10
   0   1  -5  636.24   17.20
   0   1   5  653.43   13.50
   0   1   5  643.64   14.20
   0   1   5  620.64   13.50
  -1  -1  -5  324.07    9.50
   1  -1   5  302.87    8.40
  -1  -1  -5  322.37    9.90
   1  -1   5  316.97    7.60
   1  -1   5  317.17    6.60
   1  -1   5  305.97    8.00
  -1  -1  -5  295.07    8.50
  -1  -1  -5  319.67    8.00
   1  -1   5  311.17    7.90
  -1  -1  -5  303.17   11.30
  -1   1  -5  306.07    9.50
   1   1   5  303.37    9.10
   1   1   5  305.17    8.00
  -1   1  -5  302.37   10.50
   1   1   5  302.37    8.20
   1   1   5  306.77    7.80
  -1   1  -5  303.57   11.30
  -1   1  -5  304.67    7.90
  -2  -1  -5  418.26   15.00
   2  -1   5  408.66   11.00
   2  -1   5  412.96   11.00
  -2  -1  -5  425.46   12.50
  -2  -1  -5  415.46   11.80
  -2  -1  -5  420.06   12.60
   2  -1   5  418.16   10.40
   2  -1   5  418.06   11.50
   2   1   5  413.36   10.70
  -2   1  -5  432.06   10.90
   2   1   5  424.46   10.20
   2   1   5  405.96   12.50
  -2   1  -5  409.86   11.50
  -2   1  -5  412.96   12.70
  -2   1  -5  433.06   15.00
  -3  -1  -5    3.40    1.30
  -3  -1  -5    5.50    1.40
  -3  -1  -5    7.20    2.50
   3  -1   5    3.60    1.20
   3  -1   5    7.50    1.80
  -3  -1  -5    5.50    1.50
  -3   1  -5    6.40    1.40
  -3   1  -5    8.70    2.00
   3   1   5    3.80    1.40
   3   1   5    5.40    1.20
   3   1   5    5.40    0.90
  -3   1  -5    5.50    1.20
   4  -2  -5   28.60    3.20
  -4  -2   5   30.70    2.90
   4  -2  -5   30.50    5.40
  -4  -2   5   31.70    2.90
   4  -2  -5   23.70    4.00
   4  -2  -5   32.70    3.40
  -4  -2   5   35.20    2.40
  -4   2   5   26.30    4.30
  -4   2   5   29.50    2.40
  -4   2   5   33.70    3.10
   4   2  -5   34.30    3.60
   4   2  -5   33.00    3.20
   4   2  -5   26.40    4.90
  -4   2   5   34.20    2.60
   4   2  -5   31.70    5.00
   3  -2  -5   36.10    3.00
   3  -2  -5   34.10    3.20
   3  -2  -5   35.50    4.80
  -3  -2   5   38.00    2.80
  -3  -2   5   39.40    2.70
   3  -2  -5   33.30    3.90
   3  -2  -5   41.80    3.30
  -3  -2   5   37.60    2.30
  -3   2   5   39.30    2.80
   3   2  -5   36.40    3.30
   3   2  -5   42.90    3.30
  -3   2   5   36.00    3.00
  -3   2   5   41.80    2.50
   3   2  -5   45.20    4.80
  -3   2   5   41.10    4.00
   3   2  -5   37.50    4.40
   2  -2  -5  102.89    5.20
  -2  -2   5  103.79    3.90
   2  -2  -5  107.69    6.70
   2  -2  -5   98.49    4.10
   2  -2  -5   93.09    5.40
  -2  -2   5  103.09    3.50
  -2  -2   5   98.99    4.80
   2  -2  -5  102.59    5.30
  -2  -2   5  106.89    4.10
   2   2  -5  102.19    4.40
  -2   2   5   95.09    4.80
   2   2  -5  104.59    8.90
   2   2  -5   95.49    5.60
  -2   2   5  103.39    5.60
  -1  -2   5  374.96    9.90
   1  -2  -5  406.66   10.70
   1  -2  -5  408.36   12.80
  -1  -2   5  399.66    9.80
   1  -2  -5  407.86   12.20
  -1  -2   5  387.46    9.50
  -1  -2   5  393.86    9.10
   1  -2  -5  390.16   11.50
   1  -2  -5  401.26   10.30
   1   2  -5  401.66    9.70
  -1   2   5  403.56   11.90
   1   2  -5  388.16   11.50
   1   2  -5  401.86   13.00
   1   2  -5  396.36   10.90
  -1   2   5  410.96    9.10
   0  -2   5  643.64   13.00
   0  -2  -5  629.34   15.90
   0  -2   5  626.54   13.70
   0  -2  -5  617.74   16.50
   0  -2  -5  629.64   15.20
   0  -2   5  621.64   14.10
   0  -2  -5  627.44   14.60
   0  -2   5  626.74   13.50
   0  -2   5  639.34   12.80
   0   2  -5  617.94   16.20
   0   2  -5  634.94   13.10
   0   2   5  602.94   14.50
   0   2   5  603.74   14.30
   0   2  -5  625.64   17.10
   0   2  -5  617.14   15.80
   0   2   5  592.94   18.20
   0   2   5  614.24   13.00
   0   2   5  617.34   13.40
  -1  -2  -5 1168.58   24.80
  -1  -2  -5 1136.99   25.20
  -1  -2  -5 1144.79   23.80
   1  -2   5 1153.18   23.20
   1  -2   5 1175.88   23.60
   1  -2   5 1134.59   22.20
  -1  -2  -5 1146.39   25.80
   1  -2   5 1135.99   24.40
  -1  -2  -5 1174.88   28.30
   1  -2   5 1142.79   23.60
   1   2   5 1172.88   24.50
   1   2   5 1167.68   26.20
  -1   2  -5 1183.38   26.50
  -1   2  -5 1145.89   24.30
  -1   2  -5 1165.18   25.60
   1   2   5 1130.69   23.10
   1   2   5 1155.78   23.20
  -1   2  -5 1138.39   22.90
  -1   2  -5 1154.68   28.40
   2  -2   5  345.37    9.00
  -2  -2  -5  328.87   10.70
   2  -2   5  336.47    9.60
  -2  -2  -5  330.27   13.10
  -2  -2  -5  349.27   10.70
   2  -2   5  335.77    9.70
  -2  -2  -5  338.77   10.20
  -2   2  -5  334.57   10.20
   2   2   5  343.37    9.70
   2   2   5  339.87    8.60
  -2   2  -5  333.57    8.90
  -2   2  -5  336.07   11.10
  -2   2  -5  331.97   13.00
   2   2   5  327.37   11.10
   3  -2   5   44.30    3.60
  -3  -2  -5   46.60    4.30
  -3  -2  -5   51.59    4.70
  -3  -2  -5   46.70    3.40
   3  -2   5   43.70    2.70
  -3  -2  -5   54.19    5.40
  -3   2  -5   42.50    2.80
  -3   2  -5   50.79    3.20
   3   2   5   43.40    3.20
   3   2   5   46.90    4.00
   3   2   5   51.99    4.20
  -3   2  -5   37.80    4.90
   3   2   5   49.00    2.50
  -3   2  -5   49.50    4.20
   4  -3  -5    7.70    2.80
  -4  -3   5   15.30    2.40
  -4  -3   5    8.50    1.30
  -4  -3   5   14.50    2.30
   4  -3  -5   11.30    3.10
   4  -3  -5   12.10    2.30
   4  -3  -5   11.90    2.20
   4   3  -5   12.10    2.30
   4   3  -5   17.80    3.90
  -4   3   5   10.80    3.00
   4   3  -5   16.30    3.00
   4   3  -5   16.80    4.40
  -4   3   5   11.70    1.80
  -4   3   5   16.60    2.60
   3  -3  -5  100.39    4.90
  -3  -3   5   98.99    4.00
  -3  -3   5  100.79    4.50
   3  -3  -5   90.89    6.10
  -3  -3   5  100.79    3.90
  -3  -3   5   97.09    4.70
   3  -3  -5   88.59    5.00
   3  -3  -5   96.79    6.40
   3   3  -5   99.59    5.70
   3   3  -5  102.99    7.40
  -3   3   5   99.39    4.10
   3   3  -5   97.09    7.00
  -3   3   5  100.29    6.90
   3   3  -5   95.09    4.60
   3   3  -5  102.99    5.20
  -3   3   5   92.79    4.70
  -2  -3   5   17.40    1.50
  -2  -3   5   19.40    1.40
   2  -3  -5   26.40    3.80
   2  -3  -5   21.40    2.70
  -2  -3   5   23.90    2.00
   2  -3  -5   23.50    2.30
   2  -3  -5   22.80    3.10
   2  -3  -5   20.20    1.70
  -2  -3   5   20.90    1.70
  -2   3   5   22.00    1.90
   2   3  -5   23.60    2.00
   2   3  -5   18.40    3.30
   2   3  -5   23.80    2.80
   2   3  -5   22.70    2.40
  -2   3   5   18.10    1.40
  -2   3   5   23.80    2.90
   2   3  -5   20.20    1.60
  -1  -3   5  539.45   12.50
   1  -3  -5  534.25   11.50
   1  -3  -5  552.44   13.60
   1  -3  -5  562.44   14.10
  -1  -3   5  519.95   12.70
  -1  -3   5  527.75   11.70
  -1  -3   5  549.15   11.70
   1  -3  -5  540.35   14.70
   1   3  -5  523.25   14.80
   1   3  -5  540.35   12.30
   1   3  -5  538.15   14.70
  -1   3   5  539.15   13.20
  -1   3   5  534.35   15.80
   1   3  -5  550.14   17.00
  -1   3   5  558.84   11.80
   0  -3  -5  126.39    5.90
   0  -3   5  116.59    3.80
   0  -3   5  125.09    4.40
   0  -3  -5  123.99    5.40
   0  -3   5  118.59    4.00
   0  -3   5  121.69    4.60
   0  -3  -5  122.59    5.20
   0  -3  -5  123.49    4.90
   0   3   5  117.99    3.90
   0   3  -5  113.39    5.00
   0   3  -5  122.79    6.30
   0   3   5  115.19    6.00
   0   3  -5  116.09    5.30
   0   3  -5  102.39    5.80
   0   3   5  120.49    4.80
   0   3   5  134.49    5.60
  -1  -3  -5  326.27   10.20
  -1  -3  -5  320.17    9.60
  -1  -3  -5  313.37   11.60
  -1  -3  -5  325.57    9.10
   1  -3   5  327.77    8.50
   1  -3   5  325.17    8.50
   1  -3   5  325.27    9.40
   1  -3   5  327.97    8.60
   1  -3   5  330.87    7.80
  -1  -3  -5  336.27    9.80
   1   3   5  332.47    9.50
   1   3   5  330.07    8.10
  -1   3  -5  317.37    9.80
  -1   3  -5  328.07   10.40
  -1   3  -5  328.57   11.90
  -1   3  -5  348.77   10.00
   1   3   5  336.87    7.90
   1   3   5  325.67   11.10
  -2  -3  -5  108.99    5.40
  -2  -3  -5   98.29    5.00
   2  -3   5   95.59    4.10
   2  -3   5  101.69    4.10
  -2  -3  -5   99.79    5.10
   2  -3   5   99.29    3.40
  -2  -3  -5   91.29    6.40
   2  -3   5  101.29    4.70
   2  -3   5  105.69    4.80
   2   3   5  102.49    4.90
   2   3   5  104.19    3.70
   2   3   5   97.99    5.80
  -2   3  -5  104.89    5.50
  -2   3  -5  106.19    6.80
  -2   3  -5  102.09    5.20
   2   3   5   97.29    5.40
  -3  -3  -5   48.70    3.70
  -3  -3  -5   44.10    3.80
   3  -3   5   42.30    3.10
   3  -3   5   52.69    2.90
  -3  -3  -5   47.90    5.10
  -3  -3  -5   40.40    4.90
   3   3   5   48.80    4.30
   3   3   5   51.79    4.50
   3   3   5   47.00    2.40
   3   3   5   47.50    3.50
  -3   3  -5   46.90    4.00
  -3   3  -5   47.50    5.10
   4  -4  -5   25.30    3.80
  -4  -4   5   26.50    2.20
   4  -4  -5   22.30    2.90
   4  -4  -5   30.30    3.40
  -4  -4   5   30.70    2.90
   4   4  -5   27.20    2.90
  -4   4   5   30.70    3.00
  -4   4   5   18.70    4.20
   4   4  -5   17.90    4.60
   4   4  -5   20.30    4.50
  -4   4   5   31.00    2.50
   4   4  -5   20.20    3.20
  -3  -4   5    1.30    0.80
   3  -4  -5    2.20    0.90
  -3  -4   5    2.30    0.80
   3  -4  -5    2.20    1.10
   3  -4  -5    1.30    1.60
  -3  -4   5    2.30    0.90
  -3  -4   5    1.70    0.60
   3  -4  -5    0.90    1.40
   3   4  -5    0.30    1.40
   3   4  -5    1.70    1.00
   3   4  -5    1.90    1.30
   3   4  -5    0.40    1.50
  -3   4   5    0.70    1.20
  -3   4   5    1.70    1.00
   3   4  -5    2.90    1.00
  -3   4   5    1.10    0.60
  -2  -4   5    6.30    1.00
  -2  -4   5    5.90    0.90
   2  -4  -5    7.10    1.50
   2  -4  -5    4.50    1.20
  -2  -4   5    8.20    0.90
   2  -4  -5    6.80    1.90
  -2  -4   5    9.80    1.70
  -2  -4   5    9.20    1.60
   2  -4  -5    8.00    1.30
   2   4  -5    7.80    1.20
  -2   4   5   10.40    2.50
   2   4  -5    8.90    2.00
  -2   4   5    5.30    0.90
  -2   4   5    7.20    1.30
   2   4  -5    7.40    2.20
   2   4  -5   11.30    2.40
   1  -4  -5  137.69    5.40
  -1  -4   5  139.79    4.90
  -1  -4   5  133.69    4.10
  -1  -4   5  118.09    6.40
   1  -4  -5  113.29    6.20
   1  -4  -5  130.99    5.50
   1  -4  -5  134.79    4.20
  -1  -4   5  132.39    4.00
  -1  -4   5  137.29    5.00
   1   4  -5  128.09    7.80
   1   4  -5  113.09    7.90
  -1   4   5  129.89    5.30
  -1   4   5  138.49    7.30
   1   4  -5  128.99    4.40
   1   4  -5  140.09    6.90
  -1   4   5  129.09    4.10
   0  -4  -5   32.10    1.70
   0  -4   5   32.80    2.00
   0  -4  -5   29.10    2.60
   0  -4   5   27.40    1.70
   0  -4  -5   29.80    2.60
   0  -4   5   29.10    2.00
   0  -4  -5   28.50    2.30
   0  -4   5   35.00    1.90
   0  -4   5   31.70    2.30
   0   4  -5   31.60    3.20
   0   4  -5   25.40    3.00
   0   4  -5   25.00    2.80
   0   4  -5   28.70    2.70
   0   4   5   29.80    2.40
   0   4   5   31.70    3.30
   0   4   5   29.30    2.90
  -1  -4  -5  211.68    7.50
   1  -4   5  209.28    5.90
  -1  -4  -5  215.18    7.20
   1  -4   5  205.28    6.40
  -1  -4  -5  203.08    8.90
   1  -4   5  202.88    7.00
   1  -4   5  212.88    6.30
  -1  -4  -5  201.88    7.00
  -1  -4  -5  209.78    7.90
   1  -4   5  210.68    6.50
  -1   4  -5  212.18    7.40
  -1   4  -5  207.28    8.20
   1   4   5  209.48    8.80
  -1   4  -5  206.88    7.80
   1   4   5  201.58    9.10
  -1   4  -5  194.88    9.00
  -1   4  -5  205.38    7.70
   1   4   5  206.38    7.40
   1   4   5  205.28    5.80
  -2  -4  -5   53.09    3.60
  -2  -4  -5   56.79    3.80
   2  -4   5   53.09    3.40
  -2  -4  -5   50.39    3.70
  -2  -4  -5   55.29    5.00
   2  -4   5   52.09    2.80
   2  -4   5   50.09    3.30
   2  -4   5   50.99    2.90
   2  -4   5   53.79    2.60
   2   4   5   52.39    4.40
  -2   4  -5   50.59    4.10
   2   4   5   51.59    3.60
  -2   4  -5   48.90    3.70
   2   4   5   56.49    4.60
   2   4   5   52.69    2.50
  -2   4  -5   46.40    4.70
   3  -4   5    9.60    1.90
  -3  -4  -5    9.80    2.00
  -3  -4  -5    9.40    1.90
  -3  -4  -5   15.60    3.50
   3  -4   5   13.40    1.50
   3  -4   5    8.90    1.30
  -3  -4  -5    7.90    3.00
   3   4   5   14.60    2.70
  -3   4  -5   11.50    2.30
   3   4   5    8.40    1.20
  -3   4  -5   11.30    3.30
   3   4   5   11.30    2.60
   3   4   5   13.90    2.20
  -3  -5   5   88.09    4.80
  -3  -5   5   92.19    3.60
   3  -5  -5   83.19    4.70
  -3  -5   5   88.59    4.10
   3  -5  -5   91.89    4.90
   3  -5  -5   86.99    5.70
  -3  -5   5   91.69    4.30
   3   5  -5   91.19    5.10
   3   5  -5   83.49    5.70
  -3   5   5   84.99    7.10
  -3   5   5   94.59    4.80
  -3   5   5   95.49    4.10
   3   5  -5   87.99    6.90
   3   5  -5   91.99    4.70
   3   5  -5   80.19    7.30
  -2  -5   5   66.69    3.40
   2  -5  -5   67.69    3.80
   2  -5  -5   62.79    3.30
  -2  -5   5   67.69    3.60
  -2  -5   5   69.39    2.90
  -2  -5   5   62.39    3.60
   2  -5  -5   64.49    3.40
   2  -5  -5   71.09    4.90
  -2  -5   5   65.59    2.70
   2   5  -5   69.39    4.70
   2   5  -5   62.39    3.40
   2   5  -5   68.09    6.40
   2   5  -5   65.29    3.60
   2   5  -5   62.29    5.40
  -2   5   5   57.69    3.60
  -2   5   5   63.39    5.70
  -2   5   5   65.39    2.90
   1  -5  -5  346.77   10.00
   1  -5  -5  339.57   11.10
   1  -5  -5  353.36   10.20
   1  -5  -5  355.76    9.20
  -1  -5   5  343.27    9.40
  -1  -5   5  356.76    9.80
  -1  -5   5  348.67    9.10
  -1  -5   5  341.77    8.10
   1  -5  -5  345.97    8.90
   1   5  -5  352.66   11.60
  -1   5   5  345.37   10.20
  -1   5   5  346.27   13.60
  -1   5   5  343.47    8.30
   1   5  -5  339.07   14.10
   1   5  -5  337.97   13.00
   1   5  -5  333.27    8.80
   0  -5  -5  240.88    6.60
   0  -5  -5  235.98    8.50
   0  -5   5  243.98    7.30
   0  -5  -5  237.58    8.00
   0  -5   5  231.78    6.80
   0  -5  -5  238.08    8.30
   0  -5   5  246.28    7.30
   0  -5   5  249.97    6.60
   0  -5   5  234.88    7.70
   0   5  -5  231.68   10.70
   0   5   5  236.48    8.10
   0   5  -5  249.88    9.90
   0   5   5  221.48   10.50
   0   5  -5  233.48    9.70
   0   5  -5  261.87    9.30
   0   5   5  233.58    9.90
   0   5  -5  236.78    7.30
   1  -5   5 1312.87   26.90
   1  -5   5 1328.57   28.50
   1  -5   5 1278.87   27.30
  -1  -5  -5 1295.77   28.00
  -1  -5  -5 1303.77   29.10
   1  -5   5 1328.77   27.90
   1  -5   5 1297.97   26.70
  -1  -5  -5 1346.47   31.00
  -1  -5  -5 1323.07   29.60
   1   5   5 1306.67   29.20
  -1   5  -5 1336.37   29.50
   1   5   5 1321.37   33.10
  -1   5  -5 1372.06   31.70
  -1   5  -5 1327.07   32.00
   1   5   5 1325.87   32.60
  -1   5  -5 1304.27   30.40
  -1   5  -5 1290.87   28.50
  -1   5  -5 1318.57   30.30
  -2  -5  -5  168.68    8.90
   2  -5   5  179.48    7.00
   2  -5   5  195.58    7.30
   2  -5   5  180.48    5.80
  -2  -5  -5  169.28    9.10
  -2  -5  -5  197.08    9.50
   2  -5   5  175.58    7.40
   2  -5   5  193.08    6.20
  -2  -5  -5  185.38    7.20
   2   5   5  178.78    9.30
  -2   5  -5  179.28    7.70
  -2   5  -5  182.98    9.10
  -2   5  -5  182.98    7.70
  -2   5  -5  187.98    7.70
   2   5   5  189.68    9.70
  -2   5  -5  162.08    8.80
   2   5   5  182.98    5.30
  -3  -5  -5   45.50    3.80
   3  -5   5   41.50    2.70
   3  -5   5   47.10    2.90
  -3  -5  -5   51.49    5.40
  -3  -5  -5   39.80    2.60
  -3  -5  -5   38.30    3.50
   3  -5   5   38.50    3.10
  -3  -5  -5   49.40    6.40
   3  -5   5   43.70    3.60
   3   5   5   48.90    4.70
  -3   5  -5   42.60    5.00
   3   5   5   40.70    3.70
  -3   5  -5   45.60    4.10
  -3   5  -5   32.10    4.40
   3   5   5   38.90    4.70
  -3  -6   5    0.30    0.80
   3  -6  -5    0.20    0.60
  -3  -6   5    0.30    0.80
   3  -6  -5   -0.60    1.00
  -3  -6   5   -0.50    0.60
  -3  -6   5    0.50    0.70
   3  -6  -5    1.80    1.20
   3  -6  -5    0.90    0.70
   3  -6  -5   -0.40    0.60
   3   6  -5   -2.50    1.70
   3   6  -5   -0.50    0.80
   3   6  -5    1.50    1.70
  -3   6   5   -1.30    0.90
   3   6  -5    0.90    1.20
  -3   6   5   -1.60    1.90
  -3   6   5    1.20    0.50
   3   6  -5    0.80    1.00
  -2  -6   5   99.79    4.70
  -2  -6   5  102.59    4.60
   2  -6  -5  102.09    4.60
  -2  -6   5   94.89    4.70
   2  -6  -5   95.69    4.80
   2  -6  -5  107.89    4.20
   2  -6  -5   98.99    5.80
  -2  -6   5   99.19    3.50
   2  -6  -5  101.39    5.30
   2   6  -5   78.49    7.20
   2   6  -5  105.29    7.50
  -2   6   5   99.99    3.80
  -2   6   5   88.39    7.40
   2   6  -5  107.09    4.80
   2   6  -5  105.29    4.80
   2   6  -5   91.89   10.50
   1  -6  -5  309.97   10.90
   1  -6  -5  319.77    9.00
   1  -6  -5  308.97    9.60
   1  -6  -5  308.47    9.40
  -1  -6   5  312.17    7.50
  -1  -6   5  316.67    9.30
  -1  -6   5  304.37    8.70
  -1  -6   5  328.87    9.60
   1  -6  -5  317.27    8.80
   1   6  -5  314.17   11.20
  -1   6   5  310.57    9.90
   1   6  -5  318.87   14.60
  -1   6   5  312.77    7.80
  -1   6   5  322.07   13.00
   1   6  -5  311.37    8.50
   1   6  -5  312.77    9.50
  -1   6   5  330.27   14.00
   1   6  -5  315.47   13.40
   0  -6  -5  236.88    8.40
   0  -6  -5  235.48    8.10
   0  -6  -5  233.58    6.80
   0  -6   5  225.68    7.70
   0  -6  -5  230.78    8.70
   0  -6   5  227.98    7.50
   0  -6   5  236.08    7.10
   0  -6   5  229.18    7.50
   0  -6   5  234.18    6.50
   0   6  -5  240.68    8.70
   0   6  -5  228.08    7.10
   0   6   5  253.87   11.80
   0   6   5  224.78   10.60
   0   6  -5  237.08   11.20
   0   6   5  228.98    8.30
   0   6  -5  243.08    9.20
   0   6  -5  232.28   10.50
   0   6  -5  235.88   11.70
   1  -6   5  564.34   13.30
  -1  -6  -5  542.25   14.80
   1  -6   5  546.95   14.40
  -1  -6  -5  535.45   13.60
  -1  -6  -5  548.45   12.00
   1  -6   5  548.95   12.80
   1  -6   5  544.65   13.60
   1  -6   5  575.84   14.40
  -1  -6  -5  549.65   15.40
  -1   6  -5  526.55   14.10
  -1   6  -5  520.95   16.70
  -1   6  -5  530.95   16.70
   1   6   5  528.35   15.10
   1   6   5  543.35   18.60
  -1   6  -5  537.75   17.10
  -1   6  -5  535.25   17.90
  -1   6  -5  566.54   15.40
   1   6   5  531.25   18.50
   2  -6   5  113.69    4.70
  -2  -6  -5  118.89    7.00
   2  -6   5  128.69    5.70
   2  -6   5  108.49    4.60
   2  -6   5  114.29    5.70
  -2  -6  -5  111.29    5.80
   2  -6   5  118.49    4.90
  -2  -6  -5  124.39    5.50
  -2  -6  -5  127.89    6.40
   2   6   5  118.29    8.20
  -2   6  -5  108.69    5.80
   2   6   5  117.79    7.70
  -2   6  -5  104.39    7.20
  -2   6  -5  119.99    5.90
   2   6   5   99.39    5.80
  -3  -6  -5   13.50    2.60
   3  -6   5   10.10    2.30
  -3  -6  -5   11.40    1.90
   3  -6   5    8.40    1.40
  -3  -6  -5    9.20    3.00
  -3  -6  -5   11.50    3.20
  -3  -6  -5   18.90    4.10
   3  -6   5   11.20    2.50
   3  -6   5    9.80    1.70
   3   6   5   10.60    2.80
   3   6   5   11.40    3.90
   3   6   5    9.10    2.10
  -3   6  -5   10.10    2.10
  -3   6  -5   10.10    3.30
   3  -7  -5    1.20    1.20
   3  -7  -5    2.90    1.60
  -3  -7   5    1.30    1.20
   3  -7  -5    0.90    1.40
   3  -7  -5    2.40    1.20
  -3  -7   5    3.30    1.10
  -3  -7   5    2.80    1.30
  -3  -7   5    4.80    1.50
   3  -7  -5    2.70    1.50
   3   7  -5    3.10    1.30
   3   7  -5    5.70    2.30
  -3   7   5    3.50    1.00
   3   7  -5   -0.30    2.40
  -3   7   5   -1.40    2.30
  -3   7   5    4.90    1.50
   3   7  -5    3.00    1.70
   2  -7  -5   21.80    3.20
  -2  -7   5   23.50    2.30
   2  -7  -5   19.90    2.00
   2  -7  -5   21.60    2.40
  -2  -7   5   21.40    2.30
   2  -7  -5   22.80    2.30
   2  -7  -5   30.00    2.60
  -2  -7   5   18.00    2.00
   2   7  -5   21.10    4.30
   2   7  -5   20.70    2.30
   2   7  -5   30.30    5.80
  -2   7   5   15.60    3.70
  -2   7   5   22.60    1.60
   2   7  -5   22.00    3.30
   2   7  -5   24.20    4.40
   1  -7  -5   18.70    2.10
  -1  -7   5   22.90    2.30
   1  -7  -5   22.10    2.00
   1  -7  -5   17.30    3.50
  -1  -7   5   19.30    1.30
  -1  -7   5   20.00    3.30
  -1  -7   5   22.60    2.20
   1  -7  -5   20.80    2.20
   1  -7  -5   22.40    2.00
   1   7  -5   25.10    2.70
  -1   7   5   15.20    3.70
   1   7  -5   22.80    4.30
  -1   7   5   25.20    4.40
  -1   7   5   22.50    1.50
   1   7  -5   24.60    2.80
   1   7  -5   17.70    1.80
   1   7  -5   25.80    5.50
  -1   7   5   15.30    2.40
   0  -7  -5   42.50    3.20
   0  -7   5   45.10    3.10
   0  -7   5   45.10    2.30
   0  -7   5   44.80    3.10
   0  -7  -5   42.50    3.30
   0  -7  -5   47.90    2.70
   0  -7   5   40.40    2.70
   0  -7   5   42.40    2.90
   0   7   5   41.40    3.40
   0   7  -5   50.99    5.50
   0   7   5   51.09    5.10
   0   7  -5   48.30    3.80
   0   7  -5   43.20    4.20
   0   7   5   39.20    4.80
   0   7  -5   43.90    3.70
   0   7  -5   37.60    4.40
   1  -7   5    6.30    1.30
   1  -7   5    6.50    1.10
   1  -7   5    5.90    1.20
  -1  -7  -5    7.10    1.10
   1  -7   5    5.40    1.50
  -1  -7  -5    6.50    1.60
   1  -7   5    4.60    1.30
  -1   7  -5    8.30    2.50
  -1   7  -5    9.00    2.30
  -1   7  -5    9.40    2.60
  -1   7  -5    5.40    1.60
   1   7   5    8.80    2.70
   1   7   5    5.20    1.40
   1   7   5    6.50    2.40
  -1   7  -5    8.00    1.40
  -2  -7  -5    4.50    1.50
   2  -7   5    9.30    1.50
  -2  -7  -5    7.30    1.60
   2  -7   5    6.30    1.40
   2  -7   5    6.70    1.50
  -2  -7  -5    5.60    1.40
   2  -7   5    4.60    0.90
   2  -7   5    5.70    1.30
  -2  -7  -5    3.00    1.90
  -2   7  -5    9.10    2.00
   2   7   5    7.50    1.90
   2   7   5    6.90    2.50
  -2   7  -5    2.60    2.00
  -2   7  -5   11.10    2.40
   2   7   5    1.40    2.60
  -2  -8   5   17.90    2.20
  -2  -8   5   17.40    2.20
   2  -8  -5   18.00    2.20
   2  -8  -5   17.90    3.10
   2  -8  -5   20.20    2.50
   2  -8  -5   20.90    2.30
   2  -8  -5   16.00    1.90
   2   8  -5   14.60    3.00
  -2   8   5   18.40    4.30
   2   8  -5   30.60    5.40
  -2   8   5   20.70    2.90
  -2   8   5   18.00    1.60
   2   8  -5   21.50    2.80
   2   8  -5   15.80    2.30
  -2   8   5   14.80    4.20
  -1  -8   5   38.00    2.90
  -1  -8   5   37.10    2.90
   1  -8  -5   37.50    3.70
   1  -8  -5   37.00    2.90
   1  -8  -5   35.40    2.80
  -1  -8   5   36.70    2.80
   1  -8  -5   33.30    2.90
   1  -8  -5   34.20    2.70
  -1   8   5   29.50    5.30
   1   8  -5   38.50    3.70
   1   8  -5   29.60    5.50
   1   8  -5   37.60    2.60
  -1   8   5   30.90    5.10
   1   8  -5   33.40    5.80
   1   8  -5   43.90    4.00
  -1   8   5   34.30    3.30
   0  -8  -5   17.40    3.40
   0  -8   5   18.80    1.90
   0  -8   5   17.60    2.00
   0  -8   5   14.20    2.20
   0  -8  -5   18.80    1.90
   0  -8  -5   18.00    2.20
   0  -8   5   18.40    1.40
   0  -8   5   13.00    2.00
   0   8  -5   18.70    3.10
   0   8  -5   16.70    3.10
   0   8   5   17.40    3.90
   0   8   5   14.60    3.50
   0   8  -5   21.60    4.40
   0   8  -5   13.90    3.50
   0   8   5   19.50    2.90
  -1  -8  -5   29.30    2.60
  -1  -8  -5   26.50    2.70
   1  -8   5   26.70    2.50
   1  -8   5   29.80    2.40
   1  -8   5   24.70    2.40
   1  -8   5   27.30    2.70
  -1  -8  -5   27.60    2.00
  -1  -8  -5   22.20    2.70
   1  -8   5   30.30    2.00
   1   8   5   20.50    4.00
   1   8   5   17.30    4.20
  -1   8  -5   25.80    2.90
   1   8   5   27.30    3.10
  -1   8  -5   24.70    4.00
  -1   8  -5   29.50    5.00
  -1   8  -5   31.70    5.00
  -2  -8  -5   37.70    3.60
   2  -8   5   36.80    3.50
   2  -8   5   42.80    3.40
  -2  -8  -5   38.00    3.70
  -2  -8  -5   40.70    3.20
   2  -8   5   44.90    3.10
  -2  -8  -5   35.20    4.10
   2  -8   5   46.40    3.30
   2  -8   5   41.30    2.70
   2   8   5   48.00    5.70
   2   8   5   44.00    5.00
  -2   8  -5   37.50    6.30
  -2   8  -5   40.60    3.30
   2   8   5   41.10    4.10
   2   8   5   43.90    6.60
  -2   8  -5   36.00    5.50
  -1  -9   5    7.10    1.70
  -1  -9   5    8.70    1.80
   1  -9  -5    2.70    1.40
   1  -9  -5    5.40    1.30
   1  -9  -5    7.40    1.70
  -1  -9   5    6.80    1.40
   1  -9  -5    3.20    1.30
   1  -9  -5    5.70    1.30
  -1   9   5    2.20    1.90
   1   9  -5    6.20    3.30
  -1   9   5    6.10    2.70
  -1   9   5    3.00    1.60
   1   9  -5    0.50    2.40
   1   9  -5    2.90    1.80
   0  -9   5   80.29    4.90
   0  -9   5   79.99    4.60
   0  -9  -5   78.39    4.60
   0  -9   5   80.19    4.40
   0  -9  -5   85.39    5.00
   0  -9   5   82.79    4.80
   0  -9  -5   85.49    4.20
   0  -9  -5   81.89    4.60
   0   9  -5   74.19    5.60
   0   9   5   85.29    8.00
   0   9  -5   63.69    7.30
   0   9   5   87.19    5.60
   0   9   5  100.79    8.70
   0   9  -5   84.99    8.00
   0   9  -5   76.29    6.20
  -1  -9  -5   15.40    2.40
  -1  -9  -5   21.00    3.60
   1  -9   5   18.00    2.20
  -1  -9  -5   15.30    2.40
   1  -9   5   20.90    2.60
   1  -9   5   12.70    2.00
   1  -9   5   16.70    1.60
  -1  -9  -5   13.30    1.80
   1  -9   5   18.10    2.30
   1   9   5   14.40    2.60
  -1   9  -5   17.40    3.90
  -1   9  -5   21.80    4.50
  -1   9  -5   15.80    2.80
  -1   9  -5    8.80    3.30
   1   9   5   11.80    3.30
   1   9   5   19.30    4.60
   4   0  -6  262.67   11.80
  -4   0   6  247.38    8.60
  -4   0   6  245.58    9.10
   4   0  -6  228.98   12.50
   4   0  -6  243.68    9.70
  -4   0   6  248.18    8.00
   4   0  -6  226.48    9.50
  -3   0   6  906.71   20.90
   3   0  -6  877.31   23.50
   3   0  -6  911.01   26.10
   3   0  -6  910.41   21.90
   3   0  -6  899.61   22.70
  -3   0   6  908.31   20.50
  -3   0   6  898.21   19.60
   2   0  -6  527.45   14.70
   2   0  -6  520.35   13.50
   2   0  -6  505.65   14.40
  -2   0   6  522.65   11.90
   2   0  -6  514.85   16.80
  -2   0   6  520.45   13.70
  -2   0   6  510.75   12.70
  -1   0   6 1340.17   26.90
   1   0  -6 1308.77   27.10
  -1   0   6 1353.46   26.60
  -1   0   6 1319.77   26.20
   1   0  -6 1319.27   29.60
   1   0  -6 1277.47   27.40
   1   0  -6 1311.67   30.90
   0   0  -6 1562.84   33.30
   0   0  -6 1513.95   34.90
   0   0   6 1530.65   30.40
   0   0  -6 1508.65   30.70
   0   0   6 1513.85   30.10
   0   0  -6 1492.35   34.10
  -1   0  -6   51.69    4.70
   1   0   6   53.69    2.90
  -1   0  -6   51.89    4.30
   1   0   6   52.39    2.70
  -1   0  -6   49.00    2.90
  -1   0  -6   45.90    3.40
   1   0   6   53.39    2.50
   1   0   6   52.59    2.80
  -1   0  -6   49.60    3.00
   2   0   6 2141.59   42.70
  -2   0  -6 2245.18   47.00
  -2   0  -6 2224.68   44.90
   2   0   6 2272.57   44.30
   2   0   6 2201.58   43.90
  -2   0  -6 2226.78   50.89
   2   0   6 2239.18   43.50
   2   0   6 2230.48   45.20
  -2   0  -6 2201.68   45.90
  -3   0  -6   54.29    4.60
   3   0   6   43.00    3.60
  -3   0  -6   51.79    3.60
   3   0   6   51.99    3.60
   4  -1  -6    6.30    3.20
   4  -1  -6    5.20    1.70
  -4  -1   6    6.80    1.50
   4  -1  -6    3.90    1.70
  -4  -1   6    2.70    1.10
   4  -1  -6    7.20    2.50
  -4  -1   6    3.80    1.10
  -4   1   6    3.30    2.00
   4   1  -6    5.20    2.70
  -4   1   6    2.90    1.30
   4   1  -6    2.50    3.00
  -4   1   6    6.50    1.80
   4   1  -6    4.50    1.40
  -4   1   6    4.70    1.10
   4   1  -6    4.30    1.70
   3  -1  -6   71.59    5.30
  -3  -1   6   74.39    3.50
   3  -1  -6   93.09    6.90
  -3  -1   6   74.99    4.00
   3  -1  -6   75.29    4.70
   3  -1  -6   78.39    4.70
   3  -1  -6   72.09    4.20
  -3  -1   6   81.69    4.20
  -3   1   6   84.09    4.30
   3   1  -6   87.39    7.00
   3   1  -6   81.79    4.60
  -3   1   6   79.29    3.90
   3   1  -6   78.49    4.90
  -3   1   6   72.19    5.20
   3   1  -6   78.49    5.80
  -3   1   6   78.89    3.60
   2  -1  -6  274.27    8.80
  -2  -1   6  268.07    8.80
  -2  -1   6  265.57    7.10
   2  -1  -6  254.87    9.30
   2  -1  -6  260.57    9.00
   2  -1  -6  265.27    7.30
  -2  -1   6  256.27    7.80
   2  -1  -6  256.57   11.20
   2   1  -6  255.67   11.30
   2   1  -6  259.57    9.70
  -2   1   6  256.27    9.10
  -2   1   6  256.77    7.80
  -2   1   6  269.77    7.20
   2   1  -6  262.17    9.30
   2   1  -6  265.97    8.30
   1  -1  -6   53.09    3.20
  -1  -1   6   56.09    2.80
  -1  -1   6   53.49    2.60
  -1  -1   6   49.80    2.40
   1  -1  -6   48.30    4.00
   1  -1  -6   55.69    3.30
   1  -1  -6   45.80    4.40
   1   1  -6   52.69    3.40
   1   1  -6   54.49    4.70
  -1   1   6   55.99    3.30
   1   1  -6   56.99    3.00
  -1   1   6   56.29    2.60
  -1   1   6   52.39    2.90
   1   1  -6   53.69    3.80
  -1   1   6   53.29    2.50
   0  -1  -6  603.24   14.40
   0  -1   6  601.74   13.50
   0  -1   6  587.44   13.90
   0  -1   6  601.44   12.80
   0  -1  -6  584.84   17.20
   0  -1  -6  618.54   16.20
   0  -1  -6  597.34   17.30
   0   1   6  604.54   14.50
   0   1  -6  601.34   13.80
   0   1   6  600.64   13.50
   0   1  -6  570.64   16.20
   0   1  -6  615.04   16.30
   0   1  -6  614.74   17.80
   0   1   6  604.24   14.00
  -1  -1  -6   97.79    7.10
   1  -1   6   92.89    4.10
   1  -1   6   77.49    5.10
  -1  -1  -6   86.99    4.10
  -1  -1  -6   92.79    3.90
   1  -1   6   86.59    4.70
  -1  -1  -6   91.59    5.20
   1  -1   6   90.09    3.20
   1   1   6   92.69    4.50
   1   1   6   90.99    3.70
  -1   1  -6   86.19    7.30
   1   1   6   83.29    3.70
  -1   1  -6   93.29    4.40
  -1   1  -6   87.99    3.70
   1   1   6   88.99    3.70
  -1   1  -6   81.99    5.80
  -1   1  -6   78.29    5.50
  -2  -1  -6   71.79    4.00
  -2  -1  -6   70.09    6.00
  -2  -1  -6   62.89    4.20
   2  -1   6   64.99    3.30
  -2  -1  -6   63.59    4.40
   2  -1   6   65.19    4.10
   2  -1   6   64.59    3.50
   2  -1   6   71.19    3.70
  -2   1  -6   69.19    4.60
  -2   1  -6   57.99    4.80
   2   1   6   71.39    3.60
   2   1   6   66.29    3.20
  -2   1  -6   66.29    5.80
   2   1   6   69.79    4.30
  -2   1  -6   66.79    3.60
  -3  -1  -6   19.70    3.30
   3  -1   6   16.10    3.60
  -3  -1  -6   18.70    4.00
   3  -1   6   22.40    2.60
  -3  -1  -6   19.70    3.40
   3  -1   6   18.00    1.70
  -3  -1  -6   19.50    2.40
  -3   1  -6   20.60    2.30
   3   1   6   18.60    2.20
  -3   1  -6   18.30    4.20
  -3   1  -6   19.80    2.20
  -3   1  -6   14.40    2.70
   3   1   6   20.70    2.80
   3   1   6   14.70    1.60
  -4  -2   6    9.10    1.90
  -4  -2   6    7.40    1.80
   4  -2  -6    7.00    3.50
   4  -2  -6    7.10    1.90
  -4  -2   6    8.50    1.40
   4  -2  -6    8.90    2.10
   4  -2  -6    9.80    3.00
   4   2  -6    7.90    2.90
  -4   2   6    9.10    1.50
  -4   2   6    7.00    1.80
   4   2  -6    6.50    2.30
  -4   2   6   10.00    2.10
  -4   2   6    8.00    2.60
   4   2  -6    6.90    1.90
   4   2  -6    5.40    3.00
   3  -2  -6   25.30    2.40
   3  -2  -6   23.10    2.60
  -3  -2   6   24.90    1.90
   3  -2  -6   23.00    4.50
  -3  -2   6   24.70    2.30
   3  -2  -6   17.80    3.10
  -3  -2   6   24.70    2.20
   3  -2  -6   23.70    3.20
   3   2  -6   20.60    3.10
   3   2  -6   27.00    2.70
   3   2  -6   22.20    3.90
  -3   2   6   19.60    3.40
   3   2  -6   27.90    4.60
  -3   2   6   24.40    1.90
  -3   2   6   24.10    2.30
   2  -2  -6    6.50    2.40
   2  -2  -6    4.40    2.00
  -2  -2   6    7.80    1.30
  -2  -2   6    5.30    1.30
   2  -2  -6    6.00    1.50
  -2  -2   6    4.70    0.80
  -2   2   6    6.80    1.80
   2   2  -6    6.00    1.90
   2   2  -6    7.20    1.70
  -2   2   6    8.30    1.20
   2   2  -6    9.20    1.60
  -1  -2   6   19.20    1.40
  -1  -2   6   18.80    1.90
  -1  -2   6   18.20    1.60
  -1  -2   6   17.00    1.30
   1  -2  -6   19.50    1.90
   1  -2  -6   16.80    2.70
   1  -2  -6   15.00    2.90
   1  -2  -6   11.80    2.70
   1  -2  -6   16.80    1.90
  -1   2   6   17.90    1.40
   1   2  -6   19.60    1.60
   1   2  -6   19.80    2.20
  -1   2   6   18.10    2.70
   1   2  -6   16.40    2.80
  -1   2   6   20.10    1.80
   1   2  -6   12.80    2.10
  -1   2   6   16.20    1.30
   0  -2  -6   30.90    3.20
   0  -2   6   28.90    2.30
   0  -2   6   31.10    2.00
   0  -2  -6   28.00    2.80
   0  -2   6   30.80    2.20
   0  -2  -6   28.50    3.20
   0  -2  -6   29.80    2.40
   0  -2   6   30.80    1.50
   0   2  -6   27.60    2.80
   0   2  -6   31.40    1.90
   0   2  -6   28.30    2.90
   0   2   6   34.40    1.90
   0   2  -6   27.40    3.20
   0   2   6   30.70    2.70
   0   2   6   31.50    2.30
   1  -2   6   37.30    2.10
   1  -2   6   38.90    1.70
  -1  -2  -6   34.80    2.40
   1  -2   6   37.40    2.30
   1  -2   6   37.00    2.60
  -1  -2  -6   45.10    3.50
  -1  -2  -6   38.50    2.80
  -1   2  -6   36.20    3.00
  -1   2  -6   38.40    4.00
   1   2   6   39.50    2.20
  -1   2  -6   39.20    3.20
   1   2   6   38.60    2.60
   1   2   6   38.20    3.10
  -1   2  -6   40.00    4.90
   1   2   6   39.10    2.20
  -1   2  -6   38.10    2.20
   2  -2   6    8.00    1.40
  -2  -2  -6    9.90    2.00
  -2  -2  -6    8.20    2.50
  -2  -2  -6    8.60    1.70
   2  -2   6    9.50    1.60
  -2  -2  -6    7.90    1.80
  -2   2  -6    9.40    1.50
   2   2   6   10.00    1.90
   2   2   6   10.70    1.70
   2   2   6    8.40    1.30
   2   2   6   10.60    1.20
  -2   2  -6    8.90    1.80
  -2   2  -6   11.30    2.70
  -2   2  -6   11.00    2.10
   3  -2   6    3.90    0.90
   3  -2   6    5.80    1.40
  -3  -2  -6    2.70    1.30
  -3  -2  -6    3.20    2.00
   3  -2   6    3.60    1.10
  -3  -2  -6    3.50    1.40
  -3   2  -6    0.90    2.30
  -3   2  -6    4.00    1.30
   3   2   6    4.00    1.10
   3   2   6    0.90    1.10
  -3   2  -6    1.40    1.00
   3   2   6    3.90    0.90
  -3   2  -6    4.00    1.10
   4  -3  -6   36.40    3.80
  -4  -3   6   39.60    3.30
   4  -3  -6   33.40    4.80
  -4  -3   6   36.00    3.70
  -4  -3   6   38.30    2.60
   4  -3  -6   39.40    3.60
   4   3  -6   47.80    7.00
  -4   3   6   36.00    3.40
  -4   3   6   36.00    3.10
  -4   3   6   44.20    5.40
   4   3  -6   36.90    6.50
   4   3  -6   36.40    4.20
   3  -3  -6  137.49    6.70
  -3  -3   6  141.19    6.10
   3  -3  -6  131.59    7.90
  -3  -3   6  149.09    5.00
  -3  -3   6  143.99    5.70
   3  -3  -6  149.79    6.00
   3  -3  -6  140.79    8.20
   3   3  -6  143.99   13.40
  -3   3   6  138.59    6.50
  -3   3   6  149.79    8.50
   3   3  -6  124.29    9.70
   3   3  -6  135.39    6.70
  -3   3   6  140.59    5.70
   3   3  -6  135.89    7.20
  -2  -3   6  449.66   11.20
   2  -3  -6  449.06   14.80
   2  -3  -6  439.76   10.90
   2  -3  -6  447.66   13.10
   2  -3  -6  449.26   13.40
   2  -3  -6  439.86   12.80
  -2  -3   6  444.56   10.50
  -2  -3   6  431.36   11.80
  -2  -3   6  452.05   11.00
  -2   3   6  441.46   14.90
   2   3  -6  421.46   15.90
   2   3  -6  458.35   12.00
  -2   3   6  445.06   12.00
  -2   3   6  438.86   10.60
   2   3  -6  455.75   14.60
   2   3  -6  440.56   14.00
   1  -3  -6  310.17   10.10
  -1  -3   6  300.87    8.60
   1  -3  -6  302.17   10.50
   1  -3  -6  295.07   10.10
  -1  -3   6  290.07    8.80
  -1  -3   6  292.27    7.60
  -1  -3   6  296.77    7.60
   1  -3  -6  283.17    9.10
   1   3  -6  292.97    8.00
   1   3  -6  286.97   10.30
  -1   3   6  294.07    8.80
  -1   3   6  307.87   11.10
   1   3  -6  295.47    9.70
  -1   3   6  302.97    7.70
  -1   3   6  287.17    7.10
   1   3  -6  291.67   12.10
   0  -3  -6 1495.55   32.60
   0  -3  -6 1512.35   34.00
   0  -3  -6 1516.15   32.10
   0  -3   6 1487.95   29.10
   0  -3  -6 1406.16   32.70
   0  -3   6 1487.65   30.40
   0  -3   6 1524.15   33.00
   0  -3   6 1486.15   29.90
   0  -3   6 1513.05   29.30
   0   3   6 1518.15   32.60
   0   3   6 1501.75   32.20
   0   3  -6 1469.35   29.00
   0   3  -6 1528.85   34.20
   0   3   6 1499.65   28.90
   0   3  -6 1499.15   33.30
   0   3  -6 1476.95   35.10
   0   3   6 1517.15   34.20
  -1  -3  -6   98.19    4.80
   1  -3   6   99.89    3.90
  -1  -3  -6  103.49    6.50
   1  -3   6  100.39    4.70
   1  -3   6   99.29    3.40
  -1  -3  -6  107.19    4.60
  -1  -3  -6  100.89    5.40
   1  -3   6  100.79    4.10
  -1   3  -6   97.49    5.10
  -1   3  -6  110.79    5.10
   1   3   6  104.29    5.70
   1   3   6  102.29    4.80
   1   3   6  102.49    3.90
  -1   3  -6   97.39    6.40
  -1   3  -6   94.59    5.70
   1   3   6   99.79    3.60
   2  -3   6  747.43   17.40
   2  -3   6  725.13   16.80
  -2  -3  -6  740.73   22.50
  -2  -3  -6  700.33   18.40
   2  -3   6  727.63   15.10
  -2  -3  -6  732.53   19.10
  -2  -3  -6  731.23   19.20
   2  -3   6  728.43   18.00
   2   3   6  714.03   18.00
   2   3   6  724.33   16.20
  -2   3  -6  749.53   19.80
   2   3   6  742.53   20.20
  -2   3  -6  709.53   18.80
  -2   3  -6  698.43   22.30
  -3  -3  -6   30.60    3.00
  -3  -3  -6   31.30    5.10
  -3  -3  -6   20.30    2.90
   3  -3   6   27.80    2.30
   3  -3   6   30.70    2.70
  -3  -3  -6   21.40    2.60
   3  -3   6   22.10    2.70
  -3   3  -6   26.30    2.30
  -3   3  -6   25.90    3.10
  -3   3  -6   20.40    4.40
   3   3   6   26.30    2.00
   3   3   6   25.20    2.70
   3   3   6   18.40    2.90
  -3  -4   6    2.60    1.00
   3  -4  -6    0.30    1.30
  -3  -4   6    2.30    1.00
   3  -4  -6    3.10    1.70
   3  -4  -6    2.40    2.50
  -3  -4   6    2.60    1.20
   3  -4  -6    0.70    0.80
  -3  -4   6    2.40    0.70
   3   4  -6    1.20    0.70
  -3   4   6    2.80    0.80
   3   4  -6    1.00    1.60
   3   4  -6    2.90    1.50
  -3   4   6    2.00    0.90
  -3   4   6    0.50    1.60
   3   4  -6    4.00    1.40
   3   4  -6    0.20    1.60
  -2  -4   6  401.96   10.60
  -2  -4   6  402.26    9.80
   2  -4  -6  396.86   11.70
   2  -4  -6  385.16   13.00
   2  -4  -6  401.86   10.20
   2  -4  -6  392.46   11.30
  -2  -4   6  394.36    9.30
  -2  -4   6  383.66   10.90
   2   4  -6  382.86   13.80
   2   4  -6  402.66   13.40
  -2   4   6  389.06   11.40
   2   4  -6  418.86   11.20
  -2   4   6  400.96   15.10
  -2   4   6  380.36    9.80
   2   4  -6  405.96   16.00
   1  -4  -6   34.20    3.00
  -1  -4   6   31.90    1.90
  -1  -4   6   32.60    2.50
   1  -4  -6   32.20    2.00
  -1  -4   6   33.70    2.40
   1  -4  -6   29.80    3.00
   1  -4  -6   35.30    2.80
  -1  -4   6   37.80    2.10
   1   4  -6   34.50    3.90
  -1   4   6   31.60    2.60
  -1   4   6   35.50    2.00
   1   4  -6   37.20    3.40
   1   4  -6   32.90    3.20
  -1   4   6   30.50    3.50
   1   4  -6   36.30    2.30
   0  -4  -6 1251.57   28.40
   0  -4   6 1283.87   27.20
   0  -4  -6 1251.47   24.90
   0  -4  -6 1288.37   27.70
   0  -4   6 1231.78   25.90
   0  -4   6 1267.87   25.70
   0  -4  -6 1258.97   28.20
   0  -4   6 1237.98   25.50
   0  -4   6 1217.78   26.30
   0  -4  -6 1270.07   29.50
   0   4   6 1303.07   31.20
   0   4  -6 1260.87   31.10
   0   4  -6 1260.07   28.40
   0   4  -6 1252.57   29.00
   0   4   6 1298.67   29.50
   0   4   6 1239.58   27.60
   1  -4   6  233.38    8.00
   1  -4   6  233.98    6.40
   1  -4   6  217.68    6.80
  -1  -4  -6  231.88   10.10
   1  -4   6  223.28    7.10
   1  -4   6  222.08    6.90
  -1  -4  -6  224.08    8.70
  -1  -4  -6  232.18    8.30
  -1  -4  -6  222.08    8.00
  -1  -4  -6  240.48    7.90
   1   4   6  228.68    6.60
   1   4   6  235.28    9.40
  -1   4  -6  237.88    9.00
  -1   4  -6  207.08    8.40
  -1   4  -6  205.98    8.00
   1   4   6  232.48    9.90
  -1   4  -6  236.98   10.60
   1   4   6  238.28    8.30
  -1   4  -6  236.68    8.40
   2  -4   6  174.08    9.60
  -2  -4  -6  204.58   10.20
   2  -4   6  194.98    7.20
   2  -4   6  192.98    7.10
  -2  -4  -6  200.98    8.40
   2  -4   6  200.38    5.80
  -2  -4  -6  208.28    8.20
   2  -4   6  194.18    6.60
   2   4   6  192.18    9.20
   2   4   6  196.88    8.80
   2   4   6  195.88    7.80
  -2   4  -6  202.18    8.50
  -2   4  -6  190.98    8.40
   2   4   6  196.68    6.00
  -2   4  -6  193.08   10.20
  -3  -4  -6   27.90    3.10
  -3  -4  -6   34.30    5.40
   3  -4   6   35.90    3.10
   3  -4   6   36.60    2.70
  -3  -4  -6   28.90    3.20
   3  -4   6   37.40    3.40
  -3   4  -6   35.40    5.50
   3   4   6   30.50    2.20
   3   4   6   36.70    3.30
   3   4   6   27.70    3.70
  -3   4  -6   32.00    4.00
   3  -5  -6    2.70    1.70
  -3  -5   6    0.50    0.90
  -3  -5   6    2.50    0.80
  -3  -5   6   -0.50    0.70
   3  -5  -6    2.40    1.00
   3  -5  -6    1.80    1.10
  -3  -5   6    1.30    0.90
   3   5  -6    0.80    0.90
  -3   5   6    0.60    0.90
  -3   5   6    2.70    1.70
   3   5  -6    0.50    0.90
   3   5  -6   -0.60    1.50
   3   5  -6   -3.70    1.60
   3   5  -6    1.50    1.40
  -3   5   6    0.90    0.60
  -2  -5   6    1.90    0.70
   2  -5  -6    1.30    1.10
  -2  -5   6    2.80    1.00
   2  -5  -6    1.40    0.90
  -2  -5   6    3.30    0.70
   2  -5  -6    0.20    1.00
   2   5  -6    1.00    1.50
  -2   5   6    3.10    0.80
   2   5  -6    0.10    1.00
   2   5  -6   -0.30    1.10
   2   5  -6    1.60    0.80
  -2   5   6    1.80    1.50
  -1  -5   6    0.10    0.50
   1  -5  -6   -0.80    0.30
  -1  -5   6    0.00    0.30
   1  -5  -6    0.00    0.40
  -1  -5   6    0.90    0.60
   1  -5  -6    0.40    0.60
   1  -5  -6    0.10    0.70
  -1  -5   6   -0.30    0.40
   1  -5  -6   -1.40    0.70
   1   5  -6    0.00    0.50
   1   5  -6   -0.20    0.70
  -1   5   6   -1.10    1.10
   1   5  -6   -0.80    1.00
  -1   5   6    0.20    0.30
  -1   5   6    0.40    0.50
   1   5  -6    0.60    1.00
   0  -5   6   10.80    1.40
   0  -5  -6    6.60    1.00
   0  -5  -6    5.80    1.50
   0  -5   6    7.30    1.30
   0  -5   6    8.20    1.20
   0  -5   6    8.50    1.20
   0  -5  -6    6.80    1.50
   0  -5   6    8.30    1.20
   0   5  -6    8.10    1.90
   0   5   6    9.50    2.40
   0   5   6    8.10    2.00
   0   5  -6   10.70    2.00
   0   5  -6    9.50    2.70
   0   5   6    7.70    1.50
   0   5  -6   11.50    2.70
   1  -5   6   19.70    2.10
  -1  -5  -6   20.40    3.30
  -1  -5  -6   15.80    2.50
   1  -5   6   15.50    1.70
   1  -5   6   18.30    1.60
  -1  -5  -6   13.60    2.20
   1  -5   6   19.00    1.80
   1  -5   6   19.10    1.70
  -1  -5  -6   16.40    1.90
   1   5   6   14.50    2.80
  -1   5  -6   14.50    2.80
  -1   5  -6   15.50    2.50
  -1   5  -6   17.60    2.00
   1   5   6   17.00    3.20
  -1   5  -6   17.70    2.70
   1   5   6   16.90    2.60
  -1   5  -6   20.40    3.70
   2  -5   6    9.60    1.30
  -2  -5  -6    6.50    1.70
   2  -5   6    8.10    1.70
   2  -5   6   11.10    1.70
  -2  -5  -6    9.90    2.10
   2  -5   6    9.70    1.60
  -2  -5  -6   10.50    2.00
   2  -5   6   10.30    1.80
  -2   5  -6   14.00    2.70
  -2   5  -6    8.20    2.30
  -2   5  -6    7.40    1.80
  -2   5  -6    7.60    2.80
   2   5   6    8.50    1.90
   2   5   6   10.00    3.10
   2   5   6    7.80    2.00
   3  -5   6    3.50    1.10
  -3  -5  -6    6.30    1.80
  -3  -5  -6    9.20    2.30
   3  -5   6    4.60    1.50
   3  -5   6    2.70    1.50
  -3  -5  -6    2.40    2.40
  -3  -5  -6    5.30    1.70
  -3   5  -6    8.90    2.90
  -3   5  -6    3.10    2.00
   3   5   6    5.30    3.40
   3   5   6    3.50    1.70
  -3   5  -6    4.30    1.80
  -3  -6   6   29.30    2.50
   3  -6  -6   32.40    3.20
   3  -6  -6   33.40    3.80
  -3  -6   6   35.90    3.00
   3  -6  -6   33.40    2.90
   3  -6  -6   36.10    3.10
  -3  -6   6   37.30    2.90
  -3  -6   6   32.50    2.30
  -3  -6   6   35.30    3.30
  -3   6   6   36.50    5.90
  -3   6   6   39.10    3.50
   3   6  -6   31.50    3.90
   3   6  -6   31.50    5.00
   3   6  -6   37.30    6.30
  -3   6   6   39.50    2.50
   3   6  -6   31.10    3.10
  -2  -6   6  125.59    7.50
  -2  -6   6  131.59    4.40
   2  -6  -6  142.29    6.30
   2  -6  -6  129.09    5.60
   2  -6  -6  137.49    5.50
   2  -6  -6  125.79    5.40
  -2  -6   6  137.59    5.60
   2  -6  -6  133.69    7.10
  -2   6   6  122.09   10.00
   2   6  -6  131.59    7.50
   2   6  -6  130.19    8.60
  -2   6   6  136.69    4.70
  -2   6   6  130.99    8.00
   2   6  -6  132.59    5.60
   2   6  -6  133.89    9.70
  -1  -6   6    6.40    1.20
   1  -6  -6    3.90    1.20
  -1  -6   6    5.10    1.40
   1  -6  -6    3.20    1.20
   1  -6  -6    6.60    1.10
   1  -6  -6    5.70    1.20
  -1  -6   6    3.60    1.00
   1  -6  -6    6.50    1.40
  -1  -6   6    5.50    0.90
   1   6  -6    2.90    0.90
  -1   6   6    4.60    1.30
   1   6  -6    5.50    1.90
  -1   6   6    4.60    0.80
  -1   6   6    6.90    2.10
   1   6  -6    6.20    1.80
   1   6  -6    3.10    1.80
  -1   6   6    1.90    1.70
   0  -6   6  387.26   10.20
   0  -6   6  387.76   10.90
   0  -6  -6  377.86   11.70
   0  -6   6  377.26   11.30
   0  -6   6  383.86    9.70
   0  -6  -6  390.86   12.10
   0  -6  -6  386.46   10.50
   0  -6   6  392.76   10.80
   0  -6  -6  394.56   12.40
   0   6   6  360.76   15.10
   0   6  -6  374.36   14.10
   0   6   6  384.56   12.00
   0   6  -6  370.06   13.00
   0   6   6  419.56   15.20
   0   6  -6  380.16   10.90
   0   6  -6  386.16   15.40
   0   6  -6  403.56   14.10
  -1  -6  -6  122.99    5.70
   1  -6   6  131.59    5.00
   1  -6   6  134.59    5.00
  -1  -6  -6  133.29    7.60
  -1  -6  -6  133.19    7.30
   1  -6   6  134.49    5.60
   1  -6   6  131.69    6.00
   1  -6   6  121.19    5.20
  -1  -6  -6  134.69    6.70
  -1  -6  -6  135.69    4.10
   1   6   6  134.19    8.30
  -1   6  -6  129.19    8.00
  -1   6  -6  131.19    6.00
  -1   6  -6  122.59    7.60
  -1   6  -6  123.39    6.90
  -1   6  -6  135.79    6.80
   1   6   6  131.19    8.50
   1   6   6  128.39    6.40
  -1   6  -6  128.09    7.00
   2  -6   6    3.80    1.00
   2  -6   6    4.60    1.10
  -2  -6  -6    7.60    2.00
  -2  -6  -6    6.20    2.50
  -2  -6  -6    6.30    1.80
   2  -6   6    8.40    1.50
  -2  -6  -6    4.90    1.50
   2  -6   6    6.50    1.60
   2  -6   6    8.00    1.70
   2   6   6    8.80    3.00
   2   6   6    5.20    2.30
  -2   6  -6    2.80    2.50
  -2   6  -6    4.40    2.20
   2   6   6    6.90    1.80
  -2  -7   6   84.09    4.70
   2  -7  -6   86.39    4.90
   2  -7  -6   94.29    6.00
   2  -7  -6   84.09    4.70
   2  -7  -6   86.79    4.50
   2  -7  -6   82.59    4.20
  -2  -7   6   86.59    4.60
  -2   7   6   82.59    5.10
   2   7  -6   86.19    4.50
   2   7  -6   96.69    8.50
  -2   7   6   82.29    7.70
   2   7  -6   87.89    6.40
  -2   7   6   83.99    3.70
   2   7  -6   93.39    7.70
   1  -7  -6  201.68    7.10
   1  -7  -6  204.18    7.80
  -1  -7   6  206.08    5.70
   1  -7  -6  208.48    7.90
  -1  -7   6  217.88    7.20
   1  -7  -6  207.78    6.90
  -1  -7   6  198.48    7.70
  -1  -7   6  209.38    7.60
   1  -7  -6  193.18    8.90
   1   7  -6  201.68    6.60
   1   7  -6  208.18   12.10
   1   7  -6  211.88   11.20
   1   7  -6  200.38    9.60
  -1   7   6  203.38   11.60
  -1   7   6  206.38   11.70
  -1   7   6  214.58    8.50
  -1   7   6  210.08    6.10
   0  -7   6  240.68    7.70
   0  -7  -6  230.48    9.90
   0  -7   6  237.08    6.80
   0  -7  -6  247.18    9.80
   0  -7  -6  238.78    7.40
   0  -7   6  247.48    8.30
   0  -7   6  233.28    8.50
   0  -7  -6  234.88    9.10
   0  -7   6  234.08    8.20
   0   7  -6  229.18   12.10
   0   7  -6  235.38   10.10
   0   7   6  253.07    9.50
   0   7   6  243.18   11.90
   0   7  -6  240.28    7.70
   0   7  -6  245.88   11.40
   0   7   6  249.28   12.80
   0   7  -6  241.28   11.00
   1  -7   6    5.40    1.10
   1  -7   6    5.80    1.50
  -1  -7  -6    7.80    2.00
  -1  -7  -6    9.00    2.00
  -1  -7  -6    8.10    1.10
   1  -7   6    4.70    0.90
   1  -7   6    5.30    1.20
  -1  -7  -6    9.00    1.70
   1  -7   6    6.10    1.30
   1   7   6    4.60    2.00
  -1   7  -6    6.30    2.20
   1   7   6    8.00    1.70
  -1   7  -6    6.90    1.90
  -1   7  -6    6.20    1.40
  -1   7  -6    4.00    1.90
  -1   7  -6    9.50    2.40
  -1   7  -6    5.20    2.60
   1   7   6    7.30    2.60
   2  -7   6  513.65   14.90
   2  -7   6  512.45   13.30
   2  -7   6  504.45   13.80
   2  -7   6  522.95   13.30
   2  -7   6  517.05   15.10
  -2  -7  -6  521.05   15.70
  -2  -7  -6  522.45   17.50
  -2  -7  -6  512.75   16.30
  -2   7  -6  527.95   15.30
   2   7   6  499.05   19.20
   2   7   6  526.35   20.10
   2   7   6  539.55   16.60
   2  -8  -6    9.80    1.80
  -2  -8   6   12.80    2.10
  -2  -8   6   14.20    2.20
   2  -8  -6   14.70    1.80
   2  -8  -6   11.50    2.10
   2  -8  -6   15.50    3.00
  -2   8   6   16.10    2.60
   2   8  -6   14.40    2.20
   2   8  -6    5.90    2.80
  -2   8   6    7.00    3.20
  -2   8   6   10.70    1.40
   2   8  -6   14.20    5.90
  -2   8   6   20.90    4.80
   2   8  -6   10.80    3.10
  -1  -8   6    6.70    1.50
   1  -8  -6    7.20    1.40
  -1  -8   6    5.50    1.30
   1  -8  -6    8.20    2.10
   1  -8  -6    7.70    1.50
  -1  -8   6    8.60    1.80
   1  -8  -6    7.70    1.60
  -1   8   6    8.60    2.90
  -1   8   6    7.90    1.90
  -1   8   6    2.40    2.70
   1   8  -6    7.90    2.90
   1   8  -6    5.70    2.70
   1   8  -6    5.70    2.00
   0  -8  -6   19.00    2.40
   0  -8  -6   10.40    1.90
   0  -8   6   13.80    2.20
   0  -8   6   18.10    1.90
   0  -8   6   15.40    2.00
   0  -8  -6   19.90    1.90
   0  -8   6   14.20    1.40
   0  -8   6   15.40    2.30
   0   8  -6   12.30    3.50
   0   8   6   11.80    3.30
   0   8  -6   19.30    3.70
   0   8  -6   19.80    4.50
   0   8   6   13.70    3.40
   0   8  -6   23.70    3.50
   0   8   6   12.70    2.60
   1  -8   6    6.30    1.60
  -1  -8  -6    8.90    1.80
   1  -8   6    7.10    1.50
   1  -8   6    8.20    1.70
  -1  -8  -6    7.50    1.90
   1  -8   6    6.90    1.30
   1  -8   6    6.80    1.20
  -1   8  -6    6.00    2.10
   1   8   6   10.70    3.10
   1   8   6    8.50    2.00
   1   8   6    9.30    3.10
  -1   8  -6    4.00    2.50
  -1   8  -6   11.80    3.20
   1  -9  -6    7.00    1.90
   1  -9  -6    6.60    1.50
   1  -9  -6    7.50    1.40
  -1  -9   6    7.10    1.50
   1  -9  -6    7.50    1.70
  -1  -9   6    8.50    1.80
   1  -9  -6    5.60    1.30
  -1  -9   6    6.30    1.40
  -1   9   6    7.90    3.20
   1   9  -6    6.40    2.30
   1   9  -6    0.60    3.10
  -1   9   6    4.70    1.80
   1   9  -6   10.30    3.30
   0  -9   6    3.00    1.30
   0  -9   6    1.10    0.80
   0  -9  -6    1.30    0.80
   0  -9  -6    1.20    1.10
   0  -9   6    0.70    0.70
   0  -9   6   -1.20    0.90
   0  -9  -6    0.80    0.80
   0  -9  -6    1.20    1.20
   0  -9   6   -0.60    0.60
   0   9   6   -1.70    2.90
   0   9  -6    0.20    1.50
   0   9  -6    4.60    2.40
   0   9   6    3.50    1.30
   0   9   6    0.60    2.00
   0   9  -6   -2.90    2.00
  -4   0   7    0.20    0.70
  -4   0   7   -0.20    0.90
   4   0  -7   -2.40    1.60
   4   0  -7   -0.60    2.00
  -4   0   7    1.20    0.90
  -4   0   7    3.90    2.50
   4   0  -7    0.10    1.30
   4   0  -7   -3.50    2.30
   3   0  -7   -0.60    0.90
  -3   0   7   -0.50    0.70
  -3   0   7    0.20    0.40
   3   0  -7    0.90    1.00
   3   0  -7   -0.80    1.40
  -3   0   7   -0.50    1.20
   3   0  -7    0.90    2.10
   2   0  -7    0.70    0.80
  -2   0   7    0.60    0.50
   2   0  -7    1.40    1.40
  -2   0   7    0.70    0.40
   2   0  -7    2.30    2.30
   2   0  -7    1.10    0.90
   1   0  -7   -0.40    0.50
   1   0  -7    0.70    2.20
  -1   0   7   -0.50    0.20
   1   0  -7   -1.40    1.10
  -1   0   7    0.00    0.30
  -1   0   7   -0.50    0.40
   1   0  -7    0.40    1.00
   0   0  -7    2.40    0.90
   0   0  -7    3.80    1.90
   0   0   7    2.30    0.80
   0   0   7    1.90    0.60
   0   0  -7    3.40    2.30
  -1   0  -7    1.30    1.20
  -1   0  -7    0.70    1.10
   1   0   7    0.50    0.50
   1   0   7   -0.40    0.40
  -1   0  -7    1.60    0.60
  -1   0  -7   -0.40    1.60
   1   0   7   -0.40    0.30
   1   0   7   -0.10    0.30
   2   0   7   -0.10    0.30
   2   0   7   -0.10    0.50
   2   0   7    0.50    0.70
  -2   0  -7   -1.50    0.60
  -2   0  -7    0.40    0.70
   2   0   7   -0.50    0.70
  -2   0  -7   -0.20    0.90
  -2   0  -7   -2.10    1.20
  -3   0  -7   -1.60    1.00
  -3   0  -7    0.30    0.90
  -3   0  -7   -2.10    1.90
   3   0   7   -0.10    0.50
  -3   0  -7   -0.20    1.00
   3   0   7    0.60    1.20
   3   0   7    1.00    0.90
  -4  -1   7   18.90    2.10
   4  -1  -7   18.40    3.90
  -4  -1   7   23.50    3.10
   4  -1  -7   28.90    3.50
  -4  -1   7   25.90    2.90
   4  -1  -7   28.30    3.30
   4  -1  -7   25.70    5.00
  -4   1   7   27.00    2.70
  -4   1   7   26.00    4.40
   4   1  -7   30.80    5.50
  -4   1   7   25.40    2.90
   4   1  -7   25.50    4.50
  -3  -1   7   21.90    4.30
   3  -1  -7   15.40    3.90
   3  -1  -7   18.70    2.70
  -3  -1   7   18.20    2.80
   3  -1  -7   22.40    2.30
  -3  -1   7   20.30    2.50
   3  -1  -7   21.20    3.50
   3  -1  -7   19.20    3.20
  -3  -1   7   19.60    2.20
  -3   1   7   18.70    2.20
   3   1  -7   21.10    3.10
   3   1  -7   22.10    2.60
  -3   1   7   18.60    3.20
   3   1  -7   20.60    3.70
  -3   1   7   17.80    1.70
  -2  -1   7   96.09    4.20
  -2  -1   7   92.19    3.80
   2  -1  -7   87.89    7.00
   2  -1  -7   95.89    5.00
   2  -1  -7   98.39    7.20
   2  -1  -7   98.79    5.40
   2   1  -7   96.59    5.60
  -2   1   7   95.39    4.40
  -2   1   7   89.29    5.10
   2   1  -7   96.69    7.10
  -2   1   7   93.29    3.80
   2   1  -7   91.49    5.60
   2   1  -7   94.39    4.70
   1  -1  -7   75.69    3.80
   1  -1  -7   75.19    5.20
   1  -1  -7   70.79    5.50
  -1  -1   7   78.89    3.30
  -1  -1   7   78.09    3.40
   1  -1  -7   71.29    5.90
   1   1  -7   70.69    3.70
  -1   1   7   71.49    3.90
  -1   1   7   75.29    3.30
  -1   1   7   79.39    3.40
   1   1  -7   66.69    3.80
  -1   1   7   79.09    3.80
   1   1  -7   76.39    4.90
   1   1  -7   73.89    8.40
   0  -1   7  639.24   15.30
   0  -1  -7  659.13   19.30
   0  -1  -7  644.94   19.00
   0  -1  -7  627.14   15.50
   0  -1   7  615.64   13.70
   0  -1  -7  633.64   17.60
   0   1  -7  661.13   19.70
   0   1  -7  612.54   14.90
   0   1  -7  645.94   17.70
   0   1   7  642.84   14.70
   0   1   7  645.34   15.10
   0   1  -7  635.34   18.50
   0   1   7  641.04   15.20
  -1  -1  -7  131.39    5.20
  -1  -1  -7  134.69    7.00
   1  -1   7  133.69    5.10
  -1  -1  -7  133.09    8.00
   1  -1   7  132.59    5.40
   1  -1   7  134.99    4.60
  -1   1  -7  129.29    5.80
   1   1   7  136.89    5.60
  -1   1  -7  129.39    7.70
   1   1   7  134.59    5.10
  -1   1  -7  137.09    8.10
  -1   1  -7  135.19    5.20
   1   1   7  134.09    5.10
  -1   1  -7  132.69    6.30
   1   1   7  132.49    4.90
   2  -1   7   16.50    1.70
  -2  -1  -7   21.60    2.40
  -2  -1  -7   23.00    2.70
   2  -1   7   23.90    2.20
   2  -1   7   20.60    2.10
  -2  -1  -7   19.00    2.90
  -2  -1  -7   16.90    3.70
   2  -1   7   20.10    2.00
   2   1   7   19.30    2.10
   2   1   7   20.10    1.90
  -2   1  -7   16.90    2.80
  -2   1  -7   16.50    3.80
   2   1   7   18.20    1.80
   2   1   7   21.70    2.40
  -2   1  -7   15.90    2.50
   2   1   7   24.70    2.10
   3  -1   7   61.09    3.50
  -3  -1  -7   71.09    4.60
  -3  -1  -7   62.19    6.50
  -3  -1  -7   64.69    4.60
   3  -1   7   64.89    4.00
  -3  -1  -7   60.29    5.20
   3  -1   7   63.09    4.30
   3   1   7   64.09    4.80
  -3   1  -7   63.79    4.10
   3   1   7   64.79    4.40
  -3   1  -7   65.79    4.40
   3   1   7   65.19    3.70
  -3   1  -7   69.69    6.90
   3   1   7   61.09    3.50
  -3   1  -7   58.99    5.00
  -4  -2   7   23.00    2.70
  -4  -2   7   30.50    2.40
   4  -2  -7   28.10    4.50
   4  -2  -7   32.50    5.80
  -4  -2   7   27.90    3.40
   4  -2  -7   26.70    3.10
   4  -2  -7   30.30    5.80
   4   2  -7   23.70    4.00
  -4   2   7   26.50    2.90
  -4   2   7   33.30    2.60
   4   2  -7   19.80    4.90
   4   2  -7   29.90    3.50
  -4   2   7   29.90    4.80
   3  -2  -7   22.00    2.20
   3  -2  -7   26.10    3.00
   3  -2  -7   18.50    3.30
   3  -2  -7   22.90    3.50
  -3  -2   7   19.40    1.80
   3  -2  -7   26.20    5.30
  -3  -2   7   21.50    2.30
  -3  -2   7   20.50    2.10
  -3   2   7   19.70    3.40
  -3   2   7   24.20    2.40
  -3   2   7   19.80    1.80
   3   2  -7   22.40    4.40
   3   2  -7   24.90    2.70
   3   2  -7   24.70    3.60
  -2  -2   7   18.40    1.60
   2  -2  -7   14.10    3.20
   2  -2  -7   21.70    2.50
   2  -2  -7   16.00    3.20
   2  -2  -7   22.40    3.10
  -2  -2   7   17.50    1.70
   2  -2  -7   19.70    1.50
  -2   2   7   19.70    1.60
  -2   2   7   19.40    3.10
   2   2  -7   17.90    2.00
   2   2  -7   14.40    2.40
   2   2  -7   23.60    3.60
   2   2  -7   13.20    3.00
  -2   2   7   20.00    2.10
   1  -2  -7   47.70    7.30
   1  -2  -7   59.49    3.70
  -1  -2   7   52.89    2.80
  -1  -2   7   51.09    2.60
   1  -2  -7   52.79    5.10
   1  -2  -7   53.99    4.30
  -1  -2   7   56.99    2.80
  -1  -2   7   57.29    3.20
   1   2  -7   57.29    3.10
  -1   2   7   51.79    3.80
   1   2  -7   58.29    4.40
  -1   2   7   57.69    2.80
  -1   2   7   57.89    2.80
   1   2  -7   62.79    5.20
   1   2  -7   56.89    3.70
  -1   2   7   54.29    3.30
   0  -2  -7  150.98    6.20
   0  -2   7  149.79    5.30
   0  -2  -7  145.99    7.30
   0  -2  -7  168.08    8.20
   0  -2   7  153.68    5.90
   0  -2  -7  156.18    6.80
   0   2   7  155.08    6.90
   0   2   7  166.68    6.80
   0   2  -7  152.38    8.30
   0   2   7  165.08    5.20
   0   2  -7  170.18    7.90
   0   2  -7  158.18    5.40
   0   2  -7  149.49    7.40
  -1  -2  -7   76.19    5.90
   1  -2   7   69.99    2.90
  -1  -2  -7   71.79    4.10
   1  -2   7   66.39    3.40
   1  -2   7   63.49    3.70
  -1  -2  -7   64.19    4.60
  -1  -2  -7   68.49    3.70
  -1   2  -7   67.39    3.30
   1   2   7   68.19    3.30
   1   2   7   67.89    3.30
   1   2   7   71.89    3.80
  -1   2  -7   68.19    4.40
  -1   2  -7   76.99    5.70
  -1   2  -7   62.29    5.60
  -1   2  -7   64.79    4.30
   1   2   7   77.19    4.50
   2  -2   7    9.40    1.60
   2  -2   7    6.30    1.30
  -2  -2  -7    7.10    3.00
  -2  -2  -7    8.50    1.90
  -2  -2  -7   10.60    2.10
  -2  -2  -7    7.10    1.60
   2  -2   7    8.20    1.40
  -2   2  -7    7.00    1.40
   2   2   7    7.20    1.30
   2   2   7    9.10    1.40
   2   2   7    8.50    1.90
  -2   2  -7    6.00    1.90
  -2   2  -7   11.50    2.40
  -2   2  -7    4.10    2.20
   2   2   7    7.10    1.40
  -3  -2  -7   26.70    3.10
   3  -2   7   28.70    2.40
  -3  -2  -7   24.60    2.90
  -3  -2  -7   27.20    4.80
   3  -2   7   30.10    2.80
  -3  -2  -7   25.20    3.60
   3  -2   7   33.80    3.10
   3   2   7   20.70    2.90
  -3   2  -7   27.10    3.90
  -3   2  -7   24.60    5.20
   3   2   7   25.50    2.70
   3   2   7   25.40    2.10
  -3   2  -7   25.70    2.70
  -3   2  -7   29.00    3.00
   3  -3  -7   -0.40    1.10
   3  -3  -7    2.40    2.20
   3  -3  -7    3.70    1.90
  -3  -3   7   -0.20    0.60
  -3  -3   7    1.80    0.70
   3  -3  -7    0.40    0.70
   3  -3  -7    2.60    2.60
   3   3  -7    0.70    1.70
   3   3  -7    2.00    1.30
  -3   3   7    2.00    1.40
  -3   3   7    1.10    0.50
  -3   3   7    0.20    0.70
   3   3  -7    1.60    2.00
   2  -3  -7  232.88    8.60
   2  -3  -7  248.98   10.90
  -2  -3   7  241.88    7.70
   2  -3  -7  237.68    6.70
  -2  -3   7  232.58    7.90
  -2  -3   7  242.98    7.00
   2  -3  -7  233.68    9.90
   2  -3  -7  248.68    9.00
  -2  -3   7  233.98    7.90
   2   3  -7  240.58   10.10
   2   3  -7  238.38   10.00
  -2   3   7  236.68   11.90
   2   3  -7  236.08    8.10
  -2   3   7  237.18    8.20
   2   3  -7  234.98   11.80
  -2   3   7  239.38    7.00
  -1  -3   7    1.20    1.00
   1  -3  -7   -0.20    1.20
  -1  -3   7   -0.30    0.40
  -1  -3   7    1.40    0.50
  -1  -3   7    0.90    0.50
   1  -3  -7    0.80    0.70
   1  -3  -7    3.00    1.20
  -1   3   7   -0.10    0.80
  -1   3   7    0.90    0.40
   1   3  -7    0.20    0.90
  -1   3   7    0.70    0.60
   1   3  -7    1.10    0.80
   1   3  -7    1.00    0.90
  -1   3   7    0.40    0.40
   0  -3  -7  376.36   11.70
   0  -3  -7  385.16   11.50
   0  -3   7  368.96    9.90
   0  -3   7  392.76   10.60
   0  -3   7  380.66   11.00
   0  -3  -7  389.66   13.50
   0  -3   7  384.26    9.00
   0  -3  -7  393.66   12.50
   0   3  -7  403.36   14.70
   0   3   7  380.76    9.30
   0   3   7  383.66   11.50
   0   3   7  382.06   12.80
   0   3  -7  385.36   13.30
   0   3  -7  386.76   12.80
   0   3   7  394.06   11.20
  -1  -3  -7   73.19    4.80
  -1  -3  -7   69.29    4.20
   1  -3   7   70.09    4.00
   1  -3   7   70.79    3.80
  -1  -3  -7   67.59    3.80
  -1  -3  -7   74.99    5.70
   1  -3   7   62.79    3.40
   1  -3   7   68.79    3.10
   1  -3   7   67.09    2.70
  -1   3  -7   66.49    5.70
  -1   3  -7   70.19    5.30
  -1   3  -7   69.69    4.60
   1   3   7   72.39    4.00
   1   3   7   59.19    2.90
  -1   3  -7   80.99    4.80
   1   3   7   69.89    4.80
   1   3   7   70.49    3.30
  -2  -3  -7   73.49    6.50
   2  -3   7   90.49    4.40
   2  -3   7   99.79    4.50
  -2  -3  -7   88.69    5.50
  -2  -3  -7   95.39    7.40
   2  -3   7   97.29    5.10
  -2   3  -7  107.49    8.10
   2   3   7   97.29    4.10
   2   3   7   98.59    5.10
  -2   3  -7   99.39    6.10
  -2   3  -7   93.49    4.20
  -2   3  -7   94.89    5.90
   2   3   7   91.59    5.80
  -3  -3  -7   72.69    5.10
   3  -3   7   72.09    4.00
  -3  -3  -7   87.69    5.90
   3  -3   7   68.39    4.60
  -3  -3  -7   77.69    7.50
   3  -3   7   77.19    4.70
  -3  -3  -7   71.79    5.00
   3   3   7   69.79    5.50
   3   3   7   66.59    4.80
  -3   3  -7   71.59    5.50
  -3   3  -7   74.09    7.20
   3   3   7   66.69    4.40
   3  -4  -7    0.80    1.50
  -3  -4   7   -0.10    0.90
   3  -4  -7    1.40    1.30
   3  -4  -7    1.00    0.70
  -3  -4   7   -0.50    0.70
  -3  -4   7    0.60    0.80
  -3  -4   7   -0.10    0.50
   3  -4  -7    0.20    1.20
  -3   4   7    0.90    0.50
   3   4  -7    1.00    1.20
  -3   4   7   -0.30    0.70
   3   4  -7    0.10    1.90
   3   4  -7    1.10    1.00
  -3   4   7   -1.60    1.90
   2  -4  -7   94.19    5.20
   2  -4  -7   94.69    3.80
  -2  -4   7   96.49    3.80
  -2  -4   7   95.89    3.80
  -2  -4   7   97.29    4.80
   2  -4  -7   87.99    6.40
  -2  -4   7   98.19    3.90
   2  -4  -7   99.59    6.30
  -2  -4   7   94.19    4.50
  -2   4   7   92.29    3.90
   2   4  -7   93.19    4.70
   2   4  -7  103.79    6.30
   2   4  -7   90.19    6.10
   2   4  -7   93.49    7.30
  -2   4   7  106.09    7.10
  -2   4   7   96.89    5.00
   1  -4  -7    0.80    0.80
   1  -4  -7    3.20    1.40
  -1  -4   7    0.60    0.50
  -1  -4   7    0.70    0.50
  -1  -4   7    1.50    0.80
  -1  -4   7    0.80    0.60
  -1   4   7    1.80    0.90
   1   4  -7   -0.50    0.80
  -1   4   7    1.80    1.20
  -1   4   7    1.20    0.50
   1   4  -7   -0.30    0.60
   1   4  -7    1.10    0.90
   0  -4   7  254.17    7.60
   0  -4   7  261.57    7.30
   0  -4  -7  268.27    9.80
   0  -4  -7  265.17    6.80
   0  -4  -7  252.57    9.00
   0  -4   7  249.88    8.60
   0  -4   7  253.27    8.00
   0  -4  -7  257.17    9.30
   0  -4   7  258.87    7.20
   0  -4  -7  240.08   10.30
   0   4  -7  231.78   13.10
   0   4  -7  256.17   10.20
   0   4   7  264.27    9.90
   0   4   7  267.27   11.00
   0   4   7  268.07    9.00
   0   4  -7  273.07   11.80
  -1  -4  -7   40.70    4.30
   1  -4   7   34.30    2.90
  -1  -4  -7   37.10    2.90
  -1  -4  -7   34.30    3.40
   1  -4   7   32.80    2.00
   1  -4   7   33.00    2.40
   1  -4   7   39.00    2.80
  -1  -4  -7   40.00    3.20
  -1  -4  -7   32.50    3.00
   1  -4   7   35.20    2.30
   1   4   7   36.30    3.80
   1   4   7   28.20    1.70
   1   4   7   30.70    3.30
  -1   4  -7   38.60    3.50
  -1   4  -7   31.20    2.90
  -1   4  -7   31.60    3.50
   1   4   7   34.40    2.90
  -1   4  -7   26.90    4.70
   1   4   7   33.00    2.20
  -2  -4  -7   22.90    3.10
  -2  -4  -7   22.80    4.30
  -2  -4  -7   26.20    2.90
   2  -4   7   21.50    1.80
   2  -4   7   24.00    2.30
   2  -4   7   21.40    2.30
   2  -4   7   19.80    2.40
  -2  -4  -7   25.60    2.90
  -2   4  -7   23.30    3.60
  -2   4  -7   23.90    3.50
   2   4   7   24.50    1.90
  -2   4  -7   23.30    3.40
   2   4   7   28.00    2.80
   2   4   7   23.30    3.20
  -2   4  -7   33.30    6.20
   3  -4   7   11.60    2.30
  -3  -4  -7    7.50    2.10
  -3  -4  -7    4.40    2.00
  -3  -4  -7    6.60    2.30
  -3  -4  -7   10.30    3.20
   3  -4   7    8.50    1.60
   3   4   7   11.60    2.80
   3   4   7   11.00    2.00
  -3   4  -7   14.60    3.40
  -3   4  -7    6.50    2.70
   3  -5  -7   54.39    3.50
   3  -5  -7   58.99    5.30
   3  -5  -7   56.69    4.40
  -3  -5   7   51.79    3.30
  -3  -5   7   57.59    4.10
  -3  -5   7   52.09    3.60
  -3  -5   7   52.29    3.00
  -3  -5   7   51.09    3.70
  -3   5   7   60.59    4.30
  -3   5   7   62.79    6.30
   3   5  -7   51.49    4.00
  -3   5   7   51.19    3.10
   3   5  -7   56.29    6.30
   3   5  -7   52.09    5.70
   3   5  -7   49.00    4.90
   2  -5  -7   16.40    2.40
   2  -5  -7   22.70    3.50
  -2  -5   7   21.50    1.60
  -2  -5   7   17.10    2.00
  -2  -5   7   20.70    2.20
  -2  -5   7   21.60    1.70
   2  -5  -7   20.40    1.70
  -2   5   7   19.10    1.70
   2   5  -7   26.10    4.90
  -2   5   7   22.60    4.00
  -2   5   7   19.30    2.30
   2   5  -7   17.50    3.00
   2   5  -7   18.10    3.00
   2   5  -7   19.50    2.10
   1  -5  -7  133.69    5.00
   1  -5  -7  140.69    6.50
   1  -5  -7  130.69    6.20
  -1  -5   7  127.59    4.60
   1  -5  -7  136.99    7.00
  -1  -5   7  140.49    5.60
  -1  -5   7  130.69    5.90
   1   5  -7  140.29    8.90
  -1   5   7  113.09    5.70
   1   5  -7  119.09    6.90
  -1   5   7  129.09    4.70
   1   5  -7  134.99    5.00
  -1   5   7  128.19    8.10
   1   5  -7  134.09    7.40
   0  -5   7  488.75   13.60
   0  -5  -7  477.15   13.90
   0  -5  -7  490.25   11.40
   0  -5   7  447.86   13.40
   0  -5   7  482.05   11.70
   0  -5   7  460.35   12.60
   0  -5  -7  480.85   14.30
   0  -5   7  479.35   11.90
   0  -5  -7  482.05   14.30
   0   5   7  467.75   17.00
   0   5  -7  489.55   16.90
   0   5  -7  481.55   15.30
   0   5  -7  466.75   16.90
   0   5   7  483.75   13.90
   0   5   7  481.95   15.90
   0   5  -7  489.45   14.40
   1  -5   7   61.19    6.00
  -1  -5  -7   63.89    4.10
   1  -5   7   66.89    3.80
   1  -5   7   60.79    3.00
   1  -5   7   62.39    3.50
   1  -5   7   62.99    3.40
  -1  -5  -7   62.09    4.10
  -1  -5  -7   59.39    4.50
  -1  -5  -7   48.20    5.00
  -1  -5  -7   64.49    4.40
  -1   5  -7   55.89    4.60
   1   5   7   63.19    5.40
   1   5   7   63.29    4.60
  -1   5  -7   56.79    4.50
  -1   5  -7   74.39    6.10
   1   5   7   64.29    3.20
   1   5   7   71.99    5.60
  -1   5  -7   60.59    4.20
  -2  -5  -7   13.30    2.40
  -2  -5  -7   15.20    2.70
   2  -5   7   19.20    1.90
  -2  -5  -7   19.10    3.00
   2  -5   7   16.10    2.10
   2  -5   7   14.80    1.60
   2  -5   7   18.60    2.40
   2  -5   7   21.00    2.30
  -2  -5  -7   16.70    3.60
  -2   5  -7   13.50    3.20
  -2   5  -7    9.80    2.70
   2   5   7   12.40    3.40
  -2   5  -7   12.10    4.40
   2   5   7   14.50    2.90
   2   5   7   19.20    2.90
   2   5   7   18.40    1.70
  -2   5  -7   16.40    2.70
   3  -6  -7   12.00    2.00
   3  -6  -7    8.90    2.00
   3  -6  -7   10.60    2.70
  -3  -6   7   11.70    1.90
  -3  -6   7   10.50    1.90
   3  -6  -7   13.50    2.20
  -3  -6   7   13.10    1.70
   3   6  -7    9.20    3.80
   3   6  -7    9.00    3.00
  -3   6   7    9.70    3.40
   3   6  -7   13.10    2.30
  -3   6   7   10.60    1.60
   2  -6  -7  167.38    7.30
   2  -6  -7  164.18    6.00
   2  -6  -7  167.28    8.40
  -2  -6   7  162.08    5.40
   2  -6  -7  145.99    6.20
   2  -6  -7  162.98    6.70
  -2  -6   7  172.28    6.70
  -2  -6   7  161.68    7.00
  -2   6   7  161.98    5.60
   2   6  -7  151.08   10.40
   2   6  -7  164.98    9.30
   2   6  -7  157.98    6.50
   2   6  -7  152.68    8.50
  -2   6   7  172.98   10.50
  -2   6   7  162.98    7.30
   1  -6  -7   68.29    5.00
   1  -6  -7   65.69    3.10
   1  -6  -7   61.69    4.30
  -1  -6   7   72.59    4.00
  -1  -6   7   69.19    3.10
  -1  -6   7   59.99    6.20
   1  -6  -7   66.19    3.50
  -1   6   7   71.39    4.50
   1   6  -7   68.39    5.30
  -1   6   7   68.29    6.10
  -1   6   7   63.49    5.70
   1   6  -7   64.09    3.30
  -1   6   7   71.29    3.30
   1   6  -7   67.29    5.40
   0  -6  -7  687.33   21.70
   0  -6   7  658.13   16.00
   0  -6   7  681.93   16.80
   0  -6  -7  659.43   18.00
   0  -6   7  663.33   15.70
   0  -6  -7  682.43   18.50
   0  -6   7  663.73   15.40
   0  -6  -7  691.33   15.20
   0  -6   7  630.34   19.30
   0   6  -7  659.43   22.10
   0   6   7  649.64   22.20
   0   6  -7  648.24   19.50
   0   6   7  671.03   18.20
   0   6   7  702.13   21.30
   0   6  -7  672.33   17.00
   0   6  -7  656.43   19.40
   0   6  -7  635.84   21.10
   1  -6   7   11.60    1.60
  -1  -6  -7   17.70    3.50
  -1  -6  -7   13.70    2.20
   1  -6   7   12.20    1.90
  -1  -6  -7   15.70    2.60
  -1  -6  -7   10.30    2.40
   1  -6   7   14.70    1.50
   1  -6   7   16.60    2.00
   1  -6   7   11.50    2.00
  -1   6  -7   16.90    3.00
  -1   6  -7   12.80    2.70
   1   6   7   15.60    3.40
   1   6   7   12.40    1.60
   1   6   7    9.90    2.40
  -1   6  -7   13.70    3.40
  -1   6  -7   11.80    2.20
  -2  -6  -7   61.09    6.00
   2  -6   7   58.39    3.80
   2  -6   7   61.89    4.00
   2  -6   7   58.29    4.20
  -2  -6  -7   60.29    4.80
   2  -6   7   59.89    3.50
  -2  -6  -7   56.19    4.30
   2   6   7   51.89    6.80
  -2   6  -7   49.99    4.20
  -2   6  -7   51.99    6.40
   2   6   7   55.19    5.60
   2   6   7   62.69    4.80
  -2   6  -7   44.60    5.30
   2  -7  -7    5.20    1.60
  -2  -7   7    4.90    1.60
  -2  -7   7    4.20    1.20
   2  -7  -7    4.20    1.10
   2  -7  -7    5.10    1.90
   2  -7  -7    3.70    1.20
   2  -7  -7    5.20    1.60
   2   7  -7    0.60    1.90
  -2   7   7    4.20    1.30
   2   7  -7    5.60    1.40
   2   7  -7    3.70    1.90
   2   7  -7    4.30    2.50
  -2   7   7    1.40    2.10
  -2   7   7    3.70    1.60
   1  -7  -7   28.20    2.20
  -1  -7   7   27.30    2.60
   1  -7  -7   23.00    2.60
   1  -7  -7   21.30    3.00
  -1  -7   7   24.40    1.90
   1  -7  -7   23.10    3.60
  -1  -7   7   20.00    2.40
  -1  -7   7   23.00    2.20
  -1   7   7   26.50    5.00
   1   7  -7   32.60    5.10
  -1   7   7   30.00    3.10
  -1   7   7   20.70    4.10
  -1   7   7   25.60    2.00
   1   7  -7   28.60    4.40
   0  -7   7   10.30    1.60
   0  -7  -7   12.90    2.40
   0  -7  -7    7.90    2.10
   0  -7   7   11.90    1.90
   0  -7  -7   12.30    1.60
   0  -7   7   12.40    1.50
   0  -7   7    8.10    1.80
   0  -7   7   10.10    1.70
   0  -7  -7   15.50    2.60
   0   7  -7   12.90    3.90
   0   7  -7   13.60    2.10
   0   7  -7    7.50    2.60
   0   7   7   10.40    3.00
   0   7   7    6.20    1.80
   0   7  -7    7.90    2.20
   0   7  -7   11.30    3.20
   0   7   7    9.60    3.10
   1  -7   7    9.00    1.40
   1  -7   7    9.90    1.90
  -1  -7  -7   10.20    2.20
   1  -7   7   13.80    2.10
  -1  -7  -7   11.20    2.20
   1  -7   7   11.30    1.80
  -1  -7  -7   11.50    2.20
   1  -7   7    8.70    1.40
  -1   7  -7    9.40    2.30
  -1   7  -7    9.60    3.00
   1   7   7   13.80    3.60
   1   7   7   10.30    1.50
  -1   7  -7    9.60    2.00
  -1   7  -7    6.40    2.50
   1   7   7   11.70    3.30
   1   7   7   13.50    2.50
   1  -8  -7    1.30    0.90
   1  -8  -7   -0.10    0.70
  -1  -8   7    0.90    0.90
  -1  -8   7    1.70    1.00
   1  -8  -7    0.10    1.20
  -1  -8   7    1.70    0.80
   1  -8  -7    1.70    1.30
   1   8  -7    0.00    2.10
  -1   8   7   -1.30    2.00
   1   8  -7    3.90    2.30
   1   8  -7    3.40    1.60
  -1   8   7    3.60    1.20
  -1   8   7    1.90    2.20
   0  -8   7    2.60    1.30
   0  -8  -7    0.60    0.70
   0  -8   7   -0.40    0.90
   0  -8   7    1.20    0.90
   0  -8   7   -1.80    0.70
   0  -8  -7   -1.50    1.10
   0  -8   7    0.10    0.70
   0  -8  -7   -0.60    1.10
   0   8  -7   -2.30    2.10
   0   8  -7    3.30    2.20
   0   8   7   -0.20    1.70
   0   8  -7    0.30    2.00
   0   8  -7   -1.00    1.30
   0   8   7    0.90    1.00
   0   8   7   -2.50    2.10
   1  -8   7   30.50    2.60
   1  -8   7   29.40    3.20
   1  -8   7   26.70    2.30
  -1  -8  -7   30.60    5.40
  -1  -8  -7   30.80    3.40
   1  -8   7   26.50    2.90
   1  -8   7   28.60    2.90
   1   8   7   26.00    5.00
   1   8   7   28.50    3.50
  -1   8  -7   22.50    3.90
   1   8   7   26.40    5.50
  -1   8  -7   30.30    5.40
  -1   8  -7   27.50    5.20
  -3   0   8   32.80    2.40
   3   0  -8   27.60    5.20
   3   0  -8   26.90    3.10
   3   0  -8   33.20    3.70
  -3   0   8   23.40    2.50
   3   0  -8   33.60    4.00
  -3   0   8   29.60    3.50
  -2   0   8  407.66   11.50
  -2   0   8  420.46   11.30
  -2   0   8  407.66   10.80
   2   0  -8  432.46   14.50
   2   0  -8  423.16   12.70
   2   0  -8  416.66   16.30
   2   0  -8  426.36   12.70
   1   0  -8  218.48    7.90
  -1   0   8  217.38    7.20
   1   0  -8  228.58   10.20
  -1   0   8  219.28    7.20
  -1   0   8  219.18    6.90
   1   0  -8  218.38    7.00
   1   0  -8  207.98   10.10
   1   0  -8  230.28   10.70
   0   0  -8   57.39    5.20
   0   0   8   56.29    3.00
   0   0  -8   50.09    5.40
   0   0  -8   59.49    3.60
   0   0  -8   55.39    4.90
   0   0   8   56.89    3.30
   0   0   8   65.59    3.30
  -1   0  -8 2158.98   46.80
   1   0   8 2059.89   41.60
   1   0   8 2080.79   42.10
   1   0   8 2137.79   41.10
  -1   0  -8 2076.49   49.50
  -1   0  -8 2057.09   42.50
   1   0   8 2129.59   42.70
  -1   0  -8 2171.58   43.10
   2   0   8    9.00    1.40
   2   0   8   12.60    2.10
  -2   0  -8   16.80    3.90
  -2   0  -8   13.50    2.30
  -2   0  -8   12.20    2.30
   2   0   8   14.80    1.80
   2   0   8   10.90    1.90
  -2   0  -8   14.30    2.60
   3   0   8 1073.69   26.90
   3   0   8 1125.99   25.40
  -3   0  -8 1074.89   26.30
  -3   0  -8 1143.99   29.60
  -3   0  -8 1098.69   27.00
   3   0   8 1104.39   24.60
  -3   0  -8 1059.49   34.20
   3  -1  -8   17.50    2.70
  -3  -1   8   22.00    2.30
   3  -1  -8   21.50    2.20
  -3  -1   8   21.50    1.90
  -3  -1   8   16.00    2.70
   3  -1  -8   24.80    4.10
   3  -1  -8   20.80    3.40
   3  -1  -8   10.70    3.80
  -3   1   8   19.80    1.90
  -3   1   8   23.30    2.40
  -3   1   8   24.50    3.70
   3   1  -8   25.50    2.90
   3   1  -8   18.20    4.30
   3   1  -8   13.30    2.70
   3   1  -8   25.20    4.00
   2  -1  -8   13.50    2.30
  -2  -1   8   14.90    1.70
  -2  -1   8   12.10    1.40
   2  -1  -8   20.40    4.20
  -2  -1   8   14.40    1.70
   2  -1  -8   17.90    2.80
   2  -1  -8   12.70    2.80
  -2   1   8   16.90    1.60
   2   1  -8   14.70    2.20
   2   1  -8   11.90    2.50
  -2   1   8   14.00    1.60
   2   1  -8   12.80    2.50
   2   1  -8   13.70    3.50
  -2   1   8   13.90    2.40
  -1  -1   8  160.58    6.00
   1  -1  -8  156.58    5.70
  -1  -1   8  170.78    5.70
   1  -1  -8  163.28    8.50
   1  -1  -8  150.58    8.70
   1  -1  -8  150.88    6.50
  -1  -1   8  154.38    5.50
   1  -1  -8  152.48    8.70
   1   1  -8  146.29    5.70
   1   1  -8  160.88    7.70
  -1   1   8  166.68    6.20
   1   1  -8  165.08    8.20
   1   1  -8  152.18    8.70
  -1   1   8  154.48    5.50
  -1   1   8  154.88    6.10
   1   1  -8  170.38    9.10
   0  -1  -8  113.09    7.40
   0  -1  -8  107.69    7.30
   0  -1  -8  108.29    5.20
   0  -1   8  108.29    3.90
   0  -1  -8   94.39    8.80
   0  -1   8  116.99    5.10
   0  -1   8  118.39    4.70
   0   1  -8  108.19    6.80
   0   1  -8  110.59    7.10
   0   1  -8  111.79    4.90
   0   1   8  115.89    4.90
   0   1   8  110.39    4.60
   0   1  -8  121.79    7.70
  -1  -1  -8    6.40    1.40
   1  -1   8    5.20    1.30
  -1  -1  -8    7.00    1.50
  -1  -1  -8    7.10    2.30
  -1  -1  -8    4.50    1.90
   1  -1   8    5.90    1.30
  -1   1  -8    6.70    1.40
  -1   1  -8    6.80    1.70
   1   1   8    5.20    1.20
  -1   1  -8    7.40    2.70
   1   1   8    6.50    1.30
   1   1   8    4.10    1.00
   1   1   8    7.70    1.60
  -1   1  -8    4.20    1.90
  -2  -1  -8   12.30    2.40
  -2  -1  -8   12.20    2.40
   2  -1   8   14.40    1.70
   2  -1   8   13.50    2.20
   2  -1   8   13.40    2.10
  -2  -1  -8   15.00    3.70
  -2  -1  -8   17.90    4.20
   2  -1   8   15.50    1.70
   2   1   8   11.80    1.70
   2   1   8   15.80    2.00
   2   1   8   12.20    1.60
  -2   1  -8   13.40    2.10
  -2   1  -8   10.90    2.50
  -2   1  -8   13.30    3.60
  -2   1  -8   10.90    2.50
   2   1   8   14.30    2.30
   3  -1   8   17.10    3.00
   3  -1   8   17.60    2.10
  -3  -1  -8   15.70    2.80
  -3  -1  -8   16.60    4.10
  -3  -1  -8   23.30    3.30
   3  -1   8   21.80    4.00
  -3  -1  -8   16.50    3.20
  -3   1  -8   17.10    2.50
  -3   1  -8   11.80    2.30
   3   1   8   15.10    1.80
   3   1   8   15.90    2.80
   3   1   8   14.10    2.60
  -3   1  -8   12.10    2.50
   3  -2  -8    1.40    2.10
  -3  -2   8   -0.30    0.80
   3  -2  -8   -0.30    1.50
   3  -2  -8   -0.90    1.10
   3  -2  -8    2.60    2.60
  -3  -2   8    0.70    0.60
   3  -2  -8    0.60    0.70
   3   2  -8   -0.80    1.00
   3   2  -8   -0.40    1.20
   3   2  -8    1.80    2.00
   3   2  -8    1.20    2.00
  -3   2   8    0.80    0.50
  -3   2   8    0.10    0.80
  -3   2   8    2.40    1.70
   2  -2  -8    2.10    1.20
  -2  -2   8    1.90    0.80
   2  -2  -8    2.10    2.50
  -2  -2   8    2.40    0.80
   2  -2  -8    0.60    1.90
   2  -2  -8    1.70    1.30
   2   2  -8    2.20    1.80
   2   2  -8    2.50    1.10
   2   2  -8    3.30    2.10
  -2   2   8    1.60    0.80
  -2   2   8    2.90    0.80
   2   2  -8    0.30    1.00
  -2   2   8    1.60    0.60
  -2   2   8    1.70    1.50
  -1  -2   8   14.40    1.50
  -1  -2   8   11.30    1.30
   1  -2  -8   17.30    3.70
   1  -2  -8   18.40    2.60
  -1  -2   8   18.50    1.60
  -1  -2   8   12.80    2.00
   1  -2  -8   12.90    3.20
   1  -2  -8   18.80    3.40
  -1   2   8   17.50    1.50
  -1   2   8   15.00    1.80
   1   2  -8   11.60    2.00
   1   2  -8   14.80    2.20
  -1   2   8   12.00    1.40
   1   2  -8   17.80    3.10
  -1   2   8   12.70    2.20
   1   2  -8    8.20    2.80
   0  -2   8   24.30    2.00
   0  -2  -8   26.90    4.00
   0  -2  -8   21.10    3.60
   0  -2   8   20.60    2.10
   0  -2  -8   17.70    2.20
   0  -2  -8   23.70    3.40
   0   2  -8   23.50    3.70
   0   2   8   21.40    2.40
   0   2  -8   20.10    2.10
   0   2  -8   31.30    4.00
   0   2   8   19.00    1.70
   0   2  -8   24.30    3.70
   0   2   8   26.80    2.40
   1  -2   8   13.60    1.80
  -1  -2  -8   15.30    2.60
   1  -2   8   14.20    1.60
  -1  -2  -8   17.20    3.70
  -1  -2  -8   12.80    2.10
  -1  -2  -8   16.80    2.00
  -1   2  -8   15.50    3.50
  -1   2  -8   17.00    2.80
   1   2   8   18.20    2.20
   1   2   8   14.70    2.10
  -1   2  -8   11.90    1.80
   1   2   8   12.70    1.50
  -1   2  -8   21.50    4.40
  -1   2  -8   12.60    2.20
   1   2   8   14.10    1.60
  -2  -2  -8    5.50    2.50
   2  -2   8    9.20    1.70
  -2  -2  -8    9.50    2.00
   2  -2   8    6.30    1.30
  -2  -2  -8    5.10    1.70
   2  -2   8    4.60    1.10
  -2  -2  -8    7.60    2.10
   2   2   8    6.30    1.20
  -2   2  -8    5.00    2.20
   2   2   8    6.90    1.40
  -2   2  -8    6.30    3.20
  -2   2  -8    8.60    1.60
   2   2   8    5.30    1.70
  -2   2  -8   10.60    2.30
   2   2   8    5.20    1.40
   2   2   8    8.10    1.50
   3  -3  -8   33.60    5.20
  -3  -3   8   40.20    3.00
   3  -3  -8   37.50    4.70
   3  -3  -8   35.00    2.70
   3  -3  -8   40.40    4.30
  -3  -3   8   32.60    2.50
   3  -3  -8   38.90    3.90
   3   3  -8   41.70    4.30
   3   3  -8   44.60    5.20
  -3   3   8   37.90    2.70
  -3   3   8   40.10    4.70
  -3   3   8   38.10    3.40
   3   3  -8   40.60    3.60
   3   3  -8   31.70    5.50
  -2  -3   8   90.29    4.00
   2  -3  -8   89.49    6.30
   2  -3  -8   93.29    6.20
  -2   3   8   91.29    6.40
   2   3  -8   83.69    4.60
  -2   3   8   89.29    3.90
  -2   3   8   88.39    4.00
   2   3  -8   76.69    5.50
   2   3  -8  106.39   10.90
   2   3  -8   86.99    6.00
  -1  -3   8  397.56   11.20
  -1  -3   8  387.26   10.30
   1  -3  -8  384.56   14.10
  -1  -3   8  397.36   10.40
   1  -3  -8  389.76   13.50
   1  -3  -8  395.36   13.60
   1  -3  -8  400.36   12.20
  -1  -3   8  404.56   11.60
   1   3  -8  394.26   15.20
  -1   3   8  387.66    9.90
  -1   3   8  399.46   11.80
  -1   3   8  399.46   13.60
   1   3  -8  404.56   14.20
   1   3  -8  386.36   10.80
   1   3  -8  377.96   11.80
  -1   3   8  392.56   10.40
   0  -3  -8   63.49    4.10
   0  -3  -8   60.89    5.10
   0  -3   8   63.19    3.40
   0  -3   8   62.39    3.80
   0  -3  -8   65.19    4.90
   0  -3  -8   58.89    4.20
   0  -3   8   59.89    3.80
   0   3   8   56.39    3.80
   0   3  -8   63.49    3.30
   0   3   8   58.89    2.90
   0   3  -8   58.09    4.80
   0   3  -8   58.09    5.00
   0   3  -8   58.89    5.60
   0   3   8   59.69    4.50
  -1  -3  -8  729.73   19.20
  -1  -3  -8  725.83   20.40
  -1  -3  -8  727.93   23.10
   1  -3   8  736.13   17.50
   1  -3   8  766.62   16.30
  -1  -3  -8  714.63   18.10
   1  -3   8  749.92   18.80
  -1   3  -8  737.53   19.20
   1   3   8  733.83   17.10
   1   3   8  770.72   18.70
  -1   3  -8  762.02   24.10
  -1   3  -8  750.92   16.90
  -1   3  -8  745.73   20.10
  -1   3  -8  761.12   22.30
   1   3   8  672.93   16.30
   1   3   8  758.62   20.40
   2  -3   8    7.30    1.70
   2  -3   8   10.00    1.60
   2  -3   8   12.40    1.90
  -2  -3  -8    7.80    2.00
  -2  -3  -8    6.90    1.90
  -2  -3  -8   11.60    2.30
  -2  -3  -8    8.10    3.20
  -2   3  -8    6.20    3.00
  -2   3  -8    7.80    2.50
   2   3   8   13.20    1.80
  -2   3  -8    9.50    2.30
   2   3   8   12.60    2.10
  -3  -4   8   39.10    3.20
   3  -4  -8   34.40    4.90
  -3  -4   8   33.60    3.30
   3  -4  -8   31.10    3.60
  -3  -4   8   34.00    2.40
  -3  -4   8   37.50    2.50
   3  -4  -8   31.60    2.60
  -3   4   8   36.90    2.60
  -3   4   8   32.60    4.90
   3   4  -8   34.60    5.10
  -3   4   8   34.10    3.30
   3   4  -8   35.10    3.50
   3   4  -8   30.10    5.40
   3   4  -8   30.00    4.20
  -2  -4   8   32.60    2.30
   2  -4  -8   35.10    3.70
  -2  -4   8   38.80    2.40
  -2  -4   8   38.90    3.10
   2  -4  -8   39.00    4.30
  -2  -4   8   36.80    3.00
   2  -4  -8   33.50    3.30
  -2   4   8   36.20    3.20
  -2   4   8   34.90    2.80
   2   4  -8   44.40    4.30
   2   4  -8   41.70    3.10
  -2   4   8   40.80    4.60
   2   4  -8   34.80    5.60
   2   4  -8   37.30    4.20
   1  -4  -8  427.46   13.60
  -1  -4   8  452.55   11.10
  -1  -4   8  426.76   12.50
   1  -4  -8  429.26   13.20
   1  -4  -8  426.56   14.00
  -1  -4   8  417.16   11.80
   1   4  -8  419.06   11.20
   1   4  -8  436.26   12.90
  -1   4   8  425.36   10.20
  -1   4   8  425.36   12.80
  -1   4   8  413.26   11.00
   1   4  -8  417.56   16.30
  -1   4   8  410.96   15.10
   1   4  -8  416.76   14.70
   0  -4  -8  225.68    8.70
   0  -4  -8  231.88   10.60
   0  -4   8  227.08    7.40
   0  -4  -8  237.18    9.70
   0  -4  -8  226.08    9.00
   0  -4  -8  232.18    6.40
   0  -4   8  229.58    6.60
   0  -4   8  218.78    7.80
   0  -4   8  224.08    8.40
   0   4   8  228.28    9.30
   0   4  -8  230.68   10.70
   0   4  -8  237.08   10.20
   0   4   8  224.98   10.10
   0   4  -8  244.38    7.00
   0   4  -8  228.08   11.60
   0   4   8  225.08    8.50
  -1  -4  -8  184.58    7.40
  -1  -4  -8  180.48    7.90
  -1  -4  -8  187.58    8.50
   1  -4   8  183.58    6.60
   1  -4   8  186.08    6.10
   1  -4   8  177.48    5.60
  -1  -4  -8  164.48    9.70
  -1  -4  -8  180.68    7.80
   1  -4   8  172.68    6.90
  -1   4  -8  176.38    8.20
  -1   4  -8  182.88    8.10
   1   4   8  180.58    8.90
   1   4   8  183.78    6.40
  -1   4  -8  180.78   10.50
   1   4   8  169.38    9.20
  -1   4  -8  202.18    9.60
  -2  -4  -8   38.80    5.20
   2  -4   8   36.40    2.80
  -2  -4  -8   35.60    3.70
   2  -4   8   40.50    3.40
  -2  -4  -8   41.40    3.70
  -2  -4  -8   39.40    3.80
   2  -4   8   40.70    3.10
  -2   4  -8   51.99    5.90
   2   4   8   32.70    2.50
  -2   4  -8   28.50    3.70
   2   4   8   32.90    3.80
   2   4   8   37.50    3.40
  -2   4  -8   33.00    3.70
  -2   4  -8   36.20    4.70
   3  -5  -8   -1.20    1.50
  -3  -5   8    2.40    0.90
   3  -5  -8    3.40    1.60
  -3  -5   8    5.80    1.30
  -3  -5   8    0.00    1.10
   3   5  -8    1.80    1.60
  -3   5   8   -0.10    2.20
   3   5  -8    1.90    2.30
   3   5  -8    2.70    1.30
  -3   5   8    2.00    0.80
   3   5  -8    2.20    3.20
   2  -5  -8    4.30    1.20
   2  -5  -8    4.40    1.40
  -2  -5   8    5.00    1.40
  -2  -5   8    6.60    1.30
  -2  -5   8    8.90    1.80
  -2  -5   8    6.00    1.10
   2  -5  -8    9.00    2.10
   2  -5  -8    4.60    2.00
  -2   5   8    5.20    1.10
  -2   5   8    4.20    1.30
   2   5  -8    4.50    1.90
  -2   5   8    4.20    0.90
   2   5  -8    6.40    1.60
  -2   5   8    1.80    2.10
   2   5  -8    4.50    2.00
   2   5  -8    9.00    2.80
  -1  -5   8    9.90    1.90
  -1  -5   8    8.80    1.80
   1  -5  -8   10.60    2.20
   1  -5  -8    9.40    2.00
  -1  -5   8   12.30    1.40
   1  -5  -8   13.40    2.80
  -1   5   8    8.60    1.30
  -1   5   8   11.10    2.70
  -1   5   8    9.60    1.90
   1   5  -8    9.00    2.20
  -1   5   8   13.00    3.00
   1   5  -8    6.50    1.90
   1   5  -8    8.30    2.50
   0  -5  -8    5.00    1.00
   0  -5   8    3.50    1.00
   0  -5  -8    3.40    1.30
   0  -5  -8    4.20    2.70
   0  -5   8    3.70    1.20
   0  -5   8    3.60    0.90
   0  -5  -8    4.20    1.30
   0  -5   8    3.50    1.30
   0   5  -8    2.80    2.10
   0   5   8    2.20    1.10
   0   5  -8    6.50    2.00
   0   5  -8    4.00    1.60
   0   5   8    2.60    1.50
   0   5   8    4.90    1.90
  -1  -5  -8    1.00    1.00
   1  -5   8    1.70    0.90
  -1  -5  -8    1.00    1.70
  -1  -5  -8    0.40    0.90
   1  -5   8    0.20    0.50
   1  -5   8    1.70    1.20
  -1  -5  -8    0.50    1.30
   1  -5   8    1.80    1.00
  -1  -5  -8    1.70    1.10
   1  -5   8    1.00    0.60
  -1   5  -8    0.60    1.50
   1   5   8   -2.20    2.20
  -1   5  -8   -0.40    1.30
   1   5   8    0.30    0.70
   1   5   8   -0.50    2.20
  -1   5  -8    2.30    2.40
  -1   5  -8    0.60    1.10
   1   5   8    2.80    1.20
   2  -5   8    1.70    1.00
  -2  -5  -8    4.40    2.50
   2  -5   8   -0.40    1.00
  -2  -5  -8    2.50    1.20
   2  -5   8    0.30    0.70
  -2  -5  -8   -0.30    1.10
  -2  -5  -8    0.00    1.40
   2  -5   8   -0.60    0.90
  -2   5  -8    1.90    2.40
   2   5   8   -0.30    1.10
  -2   5  -8    0.70    1.20
   2   5   8    1.30    1.40
   2   5   8    0.80    0.80
  -2   5  -8    0.70    2.30
   2  -6  -8   10.50    2.00
  -2  -6   8    9.00    1.70
  -2  -6   8    7.50    1.30
  -2  -6   8    6.00    1.60
   2  -6  -8    6.50    1.80
   2  -6  -8    7.20    2.10
   2  -6  -8    7.00    1.50
   2   6  -8    3.80    2.40
  -2   6   8   12.80    2.30
   2   6  -8    6.70    1.60
   2   6  -8   11.70    2.80
  -2   6   8    8.10    1.20
  -2   6   8   11.40    3.40
   2   6  -8    6.90    2.30
   1  -6  -8  179.08    8.70
  -1  -6   8  180.58    7.20
   1  -6  -8  172.18    7.80
   1  -6  -8  187.38    6.60
  -1  -6   8  186.78    7.80
   1  -6  -8  178.78    8.00
  -1  -6   8  174.28    6.00
  -1   6   8  178.88    6.20
  -1   6   8  184.18   10.80
   1   6  -8  195.18    9.60
   1   6  -8  179.58    6.40
  -1   6   8  184.68    9.80
   1   6  -8  178.78   10.90
  -1   6   8  174.08    7.90
   1   6  -8  176.28    8.80
   0  -6  -8   77.09    3.50
   0  -6  -8   82.09    5.40
   0  -6   8   78.69    4.00
   0  -6   8   79.19    4.50
   0  -6  -8   90.29    5.40
   0  -6  -8   82.89    5.40
   0  -6   8   73.69    3.80
   0  -6   8   80.29    3.90
   0  -6   8   78.29    4.80
   0   6  -8   70.99    5.70
   0   6   8   85.19    6.90
   0   6  -8   66.99    6.50
   0   6  -8   73.79    6.40
   0   6   8   83.39    6.60
   0   6   8   71.69    4.90
   0   6  -8   75.59    4.70
  -1  -6  -8    0.10    2.50
  -1  -6  -8    6.50    2.00
   1  -6   8    5.00    1.30
  -1  -6  -8    7.40    2.00
   1  -6   8    4.50    1.20
   1  -6   8    3.80    1.00
  -1  -6  -8    6.00    1.60
   1  -6   8    4.10    1.50
   1  -6   8    4.60    1.50
   1   6   8    9.90    2.90
   1   6   8    5.50    2.80
  -1   6  -8    5.60    2.50
  -1   6  -8   10.90    4.80
  -1   6  -8    3.90    2.20
   1   6   8    3.50    1.30
  -1   6  -8    5.20    2.60
  -2  -7   8   99.89    5.80
  -2  -7   8  102.19    5.50
   2  -7  -8  108.49    6.20
   2  -7  -8  111.09    7.10
   2  -7  -8  103.39    5.70
   2  -7  -8  109.49    5.50
   2   7  -8  103.79    7.70
  -2   7   8   99.79    4.60
   2   7  -8   95.99    7.40
  -2   7   8  101.89    8.70
   2   7  -8   97.99    9.10
  -1  -7   8   51.19    3.90
  -1  -7   8   45.80    3.50
  -1  -7   8   45.00    2.70
   1  -7  -8   49.40    4.00
   1  -7  -8   45.40    4.00
   1  -7  -8   47.40    4.30
   1  -7  -8   51.59    3.30
  -1   7   8   52.19    4.20
   1   7  -8   34.60    4.30
   1   7  -8   38.00    4.90
   1   7  -8   33.30    5.90
  -1   7   8   49.10    5.90
  -1   7   8   44.80    2.80
  -1   7   8   46.30    5.30
   0  -7  -8   10.60    2.10
   0  -7   8    7.90    1.90
   0  -7  -8    7.00    2.00
   0  -7  -8    7.60    1.30
   0  -7   8    9.00    1.50
   0  -7   8    8.10    1.90
   0  -7   8    8.70    1.50
   0  -7   8    6.20    1.90
   0  -7  -8   10.40    2.50
   0   7  -8    8.40    2.80
   0   7   8    2.70    2.00
   0   7   8    6.70    1.80
   0   7  -8    5.90    1.60
   0   7  -8   11.30    3.40
   0   7   8    6.10    3.10
   0   7  -8    8.60    2.50
   1  -7   8  504.15   14.40
  -1  -7  -8  443.66   19.60
   1  -7   8  500.75   13.10
  -1  -7  -8  528.65   17.60
   1  -7   8  494.05   13.10
  -1  -7  -8  527.75   15.00
   1  -7   8  517.15   14.20
   1  -7   8  506.45   15.20
  -1   7  -8  444.06   21.10
  -1   7  -8  507.45   17.20
  -1   7  -8  532.25   19.70
   1   7   8  462.65   14.30
   1   7   8  512.65   19.50
   1   7   8  524.35   16.60
  -1   7  -8  484.05   15.00
   3   0  -9    1.60    1.40
   3   0  -9   -2.50    1.30
  -3   0   9    0.20    0.80
   3   0  -9    0.00    2.60
  -3   0   9    0.00    0.50
   3   0  -9    4.30    2.40
   2   0  -9    0.50    1.00
   2   0  -9    1.30    1.20
   2   0  -9    2.70    1.70
  -2   0   9   -0.10    0.40
  -2   0   9   -0.80    0.50
   2   0  -9   -0.20    2.10
  -2   0   9   -0.30    0.70
  -1   0   9    0.50    0.60
   1   0  -9   -2.30    1.40
  -1   0   9    0.50    0.70
   1   0  -9    0.60    1.40
   1   0  -9   -1.00    0.70
   1   0  -9   -0.60    1.90
  -1   0   9    0.80    0.50
   0   0   9    1.20    0.70
   0   0   9    0.40    0.40
   0   0   9    0.90    0.60
   0   0  -9   -1.40    1.90
   0   0  -9    0.90    0.70
   0   0  -9    0.70    1.60
   0   0  -9   -0.60    1.80
  -1   0  -9    1.20    1.10
  -1   0  -9    0.90    0.80
   1   0   9   -0.30    0.60
  -1   0  -9   -2.00    1.60
   1   0   9   -0.20    0.50
  -1   0  -9    1.30    1.60
   1   0   9    0.50    0.50
  -1   0  -9   -0.10    0.70
   2   0   9   -0.30    0.60
   2   0   9   -1.00    0.50
  -2   0  -9   -0.60    0.90
  -2   0  -9    0.60    1.40
  -2   0  -9    0.60    2.00
   2   0   9   -1.90    0.80
  -2   0  -9   -1.50    0.90
  -3  -1   9   24.50    2.30
   3  -1  -9   24.90    4.40
   3  -1  -9   25.90    3.60
  -3  -1   9   23.70    2.60
   3  -1  -9   25.30    3.80
   3  -1  -9   16.70    4.40
   3   1  -9   28.50    3.30
  -3   1   9   28.60    2.40
   3   1  -9   31.50    4.50
   3   1  -9   24.50    4.90
   3   1  -9   26.60    4.00
  -3   1   9   30.30    3.10
   2  -1  -9   19.60    2.80
   2  -1  -9   21.50    3.70
  -2  -1   9   16.80    2.00
  -2  -1   9   16.90    1.80
  -2  -1   9   18.00    2.30
   2  -1  -9   18.90    4.10
   2  -1  -9   14.90    2.70
  -2   1   9   12.20    1.60
   2   1  -9   16.20    4.10
  -2   1   9   15.00    2.50
   2   1  -9   19.20    2.80
   2   1  -9   17.30    2.80
   2   1  -9   14.00    2.90
  -2   1   9   22.90    2.00
   1  -1  -9  341.37   11.30
   1  -1  -9  334.97   14.20
  -1  -1   9  349.77    9.80
  -1  -1   9  341.67    9.60
  -1  -1   9  358.06   10.60
   1  -1  -9  352.46   14.50
   1  -1  -9  335.87   13.90
  -1   1   9  346.17   10.00
  -1   1   9  361.46   10.60
   1   1  -9  330.57   13.60
   1   1  -9  343.47   10.90
   1   1  -9  347.27   14.20
   1   1  -9  342.17   14.50
  -1   1   9  350.16    9.90
   0  -1  -9  134.89    8.50
   0  -1   9  134.39    5.50
   0  -1  -9  132.09    7.40
   0  -1  -9  141.09    8.80
   0  -1  -9  141.29    6.30
   0  -1   9  140.79    6.00
   0   1   9  139.69    5.60
   0   1   9  140.99    5.70
   0   1  -9  140.19    8.70
   0   1  -9  128.69    8.70
   0   1  -9  137.09    5.80
   0   1   9  140.39    5.60
   0   1  -9  144.09    8.10
  -1  -1  -9   82.29    7.40
   1  -1   9   93.99    4.60
  -1  -1  -9  103.19    5.10
  -1  -1  -9  101.29    5.40
   1  -1   9   97.19    5.00
  -1  -1  -9   97.69    7.00
  -1   1  -9   92.89    7.70
  -1   1  -9   94.09    4.80
   1   1   9  104.79    4.80
  -1   1  -9  106.49    6.20
   1   1   9  101.49    4.60
  -1   1  -9   95.89    7.30
   1   1   9  100.29    4.80
  -1   1  -9  101.59    5.60
  -2  -1  -9   63.19    5.30
   2  -1   9   71.19    4.10
   2  -1   9   75.29    4.60
  -2  -1  -9   70.39    4.80
  -2  -1  -9   84.39    5.80
  -2  -1  -9   59.99    6.90
   2   1   9   74.99    4.20
   2   1   9   71.29    4.00
  -2   1  -9   70.29    4.50
   2   1   9   70.89    3.80
  -2   1  -9   73.89    5.70
  -2   1  -9   79.59    5.60
  -2   1  -9   72.29    7.50
   2   1   9   79.19    4.70
  -3  -2   9   26.20    2.60
  -3  -2   9   24.70    2.60
   3  -2  -9   39.50    6.60
   3  -2  -9   20.70    3.20
  -3  -2   9   28.90    2.40
   3  -2  -9   28.00    4.20
   3  -2  -9   20.00    4.10
   3   2  -9   21.50    3.80
   3   2  -9   18.50    3.10
   3   2  -9   24.00    5.20
  -3   2   9   20.40    2.10
   3   2  -9   25.80    3.90
  -3   2   9   23.50    4.20
  -3   2   9   27.30    2.90
  -2  -2   9   72.89    3.90
   2  -2  -9   84.99    6.40
   2  -2  -9   70.19    5.00
   2  -2  -9   80.39    4.90
  -2  -2   9   65.89    3.90
  -2  -2   9   74.59    4.30
   2  -2  -9   66.29    6.60
   2  -2  -9   77.89    6.70
  -2   2   9   69.79    4.40
   2   2  -9   76.59    6.00
   2   2  -9   68.29    7.00
   2   2  -9   70.79    4.60
  -2   2   9   73.79    3.90
   2   2  -9   71.99    5.10
  -2   2   9   76.69    5.40
  -2   2   9   69.29    3.70
  -1  -2   9  135.89    6.00
   1  -2  -9  131.19    8.20
   1  -2  -9  126.39    8.40
   1  -2  -9  131.99    6.40
  -1  -2   9  134.09    5.40
  -1  -2   9  131.79    5.30
   1  -2  -9  138.59    8.30
   1   2  -9  128.39    8.50
  -1   2   9  127.39    5.90
  -1   2   9  134.79    5.30
   1   2  -9  122.29    8.30
  -1   2   9  136.89    6.60
   1   2  -9  129.49    7.80
   1   2  -9  132.39    5.80
  -1   2   9  131.29    5.20
   0  -2  -9   12.40    2.20
   0  -2   9   16.50    1.80
   0  -2  -9   18.20    3.70
   0  -2  -9   21.40    3.40
   0  -2  -9   15.00    2.60
   0  -2   9   18.30    2.10
   0   2  -9   12.40    3.20
   0   2   9   17.20    2.20
   0   2  -9   14.90    3.40
   0   2   9   17.20    2.10
   0   2  -9   22.10    4.20
   0   2   9   16.00    1.70
   0   2  -9   20.10    2.20
  -1  -2  -9   46.50    5.50
   1  -2   9   44.70    3.10
   1  -2   9   40.80    3.20
  -1  -2  -9   51.29    4.40
  -1  -2  -9   40.20    3.20
  -1  -2  -9   52.59    3.80
   1   2   9   41.90    3.50
  -1   2  -9   42.50    4.00
  -1   2  -9   42.50    6.10
   1   2   9   42.00    3.20
  -1   2  -9   37.70    3.00
  -1   2  -9   45.80    4.10
  -1   2  -9   41.10    5.60
   1   2   9   43.40    2.90
  -2  -2  -9   20.90    3.20
  -2  -2  -9   17.90    3.10
   2  -2   9   15.50    2.20
   2  -2   9   20.70    2.40
  -2  -2  -9   13.70    2.50
  -2   2  -9   15.90    2.70
  -2   2  -9   12.40    3.70
   2   2   9   12.80    2.00
   2   2   9   12.70    2.10
   2   2   9   15.90    2.10
  -2   2  -9   14.20    3.10
  -2   2  -9   21.30    2.50
   2   2   9   16.10    2.70
  -3  -3   9   44.80    3.30
   3  -3  -9   46.30    4.50
   3  -3  -9   47.60    4.50
   3  -3  -9   49.10    5.50
  -3  -3   9   48.00    3.10
   3  -3  -9   46.80    5.90
  -3  -3   9   38.90    3.30
   3   3  -9   34.60    5.80
   3   3  -9   38.40    4.70
   3   3  -9   45.80    4.00
  -3   3   9   52.29    3.30
   3   3  -9   39.30    4.90
  -3   3   9   39.30    5.30
   2  -3  -9    4.40    2.20
   2  -3  -9    0.90    2.00
  -2  -3   9    2.10    0.90
   2  -3  -9    2.30    1.30
  -2  -3   9    1.10    0.90
   2  -3  -9    0.90    2.00
  -2  -3   9    2.90    1.10
  -2  -3   9    1.60    0.70
   2   3  -9    1.20    1.80
  -2   3   9    2.20    1.90
  -2   3   9    0.30    0.90
   2   3  -9    2.80    1.90
   2   3  -9    2.30    1.50
  -2   3   9    2.80    0.80
   2   3  -9    3.60    1.10
  -1  -3   9  158.78    5.90
  -1  -3   9  134.39    7.10
   1  -3  -9  165.78    9.10
   1  -3  -9  139.89    8.00
   1  -3  -9  150.28    8.90
   1  -3  -9  161.28    8.50
   1   3  -9  168.38   10.60
   1   3  -9  143.49    9.40
  -1   3   9  164.58    8.10
  -1   3   9  152.58    5.50
  -1   3   9  161.78    7.90
   1   3  -9  165.18    8.90
   1   3  -9  156.18    6.40
  -1   3   9  149.19    5.80
   0  -3  -9    8.50    2.00
   0  -3  -9    3.00    2.60
   0  -3   9    9.60    2.50
   0  -3   9   13.20    1.90
   0  -3  -9    8.80    2.00
   0  -3  -9   12.60    3.20
   0   3  -9    9.80    3.10
   0   3  -9   11.20    1.80
   0   3   9    9.30    1.70
   0   3   9    8.30    3.20
   0   3  -9    9.10    2.50
   0   3   9   11.20    1.30
  -1  -3  -9   91.79    6.10
  -1  -3  -9   92.59    5.50
   1  -3   9   90.29    4.60
  -1  -3  -9   85.39    5.70
   1  -3   9   94.49    5.30
  -1  -3  -9   88.89    5.00
  -1  -3  -9  102.89    7.80
   1   3   9   85.79    4.00
  -1   3  -9   93.79    5.90
  -1   3  -9   94.99    4.40
  -1   3  -9   86.79    8.10
  -1   3  -9   91.79    5.90
   1   3   9   89.19    5.60
  -1   3  -9   92.59    7.80
   1   3   9   87.49    4.80
  -2  -3  -9   59.29    4.70
   2  -3   9   61.79    3.80
  -2  -3  -9   55.59    4.90
  -2  -3  -9   66.79    5.20
   2  -3   9   65.39    4.40
  -2  -3  -9   57.49    6.60
  -2   3  -9   59.19    6.70
   2   3   9   66.69    4.20
   2   3   9   59.09    3.60
  -2   3  -9   63.49    5.20
   2   3   9   59.69    4.80
  -2   3  -9   60.99    5.40
  -3  -4   9   24.00    2.40
  -3  -4   9   31.90    2.90
  -3  -4   9   26.80    2.90
   3  -4  -9   27.00    4.90
   3   4  -9   22.40    4.20
  -3   4   9   27.10    3.10
  -3   4   9   25.50    2.90
   3   4  -9   23.50    5.20
  -3   4   9   27.80    5.00
   3   4  -9   33.60    5.00
   3   4  -9   26.80    3.20
   2  -4  -9    0.60    1.10
   2  -4  -9    2.70    1.70
  -2  -4   9   -0.60    1.10
  -2  -4   9    1.00    0.70
  -2  -4   9   -0.20    0.60
   2  -4  -9    0.70    1.70
  -2  -4   9    1.20    0.80
   2   4  -9    0.70    1.00
  -2   4   9    0.90    0.60
  -2   4   9    1.20    1.10
   2   4  -9   -0.20    1.10
   2   4  -9   -1.50    1.60
   2   4  -9    0.00    1.70
  -2   4   9    0.60    0.60
  -2   4   9    2.30    1.80
   1  -4  -9  180.38    8.70
  -1  -4   9  173.38    7.00
   1  -4  -9  160.48    7.60
   1  -4  -9  174.88    8.40
  -1  -4   9  173.48    7.40
   1  -4  -9  155.28    8.90
  -1  -4   9  164.08    6.10
   1   4  -9  151.68   14.50
  -1   4   9  159.98    5.40
  -1   4   9  167.18    7.50
  -1   4   9  173.18    9.00
   1   4  -9  154.18   10.00
  -1   4   9  160.68    7.10
   1   4  -9  177.48    9.40
   1   4  -9  169.18    6.50
   1   4  -9  168.58    7.40
   0  -4   9   31.10    2.70
   0  -4  -9   33.40    2.00
   0  -4   9   30.00    2.90
   0  -4  -9   39.00    4.90
   0  -4  -9   39.50    4.00
   0  -4  -9   35.10    3.60
   0  -4   9   29.00    3.00
   0  -4  -9   30.20    3.10
   0   4   9   33.90    3.10
   0   4   9   28.60    3.80
   0   4   9   32.80    2.10
   0   4  -9   31.50    3.80
   0   4  -9   32.60    5.00
   0   4  -9   31.40    2.60
   0   4   9   30.70    3.80
   0   4  -9   36.30    4.90
  -1  -4  -9   38.80    5.00
   1  -4   9   38.30    2.90
   1  -4   9   28.60    3.60
  -1  -4  -9   36.10    3.80
   1  -4   9   38.90    3.40
  -1  -4  -9   36.90    3.60
  -1  -4  -9   39.10    4.00
  -1  -4  -9   38.30    3.30
  -1   4  -9   37.40    3.80
   1   4   9   43.00    2.90
  -1   4  -9   30.70    5.60
   1   4   9   31.20    2.20
   1   4   9   37.90    3.40
   1   4   9   36.80    4.00
  -1   4  -9   31.10    5.40
  -1   4  -9   51.19    5.40
  -2  -4  -9    3.00    2.60
  -2  -4  -9    1.30    1.90
  -2  -4  -9    1.50    1.50
   2  -4   9    1.20    0.90
   2  -4   9    1.80    1.10
  -2   4  -9   -0.30    2.30
  -2   4  -9    2.30    2.10
  -2   4  -9    1.90    1.70
   2   4   9   -0.70    1.20
   2   4   9    2.30    0.80
   2   4   9    0.40    1.30
  -2  -5   9  130.79    6.30
  -2  -5   9  122.19    4.90
   2  -5  -9  125.49    7.90
   2  -5  -9  125.09    6.90
  -2  -5   9  134.49    5.30
   2  -5  -9  134.89    7.10
  -2  -5   9  118.99    6.30
  -2   5   9  128.89    5.50
   2   5  -9  119.59    6.00
   2   5  -9  128.19    9.90
  -2   5   9  133.29    6.80
   2   5  -9  149.69    8.70
  -2   5   9  114.69    8.50
   1  -5  -9  298.67   12.10
   1  -5  -9  268.07   10.90
  -1  -5   9  288.37    8.60
   1  -5  -9  282.67   10.80
  -1  -5   9  288.47   10.30
  -1  -5   9  291.67    9.80
  -1   5   9  288.07   10.70
   1   5  -9  287.77   14.10
   1   5  -9  273.07   13.70
   1   5  -9  271.37   10.40
  -1   5   9  286.17   13.10
   1   5  -9  295.07    9.00
  -1   5   9  286.37   12.00
  -1   5   9  283.97    8.70
   1   5  -9  273.57   12.50
   0  -5   9    1.10    1.30
   0  -5   9    1.10    0.90
   0  -5  -9   -0.40    1.20
   0  -5  -9    1.50    1.30
   0  -5  -9    1.30    1.00
   0  -5  -9    1.40    0.60
   0  -5   9    2.20    1.10
   0  -5  -9    3.80    2.20
   0   5  -9    1.10    2.10
   0   5  -9    4.20    1.80
   0   5   9   -0.70    1.90
   0   5   9    3.30    1.20
   0   5   9    0.00    1.40
   0   5  -9    1.70    1.60
  -1  -5  -9   20.90    3.30
  -1  -5  -9   27.10    3.00
  -1  -5  -9   23.20    3.20
   1  -5   9   28.70    3.00
   1  -5   9   24.80    2.50
  -1  -5  -9   25.80    3.20
   1  -5   9   28.00    2.50
  -1  -5  -9   24.30    4.20
   1  -5   9   26.40    3.00
  -1   5  -9   29.00    3.30
   1   5   9   28.30    2.40
  -1   5  -9   26.10    5.40
  -1   5  -9   24.30    4.40
   1   5   9   31.70    3.80
   1   5   9   25.90    2.90
   2  -6  -9   27.30    4.20
  -2  -6   9   23.80    4.10
   2  -6  -9   22.90    3.20
   2  -6  -9   21.90    2.40
   2  -6  -9   16.20    2.90
  -2  -6   9   22.50    2.70
   2   6  -9   23.80    5.30
  -2   6   9   19.00    2.00
  -2   6   9   14.50    2.70
   2   6  -9   25.00    2.90
   2   6  -9   18.60    3.50
   2   6  -9   15.90    3.20
  -2   6   9   17.40    4.30
   1  -6  -9  317.77   12.60
   1  -6  -9  300.67    9.30
   1  -6  -9  319.27   11.70
  -1  -6   9  303.87   10.40
   1  -6  -9  331.87   11.80
  -1  -6   9  297.77    9.20
  -1  -6   9  301.57   10.90
  -1   6   9  316.27   13.80
  -1   6   9  321.57    9.50
   1   6  -9  316.27   12.00
   1   6  -9  308.27   15.10
  -1   6   9  305.87   14.50
   1   6  -9  339.47   15.70
   1   6  -9  322.77   13.70
   0  -6   9   28.80    3.00
   0  -6  -9   20.50    3.20
   0  -6  -9   26.60    2.00
   0  -6  -9   25.60    3.90
   0  -6   9   29.50    3.00
   0  -6   9   22.40    2.10
   0  -6  -9   25.90    3.10
   0   6  -9   22.10    4.30
   0   6   9   20.00    3.00
   0   6   9   21.30    3.80
   0   6  -9   24.60    4.90
   0   6  -9   20.80    4.10
   0   6   9   27.30    4.50
   0   6  -9   23.00    4.10
   1  -6   9   90.39    4.60
   1  -6   9   89.49    4.30
  -1  -6  -9   85.89    6.20
   1  -6   9   85.79    5.30
   1  -6   9   81.79    6.20
   1  -6   9  103.19    4.90
  -1  -6  -9   83.69    5.70
  -1  -6  -9   94.29    6.20
  -1  -6  -9  102.79    7.80
  -1   6  -9   87.89    5.80
   1   6   9   90.29    4.40
   1   6   9   91.79    7.10
   1   6   9   84.69    7.20
  -1   6  -9   82.99    7.10
  -1   6  -9   83.49    8.20
  -1  -7   9    1.60    0.90
  -1  -7   9   -1.10    0.80
   1  -7  -9    0.40    1.30
   1  -7  -9    1.00    0.70
  -1  -7   9    0.90    1.10
   1  -7  -9    1.40    1.30
  -1   7   9   -0.40    1.10
   1   7  -9   -0.10    1.40
  -1   7   9    2.50    2.30
   1   7  -9   -1.00    1.90
  -1   7   9    0.80    2.30
   1   7  -9   -1.20    2.20
   1   7  -9    0.50    2.20
   0  -7   9    1.30    1.00
   0  -7   9    2.90    1.20
   0  -7   9    2.90    1.30
   0  -7  -9    6.90    2.20
   0  -7  -9    0.70    1.30
   0  -7  -9    6.10    1.80
   0   7  -9    4.40    2.30
   0   7  -9    0.60    2.50
   0   7  -9    2.80    2.50
   0   7   9    1.40    2.10
   0   7   9    3.30    3.30
   0   7   9    1.70    1.50
   0   7  -9    3.90    1.50
   3   0 -10   59.79    5.80
   3   0 -10   61.39    6.30
  -3   0  10   65.29    5.20
   3   0 -10   63.69   11.50
   3   0 -10   64.19    5.40
  -3   0  10   58.79    4.10
  -2   0  10    1.40    0.70
  -2   0  10    2.70    1.10
   2   0 -10    2.50    1.50
  -2   0  10   -0.90    0.80
   2   0 -10    0.60    1.50
   2   0 -10   -0.90    2.40
   2   0 -10    6.40    2.60
   2   0 -10    4.60    2.20
   1   0 -10  204.88   12.40
   1   0 -10  204.38    8.50
   1   0 -10  217.88   11.70
  -1   0  10  213.08    7.50
  -1   0  10  204.38    7.70
  -1   0  10  210.88    7.50
   1   0 -10  211.48   11.70
   0   0  10  657.83   15.60
   0   0 -10  643.84   22.80
   0   0 -10  654.73   17.40
   0   0  10  657.23   16.40
   0   0 -10  628.44   20.00
   0   0  10  655.13   16.80
   0   0 -10  688.23   22.90
  -1   0 -10   89.09    6.20
  -1   0 -10   88.39    5.10
   1   0  10   96.39    4.90
   1   0  10   94.59    5.00
  -1   0 -10   88.19    6.80
  -1   0 -10   98.59    8.30
  -1   0 -10   97.79    5.10
  -2   0 -10  982.10   26.90
  -2   0 -10  913.81   31.00
   2   0  10  958.70   22.70
   2   0  10  943.21   23.00
  -2   0 -10  934.51   26.00
  -2   0 -10  981.50   24.10
  -3  -1  10   17.60    2.50
   3  -1 -10   21.40    4.60
  -3  -1  10   22.90    2.50
   3  -1 -10   20.70    3.80
   3  -1 -10   23.50    4.70
   3  -1 -10   18.10    5.60
   3   1 -10   18.40    4.00
   3   1 -10   21.40    5.50
   3   1 -10   24.90    3.80
  -3   1  10   27.60    2.50
  -3   1  10   22.10    2.50
   3   1 -10   21.50    3.20
  -2  -1  10   17.00    2.30
  -2  -1  10   24.80    2.20
  -2  -1  10   18.70    2.30
   2  -1 -10   30.90    4.90
   2  -1 -10   19.80    4.00
   2  -1 -10   23.30    3.70
   2  -1 -10   24.10    2.90
   2  -1 -10   23.70    5.30
   2   1 -10   24.80    2.90
  -2   1  10   18.60    3.20
   2   1 -10   25.70    3.10
  -2   1  10   20.30    2.80
  -2   1  10   19.50    2.10
   2   1 -10   13.60    4.00
   2   1 -10   20.00    3.70
   1  -1 -10   59.19    6.50
  -1  -1  10   61.29    5.30
   1  -1 -10   72.69    6.80
  -1  -1  10   56.89    3.60
  -1  -1  10   69.09    3.90
  -1  -1  10   62.49    3.60
  -1   1  10   69.99    3.90
   1   1 -10   64.09    8.00
  -1   1  10   66.59    3.80
   1   1 -10   63.39    6.50
   1   1 -10   70.69    4.60
  -1   1  10   68.79    4.10
   1   1 -10   61.59    6.10
   0  -1 -10   34.90    5.30
   0  -1 -10   23.50    2.80
   0  -1  10   22.60    4.00
   0  -1  10   27.70    2.40
   0  -1 -10   23.50    3.80
   0  -1 -10   26.40    5.00
   0   1  10   25.80    2.40
   0   1 -10   28.40    3.00
   0   1 -10   27.10    4.70
   0   1  10   29.40    2.50
   0   1 -10   20.30    3.80
   0   1 -10   28.30    5.50
   0   1  10   29.10    2.50
  -1  -1 -10   29.40    5.50
  -1  -1 -10   41.30    4.10
  -1  -1 -10   31.10    3.20
  -1  -1 -10   37.20    4.30
   1  -1  10   42.50    3.10
  -1  -1 -10   37.90    3.30
   1  -1  10   36.60    3.10
  -1   1 -10   35.80    3.20
  -1   1 -10   36.20    3.70
  -1   1 -10   37.20    6.00
   1   1  10   40.50    3.00
   1   1  10   35.00    2.80
   1   1  10   35.00    2.90
  -1   1 -10   40.10    4.00
  -1   1 -10   35.90    5.30
   1   1  10   43.10    3.10
  -2  -1 -10   46.50    4.70
  -2  -1 -10   44.30    4.10
   2  -1  10   35.80    3.70
  -2  -1 -10   46.00    4.70
  -2  -1 -10   39.40    6.70
   2  -1  10   47.20    3.70
  -2   1 -10   46.70    4.80
   2   1  10   39.80    3.20
  -2   1 -10   47.50    6.50
   2   1  10   40.80    3.70
  -2   1 -10   47.60    3.90
   2   1  10   44.70    3.30
  -2   1 -10   44.70    4.60
   3  -2 -10    1.00    3.20
   3  -2 -10    0.30    3.10
   3  -2 -10    2.20    1.70
   3  -2 -10    3.80    2.00
  -3  -2  10    0.80    1.00
  -3  -2  10    1.00    0.80
  -3   2  10    1.10    1.00
   3   2 -10   -0.80    2.10
   3   2 -10    1.60    1.70
  -3   2  10    2.00    0.90
  -3   2  10   -0.20    0.70
   3   2 -10    0.00    2.40
   3   2 -10    0.40    2.20
   2  -2 -10    5.90    1.90
  -2  -2  10   10.00    1.70
   2  -2 -10    7.40    3.60
  -2  -2  10    8.30    1.80
  -2  -2  10    6.20    1.20
   2  -2 -10   15.70    3.90
   2   2 -10    4.30    1.60
  -2   2  10   10.40    1.80
  -2   2  10    8.10    1.80
   2   2 -10    8.20    3.60
  -2   2  10    9.90    1.80
   2   2 -10    9.60    2.50
   2   2 -10   10.30    2.90
  -1  -2  10   15.60    1.80
   1  -2 -10   23.50    4.80
   1  -2 -10   12.30    2.40
   1  -2 -10   16.40    3.70
   1  -2 -10   22.70    4.20
  -1  -2  10   14.90    2.30
  -1   2  10   12.40    1.80
   1   2 -10   16.30    3.70
  -1   2  10   16.60    1.80
  -1   2  10   14.10    2.30
   1   2 -10   19.60    3.00
   1   2 -10    9.10    2.90
   1   2 -10   17.10    4.00
   0  -2 -10   29.10    3.00
   0  -2  10   25.60    2.60
   0  -2  10   25.70    2.40
   0  -2 -10   17.40    4.10
   0  -2 -10   23.00    3.90
   0  -2 -10   28.70    3.90
   0   2 -10   26.20    4.40
   0   2  10   25.00    2.90
   0   2 -10   30.20    5.30
   0   2 -10   19.90    3.80
   0   2 -10   29.60    2.80
   0   2  10   28.00    2.40
   0   2  10   22.30    2.50
   0   2  10   23.30    2.20
  -1  -2 -10   16.70    4.20
  -1  -2 -10    8.90    2.30
   1  -2  10   11.90    2.00
  -1  -2 -10   16.40    2.80
   1  -2  10   10.50    1.70
  -1  -2 -10   10.60    2.60
  -1  -2 -10   14.80    2.30
  -1   2 -10   11.10    2.90
   1   2  10   14.70    1.80
  -1   2 -10   13.30    3.90
  -1   2 -10    9.00    2.00
  -1   2 -10    9.10    1.90
   1   2  10   12.60    2.30
   1   2  10    9.60    1.90
   1   2  10    8.00    1.40
  -1   2 -10   12.20    3.80
  -2  -3  10   36.50    3.30
  -2  -3  10   40.00    2.80
   2  -3 -10   41.00    3.90
   2  -3 -10   36.70    5.30
  -2  -3  10   41.00    2.90
   2  -3 -10   36.00    5.10
  -2  -3  10   36.10    2.80
   2  -3 -10   36.30    5.50
  -2   3  10   49.00    3.80
  -2   3  10   41.30    4.90
   2   3 -10   41.50    4.10
   2   3 -10   45.30    5.00
   2   3 -10   37.60    3.60
  -2   3  10   35.40    2.70
   2   3 -10   31.40    5.70
  -2   3  10   37.40    2.90
   1  -3 -10   40.10    5.20
  -1  -3  10   50.09    3.30
   1  -3 -10   46.20    4.80
   1  -3 -10   46.90    5.00
  -1  -3  10   42.40    3.50
   1  -3 -10   45.70    4.00
   1   3 -10   45.10    3.60
  -1   3  10   48.20    3.80
   1   3 -10   55.19    6.20
   1   3 -10   52.39    5.20
  -1   3  10   51.89    6.30
  -1   3  10   46.30    3.00
  -1   3  10   49.20    3.20
   1   3 -10   49.20    6.00
   0  -3  10  209.98    8.50
   0  -3 -10  215.08   10.20
   0  -3  10  200.68    7.50
   0  -3 -10  221.88    9.10
   0  -3 -10  190.98   12.50
   0  -3 -10  206.88   11.40
   0   3 -10  206.68   10.70
   0   3  10  216.68    7.10
   0   3 -10  206.88    7.70
   0   3 -10  229.08   11.70
   0   3 -10  210.68   12.40
   0   3  10  208.48    8.40
   0   3  10  222.88    9.00
  -1  -3 -10   33.70    5.80
  -1  -3 -10   46.50    3.50
   1  -3  10   44.50    3.70
  -1  -3 -10   41.20    4.10
   1  -3  10   39.30    3.10
  -1  -3 -10   39.60    3.80
  -1  -3 -10   38.60    4.40
   1   3  10   40.00    2.80
  -1   3 -10   33.00    5.60
   1   3  10   34.60    3.70
  -1   3 -10   49.60    6.20
   1   3  10   37.80    3.00
   1   3  10   39.50    3.50
  -1   3 -10   44.20    4.20
   2  -4 -10   72.99    5.90
   2  -4 -10   82.99    5.70
  -2  -4  10   73.79    4.00
  -2  -4  10   79.69    5.10
   2  -4 -10   77.39    6.90
  -2  -4  10   82.49    4.20
   2  -4 -10   79.59    6.50
   2   4 -10   78.89    5.00
  -2   4  10   74.49    6.60
  -2   4  10   75.59    5.20
  -2   4  10   79.89    4.30
   2   4 -10   66.49    6.30
   2   4 -10   73.79    5.90
  -2   4  10   73.39    5.00
   2   4 -10   81.19    8.10
  -1  -4  10   94.99    4.60
   1  -4 -10   94.59    5.90
  -1  -4  10   86.89    5.40
   1  -4 -10   92.19    7.30
   1  -4 -10  105.89    6.70
   1  -4 -10  100.99    6.70
  -1   4  10   84.29    6.50
  -1   4  10   84.39    5.40
  -1   4  10   90.79    4.60
   1   4 -10   91.29    7.10
   1   4 -10  102.89    8.40
  -1   4  10   95.39    6.40
   1   4 -10  100.69    8.60
   1   4 -10   90.29    4.90
   0  -4 -10   22.50    3.50
   0  -4 -10   20.90    4.30
   0  -4 -10   20.70    3.30
   0  -4  10   26.90    2.80
   0  -4  10   26.40    2.40
   0  -4 -10   22.40    3.30
   0   4 -10   17.10    4.30
   0   4  10   26.50    2.90
   0   4 -10   17.30    4.10
   0   4  10   24.40    4.00
  -1  -4 -10   72.69    5.50
   1  -4  10   66.29    4.70
  -1  -4 -10   73.39    7.10
  -1  -4 -10   73.69    5.20
  -1  -4 -10   68.89    5.60
  -1  -4 -10   65.49    4.60
   1  -4  10   62.99    4.00
  -1   4 -10   58.09    5.00
  -1   4 -10   71.59    7.60
   1   4  10   58.69    5.10
   1   4  10   60.89    3.80
   1   4  10   66.09    4.70
  -1   4 -10   67.79    7.20
   2  -5 -10   10.40    2.60
  -2  -5  10    7.00    1.50
  -2  -5  10    5.60    2.20
  -2  -5  10    9.30    1.70
   2  -5 -10    9.20    2.60
  -2  -5  10    7.60    1.80
   2  -5 -10   12.70    2.50
  -2   5  10   10.60    1.80
   2   5 -10   12.10    3.20
   2   5 -10    9.80    2.90
  -2   5  10    9.50    2.10
   2   5 -10    4.70    1.60
  -2   5  10   10.10    3.30
  -1  -5  10    9.80    2.20
   1  -5 -10   10.70    2.60
  -1  -5  10    8.50    2.00
   1  -5 -10    8.60    2.40
  -1  -5  10   13.20    1.90
   1  -5 -10   10.30    2.20
   1   5 -10   13.00    3.90
  -1   5  10    8.40    2.00
   1   5 -10    8.30    2.60
   1   5 -10    7.40    3.20
  -1   5  10    5.20    2.30
  -1   5  10    8.70    1.60
  -1   5  10    3.00    2.90
   0  -5  10    8.80    1.70
   0  -5 -10   15.10    3.80
   0  -5  10    5.80    1.60
   0  -5  10    8.10    2.10
   0  -5 -10    7.60    2.10
   0  -5 -10    6.20    2.10
   0  -5 -10    5.50    2.20
   0   5  10    6.10    1.80
   0   5 -10    6.20    3.00
   0   5 -10    8.10    2.90
   0   5 -10   13.30    3.60
   0   5  10    5.60    2.40
   2   0 -11    2.50    2.90
  -2   0  11   -0.50    0.50
   2   0 -11   -1.20    2.10
   2   0 -11   -0.40    1.60
   2   0 -11   -0.90    2.30
   2   0 -11   -1.40    1.30
  -2   0  11    2.20    0.90
  -2   0  11    2.20    1.10
  -1   0  11   -0.20    0.60
   1   0 -11    0.70    2.60
   1   0 -11    0.20    2.70
  -1   0  11   -0.10    0.60
   1   0 -11    2.30    2.00
   1   0 -11   -1.20    1.10
  -1   0  11   -0.10    1.00
   0   0 -11    4.10    1.50
   0   0 -11    0.20    2.10
   0   0 -11    3.40    2.70
   0   0  11    5.80    1.50
   0   0  11    5.20    1.30
   0   0  11    5.10    1.30
   1   0  11    0.50    0.70
  -1   0 -11    0.00    1.10
   1   0  11    1.10    0.90
  -1   0 -11    1.40    1.30
  -1   0 -11   -2.40    1.50
   2  -1 -11   64.39    5.20
   2  -1 -11   83.89    8.10
  -2  -1  11   71.89    4.70
   2  -1 -11   72.99    7.10
   2  -1 -11   81.39    4.90
  -2  -1  11   65.39    4.20
   2  -1 -11   76.89    7.80
  -2  -1  11   79.19    4.40
   2   1 -11   74.69    8.20
  -2   1  11   73.59    4.30
   2   1 -11   69.89    7.00
   2   1 -11   78.49    4.90
  -2   1  11   73.59    4.40
  -2   1  11   61.69    4.40
   2   1 -11   76.69    5.50
   2   1 -11   75.89    7.60
   1  -1 -11   28.70    5.30
   1  -1 -11   28.80    5.40
   1  -1 -11   36.60    6.20
   1  -1 -11   35.40    3.70
  -1  -1  11   33.70    2.80
  -1  -1  11   44.90    3.50
  -1  -1  11   36.90    3.00
   1   1 -11   37.90    3.70
   1   1 -11   54.69    6.30
  -1   1  11   37.70    3.10
   1   1 -11   32.60    5.70
  -1   1  11   39.10    3.30
   1   1 -11   38.50    6.00
   0  -1 -11   42.50    5.70
   0  -1 -11   55.29    5.80
   0  -1  11   53.09    4.00
   0  -1 -11   52.79    5.10
   0  -1  11   55.59    3.70
   0  -1 -11   48.20    4.20
   0   1 -11   51.69    7.30
   0   1 -11   54.09    6.60
   0   1  11   57.29    3.80
   0   1  11   53.19    3.70
   0   1 -11   55.49    5.90
   0   1  11   52.79    3.60
   0   1 -11   47.70    4.10
  -1  -1 -11   88.19    6.60
  -1  -1 -11   86.39    6.70
  -1  -1 -11   97.09    9.00
   1  -1  11   86.89    5.20
   1  -1  11   82.29    5.50
  -1  -1 -11  105.19    6.00
   1   1  11   91.49    5.00
   1   1  11   93.09    4.70
  -1   1 -11   81.99    7.20
  -1   1 -11   90.39    5.30
   1   1  11   88.09    4.90
  -1   1 -11   89.69    7.40
  -2  -2  11   63.69    4.00
   2  -2 -11   60.99    7.40
   2  -2 -11   54.29    6.70
  -2  -2  11   61.99    4.40
   2  -2 -11   60.39    5.50
   2  -2 -11   47.90    6.50
  -2  -2  11   59.89    3.80
   2   2 -11   55.39    5.30
  -2   2  11   59.49    3.80
   2   2 -11   59.09    4.70
  -2   2  11   62.39    4.60
   2   2 -11   59.99    6.50
   2   2 -11   61.99    7.20
   2   2 -11   66.89    7.60
  -2   2  11   57.39    4.00
  -1  -2  11   13.60    2.40
   1  -2 -11   10.00    3.20
   1  -2 -11   11.10    3.10
   1  -2 -11    5.50    3.00
   1  -2 -11   12.00    2.50
  -1  -2  11    8.40    1.60
   1   2 -11   13.40    4.10
   1   2 -11   16.50    4.00
  -1   2  11   14.00    2.40
  -1   2  11    9.60    1.80
  -1   2  11   13.80    2.10
   1   2 -11    5.70    2.20
   1   2 -11   15.10    3.70
   0  -2  11   50.39    3.60
   0  -2 -11   49.50    5.30
   0  -2  11   48.90    3.90
   0  -2 -11   46.80    4.50
   0  -2 -11   52.99    4.40
   0  -2 -11   51.09    6.20
   0   2 -11   54.19    7.30
   0   2 -11   51.29    3.90
   0   2 -11   41.20    6.10
   0   2  11   48.80    3.50
   0   2  11   46.50    3.70
   0   2 -11   44.80    6.20
   0   2  11   48.00    3.30
  -1  -2 -11   36.00    3.70
   1  -2  11   30.20    3.10
   1  -2  11   33.60    3.00
  -1  -2 -11   32.40    3.20
  -1  -2 -11   30.00    5.30
  -1  -2 -11   22.80    4.80
  -1  -2 -11   23.60    5.40
   1   2  11   28.10    2.70
  -1   2 -11   33.80    6.10
  -1   2 -11   30.60    6.20
  -1   2 -11   27.80    5.20
   1   2  11   35.80    3.30
   1   2  11   28.90    2.60
  -1   2 -11   33.40    3.20
  -2  -3  11   26.90    3.00
  -2  -3  11   34.20    3.00
   2  -3 -11   30.30    3.80
   2  -3 -11   26.70    4.50
  -2  -3  11   22.60    2.50
   2  -3 -11   34.90    5.40
   2  -3 -11   27.00    5.10
  -2   3  11   29.40    2.70
   2   3 -11   30.00    4.80
   2   3 -11   19.50    4.80
   2   3 -11   37.10    3.80
  -2   3  11   34.20    2.80
   2   3 -11   25.40    5.40
   1  -3 -11   13.10    2.60
   1  -3 -11    6.40    2.80
   1  -3 -11    7.30    2.70
  -1  -3  11    9.20    1.70
  -1  -3  11   13.60    2.20
   1  -3 -11   13.60    3.80
  -1   3  11   13.30    2.50
   1   3 -11   16.30    3.90
   1   3 -11    6.30    3.30
   1   3 -11    7.80    2.10
  -1   3  11    9.70    1.70
   1   3 -11   14.00    3.70
   0  -3 -11   25.00    5.40
   0  -3 -11   22.40    3.30
   0  -3  11   28.40    3.00
   0  -3 -11   25.10    3.60
   0  -3 -11   26.70    4.20
   0  -3  11   27.00    2.60
   0   3  11   25.30    2.30
   0   3 -11   31.10    3.10
   0   3  11   27.20    3.00
   0   3  11   25.90    2.60
   0   3 -11   30.20    5.60
   0   3 -11   24.30    5.30
   0   3 -11   25.50    4.90
   1  -4 -11   10.00    2.90
  -1  -4  11   12.10    1.90
   1  -4 -11    7.70    2.70
   1  -4 -11   12.60    2.90
  -1  -4  11    9.20    2.00
   1  -4 -11    9.50    3.50
  -1   4  11   11.20    2.40
   1   4 -11    6.30    3.10
   1   4 -11    9.00    2.30
   1   4 -11   10.00    4.50
   1   4 -11    4.40    2.90
   0  -4  11   18.90    2.30
   0  -4  11   16.30    2.80
   0  -4 -11   14.50    3.30
   0  -4 -11   22.90    3.60
   0  -4 -11   22.30    4.50
   0  -4 -11   22.30    4.20
   0   4 -11   25.10    4.70
   0   4 -11   15.20    4.00
   0   4  11   16.90    3.70
   0   4  11   22.00    2.50
   0   4  11   21.70    3.20
  -1   0  12  171.38    6.90
   1   0 -12  166.88   11.00
   1   0 -12  169.48   14.30
   1   0 -12  150.88    7.80
   1   0 -12  162.18   11.90
  -1   0  12  152.98    7.00
  -1   0  12  165.08    7.40
   0   0 -12  204.18   13.50
   0   0 -12  205.58   10.60
   0   0  12  219.48    8.70
   0   0 -12  203.98    9.20
   0   0  12  201.78    8.10
   0   0 -12  195.68   12.20
   1  -1 -12   24.80    3.60
  -1  -1  12   25.30    2.90
  -1  -1  12   24.70    3.50
   1  -1 -12   27.70    5.80
   1  -1 -12   16.80    4.30
   1  -1 -12   24.70    4.90
  -1   1  12   25.50    3.00
   1   1 -12   30.00    5.60
   1   1 -12   19.80    5.30
   1   1 -12   23.10    5.80
  -1   1  12   24.80    2.80
   1   1 -12   25.20    3.70
  -1   1  12   20.20    2.40
   0  -1 -12   20.10    3.50
   0  -1 -12   27.60    3.80
   0  -1 -12   26.20    5.00
   0  -1  12   28.20    2.70
   0  -1  12   22.60    2.80
   0   1  12   26.70    3.00
   0   1  12   27.20    2.70
   0   1  12   25.70    2.80
   0   1 -12   18.30    4.80
   0   1 -12   23.50    4.60
   0   1 -12   23.70    3.30
   0   0   0    0.00    0.00

_computing_structure_solution     'SHELXT 2018/2 (Sheldrick, 2018)'
;
_shelx_hkl_checksum              44021
loop_
_space_group_symop_operation_xyz
'x, y, z'
'x, -y, z+1/2'
loop_
_atom_site_label
_atom_site_type_symbol
_atom_site_fract_x
_atom_site_fract_y
_atom_site_fract_z
_atom_site_U_iso_or_equiv
_atom_site_adp_type
_atom_site_occupancy
_atom_site_site_symmetry_order
_atom_site_calc_flag
_atom_site_refinement_flags_posn
_atom_site_refinement_flags_adp
_atom_site_refinement_flags_occupancy
_atom_site_disorder_assembly
_atom_site_disorder_group
Na1 Na 0.5491(2) 0.63742(8) 0.65284(9) 0.0290(2) Uani 1 1 d . . . . .
C1 C 0.1848(4) 0.23465(19) 0.43195(18) 0.0197(3) Uani 1 1 d . . . . .
C2 C 0.1726(4) 0.05871(19) 0.44000(17) 0.0186(3) Uani 1 1 d . . . . .
C3 C 0.4161(4) 0.05355(19) 0.57304(17) 0.0182(3) Uani 1 1 d . . . . .
C4 C 0.4293(4) 0.23768(19) 0.57506(18) 0.0203(3) Uani 1 1 d . . . . .
O1 O 0.5663(4) -0.05832(13) 0.65313(15) 0.0241(3) Uani 1 1 d . . . . .
O2 O 0.0059(4) -0.05635(15) 0.35884(15) 0.0256(3) Uani 1 1 d D . . . .
H1 H -0.145(6) -0.014(3) 0.286(2) 0.031 Uiso 1 1 d D U . . .
O3 O 0.0543(4) 0.33982(14) 0.34265(17) 0.0290(3) Uani 1 1 d . . . . .
O4 O 0.9939(4) 0.63452(15) 0.49073(16) 0.0303(3) Uani 1 1 d D . . . .
H2 H 0.965(8) 0.715(3) 0.433(3) 0.042 Uiso 1 1 d D U . . .
H3 H 0.987(7) 0.551(3) 0.434(3) 0.042 Uiso 1 1 d D U . . .
O5 O 0.5755(5) 0.34242(14) 0.6562(2) 0.0315(3) Uani 1 1 d . . . . .
loop_
_atom_site_aniso_label
_atom_site_aniso_U_11
_atom_site_aniso_U_22
_atom_site_aniso_U_33
_atom_site_aniso_U_23
_atom_site_aniso_U_13
_atom_site_aniso_U_12
Na1 0.0312(4) 0.0242(3) 0.0289(4) -0.0033(3) -0.0055(3) -0.0005(3)
C1 0.0216(7) 0.0184(8) 0.0179(7) -0.0005(6) -0.0017(5) 0.0008(6)
C2 0.0197(7) 0.0177(8) 0.0172(7) 0.0004(6) -0.0017(5) -0.0002(5)
C3 0.0194(7) 0.0169(7) 0.0174(7) -0.0001(6) -0.0002(5) -0.0002(5)
C4 0.0228(7) 0.0173(7) 0.0193(8) 0.0003(6) -0.0024(6) 0.0002(6)
O1 0.0297(6) 0.0186(5) 0.0208(5) 0.0023(5) -0.0078(4) 0.0022(5)
O2 0.0344(7) 0.0171(6) 0.0215(6) 0.0001(5) -0.0094(5) -0.0022(5)
O3 0.0401(7) 0.0192(6) 0.0242(6) 0.0033(5) -0.0083(5) 0.0029(5)
O4 0.0406(8) 0.0209(6) 0.0275(7) 0.0005(5) -0.0015(6) 0.0004(5)
O5 0.0406(7) 0.0195(6) 0.0300(7) -0.0038(6) -0.0108(5) -0.0034(6)
loop_
_atom_type_symbol
_atom_type_description
_atom_type_scat_dispersion_real
_atom_type_scat_dispersion_imag
_atom_type_scat_source
C C 0.0033 0.0016 'International Tables Vol C Tables 4.2.6.8 and 6.1.1.4'
H H 0.0000 0.0000 'International Tables Vol C Tables 4.2.6.8 and 6.1.1.4'
O O 0.0106 0.0060 'International Tables Vol C Tables 4.2.6.8 and 6.1.1.4'
Na Na 0.0362 0.0249 'International Tables Vol C Tables 4.2.6.8 and 6.1.1.4'
loop_
_geom_angle_atom_site_label_1
_geom_angle_atom_site_label_2
_geom_angle_atom_site_label_3
_geom_angle
_geom_angle_site_symmetry_1
_geom_angle_site_symmetry_3
_geom_angle_publ_flag
O4 Na1 O4 100.47(6) 1_455 . ?
O4 Na1 O3 170.96(6) 1_455 2_665 ?
O4 Na1 O3 87.75(6) . 2_665 ?
O4 Na1 O5 91.57(6) 1_455 . ?
O4 Na1 O5 88.22(6) . . ?
O3 Na1 O5 92.45(6) 2_665 . ?
O4 Na1 O1 91.72(5) 1_455 1_565 ?
O4 Na1 O1 89.50(6) . 1_565 ?
O3 Na1 O1 84.53(5) 2_665 1_565 ?
O5 Na1 O1 176.29(7) . 1_565 ?
O4 Na1 O3 80.86(5) 1_455 2_565 ?
O4 Na1 O3 176.41(5) . 2_565 ?
O3 Na1 O3 90.72(6) 2_665 2_565 ?
O5 Na1 O3 95.09(6) . 2_565 ?
O1 Na1 O3 87.12(5) 1_565 2_565 ?
O4 Na1 Na1 39.94(4) 1_455 1_455 ?
O4 Na1 Na1 140.41(4) . 1_455 ?
O3 Na1 Na1 131.74(5) 2_665 1_455 ?
O5 Na1 Na1 92.19(5) . 1_455 ?
O1 Na1 Na1 91.44(4) 1_565 1_455 ?
O3 Na1 Na1 41.01(4) 2_565 1_455 ?
O4 Na1 Na1 140.06(4) 1_455 1_655 ?
O4 Na1 Na1 39.59(4) . 1_655 ?
O3 Na1 Na1 48.26(5) 2_665 1_655 ?
O5 Na1 Na1 87.82(5) . 1_655 ?
O1 Na1 Na1 88.56(4) 1_565 1_655 ?
O3 Na1 Na1 138.99(4) 2_565 1_655 ?
Na1 Na1 Na1 180.0 1_455 1_655 ?
O3 C1 C2 135.22(17) . . ?
O3 C1 C4 135.46(16) . . ?
C2 C1 C4 89.31(13) . . ?
O2 C2 C3 132.23(14) . . ?
O2 C2 C1 134.58(14) . . ?
C3 C2 C1 93.19(14) . . ?
O1 C3 C2 135.24(15) . . ?
O1 C3 C4 134.94(14) . . ?
C2 C3 C4 89.79(13) . . ?
O5 C4 C3 136.00(15) . . ?
O5 C4 C1 136.37(16) . . ?
C3 C4 C1 87.63(12) . . ?
C3 O1 Na1 135.64(10) . 1_545 ?
C1 O3 Na1 137.70(13) . 2_464 ?
C1 O3 Na1 105.44(12) . 2_564 ?
Na1 O3 Na1 90.72(6) 2_464 2_564 ?
Na1 O4 Na1 100.47(6) 1_655 . ?
C4 O5 Na1 132.81(13) . . ?
loop_
_geom_bond_atom_site_label_1
_geom_bond_atom_site_label_2
_geom_bond_distance
_geom_bond_site_symmetry_2
_geom_bond_publ_flag
Na1 O4 2.3522(16) 1_455 ?
Na1 O4 2.3694(16) . ?
Na1 O3 2.3820(18) 2_665 ?
Na1 O5 2.4045(15) . ?
Na1 O1 2.4788(13) 1_565 ?
Na1 O3 2.7085(19) 2_565 ?
Na1 Na1 3.6294(6) 1_455 ?
Na1 Na1 3.6294(6) 1_655 ?
C1 O3 1.246(2) . ?
C1 C2 1.436(2) . ?
C1 C4 1.5058(18) . ?
C2 O2 1.3032(19) . ?
C2 C3 1.4287(19) . ?
C3 O1 1.2573(19) . ?
C3 C4 1.500(2) . ?
C4 O5 1.216(2) . ?
loop_
_geom_hbond_atom_site_label_D
_geom_hbond_atom_site_label_H
_geom_hbond_atom_site_label_A
_geom_hbond_distance_DH
_geom_hbond_distance_HA
_geom_hbond_distance_DA
_geom_hbond_angle_DHA
_geom_hbond_site_symmetry_A
_geom_hbond_publ_flag
O2 H1 O1 0.883(19) 1.629(19) 2.5107(16) 178(2) 2_454 yes
O4 H2 O2 0.85(2) 2.00(2) 2.8096(17) 159(3) 1_665 yes
O4 H3 O3 0.86(2) 1.95(2) 2.7987(18) 166(2) 1_655 yes
