#------------------------------------------------------------------------------
#$Date: 2022-03-03 23:09:55 +0200 (Thu, 03 Mar 2022) $
#$Revision: 273255 $
#$URL: file:///home/coder/svn-repositories/cod/cif/4/51/93/4519348.cif $
#------------------------------------------------------------------------------
#
# This file is available in the Crystallography Open Database (COD),
# http://www.crystallography.net/
#
# All data on this site have been placed in the public domain by the
# contributors.
#
data_4519348
loop_
_publ_author_name
'Stepanova, Valeria A.'
'Guerrero, Andres'
'Schull, Cullen'
'Christensen, Joshua'
'Trudeau, Claire'
'Cook, Joshua'
'Wolmutt, Kyle'
'Blochwitz, Jordan'
'Ismail, Abdelrahman'
'West, Joseph K.'
'Wheaton, Amelia M.'
'Guzei, Ilia A.'
'Yao, Bin'
'Kubatova, Alena'
_publ_section_title
;
 Hybrid Synthetic and Computational Study of an Optimized, Solvent-Free
 Approach to Curcuminoids
;
_journal_issue                   8
_journal_name_full               'ACS Omega'
_journal_page_first              7257
_journal_page_last               7277
_journal_paper_doi               10.1021/acsomega.1c07006
_journal_volume                  7
_journal_year                    2022
_chemical_absolute_configuration ad
_chemical_formula_moiety         'C19 H14 Cl2 O2'
_chemical_formula_sum            'C19 H14 Cl2 O2'
_chemical_formula_weight         345.20
_space_group_crystal_system      orthorhombic
_space_group_IT_number           18
_space_group_name_Hall           'P 2 2ab'
_space_group_name_H-M_alt        'P 21 21 2'
_atom_sites_solution_hydrogens   mixed
_atom_sites_solution_primary     dual
_audit_creation_date             2020-03-12
_audit_creation_method
;
Olex2 1.3-alpha
(compiled 2020.02.04 svn.rd84adfe8 for OlexSys, GUI svn.r6032)
;
_cell_angle_alpha                90
_cell_angle_beta                 90
_cell_angle_gamma                90
_cell_formula_units_Z            2
_cell_length_a                   5.0800(11)
_cell_length_b                   27.367(8)
_cell_length_c                   5.5795(14)
_cell_measurement_reflns_used    9966
_cell_measurement_temperature    100.01
_cell_measurement_theta_max      31.5538
_cell_measurement_theta_min      2.9773
_cell_volume                     775.7(3)
_computing_cell_refinement       'SAINT+ Ver. 2018.1-0. (Bruker-AXS, 2018)'
_computing_data_collection       'APEX3 Ver. 2018.1-0. (Bruker-AXS, 2018)'
_computing_data_reduction        'SAINT+ Ver. 2018.1-0. (Bruker-AXS, 2018)'
_computing_molecular_graphics    'OLEX2 (Dolomanov et al., 2009)'
_computing_publication_material  'OLEX2 (Dolomanov et al., 2009)'
_computing_structure_refinement  'XL (Sheldrick, 2015b)'
_computing_structure_solution    'XT (Sheldrick, 2015a)'
_diffrn_ambient_temperature      100.01
_diffrn_detector                 'charge-coupled device (CCD) area detector'
_diffrn_detector_area_resol_mean 7.9
_diffrn_detector_type            'Bruker APEX II'
_diffrn_measured_fraction_theta_full 1.000
_diffrn_measured_fraction_theta_max 1.000
_diffrn_measurement_device       'three-circle diffractometer'
_diffrn_measurement_device_type  'Bruker APEX II Quazar'
_diffrn_measurement_method       '\f and \w scans'
_diffrn_radiation_collimation    'focusing mirrors'
_diffrn_radiation_detector       'Bruker APEX II'
_diffrn_radiation_monochromator  'mirror optics'
_diffrn_radiation_probe          x-ray
_diffrn_radiation_type           'Mo K\a'
_diffrn_radiation_wavelength     0.71073
_diffrn_radiation_xray_symbol    K-L~3~
_diffrn_reflns_av_R_equivalents  0.0316
_diffrn_reflns_av_unetI/netI     0.0171
_diffrn_reflns_Laue_measured_fraction_full 1.000
_diffrn_reflns_Laue_measured_fraction_max 1.000
_diffrn_reflns_limit_h_max       7
_diffrn_reflns_limit_h_min       -7
_diffrn_reflns_limit_k_max       40
_diffrn_reflns_limit_k_min       -39
_diffrn_reflns_limit_l_max       8
_diffrn_reflns_limit_l_min       -8
_diffrn_reflns_number            18806
_diffrn_reflns_point_group_measured_fraction_full 1.000
_diffrn_reflns_point_group_measured_fraction_max 1.000
_diffrn_reflns_theta_full        25.242
_diffrn_reflns_theta_max         31.572
_diffrn_reflns_theta_min         1.488
_diffrn_source                   'microfocus sealed X-ray tube'
_diffrn_source_current           0.6
_diffrn_source_power             0.03
_diffrn_source_type              'Incoatec I\ms'
_diffrn_source_voltage           50.0
_exptl_absorpt_coefficient_mu    0.425
_exptl_absorpt_correction_T_max  0.7462
_exptl_absorpt_correction_T_min  0.7071
_exptl_absorpt_correction_type   multi-scan
_exptl_absorpt_process_details
'SADABS-2016/2 (Krause et al., 2015) was used for absorption correction.'
_exptl_crystal_colour            orange
_exptl_crystal_colour_primary    orange
_exptl_crystal_density_diffrn    1.478
_exptl_crystal_density_method    'not measured'
_exptl_crystal_description       plate
_exptl_crystal_F_000             356
_exptl_crystal_size_max          0.3
_exptl_crystal_size_mid          0.136
_exptl_crystal_size_min          0.05
_refine_diff_density_max         0.387
_refine_diff_density_min         -0.208
_refine_diff_density_rms         0.048
_refine_ls_abs_structure_details
;
 Flack x determined using 1010 quotients [(I+)-(I-)]/[(I+)+(I-)]
 (Parsons, Flack and Wagner, Acta Cryst. B69 (2013) 249-259).
;
_refine_ls_abs_structure_Flack   0.010(15)
_refine_ls_extinction_method     none
_refine_ls_goodness_of_fit_ref   1.139
_refine_ls_hydrogen_treatment    mixed
_refine_ls_matrix_type           full
_refine_ls_number_parameters     108
_refine_ls_number_reflns         2597
_refine_ls_number_restraints     1
_refine_ls_restrained_S_all      1.139
_refine_ls_R_factor_all          0.0230
_refine_ls_R_factor_gt           0.0226
_refine_ls_shift/su_max          0.002
_refine_ls_shift/su_mean         0.000
_refine_ls_structure_factor_coef Fsqd
_refine_ls_weighting_details
'w=1/[\s^2^(Fo^2^)+(0.0282P)^2^+0.1760P] where P=(Fo^2^+2Fc^2^)/3'
_refine_ls_weighting_scheme      calc
_refine_ls_wR_factor_gt          0.0607
_refine_ls_wR_factor_ref         0.0610
_reflns_Friedel_coverage         0.663
_reflns_Friedel_fraction_full    1.000
_reflns_Friedel_fraction_max     0.999
_reflns_number_gt                2557
_reflns_number_total             2597
_reflns_threshold_expression     'I > 2\s(I)'
_cod_data_source_file            ao1c07006_si_005.cif
_cod_data_source_block           stepanova01
_cod_database_code               4519348
_shelx_shelxl_version_number     2018/3
_shelx_space_group_comment
;
The symmetry employed for this shelxl refinement is uniquely defined
by the following loop, which should always be used as a source of
symmetry information in preference to the above space-group names.
They are only intended as comments.
;
_shelx_estimated_absorpt_t_max   0.979
_shelx_estimated_absorpt_t_min   0.883
_olex2_refinement_description
;
1. Fixed Uiso
 At 1.2 times of:
  All C(H) groups
 At 1.5 times of:
  All O(H) groups
2. Restrained distances
 O1-H1
 0.84 with sigma of 0.01
3. Others
 Fixed Sof: H1(0.5)
4.a Aromatic/amide H refined with riding coordinates:
 C2(H2), C3(H3), C5(H5), C6(H6), C7(H7), C8(H8), C10(H10)
;
_shelx_res_file
;
TITL STEPANOVA01_A.RES IN P2(1)2(1)2
    stepanova01.res
    created by SHELXL-2018/3 at 09:27:45 on 12-Mar-2020
REM OLD TITL STEPANOVA01 IN P2(1)2(1)2
REM SHELXT SOLUTION IN P2(1)2(1)2
REM R1 0.060, RWEAK 0.015, ALPHA 0.002, ORIENTATION AS INPUT
REM FLACK X = 0.021 ( 0.016 ) FROM PARSONS' QUOTIENTS
REM FORMULA FOUND BY SHELXT: C19 O2 CL2
REM FCF_FILTER (MSL, UW-MADISON) INSERTED 10 OMIT INSTRUCTIONS
REM FOR OUTLIER REFLECTIONS WITH THE CUTOFF VALUE OF 4.84724.
REM <OLEX2.EXTRAS>
REM <HKLSRC "%.\\STEPANOVA01.HKL">
REM </OLEX2.EXTRAS>
REM The weighting scheme has been updated.
CELL 0.71073 5.08 27.3669 5.5795 90 90 90
ZERR 2 0.0011 0.0081 0.0014 0 0 0
LATT -1
SYMM -X,-Y,+Z
SYMM 0.5-X,0.5+Y,-Z
SYMM 0.5+X,0.5-Y,-Z
SFAC C H Cl O
UNIT 38 28 4 4
EQIV $1 -X,1-Y,+Z
DFIX 0.84 0.01 O1 H1

L.S. 12
PLAN  15
SIZE 0.05 0.136 0.3
TEMP -173.14
CONF
HTAB O1 O1_$1
BOND $H
LIST 4
MORE -1
fmap 2
acta
REM <olex2.extras>
REM <HklSrc "%.\\stepanova01.hkl">
REM </olex2.extras>

WGHT    0.028200    0.176000
FVAR       0.78407
CL1   3    1.334807    0.712102    0.915158    11.00000    0.01517    0.01626 =
         0.01852   -0.00250   -0.00330   -0.00130
O1    4    0.177492    0.531999    0.133910    11.00000    0.02491    0.01949 =
         0.01398    0.00092   -0.00042   -0.00678
H1    2    0.063395    0.511468    0.095720    10.50000   -1.50000
C1    1    1.089771    0.678913    0.771190    11.00000    0.01160    0.01276 =
         0.01477   -0.00264   -0.00050    0.00025
C2    1    0.993666    0.695296    0.552188    11.00000    0.01468    0.01443 =
         0.01561    0.00115   -0.00147   -0.00156
AFIX  43
H2    2    1.057687    0.724710    0.483057    11.00000   -1.20000
AFIX   0
C3    1    0.802113    0.667796    0.436412    11.00000    0.01470    0.01479 =
         0.01445    0.00108   -0.00085   -0.00143
AFIX  43
H3    2    0.735435    0.678632    0.286478    11.00000   -1.20000
AFIX   0
C4    1    0.705191    0.624341    0.536532    11.00000    0.01183    0.01295 =
         0.01330   -0.00054    0.00057   -0.00014
C5    1    0.806027    0.609216    0.758536    11.00000    0.01592    0.01254 =
         0.01493    0.00132   -0.00003   -0.00014
AFIX  43
H5    2    0.741495    0.580052    0.829779    11.00000   -1.20000
AFIX   0
C6    1    0.998208    0.636091    0.875760    11.00000    0.01545    0.01407 =
         0.01327    0.00020   -0.00064    0.00095
AFIX  43
H6    2    1.066293    0.625384    1.025392    11.00000   -1.20000
AFIX   0
C7    1    0.511277    0.595290    0.405361    11.00000    0.01439    0.01387 =
         0.01510   -0.00087   -0.00110   -0.00038
AFIX  43
H7    2    0.490711    0.601680    0.239056    11.00000   -1.20000
AFIX   0
C8    1    0.360180    0.560267    0.502474    11.00000    0.01398    0.01441 =
         0.01554   -0.00069   -0.00063   -0.00077
AFIX  43
H8    2    0.373985    0.554723    0.670084    11.00000   -1.20000
AFIX   0
C9    1    0.176560    0.530271    0.366851    11.00000    0.01380    0.01148 =
         0.01708   -0.00065   -0.00088    0.00091
C10   1    0.000000    0.500000    0.490308    10.50000    0.01511    0.01292 =
         0.01361    0.00000    0.00000   -0.00109
AFIX  43
H10   2   -0.000004    0.500002    0.660574    10.50000   -1.20000
AFIX   0
HKLF 4




REM  STEPANOVA01_A.RES IN P2(1)2(1)2
REM wR2 = 0.0610, GooF = S = 1.139, Restrained GooF = 1.139 for all data
REM R1 = 0.0226 for 2557 Fo > 4sig(Fo) and 0.0230 for all 2597 data
REM 108 parameters refined using 1 restraints

END

WGHT      0.0282      0.1760

REM Highest difference peak  0.387,  deepest hole -0.208,  1-sigma level  0.048
Q1    1   0.9001  0.6797  0.5069  11.00000  0.05    0.39
Q2    1   0.2648  0.5477  0.4280  11.00000  0.05    0.34
Q3    1   0.7484  0.6490  0.4969  11.00000  0.05    0.34
Q4    1   1.0379  0.6587  0.8263  11.00000  0.05    0.33
Q5    1  -0.1042  0.4884  0.4303  11.00000  0.05    0.29
Q6    1   0.6023  0.6092  0.4848  11.00000  0.05    0.28
Q7    1   0.4584  0.5698  0.4423  11.00000  0.05    0.27
Q8    1   1.0177  0.6891  0.6696  11.00000  0.05    0.27
Q9    1   0.8797  0.6281  0.8174  11.00000  0.05    0.25
Q10   1   0.7671  0.6185  0.6439  11.00000  0.05    0.23
Q11   1   1.3140  0.7080  1.0522  11.00000  0.05    0.18
Q12   1   0.1701  0.5301  0.2530  11.00000  0.05    0.17
Q13   1   1.2505  0.7403  0.8968  11.00000  0.05    0.15
Q14   1   1.1882  0.6919  0.8277  11.00000  0.05    0.14
Q15   1   1.0813  0.6846  0.5117  11.00000  0.05    0.14
;
_shelx_res_checksum              94968
_shelx_hkl_file
;
  -1   0   0    0.80    0.30
   1   0   0    0.60    0.20
   1   0   0   -0.10    0.10
   1   0   0    0.30    0.20
   1   0   0    0.20    0.20
  -1   0   0    0.20    0.20
  -1   0   0   -0.10    0.10
   2   0   0  330.77   11.60
  -2   0   0  305.87   11.90
   2   0   0  329.47   11.60
  -2   0   0  314.87   11.30
  -2   0   0  344.97   11.80
   2   0   0  325.97   12.10
   2   0   0  337.47   11.20
   3   0   0    0.20    0.40
   3   0   0    0.40    0.40
  -3   0   0   -0.10    0.30
  -3   0   0    0.50    0.40
   3   0   0    0.00    0.30
  -3   0   0    0.20    0.30
   4   0   0    0.70    0.70
   4   0   0    0.40    0.50
  -4   0   0    1.90    0.80
   4   0   0    0.40    0.60
   5   0   0   -0.10    0.70
   5   0   0    0.40    0.60
  -5   0   0   -0.30    0.60
   5   0   0    0.30    0.50
   6   0   0 1049.40   37.30
   6   0   0 1039.50   37.50
  -6   0   0 1061.59   38.00
  -7   0   0    0.90    1.00
   7   0   0    0.00    0.80
   7   0   0    0.50    0.80
   1   1   0  557.24   17.20
   1   1   0  519.65   17.50
   1  -1   0  519.35   17.30
   1  -1   0  506.15   17.40
   1   1   0  496.05   17.40
   1  -1   0  483.95   17.70
   1  -1   0  487.55   17.40
  -1   1   0  486.45   17.60
   1   1   0  517.35   17.70
  -1  -1   0  502.85   17.50
  -1  -1   0  565.14   17.60
  -1   1   0  494.15   17.40
  -1   1   0  495.05   17.50
  -2   1   0  673.13   23.90
   2   1   0  688.33   23.70
  -2  -1   0  674.63   24.20
  -2   1   0  777.62   24.60
   2  -1   0  707.93   24.10
  -2   1   0  671.23   24.20
   2  -1   0  688.23   24.10
  -2  -1   0  755.32   24.50
  -2  -1   0  670.63   23.70
   2  -1   0  701.23   23.80
   2   1   0  701.53   24.20
   2  -1   0  690.63   24.60
   3  -1   0   13.90    1.50
   3   1   0   13.90    1.80
   3  -1   0   11.90    1.30
  -3   1   0   12.20    0.90
  -3   1   0   10.80    1.20
  -3   1   0   13.10    1.40
   3  -1   0   14.50    1.20
  -3  -1   0   14.00    1.40
   3   1   0   11.60    1.20
  -3  -1   0   12.60    1.30
  -3  -1   0   12.40    0.80
   3   1   0   15.40    1.20
   4   1   0  637.94   23.00
   4  -1   0  607.54   23.00
   4  -1   0  592.14   22.00
   4  -1   0  604.04   21.90
   4   1   0  632.34   22.00
  -4   1   0  631.64   22.40
   4   1   0  615.64   22.10
  -4  -1   0  599.14   22.20
   5  -1   0   68.89    3.80
   5   1   0   72.49    4.80
   5   1   0   72.99    4.00
   5   1   0   75.79    3.90
   5  -1   0   71.59    4.70
   5  -1   0   74.99    4.00
  -5   1   0   66.19    4.10
  -5  -1   0   74.29    4.20
  -6  -1   0    0.90    0.80
   6  -1   0    0.60    0.80
   6   1   0    0.60    0.70
   6   1   0    1.10    0.80
   6  -1   0   -0.10    0.60
  -6   1   0    1.00    0.90
   7   1   0    7.50    1.60
   7  -1   0    7.80    1.70
   7  -1   0   10.90    2.10
  -7   1   0    7.90    1.90
  -7  -1   0    9.40    2.00
   7   1   0    8.50    1.80
   0   2   0   79.09    2.60
   0  -2   0   72.99    2.60
   0   2   0   74.49    2.70
   0   2   0   73.69    2.60
  -1  -2   0    1.30    0.30
   1   2   0    1.00    0.30
   1   2   0    0.90    0.30
  -1   2   0    1.50    0.40
  -1   2   0    1.40    0.30
   1  -2   0    1.40    0.30
   1  -2   0    1.30    0.20
   1  -2   0    1.30    0.30
   1   2   0    0.60    0.20
  -1   2   0    2.70    0.40
   1  -2   0    2.10    0.40
   2   2   0    2.30    0.20
   2  -2   0    1.80    0.30
   2   2   0    1.60    0.40
   2  -2   0    2.20    0.50
  -2   2   0    2.20    0.40
  -2   2   0    2.20    0.50
   2   2   0    2.00    0.50
  -2   2   0    2.10    0.50
   2  -2   0    2.20    0.50
  -2  -2   0    1.50    0.40
  -2  -2   0    2.00    0.30
   2   2   0    0.80    0.40
  -2  -2   0    2.40    0.60
   2  -2   0    1.80    0.50
  -3  -2   0  393.46   14.00
   3  -2   0  417.46   14.70
   3  -2   0  406.36   14.20
   3   2   0  442.06   14.80
   3   2   0  383.16   15.30
  -3  -2   0  421.26   14.90
   3   2   0  421.86   14.70
  -3  -2   0  372.96   14.90
  -3   2   0  410.06   14.90
  -3   2   0  402.06   14.40
   3  -2   0  401.66   14.60
  -3   2   0  435.06   15.30
   4  -2   0   27.30    1.80
   4   2   0   18.90    2.10
  -4   2   0   25.40    2.00
   4   2   0   26.30    1.90
   4  -2   0   21.20    2.20
  -4   2   0   23.50    2.20
  -4  -2   0   23.20    1.90
  -4   2   0   24.20    1.50
   4  -2   0   26.10    1.90
   4   2   0   23.90    1.90
   5   2   0  172.68    8.40
   5  -2   0  173.98    7.30
   5  -2   0  171.58    7.40
  -5  -2   0  154.98    7.50
  -5   2   0  161.48    7.60
   5  -2   0  174.98    8.50
   5   2   0  172.88    7.50
   5   2   0  179.08    7.40
   6   2   0   12.80    1.90
   6  -2   0   14.50    1.90
  -6  -2   0   14.30    2.20
   6   2   0   17.80    2.20
   6  -2   0   15.80    2.10
  -6   2   0   20.10    2.70
  -7  -2   0    5.00    1.60
   7   2   0    3.20    1.30
  -7   2   0    3.20    1.40
   7   2   0    4.70    1.50
   7  -2   0    6.40    1.60
   7  -2   0    4.30    1.30
   0  -3   0    0.10    0.10
   0  -3   0    0.00    0.10
   0   3   0    0.30    0.10
   0   3   0    0.20    0.10
   0  -3   0    0.30    0.10
   0   3   0    0.10    0.10
   0   3   0    0.10    0.10
   1  -3   0   53.69    2.00
   1   3   0   56.09    2.20
   1   3   0   53.89    2.30
  -1  -3   0   52.49    2.20
   1  -3   0   52.99    2.10
  -1   3   0   51.29    2.20
  -1   3   0   47.00    2.20
  -1   3   0   56.09    2.20
   1  -3   0   54.49    2.40
   1   3   0   52.79    2.10
  -2   3   0  486.55   16.80
  -2  -3   0  470.65   16.30
   2   3   0  497.95   16.90
  -2  -3   0  482.35   17.00
  -2  -3   0  441.66   17.00
   2  -3   0  477.95   16.80
   2   3   0  490.05   17.30
  -2   3   0  497.45   17.00
  -2   3   0  468.75   17.20
   2  -3   0  475.15   16.60
   2   3   0  507.45   16.30
   2  -3   0  486.35   16.70
   2   3   0  486.65   16.90
  -3   3   0  898.91   32.00
   3  -3   0  906.21   31.70
  -3  -3   0  872.91   30.90
   3  -3   0  925.21   32.50
  -3  -3   0  887.91   32.10
   3   3   0  961.80   31.80
  -3  -3   0  914.31   31.90
   3   3   0  923.01   32.40
   3  -3   0  923.51   31.60
   3   3   0  940.91   31.80
  -3   3   0  942.61   32.40
  -3   3   0  930.71   31.60
   3  -3   0  897.01   31.30
   4   3   0  273.17   11.00
  -4   3   0  287.77   10.50
   4  -3   0  284.97   10.90
  -4   3   0  293.07   11.70
   4   3   0  288.57   11.00
  -4  -3   0  278.07   11.20
   4  -3   0  277.97   10.80
  -4   3   0  279.97   11.20
   4   3   0  277.97   11.70
   4  -3   0  320.47   12.10
  -5  -3   0   72.09    4.20
   5  -3   0   77.89    3.90
   5   3   0   75.29    4.10
   5   3   0   75.09    4.80
  -5   3   0   73.79    4.30
   5   3   0   77.89    4.10
   5  -3   0   69.59    3.90
  -6   3   0   27.70    3.10
  -6  -3   0   23.90    2.80
   6  -3   0   25.60    2.70
   6   3   0   29.50    2.50
   6   3   0   25.00    2.80
   6  -3   0   28.90    2.40
   7   3   0   13.80    2.20
   7  -3   0   14.00    2.30
   7   3   0   12.80    2.20
  -7  -3   0   15.70    2.60
  -7   3   0   15.10    2.50
   7  -3   0   16.10    2.20
   0   4   0   18.80    0.80
   0   4   0   18.30    0.80
   0  -4   0   18.40    0.70
   0   4   0   18.50    0.90
   0   4   0   18.70    0.80
   0   4   0   19.00    0.70
   1  -4   0   11.00    0.70
  -1   4   0   10.60    0.80
   1   4   0   10.80    0.50
  -1   4   0   11.50    0.70
   1  -4   0   11.90    0.60
   1  -4   0   11.80    0.90
  -1  -4   0   10.40    0.70
   1   4   0   10.50    0.80
  -1   4   0    9.80    0.80
   2   4   0  144.39    5.70
  -2   4   0  132.59    5.60
  -2   4   0  137.89    5.30
  -2  -4   0  144.69    5.40
   2  -4   0  134.09    5.10
   2  -4   0  132.29    5.70
   2   4   0  143.29    5.40
   2   4   0  145.19    5.40
   2  -4   0  138.89    5.20
   2  -4   0  136.29    5.30
  -2   4   0  134.59    5.40
   3  -4   0   80.39    3.30
   3  -4   0   81.39    4.20
   3  -4   0   76.69    3.50
   3   4   0   82.29    3.70
   3  -4   0   78.99    3.40
   3   4   0   73.59    3.60
   3   4   0   85.49    4.10
  -3   4   0   71.79    3.40
  -3  -4   0   80.79    3.70
  -3   4   0   78.49    4.00
  -3   4   0   78.29    3.80
  -3  -4   0   79.09    3.80
   4  -4   0  301.07   11.10
   4   4   0  286.87   11.30
  -4   4   0  300.67   11.70
   4  -4   0  305.77   12.30
   4  -4   0  301.77   11.30
   4   4   0  298.07   11.40
  -4   4   0  288.37   12.00
  -4   4   0  303.37   11.00
   4   4   0  291.07   12.10
  -4  -4   0  286.87   11.50
   5  -4   0    8.80    1.50
   5  -4   0    8.10    1.30
  -5  -4   0    8.40    1.50
   5   4   0    9.80    1.90
   5   4   0   10.60    1.60
   5   4   0    7.80    1.40
  -5   4   0    6.00    1.40
  -6   4   0   65.89    4.30
   6  -4   0   60.59    3.70
   6   4   0   56.79    3.80
   6   4   0   73.79    5.20
   6  -4   0   60.99    3.80
  -6  -4   0   64.19    4.20
   6   4   0   58.69    3.90
   7   4   0    3.40    1.30
   7  -4   0    2.40    1.20
  -7  -4   0    3.40    1.40
   7  -4   0    2.20    1.10
  -7   4   0    2.70    1.30
   7   4   0    5.10    1.50
   0   5   0    0.10    0.20
   0  -5   0    0.10    0.10
   0  -5   0    0.20    0.10
   0   5   0    0.50    0.10
   0   5   0    0.20    0.10
   0   5   0    0.30    0.10
   0  -5   0    0.30    0.10
   0   5   0    0.10    0.10
   1   5   0 1202.88   40.50
   1   5   0 1201.78   40.50
   1   5   0 1186.18   40.60
  -1  -5   0 1210.88   40.50
   1  -5   0 1240.78   40.30
  -1   5   0 1153.28   40.70
   1  -5   0 1215.18   40.60
   1   5   0 1198.18   40.30
  -1   5   0 1196.08   40.70
  -1   5   0 1160.68   40.50
   2  -5   0   54.39    2.20
   2   5   0   51.29    2.40
  -2   5   0   48.20    2.40
   2   5   0   50.59    2.40
  -2   5   0   50.59    2.70
  -2   5   0   55.19    2.50
   2   5   0   48.90    2.60
   2  -5   0   51.49    2.30
   2  -5   0   56.99    2.80
  -2  -5   0   51.29    2.40
   2  -5   0   50.99    2.30
  -3   5   0  735.63   26.20
  -3  -5   0  715.03   26.20
  -3   5   0  667.53   26.40
  -3  -5   0  735.53   26.10
   3  -5   0  764.32   25.80
   3  -5   0  743.53   25.90
   3  -5   0  704.53   26.70
   3  -5   0  754.12   25.70
  -3   5   0  730.43   25.90
   3   5   0  767.52   26.10
   3   5   0  868.41   26.80
   3   5   0  736.13   26.00
  -4   5   0   29.50    1.80
   4  -5   0   27.70    1.80
  -4  -5   0   26.40    2.00
   4   5   0   25.90    2.00
   4   5   0   25.10    2.30
   4   5   0   23.40    1.90
  -4   5   0   29.00    2.40
   4  -5   0   25.90    1.90
   4  -5   0   25.00    2.40
  -4   5   0   25.90    2.10
   5  -5   0    5.80    1.10
   5   5   0    3.70    1.40
  -5   5   0    4.50    1.30
  -5  -5   0    4.50    1.20
   5   5   0    4.60    1.10
   5   5   0    5.30    1.20
   5  -5   0    5.10    1.10
   6   5   0   45.70    4.00
   6  -5   0   40.40    2.80
  -6   5   0   43.90    3.50
  -6  -5   0   38.00    3.20
   6  -5   0   41.50    3.00
   6   5   0   40.00    3.20
   6   5   0   47.40    3.30
  -7   5   0    4.70    1.60
   7  -5   0    4.10    1.30
  -7  -5   0    4.90    1.60
   7  -5   0    5.10    1.40
   7   5   0    6.70    1.60
   7   5   0   10.00    1.90
   0   6   0  568.24   18.80
   0  -6   0  561.04   18.90
   0   6   0  555.24   19.20
   0   6   0  586.74   18.90
   0   6   0  547.55   19.00
   0   6   0  533.35   18.90
   0  -6   0  551.24   18.90
  -1   6   0 9421.66  309.57
  -1   6   0 8217.08  308.07
   1   6   0 9557.24  307.67
   1   6   0 9999.00  309.57
   1   6   0 8807.22  308.57
  -1   6   0 9155.08  309.57
  -1  -6   0 9090.09  308.37
   1  -6   0 9020.20  306.97
   1  -6   0 8568.54  307.97
   1  -6   0 9479.55  308.67
  -2  -6   0   10.50    0.90
   2  -6   0   12.40    1.50
  -2   6   0    9.70    1.00
   2  -6   0    9.40    0.90
   2  -6   0    8.90    0.70
   2  -6   0    9.80    0.80
  -2   6   0    8.90    1.00
  -2   6   0    8.90    1.00
   2   6   0    9.20    0.90
   2   6   0    7.40    0.80
   2   6   0   10.20    1.00
   3   6   0   10.20    1.20
  -3   6   0    9.60    1.10
   3  -6   0   10.50    1.00
   3  -6   0    7.70    1.00
   3  -6   0   10.80    0.90
  -3  -6   0   10.10    1.20
   3  -6   0   14.60    1.60
  -3   6   0   10.90    1.50
  -3   6   0    8.90    1.20
   3   6   0   11.00    1.40
   3   6   0    9.00    1.20
   4  -6   0   16.80    1.70
  -4   6   0   16.70    1.60
   4   6   0   12.50    1.50
  -4   6   0   12.80    1.80
  -4  -6   0   16.70    1.80
  -4   6   0   14.60    2.00
   4   6   0   19.30    2.40
   4   6   0   11.90    1.50
   4  -6   0   14.30    1.40
   4  -6   0   15.10    2.20
   5  -6   0  509.45   18.70
  -5   6   0  487.85   19.50
   5  -6   0  508.55   18.90
  -5  -6   0  517.95   19.30
   5   6   0  555.34   20.40
   5   6   0  522.45   19.20
   5   6   0  498.75   19.20
   6   6   0    3.90    1.30
   6  -6   0    4.50    1.10
  -6  -6   0    3.90    1.30
   6   6   0    5.50    1.80
   6   6   0    4.40    1.30
   6  -6   0    5.30    1.30
  -6   6   0    2.00    1.00
   7  -6   0  208.08    9.40
   7   6   0  222.58    9.80
  -7   6   0  214.98   10.30
   7   6   0  215.08    9.70
  -7  -6   0  199.28    9.80
   0   7   0    0.80    0.20
   0   7   0    0.50    0.20
   0  -7   0    0.90    0.20
   1   7   0 2346.87   84.79
   1  -7   0 2424.66   84.99
   1  -7   0 2421.76   85.09
   1   7   0 2529.65   84.99
   1   7   0 2741.53   86.19
  -1   7   0 2435.36   85.19
   1  -7   0 2469.35   84.79
  -1  -7   0 2412.96   84.89
   1   7   0 2528.15   84.89
   1   7   0 2795.92   85.89
  -1   7   0 2663.23   86.89
  -1   7   0 2468.15   84.89
  -2   7   0  201.18    7.60
   2  -7   0  194.58    7.20
   2  -7   0  201.28    7.30
  -2   7   0  193.28    7.50
  -2   7   0  200.18    7.70
  -2  -7   0  200.18    7.40
   2  -7   0  184.48    7.80
   2  -7   0  197.78    7.10
   2   7   0  192.18    7.60
   2   7   0  201.48    7.40
   2   7   0  201.38    6.70
   2   7   0  203.78    7.50
  -3   7   0  613.74   22.20
  -3   7   0  608.54   22.40
   3   7   0  612.54   22.30
   3   7   0  669.73   22.80
   3  -7   0  592.84   21.80
   3  -7   0  633.74   23.00
  -3  -7   0  626.94   22.30
  -3   7   0  706.53   23.00
   3   7   0  616.14   22.30
   3  -7   0  617.14   21.90
   3  -7   0  626.64   22.10
  -4   7   0   16.60    2.30
  -4   7   0   10.10    1.50
   4   7   0   12.90    1.60
  -4  -7   0   16.50    1.80
   4   7   0   11.90    1.60
   4   7   0   18.90    2.00
  -4   7   0   13.80    1.50
   4  -7   0   13.20    1.40
   4  -7   0   14.40    1.60
   4  -7   0   17.00    2.70
   5   7   0  132.49    7.40
  -5   7   0  150.58    7.20
   5   7   0  157.78    6.90
   5   7   0  155.58    6.90
   5  -7   0  157.58    6.70
   5  -7   0  145.09    6.30
  -5  -7   0  157.88    7.00
   6  -7   0    0.40    0.80
  -6   7   0    0.60    0.80
   6   7   0    1.00    0.90
   6   7   0    0.50    1.00
   6   7   0    0.70    0.90
  -6  -7   0    0.30    0.80
   6  -7   0    1.20    0.80
  -7  -7   0  141.49    7.40
   7   7   0  146.19    7.40
  -7   7   0  135.59    7.70
   7   7   0  143.09    7.30
   7  -7   0  150.68    7.10
   0   8   0  318.07   10.50
   0   8   0  307.47   10.70
   0  -8   0  305.27   10.60
   0  -8   0  298.77   10.80
   0   8   0  298.27   10.90
   0   8   0  309.47   10.60
   0   8   0  323.07   10.70
   0  -8   0  301.87   10.50
  -1   8   0    0.50    0.20
   1  -8   0    0.20    0.20
   1   8   0    0.80    0.30
   1   8   0    0.80    0.30
  -1   8   0    0.30    0.30
   1   8   0    0.50    0.20
   1   8   0    0.30    0.20
  -1   8   0    0.30    0.30
   1   8   0    0.60    0.20
  -1  -8   0    0.90    0.30
   1  -8   0    1.00    0.30
  -2   8   0    9.00    1.00
   2   8   0    9.30    1.00
   2  -8   0    9.40    0.60
   2   8   0    8.10    0.90
   2  -8   0    8.60    0.90
  -2  -8   0    7.80    0.90
   2   8   0    7.40    1.00
   2   8   0    9.30    0.50
  -2   8   0    7.70    1.10
  -2   8   0    8.40    1.10
   2  -8   0    9.10    1.00
   2  -8   0   11.10    1.20
   3  -8   0    2.40    0.50
  -3  -8   0    2.10    0.60
  -3   8   0    2.40    0.70
  -3   8   0    1.40    0.60
   3   8   0    2.00    0.70
   3   8   0    2.60    0.70
   3  -8   0    1.60    0.50
   3  -8   0    1.90    0.70
   3  -8   0    1.40    0.50
   3   8   0    2.00    0.60
  -3   8   0    2.80    0.90
   4   8   0  257.47   10.00
  -4   8   0  241.88    9.70
   4   8   0  254.77   10.00
  -4   8   0  257.17   10.20
   4  -8   0  258.97    9.50
  -4   8   0  241.48   10.50
   4  -8   0  239.18    9.60
  -4  -8   0  252.57   10.00
   4   8   0  255.37   10.60
   5  -8   0   99.39    4.80
   5   8   0   87.99    5.50
   5  -8   0   97.09    4.50
  -5  -8   0  103.59    5.10
   5   8   0   99.69    5.00
  -5   8   0   97.69    5.30
   5   8   0   95.09    5.00
   6  -8   0    1.30    0.90
  -6  -8   0    0.80    0.80
   6   8   0    0.30    0.80
   6  -8   0    0.40    0.60
  -6   8   0   -0.80    0.60
   6   8   0    0.50    0.70
   6   8   0    0.30    1.00
  -7  -8   0   11.70    2.20
  -7   8   0   10.80    2.30
   7   8   0   12.30    2.30
   7  -8   0    8.70    1.70
   7   8   0    8.80    1.90
   0  -9   0    0.30    0.20
   0   9   0    0.10    0.30
   0  -9   0    0.20    0.20
   0  -9   0    0.30    0.20
   0   9   0    0.10    0.20
   0   9   0    1.30    0.30
   0   9   0    0.30    0.20
   0   9   0    0.50    0.20
   1   9   0  268.37    9.30
   1   9   0  258.47    9.30
  -1  -9   0  266.07    9.30
   1  -9   0  254.97    8.90
  -1   9   0  261.97    9.40
   1   9   0  250.07    9.30
   1  -9   0  262.57    9.50
  -1   9   0  249.58    9.70
   1  -9   0  262.57    9.20
   1   9   0  289.37    9.30
  -1   9   0  269.07    9.50
   1   9   0  249.48    9.30
   2  -9   0 1208.08   39.70
   2   9   0 1138.99   38.60
  -2   9   0 1138.89   39.50
   2   9   0 1153.88   39.20
   2   9   0 1221.38   39.40
   2   9   0 1082.79   39.40
  -2   9   0 1121.89   39.30
   2   9   0 1142.79   39.20
  -2  -9   0 1142.49   39.10
   2  -9   0 1143.69   39.20
   2  -9   0 1114.79   38.70
   2  -9   0 1117.09   39.00
  -2   9   0 1131.69   39.40
   3   9   0  501.35   18.30
   3  -9   0  489.75   17.70
  -3   9   0  513.95   18.10
   3   9   0  505.85   17.90
   3   9   0  512.45   18.00
   3  -9   0  497.95   17.70
   3  -9   0  455.95   18.50
  -3   9   0  481.85   18.00
  -3  -9   0  507.95   17.90
   3  -9   0  483.25   17.40
  -3   9   0  530.25   18.50
  -4  -9   0  679.33   24.50
   4   9   0  653.03   25.00
   4   9   0  672.33   24.50
  -4   9   0  702.53   24.80
  -4   9   0  733.13   25.40
   4   9   0  673.73   24.50
   4  -9   0  683.53   23.90
   4  -9   0  654.83   24.10
  -4   9   0  681.33   24.40
   5  -9   0   68.69    3.50
   5  -9   0   69.99    3.80
  -5  -9   0   68.79    4.00
   5   9   0   62.29    3.90
  -5   9   0   76.39    4.40
   5   9   0   71.09    4.10
   5   9   0   78.89    4.80
   6   9   0   16.90    2.80
  -6   9   0   13.30    2.30
   6   9   0   14.10    2.10
   6  -9   0   14.30    1.90
  -6  -9   0   13.70    2.10
   6   9   0   17.60    2.40
  -7   9   0    2.80    1.40
  -7  -9   0    1.30    1.20
   7   9   0    2.10    1.30
   7  -9   0    1.70    1.00
   7   9   0    1.50    1.20
   0  10   0 1509.05   48.00
   0  10   0 1406.86   48.20
   0  10   0 1412.26   48.10
   0 -10   0 1450.55   48.00
   0 -10   0 1420.56   48.10
   0  10   0 1411.06   48.50
   0  10   0 1355.16   48.60
   1  10   0  918.01   32.20
  -1  10   0 1040.40   32.30
   1  10   0  930.31   32.10
   1 -10   0  925.01   31.70
   1  10   0  944.71   32.10
   1  10   0  939.71   32.10
   1  10   0  922.81   32.10
   1 -10   0  951.70   32.10
  -1  10   0  912.61   32.20
  -1  10   0  905.61   32.60
  -1 -10   0  973.20   32.10
   2  10   0   94.89    4.30
  -2  10   0   97.69    4.50
   2  10   0   99.89    3.80
   2 -10   0  101.09    4.10
   2  10   0  102.29    4.30
  -2  10   0  112.59    4.60
   2 -10   0  102.89    4.70
   2 -10   0  105.99    4.30
   2  10   0  105.59    4.40
   2 -10   0  103.59    3.80
  -2  10   0  104.39    4.40
   2  10   0  107.39    4.30
  -3  10   0   55.49    3.10
   3 -10   0   56.19    2.70
   3  10   0   57.19    3.00
   3  10   0   56.09    3.00
   3 -10   0   55.79    2.50
  -3  10   0   59.99    3.10
  -3  10   0   63.49    3.50
   3  10   0   50.39    3.10
   3 -10   0   53.09    3.40
   4 -10   0   26.20    1.70
   4  10   0   26.30    2.10
  -4  10   0   26.00    2.40
  -4  10   0   27.80    2.70
   4 -10   0   26.20    1.90
   4  10   0   30.00    2.50
  -4 -10   0   27.10    2.00
   4  10   0   26.60    2.10
  -4  10   0   26.70    2.10
   5  10   0  168.88    8.40
   5  10   0  178.68    7.90
   5  10   0  178.68    7.80
  -5 -10   0  176.78    7.80
   5 -10   0  174.28    7.40
  -5  10   0  170.78    8.10
   5 -10   0  178.58    7.10
   6  10   0  135.49    6.60
   6 -10   0  133.29    6.20
   6  10   0  114.29    7.10
   6  10   0  127.89    6.40
  -6  10   0  125.99    6.80
  -6 -10   0  124.29    6.40
   7 -10   0  153.08    7.20
  -7  10   0  135.49    7.80
   7  10   0  141.49    7.40
   7  10   0  153.88    7.80
  -7 -10   0  144.59    7.50
   0 -11   0    1.70    0.30
   0  11   0    0.80    0.30
   0  11   0    0.50    0.30
   1 -11   0   69.19    2.80
   1  11   0   71.59    2.90
  -1  11   0   69.59    2.90
   1  11   0   61.09    2.70
   1  11   0   71.19    2.90
  -1  11   0   71.89    3.00
   1  11   0   70.19    3.00
   1 -11   0   66.69    2.40
  -1 -11   0   69.19    2.80
   1 -11   0   71.59    3.10
  -2 -11   0    0.20    0.30
   2 -11   0    0.60    0.20
   2 -11   0    0.60    0.40
  -2  11   0    0.50    0.40
   2  11   0    0.00    0.30
   2  11   0    0.40    0.20
   2  11   0    0.60    0.40
  -2  11   0   -0.10    0.30
  -2  11   0   -0.20    0.40
   2 -11   0    0.20    0.20
   2  11   0    0.60    0.40
   2  11   0    0.40    0.30
  -3 -11   0  391.86   14.50
   3  11   0  407.76   14.60
  -3  11   0  391.46   14.80
   3  11   0  406.96   14.90
  -3  11   0  398.06   14.80
   3  11   0  386.76   14.50
  -3  11   0  399.26   15.20
   3 -11   0  407.86   14.30
   3 -11   0  386.56   13.90
   4  11   0    0.60    0.60
  -4  11   0    0.90    0.70
   4  11   0    1.60    0.80
  -4  11   0    0.30    0.60
   4 -11   0    1.10    0.50
   4 -11   0    1.50    0.70
   4  11   0    1.20    0.60
  -4  11   0    1.40    0.80
  -4 -11   0    1.10    0.60
  -5  11   0   -0.20    0.70
   5  11   0    0.40    0.60
   5 -11   0    0.30    0.60
   5  11   0    0.30    0.80
   5  11   0    0.70    0.70
  -5 -11   0    1.40    0.80
  -6 -11   0    6.30    1.50
   6  11   0    5.60    1.50
   6  11   0    8.70    2.10
   6  11   0    6.40    1.50
   6 -11   0    6.60    1.50
  -6  11   0    7.80    1.90
  -7 -11   0   13.20    2.30
   7  11   0    7.00    1.80
   7  11   0   19.50    4.90
   7  11   0   11.50    2.20
   7 -11   0    8.60    1.60
  -7  11   0    9.90    2.30
   0  12   0 2588.04   88.99
   0  12   0 2963.10   89.39
   0  12   0 2507.95   88.49
   0  12   0 2656.63   88.09
   0 -12   0 2471.25   87.99
   0  12   0 2498.95   88.09
   1  12   0   63.39    2.50
  -1  12   0   55.49    2.90
   1  12   0   58.69    2.60
   1 -12   0   56.89    2.10
  -1  12   0   54.89    2.60
   1 -12   0   58.09    2.70
   1 -12   0   57.29    2.40
   1  12   0   56.19    2.50
   1  12   0   56.89    2.40
  -1  12   0   67.89    3.20
  -1  12   0   55.39    2.60
  -2  12   0  556.74   20.10
   2  12   0  565.74   20.00
  -2  12   0  570.54   20.30
   2  12   0  543.35   20.00
   2  12   0  582.94   19.60
   2  12   0  513.35   19.90
   2 -12   0  576.04   20.10
  -2  12   0  599.54   20.50
   2 -12   0  594.64   19.80
   2 -12   0  568.64   19.30
  -2 -12   0  574.44   19.90
   2  12   0  573.64   20.00
  -3  12   0    1.00    0.60
  -3  12   0    1.20    0.60
   3  12   0    0.60    0.50
  -3  12   0    0.60    0.50
   3 -12   0    1.10    0.50
   3  12   0    0.20    0.40
   3  12   0    0.60    0.50
   3 -12   0    0.70    0.30
  -3 -12   0    0.90    0.40
   4  12   0  113.09    5.20
  -4  12   0  103.89    5.30
  -4  12   0  114.59    5.20
  -4  12   0  103.59    5.60
  -4 -12   0  103.99    5.00
   4  12   0  110.59    5.10
   4 -12   0  104.79    4.70
   4  12   0  102.19    5.40
   4 -12   0  103.69    4.40
   5  12   0   12.60    1.80
  -5  12   0   21.60    2.40
   5  12   0   14.80    2.30
   5  12   0   14.70    2.00
   5 -12   0   14.30    1.70
  -5  12   0   15.30    2.20
  -5 -12   0   14.20    1.90
  -6 -12   0  331.67   13.50
   6  12   0  318.47   13.50
   6  12   0  319.27   14.40
   6 -12   0  341.87   13.20
   6  12   0  343.37   13.70
  -6  12   0  340.67   14.20
   7  12   0   13.10    2.30
  -7  12   0   12.90    2.50
   7  12   0   16.30    2.60
  -7 -12   0    8.90    1.90
   7  12   0   12.00    2.60
   7 -12   0   13.00    2.00
  -1  13   0  216.58    7.80
  -1  13   0  209.38    7.80
   1  13   0  214.18    7.70
  -1 -13   0  215.98    7.70
   1  13   0  202.48    7.90
  -1  13   0  210.48    8.00
   1  13   0  208.98    7.70
   1  13   0  204.88    7.60
   1 -13   0  214.98    7.60
   2  13   0 1282.17   45.20
  -2  13   0 1312.47   45.30
   2 -13   0 1280.67   44.40
  -2 -13   0 1346.67   45.10
   2 -13   0 1385.16   45.40
   2  13   0 1323.87   45.20
   2  13   0 1354.56   44.80
   2  13   0 1331.47   45.30
   2  13   0 1313.97   45.20
   2 -13   0 1313.37   45.00
  -2  13   0 1245.08   45.50
  -2  13   0 1347.07   45.80
   3  13   0  116.19    5.00
   3 -13   0  110.99    4.70
  -3  13   0  107.69    5.10
  -3  13   0  115.99    5.50
  -3 -13   0  110.89    4.80
   3  13   0  110.49    5.00
   3 -13   0  113.69    4.20
  -3  13   0  108.29    5.20
   3  13   0  105.19    5.10
  -4  13   0   94.49    4.90
   4 -13   0   90.59    4.30
  -4 -13   0   96.49    4.60
   4  13   0   97.09    4.70
  -4  13   0   90.69    5.20
   4  13   0   92.39    4.60
  -4  13   0   85.99    4.70
   4  13   0   95.49    5.00
   5  13   0   13.60    2.00
  -5 -13   0   10.10    1.50
  -5  13   0   14.10    2.00
   5  13   0   11.10    1.80
  -5  13   0    8.30    1.60
   5  13   0   11.40    2.10
   5 -13   0   15.30    1.80
  -6  13   0   40.10    4.10
  -6 -13   0   50.49    3.50
   6  13   0   41.30    3.40
   6  13   0   47.30    3.50
   6  13   0   40.20    3.80
   6 -13   0   45.70    3.10
   7  13   0    4.10    1.80
   7  13   0    3.30    1.50
   7  13   0    3.80    1.60
  -7  13   0    3.40    1.50
  -7 -13   0    4.40    1.40
   7 -13   0    4.70    1.40
   0  14   0    7.40    0.80
   0  14   0    7.90    0.60
   0  14   0    6.80    0.70
   0  14   0    8.20    0.60
   0 -14   0    7.60    0.60
   0  14   0    7.00    1.00
  -1 -14   0    1.40    0.30
   1  14   0    2.00    0.40
  -1  14   0    1.70    0.50
   1 -14   0    1.40    0.50
  -1  14   0    1.30    0.40
   1  14   0    0.90    0.30
  -1  14   0    0.70    0.50
   1 -14   0    1.00    0.30
  -1  14   0    1.10    0.40
   1  14   0    1.10    0.40
   1  14   0    1.60    0.40
  -2  14   0   47.60    2.90
   2  14   0   44.90    2.40
   2 -14   0   47.20    1.80
  -2  14   0   48.50    2.70
   2  14   0   43.40    2.40
   2  14   0   45.90    2.20
   2  14   0   47.20    2.50
  -2  14   0   48.30    2.60
   2 -14   0   49.60    2.30
   2  14   0   49.30    2.50
   3  14   0   28.80    2.00
  -3  14   0   24.50    2.10
   3 -14   0   25.50    1.70
   3  14   0   29.70    2.10
  -3  14   0   25.10    2.00
  -3 -14   0   25.90    1.80
   3 -14   0   26.00    1.30
  -3  14   0   24.60    2.20
   3  14   0   30.00    2.00
   4  14   0   25.80    2.30
   4 -14   0   24.90    1.80
  -4  14   0   22.50    2.50
  -4  14   0   20.60    2.30
  -4 -14   0   25.40    2.00
  -4  14   0   21.50    2.30
   4  14   0   16.60    2.00
   4  14   0   27.10    2.10
  -5  14   0   21.50    2.50
   5  14   0   20.60    2.40
   5  14   0   19.40    2.30
   5  14   0   23.40    2.50
   5 -14   0   21.60    2.20
  -5 -14   0   16.60    2.00
  -5  14   0   19.30    2.60
  -6 -14   0  132.89    6.50
   6 -14   0  137.89    6.20
   6  14   0  117.49    6.50
   6  14   0  129.99    6.70
   6  14   0  131.19    7.30
  -6  14   0  116.19    6.80
   7 -14   0    0.50    0.90
   7  14   0   -0.60    1.00
  -7 -14   0    1.50    1.10
   7  14   0    1.80    1.40
   7  14   0    1.40    1.20
  -7  14   0    1.70    1.30
   0 -15   0    0.40    0.20
   0  15   0    0.60    0.20
   0  15   0    0.60    0.30
   0  15   0    1.70    0.60
   0  15   0    0.60    0.30
  -1 -15   0    0.50    0.20
  -1  15   0   -0.50    0.30
   1 -15   0    0.30    0.20
   1  15   0    0.40    0.20
   1  15   0    0.20    0.30
  -1  15   0    0.30    0.30
   1  15   0    0.20    0.40
  -1  15   0    0.50    0.30
  -1  15   0    0.30    0.30
   1  15   0    0.70    0.30
  -2 -15   0  263.27    9.80
   2 -15   0  256.17    9.70
   2 -15   0  266.57    9.10
  -2  15   0  268.77   10.10
   2  15   0  276.47   10.00
   2  15   0  270.17    9.70
  -2  15   0  267.17   10.40
  -2  15   0  276.47   10.60
   2  15   0  268.37   10.00
   2  15   0  261.17   10.00
   2  15   0  271.77   10.00
  -3  15   0 2363.26   86.49
   3  15   0 2619.84   86.19
  -3  15   0 2597.54   86.29
   3  15   0 2550.24   85.99
   3  15   0 2542.35   85.99
  -3 -15   0 2527.15   85.79
  -3  15   0 2488.35   86.49
   3 -15   0 2491.35   85.59
  -4  15   0   69.29    4.10
  -4 -15   0   68.69    3.70
   4  15   0   70.39    4.10
  -4  15   0   68.99    4.00
   4  15   0   68.99    3.90
  -4  15   0   73.99    4.50
   4 -15   0   67.29    3.40
   4  15   0   68.69    3.80
   5 -15   0    5.00    1.10
  -5  15   0    3.70    1.20
   5  15   0    4.30    1.40
  -5 -15   0    4.30    1.10
   5  15   0    5.40    1.30
   5  15   0    1.60    0.90
  -5  15   0    5.80    1.40
   6 -15   0    0.60    0.80
  -6  15   0    1.80    1.20
  -6 -15   0    1.40    1.00
   6  15   0    3.40    1.40
   6  15   0    2.00    1.10
   6  15   0    0.50    0.90
   0 -16   0  293.67   10.50
   0  16   0  303.07   10.50
   0  16   0  300.17   10.60
   0  16   0  307.97   10.70
   0  16   0  291.87   10.30
   0  16   0  276.27   11.10
   1  16   0  491.65   17.40
  -1 -16   0  511.35   17.50
   1 -16   0  503.15   17.40
  -1  16   0  485.25   17.70
  -1  16   0  514.85   17.70
   1  16   0  479.75   17.50
   1  16   0  497.15   17.90
  -1  16   0  532.75   18.00
  -1  16   0  523.45   18.40
   1  16   0  469.75   17.50
   2  16   0  365.86   13.50
  -2  16   0  370.16   13.90
   2 -16   0  387.26   13.30
  -2  16   0  382.56   14.30
  -2 -16   0  367.46   13.40
   2  16   0  360.76   13.50
  -2  16   0  381.26   13.70
   2  16   0  367.76   13.70
   2  16   0  376.86   13.30
   2  16   0  366.66   13.50
   3  16   0   85.59    4.20
  -3 -16   0   85.29    3.90
   3 -16   0   79.49    3.70
  -3  16   0   88.69    4.60
  -3  16   0   78.39    4.40
   3  16   0   83.99    4.10
   3  16   0   82.69    4.10
  -3  16   0   81.09    4.20
  -4  16   0   67.29    4.00
   4 -16   0   62.69    3.30
  -4  16   0   55.99    3.80
   4  16   0   67.79    3.80
   4  16   0   72.49    4.10
  -4 -16   0   63.79    3.50
  -4  16   0   60.59    4.10
   4  16   0   62.99    3.70
  -5  16   0   73.49    5.80
   5  16   0   81.89    4.80
  -5  16   0   84.29    5.10
   5  16   0   94.09    5.30
   5 -16   0   89.09    4.40
   5  16   0   93.99    5.00
  -5 -16   0   87.89    4.60
  -5  16   0   90.59    5.10
   6 -16   0  176.38    7.70
   6  16   0  183.88    8.60
  -6  16   0  175.88    8.80
  -6 -16   0  168.48    8.00
   6  16   0  177.18    8.30
   6  16   0  162.98    8.80
   0  17   0    1.70    0.40
   0  17   0    2.50    0.50
   0 -17   0    1.90    0.40
   0  17   0    2.00    0.40
  -1  17   0   89.39    4.00
   1  17   0   93.69    3.80
   1  17   0   95.59    3.80
   1  17   0   96.69    4.20
   1  17   0   96.89    3.90
  -1  17   0   94.79    4.20
   1 -17   0   93.59    3.80
  -1  17   0   87.99    4.00
  -1 -17   0   89.19    3.80
   2  17   0  274.67   10.30
  -2  17   0  275.27   10.40
   2  17   0  273.27   10.30
  -2 -17   0  276.37   10.10
  -2  17   0  271.77   10.90
   2  17   0  259.77   10.20
  -2  17   0  270.57   10.60
   2  17   0  280.47   10.10
   2 -17   0  276.87   10.00
   3  17   0    0.80    0.60
  -3  17   0    0.60    0.70
  -3  17   0    0.30    0.70
   3  17   0    0.70    0.50
   3 -17   0    1.20    0.60
  -3 -17   0    0.10    0.40
   3  17   0    1.20    0.70
  -3  17   0    1.50    0.70
  -4  17   0  270.17   11.90
   4  17   0  278.37   11.30
   4 -17   0  282.27   10.80
  -4 -17   0  289.17   11.10
  -4  17   0  290.87   11.70
   4  17   0  281.87   11.30
  -4  17   0  285.47   11.70
   4  17   0  280.27   11.50
  -5  17   0    0.10    0.80
  -5  17   0   -0.40    0.80
   5 -17   0    0.80    0.60
  -5 -17   0   -0.20    0.60
   5  17   0    1.20    0.80
  -5  17   0    0.00    0.80
   5  17   0    0.70    0.80
   5  17   0   -0.10    0.70
  -6  17   0   16.90    2.70
  -6 -17   0   19.10    2.40
   6  17   0   20.50    2.70
   6 -17   0   20.80    2.30
   6  17   0   18.70    2.60
   6  17   0   20.30    3.00
   0  18   0   37.30    2.00
   0  18   0   43.70    2.60
   0  18   0   39.80    2.00
   0  18   0   39.20    1.90
   0  18   0   42.70    1.80
   0 -18   0   39.30    1.90
   1  18   0  632.74   21.60
   1  18   0  629.54   21.50
  -1  18   0  609.44   22.50
  -1  18   0  646.34   21.90
  -1  18   0  617.64   21.80
   1  18   0  600.34   22.00
  -1 -18   0  610.64   21.50
   1  18   0  620.94   21.60
   1 -18   0  609.44   21.50
   2  18   0  180.28    7.20
  -2  18   0  212.58    8.00
  -2  18   0  185.28    7.60
  -2  18   0  187.48    8.10
   2  18   0  190.88    7.40
   2  18   0  189.18    7.40
  -2 -18   0  180.28    7.20
   2  18   0  178.18    7.30
   2 -18   0  185.98    7.10
   3  18   0  146.89    6.00
  -3  18   0  147.39    6.50
  -3 -18   0  123.29    5.50
   3  18   0  112.89    5.70
  -3  18   0  112.09    5.90
   3  18   0  160.78    6.10
  -3  18   0  149.88    6.60
   3 -18   0  112.79    5.30
  -4  18   0   96.89    5.50
   4 -18   0   99.29    4.50
  -4  18   0   94.59    5.10
   4  18   0   93.79    4.80
   4  18   0   92.49    4.90
  -4  18   0   95.39    5.20
  -4 -18   0   92.59    4.60
   4  18   0   93.29    5.00
   5  18   0  184.58    8.40
  -5  18   0  154.18    8.10
   5  18   0  169.88    7.90
  -5  18   0  164.68    8.80
  -5 -18   0  166.48    7.60
   5 -18   0  178.18    7.40
  -5  18   0  171.68    8.20
   5  18   0  184.08    8.20
   6 -18   0    1.60    0.90
  -6 -18   0    1.70    0.90
  -6  18   0    0.20    1.00
   6  18   0    0.70    1.00
   6  18   0    1.90    1.20
   6  18   0    0.50    0.90
   0  19   0    1.70    0.40
   0  19   0    1.70    0.50
   0 -19   0    1.50    0.40
  -1  19   0  721.53   25.30
  -1 -19   0  694.83   24.20
   1  19   0  670.53   24.20
  -1  19   0  727.93   24.50
  -1  19   0  717.13   24.50
   1  19   0  686.53   24.20
   1  19   0  701.93   24.80
   1 -19   0  667.13   24.10
   1  19   0  702.33   24.20
   2  19   0  136.89    6.00
   2  19   0  159.38    6.10
   2 -19   0  147.39    5.90
  -2  19   0  150.98    6.90
  -2  19   0  150.48    6.30
   2  19   0  154.78    6.20
  -2  19   0  143.49    6.50
  -2 -19   0  149.29    5.90
   2  19   0  149.99    6.00
   3  19   0  333.37   12.90
  -3 -19   0  334.17   12.60
   3  19   0  348.77   12.90
  -3  19   0  331.57   13.50
   3 -19   0  343.07   12.40
  -3  19   0  327.97   13.10
  -3  19   0  346.37   13.50
   3  19   0  332.97   12.80
   4 -19   0  151.98    6.10
   4  19   0  139.19    6.70
  -4  19   0  138.39    6.80
  -4 -19   0  145.99    6.30
   4  19   0  153.88    6.70
  -4  19   0  139.49    7.00
  -4  19   0  127.19    7.10
   4  19   0  145.39    6.70
  -5  19   0   13.40    2.50
   5  19   0   17.80    2.30
  -5  19   0   15.80    2.40
   5  19   0   15.90    2.20
   5  19   0   13.90    2.20
  -5 -19   0   14.20    1.90
  -5  19   0   13.50    2.20
   5 -19   0   15.20    1.80
   6  19   0    1.30    1.10
   6  19   0   -0.10    1.00
  -6  19   0    0.40    1.00
   6  19   0    3.70    1.40
   6 -19   0    2.20    1.00
  -6 -19   0    1.30    0.90
   0 -20   0   78.49    3.40
   0  20   0   85.09    3.90
   0  20   0   78.79    3.60
   0  20   0   78.79    3.40
   0  20   0   83.19    3.20
   0  20   0   80.99    4.10
   1  20   0   26.10    1.50
   1 -20   0   22.20    1.40
  -1 -20   0   23.10    1.50
   1  20   0   24.90    1.50
   1  20   0   25.10    1.60
   1  20   0   27.70    2.00
  -1  20   0   26.60    1.70
  -1  20   0   21.10    1.60
  -1  20   0   26.80    2.20
  -2  20   0  317.17   12.50
   2  20   0  329.37   12.00
   2  20   0  320.47   12.10
   2 -20   0  312.97   11.70
  -2  20   0  330.77   12.90
  -2  20   0  326.27   12.30
   2  20   0  322.37   12.00
   2  20   0  325.67   11.90
  -2 -20   0  318.07   11.80
  -3  20   0   38.60    3.00
  -3  20   0   42.50    2.80
  -3 -20   0   35.00    2.30
   3  20   0   38.90    2.50
   3 -20   0   38.00    2.30
  -3  20   0   41.80    3.00
   3  20   0   37.80    2.50
  -4  20   0   44.40    3.40
   4  20   0   44.70    3.10
  -4 -20   0   43.90    2.70
   4  20   0   46.10    3.10
  -4  20   0   40.70    3.40
  -4  20   0   41.50    3.20
   4  20   0   43.60    3.10
   4 -20   0   42.00    2.60
   5  20   0  113.99    6.00
  -5  20   0   95.99    5.80
  -5 -20   0   99.99    5.20
  -5  20   0  105.59    6.00
  -5  20   0  108.89    6.60
   5 -20   0  103.49    5.00
   5  20   0  100.49    5.70
   5  20   0  108.89    5.70
   6  20   0   33.10    3.50
   6 -20   0   30.50    2.80
  -6 -20   0   26.80    3.00
   6  20   0   26.20    3.40
   6  20   0   27.40    3.30
  -6  20   0   21.70    3.20
   0  21   0    1.90    0.50
   0  21   0    1.00    0.40
  -1  21   0  128.19    5.30
  -1 -21   0  118.19    5.00
   1  21   0  132.29    5.00
   1  21   0  126.79    5.60
   1  21   0  120.69    5.10
  -1  21   0  127.99    5.30
  -1  21   0  125.69    5.90
   1  21   0  119.69    4.90
   2  21   0  617.74   23.00
  -2  21   0  664.93   23.50
   2  21   0  670.23   23.30
   2  21   0  661.23   23.10
   2  21   0  669.33   23.20
   2 -21   0  658.73   22.90
  -2  21   0  626.54   23.60
  -2  21   0  665.53   24.10
  -2 -21   0  651.43   22.90
  -3  21   0   53.59    3.60
  -3  21   0   44.80    3.10
   3 -21   0   48.80    2.70
   3  21   0   56.59    3.10
   3  21   0   62.89    3.20
  -3 -21   0   46.60    2.70
   3  21   0   45.30    3.00
  -3  21   0   59.59    3.80
   4  21   0  165.68    7.40
   4  21   0  160.38    7.30
  -4  21   0  166.38    8.10
   4  21   0  158.88    7.20
  -4  21   0  160.88    7.80
  -4  21   0  149.59    7.50
  -4 -21   0  160.28    6.90
   4 -21   0  156.18    6.70
   5 -21   0   19.00    2.10
  -5  21   0   19.80    2.90
  -5 -21   0   20.90    2.30
   5  21   0   23.50    2.80
   5  21   0   18.60    2.60
   5  21   0   19.40    2.50
  -5  21   0   15.90    2.50
  -5  21   0   21.40    3.30
   6  21   0    3.10    1.30
  -6 -21   0    2.60    1.10
   6  21   0    3.70    1.40
   6  21   0    1.10    1.20
   6 -21   0    1.50    0.90
  -6  21   0    4.00    1.70
   0  22   0   64.99    3.70
   0  22   0   66.79    3.00
  -1  22   0  281.37   10.10
  -1  22   0  253.57   10.70
   1  22   0  263.87    9.80
   1  22   0  275.47    9.70
  -1  22   0  255.87   10.00
   1  22   0  239.58    9.60
  -1 -22   0  261.47    9.70
   1  22   0  256.47   10.30
  -2  22   0  493.25   19.10
  -2  22   0  525.75   19.70
  -2  22   0  520.15   19.00
   2 -22   0  534.75   18.40
   2  22   0  517.15   18.70
   2  22   0  517.05   18.60
  -2 -22   0  502.95   18.40
   2  22   0  500.45   18.70
   2  22   0  553.14   18.60
   3  22   0   13.20    1.60
  -3  22   0   11.80    1.90
   3  22   0   11.70    1.50
  -3  22   0   12.20    1.80
   3 -22   0   11.90    1.40
  -3 -22   0   10.30    1.30
  -3  22   0    9.40    1.80
   3  22   0   11.70    1.70
  -4  22   0  100.39    5.80
   4  22   0   99.59    5.10
  -4 -22   0   92.09    4.60
  -4  22   0  102.89    5.70
   4 -22   0   96.69    4.60
   4  22   0   97.69    5.20
   4  22   0   91.59    5.00
  -4  22   0  101.39    5.50
   5  22   0  104.29    5.70
  -5  22   0   93.39    5.80
  -5 -22   0  110.19    5.20
   5  22   0  108.89    5.80
   5  22   0   95.29    5.40
  -5  22   0   91.89    5.80
  -5  22   0   88.89    6.10
   5 -22   0   98.59    4.90
  -6  22   0   35.20    4.10
   6 -22   0   44.70    3.10
   6  22   0   41.70    3.70
   6  22   0   46.00    4.40
   6  22   0   39.00    3.90
  -6 -22   0   37.30    3.00
   0  23   0    2.00    0.50
   1  23   0   17.90    1.30
  -1  23   0   16.60    2.10
   1  23   0   21.40    1.50
  -1  23   0   18.20    1.50
  -1 -23   0   18.30    1.30
   1  23   0   17.30    2.00
   1  23   0   17.40    1.30
  -1  23   0   20.00    1.60
   2 -23   0   18.40    1.40
  -2  23   0   16.70    1.80
   2  23   0   19.20    1.60
  -2 -23   0   20.00    1.50
  -2  23   0   17.20    1.90
   2  23   0   18.60    1.50
   2  23   0   13.10    1.60
   2  23   0   18.70    1.80
  -2  23   0   17.40    2.30
   3  23   0  175.68    7.80
   3  23   0  188.78    7.70
  -3  23   0  175.38    8.50
   3 -23   0  185.68    7.30
   3  23   0  171.78    7.60
  -3  23   0  203.58    8.60
  -3  23   0  172.58    8.00
  -3 -23   0  185.08    7.40
   4 -23   0    1.80    0.70
  -4 -23   0    4.10    1.10
  -4  23   0    3.50    1.30
   4  23   0    1.40    0.90
  -4  23   0    2.90    1.30
   4  23   0    3.30    1.10
   4  23   0    2.00    0.90
  -4  23   0    3.30    1.40
  -5  23   0  128.89    7.70
   5  23   0  136.89    7.00
  -5  23   0  129.49    7.30
   5 -23   0  143.19    6.30
  -5 -23   0  148.19    6.50
   5  23   0  137.69    6.80
  -5  23   0  122.29    7.10
   5  23   0  143.09    7.20
   6  23   0   -0.70    1.00
  -6  23   0    0.40    1.10
   6  23   0    0.40    1.00
  -6 -23   0    0.60    0.70
   6 -23   0   -1.00    0.60
   6  23   0    0.10    1.10
   0 -24   0  233.98    8.80
   0  24   0  253.57    9.90
   0  24   0  218.58    8.70
   0  24   0  235.28    9.00
   1  24   0   28.30    1.90
  -1  24   0   32.60    2.70
  -1  24   0   30.70    2.10
  -1  24   0   28.40    2.10
   1  24   0   33.50    1.90
   1  24   0   31.60    2.40
  -1 -24   0   32.20    1.90
   2 -24   0  136.69    5.70
  -2  24   0  144.49    7.00
  -2 -24   0  140.69    5.80
  -2  24   0  144.39    6.50
   2  24   0  126.89    6.00
   2  24   0  136.29    5.80
   2  24   0  139.69    6.10
  -2  24   0  152.18    6.40
   2  24   0  138.29    5.90
   3 -24   0   19.50    1.80
  -3  24   0   22.30    2.70
  -3 -24   0   21.30    1.70
  -3  24   0   22.30    2.80
   3  24   0   18.30    1.70
   3  24   0   17.20    2.00
   3  24   0   17.10    2.00
  -3  24   0   20.20    2.30
  -4  24   0   11.50    2.00
   4 -24   0    3.90    1.00
  -4  24   0    7.80    1.70
   4  24   0   12.40    1.80
   4  24   0    5.10    1.30
   4  24   0   15.90    2.00
  -4 -24   0    7.10    1.10
  -4  24   0   10.30    1.90
  -5  24   0    8.00    2.10
  -5 -24   0    6.60    1.40
   5  24   0    4.50    1.30
  -5  24   0    6.90    2.00
   5 -24   0    6.20    1.30
   5  24   0    5.90    1.60
  -5  24   0    8.30    1.90
   5  24   0    6.80    1.60
  -6 -24   0   52.29    3.60
   6 -24   0   55.69    3.50
   6  24   0   54.59    4.40
  -6  24   0   53.99    5.30
   6  24   0   51.29    4.10
   6  24   0   52.59    4.00
   0  25   0    9.80    1.60
  -1  25   0   62.59    3.30
   1  25   0   63.39    3.10
  -1  25   0   59.59    3.30
   1  25   0   60.69    2.90
  -1  25   0   63.19    3.90
  -1 -25   0   56.59    2.90
   1  25   0   59.79    3.60
  -2  25   0  331.17   13.70
   2  25   0  333.97   12.90
   2 -25   0  341.97   12.40
  -2  25   0  327.37   13.00
  -2 -25   0  329.27   12.40
   2  25   0  354.46   12.50
  -2  25   0  323.07   13.20
   2  25   0  353.66   13.00
   2  25   0  336.07   12.60
  -3  25   0   10.50    1.90
   3  25   0    9.90    1.60
   3 -25   0   11.00    1.30
   3  25   0   10.30    1.50
  -3 -25   0   10.20    1.30
   3  25   0   10.80    1.60
  -3  25   0   13.80    1.90
  -3  25   0    7.50    1.80
  -4  25   0  247.38   10.80
  -4  25   0  239.78   11.20
   4 -25   0  258.47    9.70
   4  25   0  236.38   10.20
   4  25   0  231.68   10.20
  -4 -25   0  256.87    9.90
  -4  25   0  244.58   11.30
   4  25   0  247.18   10.60
   5  25   0   33.50    3.40
   5  25   0   22.00    2.80
  -5  25   0   40.70    3.90
   5  25   0   29.20    2.80
  -5  25   0   36.30    3.90
   5 -25   0   31.10    2.40
  -5  25   0   45.80    4.40
  -5 -25   0   31.60    2.50
   0 -26   0  488.95   18.00
   0  26   0  485.65   18.20
   0  26   0  516.65   19.20
   0  26   0  526.15   18.10
  -1  26   0  247.68    9.90
  -1 -26   0  249.08    9.60
  -1  26   0  257.37   10.80
   1  26   0  261.27   10.40
  -1  26   0  262.87   10.10
   1  26   0  250.77    9.70
   1  26   0  246.68    9.50
  -2 -26   0   14.10    1.50
  -2  26   0   10.10    1.50
   2  26   0   13.50    1.60
  -2  26   0   14.30    2.00
   2 -26   0   15.70    1.50
   2  26   0   13.80    1.60
   2  26   0   12.90    1.30
  -2  26   0    8.20    1.60
  -3 -26   0    0.00    0.40
  -3  26   0    0.30    0.70
   3  26   0    0.40    0.60
   3 -26   0    1.00    0.60
  -3  26   0   -0.30    0.90
  -3  26   0    1.00    0.90
   3  26   0    0.10    0.50
   3  26   0   -0.60    0.60
   4  26   0   65.39    3.90
  -4 -26   0   60.09    3.50
   4  26   0   65.29    4.10
  -4  26   0   64.19    4.60
  -4  26   0   63.19    4.60
   4 -26   0   62.39    3.40
  -4  26   0   65.29    4.30
   4  26   0   61.29    3.80
   5  26   0    6.50    1.50
  -5  26   0    4.40    1.80
   5  26   0    6.90    1.70
  -5  26   0    6.70    1.90
  -5  26   0    7.80    2.20
  -5 -26   0    7.00    1.40
   5  26   0    8.00    1.90
   5 -26   0    7.00    1.30
  -1  27   0  128.39    5.80
  -1  27   0  140.59    6.00
  -1 -27   0  125.09    5.40
   1  27   0  128.99    5.60
   1  27   0  134.19    6.30
  -1  27   0  123.99    6.50
   1  27   0  133.49    5.40
  -2  27   0  101.79    5.30
  -2  27   0  106.79    6.00
   2  27   0  118.29    4.90
   2  27   0  100.09    5.10
  -2 -27   0  106.49    4.80
   2 -27   0  113.09    4.80
  -2  27   0  109.09    5.60
   2  27   0  109.99    4.90
   3  27   0   56.39    3.30
  -3  27   0   53.59    3.90
  -3  27   0   58.89    4.20
  -3  27   0   54.59    3.70
  -3 -27   0   52.79    3.00
   3 -27   0   58.89    3.00
   3  27   0   52.19    3.10
   3  27   0   51.79    3.50
   4  27   0  146.29    7.20
   4  27   0  169.68    7.80
  -4 -27   0  155.58    6.90
   4 -27   0  164.88    6.90
  -4  27   0  158.68    8.30
  -4  27   0  153.78    7.80
  -4  27   0  154.68    8.30
   4  27   0  164.08    7.30
   5 -27   0   14.00    1.80
  -5  27   0   14.00    2.90
   5  27   0   11.30    2.00
  -5 -27   0   10.70    1.70
   5  27   0   10.90    2.20
  -5  27   0   11.00    2.20
  -5  27   0   17.80    3.00
   5  27   0   14.00    2.20
   0  28   0  379.86   14.40
   0  28   0  412.06   15.70
   0  28   0  396.86   14.70
   0 -28   0  393.36   14.40
   1  28   0  141.19    5.70
   1  28   0  136.89    6.50
  -1 -28   0  132.29    5.70
  -1  28   0  136.39    6.10
   1  28   0  128.09    5.80
  -1  28   0  135.09    6.00
  -1  28   0  133.79    6.90
  -2 -28   0   82.29    4.00
   2  28   0   83.09    4.10
  -2  28   0   84.49    5.20
  -2  28   0   81.59    4.50
   2  28   0   79.39    3.90
   2  28   0   83.19    4.40
  -2  28   0   89.19    4.80
   3  28   0   -0.10    0.60
  -3  28   0    0.20    0.80
   3 -28   0    0.20    0.50
   3  28   0    0.40    0.50
  -3  28   0    0.60    0.70
  -3 -28   0    0.10    0.50
  -3  28   0    0.10    1.00
   3  28   0   -0.90    0.50
   4 -28   0  110.59    5.20
   4  28   0  108.59    5.60
  -4  28   0  113.29    6.70
  -4  28   0  112.69    6.70
  -4 -28   0  109.29    5.20
   4  28   0  106.49    5.90
  -4  28   0  108.99    6.10
   4  28   0  104.69    5.50
  -5  28   0   73.79    5.20
   5 -28   0   78.09    4.20
  -5 -28   0   74.29    4.20
   5  28   0   75.89    5.00
  -5  28   0   72.49    5.40
  -5  28   0   72.19    5.70
   5  28   0   78.89    4.80
   5  28   0   75.69    4.70
   0  29   0    5.60    1.00
  -1  29   0   22.60    2.90
   1  29   0   22.00    1.60
  -1  29   0   19.90    2.10
   1  29   0   25.80    2.80
  -1 -29   0   18.70    1.50
  -1  29   0   20.10    1.90
   1  29   0   22.00    1.80
   2  29   0   80.39    3.80
  -2  29   0   78.19    5.10
  -2  29   0   70.09    4.20
  -2  29   0   75.69    4.50
  -2 -29   0   74.59    3.70
   2  29   0   73.79    3.90
   2  29   0   82.69    4.30
  -3  29   0    0.20    0.80
  -3 -29   0    0.10    0.40
   3  29   0    0.40    0.50
  -3  29   0   -0.40    0.90
   3 -29   0    0.70    0.60
  -3  29   0    0.10    0.70
   3  29   0    0.00    0.60
   4  29   0  199.38    8.40
  -4  29   0  181.88    9.60
   4  29   0  209.48    9.10
  -4  29   0  179.38    9.50
   4 -29   0  180.88    7.90
   4  29   0  195.88    8.50
  -4  29   0  192.08    9.20
  -4 -29   0  190.08    8.10
  -5  29   0   38.40    4.10
  -5 -29   0   37.90    2.80
  -5  29   0   38.10    4.30
   5 -29   0   42.00    2.80
   5  29   0   39.20    4.00
  -5  29   0   33.80    4.20
   5  29   0   37.30    3.10
   5  29   0   30.90    3.40
   0 -30   0   60.19    3.40
   0  30   0   75.49    4.60
   0  30   0   72.39    3.60
   0  30   0   68.89    3.70
  -1  30   0   26.10    2.20
  -1  30   0   28.10    3.20
   1  30   0   25.50    2.80
  -1 -30   0   25.30    1.80
  -1  30   0   26.40    2.20
   1  30   0   24.50    2.00
   1  30   0   22.50    1.70
   2  30   0   46.40    2.80
   2  30   0   47.30    2.90
  -2  30   0   50.39    4.00
   2  30   0   49.60    3.20
  -2 -30   0   46.80    2.70
  -2  30   0   46.10    3.30
  -2  30   0   48.00    3.40
   3  30   0   12.80    2.00
  -3  30   0   17.80    2.80
  -3  30   0   13.80    2.30
   3  30   0   11.10    1.50
   3 -30   0    9.10    1.40
  -3  30   0    7.70    1.70
  -3 -30   0   11.00    1.50
  -4 -30   0  105.59    5.00
  -4  30   0   93.59    5.70
   4  30   0   96.39    5.60
   4  30   0   97.49    5.10
   4 -30   0   95.29    4.70
  -4  30   0  112.09    6.60
  -4  30   0   87.19    6.00
   5  30   0    2.80    1.60
   5 -30   0    3.40    1.10
  -5  30   0    3.10    1.70
   0  31   0    7.90    1.20
   0  31   0   12.80    2.00
   1  31   0   53.99    2.90
  -1 -31   0   53.09    2.90
   1  31   0   47.40    3.00
   1  31   0   57.39    3.80
  -1  31   0   53.69    4.00
  -1  31   0   46.60    3.20
  -1  31   0   47.80    3.20
  -2  31   0   -0.90    0.60
  -2  31   0   -0.30    0.60
   2  31   0   -0.10    0.60
   2  31   0    0.90    0.50
  -2 -31   0   -0.10    0.50
  -2  31   0    0.00    0.90
   2  31   0   -0.20    0.50
  -3  31   0   84.69    5.30
   3  31   0  102.19    4.90
  -3  31   0   98.09    5.90
  -3  31   0   97.19    6.20
   3  31   0  104.79    5.50
   3 -31   0   95.99    4.70
  -3 -31   0  105.69    4.80
   3  31   0   94.19    4.80
  -4  31   0    3.30    1.60
  -4 -31   0    1.20    0.70
  -4  31   0    0.60    1.10
   4  31   0    1.40    1.10
  -4  31   0    1.00    1.10
   4  31   0    1.10    0.80
   4 -31   0    2.10    0.90
   0  32   0  193.68    9.00
   0  32   0  191.98    7.90
   0 -32   0  184.38    7.80
   0  32   0  192.48    8.20
   1  32   0  287.47   11.10
  -1  32   0  291.37   11.50
   1  32   0  286.97   10.80
  -1  32   0  272.77   12.30
   1  32   0  283.27   11.90
  -1 -32   0  258.07   10.70
  -1  32   0  275.87   11.40
  -2  32   0    4.80    1.40
  -2  32   0    2.80    1.30
  -2 -32   0    5.20    1.00
  -2  32   0    6.10    1.50
   2  32   0    4.70    1.10
   2  32   0    7.00    1.40
   2  32   0    5.50    1.10
  -3  32   0    8.70    2.00
   3  32   0   12.10    1.70
   3  32   0   11.80    2.00
  -3  32   0   14.30    2.20
  -3 -32   0   11.00    1.50
   3  32   0   12.20    1.70
  -3  32   0   10.30    2.40
   4  32   0    3.10    1.30
  -4 -32   0    2.00    0.90
   4  32   0    2.70    1.00
  -4  32   0    3.30    1.50
  -4  32   0    1.30    1.20
  -4  32   0    3.00    1.60
   4 -32   0    4.00    1.00
   0  33   0   11.30    1.50
   0  33   0    6.20    1.20
   0  33   0   16.70    2.40
   0 -33   0    7.20    1.10
   1  33   0  155.28    7.00
  -1  33   0  162.98    7.40
   1  33   0  169.68    8.00
  -1  33   0  147.29    7.20
  -1  33   0  162.18    8.30
   1  33   0  164.68    6.80
  -1 -33   0  155.78    6.70
   2  33   0    9.70    1.70
  -2  33   0    7.40    2.00
   2  33   0   10.40    1.40
  -2  33   0    9.00    1.80
  -2  33   0    8.80    1.70
  -2 -33   0    7.70    1.30
   2  33   0    6.90    1.20
  -3  33   0   69.09    5.20
   3  33   0   76.79    4.10
  -3  33   0   73.59    4.70
   3  33   0   71.19    3.80
  -3 -33   0   68.39    3.80
  -3  33   0   63.29    4.80
   3  33   0   73.79    4.60
  -4 -33   0   20.00    2.20
   4  33   0   19.00    2.70
   4 -33   0   22.20    2.30
  -4  33   0   26.10    3.60
   4  33   0   20.30    2.10
  -4  33   0   22.00    3.40
  -4  33   0   19.30    2.90
   0  34   0  140.59    7.40
   0  34   0  137.99    6.40
   0  34   0  130.59    6.10
  -1  34   0  279.77   11.30
  -1  34   0  268.87   12.30
   1  34   0  264.77   11.70
  -1 -34   0  262.17   10.60
   1  34   0  267.57   11.00
  -1  34   0  271.87   11.30
   1  34   0  278.17   10.70
   2  34   0   37.90    2.60
   2  34   0   30.50    2.20
  -2  34   0   31.20    2.90
  -2  34   0   34.30    4.10
  -2  34   0   35.40    3.00
  -2 -34   0   35.30    2.40
   2  34   0   33.10    3.20
  -3  34   0    1.00    0.90
   3  34   0    1.60    0.90
   3  34   0    1.10    0.70
   3  34   0    0.60    1.00
  -3 -34   0    0.90    0.70
  -3  34   0    1.90    1.30
  -3  34   0    2.10    1.40
   4  34   0   57.69    4.40
  -4 -34   0   57.99    3.60
  -4  34   0   62.19    5.10
   4  34   0   60.39    3.80
  -4  34   0   55.39    4.90
   4 -34   0   55.39    3.40
  -4  34   0   59.19    4.60
   4  34   0   60.99    3.70
   0  35   0   11.70    1.60
   0  35   0    5.60    1.30
  -1  35   0  147.39    7.00
   1  35   0  150.58    6.80
  -1 -35   0  142.99    6.40
   1  35   0  140.09    6.30
   1  35   0  143.59    7.40
   1  35   0  141.19    6.70
  -1  35   0  145.19    7.00
  -1  35   0  144.89    7.90
  -2  35   0   10.90    2.10
  -2 -35   0   14.20    1.70
   2  35   0   13.00    1.60
   2  35   0   17.90    2.10
   2  35   0   11.90    1.90
  -2  35   0   12.20    2.10
  -2  35   0   16.50    2.90
   3  35   0  116.49    6.40
  -3  35   0  110.79    6.50
   3  35   0  118.59    5.60
   3  35   0  125.39    5.90
  -3 -35   0  108.89    5.50
  -3  35   0  117.89    6.90
  -3  35   0  124.09    7.40
   0  36   0    8.30    1.60
   0  36   0   13.00    1.70
   0  36   0   14.90    2.40
   1  36   0    5.90    1.30
   1  36   0    5.30    1.30
  -1  36   0    2.70    1.50
   1  36   0    5.30    1.10
  -1  36   0    3.40    1.10
  -1  36   0    4.50    1.30
  -1 -36   0    4.70    1.00
  -2  36   0    0.50    1.00
   2  36   0    1.70    0.90
  -2 -36   0    3.40    0.90
   2  36   0    0.70    0.90
  -2  36   0    3.30    1.60
   2  36   0    2.20    0.80
  -2  36   0    0.00    0.80
  -3  36   0    0.60    1.60
  -3  36   0    2.70    1.40
   3  36   0    2.40    1.00
   3  36   0    1.80    0.80
  -3 -36   0    1.90    0.90
   3  36   0    1.60    1.10
  -3  36   0    1.80    1.30
   0  37   0    7.90    1.60
   0  37   0   10.90    1.60
   0  37   0   12.70    2.40
  -1  37   0   23.60    2.50
  -1  37   0   24.20    2.80
   1  37   0   28.70    2.90
   1  37   0   24.40    2.10
   1  37   0   26.10    2.70
  -1  37   0   22.80    3.30
  -1 -37   0   26.20    2.10
  -2  37   0   14.50    2.40
   2  37   0   13.60    1.70
  -2 -37   0   13.40    1.80
   2  37   0   13.00    1.90
   2  37   0   10.30    1.90
  -2  37   0    9.80    2.00
  -2  37   0    9.80    2.50
   0  38   0  108.79    5.90
   0  38   0  118.69    6.90
   0  38   0  115.89    5.80
   1  38   0   55.19    3.30
  -1  38   0   52.99    3.80
   1  38   0   50.99    3.50
  -1  38   0   54.99    4.60
   1  38   0   50.09    3.60
  -1 -38   0   54.99    3.30
  -1  38   0   50.39    3.80
  -2 -38   0   34.90    2.60
   2  38   0   36.20    2.80
  -2  38   0   40.70    3.50
   2  38   0   32.20    3.30
  -2  38   0   43.60    4.80
   2  38   0   35.20    2.50
  -2  38   0   37.40    3.80
   0  39   0    5.70    1.40
   0  39   0   11.00    2.30
   0  39   0   11.30    1.70
  -1  39   0    6.60    2.20
  -1  39   0    5.00    1.50
  -1 -39   0    3.10    1.00
   1  39   0    4.40    1.40
  -1  39   0    5.70    1.60
   1  39   0    4.80    1.10
   1  39   0    3.90    1.20
   0  40   0   78.89    4.70
   0  40   0   82.39    5.80
   0  40   0   88.99    5.10
   0   0  -1  573.14   19.90
   0   0  -1  617.44   19.80
   0   0   1  562.74   20.00
   0   0  -1  592.44   19.90
   1   0   1  208.58    7.30
   1   0  -1  199.08    7.50
  -1   0  -1  204.68    7.40
  -1   0  -1  203.28    7.30
   1   0  -1  210.88    7.30
  -1   0   1  210.08    7.30
  -1   0  -1  204.58    7.40
   1   0  -1  209.58    7.30
   1   0  -1  207.18    7.30
  -1   0   1  214.28    7.60
   1   0   1  220.98    7.60
  -2   0  -1  233.28    8.30
   2   0  -1  236.68    8.40
  -2   0  -1  232.08    8.60
   2   0   1  234.98    8.60
  -2   0  -1  231.38    8.70
   2   0   1  223.98    8.50
  -2   0   1  269.07    9.10
   2   0  -1  231.78    8.50
  -2   0  -1  232.78    8.80
  -2   0   1  242.48    8.60
   2   0   1  237.08    9.00
   2   0  -1  222.28    8.50
   2   0  -1  236.58    9.00
  -3   0  -1 1294.27   42.00
  -3   0  -1 1265.47   42.90
   3   0  -1 1286.27   42.10
  -3   0   1 1102.69   42.90
   3   0  -1 1257.87   42.50
   3   0   1 1296.97   42.60
   3   0  -1 1282.67   43.30
   3   0   1 1194.08   43.30
   3   0  -1 1211.48   42.50
  -3   0   1 1171.88   42.60
  -3   0  -1 1235.78   43.00
   3   0   1 1255.27   42.50
   4   0  -1  275.47   10.60
  -4   0   1  270.47   11.10
   4   0  -1  260.07   10.40
   4   0   1  289.57   10.70
   4   0   1  284.47   10.60
   4   0  -1  278.37   11.40
  -4   0   1  274.17   10.70
   4   0   1  260.77   11.40
  -4   0  -1  269.97   10.90
  -4   0   1  273.77   10.10
   4   0  -1  277.87    9.90
   5   0   1   21.70    2.20
   5   0  -1   23.70    2.30
   5   0   1   20.00    2.20
   5   0   1   23.20    3.20
   5   0  -1   23.80    1.90
  -5   0  -1   17.50    2.30
  -5   0   1   22.20    2.40
   6   0   1   15.50    2.10
  -6   0   1   10.90    1.90
   6   0   1   10.70    1.70
   6   0  -1   11.90    1.80
   6   0  -1   13.80    2.00
  -6   0  -1   11.80    2.00
   7   0  -1    3.30    1.20
   7   0   1    5.30    1.40
  -7   0  -1    3.00    1.40
  -7   0   1    5.20    1.60
   7   0  -1    3.60    1.30
   7   0   1    3.10    1.30
   0  -1   1    1.60    0.30
   0   1  -1    1.20    0.20
   0   1  -1    1.20    0.30
   0   1  -1    2.00    0.20
   0   1   1    1.60    0.20
   0   1  -1    1.70    0.20
   0  -1  -1    1.10    0.20
   0  -1  -1    1.60    0.30
  -1  -1  -1  442.16   15.70
   1   1  -1  471.05   15.60
   1   1  -1  455.05   15.60
   1  -1   1  457.75   15.90
   1  -1   1  451.95   15.60
  -1  -1  -1  452.75   15.80
   1   1  -1  518.75   16.00
   1   1  -1  453.45   15.70
  -1   1   1  416.46   15.90
  -1  -1  -1  448.46   15.60
  -1   1   1  451.55   15.60
   1   1   1  423.36   15.20
   1  -1  -1  431.86   15.00
  -1   1  -1  453.95   15.30
   1  -1  -1  446.76   15.00
  -1   1  -1  452.05   15.00
   1  -1  -1  418.86   15.20
  -1  -1   1  429.76   15.20
   1  -1  -1  428.86   15.00
  -1   1  -1  446.76   15.20
   1   1   1  441.36   15.00
  -1   1  -1  438.66   15.00
  -1  -1   1  439.16   15.00
  -2  -1  -1  384.66   13.60
   2   1  -1  368.56   13.40
  -2  -1  -1  376.96   13.50
   2   1  -1  387.96   13.40
  -2  -1  -1  372.66   13.10
  -2   1   1  375.96   13.50
   2  -1   1  389.46   13.40
   2   1  -1  369.16   13.80
  -2   1   1  370.16   13.80
   2  -1   1  382.46   13.40
   2   1  -1  372.86   13.20
   2  -1   1  418.46   14.10
   2  -1  -1  377.46   13.00
  -2   1  -1  362.96   13.40
   2  -1  -1  378.06   13.10
   2   1   1  375.96   13.20
  -2  -1   1  375.36   13.20
  -2  -1   1  379.46   13.50
   2   1   1  371.76   13.20
   2  -1  -1  370.16   13.10
  -2   1  -1  375.06   13.20
   2   1   1  365.96   13.60
   2  -1  -1  369.46   13.60
  -2   1  -1  381.46   13.40
  -2   1  -1  357.36   12.90
  -3  -1  -1   81.59    3.90
  -3  -1  -1   79.59    3.10
   3  -1   1   82.89    3.70
  -3   1   1   85.89    4.20
  -3  -1  -1   71.89    3.90
   3   1  -1   83.59    3.30
   3   1  -1   83.89    4.20
  -3   1   1   78.99    3.80
   3  -1   1   96.59    4.50
   3  -1   1   90.09    3.80
   3   1  -1   82.69    3.70
   3   1  -1   77.99    3.70
   3  -1  -1   83.89    3.50
   3  -1  -1   82.69    3.70
  -3   1  -1   84.89    4.00
   3   1   1   84.69    3.80
  -3  -1   1   92.69    4.30
   3   1   1   79.59    4.30
  -3  -1   1   80.49    3.80
  -3   1  -1   81.69    3.40
   3   1   1   85.89    3.80
  -3   1  -1   98.59    4.30
   3  -1  -1   86.49    3.80
   4  -1   1  202.08    8.20
  -4   1   1  194.88    7.80
  -4  -1  -1  201.98    8.50
  -4   1   1  195.08    8.30
   4  -1   1  188.68    8.10
   4   1  -1  206.08    8.90
   4  -1   1  223.38    9.30
   4   1  -1  205.98    8.10
   4   1  -1  200.88    8.20
   4   1  -1  201.78    8.30
  -4   1   1  221.78    8.90
   4   1   1  190.88    8.00
   4  -1  -1  197.08    7.90
   4   1   1  208.88    9.10
   4   1   1  212.78    8.20
   4  -1  -1  185.28    8.70
   4  -1  -1  207.38    8.10
   4  -1  -1  203.18    7.50
  -4  -1   1  204.38    8.20
  -4   1  -1  189.18    8.30
  -5  -1  -1   21.90    2.50
  -5   1   1   29.30    2.40
   5  -1   1   31.50    2.30
   5  -1   1   27.60    2.90
   5  -1   1   26.10    2.20
   5   1  -1   27.40    2.30
   5   1  -1   30.50    2.20
   5  -1  -1   33.20    2.40
   5   1   1   29.70    2.40
   5   1   1   32.30    2.40
   5   1   1   28.30    2.90
  -5  -1   1   27.40    2.30
  -5   1  -1   29.70    2.90
   5  -1  -1   27.40    2.10
  -6  -1  -1    7.00    1.70
   6   1  -1   11.60    1.80
   6   1  -1    8.60    1.50
   6  -1   1    8.20    1.50
   6  -1   1    9.40    1.70
  -6   1   1    9.90    1.90
   6  -1  -1    6.40    1.40
   6   1   1    8.00    1.60
   6   1   1    7.50    1.50
  -6   1  -1    9.50    1.80
   6   1   1   10.10    2.30
   6  -1  -1    7.00    1.40
  -6  -1   1    9.70    1.80
  -7  -1  -1    3.90    1.50
  -7   1   1    0.60    1.00
   7  -1   1    1.40    1.00
   7   1  -1    1.70    1.10
   7   1  -1    1.40    1.10
   7  -1   1    1.10    1.10
  -7  -1   1    3.20    1.30
   7  -1  -1    2.00    1.10
   7  -1  -1    1.60    1.00
  -7   1  -1    0.70    1.00
   7   1   1    1.80    1.10
   7   1   1    0.70    1.00
   0   2   1 1447.76   49.20
   0  -2  -1 1418.26   48.80
   0  -2   1 1486.05   49.30
   0   2  -1 1497.35   49.00
   0   2   1 1296.07   48.90
   0   2  -1 1454.15   48.80
   0   2  -1 1625.84   49.60
   0  -2  -1 1372.66   48.60
   0  -2  -1 1409.86   48.70
   0   2  -1 1432.66   48.70
  -1  -2  -1 1205.08   41.50
  -1   2   1 1241.78   41.90
   1   2  -1 1243.28   41.60
   1   2  -1 1211.88   41.60
   1   2  -1 1265.07   41.90
   1  -2   1 1240.48   41.60
  -1  -2  -1 1199.38   41.70
  -1  -2  -1 1225.28   41.70
   1   2  -1 1227.78   41.60
  -1   2   1 1238.28   41.60
   1  -2   1 1232.98   41.90
   1  -2  -1 1204.38   41.10
  -1   2  -1 1206.98   41.20
   1   2   1 1211.18   41.20
   1  -2  -1 1206.48   41.20
  -1  -2   1 1215.28   41.40
  -1   2  -1 1192.28   41.30
   1   2   1 1160.18   41.30
   1  -2  -1 1228.28   41.10
  -1  -2   1 1203.48   41.10
  -1   2  -1 1350.56   41.40
  -1   2  -1 1209.98   41.20
  -2  -2  -1  169.98    6.50
   2   2  -1  169.48    6.10
  -2  -2  -1  175.48    6.60
   2   2  -1  174.68    6.40
   2  -2   1  162.68    6.80
  -2   2   1  172.28    6.40
  -2  -2  -1  170.98    5.90
   2  -2   1  166.38    6.30
   2   2  -1  160.98    6.70
   2  -2   1  176.48    6.30
   2  -2  -1  171.48    6.30
   2  -2  -1  170.98    6.20
  -2   2  -1  168.48    6.70
  -2  -2   1  158.68    6.60
   2  -2  -1  175.68    6.80
   2  -2  -1  172.88    6.30
   2   2   1  173.68    6.80
  -2   2  -1  169.38    6.20
  -2  -2   1  176.38    6.40
   2   2   1  165.38    6.40
  -2   2  -1  171.38    6.60
  -2   2  -1  164.58    6.40
   3   2  -1   58.79    2.40
  -3  -2  -1   57.69    3.00
   3   2  -1   58.89    3.30
   3   2  -1   57.09    2.80
  -3   2   1   53.89    3.10
  -3  -2  -1   54.19    2.10
   3   2  -1   55.39    2.80
   3  -2   1   57.59    2.70
  -3   2   1   57.39    2.90
  -3  -2  -1   51.59    3.00
   3  -2   1   58.89    3.40
   3  -2   1   52.69    2.70
  -3   2  -1   50.69    2.80
   3   2   1   52.29    2.70
   3  -2  -1   50.69    2.60
  -3   2  -1   49.50    2.90
   3  -2  -1   52.89    2.30
  -3  -2   1   50.09    2.90
  -3  -2   1   49.40    2.60
  -3   2  -1   49.30    2.30
   3   2   1   54.29    2.70
   3   2   1   51.09    3.10
   3  -2  -1   47.80    3.00
   3  -2  -1   51.39    2.50
  -4   2   1  297.47   11.50
   4   2  -1  287.97   10.80
   4  -2   1  265.27   11.70
   4  -2   1  288.67   10.80
   4  -2   1  271.07   10.70
  -4   2   1  270.87   10.50
  -4  -2  -1  289.17   11.10
   4   2  -1  278.17   10.70
  -4   2   1  272.47   10.90
   4   2  -1  282.27   11.60
   4   2   1  289.17   10.90
   4   2   1  296.57   11.00
   4  -2  -1  291.57   10.30
  -4   2  -1  275.57   11.20
   4  -2  -1  281.17   10.70
   4  -2  -1  283.07   10.80
   4  -2  -1  287.17   11.70
   4   2   1  264.77   11.70
  -4  -2   1  272.07   10.90
  -5  -2  -1    7.80    1.50
   5  -2   1    8.00    1.90
   5   2  -1   10.80    2.10
   5  -2   1    8.70    1.40
   5   2  -1    6.70    1.40
   5  -2   1    8.30    1.40
  -5   2   1    5.70    1.30
   5   2  -1   10.40    1.50
  -5  -2   1    5.40    1.20
  -5   2  -1    4.60    1.30
   5   2   1    7.30    1.30
   5  -2  -1    6.10    1.20
   5   2   1    9.30    2.00
   5  -2  -1    8.70    1.40
   5   2   1    4.70    1.20
  -6   2   1  134.89    7.00
   6   2  -1  148.99    6.80
  -6  -2  -1  137.49    7.10
   6  -2   1  145.19    6.80
   6  -2   1  149.39    6.80
   6   2  -1  148.29    6.90
  -6  -2   1  141.49    7.10
   6   2   1  148.39    8.20
   6   2   1  141.19    6.90
   6   2   1  154.48    7.10
   6  -2  -1  149.29    6.70
  -6   2  -1  150.28    7.50
   6  -2  -1  143.29    6.80
   7  -2   1   60.79    4.00
   7   2  -1   61.69    4.10
   7   2  -1   59.09    3.90
   7  -2   1   50.59    3.80
  -7   2   1   47.50    3.90
  -7  -2  -1   56.29    4.30
   7   2   1   53.29    3.90
  -7  -2   1   57.79    4.20
  -7   2  -1   61.79    4.50
   7   2   1   61.49    4.20
   7  -2  -1   56.89    3.90
   7  -2  -1   55.59    3.70
   0  -3   1 3933.31  138.29
   0   3  -1 4197.88  137.09
   0   3   1 4074.29  137.09
   0   3  -1 4079.29  138.09
   0  -3  -1 4019.30  136.69
   0   3   1 3737.83  137.29
   0  -3   1 4286.97  136.99
   0  -3  -1 4113.19  137.79
   0  -3  -1 4117.69  137.29
   0   3  -1 3966.00  137.09
   0   3  -1 4151.88  137.19
   1  -3   1 2079.99   64.79
   1   3  -1 1918.81   64.39
  -1  -3  -1 1986.00   64.49
  -1  -3  -1 1877.11   64.49
   1   3  -1 1997.30   64.39
  -1  -3  -1 1906.41   64.49
   1  -3   1 1869.71   64.29
   1   3  -1 1859.31   64.39
  -1   3   1 1751.22   64.59
   1   3  -1 1859.21   64.59
  -1   3   1 1904.41   64.39
  -1   3  -1 1877.01   62.99
   1  -3  -1 1921.41   62.99
  -1  -3   1 1887.11   62.99
   1  -3  -1 1905.51   62.79
   1   3   1 1802.92   63.19
  -1   3  -1 1825.72   62.89
   1  -3  -1 1864.21   62.69
   1   3   1 1853.51   62.79
  -1   3  -1 1850.91   62.99
  -1  -3   1 1934.91   62.99
   1   3   1 1757.32   62.79
   2   3  -1  704.73   23.70
   2  -3   1  708.33   24.00
   2   3  -1  722.03   24.10
   2  -3   1  685.13   24.00
  -2  -3  -1  718.53   24.20
   2  -3   1  707.23   24.60
   2   3  -1  663.63   24.00
  -2  -3  -1  706.03   24.20
  -2   3   1  730.93   24.10
  -2  -3  -1  678.93   23.50
  -2   3   1  701.13   24.50
   2   3  -1  639.44   24.40
   2   3   1  725.53   24.40
   2  -3  -1  670.73   23.90
   2   3   1  689.53   24.00
   2  -3  -1  691.83   23.90
  -2   3  -1  703.13   24.40
   2  -3  -1  684.73   23.90
  -2   3  -1  694.83   24.00
  -2   3  -1  719.33   24.20
   2   3   1  732.13   24.10
  -2  -3   1  679.63   24.20
  -2   3  -1  693.53   23.90
   2  -3  -1  647.34   24.30
  -2  -3   1  703.73   24.00
  -3   3   1  611.04   21.50
   3   3  -1  611.64   21.40
  -3   3   1  650.53   22.00
  -3  -3  -1  586.34   20.50
   3  -3   1  581.84   22.10
   3  -3   1  622.94   21.40
  -3  -3  -1  598.44   21.60
   3  -3   1  584.24   21.20
   3   3  -1  607.64   21.40
   3   3  -1  614.14   20.80
   3   3  -1  600.14   22.00
   3  -3  -1  594.34   21.50
  -3  -3   1  586.84   21.90
   3  -3  -1  684.93   22.40
  -3   3  -1  652.03   22.20
   3   3   1  629.24   21.70
   3   3   1  576.44   22.20
   3  -3  -1  603.74   21.40
  -3  -3   1  596.84   21.60
  -3   3  -1  600.84   21.30
   3  -3  -1  617.04   21.30
   3   3   1  597.04   21.60
   4  -3   1  166.88    7.80
  -4  -3  -1  162.08    7.10
  -4   3   1  168.98    7.50
   4  -3   1  163.88    6.70
   4  -3   1  160.78    6.80
  -4   3   1  170.48    6.70
   4   3  -1  149.88    7.40
   4   3  -1  164.68    6.90
   4   3  -1  163.68    6.80
  -4   3   1  170.98    7.10
  -4   3  -1  161.48    6.20
  -4  -3   1  164.18    6.90
   4   3   1  152.08    6.80
   4  -3  -1  161.58    6.30
   4  -3  -1  152.28    7.40
   4   3   1  164.08    6.80
   4  -3  -1  161.68    6.60
  -4   3  -1  156.18    7.10
   4   3   1  183.48    7.80
   4  -3  -1  160.18    6.70
   5  -3   1   86.89    5.50
   5  -3   1   87.99    4.60
   5   3  -1  102.29    5.60
   5   3  -1   84.79    4.60
  -5   3   1   91.59    4.80
  -5  -3  -1   93.99    5.00
   5  -3   1   96.39    4.60
   5   3  -1   81.99    4.40
   5  -3  -1   90.59    4.60
   5   3   1   91.19    4.70
  -5   3  -1   91.19    5.00
   5  -3  -1   94.29    4.50
   5   3   1   86.89    5.50
   5   3   1   87.39    4.70
  -5  -3   1   93.29    4.80
  -6  -3  -1  101.59    5.70
   6  -3   1  103.99    5.20
   6  -3   1  112.99    5.50
   6   3  -1   95.69    5.20
  -6   3   1   98.59    5.60
   6   3  -1  100.09    5.40
   6   3   1  103.09    5.50
  -6  -3   1   98.19    5.50
  -6   3  -1  102.69    5.90
   6   3   1  105.69    5.50
   6  -3  -1  106.89    5.20
   6  -3  -1  110.99    5.50
   6   3   1  112.79    6.80
   7   3  -1   39.80    3.30
  -7   3   1   48.90    3.80
  -7  -3  -1   43.10    3.70
   7  -3   1   48.10    3.50
   7  -3   1   44.70    3.40
   7   3  -1   41.00    3.40
  -7   3  -1   47.70    4.00
   7   3   1   43.80    3.50
   7  -3  -1   42.90    3.20
   7   3   1   52.29    3.90
  -7  -3   1   45.20    3.60
   7  -3  -1   45.10    3.40
   0  -4   1  845.32   28.60
   0   4   1  793.72   28.30
   0   4  -1  850.01   28.30
   0  -4   1  855.81   28.30
   0  -4  -1  833.72   28.20
   0   4  -1  826.12   28.50
   0   4  -1  847.22   28.30
   0  -4  -1  857.11   28.30
   0   4   1  845.62   28.30
   0  -4  -1  814.62   28.40
   0   4  -1  847.32   28.50
   1   4  -1 3354.66  108.89
  -1  -4  -1 3005.80  109.29
   1   4  -1 3288.87  109.69
   1   4  -1 3160.48  109.29
   1  -4   1 3103.49  109.19
   1   4  -1 3165.78  109.29
  -1   4   1 3561.74  111.29
  -1  -4  -1 3304.67  108.79
  -1   4   1 3180.88  109.09
  -1  -4  -1 3166.08  109.09
   1  -4  -1 3202.78  111.19
   1   4   1 3422.26  112.19
   1   4   1 3151.98  111.39
   1  -4  -1 3395.76  111.49
  -1   4  -1 3144.29  111.09
   1   4   1 3182.48  111.99
  -1  -4   1 3293.67  111.39
  -1   4  -1 3202.98  111.19
   1  -4  -1 3257.87  111.69
  -1  -4   1 3420.46  112.39
  -1   4  -1 3683.23  113.69
   1   4   1 3318.37  111.29
  -1   4  -1 3206.28  110.99
   2  -4   1 1023.60   36.70
  -2   4   1 1073.79   37.20
   2   4  -1 1111.09   36.80
  -2  -4  -1 1058.19   36.90
   2  -4   1 1070.19   36.60
  -2  -4  -1 1070.89   37.00
   2   4  -1 1083.99   36.80
  -2  -4  -1 1090.19   36.20
   2   4  -1 1113.99   36.40
   2   4  -1 1048.30   37.20
  -2   4   1 1093.59   36.90
  -2   4  -1 1127.89   37.90
   2  -4  -1 1142.09   37.90
  -2   4  -1 1093.49   38.30
   2  -4  -1 1107.19   38.40
   2   4   1 1096.29   38.30
  -2   4  -1 1125.09   37.90
   2  -4  -1 1066.39   37.80
   2   4   1 1118.39   38.00
  -2  -4   1 1144.59   38.00
   2   4   1 1135.59   38.00
  -2   4  -1 1082.79   38.20
   2  -4  -1 1094.19   37.80
   3  -4   1  159.68    7.00
   3   4  -1  157.68    5.70
  -3   4   1  153.78    6.70
   3   4  -1  155.18    6.30
   3  -4   1  163.58    6.10
  -3   4   1  166.48    6.40
   3   4  -1  143.69    6.70
  -3   4   1  147.39    6.20
   3   4  -1  156.88    6.30
  -3  -4  -1  161.38    6.50
  -3   4  -1  152.58    6.50
   3   4   1  148.09    6.80
   3  -4  -1  161.88    6.90
  -3  -4   1  175.88    6.70
   3  -4  -1  155.68    6.10
  -3  -4   1  156.68    6.30
   3   4   1  160.98    6.40
  -3   4  -1  160.08    6.80
  -3   4  -1  150.48    6.10
   3  -4  -1  158.08    6.20
   3  -4  -1  153.08    6.10
   3   4   1  160.78    6.40
   4  -4   1   43.80    3.30
   4   4  -1   42.20    3.00
  -4   4   1   38.80    2.60
   4  -4   1   40.40    2.50
   4   4  -1   41.30    2.50
  -4  -4  -1   40.80    2.70
  -4   4   1   45.10    3.10
   4  -4   1   41.30    2.40
   4   4  -1   40.70    2.60
  -4   4   1   41.20    2.40
  -4  -4   1   37.40    2.50
  -4   4  -1   42.30    2.80
  -4   4  -1   39.20    2.20
   4   4   1   42.60    3.10
   4   4   1   43.00    2.60
   4  -4  -1   40.80    3.10
   4  -4  -1   43.80    2.50
   4  -4  -1   39.20    2.30
   4  -4  -1   39.90    2.20
   4   4   1   38.90    2.50
   5  -4   1  337.57   13.90
   5   4  -1  292.97   13.20
   5  -4   1  323.17   12.30
   5   4  -1  327.17   12.50
  -5   4   1  327.37   12.80
  -5  -4  -1  322.57   12.80
   5   4  -1  300.97   12.30
   5  -4   1  311.37   12.30
   5  -4  -1  299.87   11.70
   5   4   1  321.37   12.20
  -5  -4   1  302.07   12.20
   5   4   1  301.17   13.20
   5   4   1  313.07   12.20
  -5   4  -1  295.47   12.50
   5  -4  -1  310.07   11.90
   6  -4   1   39.60    2.90
   6   4  -1   39.80    2.90
   6  -4   1   32.70    2.70
  -6   4   1   36.70    3.10
  -6  -4  -1   37.40    3.10
   6   4  -1   33.60    3.30
  -6   4  -1   35.30    3.60
  -6  -4   1   33.90    3.40
   6   4   1   34.40    2.80
   6   4   1   29.70    3.00
   6  -4  -1   34.40    2.70
   6  -4  -1   31.80    2.50
   6   4   1   35.00    4.20
  -7  -4  -1   62.39    4.50
   7   4  -1   55.29    3.90
   7   4  -1   57.49    4.10
   7  -4   1   54.19    3.80
   7  -4   1   65.39    4.10
  -7   4   1   67.99    4.60
  -7   4  -1   62.99    4.70
   7   4   1   57.09    4.20
  -7  -4   1   58.29    4.20
   7  -4  -1   61.29    3.80
   7  -4  -1   59.39    4.00
   7   4   1   67.39    4.30
   0  -5  -1   28.50    1.10
   0   5   1   30.80    1.10
   0  -5   1   29.20    1.40
   0   5  -1   29.70    1.20
   0   5  -1   28.40    1.10
   0   5   1   26.70    1.00
   0  -5   1   29.10    1.20
   0  -5  -1   28.10    1.20
   0   5  -1   27.60    1.40
   0   5  -1   28.40    1.30
  -1   5   1 3492.05  117.69
   1  -5   1 3446.16  117.99
  -1  -5  -1 3620.54  117.79
  -1   5   1 3420.06  118.09
   1   5  -1 3637.44  118.39
  -1  -5  -1 3371.66  117.49
   1  -5   1 3272.57  118.59
   1   5  -1 3425.76  118.19
  -1  -5  -1 3519.35  118.29
   1   5  -1 3273.67  117.89
   1   5  -1 3853.21  119.29
   1   5   1 3630.94  117.89
   1   5   1 3724.53  117.79
  -1   5  -1 3350.56  116.99
  -1  -5   1 3454.35  117.69
  -1   5  -1 3457.85  116.99
  -1   5  -1 3234.88  117.79
   1  -5  -1 3494.85  116.59
   1  -5  -1 3498.25  117.19
   1   5   1 3595.94  117.59
  -1  -5   1 3312.67  116.59
   1   5   1 3385.66  117.29
   1  -5  -1 3422.16  117.09
  -2  -5  -1  446.76   15.70
   2   5  -1  475.35   16.30
   2  -5   1  454.35   16.80
  -2  -5  -1  476.55   16.50
   2  -5   1  454.45   16.10
   2   5  -1  466.65   15.90
   2   5  -1  437.36   16.60
   2   5  -1  469.15   16.30
  -2  -5  -1  464.35   16.40
   2  -5   1  456.25   16.20
  -2   5   1  493.15   16.80
  -2   5   1  472.15   16.30
   2   5   1  412.76   15.90
   2  -5  -1  434.56   16.00
  -2   5  -1  450.75   15.80
   2   5   1  455.15   15.70
   2  -5  -1  439.96   15.40
  -2   5  -1  459.95   15.50
  -2   5  -1  459.35   16.00
   2  -5  -1  442.26   15.50
   2  -5  -1  447.46   15.60
  -2  -5   1  434.76   15.80
   2   5   1  433.86   15.60
  -2   5  -1  436.76   15.60
   2   5   1  453.25   15.80
  -2  -5   1  454.65   15.60
   3   5  -1  120.79    5.00
   3  -5   1  117.29    5.70
   3  -5   1  119.09    4.80
   3   5  -1  119.19    4.40
  -3  -5  -1  123.69    5.20
  -3   5   1  111.79    5.00
  -3   5   1  114.59    5.50
   3   5  -1  123.79    5.00
  -3   5   1  124.49    5.10
   3   5  -1  114.69    5.40
   3  -5   1  120.09    4.90
  -3   5  -1  111.69    5.40
  -3  -5   1  124.29    5.10
   3   5   1  120.39    5.10
   3  -5  -1  124.59    5.60
   3   5   1  126.39    5.10
   3  -5  -1  116.69    4.80
   3   5   1  114.69    5.50
   3  -5  -1  117.09    4.80
   3  -5  -1  123.69    4.90
  -3  -5   1  119.49    5.30
  -3   5  -1  116.49    4.90
  -4   5   1   35.30    2.70
  -4   5   1   36.20    2.50
  -4   5   1   36.60    2.30
   4   5  -1   35.00    2.80
   4  -5   1   39.10    3.10
   4  -5   1   40.20    2.30
  -4  -5  -1   34.20    2.40
   4   5  -1   34.30    2.40
   4  -5   1   35.30    2.30
   4  -5  -1   40.10    2.20
  -4   5  -1   35.30    2.50
   4  -5  -1   38.70    2.10
  -4   5  -1   34.60    2.10
   4   5   1   39.60    2.50
  -4  -5   1   32.10    2.30
   4   5   1   32.20    2.30
   4   5   1   34.50    2.80
  -5  -5  -1  415.86   16.20
  -5   5   1  422.96   16.20
   5   5  -1  412.86   15.80
   5   5  -1  430.66   17.00
   5  -5   1  425.56   15.80
   5  -5   1  409.86   15.60
   5   5  -1  422.66   16.00
   5  -5  -1  434.16   15.50
   5   5   1  394.96   15.60
   5   5   1  419.06   15.70
  -5   5  -1  388.56   16.00
   5   5   1  415.36   16.80
  -5  -5   1  398.16   15.60
   5  -5  -1  415.06   15.20
  -6  -5  -1    8.50    1.70
   6  -5   1    7.30    1.50
  -6   5   1    5.60    1.40
   6   5  -1    8.40    1.60
   6   5  -1   11.90    1.90
   6  -5   1    8.10    1.50
   6   5   1   13.90    2.60
   6  -5  -1    8.60    1.50
  -6  -5   1    8.50    1.60
   6  -5  -1    9.30    1.60
   6   5   1   11.90    1.90
   6   5   1    8.60    1.70
  -6   5  -1    8.90    1.90
   7   5  -1   76.89    4.80
  -7   5   1   86.99    5.30
  -7  -5  -1   76.39    5.20
   7  -5   1   83.49    4.80
   7   5  -1   76.59    4.90
   7  -5  -1   85.59    4.90
   7  -5  -1   78.19    4.50
   7   5   1   78.29    4.90
  -7  -5   1   76.89    5.00
  -7   5  -1   81.89    5.50
   7   5   1   84.29    5.10
   0   6   1   23.90    0.90
   0  -6   1   21.70    1.20
   0  -6  -1   23.90    1.20
   0   6  -1   22.60    1.30
   0  -6  -1   26.70    1.10
   0   6  -1   23.40    1.00
   0   6  -1   22.10    1.00
   0  -6  -1   23.70    1.00
   0  -6   1   24.10    1.00
   1  -6   1  190.88    7.20
   1   6  -1  186.18    6.80
   1   6  -1  189.28    6.80
  -1  -6  -1  194.08    6.80
   1   6  -1  182.08    6.70
  -1  -6  -1  193.28    6.90
  -1  -6  -1  190.08    6.60
   1  -6   1  189.58    6.70
  -1   6   1  183.38    6.90
   1   6  -1  179.88    6.90
  -1   6   1  187.28    6.70
  -1   6  -1  184.98    7.00
   1  -6  -1  191.58    6.70
  -1  -6   1  195.38    6.70
   1  -6  -1  188.98    6.60
   1   6   1  185.78    6.70
  -1  -6   1  193.28    7.00
  -1   6  -1  183.88    7.00
   1   6   1  194.08    6.90
  -1   6  -1  192.38    6.60
   1   6   1  187.68    6.80
   1  -6  -1  189.18    6.90
   2   6  -1  505.15   18.30
   2   6  -1  545.45   18.40
   2   6  -1  520.95   18.70
   2  -6   1  503.05   18.90
   2  -6   1  502.65   18.20
  -2   6   1  522.65   18.30
   2   6  -1  535.95   17.90
  -2   6   1  528.75   18.70
   2  -6   1  532.35   18.10
  -2  -6  -1  524.95   17.70
  -2  -6  -1  522.85   18.40
  -2  -6  -1  532.85   18.50
   2   6   1  534.05   18.40
   2   6   1  541.55   18.50
  -2  -6   1  520.85   18.50
   2   6   1  565.24   18.70
   2  -6  -1  517.55   18.10
   2  -6  -1  547.25   18.40
   2   6   1  545.35   18.50
  -2   6  -1  495.35   18.70
  -2   6  -1  494.55   18.50
   2  -6  -1  523.25   18.20
   2  -6  -1  501.95   18.70
  -2   6  -1  510.85   18.50
  -2  -6   1  531.75   18.30
  -3   6   1   38.90    2.50
   3  -6   1   31.00    2.50
   3   6  -1   33.60    1.50
   3   6  -1   36.00    2.40
  -3   6   1   35.70    2.10
  -3  -6  -1   29.90    2.10
   3  -6   1   35.40    2.00
   3   6  -1   34.10    2.10
   3  -6   1   35.70    1.90
   3   6  -1   37.20    2.10
  -3   6   1   37.20    2.20
  -3   6  -1   32.60    1.90
   3  -6  -1   32.30    1.90
   3  -6  -1   38.50    1.90
  -3  -6   1   33.50    2.00
   3   6   1   31.10    2.00
   3  -6  -1   36.50    2.00
   3   6   1   34.60    2.40
   3   6   1   35.50    2.10
   3  -6  -1   35.30    2.40
  -3   6  -1   33.30    2.20
  -3   6  -1   30.10    2.30
  -3  -6   1   34.20    2.20
   4   6  -1  226.58   10.00
   4   6  -1  236.88    9.50
   4  -6   1  221.38   10.30
  -4   6   1  241.08    9.40
  -4   6   1  248.98   10.20
   4  -6   1  241.78    9.20
   4   6  -1  236.48    9.40
  -4  -6  -1  239.48    9.60
   4  -6   1  257.77    9.40
  -4   6   1  237.48    9.60
   4   6   1  238.78    9.60
   4  -6  -1  240.38    9.10
   4  -6  -1  237.28    9.10
  -4   6  -1  245.48    9.20
   4   6   1  242.78    9.60
   4   6   1  239.08   10.20
  -4   6  -1  231.28    9.80
   4  -6  -1  241.88    9.30
  -4  -6   1  241.58    9.50
   5   6  -1  186.98    8.00
   5  -6   1  179.18    7.60
   5  -6   1  181.58    7.70
  -5   6   1  176.28    8.10
   5   6  -1  184.38    8.70
  -5  -6  -1  189.38    8.20
   5   6  -1  177.28    7.80
   5  -6  -1  198.38    7.90
   5   6   1  196.28    8.40
   5   6   1  175.08    9.00
   5  -6  -1  201.68    8.10
  -5  -6   1  189.28    8.30
   5   6   1  191.78    8.40
  -5   6  -1  200.78    8.80
   6  -6   1    2.90    1.00
  -6   6   1    4.00    1.30
   6   6  -1    3.40    1.30
   6  -6   1    4.40    1.10
  -6  -6  -1    5.10    1.40
   6   6  -1    5.80    1.40
  -6   6  -1    3.70    1.30
   6   6   1    1.90    1.00
   6  -6  -1    6.80    1.30
   6   6   1    1.50    1.30
  -6  -6   1    8.30    1.70
   6  -6  -1    4.40    1.20
   6   6   1    3.60    1.20
  -7   6   1   49.40    4.00
   7   6  -1   47.80    3.70
   7   6  -1   48.90    3.60
   7  -6   1   46.60    3.50
  -7  -6  -1   40.60    4.10
  -7  -6   1   42.50    3.50
   7   6   1   49.00    3.70
   7   6   1   44.70    3.60
  -7   6  -1   46.90    4.70
   7  -6  -1   44.60    3.10
   7  -6  -1   51.19    3.50
   0  -7  -1  319.07   11.10
   0   7  -1  328.77   11.20
   0  -7  -1  318.77   11.00
   0   7  -1  324.97   11.10
   0  -7   1  328.07   11.00
   0   7  -1  331.77   10.90
   0  -7  -1  317.77   11.20
   0  -7   1  287.47   11.30
   0   7  -1  324.27   11.40
  -1   7   1  329.07   12.30
  -1  -7  -1  354.06   12.00
  -1  -7  -1  359.56   12.20
  -1   7   1  358.96   12.30
  -1   7   1  355.06   12.10
   1   7  -1  361.66   12.20
   1   7  -1  349.27   12.20
   1  -7   1  354.96   12.10
   1  -7   1  298.57   12.40
   1   7  -1  356.06   12.10
   1   7  -1  335.17   12.30
  -1  -7  -1  359.46   12.30
   1  -7  -1  359.66   12.40
   1  -7  -1  353.76   12.40
   1   7   1  364.76   12.60
  -1  -7   1  368.36   12.50
   1   7   1  361.06   12.50
   1   7   1  363.16   12.40
  -1   7  -1  364.56   12.30
  -1  -7   1  342.27   12.70
   1  -7  -1  361.46   12.70
  -1   7  -1  352.66   12.60
   1   7   1  373.86   12.40
  -1   7  -1  352.26   12.80
   2  -7   1  512.45   17.60
   2  -7   1  508.55   17.80
   2   7  -1  527.35   17.90
   2  -7   1  498.25   18.50
  -2   7   1  528.65   18.00
  -2   7   1  478.45   18.20
   2   7  -1  519.35   17.50
   2   7  -1  511.15   17.90
  -2  -7  -1  505.35   17.30
  -2  -7  -1  523.25   18.00
   2   7  -1  509.55   18.20
  -2  -7  -1  505.05   18.10
  -2  -7   1  520.55   18.00
  -2   7  -1  491.05   17.90
  -2   7  -1  500.85   18.00
   2  -7  -1  503.15   17.50
   2   7   1  488.95   17.80
   2  -7  -1  513.55   17.80
  -2   7  -1  522.25   18.30
   2   7   1  496.75   18.00
   2   7   1  507.45   17.80
   2  -7  -1  507.35   17.60
  -2  -7   1  533.05   17.80
   3  -7   1  212.18    9.20
   3   7  -1  217.88    7.70
  -3   7   1  216.28    8.60
   3  -7   1  219.38    8.30
   3  -7   1  208.68    8.10
  -3   7   1  220.18    8.60
  -3  -7  -1  217.78    8.60
   3   7  -1  240.78    9.10
  -3   7   1  226.08    9.10
   3   7  -1  220.58    8.50
   3   7  -1  217.08    8.50
   3  -7  -1  214.28    7.90
  -3  -7   1  211.18    8.00
   3  -7  -1  195.58    8.50
   3  -7  -1  206.78    7.70
  -3   7  -1  230.58    8.40
   3   7   1  215.28    8.20
  -3  -7   1  195.78    8.20
  -3   7  -1  208.08    8.00
   3   7   1  200.88    8.50
  -3   7  -1  194.58    8.50
   3   7   1  211.38    8.10
   3  -7  -1  202.18    7.80
   4  -7   1  123.79    6.50
  -4   7   1  125.09    5.60
  -4  -7  -1  121.49    5.70
  -4   7   1  129.19    5.80
   4   7  -1  126.09    5.60
   4  -7   1  124.39    5.40
   4  -7   1  115.79    5.20
  -4   7   1  128.29    6.30
   4   7  -1  142.69    6.40
   4  -7  -1  132.59    5.40
  -4   7  -1  121.79    6.70
   4   7   1  131.69    5.90
   4  -7  -1  131.89    5.30
   4   7   1  140.19    6.50
   4  -7  -1  122.79    5.50
  -4   7  -1  131.69    5.50
  -4   7  -1  119.09    5.90
   4   7   1  124.09    5.70
  -4  -7   1  126.79    5.70
   5   7  -1  108.29    5.50
  -5  -7  -1  109.79    5.70
   5  -7   1  113.29    5.40
   5   7  -1  120.89    6.40
  -5   7   1  124.79    5.90
   5   7  -1  115.69    5.60
   5  -7   1  117.59    5.30
   5   7   1  124.59    6.70
   5   7   1  127.99    6.00
   5   7   1  116.19    5.80
   5  -7  -1  133.09    5.70
   5  -7  -1  117.39    5.30
  -5  -7   1  121.99    5.80
  -5   7  -1  114.49    6.20
   6  -7   1   49.00    3.20
   6  -7   1   46.90    3.30
   6   7  -1   53.59    3.70
   6   7  -1   60.79    3.70
  -6   7   1   50.39    3.70
  -6  -7  -1   48.50    3.60
   6   7   1   59.49    3.90
  -6   7  -1   51.69    4.00
   6  -7  -1   53.99    3.50
  -6  -7   1   55.09    3.70
   6  -7  -1   55.99    3.30
   6   7   1   54.79    4.50
   6   7   1   53.69    3.70
   7  -7   1   17.90    2.40
  -7   7   1   18.80    2.90
  -7  -7  -1   17.20    2.70
   7   7  -1   18.20    2.50
   7   7  -1   19.30    2.70
   7   7   1   16.90    2.50
   7  -7  -1   15.00    2.10
  -7   7  -1   11.60    2.30
   7   7   1   20.10    2.70
  -7  -7   1   17.50    2.50
   0   8  -1   43.30    1.60
   0   8  -1   42.60    1.90
   0   8   1   44.00    1.50
   0  -8  -1   44.10    2.00
   0  -8   1   44.20    2.10
   0   8   1   45.50    1.70
   0  -8  -1   42.10    1.70
   0  -8   1   43.10    1.70
   0  -8  -1   44.00    1.80
   0   8  -1   41.00    1.80
   0   8   1   40.70    1.50
  -1   8   1  208.78    7.30
  -1   8   1  199.18    7.50
   1   8  -1  198.18    7.30
  -1   8   1  186.98    7.50
   1  -8   1  212.68    7.30
  -1  -8  -1  212.48    7.40
   1  -8   1  203.88    7.00
   1   8  -1  207.08    7.50
   1   8  -1  205.68    7.30
  -1  -8  -1  206.68    7.20
  -1  -8  -1  199.48    7.50
   1   8  -1  204.68    7.40
   1   8   1  205.78    7.30
   1  -8  -1  204.08    7.10
  -1   8  -1  200.78    7.10
   1  -8  -1  203.68    7.20
   1   8   1  207.98    7.10
  -1   8  -1  205.08    7.50
   1   8   1  207.78    7.40
   1   8   1  215.78    7.20
  -1  -8   1  205.58    7.30
  -1   8  -1  181.58    7.50
   1  -8  -1  209.18    7.50
   2   8  -1  280.97   10.20
   2  -8   1  279.87   11.10
  -2   8   1  324.27   11.10
  -2  -8  -1  294.67   10.60
  -2  -8  -1  288.87   10.80
   2   8  -1  301.47   10.60
  -2  -8  -1  286.57   10.00
   2   8  -1  295.17   10.60
   2  -8   1  285.87   10.20
   2   8  -1  301.67   10.90
   2  -8   1  278.67   10.40
  -2   8   1  291.87   10.60
  -2   8   1  279.87   10.80
   2  -8  -1  272.17    9.90
   2   8   1  265.37   10.00
   2  -8  -1  292.87    9.70
   2   8   1  281.67   10.20
   2   8   1  281.87   10.10
   2   8   1  277.97    9.60
  -2  -8   1  285.17   10.20
  -2   8  -1  270.27   10.20
  -2   8  -1  264.17   10.20
  -2  -8   1  279.27   10.00
   2  -8  -1  281.27   10.10
   2   8   1  263.37   10.20
  -2   8  -1  272.97   10.50
   3   8  -1   45.50    1.90
  -3   8   1   46.30    2.70
   3   8  -1   48.30    2.60
  -3   8   1   46.20    2.90
   3   8  -1   49.99    2.90
  -3  -8  -1   50.39    2.70
   3  -8   1   52.99    2.50
  -3   8   1   44.80    2.60
   3   8  -1   45.90    2.60
   3  -8   1   48.40    3.20
   3  -8   1   47.40    2.30
  -3  -8   1   47.80    2.50
   3   8   1   49.60    2.60
  -3   8  -1   46.80    2.90
   3  -8  -1   49.50    2.40
   3  -8  -1   46.10    2.20
   3  -8  -1   40.10    2.70
  -3   8  -1   45.30    2.50
   3   8   1   46.00    2.80
   3  -8  -1   42.80    2.40
  -4   8   1    9.70    1.50
  -4   8   1    8.20    1.30
   4  -8   1    8.50    1.20
   4   8  -1    9.60    1.40
  -4  -8  -1    7.60    1.30
   4   8  -1    7.60    1.20
  -4   8   1   11.90    1.80
   4  -8   1    9.10    1.80
   4  -8   1   10.90    1.20
   4   8  -1    9.90    1.70
   4  -8  -1    9.80    1.10
  -4  -8   1   10.20    1.40
  -4   8  -1    8.80    1.30
   4   8   1   10.90    1.40
   4   8   1   12.50    1.90
   4   8   1    8.60    1.30
   4  -8  -1   10.40    1.30
  -4   8  -1   11.90    1.80
   4  -8  -1    9.70    1.20
  -4   8  -1    7.60    1.40
   5  -8   1  177.38    7.30
   5  -8   1  179.78    7.50
   5   8  -1  179.08    8.50
   5   8  -1  179.08    7.70
  -5   8   1  183.18    8.00
   5   8  -1  176.28    7.80
  -5  -8  -1  158.28    7.70
   5   8   1  174.98    7.90
   5   8   1  182.68    8.70
   5  -8  -1  181.98    7.30
   5  -8  -1  180.58    7.60
   5   8   1  174.58    7.90
  -5   8  -1  185.48    8.40
  -5  -8   1  178.58    7.80
  -6  -8  -1    2.70    1.10
   6   8  -1    0.80    0.90
   6  -8   1    2.40    1.00
  -6   8   1    0.70    0.90
   6   8  -1    2.30    1.00
  -6  -8   1    0.10    0.70
   6   8   1    2.50    1.50
   6   8   1    1.00    0.90
   6   8   1    2.30    1.10
  -6   8  -1    2.20    1.20
   6  -8  -1    2.00    0.80
   6  -8  -1    1.10    0.80
  -7   8   1   71.39    4.90
  -7  -8  -1   75.29    4.90
   7   8  -1   65.29    4.40
   7   8  -1   74.69    4.80
   7  -8   1   66.59    4.30
   7   8   1   58.79    5.20
   7   8   1   64.59    4.40
  -7  -8   1   58.79    4.20
  -7   8  -1   62.69    4.80
   7  -8  -1   64.79    4.10
   7   8   1   66.69    4.50
   0  -9   1  616.44   20.50
   0   9  -1  572.24   20.60
   0  -9  -1  587.74   20.40
   0  -9  -1  593.24   20.70
   0   9  -1  595.04   20.90
   0   9  -1  622.14   20.30
   0   9   1  567.04   20.20
   0   9   1  614.24   20.40
   0  -9  -1  595.04   20.50
   0   9   1  617.84   20.20
   0   9  -1  610.04   20.50
  -1  -9  -1 1147.19   39.40
   1   9  -1 1137.59   39.50
  -1   9   1 1273.67   39.70
  -1  -9  -1 1140.09   39.30
   1  -9   1 1126.39   39.80
   1   9  -1 1122.99   39.30
   1  -9   1 1157.08   39.30
   1   9  -1 1171.58   39.40
  -1   9   1 1225.18   39.60
   1   9  -1 1204.18   39.60
  -1  -9  -1 1113.09   39.50
  -1   9   1 1118.29   39.30
   1  -9   1 1120.19   39.00
   1   9   1 1075.49   38.60
  -1  -9   1 1173.18   38.90
   1   9   1 1170.78   38.90
  -1   9  -1 1162.18   38.60
  -1   9  -1 1151.88   39.40
   1  -9  -1 1132.89   38.70
   1   9   1 1179.28   38.80
   1   9   1 1147.99   39.00
  -1   9  -1 1094.09   39.10
   1  -9  -1 1162.78   39.20
  -1   9  -1 1146.99   39.10
   1  -9  -1 1151.78   38.80
   2   9  -1  648.44   22.50
  -2   9   1  624.44   22.90
  -2   9   1  672.13   22.60
   2  -9   1  638.34   22.30
  -2  -9  -1  662.83   22.80
   2   9  -1  640.54   22.80
   2  -9   1  642.04   23.10
   2   9  -1  639.14   22.10
   2   9  -1  659.23   22.50
  -2   9   1  631.44   22.80
  -2  -9  -1  651.43   22.60
  -2  -9  -1  639.84   21.90
   2  -9   1  651.03   22.10
  -2   9  -1  640.94   22.00
   2   9   1  655.63   21.30
  -2  -9   1  619.14   21.60
   2  -9  -1  637.64   21.80
  -2   9  -1  619.04   22.20
   2  -9  -1  644.04   21.50
   2   9   1  609.64   21.90
   2  -9  -1  624.44   21.30
   2   9   1  552.44   21.60
   2   9   1  629.94   21.80
  -2   9  -1  632.54   22.00
   2   9   1  611.24   21.70
   3   9  -1  253.77   10.00
  -3   9   1  250.77   10.10
  -3  -9  -1  250.37    9.60
   3   9  -1  247.48    9.50
  -3   9   1  245.38    9.80
   3  -9   1  248.28   10.30
   3  -9   1  244.48    9.10
  -3   9   1  254.97    9.70
   3   9  -1  243.78    9.50
   3   9  -1  255.17    8.80
   3  -9   1  252.07    9.40
   3   9   1  248.98    9.40
   3  -9  -1  241.18    9.30
   3   9   1  254.67    9.80
  -3   9  -1  243.68    9.60
   3   9   1  242.58    9.50
   3  -9  -1  252.97    8.90
   3  -9  -1  244.68    9.10
  -3   9  -1  229.28    9.80
  -3  -9   1  247.48    9.30
  -3   9  -1  245.38    9.50
   4   9  -1   31.10    2.20
   4  -9   1   29.70    1.90
  -4   9   1   31.00    2.30
   4   9  -1   31.10    2.20
  -4  -9  -1   29.00    2.30
   4   9  -1   28.30    2.50
  -4   9   1   30.90    2.30
   4  -9   1   28.00    2.00
  -4   9   1   34.20    2.80
   4   9   1   26.50    2.20
  -4   9  -1   34.80    2.50
   4  -9  -1   31.80    2.00
  -4   9  -1   30.60    2.10
   4   9   1   30.60    2.60
  -4   9  -1   31.40    2.60
   4  -9  -1   30.20    2.00
   4  -9  -1   28.90    1.80
   4   9   1   29.00    2.20
  -4  -9   1   28.40    2.10
  -5   9   1   44.30    3.20
   5   9  -1   49.99    3.10
   5  -9   1   47.20    2.90
   5   9  -1   50.49    3.80
   5  -9   1   47.40    2.80
   5   9  -1   50.99    3.30
  -5  -9  -1   43.70    3.20
   5   9   1   47.30    3.10
  -5   9  -1   46.10    3.40
   5  -9  -1   43.20    2.50
   5   9   1   45.10    3.10
   5   9   1   40.60    3.50
   5  -9  -1   44.90    2.80
  -5  -9   1   44.80    3.00
   6   9  -1   93.79    6.10
  -6   9   1  107.79    5.90
  -6  -9  -1  102.09    5.70
   6   9  -1   99.99    5.40
   6  -9   1  104.59    5.20
   6   9  -1  107.19    5.60
  -6   9  -1  100.59    6.00
   6   9   1   94.29    6.30
  -6  -9   1  104.49    5.50
   6  -9  -1  110.39    5.30
   6   9   1  102.69    5.60
   6  -9  -1  107.79    5.00
   6   9   1  110.59    5.80
   7   9  -1  115.19    6.30
   7  -9   1  129.79    6.30
  -7  -9  -1  106.19    6.40
   7   9  -1  123.29    6.60
  -7   9   1  126.59    7.00
  -7  -9   1  118.09    6.30
   7   9   1  122.39    7.60
   7   9   1  107.69    6.30
  -7   9  -1  117.49    7.00
   7  -9  -1  117.39    6.10
   7   9   1  122.09    6.70
   0  10  -1   33.90    1.60
   0 -10  -1   31.30    1.50
   0  10  -1   31.40    1.80
   0  10  -1   32.90    1.30
   0 -10  -1   31.70    1.40
   0 -10   1   32.10    1.40
   0  10   1   32.20    1.40
   0 -10  -1   34.00    1.70
   0  10   1   32.00    1.30
   0  10  -1   31.70    1.50
   0  10   1   33.40    1.20
  -1 -10  -1  739.53   25.20
  -1 -10  -1  758.72   25.40
   1  10  -1  726.13   25.30
   1  10  -1  737.93   25.20
  -1  10   1  729.83   25.20
   1 -10   1  721.73   24.70
   1 -10   1  746.03   25.70
  -1 -10  -1  746.63   25.10
  -1  10   1  700.03   25.40
  -1  10   1  770.12   25.40
   1 -10   1  718.33   25.10
   1  10  -1  718.93   25.40
   1 -10  -1  766.32   25.50
  -1  10  -1  708.03   25.90
   1  10   1  754.82   25.50
  -1 -10   1  755.12   25.70
  -1  10  -1  754.52   26.20
   1 -10  -1  756.92   25.60
   1  10   1  756.62   25.80
   1  10   1  786.92   25.60
   1  10   1  768.92   25.80
   1  10   1  719.33   25.80
  -1  10  -1  751.22   26.00
   1 -10  -1  730.73   26.00
  -1  10  -1  759.82   25.30
  -2  10   1 1991.40   65.89
  -2  10   1 1882.21   66.09
   2  10  -1 1923.71   65.79
   2 -10   1 1954.10   65.59
   2 -10   1 2014.60   66.49
   2  10  -1 1911.21   65.39
  -2  10   1 1865.81   66.19
  -2 -10  -1 1968.40   66.09
   2 -10   1 1961.40   65.29
   2  10  -1 1898.41   66.09
  -2 -10  -1 1917.71   65.19
  -2 -10  -1 1966.80   65.79
   2  10  -1 1922.71   65.79
   2  10   1 1729.03   64.89
   2  10   1 1970.90   65.09
  -2  10  -1 1772.62   65.39
  -2  10  -1 1930.41   65.29
   2  10   1 1985.20   64.59
   2  10   1 1960.10   65.19
   2 -10  -1 2052.49   65.19
  -2 -10   1 1924.41   64.89
   2 -10  -1 1927.01   64.59
  -2  10  -1 1924.71   65.39
   2  10   1 1868.21   65.09
   2 -10  -1 1930.41   64.79
  -3  10   1    3.10    0.80
   3  10  -1    4.40    0.90
   3 -10   1    3.80    0.70
   3  10  -1    2.30    0.70
   3 -10   1    3.50    1.00
   3 -10   1    3.50    0.60
  -3  10   1    4.10    1.00
   3  10  -1    5.50    1.10
  -3 -10  -1    3.20    0.70
   3  10  -1    3.70    0.50
  -3  10   1    4.90    0.90
   3 -10  -1    4.20    0.70
   3  10   1    3.10    0.70
   3 -10  -1    4.40    0.60
  -3  10  -1    4.80    0.90
   3  10   1    4.50    1.00
  -3  10  -1    3.80    0.90
   3 -10  -1    4.90    0.90
  -3 -10   1    4.40    0.80
  -3  10  -1    3.50    0.90
   3  10   1    5.00    0.90
   4 -10   1  586.64   20.40
   4  10  -1  538.75   21.20
  -4  10   1  589.64   20.90
   4  10  -1  561.54   20.60
  -4 -10  -1  560.94   20.70
   4  10  -1  566.14   20.70
  -4  10   1  569.94   21.50
   4 -10   1  579.04   20.10
  -4  10   1  560.74   20.80
   4  10   1  576.64   21.40
  -4  10  -1  572.94   20.70
   4  10   1  553.24   20.80
   4 -10  -1  585.24   20.40
   4  10   1  573.64   20.90
  -4  10  -1  553.24   21.50
   4 -10  -1  592.84   20.10
  -4  10  -1  569.14   21.20
  -4 -10   1  567.24   20.60
   4 -10  -1  563.64   20.50
  -5  10   1  116.49    6.00
   5  10  -1  122.79    5.90
   5 -10   1  114.39    5.50
  -5 -10  -1  112.69    5.80
   5  10  -1  116.19    5.70
  -5  10   1  121.29    7.60
   5  10  -1  122.89    6.50
  -5  10   1  125.29    6.40
   5 -10  -1  112.39    6.40
  -5  10  -1  117.59    6.00
   5 -10  -1  104.09    5.10
   5 -10  -1  115.79    4.90
   5  10   1  103.09    6.00
  -5 -10   1  107.09    5.30
   5  10   1  105.79    5.50
   5  10   1  115.19    5.60
   6  10  -1    8.30    1.70
  -6  10   1   10.80    2.10
  -6 -10  -1    7.00    1.60
   6  10  -1   10.10    2.20
   6 -10   1    7.90    1.50
   6  10  -1    8.90    1.70
  -6  10  -1    6.00    1.70
   6  10   1    7.30    1.70
   6  10   1    6.30    1.50
   6 -10  -1    6.70    1.40
  -6 -10   1    7.70    1.50
   6  10   1   10.60    2.30
  -7 -10  -1   25.90    3.10
   7  10  -1   37.20    3.70
   7  10  -1   25.90    3.20
  -7  10   1   25.70    3.30
   7 -10   1   24.80    2.80
  -7  10  -1   26.60    3.50
   7  10   1   26.40    3.20
   7  10   1   28.70    3.30
   7 -10  -1   23.90    2.70
  -7 -10   1   25.80    3.00
   7  10   1   21.20    3.50
   0 -11  -1    3.70    0.60
   0  11  -1    3.10    0.50
   0 -11  -1    4.60    0.50
   0  11   1    3.80    0.40
   0  11   1    4.30    0.30
   0 -11  -1    3.90    0.50
   0  11  -1    3.50    0.60
   0  11  -1    3.90    0.30
   0  11   1    4.30    0.50
   0 -11   1    3.70    0.40
   0  11  -1    3.20    0.60
   0  11   1    2.30    0.60
  -1  11   1  354.06   11.70
  -1 -11  -1  322.37   11.70
  -1 -11  -1  336.77   11.50
  -1 -11  -1  325.87   11.50
   1  11  -1  338.17   11.70
   1 -11   1  303.47   12.00
   1  11  -1  298.57   11.60
  -1  11   1  331.07   11.50
   1 -11   1  311.37   11.40
  -1  11   1  318.07   12.00
   1  11  -1  333.67   11.50
  -1  11   1  334.37   11.80
   1  11   1  338.17   11.60
   1  11   1  345.37   11.90
  -1  11  -1  326.17   12.00
   1 -11  -1  326.77   11.60
  -1  11  -1  344.37   12.00
   1  11   1  325.07   11.50
   1  11   1  337.97   11.80
  -1 -11   1  334.37   11.70
   1  11   1  324.17   11.90
  -1  11  -1  343.77   12.30
   1 -11  -1  325.47   12.10
   1 -11  -1  343.57   11.50
  -2 -11  -1  911.51   31.30
   2 -11   1  921.71   32.60
   2  11  -1  882.61   31.80
  -2 -11  -1  926.41   32.10
   2  11  -1  911.41   31.80
   2  11  -1  904.91   31.50
  -2  11   1 1026.70   32.40
   2 -11   1  924.41   31.70
   2 -11   1  906.51   31.30
   2  11  -1  925.41   32.10
  -2  11   1  967.00   32.00
  -2  11   1  908.11   32.30
  -2 -11  -1  891.81   31.80
  -2  11  -1  900.21   32.10
   2  11   1  933.31   31.40
   2 -11  -1  914.41   31.50
   2  11   1  963.70   31.90
   2  11   1  798.42   31.50
  -2  11  -1  935.51   32.00
  -2  11  -1  959.00   32.30
   2  11   1  949.21   31.80
  -2 -11   1  917.31   31.60
   2 -11  -1  909.91   31.20
   2 -11  -1  938.71   31.90
   2  11   1  921.71   31.80
  -3  11   1   58.29    3.20
   3 -11   1   58.79    2.60
   3 -11   1   62.99    3.00
   3  11  -1   61.89    2.40
  -3  11   1   60.09    3.50
   3  11  -1   63.79    3.20
  -3  11   1   59.09    3.40
   3  11  -1   66.89    3.50
   3  11  -1   60.89    3.10
   3 -11   1   62.59    3.80
  -3 -11  -1   53.29    3.00
  -3 -11   1   54.99    2.90
   3 -11  -1   57.49    2.60
   3 -11  -1   60.19    2.80
  -3  11  -1   59.59    3.30
   3  11   1   60.49    3.20
   3  11   1   60.49    3.30
   3 -11  -1   56.19    3.00
  -3  11  -1   58.29    3.20
  -3  11  -1   64.49    3.60
  -4  11   1  428.46   16.00
  -4  11   1  413.86   15.90
  -4 -11  -1  429.96   15.80
   4 -11   1  402.36   15.00
  -4  11   1  406.06   16.50
   4  11  -1  423.16   15.80
   4  11  -1  420.76   15.70
   4 -11   1  433.66   15.40
   4  11  -1  425.56   16.30
   4  11   1  416.66   15.50
  -4 -11   1  409.36   15.30
   4 -11  -1  410.66   15.10
  -4  11  -1  412.16   16.30
   4  11   1  431.16   15.70
   4  11   1  425.46   16.10
  -4  11  -1  404.46   15.40
  -4  11  -1  404.76   15.90
   4 -11  -1  400.36   14.70
   4 -11  -1  412.06   15.20
   5 -11   1   29.00    2.20
   5  11  -1   29.70    2.40
  -5  11   1   29.90    3.10
   5  11  -1   30.20    2.90
  -5  11   1   29.50    2.50
   5  11  -1   30.40    2.50
  -5  11   1   29.00    2.90
  -5 -11  -1   28.30    2.80
   5 -11  -1   25.60    2.00
   5 -11  -1   25.80    2.10
  -5  11  -1   29.40    3.10
   5  11   1   28.20    2.80
   5 -11  -1   28.10    1.90
   5  11   1   27.40    2.80
  -5 -11   1   21.50    2.40
   5  11   1   22.70    2.50
   6  11  -1   54.69    3.70
   6 -11   1   52.19    3.40
   6  11  -1   50.29    4.20
  -6 -11  -1   48.50    3.60
   6  11  -1   48.40    3.60
  -6  11   1   46.90    3.70
   6 -11  -1   50.49    3.30
  -6  11  -1   49.20    3.90
  -6 -11   1   43.20    3.30
   6  11   1   49.60    3.60
   6  11   1   49.60    3.60
   6  11   1   43.70    4.10
  -7 -11  -1    2.00    1.20
   7  11  -1    1.60    1.20
  -7  11   1    2.60    1.40
   7 -11   1    3.40    1.30
   7  11  -1    4.20    1.50
   7  11   1    1.80    1.20
  -7  11  -1    1.20    1.30
   7  11   1    3.10    1.70
  -7 -11   1    1.70    1.20
   7 -11  -1    3.30    1.30
   7  11   1    0.90    1.20
   0 -12  -1 1311.07   45.40
   0 -12   1 1350.56   45.40
   0 -12  -1 1372.16   45.40
   0  12   1 1338.77   45.40
   0  12  -1 1307.17   45.90
   0  12   1 1390.26   45.30
   0  12   1 1349.16   46.00
   0  12   1 1289.47   45.30
   0  12  -1 1347.27   45.20
   0 -12  -1 1339.77   45.70
   0  12  -1 1324.17   45.50
   0  12  -1 1371.56   45.70
  -1  12   1  224.08    8.30
  -1  12   1  217.68    8.70
  -1 -12  -1  227.38    8.40
   1  12  -1  214.78    8.30
  -1  12   1  233.38    8.50
  -1  12   1  232.68    8.30
   1  12  -1  229.08    8.40
   1 -12   1  217.48    8.10
  -1 -12  -1  222.58    8.20
   1  12  -1  236.18    8.20
  -1 -12  -1  237.08    8.20
   1  12   1  229.58    8.00
   1  12   1  214.48    8.10
   1 -12  -1  222.58    8.20
  -1 -12   1  229.08    7.90
  -1  12  -1  211.08    8.20
   1  12   1  228.18    8.00
   1  12   1  218.48    7.70
   1 -12  -1  208.28    7.80
   1  12   1  212.98    7.60
   1 -12  -1  217.58    7.60
  -1  12  -1  204.18    8.40
  -1  12  -1  220.68    8.10
  -2  12   1   22.50    1.50
  -2 -12  -1   23.30    1.50
   2  12  -1   20.90    1.40
   2 -12   1   23.50    1.90
   2 -12   1   24.30    1.40
  -2 -12  -1   21.70    1.60
   2  12  -1   21.00    1.60
   2 -12   1   22.60    1.00
   2  12  -1   22.90    1.50
  -2 -12  -1   20.40    1.10
   2  12  -1   23.90    1.30
  -2  12   1   24.60    1.80
  -2  12   1   20.50    1.70
  -2  12  -1   17.20    1.40
   2  12   1   16.10    1.20
   2  12   1   19.60    1.40
   2 -12  -1   18.60    1.40
   2  12   1   17.90    1.10
   2  12   1   20.80    1.40
   2 -12  -1   18.60    1.20
   2  12   1   21.30    1.40
  -2 -12   1   19.80    1.30
  -2  12  -1   20.40    1.60
   2 -12  -1   19.10    1.00
  -2  12  -1   18.10    1.50
  -3  12   1  331.07   12.20
   3  12  -1  312.57   12.00
   3  12  -1  319.47   11.20
  -3  12   1  315.27   12.40
  -3 -12  -1  313.77   12.00
   3  12  -1  335.67   12.40
   3 -12   1  321.27   11.70
   3  12  -1  313.47   12.00
  -3  12   1  334.67   12.70
   3 -12   1  310.27   11.30
   3  12   1  317.27   11.90
  -3  12  -1  290.87   12.20
   3  12   1  314.07   11.80
   3 -12  -1  320.37   11.10
  -3  12  -1  318.27   12.00
   3 -12  -1  312.27   11.70
   3 -12  -1  315.87   11.40
   3  12   1  323.67   12.10
  -3  12  -1  293.37   12.00
  -3 -12   1  316.37   11.60
  -4  12   1  100.79    5.40
   4  12  -1   99.49    5.10
   4  12  -1   84.39    4.50
  -4 -12  -1   86.39    4.50
  -4  12   1   96.49    4.90
   4 -12   1   92.19    4.30
   4  12  -1   94.89    4.70
  -4  12   1   91.59    4.80
  -4 -12   1   99.49    4.70
   4  12   1  102.59    5.30
  -4  12  -1   98.99    5.50
   4 -12  -1   96.49    4.60
   4 -12  -1   98.99    4.10
   4 -12  -1   95.49    4.40
  -4  12  -1   97.19    4.90
   4  12   1   94.19    4.80
  -4  12  -1  100.79    5.20
   4  12   1  102.89    4.90
  -5  12   1    2.90    1.10
   5 -12   1    4.90    1.00
  -5  12   1    6.80    1.50
   5  12  -1    4.80    1.40
   5  12  -1    3.90    1.20
   5  12  -1    9.40    1.70
  -5  12   1    2.50    1.20
  -5 -12  -1    2.70    1.00
   5 -12  -1    5.00    1.30
   5  12   1    4.70    1.40
   5  12   1    2.70    1.10
   5  12   1    2.70    1.00
  -5  12  -1    4.30    1.20
   5 -12  -1    5.40    1.10
   5 -12  -1    3.00    0.80
  -5 -12   1    3.20    1.00
   6  12  -1  213.18   10.50
   6 -12   1  223.88    9.30
  -6 -12  -1  218.38    9.70
   6  12  -1  226.68    9.80
  -6  12   1  207.68    9.90
   6  12  -1  217.98    9.60
   6  12   1  240.88   10.00
   6  12   1  212.98    9.80
  -6  12  -1  224.38   10.40
  -6 -12   1  218.58    9.50
   6 -12  -1  222.98    9.20
   6  12   1  195.68   10.40
   7  12  -1    9.60    2.00
  -7  12   1    5.80    1.80
   7  12  -1    9.10    1.90
   7 -12   1    6.90    1.60
  -7 -12  -1    5.90    1.70
   7  12   1   10.40    2.50
  -7 -12   1    4.50    1.40
  -7  12  -1    5.50    1.80
   7 -12  -1    8.30    1.70
   7  12   1    6.60    1.80
   7  12   1    6.40    1.70
   0  13   1    0.40    0.10
   0  13  -1    0.90    0.30
   0  13  -1    0.60    0.30
   0  13   1    0.70    0.20
   0  13  -1    0.40    0.30
   0 -13  -1   -0.10    0.20
   0  13   1    0.20    0.40
   0 -13   1    0.20    0.20
   0 -13  -1    0.60    0.20
   0  13  -1    0.10    0.20
   0 -13  -1    0.80    0.30
   0  13   1    0.10    0.20
   1  13  -1  244.08    9.10
   1  13  -1  242.68    8.80
  -1 -13  -1  247.28    9.10
  -1  13   1  246.88    9.50
   1  13  -1  254.07    9.10
  -1  13   1  241.58    8.90
  -1  13   1  239.08    9.10
  -1 -13  -1  246.88    8.80
  -1  13   1  248.38    9.00
  -1 -13  -1  246.28    8.90
   1  13   1  242.18    9.20
  -1  13  -1  243.58    9.10
   1 -13  -1  261.47    8.80
  -1  13  -1  244.08    9.20
  -1 -13   1  240.78    8.80
   1  13   1  227.58    8.50
   1  13   1  251.07    8.70
  -1  13  -1  248.78    9.50
   1 -13  -1  253.07    9.30
   1  13   1  258.47    9.00
   1 -13  -1  243.08    8.60
   1  13   1  248.98    8.90
   2 -13   1  340.57   12.10
   2  13  -1  351.26   12.60
   2 -13   1  343.57   13.50
  -2 -13  -1  342.77   12.80
  -2  13   1  359.76   13.20
  -2 -13  -1  355.86   13.10
  -2 -13  -1  347.87   12.40
   2 -13   1  351.06   12.60
   2  13  -1  357.36   12.80
   2  13  -1  400.66   13.20
  -2  13   1  363.36   13.50
  -2  13   1  357.16   12.90
   2  13  -1  342.07   12.80
   2  13   1  347.77   12.40
   2  13   1  355.56   12.70
   2  13   1  354.16   12.30
   2  13   1  333.17   12.50
   2  13   1  345.87   12.60
  -2  13  -1  335.17   13.00
   2 -13  -1  346.87   12.30
   2 -13  -1  341.37   12.70
  -2  13  -1  349.37   12.80
  -2  13  -1  343.47   13.00
   2 -13  -1  352.96   12.00
  -2 -13   1  343.77   12.40
  -3  13   1  111.69    5.10
  -3  13   1  110.59    5.40
   3 -13   1  108.09    4.30
   3  13  -1  116.89    5.00
  -3  13   1  112.49    5.50
   3  13  -1  109.59    5.00
   3  13  -1  123.49    5.40
   3 -13   1  114.69    4.70
  -3 -13  -1  112.29    5.00
   3 -13  -1  109.19    4.60
  -3  13  -1  109.99    5.50
   3  13   1  110.59    5.10
  -3  13  -1  119.09    5.30
  -3  13  -1  116.49    5.30
   3  13   1  104.19    5.10
   3  13   1  115.29    5.00
   3 -13  -1  118.99    5.00
   3 -13  -1  114.69    4.30
  -3 -13   1  105.79    4.70
   4  13  -1  334.47   13.30
  -4  13   1  333.97   14.10
   4  13  -1  364.56   13.90
  -4  13   1  328.97   13.60
  -4  13   1  349.57   13.60
   4 -13   1  346.07   12.90
  -4 -13  -1  357.56   13.30
   4  13  -1  360.36   13.30
   4 -13  -1  326.47   12.50
   4  13   1  367.06   14.00
  -4  13  -1  330.87   13.70
  -4  13  -1  384.86   14.50
   4  13   1  354.06   13.50
   4 -13  -1  332.37   12.90
  -4 -13   1  345.57   13.20
   4  13   1  356.86   13.60
  -4  13  -1  360.86   13.60
   4 -13  -1  346.87   13.30
   5 -13   1  142.19    6.20
  -5  13   1  137.79    6.80
  -5 -13  -1  149.79    6.70
   5  13  -1  124.79    6.90
   5  13  -1  137.69    6.50
   5  13  -1  140.69    6.70
  -5  13   1  143.19    6.80
  -5  13   1  132.79    7.30
   5  13   1  136.59    6.70
   5 -13  -1  144.09    6.30
   5 -13  -1  142.49    6.30
  -5 -13   1  129.99    6.40
   5  13   1  159.88    7.60
  -5  13  -1  138.29    7.10
   5  13   1  143.99    6.80
   6  13  -1   39.10    3.20
  -6 -13  -1   34.40    3.00
  -6  13   1   30.80    3.60
   6  13  -1   41.00    3.10
   6 -13   1   38.10    2.80
   6  13  -1   40.90    3.70
  -6 -13   1   34.30    2.80
  -6  13  -1   36.80    4.10
   6  13   1   40.20    3.20
   6  13   1   31.80    3.30
   6  13   1   33.80    3.50
   6 -13  -1   39.30    2.80
   7  13  -1   67.19    4.70
   7  13  -1   63.19    4.40
  -7 -13  -1   60.19    4.40
  -7  13   1   54.79    4.60
   7 -13   1   74.99    4.30
  -7 -13   1   75.39    4.60
   7  13   1   69.29    5.40
   7  13   1   60.99    4.50
  -7  13  -1   65.99    5.00
   7  13   1   58.59    4.60
   7 -13  -1   62.89    4.00
   0  14   1  651.63   23.00
   0 -14   1  655.93   22.40
   0  14  -1  671.13   22.10
   0  14  -1  653.43   22.50
   0 -14  -1  648.44   22.70
   0  14   1  649.34   22.10
   0 -14  -1  644.84   22.40
   0  14   1  650.83   22.40
   0  14  -1  646.24   23.00
   0 -14  -1  633.54   22.30
   0  14  -1  685.73   22.60
   0  14   1  617.34   22.20
   1  14  -1   77.29    3.10
   1  14  -1   76.39    3.50
  -1 -14  -1   77.79    3.20
   1 -14   1   75.99    3.10
  -1  14   1   68.49    3.30
   1  14  -1   78.99    3.40
  -1 -14  -1   72.19    3.30
  -1  14   1   76.89    3.30
  -1 -14  -1   75.19    3.20
  -1  14   1   82.19    3.40
  -1  14   1   78.49    3.80
   1  14   1   78.49    3.60
   1 -14  -1   79.59    3.20
   1 -14  -1   81.69    3.70
   1 -14  -1   81.99    3.00
   1  14   1   77.39    3.00
  -1  14  -1   79.69    3.60
  -1  14  -1   77.49    3.80
  -1 -14   1   82.99    3.30
   1  14   1   81.59    3.10
  -1  14  -1   75.69    3.50
   1  14   1   84.89    3.40
   2 -14   1   81.99    4.00
   2  14  -1   71.29    3.30
  -2  14   1   69.99    3.30
  -2  14   1   70.79    3.80
  -2  14   1   81.29    3.70
  -2 -14  -1   67.19    3.50
   2 -14   1   68.69    2.60
  -2 -14  -1   69.19    3.20
   2  14  -1   71.89    3.30
   2  14  -1   70.89    3.50
   2 -14   1   75.49    3.20
   2  14  -1   71.29    3.10
  -2  14  -1   77.79    3.70
   2 -14  -1   73.59    3.10
  -2 -14   1   67.19    3.10
   2  14   1   73.69    3.40
   2  14   1   71.49    3.10
   2 -14  -1   70.29    2.80
   2 -14  -1   68.99    3.40
  -2  14  -1   67.69    3.40
   2  14   1   72.69    3.30
   2  14   1   73.09    3.10
   2  14   1   67.39    3.20
   3  14  -1   62.09    3.20
   3 -14   1   60.59    3.00
   3  14  -1   65.19    3.30
  -3  14   1   60.39    3.60
  -3  14   1   53.89    3.50
  -3  14   1   67.79    3.40
   3  14  -1   64.09    3.50
   3  14   1   58.29    3.30
  -3  14  -1   62.69    3.40
   3 -14  -1   59.59    3.20
   3  14   1   60.79    3.20
   3 -14  -1   59.89    2.50
  -3  14  -1   57.69    3.40
  -3  14  -1   54.69    3.50
   3  14   1   61.09    3.20
  -3 -14   1   60.19    3.00
   3 -14  -1   55.29    2.80
  -4  14   1    3.20    1.00
  -4 -14  -1    4.90    1.10
  -4  14   1    3.70    1.20
   4  14  -1    5.40    1.30
   4  14  -1    6.50    1.20
  -4  14   1    4.90    1.20
   4 -14   1    5.40    1.00
   4  14  -1    4.00    1.00
   4 -14  -1    4.20    0.80
   4  14   1    3.60    1.00
   4  14   1    3.10    1.00
   4 -14  -1    6.00    1.10
  -4  14  -1    3.70    1.20
   4 -14  -1    6.00    1.00
  -4  14  -1    8.50    1.50
  -4 -14   1    5.30    1.00
   4  14   1    5.00    1.30
  -4  14  -1    4.10    1.20
  -5 -14  -1    1.80    0.90
   5 -14   1    4.30    1.00
  -5  14   1    3.00    1.40
   5  14  -1    4.30    1.20
   5  14  -1    3.40    1.20
  -5  14   1    2.70    1.10
  -5  14   1    3.90    1.30
   5  14  -1    3.90    1.20
   5  14   1    4.00    1.20
   5  14   1    5.10    1.30
  -5 -14   1    2.70    0.90
   5  14   1    4.30    1.40
  -5  14  -1    3.60    1.30
   5 -14  -1    7.70    1.30
  -5  14  -1    8.10    1.50
  -6  14   1  141.79    7.30
  -6 -14  -1  135.19    6.80
   6  14  -1  137.49    6.80
   6  14  -1  130.19    7.40
   6 -14   1  129.19    6.30
   6  14  -1  134.09    6.90
   6  14   1  129.99    6.90
   6  14   1  147.29    7.10
  -6  14  -1  123.89    7.30
   6  14   1  134.89    7.60
   6 -14  -1  143.49    6.50
  -6 -14   1  134.99    6.60
   0  15  -1  889.01   30.90
   0 -15  -1  882.81   30.20
   0 -15  -1  869.41   30.20
   0  15   1  900.21   30.30
   0  15   1  895.51   30.10
   0 -15   1  908.21   30.30
   0  15  -1  918.01   30.40
   0  15   1  863.91   30.90
   0  15  -1  855.61   30.40
   0  15  -1  904.81   29.90
   0 -15  -1  854.61   30.60
   0  15   1  864.21   30.00
   1 -15   1  149.88    5.80
  -1  15   1  157.58    6.60
  -1 -15  -1  151.18    6.00
   1  15  -1  171.88    6.10
   1  15  -1  155.18    5.80
  -1  15   1  152.88    6.00
   1  15  -1  157.48    6.20
  -1 -15  -1  151.68    5.90
  -1 -15  -1  151.38    5.80
  -1  15   1  158.08    6.00
  -1  15   1  141.49    6.00
  -1  15  -1  175.18    6.30
  -1  15  -1  162.18    6.20
  -1  15  -1  149.69    6.50
   1 -15  -1  162.08    6.40
   1 -15  -1  153.28    5.80
   1  15   1  148.29    6.20
   1  15   1  144.79    5.60
   1  15   1  156.58    5.70
   1 -15  -1  159.18    5.60
  -1 -15   1  156.88    5.90
   1  15   1  154.08    6.00
   2  15  -1  384.76   13.60
   2 -15   1  384.16   13.60
  -2  15   1  379.96   13.90
  -2 -15  -1  401.46   13.80
   2  15  -1  384.76   13.80
   2  15  -1  375.16   13.80
  -2 -15  -1  392.56   14.10
  -2  15   1  376.76   14.20
  -2  15   1  371.36   14.50
   2  15  -1  364.06   14.00
  -2 -15   1  393.56   13.60
   2  15   1  396.56   13.80
   2  15   1  403.56   14.00
   2 -15  -1  385.26   13.60
  -2  15  -1  360.26   14.00
   2  15   1  382.26   13.60
   2  15   1  395.46   13.90
  -2  15  -1  378.26   14.30
   2  15   1  359.66   13.60
  -2  15  -1  370.36   14.40
   2 -15  -1  386.66   13.20
   2 -15  -1  373.56   14.10
  -3  15   1   86.59    4.20
   3  15  -1   79.69    3.90
   3  15  -1   89.39    4.30
   3  15  -1   85.19    4.10
   3 -15   1   85.09    3.80
  -3 -15  -1   79.79    3.90
  -3  15   1   76.99    4.40
  -3  15   1   84.79    4.50
  -3  15  -1   81.39    4.40
   3 -15  -1   74.39    3.90
  -3  15  -1   80.89    4.30
   3 -15  -1   79.89    3.60
   3  15   1   81.69    4.00
  -3 -15   1   82.59    3.70
   3 -15  -1   79.29    3.20
   3  15   1   80.49    3.90
  -3  15  -1   76.19    4.10
   3  15   1   82.29    4.10
   4  15  -1   95.59    4.70
   4  15  -1   92.49    4.80
  -4  15   1   97.59    5.20
  -4  15   1   98.79    5.00
   4  15  -1   91.69    5.00
  -4  15   1   97.99    5.50
  -4 -15  -1  101.49    4.80
   4 -15   1   97.79    4.40
   4  15   1   89.79    4.80
   4  15   1   98.39    5.20
  -4 -15   1  100.59    4.70
   4  15   1   91.79    4.90
   4 -15  -1  102.69    4.50
   4 -15  -1  101.09    4.80
  -4  15  -1   93.69    5.00
  -4  15  -1   99.99    5.20
  -4  15  -1  112.09    5.80
   5  15  -1   53.39    3.60
   5 -15   1   49.30    3.10
  -5 -15  -1   47.50    3.30
   5  15  -1   54.99    3.50
   5  15  -1   56.29    3.90
  -5  15   1   51.39    3.70
  -5  15   1   51.89    4.10
  -5  15   1   46.60    3.50
   5  15   1   49.80    3.50
  -5  15  -1   52.19    3.80
   5 -15  -1   53.99    3.10
   5  15   1   56.99    4.00
   5  15   1   52.79    3.60
  -5  15  -1   42.60    3.30
  -5 -15   1   51.59    3.20
   6  15  -1  117.29    7.00
  -6 -15  -1  129.29    6.60
   6 -15   1  132.69    6.20
  -6  15   1  132.89    7.00
   6  15  -1  130.29    6.80
   6  15  -1  128.99    6.60
  -6 -15   1  124.19    6.30
   6  15   1  124.79    6.70
   6 -15  -1  134.29    6.20
   6  15   1  123.79    6.70
   6  15   1  137.79    7.50
  -6  15  -1  132.69    7.30
   0 -16   1  901.01   31.60
   0  16   1  883.21   31.50
   0  16  -1  922.81   32.30
   0 -16  -1  922.71   32.00
   0 -16  -1  919.11   31.60
   0  16  -1  960.20   31.90
   0  16   1  921.71   32.40
   0  16  -1  914.11   31.30
   0  16   1  958.90   31.40
   0 -16  -1  944.11   31.60
   0  16  -1  905.21   31.80
   0  16   1  938.81   31.50
   0  16   1  926.61   31.70
  -1  16   1  230.88    8.50
  -1  16   1  218.88    8.60
  -1 -16  -1  229.78    8.30
  -1 -16  -1  239.18    8.60
  -1 -16  -1  227.08    8.50
  -1  16   1  225.48    9.20
   1  16  -1  235.28    8.30
   1  16  -1  219.78    8.70
   1 -16   1  229.78    8.30
  -1  16   1  216.78    8.50
   1  16  -1  237.98    8.60
   1 -16  -1  248.08    9.20
  -1  16  -1  222.08    9.40
   1  16   1  248.88    8.50
   1  16   1  217.28    8.40
   1 -16  -1  235.58    8.40
  -1  16  -1  262.37    9.10
   1 -16  -1  244.68    8.60
   1  16   1  240.18    9.20
   1  16   1  239.58    8.80
  -1 -16   1  235.98    8.70
  -1  16  -1  237.38    9.00
   2  16  -1  228.48    8.70
  -2 -16  -1  232.28    9.00
   2  16  -1  221.88    8.90
  -2  16   1  216.98    9.00
  -2  16   1  224.48    9.40
  -2 -16  -1  236.68    8.70
   2 -16   1  237.38    8.60
   2  16  -1  233.88    8.60
   2  16  -1  238.48    8.80
  -2  16   1  230.38    8.90
   2  16   1  240.88    8.70
   2  16   1  223.68    8.40
  -2  16  -1  216.78    9.00
   2 -16  -1  233.58    8.90
   2  16   1  220.38    8.50
  -2  16  -1  236.18    9.30
  -2  16  -1  229.38    8.90
   2  16   1  232.08    8.50
   2 -16  -1  228.28    8.40
   2  16   1  194.78    8.60
  -2 -16   1  232.58    8.50
   2 -16  -1  235.28    8.00
   3  16  -1  280.37   11.00
  -3 -16  -1  279.17   10.60
  -3  16   1  271.77   11.30
   3  16  -1  287.37   10.80
  -3  16   1  283.87   10.90
  -3  16   1  278.07   11.40
   3 -16   1  278.37   10.40
   3  16   1  284.27   10.70
   3 -16  -1  280.87   10.80
  -3 -16   1  282.47   10.40
   3  16   1  283.97   10.80
  -3  16  -1  266.07   11.00
   3 -16  -1  274.57   10.20
   3  16   1  286.77   10.80
  -3  16  -1  246.28   11.10
  -4  16   1   55.39    3.80
   4  16  -1   60.09    3.50
  -4 -16  -1   64.39    3.50
   4 -16   1   63.69    3.20
  -4  16   1   59.29    4.10
  -4  16   1   59.29    3.70
   4  16  -1   60.79    3.80
   4  16  -1   59.29    3.60
   4 -16  -1   57.79    3.40
  -4  16  -1   61.39    3.70
   4 -16  -1   64.59    3.20
  -4  16  -1   50.59    3.60
   4  16   1   57.79    3.50
  -4  16  -1   58.09    4.00
   4  16   1   57.99    3.50
  -4 -16   1   56.99    3.20
   4  16   1   57.39    3.60
   5  16  -1   59.69    3.80
   5  16  -1   57.99    4.10
   5 -16   1   64.19    3.50
  -5  16   1   55.09    4.40
  -5  16   1   56.79    4.00
  -5  16   1   59.79    4.00
   5  16  -1   57.59    3.80
  -5 -16  -1   63.19    3.80
   5  16   1   56.59    3.90
  -5 -16   1   63.79    3.60
   5  16   1   64.09    4.00
  -5  16  -1   59.29    3.80
   5 -16  -1   59.99    3.40
  -5  16  -1   52.69    4.00
   5  16   1   67.19    4.30
  -6  16   1   87.49    5.60
   6  16  -1   86.39    5.20
  -6 -16  -1   93.29    5.30
   6  16  -1   98.29    6.00
   6 -16   1   97.39    5.00
   6  16  -1   92.29    5.50
  -6 -16   1   88.99    5.00
   6  16   1   98.79    5.60
   6  16   1   94.49    5.50
   6 -16  -1   92.69    4.90
   6  16   1   94.99    6.00
  -6  16  -1   97.19    6.00
   0  17  -1  167.58    6.60
   0 -17  -1  159.58    5.90
   0  17  -1  150.08    5.50
   0  17   1  152.18    5.80
   0  17   1  154.08    5.80
   0 -17  -1  151.08    6.20
   0  17   1  162.68    6.60
   0  17  -1  148.79    6.00
   0 -17  -1  157.78    5.80
   0  17  -1  157.48    6.00
   0  17   1  154.28    5.60
   0  17   1  159.58    5.90
  -1  17   1   56.69    2.60
  -1 -17  -1   53.09    2.40
  -1  17   1   56.29    2.70
   1  17  -1   53.69    2.50
  -1 -17  -1   50.69    2.60
  -1  17   1   49.40    3.10
   1  17  -1   50.49    2.80
  -1 -17  -1   53.79    2.60
   1 -17   1   51.19    2.40
   1  17  -1   53.19    2.40
   1  17  -1   55.59    2.70
   1  17   1   49.80    2.20
  -1 -17   1   57.49    2.50
   1  17   1   52.79    2.60
   1 -17  -1   54.49    2.90
  -1  17  -1   57.59    3.20
  -1  17  -1   59.19    2.80
   1 -17  -1   55.89    2.40
   1  17   1   52.89    2.20
   1  17   1   57.19    3.00
   1 -17  -1   55.39    2.20
   2 -17   1   53.59    2.60
   2  17  -1   56.49    2.90
  -2  17   1   58.49    3.10
  -2 -17  -1   58.39    2.70
   2  17  -1   55.49    2.80
  -2  17   1   55.99    2.90
   2  17  -1   54.39    2.70
  -2  17   1   52.49    3.30
   2  17  -1   52.79    2.70
  -2  17  -1   51.09    2.90
  -2  17  -1   55.29    3.10
   2  17   1   52.79    2.60
   2 -17  -1   51.39    2.90
   2 -17  -1   53.29    2.10
   2  17   1   51.49    2.70
   2  17   1   52.29    2.50
  -2 -17   1   51.29    2.50
  -2  17  -1   56.79    3.30
   2  17   1   53.79    2.70
   2 -17  -1   54.99    2.50
   2  17   1   53.89    2.80
  -3  17   1  466.75   17.50
   3 -17   1  484.55   17.00
  -3 -17  -1  495.05   17.20
  -3  17   1  470.05   17.90
   3  17  -1  471.95   17.20
   3  17  -1  462.95   17.40
  -3  17   1  493.55   18.10
   3  17  -1  441.66   17.40
   3  17   1  500.65   18.10
   3 -17  -1  486.55   18.10
   3  17   1  478.95   18.00
  -3  17  -1  483.35   18.50
  -3 -17   1  475.65   17.60
   3  17   1  484.75   18.10
  -3  17  -1  544.95   18.90
   3 -17  -1  487.15   17.50
  -4  17   1    0.00    0.70
   4  17  -1    0.90    0.70
   4  17  -1    2.20    0.80
  -4  17   1    1.30    0.80
   4  17  -1    4.60    1.10
  -4 -17  -1    0.30    0.60
   4 -17   1    2.20    0.70
  -4  17   1    2.20    1.00
   4 -17  -1    2.70    0.90
   4 -17  -1    1.60    0.70
  -4  17  -1    2.50    1.00
   4  17   1    2.10    0.90
  -4  17  -1    0.90    0.80
  -4  17  -1    0.60    0.80
   4  17   1    1.30    0.80
  -4 -17   1    2.40    0.70
   4  17   1    1.50    0.80
   5 -17   1    5.20    1.10
  -5  17   1    7.20    1.90
  -5  17   1    6.50    1.60
  -5 -17  -1    4.80    1.20
   5  17  -1    2.90    1.10
   5  17  -1    5.80    1.50
  -5  17   1    2.30    1.20
   5  17  -1    5.60    1.50
   5 -17  -1    5.70    1.10
  -5 -17   1    7.40    1.30
  -5  17  -1    2.50    1.30
   5  17   1    5.40    1.40
  -5  17  -1    3.50    1.20
   5  17   1    3.20    1.20
   5  17   1    5.90    1.60
  -6 -17  -1   18.30    2.50
   6  17  -1   18.90    2.90
   6  17  -1   19.30    2.70
  -6  17   1   14.40    2.60
   6 -17   1   15.20    2.00
   6  17  -1   20.70    2.70
  -6  17  -1   13.60    2.60
   6 -17  -1   16.10    2.00
   6  17   1   11.70    2.40
   6  17   1   14.10    2.30
   6  17   1   13.80    2.30
  -6 -17   1   15.30    2.10
   0 -18  -1   31.70    2.00
   0  18  -1   32.80    1.40
   0  18   1   31.90    1.70
   0  18  -1   33.90    1.90
   0  18   1   36.60    1.60
   0 -18  -1   35.10    1.70
   0  18  -1   33.70    2.30
   0  18   1   33.20    1.80
   0 -18   1   34.70    1.80
   0  18   1   36.30    1.70
   0 -18  -1   34.40    1.80
   0  18   1   37.20    2.40
   0  18  -1   35.40    1.90
  -1 -18  -1  172.28    6.50
  -1  18   1  165.38    6.60
  -1  18   1  171.28    7.40
  -1 -18  -1  173.78    6.70
   1  18  -1  168.08    7.00
   1  18  -1  172.08    6.40
  -1  18   1  161.18    6.70
   1 -18   1  176.78    6.50
  -1  18   1  180.48    6.70
   1  18  -1  165.38    6.70
  -1 -18  -1  170.88    6.70
   1 -18  -1  175.28    6.30
   1  18   1  164.58    6.30
  -1  18  -1  167.68    6.90
   1  18   1  181.38    7.20
   1 -18  -1  170.68    7.10
   1 -18  -1  175.78    6.50
  -1  18  -1  180.38    7.50
  -1 -18   1  174.08    6.60
  -1  18  -1  170.28    6.90
   1  18   1  178.48    6.70
   1  18   1  184.08    6.30
   2  18  -1  322.97   11.80
  -2 -18  -1  325.87   11.80
  -2  18   1  321.97   12.00
   2 -18   1  317.57   11.60
   2  18  -1  328.97   11.90
   2  18  -1  319.47   12.00
  -2  18   1  334.67   12.80
   2  18  -1  325.07   12.00
  -2  18   1  302.47   12.20
  -2  18  -1  344.27   12.60
  -2 -18   1  332.67   11.80
   2  18   1  316.77   12.00
  -2  18  -1  312.87   12.60
   2  18   1  322.47   11.70
   2 -18  -1  317.17   11.60
   2  18   1  314.77   11.90
   2  18   1  340.27   11.80
  -2  18  -1  312.87   12.20
   2  18   1  314.27   12.10
   2 -18  -1  323.27   12.30
  -3  18   1  114.99    6.00
   3  18  -1  122.69    5.50
   3  18  -1  112.89    5.40
  -3 -18  -1  121.29    5.20
  -3  18   1  118.19    5.50
  -3  18   1  114.09    5.80
   3  18  -1  125.39    5.30
   3 -18   1  119.19    5.00
   3 -18  -1  124.39    5.60
  -3  18  -1  124.39    6.10
   3  18   1  115.19    5.40
  -3  18  -1  119.39    5.90
   3  18   1  127.49    5.60
  -3 -18   1  116.29    5.10
   3  18   1  121.69    5.50
   3 -18  -1  123.59    5.10
  -3  18  -1  116.09    5.70
   4  18  -1   46.00    3.20
  -4  18   1   48.40    3.20
  -4  18   1   44.10    3.50
  -4 -18  -1   45.30    2.80
  -4  18   1   45.60    3.40
   4 -18   1   42.60    2.60
   4  18  -1   42.10    3.00
   4  18  -1   36.20    2.70
   4 -18  -1   45.70    2.60
   4  18   1   45.80    3.10
  -4 -18   1   45.00    2.70
   4  18   1   41.80    3.10
  -4  18  -1   45.50    3.30
  -4  18  -1   45.90    3.30
   4 -18  -1   45.20    3.00
   4  18   1   45.50    3.10
  -4  18  -1   46.50    3.60
   5  18  -1  133.19    6.50
   5 -18   1  128.99    5.80
  -5  18   1  116.49    6.40
  -5 -18  -1  130.39    6.10
   5  18  -1  130.29    6.20
  -5  18   1  122.09    6.70
   5  18  -1  120.59    6.60
  -5  18   1  121.69    7.10
   5  18   1  129.89    6.50
   5  18   1  123.39    6.70
  -5  18  -1  126.59    6.50
   5  18   1  133.69    6.60
  -5  18  -1  124.19    6.80
   5 -18  -1  134.29    5.90
  -5 -18   1  125.89    6.00
   6 -18   1    4.50    1.20
   6  18  -1    4.90    1.50
   6  18  -1    5.40    1.70
  -6 -18  -1    3.10    1.10
   6  18  -1    5.80    1.50
  -6  18   1    2.10    1.30
   6  18   1    3.30    1.50
   6 -18  -1    7.30    1.40
   6  18   1    4.50    1.40
  -6  18  -1    2.10    1.30
  -6 -18   1    5.10    1.30
   6  18   1    4.60    1.60
   0 -19  -1  195.28    7.90
   0 -19  -1  198.28    7.40
   0  19  -1  200.38    7.60
   0  19   1  200.28    8.30
   0  19   1  202.78    7.20
   0  19   1  198.88    7.30
   0 -19   1  200.18    7.50
   0  19  -1  203.68    7.10
   0  19  -1  202.98    8.20
   0 -19  -1  200.78    7.40
   0  19   1  204.58    7.60
   0  19   1  182.68    7.30
   0  19  -1  211.98    7.70
   1  19  -1  228.28    8.10
   1  19  -1  202.78    8.30
   1  19  -1  212.38    8.20
   1  19  -1  221.28    8.80
  -1  19   1  201.18    8.50
  -1  19   1  213.98    8.40
  -1  19   1  239.48    8.50
   1 -19   1  231.28    8.20
  -1 -19  -1  214.38    8.40
  -1 -19  -1  225.88    8.40
  -1 -19  -1  227.88    8.20
  -1  19   1  231.28    9.20
  -1  19  -1  204.28    8.50
   1 -19  -1  219.68    7.80
   1  19   1  215.38    8.20
  -1  19  -1  223.58    9.10
   1 -19  -1  223.58    8.70
   1  19   1  222.98    7.80
  -1  19  -1  216.78    8.50
   1  19   1  218.38    7.90
  -1 -19   1  224.78    8.10
   1  19   1  226.98    8.80
  -2  19   1  329.37   12.10
   2  19  -1  291.87   11.70
   2  19  -1  315.87   11.60
  -2  19   1  311.37   12.50
   2  19  -1  326.47   11.80
  -2 -19  -1  313.87   11.50
  -2  19   1  326.57   11.90
   2 -19   1  312.97   11.40
   2  19  -1  290.07   11.50
   2 -19  -1  335.77   11.80
   2  19   1  339.77   11.90
   2  19   1  329.17   12.20
  -2 -19   1  317.47   11.80
   2  19   1  321.67   12.00
  -2  19  -1  336.77   13.00
  -2  19  -1  325.47   12.40
   2 -19  -1  324.47   12.50
   2  19   1  320.17   11.80
  -2  19  -1  315.27   12.60
   2  19   1  321.87   12.10
   3  19  -1  192.48    8.10
  -3 -19  -1  193.48    7.80
  -3  19   1  193.48    8.50
   3  19  -1  200.28    8.10
   3  19  -1  193.38    7.90
  -3  19   1  192.18    8.20
  -3  19   1  190.18    8.70
   3 -19   1  197.68    7.60
   3  19   1  198.68    8.10
  -3  19  -1  197.88    8.60
   3  19   1  211.98    8.20
  -3  19  -1  180.48    8.50
  -3 -19   1  198.88    7.70
   3  19   1  183.38    7.90
  -3  19  -1  194.58    8.30
   3 -19  -1  188.38    7.50
   3 -19  -1  198.08    8.20
  -4 -19  -1   52.39    3.10
   4  19  -1   52.69    3.40
  -4  19   1   50.19    3.80
   4  19  -1   55.19    3.50
  -4  19   1   50.29    3.70
   4  19  -1   51.99    3.20
  -4  19   1   55.69    3.50
   4 -19   1   53.79    3.00
   4  19   1   55.59    3.40
  -4  19  -1   48.30    3.50
   4 -19  -1   53.99    2.90
  -4  19  -1   45.30    3.70
   4  19   1   52.49    3.40
   4 -19  -1   53.59    3.30
   4  19   1   47.00    3.20
  -4  19  -1   46.00    3.50
  -4 -19   1   51.69    3.00
   5  19  -1  127.99    6.00
   5  19  -1  121.59    6.20
   5 -19   1  113.09    5.40
   5  19  -1  109.79    6.20
  -5  19   1  102.69    6.60
  -5 -19  -1  118.09    5.70
  -5  19   1  119.79    6.50
  -5  19   1  112.29    6.20
   5  19   1  121.99    6.30
   5  19   1  110.89    6.30
  -5  19  -1  127.29    6.40
  -5 -19   1  116.09    5.60
  -5  19  -1  117.39    6.60
   5 -19  -1  127.59    5.60
   5  19   1  112.79    6.10
   6 -19   1   87.39    4.70
   6  19  -1   80.79    5.50
  -6  19   1   83.99    5.40
  -6 -19  -1   84.69    4.90
   6  19  -1   83.29    5.00
   6  19  -1   80.49    5.20
   6  19   1   88.29    5.30
  -6 -19   1   77.39    4.60
   6 -19  -1   85.09    4.50
  -6  19  -1   79.29    5.50
   6  19   1   79.89    5.40
   6  19   1   80.09    5.20
   0  20  -1   25.10    2.00
   0  20   1   23.60    1.30
   0  20  -1   22.20    1.60
   0 -20  -1   24.90    1.80
   0  20   1   19.60    2.10
   0  20   1   23.30    1.50
   0  20  -1   21.20    1.50
   0 -20  -1   25.60    1.40
   0  20   1   24.60    1.30
   0  20   1   22.20    1.30
   0 -20   1   26.20    1.50
   0 -20  -1   23.50    1.40
  -1 -20  -1  226.08    8.10
   1  20  -1  216.68    8.20
  -1  20   1  210.58    8.30
   1  20  -1  223.68    8.70
  -1 -20  -1  220.18    8.30
  -1  20   1  219.68    8.30
   1  20  -1  198.28    8.20
   1 -20   1  216.28    8.00
  -1 -20  -1  215.28    8.30
   1  20  -1  213.98    7.90
  -1  20   1  212.68    9.10
   1  20   1  219.28    8.40
  -1  20  -1  222.18    8.80
  -1 -20   1  231.48    8.40
   1  20   1  213.88    8.90
   1  20   1  232.58    8.00
  -1  20  -1  225.88    8.70
  -1  20  -1  228.98    9.30
   1 -20  -1  221.78    8.90
   1  20   1  219.08    8.10
   2 -20   1  314.27   11.30
  -2  20   1  315.57   11.70
   2  20  -1  307.77   11.60
   2  20  -1  312.37   11.40
  -2 -20  -1  310.87   11.30
  -2  20   1  280.47   11.80
   2  20  -1  301.47   11.50
   2  20  -1  302.87   11.60
  -2  20   1  321.87   12.60
  -2  20  -1  317.37   12.00
   2  20   1  298.27   11.40
   2  20   1  294.87   11.40
  -2  20  -1  300.77   12.20
  -2 -20   1  317.77   11.20
  -2  20  -1  316.77   11.80
   2 -20  -1  302.97   11.10
   2  20   1  291.37   11.50
   2  20   1  302.87   11.10
   2 -20  -1  301.47   11.80
   3 -20   1   34.30    2.10
   3  20  -1   35.50    2.50
   3  20  -1   36.10    2.40
  -3  20   1   36.50    3.00
   3  20  -1   35.00    2.30
  -3  20   1   29.10    2.60
  -3 -20  -1   32.90    2.20
  -3  20   1   35.50    2.50
   3  20   1   33.70    2.30
  -3 -20   1   36.80    2.20
  -3  20  -1   37.40    2.90
   3  20   1   36.30    2.50
   3 -20  -1   35.40    2.10
   3 -20  -1   36.70    2.60
  -3  20  -1   35.00    2.60
   3  20   1   37.00    2.50
  -3  20  -1   35.60    2.90
   4 -20   1   38.90    2.50
  -4  20   1   38.90    3.30
   4  20  -1   42.70    3.00
  -4 -20  -1   41.60    2.70
   4  20  -1   40.80    3.00
  -4  20   1   38.00    2.90
   4  20  -1   40.70    2.80
  -4  20   1   42.80    3.40
   4  20   1   49.10    3.20
   4 -20  -1   44.60    2.60
   4  20   1   43.80    3.10
  -4  20  -1   36.40    3.30
   4  20   1   43.10    3.10
  -4  20  -1   44.70    3.30
  -4 -20   1   45.20    2.70
   4 -20  -1   42.10    3.00
  -4  20  -1   46.80    3.40
   5  20  -1  153.78    7.90
  -5  20   1  174.38    8.80
  -5  20   1  170.38    8.20
  -5  20   1  158.88    8.00
   5  20  -1  158.38    7.80
   5  20  -1  155.98    7.50
  -5 -20  -1  165.38    7.40
   5 -20   1  162.98    7.10
   5  20   1  151.78    7.30
  -5  20  -1  151.48    7.50
  -5  20  -1  154.08    7.80
   5 -20  -1  144.09    6.50
   5  20   1  152.78    7.50
  -5 -20   1  155.28    6.80
   5  20   1  151.08    7.50
   6  20  -1   12.30    2.30
  -6  20   1   10.90    2.30
   6  20  -1   12.50    2.10
   6 -20   1   13.10    1.90
   6  20  -1   13.10    2.30
  -6 -20  -1   14.80    2.10
   6  20   1   13.40    2.40
   6  20   1   16.80    2.60
   6 -20  -1   11.00    1.70
   6  20   1   14.10    2.50
  -6 -20   1    8.60    1.60
  -6  20  -1   14.90    2.70
   0  21   1   23.00    1.50
   0 -21   1   24.70    1.50
   0  21   1   22.80    1.40
   0  21   1   24.40    1.30
   0  21   1   33.70    2.40
   0  21  -1   23.60    1.60
   0  21  -1   25.40    2.10
   0  21  -1   24.20    1.60
   0  21   1   24.20    1.40
   0 -21  -1   23.60    1.40
   0 -21  -1   24.90    1.50
   0 -21  -1   22.10    1.80
  -1 -21  -1   78.69    3.40
   1  21  -1   71.99    3.50
   1  21  -1   79.79    3.30
   1  21  -1   77.39    4.00
   1  21  -1   79.89    3.50
  -1  21   1   76.29    3.60
  -1 -21  -1   76.99    3.60
  -1  21   1   76.99    3.60
  -1  21   1   75.99    4.30
   1  21   1   76.49    3.50
   1  21   1   78.29    4.00
   1 -21  -1   81.59    4.00
   1  21   1   74.69    3.20
  -1 -21   1   81.49    3.50
   1  21   1   77.09    3.50
  -1  21  -1   77.79    3.80
  -1  21  -1   74.59    3.70
  -1  21  -1   84.79    4.40
   1  21   1   78.39    3.20
  -2  21   1    7.70    1.20
   2  21  -1    6.60    1.00
  -2  21   1    9.10    1.80
  -2 -21  -1    7.40    1.00
   2  21  -1    8.80    1.20
   2  21  -1    6.10    1.10
   2  21  -1    6.50    1.00
  -2  21   1    7.90    1.30
   2 -21   1    6.60    0.90
  -2 -21   1    6.00    0.90
   2  21   1    5.10    1.00
  -2  21  -1    4.80    1.00
  -2  21  -1    5.00    1.10
   2  21   1    7.00    0.90
  -2  21  -1    5.80    1.30
   2  21   1    5.70    1.00
   2 -21  -1    5.40    0.80
   2 -21  -1    6.60    1.20
   2  21   1    6.60    1.00
  -3  21   1  242.48   10.50
  -3  21   1  227.78    9.70
   3  21  -1  223.48    9.60
   3  21  -1  234.38    9.50
   3  21  -1  245.88    9.70
  -3 -21  -1  251.17    9.40
   3 -21   1  233.28    9.10
  -3  21   1  251.67   10.30
  -3  21  -1  239.38    9.90
  -3  21  -1  233.78   10.20
   3  21   1  241.18    9.70
   3  21   1  231.28    9.30
   3 -21  -1  233.98    9.80
  -3  21  -1  241.38   10.30
   3 -21  -1  242.58    9.10
  -3 -21   1  236.88    9.20
   3  21   1  241.08    9.70
  -4 -21  -1   13.10    1.60
   4 -21   1   12.40    1.50
   4  21  -1   11.90    1.80
   4  21  -1   12.60    1.80
  -4  21   1   14.50    2.40
  -4  21   1   14.40    2.30
   4  21  -1   12.40    1.80
  -4  21   1   18.40    2.40
   4  21   1   14.80    2.10
   4  21   1   16.10    2.10
  -4  21  -1   11.80    1.90
  -4 -21   1   12.00    1.50
   4 -21  -1   12.40    1.50
   4  21   1   15.80    2.10
  -4  21  -1   13.40    2.30
  -4  21  -1   19.90    2.60
  -5 -21  -1   52.59    3.40
   5  21  -1   51.69    3.80
   5  21  -1   51.69    3.80
  -5  21   1   59.39    4.60
  -5  21   1   53.09    4.00
  -5  21   1   58.79    4.30
   5  21  -1   49.70    3.50
   5 -21   1   52.49    3.20
   5  21   1   61.69    4.10
   5 -21  -1   51.19    3.20
  -5  21  -1   56.69    4.20
   5  21   1   50.59    3.70
  -5  21  -1   59.09    4.20
  -5 -21   1   53.39    3.30
   5  21   1   58.19    4.00
   6 -21   1    9.40    1.60
   6  21  -1   12.40    2.30
  -6  21   1   12.30    2.40
   6  21  -1    9.10    2.00
  -6 -21  -1    9.20    1.70
   6  21  -1    7.40    1.80
   6  21   1    8.60    2.10
   6 -21  -1    9.10    1.60
  -6 -21   1    9.20    1.70
  -6  21  -1    8.10    2.10
   6  21   1   10.30    2.10
   6  21   1    8.80    2.00
   0 -22  -1   35.40    1.90
   0  22   1   33.20    1.80
   0 -22  -1   35.10    1.90
   0 -22   1   37.00    2.00
   0  22   1   34.30    1.80
   0  22   1   32.00    2.50
   0  22   1   34.70    2.00
   0  22   1   35.70    1.80
   0  22  -1   33.70    2.50
   0  22  -1   33.30    2.10
   0  22  -1   33.40    2.10
   0 -22  -1   32.90    2.20
   1  22  -1  762.12   26.80
  -1 -22  -1  757.42   26.60
  -1  22   1  776.62   26.90
  -1  22   1  767.92   27.90
   1  22  -1  763.12   27.40
  -1  22   1  777.72   26.90
   1  22  -1  784.62   26.40
   1  22  -1  740.83   26.90
   1  22   1  797.32   26.80
   1 -22  -1  791.32   27.80
   1  22   1  791.72   27.20
  -1 -22   1  803.72   27.10
  -1  22  -1  759.22   28.20
  -1  22  -1  850.11   27.70
   1  22   1  721.73   26.80
  -1  22  -1  756.82   27.50
   1  22   1  779.62   27.20
   1  22   1  747.53   27.80
   2  22  -1   66.49    3.40
   2  22  -1   66.29    3.40
  -2  22   1   63.99    4.10
   2  22  -1   63.89    3.20
  -2  22   1   59.29    3.40
   2 -22   1   64.99    3.10
   2  22  -1   62.89    3.40
  -2  22   1   62.19    3.60
  -2 -22  -1   66.99    3.10
   2  22   1   62.09    2.90
   2  22   1   62.69    3.30
  -2  22  -1   60.69    3.60
  -2  22  -1   64.09    4.00
   2  22   1   62.69    3.30
  -2 -22   1   61.19    3.00
   2  22   1   65.59    3.40
   2 -22  -1   63.19    3.00
  -2  22  -1   64.99    3.50
   2 -22  -1   63.19    3.60
  -3  22   1    8.80    1.50
  -3 -22  -1    8.90    1.20
   3  22  -1   12.70    1.70
   3  22  -1    9.30    1.40
  -3  22   1   10.00    1.80
  -3  22   1   12.70    2.00
   3  22  -1   10.40    1.60
   3 -22   1   10.70    1.30
  -3  22  -1   10.70    1.90
  -3  22  -1   13.00    2.00
   3  22   1   10.70    1.60
   3 -22  -1   10.70    1.30
  -3  22  -1   12.10    1.90
  -3 -22   1   13.30    1.40
   3 -22  -1   14.30    1.90
   3  22   1   11.40    1.50
   3  22   1   13.00    1.70
   4 -22   1   61.79    3.30
  -4 -22  -1   57.69    3.40
   4  22  -1   65.39    3.90
   4  22  -1   60.59    3.80
  -4  22   1   60.59    3.90
  -4  22   1   56.99    4.20
  -4  22   1   70.29    4.60
   4  22  -1   56.69    3.50
  -4  22  -1   58.29    4.10
   4 -22  -1   59.89    3.20
   4  22   1   59.39    3.70
   4  22   1   58.29    3.70
  -4  22  -1   61.59    4.10
   4  22   1   64.79    3.90
  -4  22  -1   60.09    4.40
  -4 -22   1   59.79    3.30
   5  22  -1  109.29    5.90
   5  22  -1  113.89    6.30
  -5 -22  -1  123.09    5.90
   5  22  -1  126.79    6.50
  -5  22   1  107.49    6.90
  -5  22   1  118.69    6.70
   5 -22   1  125.79    5.70
  -5  22   1  132.19    6.70
  -5  22  -1  117.59    6.70
  -5  22  -1  122.29    6.60
   5 -22  -1  129.79    5.70
   5  22   1  122.49    6.50
  -5 -22   1  117.09    5.70
   5  22   1  109.29    6.10
   5  22   1  120.39    6.40
  -6 -22  -1   14.10    2.20
   6  22  -1   13.20    2.30
   6  22  -1   14.70    2.50
   6  22  -1   14.60    2.60
   6 -22   1   15.70    2.00
  -6  22   1   17.90    2.80
   6 -22  -1   13.80    1.90
   6  22   1   14.60    2.50
  -6 -22   1   11.80    1.80
   6  22   1   17.40    2.80
   6  22   1   13.70    2.50
  -6  22  -1   16.60    2.90
   0 -23   1   44.50    2.30
   0  23   1   46.30    2.20
   0  23   1   45.50    2.40
   0 -23  -1   43.20    2.30
   0  23  -1   49.10    3.10
   0  23  -1   42.60    2.50
   0  23  -1   49.00    2.60
   0  23   1   38.50    2.90
   0 -23  -1   45.90    2.70
   1  23  -1   21.70    1.70
   1  23  -1   23.90    1.60
  -1  23   1   21.10    2.50
  -1  23   1   22.70    1.70
  -1  23   1   22.30    1.70
  -1 -23  -1   25.60    1.60
   1  23  -1   23.60    2.40
   1  23   1   21.20    1.50
   1  23   1   28.90    2.20
   1  23   1   16.90    1.30
  -1  23  -1   17.80    2.20
  -1  23  -1   19.40    1.70
   1  23   1   22.40    1.30
  -1  23  -1   22.60    1.80
  -1 -23   1   22.80    1.50
   1  23   1   20.70    1.50
   2  23  -1  127.09    5.50
  -2  23   1  128.39    6.60
  -2  23   1  134.89    5.80
   2  23  -1  126.79    5.60
   2 -23   1  125.49    5.30
  -2 -23  -1  126.69    5.30
   2  23  -1  125.09    5.60
  -2  23   1  126.69    5.90
   2  23  -1  126.89    5.40
  -2  23  -1  130.39    6.10
   2 -23  -1  124.49    5.20
  -2  23  -1  123.19    6.30
   2 -23  -1  129.19    6.00
   2  23   1  137.49    5.80
  -2  23  -1  124.79    5.90
   2  23   1  126.09    5.60
  -2 -23   1  131.09    5.30
   2  23   1  125.39    5.20
   2  23   1  133.59    5.70
   3  23  -1  272.07   10.50
   3 -23   1  273.37   10.30
  -3 -23  -1  266.87   10.40
  -3  23   1  260.27   11.30
   3  23  -1  280.27   10.90
  -3  23   1  277.57   11.00
  -3  23   1  278.47   11.80
   3  23  -1  252.57   10.60
  -3 -23   1  260.87   10.30
  -3  23  -1  271.77   11.50
  -3  23  -1  292.17   11.70
   3 -23  -1  273.97   10.20
   3  23   1  267.47   10.50
   3  23   1  261.87   10.80
   3 -23  -1  284.07   11.10
  -3  23  -1  254.77   11.10
   3  23   1  268.37   10.90
  -4  23   1   95.79    5.80
   4 -23   1   95.59    4.60
  -4  23   1   99.89    5.40
  -4 -23  -1   98.99    4.80
   4  23  -1   92.19    5.20
   4  23  -1  103.59    5.30
  -4  23   1   99.89    5.80
   4  23  -1   87.79    4.80
   4  23   1  102.09    5.30
  -4  23  -1   94.99    5.90
   4 -23  -1  103.29    4.70
   4  23   1  106.89    5.20
   4  23   1   99.59    5.30
  -4 -23   1   99.09    4.70
  -4  23  -1   92.99    5.60
  -4  23  -1   94.59    5.50
  -5  23   1    7.50    1.80
   5  23  -1    5.40    1.50
   5  23  -1    5.90    1.60
   5 -23   1    6.20    1.30
  -5  23   1    5.60    1.90
   5  23  -1    7.10    1.50
  -5  23   1    4.10    1.70
  -5 -23  -1    6.80    1.40
   5  23   1    5.00    1.40
  -5  23  -1    6.30    1.80
  -5 -23   1    2.10    0.80
   5 -23  -1    4.30    1.10
  -5  23  -1    3.40    1.60
   5  23   1    3.10    1.20
   5  23   1   10.90    2.10
   6  23  -1    4.40    1.50
   6  23  -1    5.30    1.60
  -6 -23  -1    7.20    1.50
   6  23  -1    4.10    1.50
  -6  23   1    3.90    1.60
   6 -23   1    6.00    1.40
   6  23   1    5.60    1.80
   6 -23  -1    9.20    1.60
   6  23   1    5.10    1.60
   6  23   1   11.20    2.20
  -6 -23   1    7.10    1.40
  -6  23  -1    7.40    2.00
   0 -24   1  132.29    5.20
   0  24   1  134.69    6.20
   0  24  -1  123.59    5.30
   0 -24  -1  121.09    5.60
   0  24   1  127.79    5.30
   0 -24  -1  123.69    5.10
   0  24  -1  120.49    5.90
   0  24  -1  127.69    5.40
   0  24   1  114.09    4.90
  -1  24   1  118.89    5.20
  -1  24   1  117.49    6.00
  -1 -24  -1  115.19    4.80
  -1  24   1  106.99    5.00
   1  24  -1  119.49    5.00
   1  24  -1  118.29    5.10
   1  24  -1  117.69    5.60
  -1  24  -1  115.29    5.30
  -1  24  -1  109.79    5.20
   1 -24  -1  110.69    5.40
  -1 -24   1  114.69    4.80
   1  24   1  111.09    4.80
   1  24   1  118.29    4.50
   1  24   1  115.89    4.90
   1  24   1  115.49    5.50
  -1  24  -1  115.79    5.80
   2  24  -1   39.10    2.50
   2 -24   1   40.80    2.30
  -2 -24  -1   36.80    2.20
  -2  24   1   37.20    2.60
  -2  24   1   42.40    3.30
   2  24  -1   35.40    2.50
  -2  24   1   41.60    2.80
   2  24  -1   37.10    2.40
   2  24  -1   40.90    2.30
   2 -24  -1   39.90    2.20
   2  24   1   36.80    2.50
  -2  24  -1   36.30    2.60
   2  24   1   36.50    2.40
   2 -24  -1   37.20    2.70
   2  24   1   39.70    2.10
  -2 -24   1   35.30    2.10
  -2  24  -1   37.70    2.80
  -2  24  -1   38.20    3.00
  -3  24   1   88.49    4.70
  -3  24   1   87.79    5.30
   3  24  -1   95.99    4.50
   3  24  -1   87.09    4.50
   3 -24   1   83.99    4.10
   3  24  -1   95.89    4.70
  -3 -24  -1   88.79    4.20
  -3  24   1   81.69    4.90
   3 -24  -1   88.29    4.80
  -3  24  -1   93.79    5.30
  -3  24  -1   84.29    4.90
   3  24   1   89.59    4.30
  -3  24  -1   93.59    5.30
   3  24   1   92.09    4.70
   3 -24  -1   90.09    4.20
  -3 -24   1   90.79    4.20
   3  24   1   98.59    4.90
   4  24  -1  116.19    6.10
  -4 -24  -1  116.29    5.60
  -4  24   1  138.59    7.10
   4  24  -1  133.49    6.20
   4 -24   1  120.99    5.50
  -4  24   1  130.69    6.50
   4  24  -1  114.69    5.80
  -4  24   1  105.69    6.60
  -4  24  -1  126.09    6.60
   4 -24  -1  130.89    5.60
  -4 -24   1  124.39    5.70
  -4  24  -1  123.59    7.00
   4  24   1  122.19    6.20
   4  24   1  124.39    6.00
  -4  24  -1  130.69    6.90
   4  24   1  127.69    6.40
  -5  24   1   40.60    4.30
   5 -24   1   42.50    2.90
  -5  24   1   50.49    4.30
   5  24  -1   41.00    3.40
  -5  24   1   42.80    3.60
   5  24  -1   37.30    3.80
   5  24  -1   44.50    3.30
  -5 -24  -1   40.20    2.90
   5  24   1   38.80    3.20
   5 -24  -1   40.10    2.70
   5  24   1   40.30    3.40
  -5 -24   1   45.50    2.90
  -5  24  -1   42.40    4.10
  -5  24  -1   42.70    4.30
   5  24   1   43.50    3.60
   0  25   1   62.69    3.20
   0 -25   1   63.49    3.10
   0  25  -1   64.59    3.30
   0  25  -1   63.99    3.90
   0 -25  -1   63.39    3.10
   0  25   1   61.89    3.90
   0  25  -1   61.99    3.30
   0  25   1   70.19    3.00
  -1 -25  -1  461.35   16.10
  -1  25   1  450.65   16.30
   1  25  -1  430.16   16.30
  -1  25   1  446.06   16.40
   1  25  -1  441.06   16.20
   1  25  -1  447.96   16.90
  -1  25   1  443.76   17.40
   1 -25  -1  454.65   17.30
  -1  25  -1  448.26   17.90
  -1  25  -1  497.65   17.30
   1  25   1  451.05   17.40
  -1 -25   1  446.16   16.60
   1  25   1  482.15   16.30
  -1  25  -1  458.25   17.10
   1  25   1  464.25   16.80
   2  25  -1  133.29    5.60
  -2  25   1  136.99    6.90
  -2 -25  -1  125.19    5.40
   2  25  -1  130.09    5.70
  -2  25   1  124.09    6.00
  -2  25   1  130.99    6.00
   2  25  -1  126.09    5.80
   2  25  -1  137.69    5.90
   2  25  -1  128.09    5.70
   2 -25   1  134.19    5.50
   2  25   1  123.49    5.80
   2 -25  -1  132.99    6.30
  -2  25  -1  135.99    6.20
  -2 -25   1  133.79    5.60
   2  25   1  127.39    5.30
   2  25   1  128.29    5.80
  -2  25  -1  144.19    6.40
  -2  25  -1  132.69    6.70
   2 -25  -1  130.79    5.40
   3  25  -1  128.19    5.90
  -3 -25  -1  124.79    5.60
  -3  25   1  131.99    7.00
   3  25  -1  125.59    6.10
  -3  25   1  124.99    6.50
  -3  25   1  135.19    6.30
   3 -25   1  128.19    5.60
   3  25  -1  131.79    5.80
  -3  25  -1  138.89    6.90
   3  25   1  133.59    6.20
   3  25   1  124.19    6.00
  -3 -25   1  126.39    5.60
   3 -25  -1  127.99    5.50
  -3  25  -1  131.69    6.50
  -3  25  -1  130.49    6.90
   3  25   1  133.49    5.70
  -4  25   1   90.29    5.50
   4  25  -1   74.29    4.60
  -4 -25  -1   77.59    4.10
   4 -25   1   76.79    4.00
  -4  25   1   76.59    4.80
   4  25  -1   81.49    4.60
   4  25  -1   78.39    4.40
  -4  25   1   86.99    5.40
   4  25   1   86.39    4.80
  -4  25  -1   73.19    4.90
  -4  25  -1   86.99    5.50
  -4  25  -1   91.49    5.50
   4  25   1   87.29    4.90
   4 -25  -1   89.19    4.20
  -4 -25   1   82.59    4.20
   4  25   1   74.09    4.40
   5  25  -1   61.79    4.00
   5 -25   1   60.69    3.60
  -5 -25  -1   59.89    3.70
  -5  25   1   63.19    4.50
  -5  25   1   65.39    5.10
   5  25  -1   55.49    4.20
  -5  25   1   55.19    4.60
   5  25  -1   60.69    4.20
  -5  25  -1   66.69    4.70
   5  25   1   65.09    4.40
   5  25   1   59.99    4.00
   5 -25  -1   60.09    3.50
  -5 -25   1   55.09    3.50
  -5  25  -1   57.49    4.50
   5  25   1   54.89    4.00
   0  26  -1  186.98    8.20
   0  26   1  183.78    8.30
   0  26  -1  183.28    7.40
   0 -26   1  181.78    7.20
   0 -26  -1  184.38    7.20
   0  26   1  175.08    7.30
   0  26   1  189.18    7.00
   0  26  -1  171.68    7.40
  -1  26   1   42.30    2.60
  -1 -26  -1   45.30    2.40
   1  26  -1   42.20    2.50
  -1  26   1   46.30    2.70
  -1  26   1   42.00    3.30
   1  26  -1   43.30    2.60
   1  26  -1   47.40    3.10
   1  26   1   41.50    2.40
  -1 -26   1   39.20    2.30
   1  26   1   45.90    3.10
  -1  26  -1   45.20    2.80
   1  26   1   41.00    2.10
  -1  26  -1   46.30    2.80
  -1  26  -1   41.40    3.20
  -2 -26  -1   27.80    1.90
  -2  26   1   24.80    2.20
   2  26  -1   29.70    2.30
  -2  26   1   29.00    2.30
   2 -26   1   30.20    1.90
   2  26  -1   26.20    1.90
   2  26  -1   28.60    2.20
   2  26  -1   29.20    2.10
  -2  26   1   30.20    3.30
   2  26   1   30.90    2.30
  -2  26  -1   35.50    3.00
   2  26   1   33.00    1.90
   2  26   1   30.80    2.20
  -2  26  -1   30.60    2.60
   2 -26  -1   30.60    2.00
  -2  26  -1   32.00    2.50
  -2 -26   1   31.00    2.00
  -3  26   1  121.09    6.80
   3  26  -1  122.39    6.00
  -3  26   1  126.69    6.50
  -3 -26  -1  116.19    5.40
   3 -26   1  127.59    5.40
   3  26  -1  123.19    5.70
  -3  26   1  121.79    6.10
   3  26  -1  122.49    5.60
   3  26   1  113.59    5.60
  -3  26  -1  117.79    6.50
  -3  26  -1  116.39    6.00
   3  26   1  115.49    5.20
  -3  26  -1  122.29    6.40
   3 -26  -1  116.29    5.10
   3  26   1  121.49    5.90
  -3 -26   1  112.39    5.20
   4  26  -1  142.89    6.70
  -4  26   1  138.89    7.50
   4 -26   1  135.89    6.00
   4  26  -1  136.49    6.80
  -4  26   1  142.59    7.60
  -4  26   1  132.69    6.90
   4  26  -1  133.59    6.40
  -4 -26  -1  129.39    6.10
   4  26   1  126.99    6.50
  -4  26  -1  125.19    6.80
   4 -26  -1  129.89    5.70
   4  26   1  120.29    6.30
  -4  26  -1  130.49    7.10
  -4  26  -1  130.59    7.30
  -4 -26   1  127.09    5.80
   4  26   1  130.09    6.10
  -5 -26  -1    5.30    1.30
   5 -26   1    6.70    1.40
  -5  26   1    3.60    1.40
   5  26  -1    5.20    1.50
  -5  26   1    6.40    2.00
  -5  26   1    8.30    2.20
   5  26  -1    6.20    1.60
   5  26  -1    7.30    1.70
   5 -26  -1    6.60    1.20
  -5  26  -1    4.60    1.70
  -5  26  -1    5.20    1.80
   5  26   1    7.40    1.70
   5  26   1    6.40    1.50
   5  26   1    6.70    1.70
  -5 -26   1    4.50    1.10
   0  27   1   12.80    1.10
   0 -27  -1    7.80    1.10
   0  27   1    9.70    1.30
   0  27  -1    9.60    1.60
   0  27   1    7.80    1.50
   0  27  -1    8.20    1.20
   0 -27   1   10.80    1.20
  -1  27   1   44.50    3.50
  -1 -27  -1   46.70    2.50
   1  27  -1   46.60    3.20
  -1  27   1   51.99    2.90
   1  27  -1   47.50    2.80
  -1  27   1   42.90    2.80
   1  27  -1   45.50    2.70
  -1  27  -1   41.60    3.20
  -1  27  -1   40.80    2.70
   1  27   1   46.70    3.20
   1  27   1   43.80    2.20
  -1 -27   1   41.00    2.40
  -1  27  -1   46.80    2.90
   1  27   1   40.30    2.50
   2 -27   1   58.09    3.00
   2  27  -1   57.89    3.20
  -2 -27  -1   60.39    3.00
   2  27  -1   55.59    3.30
   2  27  -1   61.69    3.80
  -2  27   1   54.59    3.50
  -2  27   1   51.89    4.00
   2  27  -1   57.39    3.10
  -2  27   1   51.19    3.30
  -2 -27   1   56.39    3.00
  -2  27  -1   54.89    4.00
   2  27   1   61.69    3.30
   2  27   1   58.19    3.40
  -2  27  -1   52.29    3.60
   2  27   1   55.79    2.80
  -2  27  -1   64.19    3.70
   3  27  -1   60.99    3.80
  -3  27   1   60.49    3.80
   3  27  -1   58.99    3.40
   3 -27   1   62.79    3.30
  -3 -27  -1   56.69    3.20
  -3  27   1   56.59    4.30
   3  27  -1   63.49    3.60
  -3  27   1   60.29    4.10
   3 -27  -1   62.09    3.20
   3  27   1   59.49    3.60
  -3 -27   1   56.89    3.20
   3  27   1   59.19    3.80
   3  27   1   60.29    3.20
  -3  27  -1   67.29    4.60
  -3  27  -1   62.69    4.10
  -3  27  -1   70.59    4.50
   4  27  -1   30.70    2.60
  -4  27   1   28.10    3.20
  -4  27   1   28.80    3.10
   4 -27   1   30.30    2.20
   4  27  -1   27.50    2.80
  -4 -27  -1   30.60    2.30
  -4  27   1   30.10    3.70
   4  27  -1   33.10    3.20
  -4  27  -1   26.40    3.40
   4  27   1   34.20    2.80
   4  27   1   28.40    2.30
  -4  27  -1   31.00    3.50
   4  27   1   32.50    3.30
  -4 -27   1   29.90    2.20
   4 -27  -1   27.90    2.10
  -4  27  -1   27.40    3.40
   5  27  -1    3.70    1.30
   5 -27   1    7.40    1.40
  -5  27   1    5.30    1.80
  -5 -27  -1    5.10    1.20
   5  27  -1    7.10    1.70
  -5  27   1    6.20    1.90
   5  27  -1    7.50    1.70
  -5  27   1    8.20    2.00
   5  27   1    4.40    1.50
  -5  27  -1    3.80    1.60
   5  27   1    5.90    1.50
   5 -27  -1    6.70    1.30
   5  27   1    3.80    1.50
  -5 -27   1    4.70    1.20
  -5  27  -1    8.10    2.10
   0  28  -1  644.84   21.70
   0 -28   1  614.34   21.40
   0 -28  -1  587.34   21.30
   0  28  -1  594.44   22.60
   0  28   1  565.04   21.10
   0  28  -1  610.74   21.70
   0  28   1  585.84   22.50
   0  28   1  587.24   21.50
  -1  28   1   25.60    2.10
   1  28  -1   24.50    1.90
   1  28  -1   26.80    2.80
  -1 -28  -1   23.90    1.70
   1  28  -1   27.30    2.00
  -1  28   1   27.60    3.20
  -1  28   1   22.00    1.90
  -1  28  -1   32.10    3.30
  -1  28  -1   26.40    2.20
  -1  28  -1   25.80    2.20
   1  28   1   28.20    1.60
   1  28   1   29.10    2.90
   1  28   1   23.40    1.80
  -1 -28   1   25.10    1.80
  -2  28   1   64.49    3.80
   2  28  -1   61.29    3.40
   2  28  -1   72.89    3.60
  -2 -28  -1   56.99    3.20
   2  28  -1   57.79    3.60
  -2  28   1   60.89    3.80
  -2  28   1   65.69    4.50
   2  28   1   52.79    3.40
  -2 -28   1   60.39    3.10
  -2  28  -1   56.09    3.80
   2  28   1   59.09    3.20
  -2  28  -1   63.39    3.80
  -2  28  -1   61.99    4.20
   2  28   1   61.99    2.90
   3 -28   1   27.60    2.00
   3  28  -1   26.40    2.20
  -3 -28  -1   29.60    2.10
  -3  28   1   28.20    2.80
   3  28  -1   27.90    2.80
  -3  28   1   24.40    3.40
  -3  28   1   27.10    2.90
   3 -28  -1   29.20    2.00
  -3  28  -1   28.30    3.10
  -3 -28   1   28.30    2.00
   3  28   1   28.80    2.90
  -3  28  -1   31.50    3.00
   3  28   1   28.20    2.00
  -3  28  -1   21.30    3.00
   3  28   1   27.10    2.70
   4  28  -1    5.30    1.30
   4 -28   1    8.10    1.40
  -4  28   1    8.40    1.80
   4  28  -1    7.20    1.60
  -4  28   1    7.50    2.00
  -4  28   1    6.50    1.80
  -4 -28  -1    8.10    1.40
   4  28  -1    9.60    1.70
  -4 -28   1   11.50    1.50
  -4  28  -1    8.10    2.00
  -4  28  -1   12.40    2.50
  -4  28  -1   10.40    2.20
   4  28   1   10.50    1.70
   4  28   1   13.20    2.10
   4 -28  -1    8.80    1.40
   4  28   1    7.60    1.70
   5  28  -1   11.90    2.30
  -5  28   1   16.20    2.80
  -5  28   1   19.30    3.10
  -5 -28  -1   14.70    2.00
   5 -28   1   13.50    1.80
   5  28  -1   15.70    2.50
  -5  28   1   16.30    3.10
   5  28  -1   12.40    2.10
   5 -28  -1   12.60    1.70
  -5 -28   1   14.00    1.90
   5  28   1   14.40    2.50
   5  28   1   11.00    2.20
  -5  28  -1   10.70    2.40
   5  28   1   11.80    1.90
  -5  28  -1   15.80    2.90
   0  29   1    9.80    1.80
   0  29  -1    5.80    1.10
   0  29   1    9.00    1.30
   0 -29   1    8.20    1.20
  -1  29   1   53.69    3.10
   1  29  -1   49.99    3.40
  -1 -29  -1   50.09    2.70
   1  29  -1   51.39    2.90
  -1  29   1   47.30    3.00
  -1  29   1   46.80    3.70
   1  29  -1   47.40    2.90
   1  29   1   51.39    2.90
  -1  29  -1   50.79    3.30
  -1  29  -1   47.90    3.70
   1  29   1   48.30    3.40
   1  29   1   49.80    2.50
  -1  29  -1   48.70    3.10
  -1 -29   1   51.19    2.80
   2  29  -1  133.49    5.90
   2  29  -1  125.69    5.90
  -2  29   1  134.59    6.40
  -2  29   1  126.79    7.10
   2  29  -1  136.19    6.20
  -2  29   1  136.79    6.40
  -2 -29  -1  136.99    5.80
  -2  29  -1  145.59    6.70
  -2  29  -1  119.09    6.20
   2  29   1  129.59    6.10
  -2  29  -1  122.69    6.90
  -2 -29   1  123.29    5.60
   2  29   1  128.49    5.70
   2  29   1  129.19    5.30
  -3  29   1  148.39    7.20
   3 -29   1  141.59    6.40
   3  29  -1  152.58    6.80
   3  29  -1  152.98    6.60
  -3  29   1  146.69    7.90
  -3  29   1  161.68    7.80
   3  29  -1  150.98    7.10
  -3 -29  -1  151.08    6.50
  -3 -29   1  150.38    6.60
   3  29   1  155.28    7.30
   3  29   1  161.48    6.50
  -3  29  -1  153.28    8.10
  -3  29  -1  161.38    7.70
   3  29   1  149.39    7.00
  -3  29  -1  158.28    8.00
   3 -29  -1  149.59    6.50
  -4 -29  -1   73.19    3.90
  -4  29   1   68.39    5.10
   4 -29   1   72.49    3.80
  -4  29   1   71.19    4.70
  -4  29   1   70.19    5.00
   4  29  -1   68.69    4.20
   4  29  -1   62.39    4.40
  -4  29  -1   72.89    5.20
   4  29   1   73.29    4.00
   4  29   1   69.19    4.40
   4 -29  -1   71.09    3.70
   4  29   1   75.89    4.60
  -4 -29   1   66.39    3.80
  -4  29  -1   67.29    5.00
  -4  29  -1   64.19    4.60
   5 -29   1   21.90    2.40
   5  29  -1   24.80    2.70
  -5 -29  -1   25.70    2.70
   5  29  -1   27.30    3.00
  -5  29   1   28.10    3.60
   5  29  -1   29.90    3.50
  -5  29   1   22.90    3.50
  -5  29   1   29.20    4.10
  -5  29  -1   35.60    4.20
  -5  29  -1   24.60    3.50
  -5 -29   1   25.50    2.50
   5  29   1   34.10    3.60
   5  29   1   33.50    3.70
   5  29   1   26.70    2.60
   5 -29  -1   26.20    2.50
   0  30  -1  228.58    9.40
   0  30   1  233.88   10.30
   0  30  -1  231.08   10.20
   0 -30   1  231.38    9.10
   0  30   1  238.48    9.30
   0 -30  -1  220.18    9.00
   0  30   1  252.67    9.00
   0  30  -1  210.78    9.20
  -1 -30  -1   67.79    3.60
  -1  30   1   78.19    4.90
   1  30  -1   72.69    3.90
  -1  30   1   78.49    4.10
   1  30  -1   71.89    4.40
   1  30  -1   70.89    3.80
  -1  30   1   85.39    4.20
   1  30   1   75.59    4.50
   1  30   1   76.89    3.40
   1  30   1   73.79    3.80
  -1  30  -1   76.99    4.30
  -1  30  -1   71.99    4.10
  -1  30  -1   72.79    4.80
  -1 -30   1   73.59    3.70
  -2  30   1   13.90    2.40
   2  30  -1   12.80    1.60
   2  30  -1   17.20    2.00
  -2 -30  -1   16.10    1.60
  -2  30   1   14.70    2.10
   2  30  -1   13.20    1.70
  -2  30   1   17.80    2.30
  -2  30  -1   16.90    2.50
  -2  30  -1   16.70    2.20
  -2  30  -1   13.80    2.10
   2  30   1   14.80    1.70
   2  30   1   16.50    1.30
  -2 -30   1   14.40    1.60
   2  30   1   13.20    1.80
  -3 -30  -1   34.20    2.40
  -3  30   1   34.50    3.90
  -3  30   1   35.00    3.00
  -3  30   1   39.40    3.40
   3 -30   1   37.30    2.50
   3  30  -1   36.00    2.50
   3  30  -1   35.60    2.90
   3  30  -1   39.00    2.80
   3  30   1   43.20    2.50
  -3  30  -1   41.30    3.40
  -3 -30   1   37.60    2.60
  -3  30  -1   43.10    4.40
   3 -30  -1   43.70    2.60
  -3  30  -1   38.00    3.50
   3  30   1   42.30    3.20
   4  30  -1   42.30    3.20
  -4 -30  -1   46.40    3.00
  -4  30   1   44.60    3.60
   4  30  -1   47.90    3.70
  -4  30   1   45.10    4.70
   4 -30   1   44.70    2.90
  -4  30   1   41.60    3.90
  -4  30  -1   42.10    4.10
   4  30   1   47.50    3.50
   4 -30  -1   45.20    2.80
  -4  30  -1   43.50    3.70
   4  30   1   42.80    2.90
   4  30   1   43.90    3.50
  -4 -30   1   49.10    3.00
  -4  30  -1   46.30    4.70
   0  31  -1  318.47   12.30
   0  31  -1  308.07   12.30
   0  31   1  320.57   11.90
   0  31   1  323.77   13.30
   0  31  -1  313.97   13.20
   0  31   1  311.27   12.20
   0 -31   1  305.97   12.00
   0 -31  -1  323.37   12.00
  -1  31   1   43.40    3.60
   1  31  -1   37.00    3.10
   1  31  -1   39.50    2.60
  -1  31   1   37.10    2.70
   1  31  -1   35.10    2.50
  -1 -31  -1   38.30    2.40
  -1  31   1   38.60    2.70
  -1  31  -1   41.20    3.00
   1  31   1   38.10    3.20
   1  31   1   38.70    2.60
  -1 -31   1   38.30    2.40
  -1  31  -1   44.40    3.00
  -1  31  -1   38.70    3.90
   1  31   1   34.20    2.10
   2  31  -1   65.59    3.70
  -2 -31  -1   62.29    3.50
  -2  31   1   70.79    4.10
  -2  31   1   69.59    4.90
  -2  31   1   66.29    4.20
   2  31  -1   68.69    3.70
   2  31  -1   70.19    4.00
  -2  31  -1   68.29    4.40
   2  31   1   70.09    3.70
  -2 -31   1   72.69    3.60
  -2  31  -1   64.89    4.10
   2  31   1   67.19    3.20
  -2  31  -1   59.39    4.60
   2  31   1   71.19    4.00
   3  31  -1  167.78    7.30
  -3  31   1  164.98    8.80
   3  31  -1  171.48    7.50
  -3  31   1  160.28    8.30
   3  31  -1  170.18    7.90
  -3 -31  -1  174.88    7.20
   3 -31   1  172.98    7.20
  -3  31   1  162.48    8.00
  -3  31  -1  158.38    8.50
  -3  31  -1  179.48    8.40
   3  31   1  175.68    7.10
   3  31   1  177.38    8.10
  -3  31  -1  159.38    8.60
  -3 -31   1  170.48    7.20
   4 -31   1   70.09    3.90
   4  31  -1   65.29    4.60
  -4  31   1   73.69    5.20
   4  31  -1   74.29    4.40
  -4 -31  -1   76.39    4.10
  -4  31   1   73.29    4.80
  -4  31   1   62.59    5.10
  -4  31  -1   75.39    5.10
  -4  31  -1   77.19    5.40
  -4 -31   1   70.19    3.90
   4  31   1   68.09    4.70
  -4  31  -1   77.99    5.60
   4  31   1   70.69    4.00
   4 -31  -1   72.49    3.90
   0  32   1   64.19    3.60
   0  32  -1   62.29    3.70
   0  32   1   59.49    4.30
   0  32  -1   64.09    3.70
   0 -32  -1   59.69    3.30
   0  32  -1   58.29    4.20
   0  32   1   62.09    3.30
  -1  32   1   59.09    3.70
   1  32  -1   61.29    3.50
  -1 -32  -1   58.09    3.20
   1  32  -1   59.59    3.50
   1  32  -1   65.99    4.20
  -1  32   1   60.09    4.50
  -1  32   1   67.29    3.80
  -1  32  -1   58.89    3.90
  -1  32  -1   64.59    3.90
   1  32   1   65.99    4.30
   1  32   1   71.09    3.80
  -1  32  -1   66.39    4.60
   1  32   1   70.69    3.70
   1  32   1   62.89    3.10
  -1 -32   1   63.69    3.40
  -2  32   1   31.70    2.70
  -2  32   1   26.10    2.60
  -2  32   1   31.30    3.70
  -2 -32  -1   28.20    2.10
   2  32  -1   31.00    2.40
   2  32  -1   34.30    2.70
   2  32  -1   30.40    2.30
  -2  32  -1   30.30    2.90
  -2 -32   1   32.00    2.30
  -2  32  -1   34.10    3.70
   2  32   1   35.00    2.10
   2  32   1   31.90    2.40
   2  32   1   32.50    2.70
  -2  32  -1   27.00    3.00
   3  32  -1   73.69    4.50
  -3  32   1   83.39    5.60
  -3 -32  -1   69.89    3.80
   3  32  -1   69.79    3.90
  -3  32   1   65.89    4.70
   3  32  -1   71.79    4.10
  -3  32   1   64.89    4.40
   3  32   1   77.59    3.80
   3  32   1   70.69    4.00
  -3  32  -1   69.79    5.20
  -3  32  -1   73.69    5.10
   3  32   1   79.29    4.70
  -3 -32   1   74.09    3.90
  -3  32  -1   75.59    4.90
  -4  32   1   69.79    5.30
   4  32  -1   59.79    4.30
   4 -32   1   63.79    3.60
  -4  32   1   68.29    4.60
   4  32  -1   55.09    3.80
  -4  32   1   63.59    4.90
  -4 -32  -1   55.69    3.50
  -4  32  -1   66.29    5.20
   4 -32  -1   57.19    3.40
  -4 -32   1   65.09    3.70
   4  32   1   59.09    3.50
   4  32   1   63.29    4.40
  -4  32  -1   57.79    4.50
  -4  32  -1   64.69    5.00
   0  33   1    1.70    1.20
   0 -33  -1    1.10    0.60
   0  33  -1    2.20    1.20
   0  33   1   -0.50    0.50
   0  33   1    0.80    0.50
   0  33  -1    0.60    0.60
   0  33  -1    1.10    0.80
  -1 -33  -1    2.30    0.80
   1  33  -1    2.70    1.20
  -1  33   1    2.70    1.00
   1  33  -1    2.00    0.80
   1  33  -1    2.20    0.80
  -1  33   1    1.80    1.20
  -1  33   1    1.60    0.80
  -1 -33   1    3.20    0.90
  -1  33  -1    0.10    0.90
   1  33   1    4.60    1.00
  -1  33  -1    2.20    0.90
   1  33   1    2.70    0.70
   1  33   1    0.80    0.70
   1  33   1    4.90    1.50
  -1  33  -1    1.90    0.90
  -2  33   1    7.90    2.00
   2  33  -1    7.50    1.40
  -2  33   1    6.40    1.60
   2  33  -1    9.80    1.50
   2  33  -1    7.40    1.50
  -2  33   1    9.40    1.80
  -2 -33  -1    6.70    1.20
  -2  33  -1    9.30    1.80
  -2 -33   1    9.50    1.40
   2  33   1    8.80    1.20
  -2  33  -1    6.60    1.70
   2  33   1    4.60    1.30
   2  33   1    7.10    1.30
  -2  33  -1    8.90    2.10
  -3 -33  -1   22.70    2.30
   3  33  -1   26.00    2.50
   3  33  -1   19.00    2.50
  -3  33   1   20.30    2.90
   3  33  -1   24.20    2.20
  -3  33   1   27.30    3.70
  -3  33   1   22.60    2.90
   3  33   1   20.50    1.70
   3  33   1   22.10    2.80
  -3  33  -1   24.30    3.10
  -3  33  -1   19.20    3.00
  -3 -33   1   22.60    2.30
  -3  33  -1   20.20    3.20
   3  33   1   27.00    2.60
   4  33  -1   45.70    3.80
  -4  33   1   46.70    5.00
   4  33  -1   43.60    3.10
  -4  33   1   49.50    4.00
  -4 -33  -1   37.20    2.80
   4 -33   1   42.80    2.90
  -4  33   1   49.99    4.30
   4  33  -1   41.80    3.20
   4 -33  -1   44.80    2.90
   4  33   1   38.20    3.90
   4  33   1   49.90    3.00
  -4 -33   1   40.00    2.90
  -4  33  -1   44.40    4.90
  -4  33  -1   36.90    4.00
  -4  33  -1   42.50    4.20
   0  34   1    0.30    1.00
   0 -34  -1    1.50    0.70
   0  34   1    1.90    0.70
   0  34  -1    2.50    0.90
   0  34   1    2.60    0.90
   0  34  -1    2.80    1.30
   0  34  -1    2.30    0.90
  -1  34   1   99.89    5.10
   1  34  -1   90.29    4.80
   1  34  -1   94.59    4.90
   1  34  -1   94.09    5.50
  -1  34   1   97.89    5.20
  -1 -34  -1   94.69    4.60
  -1  34   1  104.79    6.10
  -1  34  -1   96.69    5.30
   1  34   1   93.79    5.00
   1  34   1  105.29    5.80
   1  34   1   83.59    4.70
  -1 -34   1   93.89    4.60
  -1  34  -1   83.99    5.70
   1  34   1   94.79    4.30
  -1  34  -1  107.89    5.40
   2  34  -1   16.60    2.00
  -2  34   1   20.30    2.60
  -2  34   1   18.80    3.00
   2  34  -1   19.00    2.30
  -2  34   1   19.10    2.50
   2  34  -1   16.20    1.80
  -2 -34  -1   15.70    1.90
  -2  34  -1   17.20    2.30
   2  34   1   19.00    2.10
   2  34   1   16.30    1.40
   2  34   1   18.10    2.20
  -2  34  -1   14.90    2.40
  -2 -34   1   14.40    1.80
  -2  34  -1   20.40    3.10
  -3  34   1   12.70    2.20
  -3 -34  -1    8.20    1.40
   3  34  -1    4.40    1.30
  -3  34   1   10.40    2.40
  -3  34   1    8.60    2.00
   3  34  -1    9.20    1.60
   3  34  -1    6.50    1.30
  -3  34  -1   11.70    2.50
  -3  34  -1    7.10    2.00
   3  34   1    8.10    1.50
   3  34   1    6.30    1.10
   3  34   1    6.40    1.60
  -3 -34   1   11.20    1.60
  -3  34  -1    9.30    2.00
   0  35   1   59.79    3.70
   0  35   1   64.29    3.50
   0  35   1   57.69    4.50
   0  35  -1   55.79    4.40
   0  35  -1   61.89    3.90
   0  35  -1   61.39    3.80
  -1  35   1    9.40    2.10
   1  35  -1   10.80    1.60
  -1  35   1   10.20    1.70
   1  35  -1    9.00    1.50
  -1  35   1    8.80    1.70
  -1 -35  -1   10.60    1.50
   1  35  -1    8.40    1.80
  -1  35  -1   10.10    1.90
   1  35   1   10.50    1.30
   1  35   1   12.70    1.80
  -1  35  -1   10.20    2.40
   1  35   1   12.20    1.80
  -1 -35   1   11.30    1.50
  -1  35  -1   12.30    2.00
   2  35  -1   53.79    3.60
   2  35  -1   48.50    3.20
  -2  35   1   44.30    3.50
  -2  35   1   49.60    5.10
  -2  35   1   52.89    3.80
   2  35  -1   53.09    3.30
  -2 -35  -1   47.80    3.00
   2  35   1   46.00    3.50
  -2 -35   1   51.39    3.10
  -2  35  -1   45.80    3.70
  -2  35  -1   55.69    4.20
   2  35   1   53.59    3.30
   2  35   1   54.39    2.80
  -2  35  -1   52.99    4.50
   3  35  -1   95.29    5.70
  -3  35   1   99.99    6.80
   3  35  -1  106.49    5.40
  -3  35   1   97.79    5.90
   3  35  -1  104.69    5.30
  -3  35   1  110.69    6.40
  -3 -35  -1   97.89    5.00
   3  35   1  103.39    5.90
  -3 -35   1  101.49    5.00
  -3  35  -1  105.39    6.50
   3  35   1   96.89    4.60
   3  35   1   97.69    5.20
  -3  35  -1  109.09    6.80
  -3  35  -1   97.99    6.00
   0  36   1   75.59    4.50
   0  36  -1   83.29    4.70
   0  36  -1   80.09    4.60
   0  36   1   75.79    5.30
   0  36  -1   84.29    5.50
   0  36   1   80.79    4.20
  -1  36   1   38.40    4.20
  -1  36   1   36.60    3.00
   1  36  -1   34.50    2.70
   1  36  -1   39.50    2.90
   1  36  -1   41.20    4.00
   1  36  -1   38.10    2.90
  -1  36   1   40.70    3.00
  -1 -36  -1   35.80    2.60
   1  36   1   43.20    3.00
  -1  36  -1   40.50    3.20
   1  36   1   36.30    2.40
   1  36   1   44.70    3.20
  -1  36  -1   41.50    4.40
  -1 -36   1   39.70    2.70
  -1  36  -1   41.30    3.20
  -2  36   1   14.30    2.30
   2  36  -1   13.60    1.90
  -2  36   1   18.40    3.10
  -2 -36  -1   13.60    1.70
   2  36  -1   14.30    1.90
  -2  36   1   14.20    2.20
   2  36  -1   10.60    1.90
   2  36   1   12.60    2.10
   2  36   1   13.40    1.30
  -2  36  -1   16.60    2.50
  -2 -36   1   13.00    1.70
  -2  36  -1   13.80    2.60
   2  36   1   13.00    1.80
  -2  36  -1   12.70    2.30
  -3  36   1    0.00    1.00
   3  36  -1    2.10    1.00
  -3  36   1    3.00    1.70
   3  36  -1    1.90    0.90
   3  36  -1    1.50    1.00
  -3 -36  -1    0.00    0.60
  -3  36   1    1.50    1.10
   3  36   1    1.50    0.90
   3  36   1    1.80    1.20
  -3 -36   1    2.70    1.00
  -3  36  -1    1.20    1.20
   3  36   1    1.10    0.60
  -3  36  -1    1.60    1.20
  -3  36  -1    2.30    1.50
   0  37  -1   21.30    2.30
   0  37   1   19.40    3.00
   0  37   1   23.90    2.60
   0  37   1   22.50    2.00
   0  37  -1   20.00    3.00
   0  37  -1   21.60    2.60
   1  37  -1   85.09    4.80
  -1  37   1   79.39    4.60
   1  37  -1   85.39    4.70
  -1 -37  -1   80.49    4.30
  -1  37   1   79.59    5.70
  -1  37   1   80.79    4.80
   1  37  -1   77.49    4.40
   1  37   1   85.79    4.10
   1  37   1   82.99    4.70
  -1  37  -1   94.09    5.30
  -1 -37   1   77.69    4.30
   1  37   1   82.29    4.80
  -1  37  -1   84.19    5.10
  -1  37  -1   87.99    5.90
   2  37  -1  126.29    6.00
   2  37  -1  117.89    6.00
  -2  37   1  117.49    6.50
  -2 -37  -1  121.79    5.70
  -2  37   1  114.39    7.30
  -2  37   1  127.59    6.70
   2  37  -1  116.79    6.40
   2  37   1  118.09    6.40
   2  37   1  117.09    6.00
  -2  37  -1  125.79    6.80
   2  37   1  125.99    5.40
  -2 -37   1  122.09    5.80
  -2  37  -1  133.89    7.60
  -2  37  -1  124.59    7.10
   0  38  -1  188.88    9.60
   0  38   1  189.38    9.70
   0  38   1  186.58    8.60
   0  38   1  190.28    8.10
   0  38  -1  186.28    8.70
   0  38  -1  187.38    8.60
  -1  38   1    4.60    2.00
   1  38  -1    8.30    1.50
  -1 -38  -1    5.60    1.20
   1  38  -1    5.50    1.40
   1  38  -1   10.50    1.80
  -1  38   1    7.10    1.50
  -1  38   1    7.60    1.60
   1  38   1    4.40    1.30
  -1 -38   1    5.70    1.30
   1  38   1    5.80    1.10
  -1  38  -1    5.60    1.80
  -1  38  -1    7.50    1.70
   1  38   1    7.70    1.60
  -1  38  -1    6.00    1.50
  -2  38   1   64.69    5.20
  -2 -38  -1   64.49    3.70
  -2  38   1   57.59    4.20
   2  38  -1   64.69    4.30
   2  38  -1   59.79    3.80
   2  38  -1   65.09    4.00
  -2  38   1   56.59    4.20
   2  38   1   60.29    4.20
  -2 -38   1   64.19    3.70
  -2  38  -1   73.69    4.80
   2  38   1   62.19    3.30
  -2  38  -1   62.69    4.80
  -2  38  -1   69.69    5.30
   2  38   1   66.39    4.00
   0  39   1    5.80    2.00
   0  39  -1    6.00    1.90
   0  39   1    6.30    1.30
   0  39   1    5.40    1.40
   0  39  -1    3.50    1.20
   0  39  -1    4.00    1.20
   1  39  -1    1.40    0.90
   1  39  -1    2.60    1.00
   1  39  -1    1.20    0.90
  -1  39   1    1.90    1.00
  -1  39   1    2.90    1.70
  -1 -39  -1    3.10    1.00
  -1  39   1    2.10    1.20
   1  39   1    1.90    1.00
  -1  39  -1    1.00    1.00
  -1  39  -1    1.80    1.60
  -1 -39   1    2.00    0.90
   1  39   1    2.00    0.80
   1  39   1    3.10    1.10
  -1  39  -1    1.00    1.00
   0  40  -1  173.38    9.20
   0  40   1  170.88    9.20
   0   0   2 1532.65   56.69
   0   0  -2 1725.53   56.69
   0   0  -2 1727.33   56.29
   0   0  -2 1711.83   56.59
  -1   0   2  291.37   10.70
   1   0  -2  289.07   10.20
   1   0  -2  311.67   10.60
  -1   0   2  297.77   10.10
  -1   0  -2  302.07   10.50
   1   0  -2  281.17   10.60
   1   0   2  323.67   10.80
  -1   0  -2  296.37   10.50
   1   0   2  281.77   10.30
  -1   0  -2  301.77   10.50
   1   0  -2  287.47   10.40
   2   0  -2    0.40    0.30
  -2   0  -2    0.10    0.40
   2   0   2    0.00    0.30
  -2   0  -2    0.80    0.40
   2   0   2    0.40    0.30
   2   0  -2    0.50    0.40
  -2   0   2    0.10    0.30
   2   0   2    0.60    0.30
  -2   0  -2    0.00    0.30
   2   0  -2    0.00    0.20
  -2   0   2    0.50    0.30
   2   0  -2    0.20    0.30
   3   0   2  179.78    7.20
  -3   0   2  188.48    7.20
  -3   0   2  176.68    7.60
   3   0   2  188.88    8.00
   3   0  -2  188.28    7.10
  -3   0  -2  186.28    7.50
  -3   0  -2  181.08    6.80
  -3   0  -2  183.98    7.40
   3   0   2  180.18    7.20
   3   0  -2  187.88    7.00
   3   0  -2  180.58    7.10
  -4   0  -2    8.00    1.40
   4   0   2    8.90    1.30
  -4   0   2   13.40    2.00
   4   0  -2   10.80    1.40
  -4   0   2    9.00    1.30
   4   0  -2   10.40    1.20
   4   0   2    9.00    1.30
   4   0  -2   10.30    1.30
   4   0   2    9.90    1.80
   5   0   2   19.20    2.20
   5   0   2   19.50    2.20
  -5   0   2   16.00    1.90
   5   0  -2   18.90    2.10
   5   0  -2   21.40    2.10
   5   0   2   17.30    2.80
  -5   0  -2   20.10    2.40
  -6   0   2  212.58    9.40
   6   0  -2  223.38    9.10
  -6   0  -2  208.18    9.90
   6   0   2  219.28    9.40
   6   0   2  216.38    9.40
   6   0   2  203.58   10.80
   6   0  -2  225.48    9.30
   7   0  -2   82.29    4.60
   7   0   2   76.99    4.80
  -7   0   2   76.59    4.90
   7   0  -2   78.39    4.80
   7   0   2   80.39    4.90
  -7   0  -2   72.79    5.10
   0   1  -2  305.47   10.70
   0   1   2  282.77   10.60
   0  -1  -2  300.17   10.50
   0   1  -2  298.87   10.20
   0   1  -2  304.27   10.50
   0  -1   2  305.77   10.70
   0  -1  -2  299.47   10.60
   0  -1  -2  304.87   10.20
   1  -1   2  489.55   17.50
  -1   1   2  478.15   17.50
  -1  -1  -2  495.25   17.20
  -1  -1  -2  502.45   17.20
  -1  -1  -2  483.85   17.20
  -1   1   2  514.75   16.90
   1   1  -2  514.05   17.20
   1   1  -2  489.45   17.00
   1   1  -2  506.35   17.40
   1  -1   2  489.65   17.00
   1   1  -2  506.15   17.30
  -1  -1   2  502.85   18.00
  -1   1  -2  495.05   17.80
  -1  -1   2  533.55   17.40
   1   1   2  483.45   17.90
  -1   1  -2  497.65   17.70
   1  -1  -2  491.35   17.40
   1  -1  -2  513.35   17.70
   1  -1  -2  520.85   17.80
   1  -1  -2  592.74   18.50
  -1   1  -2  506.95   17.70
   1   1   2  504.45   17.50
   2   1  -2  399.46   13.90
  -2   1   2  416.46   13.90
   2  -1   2  363.16   14.50
   2  -1   2  392.76   13.90
  -2  -1  -2  391.16   14.20
  -2  -1  -2  385.26   13.80
  -2  -1  -2  390.76   14.10
   2  -1   2  404.36   13.90
   2   1  -2  405.46   14.40
  -2   1   2  374.46   14.30
   2   1  -2  394.66   13.80
   2   1  -2  413.86   14.00
  -2   1  -2  385.56   14.10
   2  -1  -2  383.56   14.30
  -2   1  -2  432.36   14.80
  -2  -1   2  396.46   13.80
   2  -1  -2  400.36   14.00
   2   1   2  404.36   14.50
  -2  -1   2  394.86   14.40
  -2   1  -2  401.66   14.20
  -2   1  -2  381.06   13.90
   2   1   2  386.46   13.90
   2  -1  -2  391.66   13.90
   2  -1  -2  382.56   13.80
   2   1   2  399.76   14.00
   3   1  -2  336.27   12.00
   3  -1   2  295.77   12.70
  -3   1   2  333.97   12.70
  -3  -1  -2  301.37   12.20
   3   1  -2  334.97   12.60
   3  -1   2  317.07   12.00
   3   1  -2  322.07   11.80
  -3   1   2  347.87   12.10
   3  -1   2  346.77   12.10
  -3  -1  -2  325.37   11.50
  -3  -1  -2  340.87   12.40
   3   1  -2  331.67   12.00
   3   1   2  325.47   12.40
  -3  -1   2  396.46   13.10
   3  -1  -2  331.67   12.90
   3   1   2  318.37   13.10
   3  -1  -2  331.47   12.30
   3  -1  -2  331.77   12.30
  -3  -1   2  332.57   12.30
   3   1   2  330.77   12.40
  -3   1  -2  332.37   12.50
  -3   1  -2  332.27   12.00
  -3   1  -2  352.76   12.80
   3  -1  -2  336.67   12.20
   4   1  -2   21.10    1.70
  -4   1   2   21.70    1.80
  -4  -1  -2   24.30    2.10
  -4   1   2   25.50    2.30
   4  -1   2   21.90    1.80
   4  -1   2   23.80    2.40
   4   1  -2   23.60    2.10
   4   1  -2   22.40    2.20
   4  -1   2   22.40    1.80
   4   1  -2   23.10    1.50
   4  -1  -2   24.70    1.70
   4  -1  -2   28.00    1.90
   4   1   2   24.60    1.90
   4   1   2   25.50    2.00
   4   1   2   25.50    2.50
  -4   1  -2   25.10    2.10
  -4  -1   2   21.60    1.80
   4  -1  -2   26.90    1.80
  -4  -1   2   24.10    2.20
  -5   1   2  139.69    6.50
   5  -1   2  141.29    6.50
   5  -1   2  146.49    6.50
   5  -1   2  165.08    8.10
   5   1  -2  146.49    6.50
   5   1  -2  140.29    6.30
  -5  -1  -2  137.69    6.90
  -5  -1   2  145.49    6.60
   5   1   2  142.59    7.70
   5   1   2  132.89    6.50
   5  -1  -2  159.28    6.60
   5   1   2  145.59    6.60
   5  -1  -2  142.49    6.30
  -5   1  -2  154.78    7.10
  -6   1   2   53.59    3.60
  -6  -1  -2   55.79    4.00
   6   1  -2   53.89    3.60
   6  -1   2   57.99    3.70
   6   1  -2   56.29    3.50
   6  -1   2   51.49    3.50
   6  -1   2   46.00    6.10
   6   1   2   53.79    3.50
   6   1   2   41.70    3.30
   6  -1  -2   51.29    3.20
  -6  -1   2   52.29    3.50
   6   1   2   55.99    4.70
  -6   1  -2   50.39    3.80
   6  -1  -2   46.60    3.30
   7   1  -2   36.90    3.00
   7   1  -2   34.00    3.40
   7  -1   2   35.30    3.50
   7  -1   2   32.90    3.40
  -7   1   2   39.70    3.40
  -7  -1  -2   36.20    3.80
   7  -1  -2   29.20    3.10
   7   1   2   28.70    3.20
   7   1   2   33.10    3.40
  -7   1  -2   36.60    4.00
  -7  -1   2   31.90    3.50
   7  -1  -2   32.70    2.80
   0   2  -2  136.59    5.40
   0  -2  -2  146.19    5.40
   0   2  -2  147.69    5.20
   0   2  -2  159.18    5.40
   0  -2  -2  141.99    4.90
   0   2   2  129.79    5.30
   0  -2  -2  140.89    5.20
   0  -2   2  144.89    5.50
   0   2  -2  145.99    5.00
   1   2  -2   91.19    3.60
  -1  -2  -2   96.39    3.70
   1   2  -2  102.19    3.90
  -1   2   2   97.49    3.40
  -1  -2  -2   92.79    3.60
  -1   2   2   80.29    3.80
   1   2  -2   93.79    3.70
  -1  -2  -2   92.39    3.60
   1  -2   2   93.09    3.50
   1   2  -2   93.79    3.50
  -1  -2   2   92.49    3.80
   1   2   2   78.69    3.50
  -1   2  -2   91.89    3.50
   1  -2  -2   93.39    3.50
   1   2   2   98.79    3.70
  -1   2  -2   95.49    3.60
  -1   2  -2   85.99    3.70
  -1   2  -2   91.49    3.70
  -1  -2   2   92.49    3.30
   1  -2  -2   92.19    3.30
   1   2   2   92.39    3.40
   2  -2   2  327.47   12.90
   2  -2   2  338.37   12.30
   2   2  -2  352.26   12.30
  -2  -2  -2  354.26   12.50
   2   2  -2  343.67   12.20
   2   2  -2  349.47   12.30
  -2   2   2  337.67   12.80
  -2   2   2  352.46   12.20
   2   2  -2  362.56   12.80
  -2  -2  -2  362.76   12.60
  -2  -2  -2  333.57   12.10
   2  -2   2  337.67   12.20
  -2   2  -2  353.36   12.40
   2   2   2  352.76   12.90
   2  -2  -2  352.86   12.30
  -2   2  -2  351.06   12.60
   2   2   2  347.87   12.40
  -2  -2   2  356.86   12.20
   2  -2  -2  340.87   12.40
   2  -2  -2  350.66   12.80
  -2   2  -2  351.76   12.50
   2   2   2  350.46   12.40
  -2  -2   2  321.97   12.80
   2  -2  -2  346.97   12.20
  -2   2  -2  341.77   12.80
  -3  -2  -2  224.48    8.80
   3   2  -2  223.78    8.50
   3   2  -2  217.78    8.20
  -3   2   2  255.77    9.30
   3  -2   2  219.38    8.50
   3  -2   2  217.98    9.30
  -3  -2  -2  222.38    8.00
  -3   2   2  220.18    8.50
   3   2  -2  218.68    9.00
   3   2  -2  217.28    8.50
   3  -2   2  218.08    8.50
  -3  -2  -2  229.38    8.80
  -3  -2   2  224.08    8.20
   3  -2  -2  215.88    8.20
   3  -2  -2  217.88    8.20
   3   2   2  223.18    8.30
  -3   2  -2  206.68    8.00
  -3   2  -2  208.38    8.60
   3   2   2  217.38    8.40
   3  -2  -2  222.88    8.80
   3  -2  -2  219.38    8.20
  -3   2  -2  218.08    8.40
  -3  -2   2  202.98    8.70
   3   2   2  219.38    9.00
   4   2  -2  184.68    7.70
  -4  -2  -2  185.68    8.10
   4   2  -2  200.38    7.40
   4  -2   2  182.08    8.80
   4   2  -2  196.18    7.70
  -4   2   2  196.48    7.90
   4  -2   2  196.68    7.80
  -4   2   2  194.28    8.50
   4   2  -2  189.88    8.50
   4  -2   2  194.38    7.80
  -4   2  -2  186.98    8.30
  -4  -2   2  194.28    7.90
   4   2   2  210.18    8.10
   4  -2  -2  193.58    7.70
   4   2   2  198.58    8.90
   4  -2  -2  194.38    7.60
   4  -2  -2  196.38    7.80
   4   2   2  192.38    8.00
   5  -2   2   81.99    5.40
  -5  -2  -2   82.29    4.70
   5   2  -2   84.69    4.20
   5  -2   2   87.99    4.40
   5   2  -2   82.89    4.30
   5  -2   2   73.29    4.20
  -5   2   2   79.79    4.30
   5  -2  -2   84.39    4.10
  -5   2  -2   90.39    4.80
   5  -2  -2   77.39    4.10
  -5  -2   2   73.79    4.20
   5   2   2   78.69    4.30
   5   2   2   77.09    4.30
   5   2   2   82.79    5.30
  -6   2   2   58.59    3.90
   6  -2   2   63.59    3.90
  -6  -2  -2   55.89    4.10
   6   2  -2   68.29    4.00
   6   2  -2   58.09    3.60
   6  -2   2   59.19    3.80
  -6  -2   2   62.89    3.90
   6   2   2   68.59    4.00
   6   2   2   50.49    4.60
   6   2   2   59.99    3.90
   6  -2  -2   65.49    3.90
  -6   2  -2   60.69    4.30
   6  -2  -2   59.39    3.60
   7  -2   2   46.70    3.50
  -7   2   2   39.90    3.40
  -7  -2  -2   29.50    3.70
   7   2  -2   41.90    3.30
   7   2  -2   40.10    3.10
   7  -2   2   44.50    3.50
  -7   2  -2   48.80    4.00
   7   2   2   35.80    3.70
  -7  -2   2   40.10    3.40
   7  -2  -2   42.10    3.30
   7  -2  -2   46.40    3.20
   7   2   2   44.10    3.50
   0  -3  -2 1809.42   60.09
   0  -3  -2 1820.42   59.89
   0   3  -2 1757.92   60.19
   0   3   2 1797.62   59.79
   0   3   2 1754.12   59.99
   0  -3   2 1590.24   60.19
   0   3  -2 1792.02   59.99
   0   3   2 1840.42   60.09
   0   3  -2 1792.22   60.19
   0   3  -2 1796.92   59.79
   0  -3  -2 1798.32   59.99
  -1  -3  -2  679.23   22.60
   1   3  -2  618.74   22.80
   1   3  -2  640.24   22.40
   1  -3   2  648.64   23.00
   1   3  -2  679.53   22.60
  -1  -3  -2  660.43   22.60
  -1   3   2  666.13   22.90
  -1  -3  -2  660.53   22.70
   1   3  -2  662.93   22.70
  -1   3   2  673.33   22.40
   1  -3   2  664.43   22.50
   1   3   2  655.03   22.90
   1  -3  -2  657.23   22.50
  -1   3  -2  666.83   23.00
   1  -3  -2  685.33   22.70
   1   3   2  633.44   22.70
  -1   3  -2  663.03   23.00
  -1  -3   2  679.53   22.50
   1  -3  -2  665.63   22.90
  -1   3  -2  677.03   22.90
  -1   3  -2  661.73   22.70
   1   3   2  664.13   22.60
  -1  -3   2  655.63   23.10
   2  -3   2  189.98    7.10
   2   3  -2  191.98    7.20
  -2   3   2  190.98    7.00
   2   3  -2  193.38    7.10
  -2  -3  -2  190.68    7.40
   2   3  -2  187.58    7.10
   2  -3   2  188.98    7.80
   2   3  -2  192.08    7.50
  -2  -3  -2  186.18    7.30
   2  -3   2  197.68    7.10
  -2   3   2  205.58    7.70
  -2  -3  -2  184.38    6.90
   2   3   2  183.38    7.10
  -2   3  -2  188.38    7.40
  -2   3  -2  194.18    7.20
   2  -3  -2  195.38    7.50
   2  -3  -2  190.58    7.00
   2  -3  -2  195.58    7.20
   2   3   2  189.38    7.50
  -2   3  -2  187.98    7.20
  -2  -3   2  180.88    7.50
   2   3   2  196.68    7.20
  -2  -3   2  188.58    6.90
   2  -3  -2  195.78    7.00
   3   3  -2   68.49    3.70
   3  -3   2   71.29    3.30
  -3  -3  -2   67.59    2.80
  -3  -3  -2   68.39    3.50
  -3  -3  -2   71.19    3.60
   3  -3   2   82.29    4.20
   3   3  -2   66.89    3.20
   3  -3   2   73.09    3.30
   3   3  -2   68.29    3.30
  -3   3   2   71.29    3.30
  -3   3   2   72.19    3.90
   3   3  -2   66.29    3.00
   3  -3  -2   72.29    3.30
  -3  -3   2   73.09    3.30
   3  -3  -2   77.89    3.30
  -3   3  -2   65.09    3.70
  -3   3  -2   71.49    3.40
  -3   3  -2   70.39    3.60
   3  -3  -2   73.09    3.30
  -3   3  -2   68.19    3.10
   3  -3  -2   68.79    3.70
   3   3   2   75.39    3.40
   3   3   2   67.19    3.40
  -3  -3   2   70.79    3.70
   3   3   2   74.59    4.00
   4   3  -2  109.79    4.90
   4   3  -2  107.49    5.60
  -4   3   2  118.09    5.80
   4  -3   2  113.49    5.00
   4   3  -2  106.79    5.00
   4  -3   2  107.09    4.90
  -4  -3  -2  109.99    5.30
   4   3  -2  112.29    4.50
   4  -3   2  105.79    5.90
  -4   3   2  105.09    5.00
  -4  -3   2  115.69    5.00
   4  -3  -2  119.19    5.00
   4   3   2  103.59    5.10
   4   3   2  107.79    5.80
   4   3   2  109.29    5.10
   4  -3  -2  113.99    4.90
   4  -3  -2  106.89    4.70
  -4   3  -2  107.79    5.40
   5   3  -2   71.59    3.90
   5  -3   2   69.59    3.90
   5  -3   2   77.49    4.00
  -5  -3  -2   74.99    4.30
  -5   3   2   66.49    4.00
   5  -3   2   72.39    5.10
   5   3  -2   74.79    4.00
  -5   3  -2   79.89    4.60
   5   3   2   76.69    4.20
   5   3   2   79.69    4.30
  -5  -3   2   74.79    4.10
   5   3   2   73.19    5.00
   5  -3  -2   77.29    3.90
   5  -3  -2   74.49    4.00
   6   3  -2  124.79    6.00
  -6   3   2  123.09    6.30
   6   3  -2  129.69    6.20
   6  -3   2  119.99    6.10
  -6  -3  -2  125.29    6.60
   6  -3   2  124.29    6.10
   6  -3  -2  126.39    6.00
  -6  -3   2  128.19    6.30
   6   3   2  127.99    7.70
  -6   3  -2  137.29    7.00
   6  -3  -2  130.19    6.20
   6   3   2  126.29    6.50
   6   3   2  128.39    6.40
  -7  -3  -2   46.60    3.90
   7   3  -2   40.20    3.20
   7  -3   2   51.09    3.70
   7   3  -2   48.80    3.60
   7  -3   2   45.80    3.80
  -7   3   2   46.20    3.70
   7   3   2   47.20    3.60
   7  -3  -2   40.90    3.30
  -7   3  -2   52.39    4.20
   7   3   2   47.90    3.70
   7  -3  -2   40.40    3.10
  -7  -3   2   39.20    3.30
   0   4  -2  168.38    6.30
   0   4   2  158.58    6.00
   0   4  -2  164.38    5.90
   0  -4  -2  172.88    5.70
   0  -4  -2  167.58    6.20
   0  -4  -2  174.48    6.10
   0   4  -2  154.98    6.20
   0   4  -2  171.18    6.00
   0   4   2  164.98    6.10
   0   4   2  175.18    5.80
   1  -4   2  361.36   13.00
  -1   4   2  373.76   13.00
  -1  -4  -2  382.46   13.40
   1   4  -2  429.86   13.60
  -1  -4  -2  367.06   13.20
  -1  -4  -2  372.46   13.20
  -1   4   2  403.76   13.50
   1   4  -2  379.26   13.10
   1   4  -2  367.86   13.30
   1   4  -2  369.16   13.20
   1  -4   2  361.26   13.60
  -1   4  -2  391.16   13.60
  -1   4  -2  390.26   13.50
  -1   4  -2  414.96   13.70
   1   4   2  346.77   13.40
  -1  -4   2  375.36   13.70
  -1   4  -2  378.76   13.30
   1  -4  -2  384.66   13.10
  -1  -4   2  400.06   13.10
   1  -4  -2  393.06   13.60
   1  -4  -2  377.06   13.30
   1   4   2  381.26   13.30
   1   4   2  368.76   13.30
   2  -4   2  328.57   11.30
   2   4  -2  315.57   11.40
   2  -4   2  295.27   12.10
  -2   4   2  306.97   11.90
  -2  -4  -2  322.77   11.70
   2   4  -2  319.07   11.30
   2   4  -2  317.77   11.80
   2   4  -2  321.67   11.50
  -2   4   2  329.07   11.40
   2  -4   2  322.07   11.30
  -2  -4  -2  319.37   11.10
  -2  -4  -2  323.77   11.60
  -2   4  -2  318.17   11.50
   2   4   2  315.37   11.20
   2   4   2  301.37   11.30
   2  -4  -2  309.27   11.10
  -2  -4   2  344.57   11.80
   2  -4  -2  312.17   11.30
  -2  -4   2  313.77   11.10
   2  -4  -2  286.47   11.50
   2   4   2  298.87   11.60
   2   4   2  311.37   11.30
  -2   4  -2  320.67   11.30
   2  -4  -2  310.47   11.00
  -2   4  -2  316.37   11.30
  -2   4  -2  322.47   11.70
  -3  -4  -2  288.77   10.50
   3   4  -2  268.47    9.70
  -3  -4  -2  274.77   10.40
   3   4  -2  268.17   10.10
   3   4  -2  277.77   10.70
   3  -4   2  258.87   10.90
   3  -4   2  265.07   10.00
   3   4  -2  275.57   10.10
  -3   4   2  256.67   10.70
   3  -4   2  265.87   10.00
  -3   4   2  260.17   10.00
  -3  -4  -2  272.37    9.40
  -3   4  -2  262.47   10.00
   3  -4  -2  263.57   10.00
  -3   4  -2  290.07   10.90
   3  -4  -2  267.27   10.00
   3   4   2  303.47   11.10
   3   4   2  277.97   10.40
   3  -4  -2  262.27   10.10
  -3   4  -2  267.97   10.20
  -3  -4   2  267.47   10.10
  -3  -4   2  281.87   10.80
  -3   4  -2  263.07   10.50
   3  -4  -2  281.37   10.80
   3   4   2  262.77   10.20
  -4  -4  -2  195.28    8.20
   4  -4   2  191.08    7.70
   4  -4   2  189.18    7.70
   4   4  -2  190.18    7.80
   4   4  -2  189.68    7.80
   4   4  -2  188.88    8.40
   4  -4   2  199.88    9.00
  -4   4   2  189.58    7.90
  -4   4  -2  194.78    8.40
   4  -4  -2  208.58    7.80
   4  -4  -2  196.58    7.70
   4   4   2  195.38    8.00
  -4   4  -2  196.08    7.50
   4   4   2  196.18    8.10
   4  -4  -2  188.38    7.60
  -4  -4   2  192.38    7.80
   4   4   2  178.78    8.70
   5   4  -2   83.59    4.50
   5   4  -2   89.39    4.50
   5  -4   2   85.89    4.40
  -5  -4  -2   90.99    4.90
  -5   4   2   80.69    4.50
   5  -4   2   87.89    4.50
   5  -4   2   85.39    5.60
   5  -4  -2   80.89    4.10
   5   4   2   90.09    4.60
  -5   4  -2   81.19    4.80
   5  -4  -2   84.69    4.30
   5   4   2   84.09    5.40
  -5  -4   2   85.29    4.40
   5   4   2   84.29    4.60
  -6   4   2   23.10    2.70
   6  -4   2   20.60    2.30
  -6  -4  -2   16.10    2.40
   6  -4   2   20.80    2.40
   6   4  -2   24.30    2.60
   6   4  -2   21.80    2.40
   6  -4  -2   25.70    2.10
   6  -4  -2   23.40    2.40
   6   4   2   22.10    3.40
  -6  -4   2   22.00    2.50
   6   4   2   22.60    2.80
  -6   4  -2   24.50    3.20
   6   4   2   17.20    2.30
   7   4  -2   21.40    2.60
   7  -4   2   23.40    2.80
  -7  -4  -2   22.70    3.10
  -7   4   2   19.90    2.80
   7   4  -2   18.70    2.60
   7  -4  -2   19.10    2.40
   7   4   2   24.50    3.00
  -7  -4   2   26.20    3.00
   7   4   2   21.00    2.80
  -7   4  -2   22.00    3.10
   7  -4  -2   20.70    2.50
   0   5  -2  183.68    6.60
   0   5   2  209.18    6.70
   0   5   2  188.18    6.60
   0  -5   2  172.18    7.00
   0  -5  -2  189.38    6.40
   0  -5  -2  184.78    6.90
   0   5  -2  186.18    7.00
   0   5  -2  184.68    6.60
   0   5  -2  180.28    6.90
   1   5  -2  121.89    4.70
   1  -5   2  117.19    4.40
  -1  -5  -2  118.19    4.50
  -1  -5  -2  122.99    4.70
  -1   5   2  116.99    4.80
   1   5  -2  121.29    4.40
  -1  -5  -2  117.19    4.50
   1   5  -2  115.49    4.80
  -1   5   2  124.19    4.30
   1  -5   2  122.89    5.00
   1   5  -2  118.49    4.50
  -1  -5   2  113.79    4.10
   1  -5  -2  113.29    4.50
  -1   5  -2  114.09    4.20
   1   5   2  113.99    4.30
  -1  -5   2  109.99    4.60
   1   5   2  115.89    4.20
  -1   5  -2  112.79    4.60
  -1   5  -2  116.59    4.40
   1  -5  -2  111.29    4.30
   1   5   2  111.59    4.20
  -1   5  -2  107.89    4.50
   1  -5  -2  110.69    4.00
  -2   5   2  825.02   28.00
   2  -5   2  809.32   28.00
   2   5  -2  796.42   28.00
  -2  -5  -2  863.11   28.40
   2   5  -2  836.22   28.10
  -2  -5  -2  830.72   27.80
   2   5  -2  817.62   28.00
   2  -5   2  704.53   28.70
   2  -5   2  832.02   28.00
   2   5  -2  799.62   28.50
  -2   5   2  839.32   28.60
  -2  -5  -2  828.32   28.30
  -2   5  -2  830.22   28.60
   2  -5  -2  816.22   28.20
   2   5   2  842.02   28.60
   2   5   2  820.72   28.40
  -2   5  -2  811.52   28.40
   2   5   2  912.11   28.90
  -2  -5   2  853.91   28.30
   2  -5  -2  804.32   28.30
  -2   5  -2  780.02   28.70
   2   5   2  828.12   28.60
  -2  -5   2  809.62   28.80
   2  -5  -2  850.41   28.60
  -2   5  -2  769.52   28.90
  -3   5   2   82.59    4.50
   3   5  -2   90.19    3.80
   3  -5   2   89.49    4.00
  -3  -5  -2   98.29    4.40
   3  -5   2   92.99    4.90
  -3  -5  -2   93.19    3.50
   3   5  -2   90.69    4.50
   3   5  -2   99.59    4.20
   3   5  -2   93.39    4.10
   3  -5   2   92.59    4.00
  -3  -5  -2   94.79    4.30
  -3   5   2   97.49    4.20
  -3  -5   2   96.29    4.50
   3   5   2   92.99    4.20
   3   5   2   90.89    4.20
   3  -5  -2   89.59    3.90
  -3   5  -2  102.79    4.80
   3  -5  -2   86.09    3.90
   3   5   2   87.89    4.60
  -3   5  -2   92.39    4.40
  -3   5  -2   93.09    4.10
  -3  -5   2   91.49    4.00
  -3   5  -2   99.69    4.20
   3  -5  -2   95.59    4.10
   4   5  -2  338.97   14.30
   4  -5   2  366.86   13.60
  -4   5   2  373.26   14.60
  -4  -5  -2  362.46   14.00
   4  -5   2  367.96   13.60
  -4   5   2  357.56   13.70
   4   5  -2  366.06   13.70
   4  -5   2  393.46   15.10
   4   5  -2  364.86   13.70
   4  -5  -2  376.86   13.90
  -4   5  -2  362.06   13.70
   4   5   2  367.26   14.10
   4   5   2  422.06   15.30
   4  -5  -2  360.86   13.90
   4   5   2  394.66   14.40
  -4   5  -2  371.86   14.60
  -4  -5   2  371.46   14.00
   4  -5  -2  374.66   13.80
   5   5  -2  138.69    6.40
  -5   5   2  133.89    6.50
  -5  -5  -2  152.88    6.90
   5  -5   2  143.49    6.30
   5  -5   2  147.99    7.80
   5  -5   2  137.79    6.30
   5   5  -2  133.99    6.40
   5   5   2  144.99    7.70
   5   5   2  153.28    6.80
  -5   5  -2  149.59    7.20
   5   5   2  153.38    6.90
  -5  -5   2  148.49    6.60
   5  -5  -2  141.09    6.30
   5  -5  -2  150.28    6.50
   6  -5   2   28.90    2.80
   6   5  -2   24.30    2.60
   6  -5   2   27.90    2.80
  -6  -5  -2   29.50    3.20
   6   5  -2   26.40    2.80
  -6   5   2   29.00    3.00
  -6  -5   2   24.50    2.70
   6  -5  -2   26.30    2.50
   6   5   2   27.70    3.00
  -6   5  -2   29.90    3.40
   6   5   2   32.10    4.10
   6   5   2   21.00    2.50
   6  -5  -2   29.70    2.80
  -7   5   2   13.10    2.40
   7  -5   2   14.60    2.30
   7   5  -2   16.40    2.40
   7   5  -2   18.00    2.40
  -7  -5  -2   18.90    2.90
   7  -5  -2   14.00    2.10
   7   5   2   14.10    2.30
   7  -5  -2   14.00    2.00
   7   5   2   14.20    3.20
  -7   5  -2   13.00    2.50
   7   5   2   16.50    2.40
  -7  -5   2   14.00    2.30
   0   6  -2    0.50    0.20
   0  -6  -2    0.50    0.30
   0  -6  -2    0.80    0.30
   0   6  -2    0.40    0.30
   0   6   2    0.50    0.20
   0  -6   2    0.30    0.30
   0   6  -2    0.50    0.20
   0   6   2    0.90    0.30
   0   6  -2    0.80    0.30
  -1   6   2  398.56   15.20
  -1   6   2  424.66   15.20
  -1   6   2  456.45   14.80
   1   6  -2  447.86   15.30
  -1  -6  -2  434.96   15.00
   1  -6   2  431.96   14.80
   1   6  -2  425.96   15.10
  -1  -6  -2  432.96   14.90
   1   6  -2  438.26   14.90
   1   6  -2  431.56   14.80
  -1  -6  -2  431.36   15.10
   1  -6   2  402.66   15.40
  -1  -6   2  454.85   15.10
   1  -6  -2  445.56   15.20
  -1   6  -2  441.16   15.20
  -1   6  -2  411.36   15.50
   1   6   2  424.66   15.20
  -1   6  -2  441.06   15.60
   1  -6  -2  446.56   15.50
   1  -6  -2  441.86   15.00
  -1  -6   2  416.56   15.60
   1   6   2  430.86   15.20
  -1   6  -2  455.05   15.40
   1   6   2  464.35   15.20
   2   6  -2  451.15   15.50
  -2   6   2  432.66   14.90
   2   6  -2  415.46   14.90
  -2  -6  -2  413.66   14.60
   2   6  -2  420.66   14.90
   2  -6   2  424.76   14.90
  -2   6   2  390.86   15.40
  -2  -6  -2  435.26   15.20
   2  -6   2  418.56   15.80
   2   6  -2  419.16   15.00
   2  -6   2  437.86   14.80
   2   6   2  406.26   14.50
   2  -6  -2  411.56   14.30
  -2   6  -2  429.66   14.80
   2  -6  -2  403.96   14.60
  -2  -6   2  409.96   14.30
  -2   6  -2  376.96   14.90
  -2  -6   2  414.56   14.90
  -2   6  -2  411.36   14.40
  -2   6  -2  406.46   14.70
   2  -6  -2  421.76   14.30
   2   6   2  403.96   14.60
   3  -6   2    5.70    0.80
  -3  -6  -2    5.00    0.50
   3   6  -2    5.50    1.10
   3  -6   2    5.60    1.30
   3  -6   2    5.40    0.80
  -3  -6  -2    6.20    1.10
   3   6  -2    7.50    1.00
  -3   6   2    5.50    0.90
  -3  -6  -2    4.10    0.90
   3   6  -2    6.50    0.80
   3   6  -2    5.00    0.90
  -3   6   2    4.60    1.00
   3  -6  -2    5.60    0.90
   3  -6  -2    6.10    0.80
  -3  -6   2    5.60    0.80
   3   6   2    5.90    1.00
  -3   6  -2    6.40    1.00
   3   6   2    4.90    1.10
  -3  -6   2    3.90    0.90
  -3   6  -2    5.60    0.90
  -3   6  -2    4.40    1.00
  -3   6  -2    4.90    1.00
   3   6   2    5.10    0.90
   3  -6  -2    6.30    0.80
   4  -6   2  253.47   11.50
  -4   6   2  267.77   10.50
   4  -6   2  271.97   10.30
  -4   6   2  265.67   11.30
   4   6  -2  309.97   11.40
   4   6  -2  252.37   10.40
  -4  -6  -2  266.17   10.70
   4   6  -2  273.67   10.50
   4  -6   2  260.77   10.30
  -4  -6   2  264.77   10.00
  -4   6  -2  254.77   10.50
  -4   6  -2  261.57    9.80
   4   6   2  244.88   10.80
   4   6   2  254.37   10.10
   4   6   2  254.67   10.20
   4  -6  -2  251.47    9.80
   4  -6  -2  254.37    9.80
   4  -6  -2  265.57    9.70
   5   6  -2  114.09    5.20
  -5  -6  -2  104.69    5.40
   5   6  -2  100.39    5.20
  -5   6   2   98.69    5.20
   5  -6   2  104.19    5.00
   5  -6   2  102.69    5.00
  -5   6  -2   95.49    5.40
   5  -6  -2   97.29    4.70
   5  -6  -2  102.69    4.70
  -5  -6   2   97.49    4.90
   5   6   2   96.39    5.90
   5   6   2  100.89    5.20
   5   6   2   97.99    5.00
   6  -6   2   17.40    2.20
   6  -6   2   21.30    2.30
   6   6  -2   16.70    2.20
  -6   6   2   24.00    2.70
  -6  -6  -2   21.10    2.70
   6   6  -2   19.00    2.30
   6   6   2   22.50    3.30
   6   6   2   18.10    2.40
   6   6   2   18.70    2.50
   6  -6  -2   24.60    2.40
  -6   6  -2   18.80    2.60
   6  -6  -2   21.90    2.40
  -6  -6   2   20.90    2.40
   7   6  -2   16.30    2.30
  -7   6   2   12.60    2.20
   7  -6   2   16.90    2.40
  -7  -6  -2   14.40    2.50
   7   6  -2   17.90    2.50
   7   6   2   12.60    2.30
   7  -6  -2   13.00    2.10
   7  -6  -2   15.20    2.00
  -7   6  -2   15.70    2.70
  -7  -6   2   20.40    2.60
   7   6   2   13.90    2.40
   7   6   2   10.80    2.70
   0   7   2  445.96   15.50
   0   7  -2  459.75   16.00
   0   7  -2  465.55   15.50
   0  -7  -2  442.66   15.80
   0   7  -2  460.55   15.50
   0   7   2  427.86   15.40
   0   7  -2  446.96   15.80
   0  -7  -2  456.25   15.60
   0  -7   2  457.65   16.00
   0  -7  -2  443.16   15.30
  -1   7   2  270.37    9.10
   1  -7   2  244.68    9.40
  -1   7   2  244.78    8.60
  -1  -7  -2  253.27    8.80
   1   7  -2  242.88    9.10
  -1  -7  -2  235.38    8.80
   1   7  -2  236.98    8.70
   1  -7   2  235.38    8.60
  -1   7   2  241.58    9.00
   1   7  -2  246.38    9.00
   1   7  -2  251.47    8.80
  -1  -7  -2  246.68    9.00
   1  -7  -2  234.08    8.20
  -1   7  -2  238.78    8.60
   1   7   2  249.18    8.40
   1   7   2  221.38    8.30
  -1   7  -2  237.68    8.40
   1  -7  -2  239.68    8.80
  -1   7  -2  229.18    8.80
  -1  -7   2  244.58    8.90
  -1  -7   2  244.08    8.30
   1  -7  -2  237.88    8.40
  -1   7  -2  234.88    8.90
   1   7   2  234.18    8.40
  -2   7   2 1012.20   33.50
   2   7  -2  974.90   33.50
   2   7  -2  909.81   33.40
  -2  -7  -2  978.80   33.70
   2  -7   2  987.40   33.40
  -2  -7  -2  962.20   33.20
   2  -7   2  969.90   33.30
  -2  -7  -2  980.30   33.90
   2   7  -2 1001.90   33.60
   2  -7   2  976.70   34.40
   2   7  -2  983.50   34.00
  -2   7   2  987.10   34.10
  -2   7  -2 1014.30   34.30
  -2   7  -2  981.40   33.80
  -2  -7   2  991.50   33.70
  -2  -7   2 1147.29   34.50
   2  -7  -2  977.70   33.70
   2  -7  -2  966.90   33.70
  -2   7  -2  929.11   34.40
   2   7   2  975.70   34.00
   2   7   2  952.20   33.90
   2   7   2  986.60   34.10
   2  -7  -2  981.40   34.10
  -2   7  -2  954.10   34.20
   3  -7   2  198.38    7.70
  -3   7   2  195.68    8.50
  -3  -7  -2  205.98    8.30
   3   7  -2  215.38    8.00
   3   7  -2  208.08    8.50
   3   7  -2  203.58    7.50
   3  -7   2  195.28    7.70
   3   7  -2  200.98    7.90
  -3  -7  -2  205.48    8.10
   3  -7   2  201.18    8.80
  -3   7   2  203.38    7.90
   3  -7  -2  207.48    7.60
   3  -7  -2  201.68    7.90
   3   7   2  197.78    8.00
   3   7   2  196.78    8.30
  -3   7  -2  192.98    7.70
   3   7   2  201.78    7.90
   3  -7  -2  202.38    7.60
  -3  -7   2  198.18    7.70
  -3   7  -2  213.98    8.50
  -3   7  -2  202.58    8.20
  -3  -7   2  192.48    8.20
  -3   7  -2  203.48    7.90
  -4   7   2  202.88    8.40
   4  -7   2  199.28    8.00
   4   7  -2  210.18    8.20
   4   7  -2  201.18    8.20
   4  -7   2  214.28    9.40
  -4   7   2  186.58    8.80
   4  -7   2  204.38    7.90
  -4  -7  -2  199.48    8.40
  -4   7   2  197.38    8.20
   4   7  -2  187.78    8.70
   4   7   2  183.68    8.80
   4  -7  -2  201.98    7.80
   4  -7  -2  199.28    7.70
   4   7   2  205.28    8.40
   4  -7  -2  196.98    7.90
   4   7   2  209.28    8.20
  -4  -7   2  198.38    8.00
  -4   7  -2  196.88    7.90
  -4   7  -2  191.48    8.50
  -5  -7  -2    3.10    1.10
   5   7  -2    4.40    1.20
   5  -7   2    3.80    0.90
   5  -7   2    3.90    1.00
   5   7  -2    3.70    1.00
  -5   7   2    5.00    1.20
   5   7   2    5.40    1.30
   5  -7  -2    3.70    1.00
  -5   7  -2    4.10    1.20
  -5  -7   2    3.90    1.00
   5   7   2    2.20    0.90
   5   7   2    4.60    1.50
   5  -7  -2    4.80    1.00
   6   7  -2   78.39    4.50
   6   7  -2   80.39    4.70
  -6   7   2   78.69    4.80
   6  -7   2   77.49    4.40
  -6  -7  -2   87.99    5.10
   6  -7  -2   83.19    4.20
   6   7   2   84.39    4.80
   6  -7  -2   76.99    4.30
  -6  -7   2   86.99    4.70
  -6   7  -2   79.39    5.10
   6   7   2   70.09    4.60
   6   7   2   82.79    5.70
   7  -7   2   35.40    3.40
  -7  -7  -2   32.90    3.70
  -7   7   2   35.10    3.70
   7   7  -2   38.80    3.70
   7   7  -2   36.00    3.50
  -7  -7   2   37.50    3.10
   7  -7  -2   36.00    2.90
   7   7   2   32.00    4.50
  -7   7  -2   36.90    4.20
   7   7   2   33.20    3.50
   7  -7  -2   37.20    2.80
   7   7   2   32.60    3.60
   0  -8  -2   47.30    2.10
   0   8  -2   47.30    2.00
   0   8   2   51.29    2.00
   0  -8  -2   48.00    1.90
   0   8   2   46.20    1.90
   0   8  -2   49.80    2.40
   0   8  -2   47.40    2.30
   0  -8   2   48.30    2.00
   0   8   2   48.90    1.90
   0  -8  -2   47.00    2.30
   0  -8   2   46.40    2.40
   0   8  -2   49.20    2.00
   1  -8   2  915.11   32.00
  -1   8   2  982.50   32.50
  -1   8   2  965.40   32.00
   1   8  -2  921.61   32.10
  -1  -8  -2  955.20   32.10
   1   8  -2  974.50   32.20
   1   8  -2  831.42   32.40
  -1  -8  -2  939.21   32.20
  -1  -8  -2  943.01   32.40
  -1   8   2  997.70   32.50
   1  -8   2  922.01   32.80
   1   8  -2  963.80   32.40
  -1   8  -2  944.11   31.90
  -1   8  -2  940.51   31.60
   1  -8  -2  931.91   31.70
   1   8   2  879.71   31.50
   1   8   2  960.80   31.60
  -1  -8   2  935.71   32.20
  -1  -8   2  957.30   31.50
   1  -8  -2  913.61   31.50
  -1   8  -2  893.51   32.10
   1   8   2  929.41   31.70
  -1   8  -2  938.81   32.20
   1  -8  -2  929.51   32.00
   2  -8   2  229.78    8.80
   2   8  -2  214.58    8.00
   2   8  -2  210.68    8.30
  -2  -8  -2  211.78    8.30
   2   8  -2  213.58    7.90
  -2  -8  -2  217.78    8.10
  -2  -8  -2  212.28    7.60
   2  -8   2  213.38    7.70
   2   8  -2  217.08    7.90
  -2   8   2  215.38    7.90
  -2   8   2  186.88    8.30
   2  -8   2  215.28    7.80
  -2   8  -2  209.48    8.30
  -2   8  -2  213.28    8.10
   2   8   2  214.88    8.00
   2   8   2  194.18    7.80
  -2  -8   2  207.28    8.10
   2   8   2  207.98    7.80
   2   8   2  217.18    8.10
   2  -8  -2  205.98    7.60
  -2  -8   2  210.08    7.60
   2  -8  -2  214.98    7.60
  -2   8  -2  209.98    7.70
  -2   8  -2  201.68    8.10
   2  -8  -2  216.38    8.00
  -3  -8  -2    5.60    1.00
   3   8  -2    6.10    1.00
  -3  -8  -2    5.10    1.10
   3  -8   2    8.50    1.60
   3   8  -2    5.70    0.70
   3   8  -2    7.10    1.30
  -3   8   2    5.20    0.90
   3  -8   2    5.70    0.90
   3   8  -2    5.10    0.90
   3  -8   2    4.90    0.80
  -3   8   2    6.30    1.30
  -3   8  -2    6.40    1.20
   3  -8  -2    7.10    0.90
  -3  -8   2    6.60    0.90
   3   8   2    5.40    0.90
  -3   8  -2    8.10    1.20
   3   8   2    7.70    1.30
   3   8   2    5.80    1.00
  -3   8  -2    7.30    1.00
  -3   8  -2    5.30    1.00
   3  -8  -2    7.00    1.00
   3  -8  -2    7.50    0.90
   4  -8   2  119.69    5.20
   4  -8   2  112.59    6.30
  -4  -8  -2  116.99    5.60
  -4   8   2  119.59    5.60
   4  -8   2  120.19    5.10
   4   8  -2  122.29    6.00
  -4   8   2  114.59    5.40
  -4   8   2  120.69    6.10
   4   8  -2  113.09    5.40
   4   8  -2  123.79    5.40
  -4   8  -2  116.59    5.80
  -4   8  -2  118.49    5.30
  -4  -8   2  117.09    5.30
   4   8   2  118.09    5.60
   4  -8  -2  121.59    5.20
   4   8   2  122.39    6.20
   4   8   2  128.49    5.60
   4  -8  -2  123.69    5.10
   4  -8  -2  117.89    5.30
  -5  -8  -2  103.79    5.40
   5   8  -2  101.59    5.10
   5  -8   2  102.39    4.90
   5   8  -2  118.59    5.40
  -5   8   2  106.89    6.20
  -5   8   2  106.09    5.40
   5  -8   2   98.99    4.90
   5   8  -2  102.19    5.80
   5   8   2  116.39    5.60
   5  -8  -2  114.49    5.20
   5   8   2  105.39    6.30
   5   8   2  114.89    5.80
   5  -8  -2  116.29    5.10
  -5  -8   2  106.59    5.30
  -5   8  -2  116.39    6.10
  -6   8   2   80.89    4.90
   6   8  -2   82.39    4.60
   6  -8   2   79.69    4.50
  -6  -8  -2   87.29    5.10
   6   8  -2   80.29    4.80
  -6  -8   2   75.89    4.50
   6  -8  -2   82.09    4.20
   6   8   2   87.99    5.00
   6  -8  -2   82.89    4.40
   6   8   2   79.09    4.80
  -6   8  -2   81.09    5.20
   6   8   2   74.69    5.50
  -7   8   2   52.39    4.20
  -7  -8  -2   60.29    4.40
   7   8  -2   59.59    4.10
   7  -8   2   61.79    4.00
   7   8  -2   66.09    4.40
   7   8   2   56.59    4.20
  -7   8  -2   57.69    4.60
   7   8   2   63.89    5.30
  -7  -8   2   53.69    3.80
   7   8   2   51.69    4.00
   7  -8  -2   49.60    3.70
   0   9   2  449.36   15.40
   0  -9   2  456.25   15.40
   0  -9  -2  453.25   15.60
   0   9   2  468.25   15.40
   0   9  -2  426.26   15.80
   0   9  -2  434.36   16.00
   0  -9   2  443.46   16.00
   0  -9  -2  456.15   15.80
   0  -9  -2  443.26   15.30
   0   9   2  436.16   15.30
   0   9  -2  464.55   15.40
   0   9  -2  445.16   15.50
  -1  -9  -2  173.28    6.60
   1  -9   2  177.98    6.40
   1   9  -2  187.78    6.90
   1  -9   2  153.28    7.00
  -1   9   2  173.58    6.70
  -1  -9  -2  180.28    6.80
  -1   9   2  177.98    6.70
  -1   9   2  184.18    6.40
   1   9  -2  182.18    6.80
   1   9  -2  178.78    6.50
   1   9  -2  180.38    6.50
  -1  -9  -2  175.08    6.50
  -1   9  -2  186.48    6.90
  -1  -9   2  171.48    7.00
   1   9   2  177.78    6.60
  -1   9  -2  181.28    7.00
  -1   9  -2  187.68    6.50
   1  -9  -2  187.28    7.00
  -1  -9   2  182.88    6.50
   1  -9  -2  177.08    6.40
   1  -9  -2  185.28    6.60
   1   9   2  183.58    6.40
   1   9   2  178.98    6.40
   2  -9   2  170.58    6.80
   2  -9   2  184.88    6.70
  -2   9   2  194.98    7.50
   2   9  -2  182.58    7.30
   2   9  -2  186.38    7.00
  -2  -9  -2  177.98    6.60
  -2  -9  -2  187.88    7.00
   2  -9   2  185.18    7.70
  -2   9   2  183.88    6.90
   2   9  -2  176.58    6.90
  -2  -9  -2  181.88    7.30
   2   9  -2  177.68    6.80
  -2   9  -2  186.38    7.30
  -2   9  -2  211.38    7.70
   2   9   2  185.28    7.20
   2   9   2  182.58    7.10
  -2  -9   2  160.18    7.20
  -2   9  -2  185.88    6.90
  -2  -9   2  183.18    6.90
   2  -9  -2  191.18    7.30
   2  -9  -2  185.98    6.80
   2  -9  -2  185.88    6.80
  -2   9  -2  187.88    7.40
   2   9   2  179.98    7.20
   2   9   2  196.78    7.10
   3  -9   2  291.97   11.90
  -3  -9  -2  286.37   11.30
   3  -9   2  293.97   10.70
   3   9  -2  287.97   10.40
   3   9  -2  287.37   11.40
   3   9  -2  282.37   10.90
  -3   9   2  305.67   11.00
  -3   9   2  303.67   11.60
  -3  -9  -2  283.07   11.00
   3  -9   2  289.67   10.60
   3   9  -2  286.07   10.90
   3   9   2  288.37   10.80
  -3   9  -2  275.77   11.20
  -3  -9   2  271.77   10.40
  -3   9  -2  286.47   11.00
  -3   9  -2  286.07   10.80
   3  -9  -2  280.07   10.30
   3  -9  -2  287.57   10.70
   3   9   2  273.17   10.60
   3   9   2  286.47   11.10
   3  -9  -2  280.57   10.20
  -4   9   2   59.39    3.30
   4   9  -2   60.99    3.30
  -4  -9  -2   57.49    3.40
  -4   9   2   52.99    3.40
   4   9  -2   53.79    3.60
   4   9  -2   52.79    3.10
   4  -9   2   59.39    3.10
   4  -9   2   60.49    4.20
  -4   9   2   54.99    3.70
   4  -9   2   57.39    3.00
   4   9   2   55.69    3.30
  -4  -9   2   55.69    3.10
  -4   9  -2   58.69    3.60
  -4   9  -2   55.59    3.10
   4  -9  -2   59.89    3.20
   4  -9  -2   58.79    2.90
   4   9   2   56.59    3.80
   4   9   2   55.19    3.30
   4  -9  -2   58.19    3.00
   5   9  -2  255.27   10.90
   5   9  -2  233.78   10.00
  -5   9   2  247.38   11.10
   5   9  -2  235.58    9.90
   5  -9   2  238.38    9.70
  -5   9   2  244.88   10.20
  -5  -9  -2  244.78   10.30
  -5   9   2  237.18   10.20
  -5   9  -2  255.07   10.80
   5   9   2  239.68   11.00
   5  -9  -2  240.18    9.80
   5   9   2  250.57   10.20
   5  -9  -2  242.68    9.70
   5  -9  -2  251.77    9.50
   5   9   2  232.38   10.20
  -5  -9   2  238.98    9.90
   6   9  -2  132.39    6.70
  -6   9   2  134.29    6.80
   6  -9   2  140.09    6.40
   6   9  -2  129.99    6.50
  -6  -9  -2  136.79    6.90
   6   9   2  134.09    7.70
   6  -9  -2  144.09    6.30
   6   9   2  131.29    6.60
  -6   9  -2  124.49    7.10
   6  -9  -2  129.29    5.90
  -6  -9   2  127.49    6.30
   6   9   2  128.39    6.70
   7  -9   2   22.80    2.70
   7   9  -2   20.20    2.80
   7   9  -2   25.50    2.90
  -7   9   2   20.70    2.90
  -7  -9  -2   21.50    2.90
  -7   9  -2   18.90    3.00
   7   9   2   22.60    3.70
   7   9   2   23.60    2.90
   7  -9  -2   21.60    2.50
   7   9   2   19.90    2.80
  -7  -9   2   19.30    2.50
   0  10  -2   43.60    1.80
   0 -10  -2   40.70    1.70
   0 -10   2   48.90    2.40
   0  10   2   41.40    1.70
   0  10  -2   41.30    2.10
   0  10  -2   44.40    1.90
   0 -10   2   41.30    1.80
   0  10  -2   41.70    2.30
   0  10   2   43.10    1.70
   0  10   2   40.40    1.70
   0 -10  -2   39.20    2.10
   0 -10  -2   39.20    1.90
   1  10  -2  746.23   26.40
   1  10  -2  764.72   26.40
  -1  10   2  750.32   26.00
  -1 -10  -2  764.42   26.40
   1  10  -2  749.82   26.10
   1 -10   2  768.32   26.80
   1 -10   2  764.12   26.00
  -1  10   2  777.22   26.40
   1  10  -2  754.42   26.00
  -1 -10  -2  772.12   26.00
  -1 -10  -2  759.62   26.20
  -1  10   2  751.42   26.30
   1 -10  -2  735.13   25.70
  -1  10  -2  749.53   25.50
   1  10   2  762.22   25.50
   1  10   2  759.02   25.50
  -1  10  -2  760.42   26.00
  -1 -10   2  757.12   26.20
  -1 -10   2  765.92   25.60
   1  10   2  744.63   25.80
   1 -10  -2  748.63   26.20
  -1  10  -2  760.62   26.40
  -1  10  -2  736.13   26.20
   1 -10  -2  734.03   25.60
  -2 -10  -2  406.36   15.00
   2  10  -2  418.36   14.90
   2  10  -2  407.06   15.00
  -2 -10  -2  425.76   14.70
   2  10  -2  477.45   15.60
  -2  10   2  422.06   15.00
  -2 -10  -2  427.36   15.40
   2 -10   2  412.76   14.80
  -2  10   2  409.16   15.50
   2  10  -2  425.46   15.00
   2 -10   2  408.86   14.70
   2  10   2  424.66   15.30
  -2  10  -2  418.86   15.60
   2  10   2  407.56   15.10
   2 -10  -2  430.86   15.40
   2 -10  -2  410.86   14.90
  -2  10  -2  423.86   15.50
  -2 -10   2  492.25   15.70
   2  10   2  419.26   15.20
  -2  10  -2  433.36   14.90
  -2 -10   2  426.96   15.00
   2  10   2  423.36   15.30
   2 -10  -2  430.86   14.90
  -2  10  -2  405.36   15.70
  -3 -10  -2   40.10    2.30
   3  10  -2   34.50    1.90
  -3  10   2   38.90    2.70
   3 -10   2   34.50    1.90
   3  10  -2   35.20    2.20
  -3  10   2   36.90    2.20
   3  10  -2   38.70    2.20
   3 -10   2   38.60    2.90
   3  10  -2   41.50    2.60
   3 -10   2   36.80    2.10
  -3 -10  -2   35.50    2.40
   3  10   2   29.10    2.00
  -3 -10   2   28.60    1.80
   3 -10  -2   29.80    1.80
   3 -10  -2   30.90    1.70
   3  10   2   34.40    2.20
   3  10   2   33.90    2.30
  -3  10  -2   35.10    2.40
  -3  10  -2   32.30    2.20
   3 -10  -2   32.10    2.10
   4 -10   2   93.39    4.30
   4 -10   2  100.99    4.60
  -4  10   2  105.79    5.50
   4  10  -2  102.79    4.80
   4  10  -2   91.79    5.20
  -4  10   2   99.99    5.10
  -4  10   2  106.79    4.90
   4  10  -2  101.99    4.80
  -4 -10  -2   97.09    4.90
   4  10   2   86.89    4.60
  -4  10  -2   95.29    4.50
   4 -10  -2   88.59    4.00
  -4  10  -2   90.09    4.90
   4  10   2   97.29    5.20
   4 -10  -2   90.99    4.40
   4 -10  -2   87.69    4.10
  -4 -10   2   93.39    4.30
   4  10   2   93.39    4.60
   5  10  -2  136.89    6.40
  -5  10   2  143.39    6.80
  -5  10   2  141.99    7.40
   5 -10   2  144.29    6.30
   5  10  -2  145.79    6.60
  -5  10   2  133.19    6.60
   5  10  -2  137.89    7.10
  -5 -10  -2  134.79    6.60
   5 -10  -2  145.39    6.30
  -5 -10   2  149.79    6.50
   5  10   2  137.29    7.40
   5  10   2  135.49    6.60
   5 -10  -2  143.29    6.00
   5 -10  -2  149.09    6.30
   5  10   2  130.09    6.70
  -5  10  -2  143.19    7.10
   6  10  -2   54.79    3.60
   6  10  -2   48.00    3.60
   6 -10   2   49.90    3.30
  -6  10   2   48.70    3.70
  -6 -10  -2   48.90    3.70
   6  10   2   42.70    3.50
   6 -10  -2   46.00    2.90
  -6  10  -2   51.49    4.10
   6  10   2   60.09    3.90
  -6 -10   2   49.40    3.30
   6  10   2   56.39    4.50
   6 -10  -2   47.30    3.20
   7  10  -2   67.09    4.40
   7  10  -2   64.99    4.60
   7 -10   2   70.99    4.30
  -7 -10  -2   64.89    4.60
  -7  10   2   68.39    5.10
  -7 -10   2   63.69    4.20
   7  10   2   59.29    5.30
   7  10   2   69.29    4.70
  -7  10  -2   59.69    4.80
   7 -10  -2   61.79    4.00
   7  10   2   69.89    4.70
   0 -11  -2   15.90    1.00
   0  11  -2   16.70    1.60
   0  11   2   16.10    0.90
   0  11   2   15.90    0.80
   0 -11   2   16.40    0.90
   0 -11  -2   13.40    1.10
   0  11  -2   15.80    0.80
   0 -11  -2   15.40    0.80
   0  11  -2   21.10    1.30
   0 -11   2   13.80    1.20
   0  11  -2   15.80    1.00
   0  11   2   16.20    0.80
  -1  11   2  482.95   18.20
   1  11  -2  526.75   18.40
  -1 -11  -2  530.35   18.00
  -1 -11  -2  515.35   18.20
   1  11  -2  513.65   18.00
   1  11  -2  492.75   18.40
  -1 -11  -2  534.85   18.40
   1  11  -2  528.45   18.00
  -1  11   2  539.65   18.00
   1  11  -2  525.35   17.90
   1 -11   2  506.05   17.90
   1 -11   2  528.25   18.80
  -1  11   2  532.95   18.30
  -1  11  -2  481.55   18.30
  -1  11  -2  528.55   18.10
   1 -11  -2  512.65   18.30
   1 -11  -2  529.35   17.80
  -1 -11   2  517.65   18.30
  -1  11  -2  529.55   18.50
   1  11   2  519.35   17.90
   1  11   2  513.35   17.60
   1 -11  -2  502.85   17.70
  -1  11  -2  523.55   17.60
  -1 -11   2  519.25   17.80
   1  11   2  504.65   17.50
   2  11  -2   36.40    1.90
   2 -11   2   38.20    1.70
   2  11  -2   35.30    2.00
   2 -11   2   35.00    1.80
   2 -11   2   33.10    2.50
  -2 -11  -2   33.40    2.20
  -2 -11  -2   35.30    2.00
   2  11  -2   37.40    2.20
  -2 -11  -2   35.90    1.70
   2  11  -2   36.30    2.00
  -2  11   2   32.80    2.20
  -2  11   2   42.70    2.10
  -2  11  -2   36.10    2.30
   2  11   2   38.70    2.00
  -2  11  -2   35.80    2.20
   2  11   2   32.00    1.80
   2  11   2   38.40    2.00
   2 -11  -2   36.10    1.70
  -2 -11   2   33.30    2.20
  -2 -11   2   34.60    1.80
   2 -11  -2   36.80    2.20
  -2  11  -2   39.30    2.40
   2 -11  -2   38.30    1.80
  -2  11  -2   34.50    1.70
   2  11   2   36.90    2.10
  -3  11   2   56.39    3.40
   3 -11   2   64.69    2.90
  -3 -11  -2   55.09    3.00
   3 -11   2   56.69    3.70
  -3  11   2   56.59    3.00
  -3 -11  -2   54.39    3.20
   3  11  -2   54.59    3.00
   3  11  -2   55.49    2.90
   3  11  -2   56.29    2.60
   3  11  -2   54.69    3.30
   3 -11   2   60.29    2.70
   3 -11  -2   57.89    3.10
   3  11   2   56.69    3.20
   3 -11  -2   60.89    2.80
  -3  11  -2   56.89    3.30
   3  11   2   59.89    3.10
  -3 -11   2   58.79    2.90
  -3  11  -2   59.89    3.30
   3  11   2   63.69    3.40
   3 -11  -2   60.09    2.70
  -3  11  -2   58.29    3.60
   4  11  -2    7.00    1.40
   4  11  -2    5.80    1.20
  -4 -11  -2    5.00    1.10
  -4  11   2    4.50    1.20
  -4  11   2    4.50    1.20
   4  11  -2    5.00    1.10
  -4  11   2    5.70    1.20
   4 -11   2    4.00    0.90
  -4 -11   2    6.40    1.00
  -4  11  -2    5.90    1.30
   4  11   2    6.50    1.20
   4  11   2    4.50    1.10
   4 -11  -2    7.20    1.20
  -4  11  -2    6.90    1.30
   4 -11  -2    4.70    0.90
   4  11   2    7.20    1.50
   4 -11  -2    7.20    1.00
   5  11  -2  201.58    8.70
  -5  11   2  204.58    9.00
   5  11  -2  213.88    9.60
  -5  11   2  220.78    9.30
   5 -11   2  208.98    8.50
   5  11  -2  203.88    8.90
  -5  11   2  198.08    9.70
  -5 -11  -2  198.18    8.90
   5  11   2  201.08    9.10
   5 -11  -2  204.18    8.60
  -5  11  -2  212.18    9.50
   5  11   2  213.28    9.00
   5 -11  -2  202.28    8.10
   5  11   2  213.18    9.80
   5 -11  -2  218.18    8.50
  -5 -11   2  194.48    8.50
   6  11  -2   53.19    3.70
  -6 -11  -2   48.50    3.60
   6 -11   2   54.09    3.40
  -6  11   2   52.39    3.80
   6  11  -2   44.80    3.40
  -6 -11   2   52.99    3.50
   6  11   2   50.19    4.40
   6 -11  -2   49.70    3.20
   6  11   2   51.89    3.80
  -6  11  -2   55.79    4.30
   6  11   2   54.49    3.80
   0 -12  -2  242.98    9.00
   0 -12   2  249.68    8.60
   0 -12  -2  247.28    8.50
   0  12   2  235.48    8.40
   0  12   2  242.68    8.60
   0  12  -2  245.68    8.70
   0  12  -2  249.08    8.50
   0  12  -2  241.38    9.00
   0  12   2  249.08    8.50
   0 -12  -2  240.98    8.80
   0  12  -2  252.47    9.30
   0 -12   2  212.58    9.10
   1  12  -2  112.69    4.50
  -1  12   2  115.69    4.50
   1 -12   2  109.09    5.10
   1 -12   2  112.59    4.40
   1  12  -2  119.89    4.90
  -1 -12  -2  117.49    4.50
  -1 -12  -2  114.69    4.60
  -1  12   2  111.49    4.70
  -1  12   2  121.09    4.70
   1  12  -2  114.09    4.40
  -1 -12  -2  116.49    4.80
   1  12  -2  126.59    4.90
   1  12   2  122.29    4.60
   1 -12  -2  112.09    4.30
  -1  12  -2  110.19    5.10
   1  12   2  107.49    4.10
   1 -12  -2  118.69    4.40
   1 -12  -2  118.19    4.90
  -1  12  -2  118.89    5.00
  -1 -12   2  121.39    4.40
  -1  12  -2  117.59    4.20
  -1  12  -2  118.89    4.80
  -1 -12   2  114.29    4.90
   1  12   2  122.09    4.20
   2  12  -2   50.99    2.60
  -2  12   2   53.49    2.60
   2 -12   2   51.89    2.20
  -2 -12  -2   55.39    2.60
   2 -12   2   57.09    3.30
   2 -12   2   54.29    2.50
   2  12  -2   55.09    2.60
  -2 -12  -2   53.09    2.40
   2  12  -2   57.69    3.00
   2  12  -2   51.89    2.60
  -2  12   2   50.49    2.90
  -2 -12  -2   53.19    2.90
   2 -12  -2   57.09    2.40
  -2  12  -2   56.79    2.90
   2 -12  -2   54.69    2.90
  -2  12  -2   54.29    2.30
   2  12   2   57.49    2.50
  -2  12  -2   53.19    3.10
  -2 -12   2   52.79    2.40
  -2  12  -2   53.09    3.00
  -2 -12   2   49.90    3.50
   2 -12  -2   57.19    2.40
   2  12   2   50.99    2.70
   2  12   2   57.49    2.80
   2  12   2   52.89    2.60
   3  12  -2  674.43   23.40
  -3  12   2  607.94   23.30
  -3 -12  -2  671.33   23.40
  -3 -12  -2  664.83   23.80
   3 -12   2  691.33   24.60
   3 -12   2  674.93   23.10
   3  12  -2  628.74   23.70
   3  12  -2  664.53   23.30
  -3  12   2  685.93   24.00
   3  12  -2  664.03   22.80
   3 -12   2  641.74   22.70
  -3  12   2  621.34   23.90
  -3 -12   2  660.83   23.40
   3 -12  -2  671.33   23.10
   3  12   2  671.93   23.70
  -3  12  -2  638.94   24.00
  -3  12  -2  655.93   24.40
   3  12   2  677.13   24.00
   3 -12  -2  684.63   23.90
   3  12   2  672.63   23.90
  -3  12  -2  671.53   24.00
   3 -12  -2  671.13   23.30
  -4 -12  -2   37.90    2.60
   4 -12   2   34.20    2.30
  -4  12   2   38.90    2.90
   4  12  -2   39.40    3.00
  -4  12   2   35.90    2.50
   4  12  -2   39.90    2.60
  -4  12   2   35.10    3.00
   4  12  -2   37.20    2.50
   4 -12  -2   40.80    2.30
  -4  12  -2   39.10    2.90
   4 -12  -2   38.20    2.10
   4  12   2   33.70    2.80
  -4  12  -2   39.00    2.60
   4 -12  -2   37.30    2.50
   4  12   2   36.50    2.60
   4  12   2   38.40    2.60
  -4 -12   2   39.30    2.40
  -5  12   2   18.00    2.40
  -5  12   2   20.80    2.40
   5 -12   2   13.90    1.80
  -5  12   2   17.10    2.70
   5  12  -2   18.00    2.10
   5  12  -2   19.50    2.40
  -5 -12  -2   18.20    2.30
   5  12  -2   16.20    2.40
   5  12   2   15.30    2.10
   5 -12  -2   18.80    1.90
   5 -12  -2   17.40    1.70
  -5 -12   2   16.10    1.90
   5  12   2   17.70    2.70
  -5  12  -2   15.50    2.40
   5  12   2   14.30    2.20
   5 -12  -2   16.00    1.90
  -6 -12  -2    4.10    1.30
   6  12  -2    4.10    1.30
   6 -12   2    3.20    1.00
   6  12  -2    5.90    1.50
  -6  12   2    4.20    1.40
  -6 -12   2    4.80    1.20
   6  12   2    4.50    1.70
  -6  12  -2    3.60    1.50
   6  12   2    4.30    1.40
   6 -12  -2    3.40    1.00
   6  12   2    4.50    1.40
   0  13  -2  257.77    9.10
   0 -13  -2  262.87    9.20
   0  13  -2  267.77   10.00
   0 -13  -2  247.88    9.70
   0  13  -2  259.07    9.70
   0 -13   2  265.37    9.30
   0  13   2  270.07    9.10
   0 -13   2  254.67    9.90
   0  13  -2  260.47    9.40
   0  13   2  260.07    9.30
   0  13   2  253.27    9.00
   0 -13  -2  271.07    9.50
  -1  13   2  646.24   24.30
   1  13  -2  725.73   24.60
  -1 -13  -2  722.43   24.10
   1 -13   2  684.03   24.00
   1  13  -2  709.43   24.10
   1 -13   2  624.34   24.80
  -1 -13  -2  704.83   24.40
  -1  13   2  694.83   24.10
  -1 -13  -2  696.43   24.30
   1  13  -2  698.23   24.50
  -1  13   2  764.62   24.40
   1  13  -2  722.13   24.10
  -1  13  -2  703.23   24.30
   1  13   2  737.33   24.20
  -1 -13   2  754.62   25.20
   1 -13  -2  721.93   24.50
   1 -13  -2  699.43   25.10
  -1  13  -2  709.23   25.40
  -1 -13   2  721.73   24.60
   1  13   2  654.63   24.20
   1 -13  -2  683.43   24.50
  -1  13  -2  721.23   25.00
   1  13   2  714.83   24.70
  -1  13  -2  773.42   25.20
  -2 -13  -2   52.89    2.40
   2  13  -2   50.39    2.80
   2  13  -2   48.30    2.50
   2  13  -2   55.89    2.60
  -2  13   2   49.20    2.90
  -2 -13  -2   52.39    2.90
  -2 -13  -2   53.99    2.60
   2 -13   2   50.29    2.10
   2 -13   2   51.09    2.40
   2  13  -2   52.89    2.60
  -2  13   2   52.99    2.60
  -2  13  -2   57.29    3.10
   2  13   2   54.59    2.80
   2 -13  -2   53.99    2.40
   2 -13  -2   52.29    2.90
   2 -13  -2   54.09    2.30
   2  13   2   54.89    2.70
  -2 -13   2   52.59    2.40
   2  13   2   51.39    2.60
   2  13   2   50.49    2.40
  -2  13  -2   52.49    2.90
  -2  13  -2   51.09    2.20
  -3  13   2   98.79    5.00
  -3  13   2  100.79    5.00
   3  13  -2   98.09    4.50
   3  13  -2   89.69    4.70
   3 -13   2   96.39    4.20
  -3 -13  -2   87.39    4.30
   3  13  -2   98.19    4.40
  -3 -13  -2   91.79    4.70
   3  13  -2  103.59    4.00
  -3  13   2   99.39    4.50
  -3  13  -2   90.39    5.00
   3 -13  -2  101.69    4.20
   3  13   2   94.19    4.70
   3  13   2   97.59    4.60
  -3 -13   2   96.09    4.20
   3 -13  -2  100.69    4.70
  -3  13  -2  102.29    4.80
  -3  13  -2  102.09    4.90
   3 -13  -2   99.19    4.00
   3  13   2   95.39    4.50
  -4  13   2   75.99    4.50
   4  13  -2   81.29    4.20
  -4  13   2   85.39    4.90
  -4  13   2   78.99    4.20
   4  13  -2   82.39    4.10
   4 -13   2   73.39    3.80
  -4 -13  -2   79.89    4.20
   4  13  -2   73.49    4.40
  -4  13  -2   73.09    4.10
  -4 -13   2   79.49    3.80
   4  13   2   77.09    4.50
   4 -13  -2   74.39    4.00
   4  13   2   79.49    4.30
   4 -13  -2   81.49    3.70
  -4  13  -2   71.99    4.40
   4 -13  -2   78.59    3.50
   4  13   2   78.99    4.10
   5  13  -2  103.49    6.00
  -5  13   2   96.89    6.10
   5  13  -2  103.19    5.40
   5  13  -2  115.69    5.70
  -5  13   2  112.69    5.90
  -5  13   2  114.79    5.80
  -5 -13  -2  114.09    5.70
   5 -13   2  120.09    5.30
  -5  13  -2  102.99    5.90
   5  13   2  115.69    5.80
   5 -13  -2  104.39    5.00
  -5 -13   2  108.69    5.20
   5 -13  -2  109.79    5.30
   5  13   2  109.89    6.10
   5 -13  -2  113.39    5.80
   5  13   2   93.59    5.40
   6  13  -2   25.90    2.90
   6  13  -2   21.20    2.60
  -6  13   2   19.90    2.60
   6 -13   2   29.80    2.40
  -6 -13  -2   20.60    2.60
  -6 -13   2   22.40    2.40
   6 -13  -2   17.40    2.10
   6  13   2   21.90    2.70
  -6  13  -2   17.40    2.90
   6  13   2   20.90    2.80
   6  13   2   22.20    3.30
   0 -14   2  984.20   34.50
   0  14  -2  981.70   34.00
   0  14  -2  995.00   34.60
   0 -14  -2  983.40   34.30
   0  14  -2 1026.40   33.60
   0  14   2  978.40   33.60
   0 -14  -2 1009.00   34.00
   0 -14   2  979.20   33.90
   0  14  -2 1073.19   34.40
   0  14   2  968.10   33.80
   0 -14  -2 1000.80   33.80
   0  14   2  931.61   33.60
  -1  14   2   39.90    2.00
   1  14  -2   42.60    2.40
   1 -14   2   47.00    2.70
  -1 -14  -2   40.50    2.10
  -1  14   2   38.20    2.10
   1  14  -2   39.90    1.90
   1 -14   2   39.60    1.90
   1  14  -2   40.90    2.00
  -1 -14  -2   43.80    2.30
  -1 -14  -2   44.90    2.00
  -1  14   2   40.70    2.20
   1  14  -2   36.70    2.20
   1  14   2   39.70    1.50
  -1 -14   2   35.20    2.20
  -1  14  -2   35.20    2.00
  -1  14  -2   36.80    1.50
   1  14   2   33.30    1.40
   1 -14  -2   36.20    1.70
  -1  14  -2   42.70    2.30
   1  14   2   37.70    1.90
  -1 -14   2   38.70    1.80
   1 -14  -2   38.80    1.80
   1 -14  -2   35.80    2.20
   2  14  -2   31.90    2.20
   2  14  -2   37.10    2.10
   2 -14   2   36.70    2.60
   2  14  -2   37.90    2.10
  -2  14   2   40.50    2.10
   2 -14   2   40.50    2.10
   2 -14   2   37.70    1.90
  -2 -14  -2   35.20    2.00
  -2 -14  -2   37.00    2.30
  -2  14   2   37.50    2.40
   2  14  -2   36.00    2.10
  -2 -14  -2   36.90    1.90
   2  14   2   33.50    1.80
   2  14   2   36.50    2.00
   2 -14  -2   40.40    1.90
   2  14   2   34.00    2.20
  -2  14  -2   34.60    2.40
   2  14   2   39.40    2.10
   2 -14  -2   38.90    2.30
   2 -14  -2   38.60    1.80
   2  14   2   36.70    2.10
  -2  14  -2   36.40    2.30
  -2  14  -2   34.30    2.40
  -2 -14   2   35.20    1.80
  -3 -14  -2  558.64   20.50
   3  14  -2  545.35   19.50
  -3  14   2  553.54   20.70
  -3 -14  -2  559.24   20.00
   3 -14   2  549.25   19.70
   3  14  -2  562.24   20.10
  -3  14   2  562.64   20.10
   3  14  -2  552.74   20.50
   3  14  -2  569.14   20.00
  -3  14   2  556.14   20.70
   3  14   2  546.45   20.30
  -3  14  -2  574.74   21.00
   3 -14  -2  556.24   19.50
   3 -14  -2  525.75   20.20
   3  14   2  561.24   20.20
  -3  14  -2  551.84   20.50
   3  14   2  595.84   20.40
   3 -14  -2  560.44   19.60
  -3  14  -2  545.15   20.50
  -3 -14   2  562.94   19.80
   4  14  -2   45.80    3.30
  -4 -14  -2   45.30    2.90
  -4  14   2   46.80    3.50
   4  14  -2   51.89    3.10
  -4  14   2   49.70    3.40
  -4  14   2   50.69    3.20
   4 -14   2   45.40    2.70
   4  14  -2   48.30    3.00
   4  14   2   47.40    3.10
  -4 -14   2   43.00    2.70
   4 -14  -2   50.69    2.50
   4  14   2   46.40    3.30
  -4  14  -2   50.59    3.40
   4 -14  -2   54.49    2.70
   4 -14  -2   48.00    3.00
   4  14   2   47.00    3.10
  -4  14  -2   52.59    3.30
  -5  14   2   27.50    3.10
  -5 -14  -2   23.60    2.60
  -5  14   2   30.10    3.10
   5 -14   2   28.70    2.20
   5  14  -2   28.70    2.80
  -5  14   2   27.90    2.90
   5  14  -2   25.00    2.60
   5  14  -2   26.90    2.80
   5 -14  -2   30.90    2.50
   5  14   2   26.30    2.90
  -5 -14   2   31.40    2.30
   5  14   2   29.90    2.90
  -5  14  -2   28.80    3.20
   5 -14  -2   31.20    2.20
   5  14   2   29.10    2.90
  -6 -14  -2   40.90    3.20
   6 -14   2   35.30    2.70
   6  14  -2   35.80    3.50
   6  14  -2   32.90    2.80
  -6  14   2   32.20    3.50
  -6 -14   2   38.00    2.80
   6  14   2   31.20    3.30
   6  14   2   41.20    3.80
   6  14   2   30.60    3.50
   6 -14  -2   31.70    2.50
  -6  14  -2   33.70    3.90
   0  15  -2    2.20    0.70
   0  15   2    3.10    0.50
   0 -15  -2    2.60    0.60
   0 -15   2    2.80    0.80
   0 -15  -2    3.30    0.50
   0 -15   2    2.90    0.50
   0 -15  -2    3.30    0.60
   0  15  -2    2.80    0.70
   0  15  -2    3.30    0.60
   0  15  -2    2.60    0.40
   0  15   2    2.10    0.40
   0  15   2    2.50    0.40
   1  15  -2  251.57    9.00
   1 -15   2  247.28    8.90
  -1  15   2  239.38    9.30
  -1  15   2  243.08    9.00
  -1 -15  -2  255.27    9.00
   1  15  -2  240.18    9.40
   1  15  -2  253.67    9.40
   1  15  -2  242.48    8.90
  -1 -15  -2  247.28    9.30
  -1  15   2  263.87    9.20
  -1 -15  -2  247.08    9.20
   1 -15   2  236.08    9.80
   1  15   2  240.58    8.90
  -1  15  -2  240.08    8.40
  -1  15  -2  244.08    9.60
   1 -15  -2  240.98    8.70
   1  15   2  245.78    9.10
   1 -15  -2  247.28    8.80
   1 -15  -2  231.88    9.30
  -1  15  -2  243.38    9.20
  -1 -15   2  243.38    8.80
  -1  15  -2  257.77    9.40
  -2  15   2   38.30    2.40
   2  15  -2   35.00    2.10
   2 -15   2   38.30    2.00
  -2 -15  -2   38.30    2.00
   2  15  -2   38.80    2.20
  -2 -15  -2   40.10    2.10
  -2 -15  -2   36.70    2.40
  -2  15   2   39.80    2.70
  -2  15   2   38.90    2.10
   2  15  -2   38.50    2.40
   2  15  -2   34.30    2.00
   2  15   2   39.20    2.20
  -2 -15   2   36.80    2.00
  -2  15  -2   39.90    2.60
  -2  15  -2   44.30    2.80
   2 -15  -2   38.60    1.90
   2 -15  -2   39.90    2.50
   2  15   2   39.30    2.30
   2  15   2   39.30    1.90
  -2  15  -2   40.10    2.40
   2 -15  -2   41.40    1.90
   2  15   2   38.70    2.10
   2  15   2   40.00    2.20
  -3 -15  -2  209.98    8.50
   3  15  -2  213.58    8.50
  -3  15   2  199.38    8.50
  -3  15   2  216.28    9.30
   3  15  -2  241.08    9.10
   3  15  -2  214.58    8.10
  -3 -15  -2  214.78    9.00
   3  15  -2  209.88    8.50
  -3  15   2  210.88    9.20
   3 -15   2  217.28    8.30
   3  15   2  219.58    8.50
  -3  15  -2  207.98    8.80
  -3  15  -2  187.98    9.00
   3 -15  -2  204.68    7.90
   3  15   2  221.88    8.60
   3 -15  -2  210.48    7.80
  -3  15  -2  213.48    8.80
   3 -15  -2  211.48    8.60
  -3 -15   2  208.78    8.00
   3  15   2  214.18    8.60
  -4  15   2  228.88   10.10
   4  15  -2  220.68    9.10
  -4  15   2  230.98    9.90
   4 -15   2  220.08    8.80
  -4  15   2  213.98    9.30
   4  15  -2  233.88    9.30
   4  15  -2  214.88    9.60
  -4 -15  -2  230.88    9.20
  -4  15  -2  227.48    9.70
   4 -15  -2  221.78    9.20
  -4 -15   2  225.38    8.80
   4 -15  -2  216.78    8.30
   4  15   2  214.78    9.20
   4 -15  -2  221.68    8.60
   4  15   2  217.78    9.30
  -4  15  -2  231.38    9.50
   4  15   2  224.78    9.60
  -5  15   2  145.59    6.90
   5  15  -2  129.39    7.00
   5 -15   2  143.69    6.30
  -5  15   2  142.39    7.10
  -5 -15  -2  131.99    6.50
   5  15  -2  149.09    6.90
   5  15  -2  145.99    6.60
  -5  15   2  127.19    7.30
   5 -15  -2  147.49    6.80
   5  15   2  151.38    7.60
  -5  15  -2  138.49    7.40
   5  15   2  143.99    7.10
   5  15   2  152.88    7.10
  -5 -15   2  146.99    6.50
   5 -15  -2  138.69    6.30
   6  15  -2   32.00    3.30
  -6 -15  -2   41.10    3.20
   6  15  -2   36.50    3.70
   6 -15   2   34.00    2.70
  -6  15   2   33.90    3.70
   6  15   2   36.30    3.60
   6  15   2   41.60    3.80
  -6 -15   2   38.00    2.80
   6  15   2   41.10    3.90
  -6  15  -2   34.00    3.90
   6 -15  -2   37.40    2.70
   0  16  -2   10.60    1.00
   0  16  -2   10.70    1.40
   0 -16  -2    9.90    0.80
   0 -16  -2    9.90    1.10
   0  16   2    8.90    0.80
   0  16  -2   11.20    1.10
   0  16  -2    9.80    0.60
   0  16   2    9.10    0.70
   0 -16  -2    7.90    1.10
   0 -16   2   10.40    0.80
   0  16   2    9.30    0.60
   1  16  -2  263.67   10.20
   1  16  -2  261.07    9.60
  -1 -16  -2  270.27    9.60
   1 -16   2  263.57    9.60
  -1  16   2  265.67    9.90
  -1 -16  -2  255.17    9.90
  -1 -16  -2  276.27   10.10
  -1  16   2  274.07   10.70
   1  16  -2  279.67   10.10
  -1  16   2  270.07    9.80
   1  16  -2  253.07    9.70
  -1  16   2  273.27   10.00
  -1  16  -2  280.77   10.30
   1  16   2  265.77   10.50
   1  16   2  269.07   10.00
   1  16   2  280.17   10.20
  -1  16  -2  295.87   10.50
  -1  16  -2  269.07   10.70
  -1 -16   2  257.67    9.90
   1 -16  -2  271.47   10.50
   1 -16  -2  280.67    9.80
   2  16  -2   69.29    3.50
   2  16  -2   68.89    3.30
  -2  16   2   67.49    3.90
  -2  16   2   63.59    3.50
  -2 -16  -2   62.39    2.90
   2  16  -2   66.09    3.20
  -2  16   2   63.59    3.20
  -2 -16  -2   72.09    3.60
  -2 -16  -2   64.59    3.10
   2  16  -2   65.89    3.10
   2 -16   2   67.79    3.00
   2 -16  -2   65.89    3.50
   2  16   2   62.89    2.90
   2 -16  -2   69.09    2.90
   2  16   2   68.19    3.00
  -2  16  -2   69.69    3.50
   2  16   2   64.49    3.20
   2  16   2   68.29    3.30
   2  16   2   70.49    3.40
   2 -16  -2   64.99    2.80
  -2 -16   2   67.89    3.00
  -2  16  -2   62.99    3.70
   3  16  -2  143.39    6.00
  -3  16   2  137.09    6.10
  -3 -16  -2  142.79    6.50
   3 -16   2  139.89    5.80
  -3  16   2  139.89    6.70
   3  16  -2  148.49    6.20
   3  16  -2  146.89    6.40
  -3  16   2  125.79    6.50
  -3 -16  -2  139.49    6.00
   3  16  -2  148.99    5.90
  -3  16  -2  144.69    6.60
   3 -16  -2  147.99    6.50
   3  16   2  153.08    6.40
  -3  16  -2  141.59    6.70
   3  16   2  146.59    6.30
   3 -16  -2  145.09    5.80
   3  16   2  141.49    6.40
  -3  16  -2  154.18    7.10
   3 -16  -2  144.59    5.60
  -3 -16   2  137.59    5.80
  -4  16   2   30.70    3.20
   4  16  -2   28.50    2.60
  -4 -16  -2   32.60    2.40
   4  16  -2   35.30    2.50
  -4  16   2   31.50    2.50
   4 -16   2   31.50    2.10
  -4  16   2   32.70    3.00
   4  16  -2   30.10    2.30
   4  16   2   32.30    2.50
  -4 -16   2   28.40    2.00
  -4  16  -2   28.00    2.90
   4 -16  -2   26.90    1.90
   4  16   2   25.70    2.40
  -4  16  -2   23.40    2.60
   4 -16  -2   30.60    2.40
   4  16   2   30.40    2.40
   5  16  -2   61.19    4.00
  -5  16   2   62.59    4.30
  -5 -16  -2   61.39    3.80
   5 -16   2   58.49    3.40
   5  16  -2   53.69    4.00
  -5  16   2   58.69    3.90
   5  16  -2   64.39    3.80
  -5  16   2   73.99    4.90
   5  16   2   60.69    4.30
  -5  16  -2   54.79    4.20
   5 -16  -2   64.99    3.90
  -5  16  -2   59.99    4.00
   5  16   2   60.99    4.00
  -5 -16   2   59.29    3.50
   5  16   2   57.39    4.00
   5 -16  -2   64.89    3.40
   6 -16   2    9.30    1.60
  -6 -16  -2   12.10    2.10
   6  16  -2    8.40    1.80
   6  16  -2   11.30    2.00
  -6  16   2    6.40    1.70
  -6  16  -2   10.00    2.20
   6  16   2   11.00    2.30
  -6 -16   2   10.40    1.70
   6  16   2   11.00    2.10
   6 -16  -2   10.90    1.60
   6  16   2   10.80    2.20
   0  17   2  269.87   10.00
   0 -17   2  279.37   10.00
   0  17   2  281.47    9.70
   0  17   2  260.67    9.70
   0  17   2  263.07   10.80
   0  17  -2  273.37   10.80
   0 -17  -2  269.27    9.90
   0  17  -2  286.27   10.50
   0  17  -2  279.47    9.60
   0  17  -2  282.07   10.20
   0 -17  -2  289.87   10.10
   0 -17  -2  283.97   10.50
  -1 -17  -2   22.40    1.60
   1  17  -2   21.20    1.30
  -1 -17  -2   19.80    1.50
   1 -17   2   22.10    1.30
   1  17  -2   20.00    1.60
  -1  17   2   21.00    1.40
   1  17  -2   21.30    1.20
  -1 -17  -2   23.60    1.30
  -1  17   2   18.70    1.40
  -1  17   2   25.60    2.10
   1  17  -2   21.10    1.70
  -1  17   2   20.70    1.50
  -1  17  -2   18.70    2.00
  -1  17  -2   16.20    1.40
   1  17   2   19.80    1.30
  -1 -17   2   19.10    1.20
   1 -17  -2   17.80    1.20
   1  17   2   20.30    1.40
   1  17   2   19.90    1.90
   1 -17  -2   21.10    1.70
  -1  17  -2   18.30    1.50
  -2  17   2   15.40    1.30
  -2 -17  -2   14.60    1.70
   2  17  -2   14.40    1.50
  -2 -17  -2   14.20    1.10
   2 -17   2   14.20    1.10
  -2  17   2   13.40    1.90
  -2  17   2   14.00    1.40
   2  17  -2   14.40    1.40
  -2 -17  -2   13.00    1.10
   2  17  -2   15.80    1.50
   2  17  -2   15.40    1.50
   2  17   2   13.10    1.00
   2 -17  -2   12.80    1.60
  -2 -17   2   15.00    1.10
   2  17   2   13.40    1.10
  -2  17  -2   12.80    1.50
   2  17   2   12.80    1.40
   2  17   2   12.40    1.40
   2  17   2   12.00    1.30
   2 -17  -2   12.50    0.90
   2 -17  -2   11.50    1.00
  -2  17  -2   16.80    2.00
  -2  17  -2   13.70    1.80
  -3  17   2    1.30    0.70
   3  17  -2    0.00    0.40
   3  17  -2    1.40    0.70
  -3 -17  -2    1.10    0.50
  -3  17   2    1.10    0.80
  -3  17   2    1.60    0.80
   3  17  -2    0.50    0.60
  -3 -17  -2    0.90    0.70
   3 -17   2    2.20    0.60
   3  17   2    0.90    0.60
  -3  17  -2    1.90    0.80
   3 -17  -2    1.10    0.70
  -3 -17   2    1.80    0.60
   3  17   2    1.10    0.60
  -3  17  -2    0.90    0.80
   3 -17  -2    2.20    0.60
   3 -17  -2    2.50    0.50
  -3  17  -2    0.90    0.80
   3  17   2    1.70    0.70
   4  17  -2   49.30    3.40
   4  17  -2   50.59    3.30
  -4  17   2   51.59    3.80
  -4  17   2   54.09    3.40
  -4 -17  -2   54.99    3.20
   4  17  -2   52.69    3.20
   4 -17   2   54.79    2.90
  -4  17   2   43.20    3.50
   4 -17  -2   54.49    2.90
   4  17   2   58.49    3.60
  -4  17  -2   51.79    3.60
   4 -17  -2   49.80    3.30
  -4 -17   2   55.59    3.00
   4  17   2   50.79    3.40
   4  17   2   54.89    3.40
  -4  17  -2   52.29    3.70
   5  17  -2   72.49    4.40
   5  17  -2   73.39    4.20
  -5  17   2   66.89    5.00
   5 -17   2   71.79    3.90
   5  17  -2   74.29    4.70
  -5  17   2   71.59    4.40
  -5 -17  -2   80.79    4.40
  -5  17   2   76.19    4.90
   5  17   2   73.99    4.40
   5 -17  -2   73.59    3.80
  -5  17  -2   73.89    4.40
  -5 -17   2   70.99    3.90
  -5  17  -2   77.09    4.90
   5 -17  -2   69.39    4.20
   5  17   2   69.99    4.50
   5  17   2   71.29    4.70
   6  17  -2   88.09    5.30
  -6  17   2  100.49    5.90
   6 -17   2  109.19    5.30
   6  17  -2   99.79    6.30
  -6 -17  -2  100.49    5.60
   6  17  -2   96.39    5.70
   6 -17  -2  115.49    5.40
   6  17   2  112.29    6.10
  -6  17  -2   99.79    6.40
   6  17   2  101.19    6.00
  -6 -17   2   98.39    5.30
   6  17   2  103.79    6.40
   0  18  -2   35.40    1.50
   0 -18   2   34.00    1.80
   0  18  -2   35.30    2.10
   0 -18  -2   36.70    1.70
   0  18   2   32.70    1.50
   0  18   2   31.30    1.60
   0 -18  -2   34.60    2.20
   0  18   2   30.80    2.30
   0  18   2   35.00    1.80
   0  18  -2   34.60    1.90
   0  18  -2   33.10    2.40
   0 -18  -2   37.80    2.00
  -1  18   2  186.08    7.20
   1  18  -2  182.88    6.80
  -1 -18  -2  189.58    6.90
  -1 -18  -2  178.48    7.30
  -1 -18  -2  187.18    7.30
  -1  18   2  183.68    7.10
   1  18  -2  184.58    7.50
   1  18  -2  179.48    7.40
   1  18  -2  186.68    7.00
  -1  18   2  181.78    7.90
  -1  18   2  181.98    7.10
   1 -18   2  184.68    6.90
   1 -18  -2  180.68    6.70
   1  18   2  189.08    7.00
   1  18   2  177.08    7.50
  -1  18  -2  178.68    7.20
   1 -18  -2  184.48    7.50
  -1  18  -2  182.68    7.80
  -1  18  -2  167.68    7.30
  -1 -18   2  185.58    6.80
   1  18   2  182.38    7.10
  -2  18   2  223.58    8.70
   2  18  -2  228.78    8.60
  -2 -18  -2  225.58    9.10
  -2  18   2  220.78    9.60
   2 -18   2  227.58    8.40
  -2  18   2  227.18    9.10
   2  18  -2  227.88    9.00
   2  18  -2  210.48    8.70
  -2 -18  -2  224.88    8.50
  -2 -18  -2  236.58    8.50
   2  18  -2  223.78    8.70
   2  18   2  235.28    9.10
  -2  18  -2  215.88    9.10
  -2  18  -2  225.18    9.60
   2 -18  -2  227.48    8.50
   2 -18  -2  231.58    8.30
   2 -18  -2  227.48    9.30
  -2  18  -2  228.98    9.40
   2  18   2  242.08    9.00
  -2 -18   2  232.18    8.60
   2  18   2  241.98    8.90
   2  18   2  226.88    8.50
   2  18   2  221.58    8.40
  -3 -18  -2    9.90    1.30
  -3 -18  -2    8.80    1.50
   3  18  -2    6.40    1.20
   3 -18   2    8.70    1.20
   3  18  -2    7.40    1.20
   3  18  -2   10.80    1.60
  -3  18   2    7.70    1.60
  -3  18   2    7.20    1.20
  -3  18   2    7.50    1.50
  -3  18  -2    7.10    1.40
   3  18   2    8.70    1.30
  -3  18  -2    7.60    1.50
   3  18   2    9.00    1.40
  -3 -18   2    7.80    1.00
  -3  18  -2    7.80    1.60
   3 -18  -2    7.00    0.90
   3  18   2    5.00    1.10
   3 -18  -2    6.80    1.30
   4  18  -2  112.39    6.00
  -4  18   2  114.19    5.80
   4 -18   2  119.89    5.30
  -4 -18  -2  123.89    5.60
  -4  18   2  109.19    6.30
   4  18  -2  123.39    5.80
   4  18  -2  119.89    5.60
  -4  18   2  126.19    6.50
   4 -18  -2  122.09    5.80
   4  18   2  114.59    5.80
  -4  18  -2  121.29    6.00
  -4 -18   2  110.39    5.10
   4  18   2  113.59    5.70
   4 -18  -2  113.39    5.00
  -4  18  -2  116.09    6.10
   4  18   2  116.19    5.70
  -5  18   2    8.70    2.00
  -5 -18  -2    6.20    1.40
  -5  18   2    4.40    1.40
   5  18  -2    6.00    1.50
   5  18  -2    6.60    1.60
   5 -18   2    6.20    1.20
  -5  18   2    6.10    1.80
   5  18  -2    7.10    1.50
  -5  18  -2    7.90    1.80
  -5  18  -2    9.70    1.80
   5  18   2    7.60    1.70
  -5 -18   2    7.30    1.30
   5 -18  -2    6.10    1.20
   5  18   2    8.70    1.80
   5 -18  -2    6.20    1.40
   5  18   2    7.60    1.60
   6 -18   2   20.80    2.30
  -6 -18  -2   20.90    2.60
   6  18  -2   23.10    3.10
  -6  18   2   22.60    3.00
   6  18  -2   24.80    2.90
   6  18  -2   21.50    2.80
   6 -18  -2   20.30    2.20
  -6  18  -2   22.60    3.40
   6  18   2   21.00    2.90
   6  18   2   29.50    3.40
   6  18   2   22.80    3.20
  -6 -18   2   24.20    2.60
   0  19   2  355.16   12.90
   0  19   2  364.16   13.20
   0 -19   2  374.26   13.20
   0  19  -2  380.36   13.70
   0 -19  -2  364.46   13.30
   0 -19  -2  364.46   13.10
   0  19  -2  368.26   14.10
   0 -19  -2  356.26   13.70
   0  19  -2  370.46   13.40
   0  19   2  385.46   12.90
   0  19   2  378.86   14.20
   1  19  -2   24.50    1.80
   1  19  -2   21.20    1.40
  -1  19   2   21.00    1.40
   1  19  -2   21.90    1.90
   1  19  -2   20.40    1.20
  -1 -19  -2   19.40    1.60
  -1 -19  -2   22.30    1.60
  -1  19   2   22.80    2.50
  -1  19   2   22.10    1.50
  -1  19   2   20.30    1.60
  -1 -19  -2   21.80    1.30
   1  19   2   19.00    1.40
   1  19   2   18.90    2.00
   1 -19  -2   21.10    1.80
   1 -19  -2   21.90    1.30
  -1  19  -2   18.70    1.60
  -1  19  -2   17.30    2.00
   1  19   2   22.50    1.50
   1  19   2   19.40    0.80
  -1 -19   2   20.00    1.30
   1  19   2   18.70    0.80
  -1  19  -2   18.20    1.50
  -2  19   2  158.08    7.10
   2  19  -2  170.18    6.60
  -2 -19  -2  168.48    7.20
  -2 -19  -2  170.38    6.60
   2  19  -2  167.28    6.80
   2  19  -2  165.68    7.00
   2  19  -2  169.18    6.90
  -2  19   2  168.48    6.90
  -2 -19  -2  172.28    6.60
  -2  19   2  177.68    7.90
   2 -19   2  167.58    6.60
   2 -19  -2  166.98    7.30
   2 -19  -2  171.68    6.50
   2  19   2  168.98    6.50
   2  19   2  176.68    6.90
   2 -19  -2  171.48    6.30
   2  19   2  156.88    6.30
  -2  19  -2  172.58    7.50
  -2  19  -2  167.98    7.20
   2  19   2  172.28    7.00
  -2 -19   2  171.68    6.60
   2  19   2  174.58    7.00
  -2  19  -2  164.78    7.60
  -3  19   2  116.79    6.10
   3  19  -2  119.19    5.30
   3  19  -2  111.39    5.10
  -3 -19  -2  113.59    5.00
  -3 -19  -2  116.39    5.60
  -3  19   2  113.29    5.70
  -3  19   2  115.09    5.30
   3  19  -2  105.49    5.40
   3 -19   2  111.09    4.80
  -3  19  -2  114.29    5.60
   3  19   2  106.89    5.20
  -3  19  -2  110.39    5.90
  -3 -19   2  110.19    4.80
   3 -19  -2  111.79    4.70
   3  19   2  105.59    5.00
   3 -19  -2  120.29    5.60
  -3  19  -2  119.69    5.90
   3  19   2  120.29    5.50
  -4  19   2   40.40    3.00
  -4 -19  -2   40.70    2.70
  -4  19   2   42.10    3.50
   4  19  -2   41.80    3.20
   4  19  -2   44.40    3.10
   4  19  -2   42.50    2.90
  -4  19   2   55.19    3.90
   4 -19   2   46.50    2.70
  -4  19  -2   46.50    3.40
   4 -19  -2   45.10    3.10
   4  19   2   44.50    3.20
   4  19   2   44.90    3.10
  -4  19  -2   35.40    3.10
   4  19   2   46.50    3.10
  -4 -19   2   40.10    2.50
   4 -19  -2   47.40    2.60
   5  19  -2   14.70    2.10
  -5 -19  -2   15.20    2.00
   5  19  -2   17.60    2.40
   5  19  -2   17.30    2.60
  -5  19   2   17.10    2.60
   5 -19   2   15.50    1.80
  -5  19   2   17.90    2.50
  -5  19   2   21.10    3.20
  -5 -19   2   16.10    1.80
  -5  19  -2   14.50    2.20
   5  19   2   13.90    2.10
  -5  19  -2   18.00    2.70
   5  19   2   15.20    2.40
   5 -19  -2   15.00    2.10
   5  19   2   17.20    2.50
   5 -19  -2   16.40    1.80
   6  19  -2   81.09    5.50
  -6 -19  -2   82.59    4.80
   6  19  -2   90.19    5.40
  -6  19   2   86.69    5.40
   6  19  -2   79.89    4.90
   6 -19   2   75.09    4.40
   6 -19  -2   71.59    4.10
   6  19   2   75.09    5.10
   6  19   2   85.99    5.50
  -6  19  -2   77.59    5.50
  -6 -19   2   79.89    4.40
   6  19   2   75.59    5.00
   0  20   2   31.10    1.70
   0  20  -2   30.60    2.30
   0  20   2   29.70    1.50
   0 -20  -2   29.70    1.60
   0  20  -2   29.70    2.00
   0 -20   2   29.00    1.70
   0  20   2   30.90    2.40
   0  20   2   28.90    1.40
   0 -20  -2   30.20    2.10
   0 -20  -2   23.70    1.70
   0  20  -2   31.70    1.90
   1  20  -2  333.67   11.80
   1  20  -2  328.97   12.10
   1  20  -2  320.97   12.70
  -1  20   2  355.46   12.30
  -1 -20  -2  329.17   12.40
   1  20  -2  343.97   12.60
  -1 -20  -2  336.97   12.40
  -1  20   2  318.57   12.20
  -1  20   2  329.37   13.20
  -1 -20  -2  325.97   12.00
   1 -20  -2  323.57   11.60
   1  20   2  279.07   11.10
   1  20   2  340.07   11.10
   1 -20  -2  326.77   12.50
   1  20   2  323.57   12.00
   1  20   2  332.97   12.60
  -1  20  -2  329.77   12.40
  -1 -20   2  324.07   11.80
  -1  20  -2  341.47   12.90
  -1  20  -2  337.47   12.30
   1  20   2  332.37   11.90
  -2 -20  -2  348.57   13.40
  -2  20   2  353.46   14.10
  -2  20   2  352.56   13.40
  -2  20   2  363.26   13.20
  -2 -20  -2  368.96   12.90
   2  20  -2  345.67   13.10
  -2 -20  -2  348.67   12.80
   2  20  -2  351.56   12.80
   2  20  -2  343.27   13.10
   2  20  -2  343.07   13.30
   2 -20   2  350.86   12.80
   2 -20  -2  362.06   13.20
   2  20   2  362.76   13.70
   2 -20  -2  366.86   14.10
   2  20   2  388.36   13.80
  -2  20  -2  360.06   13.90
  -2 -20   2  366.96   13.30
   2  20   2  341.87   13.00
   2  20   2  366.96   13.10
   2  20   2  397.26   13.70
  -2  20  -2  360.86   14.50
  -2  20  -2  375.86   14.30
   3  20  -2   17.00    1.80
  -3  20   2   18.40    2.50
   3  20  -2   14.30    1.60
  -3  20   2   17.60    2.00
  -3 -20  -2   15.30    1.60
  -3  20   2   12.40    1.90
   3 -20   2   16.80    1.40
   3  20  -2   17.40    2.00
   3 -20  -2   15.90    2.00
  -3  20  -2   16.10    2.30
   3  20   2   18.20    2.10
  -3 -20   2   17.90    1.40
  -3  20  -2   15.80    2.00
   3  20   2   16.90    2.00
   3  20   2   16.60    1.50
   3 -20  -2   19.30    1.40
  -3  20  -2   20.70    2.20
  -4  20   2  131.99    7.10
   4 -20   2  139.89    5.90
  -4  20   2  132.39    7.10
   4  20  -2  136.89    6.50
  -4 -20  -2  136.69    6.10
  -4  20   2  138.79    6.50
   4  20  -2  129.09    6.10
   4  20  -2  132.39    6.60
  -4 -20   2  133.39    5.90
   4  20   2  133.09    6.60
  -4  20  -2  132.39    6.90
   4  20   2  141.69    6.50
   4 -20  -2  137.09    5.80
   4  20   2  137.99    6.50
   4 -20  -2  138.79    6.60
  -4  20  -2  138.19    6.90
   5 -20   2   90.79    4.60
  -5  20   2   84.99    5.20
   5  20  -2   85.19    5.40
  -5  20   2   91.59    6.00
   5  20  -2   94.19    5.00
   5  20  -2   96.29    5.40
  -5  20   2   95.59    5.80
  -5 -20  -2   92.69    4.90
  -5  20  -2   91.89    5.70
   5 -20  -2   96.79    4.60
   5  20   2   95.59    5.50
   5  20   2   90.39    5.30
   5  20   2   92.59    5.40
  -5 -20   2   89.19    4.60
  -5  20  -2   93.39    5.40
   5 -20  -2   90.49    5.10
  -6  20   2    1.20    1.20
   6  20  -2    3.70    1.30
   6  20  -2    3.90    1.40
  -6 -20  -2    3.90    1.20
   6  20  -2    4.10    1.50
   6 -20   2    2.60    1.00
   6  20   2    3.90    1.60
   6  20   2    4.40    1.60
   6 -20  -2    4.30    1.20
   6  20   2    3.50    1.40
  -6 -20   2    4.10    1.20
  -6  20  -2    3.80    1.70
   0  21  -2  203.08    7.90
   0 -21   2  188.68    7.40
   0  21   2  190.88    7.10
   0 -21  -2  191.88    7.30
   0  21   2  190.98    7.10
   0  21  -2  193.68    8.30
   0 -21  -2  195.38    7.50
   0  21  -2  199.48    7.70
   0  21   2  202.28    7.50
   0  21   2  193.98    8.40
   0 -21  -2  192.08    7.90
  -1 -21  -2   98.39    4.40
   1  21  -2   93.79    4.50
  -1  21   2   91.19    4.20
  -1 -21  -2   91.19    4.30
   1  21  -2   94.29    3.80
  -1  21   2   95.69    4.20
   1  21  -2   98.29    4.20
  -1 -21  -2   93.09    4.00
   1  21  -2   93.79    4.70
  -1  21   2   99.89    5.20
  -1  21  -2   98.69    4.50
   1  21   2   93.69    4.70
   1 -21  -2   99.39    4.70
   1  21   2   94.99    4.20
  -1 -21   2   87.19    3.90
   1  21   2   87.79    3.40
   1 -21  -2   94.39    3.90
   1  21   2   98.29    3.40
   1  21   2   95.39    4.00
   1  21   2   86.49    4.10
  -1  21  -2  104.09    4.70
  -1  21  -2   96.59    5.00
   2  21  -2  162.98    6.30
  -2 -21  -2  153.88    6.20
  -2 -21  -2  163.48    6.30
  -2 -21  -2  154.28    6.80
   2  21  -2  152.78    6.20
   2  21  -2  150.98    6.70
   2  21  -2  155.48    6.50
  -2  21   2  149.59    6.80
  -2  21   2  154.78    7.50
  -2  21   2  160.78    6.60
   2 -21   2  153.18    6.20
   2  21  -2  158.18    6.60
   2  21   2  145.49    5.80
   2  21   2  157.88    5.80
   2  21   2  149.29    6.40
   2 -21  -2  149.29    5.90
  -2  21  -2  160.18    7.20
   2  21   2  148.69    6.50
   2  21   2  141.99    6.40
  -2  21  -2  155.68    7.00
  -2 -21   2  158.58    6.10
   2 -21  -2  143.59    6.70
  -2  21  -2  153.28    6.70
   3 -21   2   37.30    2.20
  -3  21   2   35.80    2.60
  -3  21   2   41.80    3.10
  -3 -21  -2   36.80    2.30
   3  21  -2   39.50    2.40
   3  21  -2   36.00    2.60
  -3  21   2   39.20    3.30
   3  21  -2   33.10    2.50
   3 -21  -2   32.80    2.00
  -3  21  -2   38.20    3.10
   3  21   2   37.30    2.70
   3  21   2   36.60    2.60
   3  21   2   37.00    2.30
  -3 -21   2   34.70    2.10
  -3  21  -2   29.50    2.60
   3 -21  -2   39.20    2.80
  -3  21  -2   34.80    3.00
   4 -21   2  124.89    5.70
   4  21  -2  129.09    6.30
  -4  21   2  122.49    6.90
   4  21  -2  127.99    6.40
   4  21  -2  144.49    6.20
  -4  21   2  123.39    6.90
  -4  21   2  133.69    6.40
  -4 -21  -2  128.79    5.90
   4 -21  -2  124.09    5.50
   4  21   2  131.59    6.10
  -4  21  -2  125.69    6.60
   4 -21  -2  129.59    6.30
  -4  21  -2  132.19    6.70
   4  21   2  119.69    6.10
   4  21   2  130.29    6.30
  -4 -21   2  116.49    5.50
   5  21  -2   45.30    3.60
   5  21  -2   49.80    3.80
  -5  21   2   43.50    4.10
  -5  21   2   53.79    4.30
   5  21  -2   49.20    3.40
  -5  21   2   48.40    3.70
   5 -21   2   53.49    3.20
  -5 -21  -2   48.70    3.30
   5  21   2   51.09    3.70
  -5  21  -2   45.90    3.70
   5  21   2   48.10    3.70
   5 -21  -2   54.69    3.70
  -5 -21   2   49.50    3.10
   5 -21  -2   52.79    3.10
   5  21   2   49.30    3.70
  -5  21  -2   52.29    4.10
   6  21  -2   42.00    3.50
  -6 -21  -2   58.19    3.80
   6  21  -2   55.69    4.20
   6 -21   2   47.00    3.30
   6  21  -2   54.99    4.40
   6  21   2   64.19    4.60
  -6  21  -2   52.69    4.50
   6 -21  -2   47.20    3.30
   6  21   2   56.39    4.30
  -6 -21   2   54.99    3.50
   6  21   2   54.09    4.20
   0  22   2   33.80    1.90
   0  22   2   33.40    1.70
   0  22   2   31.10    1.60
   0 -22  -2   34.00    2.30
   0  22   2   31.80    1.80
   0  22  -2   30.80    2.00
   0 -22  -2   31.20    1.80
   0  22  -2   33.20    2.20
   0 -22   2   36.80    2.00
   0  22   2   32.60    2.60
   0  22  -2   30.90    2.40
   0 -22  -2   29.60    1.90
  -1  22   2   69.99    3.50
   1  22  -2   78.79    3.60
   1  22  -2   77.99    3.90
  -1 -22  -2   87.69    3.90
  -1 -22  -2   79.29    3.40
   1  22  -2   73.09    4.00
  -1  22   2   77.09    3.60
  -1  22   2   71.79    4.40
  -1 -22  -2   70.89    3.70
  -1 -22   2   70.89    3.20
   1 -22  -2   66.19    3.70
  -1  22  -2   69.99    3.80
  -1  22  -2   76.89    4.20
   1  22   2   65.69    2.60
   1  22   2   73.39    3.40
  -1  22  -2   71.99    3.60
   1  22   2   61.09    3.70
   1  22   2   73.99    2.60
   1  22   2   71.09    3.30
   1  22   2   69.99    3.40
   2  22  -2  259.57    9.70
  -2 -22  -2  261.57    9.80
   2 -22   2  261.67    9.70
   2  22  -2  269.67   10.20
  -2 -22  -2  268.67   11.10
  -2  22   2  259.47   10.10
  -2 -22  -2  261.87   10.40
  -2  22   2  263.47   10.40
   2  22  -2  238.98   10.20
  -2  22   2  261.97   11.20
   2  22  -2  262.77    9.80
   2  22  -2  250.67   10.10
   2  22   2  259.17   10.10
   2  22   2  254.27    9.30
  -2  22  -2  257.37   10.40
   2  22   2  260.37   10.00
   2 -22  -2  257.57    9.50
  -2 -22   2  262.27    9.70
   2  22   2  253.07   12.00
   2 -22  -2  257.77   10.40
   2  22   2  251.17    9.40
  -2  22  -2  255.57   10.60
  -2  22  -2  254.47   10.80
   3 -22   2   15.10    1.50
   3  22  -2   12.70    1.70
  -3  22   2   12.60    2.10
   3  22  -2   12.10    1.50
  -3  22   2   15.60    2.20
   3  22  -2   15.40    1.90
  -3 -22  -2   11.20    1.40
  -3  22   2   16.10    1.90
   3  22   2   13.40    1.30
   3  22   2    8.70    1.50
   3 -22  -2   13.60    1.80
  -3  22  -2   14.30    2.30
  -3  22  -2   14.80    2.00
   3 -22  -2   14.20    1.40
  -3  22  -2   14.40    2.30
  -3 -22   2   12.90    1.40
   3  22   2   16.00    1.90
   4  22  -2  189.08    8.50
   4  22  -2  192.78    8.80
  -4 -22  -2  195.68    8.40
   4  22  -2  222.08    9.20
  -4  22   2  223.08    9.90
  -4  22   2  205.48    9.80
   4 -22   2  202.28    8.30
  -4  22   2  198.18    8.90
   4  22   2  218.68    9.10
   4  22   2  189.18    8.90
   4  22   2  202.18    8.80
   4 -22  -2  205.68    8.20
   4 -22  -2  217.58    9.20
  -4 -22   2  202.98    8.30
  -4  22  -2  205.48    9.50
  -4  22  -2  205.68    9.50
  -5  22   2    2.90    1.50
  -5 -22  -2    2.50    1.00
   5  22  -2    3.00    1.10
   5  22  -2    3.30    1.30
   5  22  -2    2.40    1.10
  -5  22   2    2.40    1.40
   5 -22   2    2.60    1.00
  -5  22   2    2.70    1.20
   5 -22  -2    3.30    1.20
   5  22   2    1.00    1.00
  -5  22  -2    3.20    1.40
   5  22   2    3.50    1.30
   5  22   2    2.90    1.20
   5 -22  -2    3.40    1.00
  -5 -22   2    2.00    0.90
  -5  22  -2    4.60    1.70
   6 -22   2   11.00    1.80
   6  22  -2    8.40    2.00
   6 -22  -2   12.20    1.70
   6  22   2    6.60    1.80
   0  23   2  399.26   14.10
   0  23   2  406.66   13.70
   0 -23   2  395.96   14.10
   0  23   2  388.76   14.00
   0 -23  -2  385.36   13.90
   0  23  -2  380.76   14.50
   0 -23  -2  383.96   14.10
   0  23   2  360.86   13.60
   0  23  -2  398.26   15.10
   0 -23  -2  375.06   14.60
   0  23  -2  394.56   14.30
   0  23   2  398.06   15.20
  -1  23   2   61.99    3.20
  -1  23   2   55.69    3.90
  -1 -23  -2   66.39    3.00
  -1 -23  -2   66.79    3.50
   1  23  -2   65.09    3.80
   1  23  -2   67.69    3.50
  -1  23   2   68.89    3.30
  -1 -23  -2   68.89    3.50
   1  23  -2   62.99    3.20
   1  23   2   66.69    3.20
  -1  23  -2   60.29    3.40
   1  23   2   59.59    2.40
  -1  23  -2   60.69    3.50
  -1  23  -2   63.69    3.90
  -1 -23   2   65.69    3.00
   1  23   2   64.89    2.40
   1  23   2   66.19    3.20
   1  23   2   67.89    3.10
   1 -23  -2   63.39    3.60
   1  23   2   61.59    3.70
   2  23  -2    2.50    0.60
   2  23  -2    4.10    0.90
  -2 -23  -2    1.80    0.90
   2  23  -2    3.50    0.70
  -2  23   2    2.80    0.80
   2  23  -2    2.20    0.80
   2 -23   2    3.10    0.70
  -2  23   2    2.10    1.10
  -2  23   2    3.80    1.00
  -2 -23  -2    3.30    0.70
   2  23  -2    1.60    0.80
  -2  23  -2    2.10    0.80
  -2  23  -2    2.10    1.00
   2 -23  -2    2.00    0.50
  -2 -23   2    3.20    0.70
   2  23   2    2.80    0.60
  -2  23  -2    3.60    1.10
   2 -23  -2    3.50    1.00
   2  23   2    4.00    0.90
   2  23   2    3.40    0.90
   3  23  -2    3.60    1.00
  -3  23   2    3.80    1.20
   3  23  -2    3.50    1.00
  -3  23   2    6.00    1.70
  -3 -23  -2    4.50    0.90
   3  23  -2    4.40    1.10
   3 -23   2    3.80    0.80
  -3  23   2    5.60    1.20
   3  23   2    3.10    1.10
  -3  23  -2    2.60    1.00
   3  23   2    5.50    1.20
  -3  23  -2    3.30    1.20
  -3 -23   2    2.90    0.70
   3 -23  -2    4.30    1.20
   3  23   2    4.00    0.90
  -3  23  -2    3.40    1.30
   3 -23  -2    3.00    0.70
   4 -23   2   26.90    2.00
  -4  23   2   27.30    2.90
   4  23  -2   27.30    2.80
   4  23  -2   28.40    2.70
  -4  23   2   26.40    3.30
  -4 -23  -2   22.40    2.30
   4  23  -2   25.80    2.50
  -4  23   2   30.10    3.00
  -4  23  -2   23.80    2.90
  -4  23  -2   27.50    3.20
   4 -23  -2   23.90    1.90
   4  23   2   22.70    2.70
   4  23   2   26.60    2.80
   4  23   2   26.10    2.30
   4 -23  -2   29.00    3.00
  -4 -23   2   24.60    1.90
  -5  23   2   32.30    3.50
  -5  23   2   30.60    3.70
   5  23  -2   24.90    2.80
   5 -23   2   27.60    2.30
  -5 -23  -2   28.80    2.50
   5  23  -2   31.60    3.40
  -5  23   2   30.20    3.30
   5  23  -2   31.50    3.00
   5  23   2   28.50    3.20
  -5  23  -2   27.60    3.40
   5  23   2   24.10    2.60
   5 -23  -2   21.20    2.70
   5 -23  -2   26.20    2.10
  -5  23  -2   31.20    3.50
  -5 -23   2   27.40    2.20
   5  23   2   27.10    3.20
   0  24   2  198.98    8.10
   0 -24  -2  226.48    8.40
   0 -24   2  228.58    8.60
   0  24  -2  213.78    9.40
   0  24  -2  233.18    9.10
   0  24   2  233.18    8.70
   0  24   2  230.48    8.20
   0  24   2  224.48    9.60
   0  24  -2  222.88    8.80
   0 -24  -2  225.48    9.10
   1  24  -2   23.00    1.70
  -1  24   2   20.80    2.60
  -1 -24  -2   26.90    2.00
  -1 -24  -2   21.70    1.80
  -1 -24  -2   24.30    1.60
  -1  24   2   22.20    1.70
  -1  24   2   25.20    1.80
   1  24  -2   22.80    2.50
   1  24  -2   26.20    2.00
   1  24   2   20.00    1.10
   1  24   2   20.10    1.70
   1  24   2   23.20    2.50
   1  24   2   20.70    1.50
  -1  24  -2   22.90    2.00
  -1  24  -2   19.80    2.50
  -1 -24   2   22.00    1.50
   1 -24  -2   17.80    2.10
  -1  24  -2   23.90    1.90
   1  24   2   24.40    1.70
   1  24   2   24.00    1.10
   2 -24   2  107.29    4.60
   2  24  -2  104.49    4.60
   2  24  -2  108.19    5.10
   2  24  -2  103.99    5.00
   2  24  -2  104.19    4.90
   2  24  -2   99.89    4.70
  -2 -24  -2  100.89    4.50
  -2  24   2  114.39    6.00
  -2  24   2  101.09    4.90
  -2 -24  -2  101.49    5.10
  -2  24   2  106.99    5.20
   2 -24  -2  108.39    5.30
  -2  24  -2   95.49    5.30
   2 -24  -2  103.19    4.40
  -2  24  -2  105.39    5.20
   2  24   2  104.39    4.10
   2  24   2   92.79    4.70
  -2 -24   2  101.99    4.50
   2  24   2  105.39    4.90
  -2  24  -2   99.29    5.60
  -3  24   2  104.29    5.70
  -3  24   2  112.19    5.40
   3  24  -2  108.39    5.30
   3  24  -2  101.69    5.30
   3  24  -2  108.29    5.00
   3 -24   2  110.19    4.90
  -3  24   2  112.19    6.30
  -3 -24  -2  109.59    4.90
  -3  24  -2  100.39    5.90
   3  24   2  109.79    4.90
   3  24   2  105.09    5.40
  -3  24  -2  117.09    6.30
   3  24   2  106.79    5.50
  -3 -24   2  113.89    4.90
  -3  24  -2  112.29    5.80
   3 -24  -2  114.69    4.80
   3 -24  -2  114.59    5.80
   4  24  -2   47.90    3.40
  -4  24   2   42.20    3.70
   4  24  -2   45.90    3.00
  -4  24   2   42.60    3.30
   4 -24   2   42.90    2.70
  -4 -24  -2   46.50    2.90
   4  24  -2   43.10    3.30
  -4  24   2   58.79    4.30
   4  24   2   47.70    3.40
  -4  24  -2   44.40    3.70
   4  24   2   45.50    3.00
  -4  24  -2   66.19    8.30
  -4  24  -2   43.80    3.60
   4  24   2   39.20    3.10
   4 -24  -2   42.70    2.60
   4 -24  -2   45.30    3.40
  -4 -24   2   42.20    2.70
  -5  24   2   16.50    2.90
  -5  24   2   18.50    3.00
   5 -24   2   16.70    1.90
   5  24  -2   14.00    2.10
   5  24  -2   14.50    2.40
  -5  24   2   15.90    2.40
   5  24  -2   17.50    2.50
  -5 -24  -2   16.90    2.20
   5 -24  -2   11.20    1.60
  -5 -24   2   15.00    1.90
   5  24   2   15.50    2.20
  -5  24  -2   14.20    2.40
   5  24   2   13.80    2.20
  -5  24  -2   16.40    2.70
   5  24   2   11.40    2.10
   0  25  -2  240.08   10.00
   0  25   2  240.68    8.70
   0  25  -2  235.38    9.30
   0 -25   2  234.28    9.00
   0  25   2  245.38    9.10
   0 -25  -2  230.38    9.60
   0  25   2  229.18   10.10
   0 -25  -2  241.78    8.90
   0  25  -2  219.18    9.40
   1  25  -2  246.88    9.80
  -1  25   2  243.88    9.60
  -1 -25  -2  250.27    9.30
  -1 -25  -2  234.88    9.70
  -1  25   2  244.48   10.70
  -1  25   2  259.67    9.60
   1  25  -2  239.88   10.10
   1  25  -2  241.08    9.50
  -1 -25  -2  241.08    9.70
  -1  25  -2  248.58   10.30
   1  25   2  237.08    8.30
  -1  25  -2  241.58    9.50
  -1  25  -2  228.68    9.70
  -1 -25   2  247.28    9.00
   1  25   2  229.58    9.20
   1  25   2  220.88    8.30
   1  25   2  239.28    9.10
   1 -25  -2  236.58    9.80
   1  25   2  242.88   10.00
   1  25   2  230.98    9.20
   2  25  -2   85.49    4.40
   2 -25   2   92.39    4.10
  -2  25   2   90.29    4.50
   2  25  -2   83.09    4.10
   2  25  -2   91.39    4.60
  -2  25   2   93.89    5.50
   2  25  -2   96.09    4.50
  -2 -25  -2   86.89    4.10
  -2 -25  -2   85.09    4.60
  -2  25   2   92.79    4.70
  -2  25  -2   92.89    5.40
  -2  25  -2   93.99    4.90
   2 -25  -2   95.99    5.00
   2  25   2   97.69    4.60
   2  25   2   87.09    4.50
  -2  25  -2   89.69    5.10
   2  25   2   91.39    3.70
  -2 -25   2   92.89    4.20
  -3 -25  -2    0.40    0.50
   3 -25   2   -0.30    0.50
   3  25  -2    0.30    0.50
   3  25  -2    0.50    0.70
  -3  25   2    0.60    0.60
   3  25  -2    0.60    0.60
  -3  25   2    0.70    0.80
  -3  25   2   -0.20    0.90
   3  25   2    1.10    0.80
  -3  25  -2    1.00    0.70
   3  25   2    0.30    0.60
   3 -25  -2    0.20    0.80
   3 -25  -2    0.20    0.40
  -3 -25   2    1.10    0.60
   3  25   2    0.30    0.50
  -3  25  -2    1.10    1.00
  -3  25  -2    0.20    1.00
  -4  25   2   58.59    4.50
   4  25  -2   65.99    3.80
  -4 -25  -2   60.69    3.50
  -4  25   2   66.89    4.20
   4  25  -2   63.59    4.10
   4  25  -2   66.89    4.20
  -4  25   2   72.59    5.00
   4 -25   2   65.29    3.50
   4 -25  -2   60.69    4.20
  -4  25  -2   69.29    4.60
   4  25   2   65.09    3.70
  -4  25  -2   77.99    7.50
   4  25   2   65.09    4.20
   4  25   2   66.19    4.20
  -4  25  -2   60.29    4.50
  -4 -25   2   62.59    3.50
   4 -25  -2   66.89    3.40
   5  25  -2   70.59    4.60
   5  25  -2   68.59    4.20
  -5  25   2   58.19    4.90
  -5  25   2   63.19    4.50
  -5 -25  -2   59.89    3.80
   5  25  -2   68.39    4.60
  -5  25   2   55.19    4.90
   5 -25   2   68.09    3.80
   5  25   2   62.19    4.20
  -5  25  -2   68.59    4.80
   5  25   2   61.79    4.40
   5 -25  -2   69.19    3.70
   5  25   2   67.89    4.50
  -5  25  -2   66.19    4.90
  -5 -25   2   65.99    3.70
   0  26  -2   99.89    4.80
   0  26  -2  116.39    5.10
   0 -26  -2   95.09    5.00
   0  26   2   94.19    4.50
   0  26  -2  102.29    5.40
   0  26   2   99.89    4.20
   0  26   2  101.39    5.60
   0 -26  -2  103.99    4.40
   1  26  -2   56.79    3.60
  -1 -26  -2   61.09    3.30
   1  26  -2   59.69    3.10
  -1  26   2   57.99    3.10
  -1 -26  -2   58.09    2.90
   1  26  -2   55.89    3.30
  -1  26   2   60.79    4.10
  -1  26   2   60.59    3.20
  -1 -26  -2   57.99    3.30
   1  26   2   65.09    3.20
   1  26   2   66.99    4.00
   1  26   2   63.89    3.40
  -1  26  -2   61.99    3.50
   1 -26  -2   59.19    3.70
   1  26   2   61.89    2.40
  -1  26  -2   60.89    3.60
  -1 -26   2   59.89    3.00
  -1  26  -2   66.79    4.20
   1  26   2   60.09    3.20
   1  26   2   55.49    2.50
   2  26  -2  125.09    5.40
   2  26  -2  126.29    5.70
  -2 -26  -2  125.39    5.20
   2  26  -2  124.59    5.60
  -2  26   2  114.29    6.60
  -2  26   2  122.49    5.80
   2  26  -2  113.69    5.70
  -2  26   2  114.19    5.60
   2 -26   2  121.39    5.20
   2  26   2  114.39    4.50
  -2  26  -2  124.99    5.90
  -2 -26   2  115.69    5.10
   2  26   2  120.39    5.50
   2 -26  -2  120.89    6.00
  -2  26  -2  117.19    6.10
  -2  26  -2  121.39    6.40
   2  26   2  115.39    5.50
   3  26  -2  171.78    7.20
  -3 -26  -2  167.48    7.10
  -3  26   2  176.98    7.80
  -3  26   2  160.68    8.60
   3  26  -2  169.98    7.60
   3 -26   2  178.08    7.10
  -3  26   2  170.08    8.20
   3  26  -2  176.18    7.70
  -3  26  -2  182.88    8.80
   3 -26  -2  179.98    8.20
  -3  26  -2  179.28    8.30
  -3 -26   2  169.48    7.20
   3  26   2  178.38    7.90
   3  26   2  180.38    7.10
  -3  26  -2  171.28    8.70
   3 -26  -2  177.88    7.10
   3  26   2  177.68    7.90
   4  26  -2   39.80    2.90
   4  26  -2   43.60    3.30
  -4  26   2   43.70    3.40
  -4  26   2   37.30    4.20
   4 -26   2   36.70    2.60
  -4 -26  -2   42.50    2.80
  -4  26   2   44.80    3.80
   4  26  -2   42.70    3.20
   4  26   2   42.00    3.30
   4 -26  -2   41.60    2.70
   4 -26  -2   42.90    3.30
  -4  26  -2   51.89    6.30
  -4  26  -2   44.10    3.70
  -4  26  -2   43.30    4.30
   4  26   2   45.00    3.40
  -4 -26   2   43.80    2.70
   4  26   2   47.40    3.00
  -5  26   2    4.30    1.50
   5 -26   2    5.70    1.30
  -5  26   2    4.90    1.90
   5  26  -2    7.40    1.60
   5  26  -2    6.50    1.60
   5  26  -2    4.30    1.40
  -5 -26  -2    5.00    1.30
  -5  26   2    5.30    2.00
  -5 -26   2    7.50    1.40
  -5  26  -2    3.80    1.70
   5  26   2    6.90    1.60
   5  26   2    4.50    1.50
  -5  26  -2    5.10    1.70
   5 -26  -2    4.70    1.10
   5  26   2    6.10    1.70
   0  27   2   64.39    3.00
   0 -27  -2   64.19    3.80
   0  27  -2   60.29    3.60
   0  27   2   62.29    4.20
   0  27   2   69.19    3.40
   0 -27  -2   67.79    3.20
   0  27  -2   67.59    4.20
   0  27  -2   65.49    3.50
  -1 -27  -2   97.59    4.80
  -1  27   2   95.59    4.70
   1  27  -2   98.49    5.30
  -1  27   2   98.99    4.60
   1  27  -2   95.39    4.80
  -1 -27  -2  101.19    4.40
   1  27  -2   96.79    4.60
  -1  27   2  108.29    5.90
  -1  27  -2  103.99    5.10
  -1 -27   2  103.29    4.60
   1 -27  -2  103.49    5.30
  -1  27  -2  113.79    5.40
  -1  27  -2  104.59    5.70
   1  27   2  101.09    4.60
   1  27   2   99.69    5.40
   1  27   2   93.39    4.70
   1  27   2  102.09    3.90
   2  27  -2  154.68    6.80
  -2  27   2  161.48    7.30
   2  27  -2  167.28    7.20
   2  27  -2  149.69    7.20
  -2  27   2  157.28    7.10
  -2 -27  -2  160.08    6.70
  -2  27   2  177.88    8.50
   2  27  -2  180.88    7.40
  -2  27  -2  160.78    7.90
   2  27   2  156.78    6.90
   2  27   2  153.38    6.90
  -2  27  -2  172.98    7.70
   2  27   2  158.38    5.90
   2 -27  -2  153.98    7.40
  -2  27  -2  156.88    7.30
  -2 -27   2  152.68    6.50
  -3  27   2    9.50    1.70
   3 -27   2   10.40    1.40
  -3  27   2   11.40    2.00
   3  27  -2   13.40    1.60
   3  27  -2   12.10    1.80
  -3 -27  -2   12.90    1.60
   3  27  -2   12.10    1.80
  -3  27   2   13.80    2.50
   3  27   2   12.00    1.30
   3 -27  -2   11.70    1.90
  -3  27  -2   10.20    1.80
  -3 -27   2   13.60    1.60
  -3  27  -2   11.30    2.20
   3  27   2   14.80    2.00
  -3  27  -2    9.80    2.10
   3 -27  -2   14.20    1.50
   3  27   2   14.50    2.00
   4  27  -2   38.60    3.10
   4 -27   2   37.20    2.60
   4  27  -2   32.20    2.70
  -4 -27  -2   42.10    2.80
   4  27  -2   39.20    3.20
  -4  27   2   40.60    4.40
  -4  27   2   41.20    3.30
  -4  27   2   43.90    3.80
   4  27   2   39.80    3.30
  -4  27  -2   44.30    3.70
   4 -27  -2   39.00    2.50
  -4  27  -2   43.60    4.50
   4  27   2   44.10    2.80
  -4 -27   2   38.90    2.60
   4 -27  -2   42.20    3.40
   4  27   2   41.70    3.30
  -4  27  -2   38.30    4.10
  -5  27   2   92.99    6.20
  -5  27   2   85.79    6.00
  -5  27   2   79.29    5.30
   5  27  -2   88.79    5.40
  -5 -27  -2   84.69    4.60
   5  27  -2   72.99    5.00
   5 -27   2   85.79    4.40
   5  27  -2   80.59    4.70
  -5  27  -2   83.99    5.70
   5 -27  -2   85.59    4.30
  -5  27  -2   86.29    5.60
   5  27   2   81.39    5.20
  -5 -27   2   77.79    4.30
   5  27   2   76.49    5.20
   5  27   2   76.89    4.60
   0  28   2   72.29    4.60
   0 -28  -2   72.59    3.40
   0  28   2   70.19    3.20
   0  28  -2   71.89    4.00
   0  28   2   68.59    3.60
   0  28  -2   72.19    4.50
   0  28  -2   69.49    3.80
   0 -28  -2   68.59    4.00
   1  28  -2    5.40    1.10
   1  28  -2    7.30    1.20
  -1  28   2    5.50    1.10
  -1  28   2    5.70    1.70
  -1 -28  -2    6.40    1.20
  -1 -28  -2    3.60    0.80
   1  28  -2    7.80    1.60
  -1  28   2    7.10    1.20
  -1  28  -2    5.40    1.40
  -1  28  -2    6.30    1.60
  -1  28  -2    6.50    1.30
   1 -28  -2    4.40    1.20
  -1 -28   2    4.00    0.80
   1  28   2    7.10    1.20
   1  28   2    5.50    0.60
   1  28   2    3.60    0.80
   1  28   2    4.20    1.30
   2  28  -2   14.20    2.00
   2  28  -2   22.10    2.20
  -2  28   2   17.60    1.90
  -2  28   2   17.00    2.70
   2  28  -2   17.80    1.80
   2  28  -2   18.50    1.90
  -2 -28  -2   19.40    1.60
  -2  28   2   17.90    2.10
   2 -28  -2   15.90    2.20
   2  28   2   15.40    1.70
   2  28   2   17.40    2.00
  -2 -28   2   17.60    1.80
   2  28   2   16.80    2.00
  -2  28  -2   15.60    2.50
  -2  28  -2   15.50    2.10
   2  28   2   14.90    1.00
  -2  28  -2   12.60    2.10
  -3  28   2  307.47   13.00
   3  28  -2  306.87   12.50
  -3  28   2  321.37   13.80
   3 -28   2  299.57   11.70
   3  28  -2  329.07   12.50
  -3 -28  -2  310.27   11.80
   3  28  -2  290.87   11.80
  -3  28   2  292.67   12.40
   3 -28  -2  308.37   11.60
   3 -28  -2  306.07   12.80
  -3  28  -2  305.47   13.30
  -3 -28   2  312.47   11.80
   3  28   2  306.97   12.40
   3  28   2  292.17   11.30
   3  28   2  331.77   12.70
  -3  28  -2  302.67   12.90
  -3  28  -2  304.07   13.50
   4  28  -2   18.40    2.40
   4  28  -2   29.50    3.10
  -4  28   2   27.60    3.70
  -4  28   2   19.40    2.70
  -4 -28  -2   21.60    2.20
  -4  28   2   26.80    3.40
   4 -28   2   21.70    2.10
  -4  28  -2   17.20    2.70
  -4  28  -2   22.50    3.20
   4 -28  -2   23.30    1.90
   4  28   2   21.10    2.70
  -4 -28   2   22.30    1.90
   4 -28  -2   28.30    3.30
   4  28   2   24.80    2.10
   4  28   2   25.60    3.00
  -4  28  -2   24.90    3.90
  -5  28   2   22.10    3.30
   5 -28   2   21.70    2.30
  -5  28   2   14.60    3.00
  -5 -28  -2   15.70    2.10
  -5  28   2   21.80    3.40
   5  28  -2   20.60    2.90
   5  28  -2   18.90    2.40
   5  28  -2   16.90    2.60
   5  28   2   18.40    2.70
   5 -28  -2   16.90    2.00
   5  28   2   23.80    3.10
  -5  28  -2   21.00    3.30
   5  28   2   16.60    2.30
  -5 -28   2   22.20    2.20
  -5  28  -2   15.80    2.90
   0  29   2  209.58    8.70
   0  29  -2  224.68    9.00
   0  29   2  216.98    8.20
   0  29  -2  217.38    9.10
   0 -29  -2  214.18    9.20
   0 -29  -2  225.18    8.50
   0  29   2  210.58    9.80
   0  29  -2  202.78    9.60
  -1  29   2   97.29    4.80
  -1 -29  -2   93.49    4.40
  -1  29   2  101.39    5.90
   1  29  -2  100.79    4.90
   1  29  -2   92.49    4.60
  -1  29   2   96.79    4.60
   1  29  -2   93.99    5.30
  -1  29  -2   99.29    5.10
   1  29   2  100.49    4.60
   1  29   2   97.09    4.70
   1 -29  -2   94.39    5.20
  -1  29  -2  100.39    5.30
   1  29   2  101.69    5.50
  -1  29  -2  105.89    5.80
  -1 -29   2   96.09    4.50
   1  29   2   96.39    3.90
  -2  29   2    2.00    0.90
  -2  29   2    4.20    1.40
   2  29  -2    5.40    1.20
  -2  29   2    3.00    1.00
  -2 -29  -2    3.40    0.80
   2  29  -2    3.60    0.90
   2  29  -2    3.30    1.00
   2  29   2    2.70    0.90
  -2 -29   2    3.80    0.90
   2  29   2    5.60    1.00
  -2  29  -2    2.80    1.20
   2  29   2    3.80    0.60
  -2  29  -2    2.20    1.20
  -2  29  -2    6.00    1.40
   2 -29  -2    4.00    1.20
  -3  29   2   11.90    2.10
   3  29  -2   13.60    2.00
  -3  29   2   10.50    2.40
  -3  29   2   14.90    2.10
   3  29  -2   10.80    1.80
   3  29  -2   14.70    1.70
   3 -29   2   12.60    1.50
  -3 -29  -2   13.10    1.60
   3 -29  -2   14.20    2.20
   3 -29  -2   15.10    1.60
   3  29   2   18.20    2.30
  -3 -29   2   14.60    1.70
  -3  29  -2   14.30    2.60
   3  29   2   13.20    1.30
  -3  29  -2   12.00    2.10
   3  29   2   14.40    2.10
  -3  29  -2   17.50    2.80
   4 -29   2    8.60    1.40
  -4 -29  -2    5.60    1.30
  -4  29   2    5.00    1.70
  -4  29   2    8.00    1.80
   4  29  -2    5.70    1.40
   4  29  -2    4.40    1.40
  -4  29   2    7.50    2.10
  -4  29  -2    7.30    2.40
  -4  29  -2    4.10    1.60
  -4  29  -2    4.40    1.70
  -4 -29   2    6.20    1.10
   4  29   2    7.50    1.70
   4  29   2    7.20    1.60
   4 -29  -2    5.00    1.10
   4  29   2    5.60    1.10
   0 -30  -2   28.50    1.90
   0  30  -2   24.80    2.20
   0  30  -2   29.60    3.30
   0  30   2   27.50    3.10
   0  30   2   29.00    2.10
   0  30  -2   25.80    2.20
   0 -30  -2   26.40    2.70
   0  30   2   24.70    1.70
  -1  30   2   65.09    4.60
   1  30  -2   61.29    3.60
  -1 -30  -2   58.49    3.10
   1  30  -2   60.89    3.50
  -1  30   2   62.19    3.40
   1  30  -2   65.69    4.20
  -1  30   2   59.09    3.50
  -1 -30   2   59.79    3.30
  -1  30  -2   62.99    4.30
   1  30   2   63.39    4.20
   1  30   2   62.99    2.70
   1  30   2   62.49    3.40
  -1  30  -2   65.39    4.10
  -1  30  -2   63.39    3.80
   1  30   2   65.49    3.60
   1 -30  -2   57.49    3.90
  -2 -30  -2   88.09    4.20
   2  30  -2   81.89    4.60
   2  30  -2   90.99    4.50
  -2  30   2   91.59    4.80
  -2  30   2   85.49    4.80
   2  30  -2   97.59    4.90
  -2  30   2   90.29    5.90
  -2 -30   2   90.29    4.40
   2 -30  -2   95.19    5.30
  -2  30  -2   95.09    5.70
   2  30   2   91.59    4.50
   2  30   2   90.99    3.70
  -2  30  -2   90.09    5.50
   2  30   2   96.29    4.90
  -2  30  -2   99.89    5.30
   3  30  -2  116.29    6.00
   3  30  -2  126.19    5.90
   3 -30   2  114.69    5.30
  -3  30   2  102.19    5.80
  -3 -30  -2  113.39    5.30
  -3  30   2  119.89    7.10
   3  30  -2  109.19    5.40
  -3  30   2  108.39    6.20
  -3  30  -2  114.19    6.60
   3 -30  -2  104.79    5.90
  -3  30  -2  107.39    6.50
  -3 -30   2  105.79    4.90
   3  30   2  101.99    4.50
  -3  30  -2  107.79    6.00
   3  30   2  108.39    6.00
   3  30   2  102.49    5.60
  -4  30   2   40.10    4.50
   4  30  -2   33.70    3.00
  -4  30   2   37.80    3.70
  -4 -30  -2   36.80    2.70
   4 -30   2   34.70    2.50
   4  30  -2   38.50    2.70
   4  30  -2   40.90    3.30
  -4  30   2   39.90    3.40
  -4  30  -2   37.10    5.00
   4  30   2   36.20    3.60
  -4 -30   2   36.40    2.60
  -4  30  -2   36.70    4.00
  -4  30  -2   42.30    4.60
   4  30   2   34.50    2.40
   4 -30  -2   39.30    2.50
   4  30   2   33.20    3.50
   0  31   2  102.69    4.60
   0 -31  -2  102.09    4.80
   0  31   2  108.59    5.10
   0  31  -2  110.09    5.40
   0  31  -2  115.69    5.50
   0  31   2  109.99    6.20
   0  31  -2  107.19    6.00
  -1  31   2  137.09    6.20
  -1 -31  -2  128.49    5.70
   1  31  -2  131.89    6.30
   1  31  -2  127.19    6.00
  -1  31   2  130.69    7.30
  -1  31   2  124.89    5.90
   1  31  -2  145.09    6.90
   1 -31  -2  125.99    6.50
  -1 -31   2  142.89    5.90
   1  31   2  131.79    6.10
  -1  31  -2  129.59    7.10
  -1  31  -2  137.89    6.70
   1  31   2  130.39    6.80
  -1  31  -2  132.89    6.40
   1  31   2  127.49    5.90
   1  31   2  128.19    5.10
  -2  31   2   50.39    4.40
   2  31  -2   51.79    3.20
  -2  31   2   56.19    3.60
  -2  31   2   58.29    3.70
   2  31  -2   57.99    3.60
   2  31  -2   54.39    3.50
  -2 -31  -2   56.79    3.10
   2  31   2   53.49    3.20
  -2  31  -2   56.09    4.10
  -2 -31   2   54.99    3.10
  -2  31  -2   53.39    3.80
   2  31   2   62.09    3.70
  -2  31  -2   51.79    4.20
   2  31   2   55.99    2.50
   2 -31  -2   57.79    3.90
  -3 -31  -2    8.00    1.30
  -3  31   2    6.00    1.60
  -3  31   2   11.40    2.00
   3 -31   2    6.00    1.20
   3  31  -2    6.80    1.30
  -3  31   2    6.30    2.00
   3  31  -2    5.40    1.40
   3  31  -2    7.10    1.50
  -3 -31   2    6.40    1.20
  -3  31  -2    7.90    2.10
  -3  31  -2    4.30    1.60
   3  31   2    6.50    1.00
   3  31   2    4.90    1.30
  -3  31  -2    8.20    1.90
   4  31  -2   36.50    3.60
  -4  31   2   33.50    4.30
  -4  31   2   32.60    3.60
   4  31  -2   30.40    2.50
  -4  31   2   38.10    3.70
  -4 -31  -2   33.40    2.50
   4 -31   2   33.20    2.50
   4  31  -2   32.20    2.90
   4  31   2   38.10    3.70
   4 -31  -2   31.90    2.30
  -4  31  -2   42.60    4.60
  -4 -31   2   27.90    2.30
  -4  31  -2   30.40    4.70
   4  31   2   28.20    3.20
   4  31   2   31.70    2.30
  -4  31  -2   30.30    3.50
   0  32   2  114.29    5.50
   0  32  -2  112.09    5.60
   0  32   2  117.49    6.60
   0  32  -2  118.99    5.80
   0  32   2  114.29    5.00
   0  32  -2  119.59    6.40
   0 -32  -2  110.99    5.10
  -1 -32  -2   63.99    3.40
  -1  32   2   66.69    3.80
  -1  32   2   62.69    4.70
  -1  32   2   64.59    3.70
   1  32  -2   63.99    3.90
   1  32  -2   65.59    3.70
   1  32  -2   71.79    4.50
  -1  32  -2   75.59    4.60
   1  32   2   67.09    3.10
  -1  32  -2   69.29    4.20
   1  32   2   75.69    3.90
   1  32   2   74.89    4.70
  -1  32  -2   71.69    4.90
  -1 -32   2   70.69    3.70
   1  32   2   73.79    4.00
  -2  32   2   44.20    4.60
   2  32  -2   40.70    3.00
  -2  32   2   38.70    3.10
  -2 -32  -2   44.90    2.70
   2  32  -2   48.30    3.20
   2  32  -2   44.80    2.90
  -2  32   2   45.50    3.20
   2  32   2   44.90    2.10
   2  32   2   47.40    3.30
  -2 -32   2   43.40    2.70
  -2  32  -2   43.90    3.40
  -2  32  -2   41.70    4.30
  -2  32  -2   39.40    3.60
   2  32   2   45.70    2.90
   3  32  -2    5.90    1.30
  -3  32   2    7.70    2.20
   3  32  -2    7.40    1.60
  -3 -32  -2    8.30    1.30
  -3  32   2    7.70    1.80
   3  32  -2    7.70    1.70
  -3  32   2    9.50    2.00
   3  32   2    7.70    1.00
  -3  32  -2    7.90    2.20
  -3  32  -2    4.40    1.60
  -3  32  -2    4.90    1.60
   3  32   2    5.80    1.50
   3  32   2    7.60    1.40
  -3 -32   2    8.20    1.40
  -4 -32  -2   24.60    2.50
  -4  32   2   19.60    3.50
   4  32  -2   30.00    2.40
   4  32  -2   23.50    2.60
  -4  32   2   26.70    3.30
   4  32  -2   31.80    3.40
  -4  32   2   32.90    3.40
   4 -32   2   27.00    2.20
  -4  32  -2   21.60    4.30
   4  32   2   30.20    2.10
  -4  32  -2   22.80    3.40
   4  32   2   20.20    2.90
   4 -32  -2   28.00    2.20
  -4  32  -2   28.30    3.60
  -4 -32   2   26.50    2.20
   0  33  -2   70.99    4.80
   0  33  -2   76.79    4.30
   0  33  -2   66.89    4.20
   0  33   2   75.89    5.10
   0  33   2   72.89    4.00
   0  33   2   75.19    3.60
   0 -33  -2   72.09    3.70
   1  33  -2   82.19    4.50
  -1  33   2   86.89    5.60
  -1 -33  -2   81.59    4.00
  -1  33   2   77.49    4.40
  -1  33   2   74.49    4.20
   1  33  -2   83.39    4.40
   1  33  -2   79.89    5.00
  -1  33  -2   77.89    4.80
   1  33   2   89.19    4.50
  -1 -33   2   79.99    4.10
  -1  33  -2   75.39    4.60
   1  33   2   82.79    4.30
  -1  33  -2   74.19    5.20
   1  33   2   79.49    3.50
   1  33   2   85.19    7.30
  -2  33   2    5.50    1.30
  -2  33   2    3.60    1.70
  -2  33   2    4.70    1.30
   2  33  -2    5.30    1.30
  -2 -33  -2    4.20    1.00
   2  33  -2    7.20    1.40
   2  33  -2    5.90    1.30
  -2 -33   2    7.30    1.30
  -2  33  -2    5.50    1.60
   2  33   2    6.00    1.40
  -2  33  -2    8.50    1.80
  -2  33  -2    4.70    1.60
   2  33   2    8.10    1.40
   2  33   2    6.50    0.80
   3  33  -2   75.29    4.60
  -3  33   2   78.59    5.00
  -3  33   2   63.29    4.40
   3  33  -2   71.49    4.00
  -3 -33  -2   66.69    3.80
   3  33  -2   71.39    4.40
  -3  33   2   73.39    5.60
  -3 -33   2   65.09    3.60
   3  33   2   63.69    3.70
  -3  33  -2   66.09    5.00
   3  33   2   66.09    3.10
   3  33   2   65.29    4.40
  -3  33  -2   63.89    5.00
  -3  33  -2   66.89    4.70
   0  34   2    3.80    1.10
   0  34  -2    4.80    1.50
   0  34  -2    3.10    1.10
   0  34   2    5.60    1.80
   0  34   2    4.00    0.90
   0  34  -2    5.30    1.30
   1  34  -2    2.30    1.30
  -1  34   2    1.90    1.00
   1  34  -2    2.10    0.90
   1  34  -2    3.30    1.10
  -1  34   2    3.00    1.00
  -1 -34  -2    3.50    0.90
   1  34  -2    1.80    0.90
  -1  34   2    2.30    1.40
   1  34   2    2.60    1.00
  -1  34  -2    1.40    1.20
   1  34   2    3.70    0.70
  -1 -34   2    1.00    0.60
   1  34   2    3.00    1.00
  -1  34  -2    4.40    1.30
  -1  34  -2    2.70    1.20
  -2  34   2   63.79    4.20
   2  34  -2   66.29    4.10
  -2  34   2   68.49    5.30
   2  34  -2   68.49    3.90
  -2  34   2   63.19    4.10
  -2 -34  -2   69.99    3.70
   2  34  -2   76.39    4.40
  -2  34  -2   59.89    4.60
  -2 -34   2   72.39    3.70
   2  34   2   63.09    4.10
   2  34   2   66.29    2.90
  -2  34  -2   66.19    4.40
   2  34   2   68.29    3.80
  -2  34  -2   66.69    5.00
   3  34  -2    1.60    1.00
  -3  34   2    0.30    1.60
  -3  34   2    0.80    1.00
   3  34  -2    1.80    0.80
   3  34  -2    1.80    1.00
  -3 -34  -2    0.90    0.60
  -3  34   2    0.70    1.00
   3  34   2    1.00    1.10
  -3  34  -2    3.50    1.70
  -3  34  -2   -0.10    0.90
  -3 -34   2    0.60    0.60
   3  34   2    1.30    0.50
  -3  34  -2    0.10    1.10
   3  34   2    2.70    0.90
   0  35   2   60.49    3.20
   0  35  -2   63.49    4.00
   0  35   2   64.69    4.80
   0  35   2   55.69    3.70
   0  35  -2   66.19    4.70
   0  35  -2   66.19    4.00
  -1  35   2   47.20    3.20
   1  35  -2   49.30    3.40
   1  35  -2   53.49    3.40
   1  35  -2   46.50    3.80
  -1  35   2   49.90    3.40
  -1  35   2   44.30    4.70
   1  35  -2   55.29    3.50
  -1 -35  -2   46.90    2.90
   1  35   2   52.69    2.60
  -1  35  -2   55.59    4.00
  -1  35  -2   55.19    3.80
   1  35   2   56.59    3.50
   1  35   2   49.40    3.30
  -1 -35   2   48.90    3.10
  -1  35  -2   52.59    4.30
   2  35  -2   36.00    2.90
   2  35  -2   41.10    3.20
  -2  35   2   42.90    3.20
  -2 -35  -2   35.00    2.50
  -2  35   2   45.70    4.90
  -2  35   2   37.10    3.10
   2  35  -2   39.10    2.90
  -2 -35   2   42.00    2.80
   2  35   2   43.60    3.30
  -2  35  -2   38.90    3.70
   2  35   2   43.10    2.10
  -2  35  -2   40.50    4.40
  -2  35  -2   42.90    3.50
   2  35   2   44.10    3.00
  -3  35   2    0.80    1.10
   3  35  -2    1.20    1.00
   3  35  -2    1.10    0.90
  -3  35   2   -0.20    0.90
   3  35  -2    0.60    0.70
  -3 -35  -2    0.80    0.70
  -3  35   2    1.20    1.40
  -3  35  -2    1.10    1.30
  -3  35  -2    1.60    1.40
  -3  35  -2    1.40    1.20
   3  35   2    0.60    0.80
  -3 -35   2    2.30    0.90
   3  35   2    1.80    0.50
   3  35   2    0.40    1.00
   0  36  -2    1.40    0.90
   0  36  -2    0.50    1.10
   0  36   2    2.00    0.70
   0  36   2    1.00    1.40
   0  36   2    0.60    0.80
   0  36  -2    1.00    0.90
  -1  36   2   60.69    3.70
   1  36  -2   58.89    4.40
   1  36  -2   71.29    4.10
  -1  36   2   60.29    4.80
  -1 -36  -2   62.09    3.50
   1  36  -2   61.19    3.90
  -1  36   2   62.19    4.00
   1  36  -2   62.19    4.00
  -1  36  -2   54.89    4.20
  -1  36  -2   63.59    4.20
  -1 -36   2   59.89    3.60
  -1  36  -2   67.29    5.00
   1  36   2   60.19    3.00
   1  36   2   69.69    3.90
   1  36   2   69.19    4.00
   2  36  -2   88.09    5.10
  -2  36   2  101.49    5.50
   2  36  -2   95.79    5.10
  -2  36   2  101.09    5.50
  -2 -36  -2   90.99    4.60
   2  36  -2   88.79    5.30
  -2  36   2   93.49    6.40
  -2  36  -2   97.69    6.30
  -2  36  -2  101.39    6.00
   2  36   2   88.59    5.10
  -2 -36   2   88.39    4.60
  -2  36  -2   86.49    5.40
   2  36   2   86.89    3.70
   2  36   2   81.79    4.60
   0  37  -2   58.79    3.90
   0  37  -2   63.99    4.80
   0  37   2   54.59    3.70
   0  37   2   59.89    3.20
   0  37  -2   55.99    4.00
   0  37   2   62.09    4.90
   1  37  -2   83.09    5.40
   1  37  -2   82.99    4.80
   1  37  -2   84.09    4.90
  -1 -37  -2   86.79    4.40
  -1  37   2   84.79    4.90
   1  37  -2   85.09    4.90
  -1  37   2   85.19    4.60
  -1  37   2   70.49    5.60
  -1  37  -2   99.19    6.20
  -1 -37   2   81.49    4.50
   1  37   2   89.59    5.00
   1  37   2   89.89    4.80
  -1  37  -2   88.59    5.50
   1  37   2   87.79    3.90
  -1  37  -2   86.79    5.20
  -2 -37  -2   18.90    2.10
  -2  37   2   17.80    3.30
  -2  37   2   20.90    2.70
   2  37  -2   18.60    2.40
   2  37  -2   13.50    2.20
  -2  37   2   22.60    2.80
   2  37  -2   18.80    2.30
  -2  37  -2   18.10    3.10
  -2  37  -2   19.90    3.10
   2  37   2   21.20    2.40
   2  37   2   16.90    2.40
  -2 -37   2   17.20    2.00
   2  37   2   20.40    1.30
  -2  37  -2   18.50    2.70
   0  38  -2    1.20    1.00
   0  38   2    0.40    1.30
   0  38   2    2.40    0.70
   0  38  -2    1.10    1.30
   0  38  -2    2.50    1.10
   0  38   2    0.70    0.90
  -1 -38  -2   44.80    2.90
  -1  38   2   48.30    3.50
  -1  38   2   56.39    5.40
   1  38  -2   43.50    3.40
   1  38  -2   47.60    3.40
  -1  38   2   41.50    3.10
   1  38  -2   43.90    3.40
  -1  38  -2   54.29    5.20
   1  38   2   51.89    3.40
  -1  38  -2   49.90    3.80
   1  38   2   50.59    3.60
  -1  38  -2   41.50    3.70
   1  38   2   48.10    2.50
   0  39   2    7.30    1.60
   0  39  -2    5.00    2.00
   0  39   2    4.60    1.00
   0  39  -2    2.70    1.20
   0  39  -2    4.50    1.50
   0  39   2    2.40    1.70
   0   0   3 1725.13   56.99
   0   0  -3 1658.53   56.19
   0   0  -3 1659.63   56.69
   0   0  -3 1644.24   56.89
  -1   0  -3  233.38    8.50
  -1   0  -3  230.08    8.60
   1   0  -3  238.28    8.70
   1   0   3  210.98    8.70
  -1   0   3  246.18    8.90
   1   0  -3  239.88    8.50
   1   0   3  234.88    8.10
  -1   0  -3  237.18    8.40
   1   0  -3  229.38    8.00
   1   0  -3  221.78    8.60
  -2   0   3    1.50    0.60
  -2   0  -3    1.00    0.50
  -2   0   3    1.40    0.30
  -2   0  -3    1.70    0.50
  -2   0  -3    2.10    0.50
   2   0   3    1.30    0.40
   2   0  -3    1.10    0.40
   2   0  -3    2.20    0.60
   2   0  -3    2.40    0.40
   2   0  -3    1.40    0.50
   2   0   3    1.00    0.50
   3   0   3 2521.25   86.49
   3   0  -3 2541.55   86.39
   3   0   3 2540.65   86.69
  -3   0   3 2569.24   86.29
  -3   0   3 2343.47   87.19
  -3   0  -3 2653.13   86.99
  -3   0  -3 2551.54   86.99
   3   0  -3 2607.34   86.59
  -3   0  -3 2588.34   86.29
   3   0  -3 2578.14   86.49
  -4   0  -3    4.00    1.10
   4   0   3    5.50    1.10
  -4   0   3    5.70    0.90
   4   0  -3    4.80    0.90
   4   0  -3    4.20    0.90
  -4   0   3    3.90    1.10
   4   0   3    6.80    1.10
   4   0   3    5.90    1.50
   4   0  -3    5.10    1.00
  -4   0  -3    4.60    1.10
  -5   0  -3   54.49    3.70
  -5   0   3   55.89    3.50
   5   0   3   58.79    3.40
   5   0  -3   55.99    3.30
   5   0   3   59.79    4.50
   5   0  -3   53.09    3.20
   5   0   3   52.79    3.50
   6   0  -3   28.90    2.40
   6   0  -3   28.90    2.80
   6   0   3   28.40    3.10
   6   0   3   28.30    4.10
   6   0   3   25.50    2.70
  -6   0  -3   25.20    3.10
   0   1  -3  265.57   10.40
   0   1  -3  290.17   10.30
   0   1  -3  278.17    9.90
   0   1   3  293.67   10.60
   0  -1   3  326.77   10.70
   0  -1  -3  280.67   10.50
   0  -1  -3  278.77   10.30
  -1   1   3  588.24   21.50
   1   1  -3  595.04   21.30
  -1  -1  -3  614.94   21.30
   1   1  -3  631.84   21.40
  -1  -1  -3  602.74   21.30
   1   1  -3  635.94   21.20
   1  -1   3  646.34   21.60
   1  -1   3  604.84   20.80
   1   1  -3  590.94   20.70
   1   1  -3  594.34   20.50
  -1  -1  -3  614.44   21.10
   1  -1  -3  587.24   20.80
  -1   1  -3  608.44   21.50
   1  -1  -3  623.34   21.60
  -1   1  -3  615.64   21.30
   1   1   3  636.64   21.00
  -1  -1   3  630.04   20.70
   1  -1  -3  615.44   21.40
   1   1   3  704.83   21.80
  -1   1  -3  604.94   21.40
  -1  -1   3  541.55   21.70
  -2  -1  -3   19.00    1.40
   2   1  -3   18.20    1.30
   2   1  -3   14.60    1.00
  -2   1   3   16.80    0.90
   2  -1   3   17.30    1.10
  -2  -1  -3   16.50    1.20
  -2   1   3   16.70    1.50
   2  -1   3   17.10    1.60
   2   1  -3   17.80    1.40
  -2  -1  -3   17.40    1.30
   2   1  -3   18.20    1.20
  -2  -1   3   17.50    0.90
  -2   1  -3   17.50    1.30
  -2  -1   3   18.30    1.60
   2  -1  -3   17.70    1.20
   2   1   3   15.80    1.10
   2  -1  -3   17.60    1.30
  -2   1  -3   16.80    1.30
   2  -1  -3   19.70    1.50
  -2   1  -3   16.40    1.30
   2  -1  -3   15.40    1.00
   2   1   3   17.70    1.60
  -3  -1  -3  122.69    4.70
  -3   1   3  114.89    4.60
  -3  -1  -3  119.79    5.20
   3  -1   3  112.29    4.90
   3   1  -3  113.09    4.90
   3   1  -3  119.79    4.90
   3  -1   3  108.39    4.80
   3   1  -3  105.59    4.70
  -3  -1  -3  110.29    5.10
  -3   1   3  111.39    5.50
   3   1   3  116.09    5.00
   3   1   3  102.49    4.70
  -3   1  -3  120.29    5.30
  -3   1  -3  119.99    5.20
   3  -1  -3  117.89    4.70
  -3  -1   3  103.69    5.40
  -3  -1   3  116.49    4.60
  -3   1  -3  114.79    4.70
   3  -1  -3  119.99    4.90
   3  -1  -3  106.19    4.80
  -4  -1  -3    0.10    0.50
   4   1  -3    0.90    0.60
   4  -1   3    0.40    0.50
   4  -1   3   -0.80    0.50
   4   1  -3    0.40    0.50
   4  -1   3    0.30    0.50
  -4   1   3    0.20    0.60
  -4   1   3   -0.30    0.40
   4   1  -3   -0.30    0.40
  -4  -1  -3    0.30    0.60
   4   1   3    0.20    0.70
  -4   1  -3    0.30    0.60
   4  -1  -3    0.00    0.40
   4   1   3    0.20    0.50
   4  -1  -3    0.30    0.50
  -4   1  -3    0.20    0.60
   4   1   3   -0.20    0.50
  -4  -1   3    0.10    0.40
   4  -1  -3   -0.30    0.40
  -4  -1   3    0.50    0.60
   5  -1   3  215.28    9.40
  -5   1   3  242.28   10.60
   5  -1   3  224.68   10.80
   5   1  -3  223.38    9.10
   5  -1   3  228.08    9.30
  -5  -1  -3  227.18    9.90
   5   1  -3  216.38    9.10
   5   1   3  219.48    9.00
   5  -1  -3  220.18    8.80
   5   1   3  206.28   10.30
  -5   1  -3  210.98    9.50
  -5  -1   3  217.08    8.80
   5  -1  -3  213.38    8.80
   5   1   3  220.08    9.20
   6   1  -3    3.20    1.20
   6  -1   3    2.30    1.00
   6  -1   3    3.70    1.30
  -6  -1  -3    2.10    1.20
   6   1  -3    2.80    1.00
   6  -1   3    2.60    1.60
   6   1   3    3.40    1.20
   6  -1  -3    3.40    1.10
   6  -1  -3    3.00    1.00
  -6   1  -3    4.30    1.60
   6   1   3    2.40    1.20
   6   1   3    1.60    1.40
   0   2  -3   16.10    0.60
   0   2  -3   16.90    1.10
   0   2  -3   17.40    1.30
   0  -2   3   15.70    1.30
   0  -2  -3   16.90    1.10
   0  -2  -3   15.70    1.20
   0   2  -3   16.00    0.80
   0   2   3   15.70    1.20
  -1   2   3   77.69    3.50
   1   2  -3   73.19    3.40
   1   2  -3   80.99    3.30
  -1  -2  -3   75.59    3.30
   1   2  -3   78.29    2.70
  -1  -2  -3   76.29    3.10
   1   2  -3   73.49    3.40
   1  -2   3   76.39    3.60
   1  -2   3   80.39    2.90
   1   2  -3   76.39    2.90
  -1  -2  -3   78.39    3.30
  -1   2  -3   77.99    3.20
   1  -2  -3   74.09    3.20
   1   2   3   75.19    2.90
  -1  -2   3   75.29    3.50
  -1   2  -3   75.79    3.30
  -1  -2   3   78.89    2.60
   1   2   3   68.99    3.30
  -1   2  -3   77.89    3.20
   1  -2  -3   71.49    2.60
   2   2  -3  101.59    4.40
  -2  -2  -3  103.79    4.40
   2   2  -3  103.59    4.30
  -2   2   3  105.79    3.90
   2   2  -3   92.49    4.50
   2  -2   3  105.49    4.10
  -2  -2  -3  106.39    4.20
   2  -2   3  107.69    5.00
  -2  -2  -3   95.89    4.50
  -2   2   3  117.19    4.90
   2   2  -3  105.19    4.10
   2  -2  -3  105.89    4.10
   2  -2  -3  101.89    4.70
   2  -2  -3  104.79    4.60
  -2  -2   3  112.99    4.10
  -2   2  -3  109.59    4.60
   2  -2  -3  116.09    4.50
  -2  -2   3  108.59    4.90
   2   2   3  112.59    5.00
   2   2   3  106.99    4.30
  -2   2  -3  105.49    4.50
  -2   2  -3  110.99    4.60
   3   2  -3  302.77   11.30
  -3  -2  -3  302.47   11.00
  -3   2   3  302.17   12.00
  -3  -2  -3  309.47   11.80
  -3   2   3  309.87   11.10
   3   2  -3  302.37   11.30
  -3  -2  -3  300.67   11.70
   3  -2   3  306.47   11.30
   3  -2   3  311.27   11.40
   3   2  -3  306.37   11.20
   3  -2  -3  303.77   11.20
  -3   2  -3  298.67   11.10
  -3  -2   3  308.07   11.00
  -3   2  -3  294.37   11.50
   3  -2  -3  301.17   11.00
  -3   2  -3  296.17   11.60
  -3  -2   3  302.47   11.90
   3   2   3  286.07   11.20
   3  -2  -3  311.17   11.30
   3   2   3  314.27   12.20
   3   2   3  306.97   11.40
   4   2  -3   25.90    1.90
   4   2  -3   28.80    1.90
   4  -2   3   27.20    2.00
   4  -2   3   27.20    2.70
  -4   2   3   25.00    2.40
  -4  -2  -3   21.70    2.40
  -4   2   3   27.40    1.90
   4  -2   3   25.60    2.00
  -4  -2  -3   27.90    2.20
   4   2  -3   24.20    1.90
  -4  -2   3   28.80    1.90
  -4   2  -3   24.10    2.50
   4  -2  -3   25.90    1.90
   4  -2  -3   24.60    1.80
   4   2   3   29.50    2.20
   4   2   3   25.90    2.60
   4  -2  -3   26.50    1.90
  -4   2  -3   28.20    2.20
   4   2   3   27.30    2.00
  -5  -2  -3    9.20    1.70
   5  -2   3    7.60    1.90
   5  -2   3    8.70    1.60
   5   2  -3    9.60    1.50
   5  -2   3    9.50    1.50
   5   2  -3    9.80    1.40
   5  -2  -3    6.00    1.20
  -5   2  -3    7.60    1.60
   5   2   3    8.10    1.40
   5   2   3    6.80    1.80
   5  -2  -3    6.90    1.20
   5   2   3    4.60    1.30
  -5  -2   3    6.50    1.20
  -6  -2  -3   26.10    3.10
   6  -2   3   28.80    3.00
   6   2  -3   28.60    2.80
   6  -2   3   30.30    3.00
   6   2  -3   30.30    2.90
   6   2   3   30.00    3.00
  -6   2  -3   28.70    3.40
   6   2   3   38.60    4.70
   6  -2  -3   25.80    2.60
   6  -2  -3   25.90    2.60
   6   2   3   30.50    3.30
   0  -3  -3  643.64   21.90
   0   3   3  660.33   22.00
   0   3   3  610.04   22.10
   0   3  -3  654.93   21.90
   0  -3  -3  635.04   22.10
   0   3  -3  648.84   21.60
   0  -3   3  629.24   22.30
   0   3  -3  608.94   22.10
   0   3  -3  606.64   22.00
   1  -3   3  421.26   15.20
   1   3  -3  418.76   14.70
   1   3  -3  419.66   14.20
   1   3  -3  412.66   14.30
  -1  -3  -3  424.86   14.90
   1   3  -3  397.16   14.90
  -1   3   3  425.76   15.10
   1   3  -3  428.66   15.00
  -1  -3  -3  416.76   14.60
   1  -3   3  421.56   14.30
  -1  -3  -3  415.66   14.80
  -1   3  -3  391.76   15.10
  -1   3  -3  431.76   14.90
   1   3   3  412.16   14.90
  -1  -3   3  436.76   15.40
  -1  -3   3  438.06   14.40
   1   3   3  433.36   14.60
   1   3   3  447.76   15.20
  -1   3  -3  430.46   14.90
  -1   3  -3  419.06   15.10
   1  -3  -3  412.56   14.90
   1  -3  -3  408.66   14.30
   1  -3  -3  418.16   15.10
   2   3  -3   19.00    1.30
   2  -3   3   23.90    1.90
  -2   3   3   19.20    1.60
  -2  -3  -3   19.90    1.30
   2  -3   3   18.30    1.10
  -2   3   3   18.00    1.00
  -2  -3  -3   19.80    1.50
   2   3  -3   17.80    1.30
  -2  -3  -3   20.50    1.40
   2   3  -3   15.40    1.10
   2   3  -3   19.10    1.50
   2   3   3   19.40    1.60
  -2  -3   3   17.30    1.50
  -2  -3   3   17.20    1.00
   2   3   3   19.60    1.20
   2  -3  -3   17.20    1.40
   2  -3  -3   16.90    1.20
  -2   3  -3   21.50    2.10
  -2   3  -3   18.70    1.40
   2  -3  -3   16.50    1.00
  -2   3  -3   17.80    1.40
  -2   3  -3   17.90    1.30
  -3  -3  -3   15.60    1.10
   3   3  -3   17.70    1.40
   3   3  -3   14.80    1.50
   3  -3   3   18.40    1.40
  -3  -3  -3   13.90    1.60
  -3   3   3   17.90    1.80
  -3   3   3   14.70    1.20
   3   3  -3   17.00    1.30
  -3  -3  -3   12.40    1.50
   3   3  -3   16.30    1.70
   3  -3   3   12.90    1.30
  -3   3  -3   13.30    1.50
  -3  -3   3   14.00    1.80
   3  -3  -3   13.80    1.10
   3   3   3   14.10    1.50
  -3   3  -3   13.90    1.70
   3  -3  -3   15.70    1.30
   3   3   3   17.20    1.80
   3   3   3   13.60    1.50
  -3  -3   3   14.50    1.10
   3  -3  -3   12.60    1.40
  -3   3  -3   16.50    1.30
   4   3  -3    3.60    0.80
  -4  -3  -3    4.20    1.10
   4   3  -3    2.40    0.70
  -4   3   3    0.80    0.60
   4  -3   3    3.50    0.90
  -4   3   3    2.00    0.90
   4  -3   3    3.40    1.30
   4  -3   3    2.50    0.70
   4   3  -3    3.50    0.90
  -4  -3  -3    3.20    0.90
   4  -3  -3    1.20    0.60
  -4  -3   3    2.00    0.60
   4  -3  -3    3.40    0.90
   4   3   3    2.20    0.70
   4  -3  -3    2.50    0.70
  -4   3  -3    2.60    0.80
   4   3   3    2.60    0.90
   4   3   3    1.40    0.90
  -4   3  -3    1.40    0.70
   5   3  -3  139.89    6.40
   5  -3   3  141.39    6.50
   5   3  -3  144.89    6.30
   5  -3   3  146.19    6.40
   5  -3   3  132.69    7.70
  -5  -3  -3  140.69    6.90
   5  -3  -3  140.89    6.20
   5   3   3  137.89    6.40
   5   3   3  134.09    6.60
  -5   3  -3  133.89    6.90
   5   3   3  133.09    7.60
  -5  -3   3  149.88    6.30
   5  -3  -3  148.69    6.20
  -6  -3  -3  230.28   10.40
   6   3  -3  218.38    9.50
   6  -3   3  230.48    9.70
   6  -3   3  231.48    9.90
   6   3  -3  230.78    9.70
   6   3   3  226.68    9.80
   6   3   3  212.78   11.10
   6  -3  -3  220.08    9.20
   6  -3  -3  214.08    9.00
  -6   3  -3  214.38   10.10
   6   3   3  211.28    9.40
   0   4   3   28.00    1.60
   0  -4  -3   28.80    1.50
   0  -4   3   26.50    1.80
   0   4  -3   27.10    1.40
   0   4   3   23.90    1.40
   0   4  -3   26.60    1.20
   0  -4  -3   25.90    1.00
   0  -4  -3   26.40    1.60
   1   4  -3  261.07    9.00
  -1   4   3  246.88    9.70
   1   4  -3  257.57    9.70
   1   4  -3  269.27    9.70
  -1  -4  -3  269.07    9.60
   1  -4   3  260.97    9.10
   1   4  -3  266.17    9.40
  -1  -4  -3  259.67    9.30
   1   4  -3  261.77    9.10
  -1  -4  -3  254.07    9.50
   1   4   3  248.08    9.30
   1  -4  -3  262.07    9.40
   1  -4  -3  258.87    9.60
   1   4   3  264.97    9.60
  -1  -4   3  236.28    9.80
  -1   4  -3  273.07    9.40
  -1   4  -3  273.27    9.70
  -1   4  -3  257.27    9.70
  -1   4  -3  263.87    9.40
   1   4   3  257.17    9.10
  -1  -4   3  270.97    8.90
   1  -4  -3  250.87    8.80
   2   4  -3  248.98    9.10
   2   4  -3  255.47    9.40
   2   4  -3  256.47    9.30
  -2  -4  -3  245.58    9.20
   2  -4   3  251.27   10.10
  -2   4   3  251.67    9.90
   2  -4   3  245.18    9.10
  -2  -4  -3  263.87    9.70
   2   4  -3  250.07    9.70
  -2  -4  -3  258.07    9.40
  -2   4   3  255.67    9.00
  -2   4  -3  261.87    9.70
  -2   4  -3  248.28    9.50
  -2   4  -3  256.57    9.50
   2  -4  -3  250.67    9.00
   2  -4  -3  263.57    9.60
  -2  -4   3  265.77    9.00
  -2   4  -3  241.88    9.90
  -2  -4   3  254.37    9.90
   2  -4  -3  254.87    9.30
   2   4   3  260.17    9.30
   2   4   3  245.18    9.80
  -3   4   3    5.70    1.20
  -3  -4  -3    5.70    0.70
   3  -4   3    5.00    0.90
   3   4  -3    6.80    1.00
   3   4  -3    5.50    1.10
   3   4  -3    6.50    1.00
  -3   4   3    6.90    0.90
   3   4  -3    3.70    0.80
  -3  -4  -3    5.20    1.10
  -3  -4  -3    4.60    1.00
   3  -4   3    5.30    0.80
  -3  -4   3    5.70    0.80
   3  -4  -3    6.50    1.00
   3  -4  -3    4.80    0.70
  -3   4  -3    4.00    0.90
   3   4   3    4.50    1.10
   3  -4  -3    5.40    1.00
  -3   4  -3    4.50    1.00
  -3  -4   3    6.00    1.10
   3   4   3    4.80    1.00
  -3   4  -3    5.20    0.90
   3   4   3    3.70    0.80
   4  -4   3   16.30    1.70
  -4  -4  -3   18.90    2.10
   4   4  -3   18.80    1.90
  -4   4   3   18.30    1.60
   4  -4   3   20.80    2.90
  -4  -4  -3   20.50    2.40
   4  -4   3   18.60    1.90
   4   4  -3   19.90    1.70
  -4   4   3   15.20    2.10
   4   4  -3   17.20    1.50
   4  -4  -3   19.10    1.60
   4   4   3   22.20    1.80
   4  -4  -3   20.40    1.70
  -4   4  -3   18.90    2.30
   4   4   3   19.00    2.10
   4   4   3   20.50    2.60
   4  -4  -3   20.40    1.60
  -4   4  -3   21.10    2.30
  -4  -4   3   23.80    1.70
   5  -4   3   28.40    2.20
  -5  -4  -3   30.80    3.10
   5  -4   3   27.00    2.60
   5  -4   3   21.20    3.10
   5   4  -3   23.50    2.40
   5   4  -3   25.70    2.10
   5   4   3   31.70    3.20
  -5   4  -3   29.30    3.10
   5  -4  -3   24.60    2.00
  -5  -4   3   28.30    2.10
   5   4   3   23.60    2.70
   5   4   3   27.20    2.30
   5  -4  -3   23.80    2.00
   6   4  -3   10.10    1.70
  -6  -4  -3   10.00    1.90
   6   4  -3   11.00    1.70
   6  -4   3   11.50    1.90
   6  -4   3   11.00    1.70
   6   4   3    8.60    1.70
   6   4   3   11.00    2.50
   6  -4  -3   13.20    1.70
   6   4   3   11.00    2.00
  -6   4  -3   13.30    2.30
   6  -4  -3    9.80    1.50
   0   5   3  579.14   19.80
   0   5   3  560.44   19.70
   0   5  -3  564.24   19.60
   0   5  -3  579.14   19.90
   0   5   3  595.04   19.20
   0  -5   3  526.15   20.10
   0   5   3  570.04   19.20
   0   5  -3  567.94   20.00
   0  -5  -3  558.64   19.10
   0  -5  -3  562.14   19.90
   0   5  -3  577.54   19.50
   0  -5  -3  569.24   19.80
  -1  -5  -3   94.89    3.60
  -1   5   3   94.79    3.20
  -1  -5  -3   89.09    3.80
  -1  -5  -3   91.89    3.90
   1   5  -3   84.89    3.70
  -1   5   3  107.79    4.20
   1   5  -3   93.09    4.10
   1  -5   3   89.49    3.40
   1  -5   3   89.59    4.30
   1   5  -3   90.49    3.50
   1   5  -3   88.89    4.00
   1   5  -3   94.29    3.40
   1   5   3  101.89    3.90
   1  -5  -3   99.39    4.00
   1   5   3   96.29    3.70
  -1   5  -3  103.19    4.30
   1   5   3   91.89    4.10
  -1   5  -3  104.49    4.30
  -1   5  -3   99.39    4.00
   1  -5  -3   97.49    4.20
  -1  -5   3  103.19    3.60
  -1   5  -3   96.79    4.00
   1  -5  -3   97.69    3.50
  -2  -5  -3   21.30    1.60
   2  -5   3   20.80    1.90
  -2  -5  -3   19.50    1.30
   2   5  -3   19.80    1.30
   2  -5   3   18.30    1.20
  -2   5   3   19.90    1.70
  -2   5   3   21.00    1.20
  -2  -5  -3   19.50    1.40
   2   5  -3   19.10    1.40
   2   5  -3   21.20    1.40
   2   5  -3   19.20    1.60
  -2   5  -3   22.70    1.70
  -2  -5   3   26.10    1.90
  -2  -5   3   23.60    1.20
  -2   5  -3   22.50    1.50
  -2   5  -3   21.90    1.60
   2  -5  -3   22.70    1.20
   2  -5  -3   22.50    1.40
   2  -5  -3   24.90    1.70
   2   5   3   25.40    1.50
  -2   5  -3   22.50    1.80
   2   5   3   24.40    1.80
   3   5  -3   33.50    1.90
  -3  -5  -3   30.20    2.30
   3   5  -3   34.40    2.10
  -3   5   3   32.80    2.40
   3   5  -3   30.80    1.90
  -3   5   3   35.50    1.90
   3   5  -3   32.10    2.30
   3  -5   3   33.00    2.00
  -3  -5  -3   30.60    1.70
   3  -5   3   33.00    1.90
  -3  -5  -3   32.50    2.20
   3   5   3   32.30    2.50
  -3  -5   3   33.30    2.40
  -3   5  -3   33.00    2.30
   3  -5  -3   32.20    1.80
   3   5   3   31.80    2.20
  -3   5  -3   28.70    2.00
   3  -5  -3   32.00    2.10
  -3  -5   3   31.90    1.80
   3   5   3   30.10    2.00
   3  -5  -3   35.30    1.90
  -3   5  -3   31.00    2.00
   4   5  -3    3.10    0.90
   4   5  -3    2.40    0.80
   4  -5   3    3.00    0.80
  -4   5   3    2.60    0.80
   4  -5   3    2.50    0.80
  -4  -5  -3    2.40    0.90
  -4   5   3    1.70    0.90
   4   5  -3    2.40    0.70
  -4  -5  -3    3.00    1.10
   4  -5   3    3.20    1.20
  -4  -5   3    2.50    0.80
  -4   5  -3    2.50    0.70
   4   5   3    2.60    1.10
   4  -5  -3    2.30    0.70
  -4   5  -3    0.20    0.70
  -4   5  -3    1.10    0.70
   4   5   3    1.50    0.70
   4   5   3    2.00    0.80
   4  -5  -3    1.80    0.70
   4  -5  -3    2.90    0.80
   5   5  -3   11.60    1.60
   5   5  -3   10.10    1.60
   5  -5   3   13.30    1.70
   5  -5   3   15.20    2.70
  -5  -5  -3    9.00    1.70
   5  -5   3   14.10    1.80
  -5  -5   3   11.20    1.50
   5  -5  -3   10.80    1.50
   5   5   3    9.60    1.60
   5   5   3   12.20    1.80
   5  -5  -3   10.70    1.40
   5   5   3    7.60    1.90
  -5   5  -3   12.60    2.00
   6  -5   3  259.57   12.40
   6   5  -3  246.58   10.40
  -6  -5  -3  247.58   11.00
   6  -5   3  246.68   10.30
   6   5  -3  237.98   10.20
   6  -5  -3  233.48    9.90
   6   5   3  251.37   12.10
   6   5   3  250.87   10.80
  -6   5  -3  249.08   11.20
   6   5   3  233.18   10.30
   6  -5  -3  249.48   10.00
   0   6  -3   63.49    2.60
   0   6   3   58.49    2.70
   0  -6  -3   67.79    3.00
   0   6  -3   66.79    3.10
   0  -6  -3   63.29    2.80
   0   6  -3   61.29    2.90
   0   6   3   61.49    2.30
   0  -6  -3   63.69    2.30
   0   6   3   63.29    2.30
   0   6   3   62.69    2.80
   0   6  -3   70.09    2.80
   0  -6   3   65.79    3.20
   1   6  -3  271.77   10.10
  -1   6   3  243.78   10.00
  -1   6   3  279.37    9.40
  -1  -6  -3  277.17    9.70
   1  -6   3  282.37   10.50
   1   6  -3  256.17    9.50
   1  -6   3  267.97    9.50
  -1   6   3  262.07   10.10
  -1  -6  -3  279.87   10.10
  -1  -6  -3  272.67    9.90
   1   6  -3  291.87   10.20
   1   6  -3  279.47    9.80
   1   6  -3  274.17    9.40
  -1  -6   3  308.97   10.40
   1   6   3  265.67    9.50
   1   6   3  241.38    9.60
  -1   6  -3  249.08   10.00
   1  -6  -3  272.37   10.10
   1  -6  -3  277.67    9.80
  -1  -6   3  275.27    9.30
  -1   6  -3  259.77    9.80
  -1   6  -3  271.67   10.10
  -1   6  -3  269.57    9.70
   1   6   3  293.17    9.90
   1  -6  -3  262.07    9.20
  -2   6   3 1177.68   40.80
  -2  -6  -3 1205.78   41.00
   2  -6   3 1153.18   42.10
  -2  -6  -3 1185.88   41.50
   2   6  -3 1160.78   41.00
  -2   6   3 1220.78   41.70
   2   6  -3 1173.68   41.20
   2   6  -3 1209.28   41.20
   2  -6   3 1198.18   40.90
   2   6  -3 1310.27   41.70
  -2  -6  -3 1221.38   41.30
   2  -6  -3 1225.28   40.40
  -2  -6   3 1165.88   40.00
  -2   6  -3 1186.38   40.80
   2   6   3 1236.28   40.90
   2   6   3 1162.38   40.40
  -2  -6   3 1095.39   40.90
   2  -6  -3 1186.68   40.80
  -2   6  -3 1157.88   40.50
  -2   6  -3 1194.98   40.80
   2  -6  -3 1186.38   40.00
  -2   6  -3 1185.58   41.10
  -3  -6  -3    3.50    0.80
   3   6  -3    3.90    0.70
  -3   6   3    3.50    0.60
  -3   6  -3    2.50    0.80
   3  -6  -3    3.30    0.60
   3   6   3    6.80    1.20
  -3  -6   3    4.00    1.00
  -3  -6   3    2.90    0.60
  -3   6  -3    5.50    0.90
  -4  -6  -3  573.94   21.60
  -4   6   3  592.94   20.90
   4  -6   3  577.94   20.90
  -4   6   3  597.14   22.00
   4   6  -3  583.64   20.90
   4  -6   3  548.45   22.40
   4   6  -3  574.84   20.90
   4  -6   3  583.14   20.80
  -4  -6  -3  595.84   21.40
   4   6   3  577.74   21.30
  -4   6  -3  618.94   21.10
  -4   6  -3  584.84   21.40
   4   6   3  560.54   22.20
   4  -6  -3  608.64   20.90
  -4  -6   3  631.04   21.00
   4  -6  -3  568.44   21.20
  -4   6  -3  591.34   21.90
   4  -6  -3  579.84   21.00
   4   6   3  564.14   21.50
  -5  -6  -3    9.30    1.70
   5  -6   3    7.80    1.30
   5   6  -3   10.80    1.60
   5   6  -3    6.90    1.40
   5  -6   3   12.70    2.70
   5  -6   3    9.10    1.50
   5   6   3    9.40    2.10
   5   6   3    9.50    1.70
   5  -6  -3    8.10    1.30
  -5  -6   3    7.90    1.30
   5  -6  -3    7.60    1.30
   5   6   3    9.00    1.60
  -5   6  -3    8.50    1.70
   6   6  -3   14.80    2.10
   6   6  -3   16.80    2.20
   6  -6   3   17.60    2.10
  -6  -6  -3   12.30    2.20
  -6   6  -3   14.10    2.40
   6  -6  -3   15.40    1.90
   6   6   3   12.40    2.70
   6  -6  -3   16.40    1.90
   6   6   3   12.40    2.00
   6   6   3   12.50    2.10
   0   7  -3  677.53   23.60
   0   7  -3  672.43   23.50
   0   7  -3  660.63   23.00
   0   7   3  639.84   23.10
   0   7   3  694.43   23.20
   0   7   3  675.43   22.80
   0  -7  -3  708.13   23.30
   0  -7  -3  676.43   23.40
   0   7  -3  675.73   23.10
   0   7   3  668.83   22.70
   0  -7   3  612.94   23.70
   0  -7  -3  690.23   22.70
   1  -7   3  146.89    5.30
  -1   7   3  149.09    5.20
   1   7  -3  150.68    5.60
   1   7  -3  145.49    5.30
  -1   7   3  142.59    5.90
  -1  -7  -3  144.99    5.70
   1   7  -3  137.79    5.80
   1   7  -3  145.69    5.40
  -1   7   3  162.78    6.00
   1  -7   3  137.89    6.20
  -1  -7  -3  146.09    5.80
  -1  -7  -3  155.78    5.50
   1   7  -3  137.59    5.90
   1   7   3  147.09    5.70
  -1   7  -3  163.48    6.20
   1  -7  -3  151.48    5.70
   1  -7  -3  157.38    6.10
  -1   7  -3  145.29    5.80
  -1  -7   3  143.89    6.20
  -1   7  -3  146.89    5.60
   1   7   3  145.29    5.60
   1  -7  -3  147.29    5.20
   1   7   3  152.68    5.50
  -1  -7   3  148.69    5.30
  -1   7  -3  149.19    6.10
   2  -7   3  239.58    9.50
  -2  -7  -3  241.68    9.00
   2   7  -3  211.38    8.90
  -2   7   3  232.58    8.30
   2   7  -3  213.78    8.40
   2   7  -3  232.98    8.50
   2   7  -3  229.88    8.60
  -2  -7  -3  229.58    8.60
  -2   7   3  242.18    9.10
  -2  -7  -3  220.78    8.40
   2  -7   3  220.88    8.30
  -2  -7   3  224.78    9.00
   2  -7  -3  236.28    8.80
  -2   7  -3  235.08    8.80
   2  -7  -3  220.88    8.10
  -2   7  -3  225.88    8.50
   2  -7  -3  234.88    8.40
  -2  -7   3  225.98    8.10
  -2   7  -3  219.28    8.80
  -2   7  -3  246.98    9.20
   2   7   3  212.18    8.70
   2   7   3  221.18    8.80
   2   7   3  218.58    8.40
   3  -7   3   25.70    1.70
   3   7  -3   28.10    1.80
   3   7  -3   30.60    1.90
   3   7  -3   29.20    1.90
   3   7  -3   26.30    2.20
   3  -7   3   32.80    1.90
  -3  -7  -3   27.90    2.00
  -3  -7  -3   24.70    2.10
  -3   7   3   33.20    1.90
  -3   7   3   26.40    2.30
   3  -7  -3   28.60    1.70
  -3   7  -3   31.00    2.00
  -3   7  -3   26.40    2.10
   3   7   3   26.50    2.20
  -3  -7   3   25.90    2.20
   3  -7  -3   26.10    1.60
   3  -7  -3   25.60    1.90
   3   7   3   24.90    1.80
  -3   7  -3   26.70    1.80
   3   7   3   27.40    2.00
  -3  -7   3   30.00    1.60
  -4  -7  -3  153.68    7.20
   4  -7   3  162.08    6.70
  -4   7   3  165.18    6.70
   4  -7   3  154.98    8.00
  -4   7   3  164.38    7.70
   4   7  -3  148.69    6.70
  -4  -7  -3  157.68    7.00
   4   7  -3  158.68    6.70
   4  -7   3  159.98    6.60
   4   7   3  179.98    8.00
   4  -7  -3  168.78    6.70
  -4   7  -3  162.18    6.80
  -4  -7   3  159.68    6.60
   4   7   3  161.78    6.90
   4  -7  -3  165.08    6.60
   4  -7  -3  152.18    6.90
  -4   7  -3  156.68    6.90
   4   7   3  165.98    7.20
  -4   7  -3  153.78    7.30
  -5   7   3    1.10    1.10
   5  -7   3    0.50    0.70
  -5   7   3    1.20    0.90
  -5  -7  -3   -0.20    0.70
   5   7  -3   -0.10    0.60
   5   7  -3    1.40    0.80
   5  -7   3    1.10    0.70
   5   7   3    1.20    1.00
  -5   7  -3    0.40    0.90
   5  -7  -3    0.30    0.70
   5   7   3    0.60    0.80
   5   7   3    0.90    0.90
  -5  -7   3    0.00    0.50
   5  -7  -3    0.10    0.50
   5  -7  -3    0.70    0.60
  -6  -7  -3  127.39    6.80
   6   7  -3  129.69    6.50
   6   7  -3  128.69    6.30
   6  -7   3  133.79    6.30
   6   7   3  128.99    7.80
   6   7   3  113.29    6.60
   6  -7  -3  134.19    6.10
   6   7   3  143.19    6.70
   6  -7  -3  136.79    6.20
  -6   7  -3  128.69    7.10
   0   8  -3    1.70    0.40
   0  -8   3    1.70    0.60
   0   8  -3    2.20    0.60
   0   8  -3    0.90    0.30
   0   8  -3    1.70    0.60
   0  -8  -3    1.30    0.50
   0  -8  -3    1.90    0.50
   0   8   3    2.20    0.30
   0   8   3    2.30    0.40
   0   8   3    1.10    0.30
   0   8   3    1.60    0.30
   0  -8  -3    2.40    0.30
  -1   8   3   32.40    1.40
  -1   8   3   33.00    1.90
   1   8  -3   30.10    1.50
   1   8  -3   31.90    1.90
  -1  -8  -3   32.40    1.50
   1   8  -3   33.50    1.40
  -1   8   3   31.90    1.90
  -1  -8  -3   30.50    1.80
  -1  -8  -3   30.50    1.80
   1   8  -3   30.40    1.90
   1   8  -3   31.00    1.60
   1  -8   3   28.60    1.40
   1   8   3   29.90    1.60
   1  -8  -3   32.10    1.30
   1   8   3   31.20    1.50
  -1   8  -3   30.10    2.00
  -1  -8   3   31.40    2.10
   1  -8  -3   34.70    2.00
   1   8   3   31.10    1.50
  -1   8  -3   33.60    1.80
   1  -8  -3   32.40    1.70
  -1   8  -3   29.40    1.60
  -1   8  -3   35.10    2.10
  -1  -8   3   31.90    1.40
   2   8  -3  148.69    5.70
  -2  -8  -3  132.89    5.50
  -2  -8  -3  122.59    5.10
   2  -8   3  120.49    5.90
  -2   8   3  116.59    5.50
   2   8  -3  123.29    5.00
  -2   8   3  129.19    4.90
   2   8  -3  131.39    5.10
   2  -8   3  124.19    4.90
  -2  -8  -3  121.99    5.00
   2   8  -3  123.29    5.20
   2   8   3  128.49    5.10
   2   8   3  132.79    5.10
  -2   8  -3  117.59    5.60
  -2  -8   3  139.79    5.70
   2  -8  -3  122.99    4.70
  -2   8  -3  124.79    5.40
   2   8   3  118.99    5.30
  -2   8  -3  122.09    5.40
   2  -8  -3  128.19    5.00
   2  -8  -3  124.59    5.40
  -2   8  -3  122.69    5.00
  -2  -8   3  123.59    4.70
   3   8  -3   27.20    1.80
   3   8  -3   29.70    2.20
  -3   8   3   29.60    1.80
  -3  -8  -3   24.20    1.90
   3   8  -3   24.50    1.80
  -3   8   3   24.50    2.20
   3  -8   3   25.80    1.70
  -3  -8  -3   25.90    2.10
   3   8  -3   27.60    1.70
   3  -8   3   27.40    1.70
  -3  -8   3   26.60    1.60
   3   8   3   25.90    2.20
  -3   8  -3   27.10    2.00
   3   8   3   25.90    2.00
   3   8   3   27.40    1.90
   3  -8  -3   29.60    2.10
   3  -8  -3   28.30    1.70
   3  -8  -3   25.50    1.60
  -3   8  -3   27.90    1.80
  -3   8  -3   27.20    2.10
  -4   8   3  147.19    7.40
  -4   8   3  160.78    6.60
  -4  -8  -3  156.08    7.20
  -4  -8  -3  150.08    6.80
   4  -8   3  153.58    7.90
   4  -8   3  152.58    6.40
   4   8  -3  157.98    6.60
   4  -8   3  144.39    6.40
   4   8  -3  163.38    6.70
   4   8   3  142.29    6.50
   4  -8  -3  143.79    5.90
   4  -8  -3  136.49    6.30
   4  -8  -3  141.59    5.90
   4   8   3  143.99    6.30
  -4   8  -3  149.79    6.80
  -4  -8   3  148.19    6.00
   4   8   3  136.29    7.00
  -4   8  -3  140.99    6.20
   5   8  -3   17.00    2.00
  -5   8   3   17.80    2.30
   5   8  -3   20.10    2.20
  -5   8   3   16.50    2.50
   5  -8   3   16.60    1.90
  -5  -8  -3   19.10    2.30
  -5  -8   3   20.90    2.00
  -5   8  -3   19.40    2.60
   5  -8  -3   18.80    1.90
   5  -8  -3   18.00    2.10
   5   8   3   15.80    2.20
   5  -8  -3   18.30    1.80
   5   8   3   21.90    3.10
   5   8   3   14.80    2.00
   6   8  -3    2.30    1.10
  -6  -8  -3    3.50    1.30
   6  -8   3    3.10    1.10
   6   8  -3    1.00    0.90
   6   8   3    1.60    1.10
   6  -8  -3    2.50    1.00
  -6   8  -3    2.00    1.00
   6   8   3    2.80    1.50
   6   8   3    1.10    1.10
   6  -8  -3    2.10    0.90
   0   9   3  673.43   24.50
   0  -9  -3  717.23   24.90
   0   9   3  720.63   24.60
   0   9  -3  711.73   24.50
   0   9   3  724.03   24.30
   0   9   3  721.23   24.20
   0  -9  -3  732.23   24.20
   0  -9   3  664.33   25.20
   0   9  -3  727.83   24.50
   0  -9  -3  726.93   24.80
   0   9  -3  708.73   25.00
   0   9  -3  734.23   25.10
  -1  -9  -3  499.35   16.60
   1   9  -3  474.35   16.70
  -1   9   3  488.45   16.40
   1   9  -3  474.65   16.40
  -1  -9  -3  473.15   16.90
  -1   9   3  460.15   17.00
  -1   9   3  451.15   17.00
  -1  -9  -3  428.66   16.90
   1  -9   3  476.05   16.40
   1   9  -3  490.15   17.10
   1   9  -3  538.35   17.30
   1  -9   3  479.15   17.60
   1   9  -3  467.05   16.50
  -1  -9   3  479.35   16.00
  -1   9  -3  460.55   16.20
  -1  -9   3  467.25   16.90
  -1   9  -3  466.45   16.50
  -1   9  -3  481.05   16.90
  -1   9  -3  453.15   16.80
   1   9   3  441.96   16.30
   1  -9  -3  452.05   15.90
   1  -9  -3  490.55   16.40
   1   9   3  461.15   16.10
   1  -9  -3  467.85   16.80
   1   9   3  472.15   16.20
  -2  -9  -3  196.48    7.50
  -2   9   3  203.68    7.30
  -2   9   3  187.88    7.90
   2   9  -3  197.18    7.50
   2   9  -3  187.78    7.80
   2   9  -3  193.38    7.50
   2  -9   3  195.58    7.20
   2   9  -3  194.68    7.40
  -2  -9  -3  206.58    7.90
  -2  -9  -3  195.68    7.30
   2   9   3  187.68    7.30
  -2   9  -3  193.18    7.30
   2  -9  -3  195.88    7.30
  -2   9  -3  195.98    7.80
   2   9   3  185.08    7.60
  -2  -9   3  198.18    7.00
  -2  -9   3  199.58    8.00
  -2   9  -3  192.78    7.70
   2  -9  -3  190.88    7.00
   2   9   3  187.08    7.30
   2  -9  -3  198.08    7.80
  -2   9  -3  200.58    8.10
  -3   9   3   45.40    2.50
  -3   9   3   49.10    3.20
   3   9  -3   44.80    2.40
  -3  -9  -3   44.10    2.70
   3   9  -3   46.20    2.60
   3   9  -3   53.69    2.70
   3   9  -3   44.20    2.90
   3  -9   3   44.00    2.40
  -3  -9  -3   49.40    3.00
   3  -9   3   49.80    2.50
  -3   9  -3   47.50    2.80
   3  -9  -3   51.09    2.90
  -3  -9   3   44.20    2.30
  -3   9  -3   40.30    2.80
   3   9   3   49.99    3.00
   3   9   3   46.80    2.60
  -3   9  -3   50.19    2.60
   3  -9  -3   44.00    2.20
   3  -9  -3   47.90    2.40
   3   9   3   48.00    2.90
   4   9  -3  104.89    5.00
  -4  -9  -3  103.29    5.40
   4  -9   3  104.29    4.70
   4   9  -3  106.79    4.90
  -4   9   3  108.09    5.80
  -4  -9  -3  114.89    5.30
   4  -9   3  104.59    4.80
   4  -9   3   97.09    6.00
  -4   9   3  102.19    5.20
  -4   9  -3  108.99    5.60
   4  -9  -3  109.69    4.70
   4  -9  -3  100.89    5.00
  -4  -9   3  107.69    4.70
   4   9   3  103.19    5.00
   4   9   3  112.29    5.40
   4   9   3  101.29    5.70
   4  -9  -3  106.99    4.70
  -4   9  -3  107.99    5.00
   5   9  -3   82.39    4.50
  -5  -9  -3   85.59    4.80
  -5   9   3   95.89    5.20
  -5   9   3   79.39    5.30
   5   9  -3   86.59    4.50
   5  -9   3   88.69    4.40
   5  -9  -3   90.69    4.30
   5  -9  -3   89.09    4.20
   5   9   3   82.09    4.60
   5   9   3   93.49    5.70
   5   9   3   87.29    5.00
  -5   9  -3   83.79    5.10
  -5  -9   3   89.59    4.40
   5  -9  -3   81.39    4.50
   6  -9   3   40.00    3.00
   6   9  -3   46.80    3.40
   6   9  -3   42.50    3.10
  -6  -9  -3   42.70    3.50
  -6   9  -3   50.49    4.00
   6  -9  -3   52.59    3.20
   6   9   3   42.50    3.50
   6  -9  -3   49.30    3.10
   6   9   3   45.70    4.30
   6   9   3   45.80    3.70
   0 -10  -3   16.80    0.80
   0  10  -3   18.40    1.10
   0  10  -3   15.50    1.10
   0  10   3   17.00    1.10
   0  10  -3   18.90    1.50
   0 -10  -3   18.90    1.30
   0  10   3   15.40    1.00
   0  10   3   17.40    0.90
   0 -10  -3   18.10    1.40
   0 -10   3   17.40    1.50
   1  10  -3   24.20    1.30
  -1  10   3   28.10    1.70
   1  10  -3   24.10    1.40
   1 -10   3   24.50    1.30
   1  10  -3   25.30    1.70
  -1 -10  -3   27.00    1.70
  -1  10   3   24.40    1.20
  -1  10   3   25.40    1.60
   1  10  -3   23.60    1.30
  -1 -10  -3   26.50    1.30
  -1 -10  -3   26.40    1.60
   1  10  -3   22.80    1.70
   1 -10  -3   26.90    1.80
   1 -10  -3   28.60    1.60
   1  10   3   28.20    1.50
  -1  10  -3   29.20    1.70
   1  10   3   28.00    1.50
  -1  10  -3   31.80    2.00
  -1  10  -3   28.80    1.50
   1  10   3   28.20    1.40
  -1 -10   3   27.70    1.30
  -1 -10   3   30.70    2.00
  -1  10  -3   29.60    2.00
  -2 -10  -3  202.28    7.90
   2  10  -3  229.08    8.50
   2 -10   3  222.98    9.10
  -2  10   3  217.98    7.80
   2  10  -3  212.18    8.00
  -2 -10  -3  201.28    8.00
   2 -10   3  202.78    7.70
   2  10  -3  221.48    8.20
  -2 -10  -3  212.88    8.50
  -2  10   3  196.78    8.40
   2  10  -3  204.88    7.90
  -2 -10   3  193.88    8.30
  -2  10  -3  200.78    8.40
   2  10   3  191.58    7.60
   2  10   3  209.08    7.80
   2 -10  -3  209.38    7.70
   2  10   3  218.18    8.00
   2 -10  -3  209.58    7.40
  -2  10  -3  209.48    8.30
  -2  10  -3  211.18    7.70
  -2  10  -3  213.28    8.20
  -2 -10   3  195.48    7.40
   2 -10  -3  199.68    8.20
   3  10  -3  339.67   12.60
   3 -10   3  330.07   12.30
  -3 -10  -3  338.87   13.10
  -3  10   3  327.47   13.40
  -3  10   3  339.37   12.50
   3  10  -3  343.77   12.60
   3 -10   3  339.37   12.30
  -3 -10  -3  331.97   12.70
   3  10  -3  375.56   13.30
   3  10  -3  323.07   12.40
  -3  10  -3  337.67   12.20
   3 -10  -3  329.97   12.00
   3  10   3  309.07   12.70
   3  10   3  342.57   12.70
   3 -10  -3  320.17   12.50
  -3 -10   3  336.87   11.90
   3 -10  -3  333.47   11.80
  -3  10  -3  328.47   12.80
  -3  10  -3  325.67   12.60
   3  10   3  327.77   12.30
   4  10  -3  272.77   10.90
   4  10  -3  252.37   10.00
  -4 -10  -3  250.67   10.20
   4  10  -3  245.88   10.00
   4 -10   3  238.18    9.70
  -4  10   3  265.47   11.10
  -4 -10  -3  252.97   10.70
  -4  10  -3  247.28   10.50
   4 -10  -3  239.98    9.50
  -4 -10   3  256.57    9.60
   4  10   3  250.77   10.30
   4 -10  -3  249.08    9.50
   4  10   3  252.77   10.00
  -4  10  -3  256.67   10.00
   4 -10  -3  254.37   10.10
   4  10   3  243.08   10.70
   5 -10   3    0.60    0.70
  -5 -10  -3    2.40    1.00
   5  10  -3    1.10    0.80
   5  10  -3    0.10    0.70
  -5  10   3    1.00    1.00
  -5  10   3    0.20    0.80
   5  10   3   -0.20    0.60
   5 -10  -3   -0.10    0.60
   5 -10  -3    0.20    0.60
   5 -10  -3    0.60    0.50
   5  10   3    0.70    0.90
   5  10   3    0.00    0.90
  -5 -10   3    0.60    0.60
  -5  10  -3   -1.00    0.60
  -6 -10  -3    0.90    1.00
   6 -10   3    1.00    0.80
   6  10  -3    0.10    0.90
   6  10  -3   -0.10    0.70
   6  10   3    0.30    0.90
   6 -10  -3    0.10    0.60
   6  10   3    0.20    1.00
   6 -10  -3    0.10    0.70
   6  10   3    2.40    1.40
  -6  10  -3   -0.20    0.90
   0  11  -3  706.03   25.60
   0 -11  -3  730.73   25.30
   0  11  -3  718.13   24.90
   0  11  -3  816.72   25.70
   0  11   3  673.13   24.90
   0  11   3  744.13   25.00
   0  11  -3  746.93   25.10
   0 -11  -3  726.83   24.70
   0 -11  -3  733.33   25.50
   0  11   3  759.92   24.80
   0 -11   3  643.64   25.70
   1  11  -3  119.49    4.50
  -1  11   3  117.89    4.30
  -1  11   3  104.59    4.70
   1 -11   3  112.09    4.30
   1  11  -3  118.49    5.00
   1  11  -3  112.99    4.40
  -1 -11  -3  112.49    4.70
   1  11  -3  111.69    4.90
  -1 -11  -3  117.69    4.40
  -1  11   3  111.59    4.80
  -1 -11  -3  112.99    4.90
   1  11  -3  111.59    4.30
   1 -11  -3  115.19    5.10
  -1  11  -3  113.39    5.20
   1  11   3  116.19    4.40
  -1  11  -3  117.09    5.10
  -1  11  -3  122.89    4.90
   1 -11  -3  119.79    4.70
  -1  11  -3  118.29    4.50
   1  11   3  117.39    4.50
   1  11   3  121.79    4.60
  -1 -11   3  120.09    4.40
   2  11  -3   32.60    1.90
  -2 -11  -3   29.30    2.10
  -2  11   3   34.00    1.80
   2  11  -3   32.80    2.20
   2 -11   3   34.90    2.60
  -2 -11  -3   33.00    1.90
   2 -11   3   33.00    1.70
  -2 -11  -3   33.10    1.80
  -2  11   3   27.90    2.10
   2  11  -3   33.00    1.90
   2  11  -3   34.10    2.00
   2  11   3   36.70    1.90
  -2  11  -3   36.50    1.90
   2 -11  -3   34.10    1.90
  -2 -11   3   33.30    2.70
   2  11   3   37.70    2.20
   2  11   3   39.70    2.10
   2  11   3   34.30    2.10
  -2  11  -3   39.30    2.50
  -2  11  -3   33.90    2.40
  -2 -11   3   34.00    1.70
   2 -11  -3   38.60    1.70
   2 -11  -3   34.40    2.30
  -2  11  -3   35.40    2.20
   3  11  -3   21.70    1.60
   3  11  -3   22.60    1.70
   3 -11   3   23.20    1.50
  -3  11   3   25.30    1.70
   3 -11   3   25.80    1.60
  -3  11   3   23.90    2.20
  -3 -11  -3   21.70    1.70
   3  11  -3   25.00    1.80
  -3 -11  -3   18.10    2.10
   3  11  -3   22.50    2.00
  -3 -11   3   22.50    1.40
  -3  11  -3   22.60    1.60
   3 -11  -3   19.40    2.00
  -3  11  -3   22.70    2.20
   3 -11  -3   19.70    1.40
  -3  11  -3   23.50    2.00
   3  11   3   24.10    1.80
   3  11   3   20.30    1.90
   3 -11  -3   19.80    1.40
   3  11   3   16.10    1.80
  -4 -11  -3   25.00    2.70
  -4 -11  -3   23.50    2.10
   4 -11   3   24.10    1.80
   4  11  -3   25.20    2.00
   4  11  -3   26.20    2.10
   4  11  -3   25.30    2.40
  -4  11   3   26.70    2.60
  -4  11  -3   24.30    2.60
  -4 -11   3   22.60    1.70
   4 -11  -3   21.70    2.20
   4 -11  -3   25.80    1.70
   4  11   3   22.20    2.40
   4 -11  -3   23.00    1.60
   4  11   3   26.10    2.50
  -4  11  -3   25.70    2.50
   4  11   3   23.60    2.30
  -5  11   3   74.79    4.80
   5  11  -3   80.69    4.40
   5  11  -3   79.79    4.50
   5 -11   3   90.19    4.30
  -5  11   3   77.99    5.30
  -5 -11  -3   85.99    4.70
   5 -11  -3   80.99    4.00
   5  11   3   84.99    4.80
  -5 -11   3   77.49    4.00
   5 -11  -3   84.09    4.50
   5  11   3   76.29    5.20
  -5  11  -3   78.49    4.90
   5 -11  -3   80.89    3.90
   5  11   3   81.19    4.50
   6  11  -3   32.70    3.30
   6 -11   3   33.50    2.70
   6  11  -3   35.00    2.90
  -6 -11  -3   32.80    3.40
   6 -11  -3   34.80    3.40
   6  11   3   37.20    3.50
   6 -11  -3   36.20    2.60
   6  11   3   35.80    3.80
   6  11   3   30.30    3.50
  -6  11  -3   36.60    4.00
   0 -12  -3   46.00    2.30
   0  12  -3   47.60    2.70
   0  12   3   41.40    1.90
   0  12   3   47.60    2.10
   0  12   3   39.70    1.90
   0  12  -3   43.90    2.00
   0 -12  -3   45.40    1.90
   0 -12  -3   44.60    2.50
   0  12  -3   44.60    2.10
   0  12  -3   44.10    2.50
   1  12  -3   84.19    4.10
  -1 -12  -3   95.19    3.60
  -1  12   3   96.59    4.00
   1 -12   3   90.59    3.50
   1  12  -3   89.89    3.60
  -1 -12  -3   85.99    4.00
   1  12  -3   89.19    3.60
  -1 -12  -3   88.79    3.90
   1  12  -3   85.69    3.50
   1  12  -3   94.69    4.10
  -1  12   3   80.29    3.90
  -1  12   3   86.09    3.50
   1  12   3   88.79    3.50
  -1  12  -3   82.69    3.40
  -1 -12   3   81.99    4.10
   1 -12  -3   87.89    3.60
  -1  12  -3   89.19    3.80
   1 -12  -3   82.69    4.00
   1  12   3   86.59    3.40
   1  12   3   81.19    3.20
  -1  12  -3   86.59    4.20
  -1 -12   3   88.59    3.40
   2 -12   3    0.90    0.70
  -2  12   3    1.70    0.70
  -2 -12  -3    1.60    0.50
   2  12  -3    1.50    0.60
  -2 -12  -3    0.90    0.60
  -2  12   3    1.30    0.40
  -2 -12  -3    2.00    0.50
   2  12  -3    2.70    0.60
   2  12  -3    2.30    0.70
   2  12  -3    1.80    0.50
   2 -12   3    4.20    0.60
  -2  12  -3    2.30    0.70
   2  12   3    2.50    0.60
   2  12   3    2.20    0.70
  -2  12  -3    3.10    0.60
  -2  12  -3    2.50    0.80
  -2  12  -3    1.40    0.80
   2 -12  -3    2.40    0.40
   2 -12  -3    4.30    0.90
   2  12   3    2.40    0.60
   2 -12  -3    4.20    0.70
  -2 -12   3    2.80    0.50
   2  12   3    2.40    0.50
  -3  12   3  538.25   19.90
   3 -12   3  547.65   19.70
   3  12  -3  557.04   20.60
  -3 -12  -3  547.75   20.10
   3  12  -3  562.24   20.00
  -3  12   3  619.64   21.00
   3  12  -3  549.85   19.80
   3  12  -3  543.85   20.00
  -3 -12  -3  557.84   20.60
   3 -12  -3  560.84   19.70
   3 -12  -3  565.44   19.90
   3  12   3  547.55   20.20
  -3  12  -3  552.24   20.70
   3 -12  -3  576.24   20.60
  -3  12  -3  566.44   20.60
  -3 -12   3  554.84   19.70
   3  12   3  568.74   20.60
   3  12   3  581.24   20.70
   4  12  -3   57.79    3.80
  -4 -12  -3   56.29    3.40
  -4 -12  -3   57.39    3.80
   4  12  -3   62.39    3.50
   4 -12   3   62.09    3.20
  -4  12   3   60.39    4.10
   4  12  -3   62.69    3.40
   4  12   3   65.09    3.60
   4  12   3   63.89    3.80
   4 -12  -3   52.29    3.40
  -4 -12   3   60.19    3.10
  -4  12  -3   60.99    3.90
   4 -12  -3   64.99    3.10
   4 -12  -3   65.39    3.10
  -4  12  -3   66.89    3.70
   4  12   3   59.39    4.00
   5  12  -3   85.79    4.60
  -5  12   3   89.49    5.60
   5  12  -3   82.49    4.70
  -5  12   3   81.99    5.10
   5 -12   3   88.69    4.40
  -5 -12  -3   86.39    4.80
   5  12   3   86.49    4.70
   5 -12  -3   80.29    4.10
  -5  12  -3   81.09    5.10
   5 -12  -3   82.99    4.00
   5 -12  -3   81.49    4.60
   5  12   3   87.19    5.50
   5  12   3   85.19    4.90
  -5 -12   3   89.09    4.20
  -6 -12  -3    9.10    1.80
   6  12  -3    6.50    1.50
   6  12  -3    6.30    1.60
   6 -12   3    6.30    1.30
   6  12   3   11.50    2.20
   6  12   3    7.00    1.70
   6 -12  -3    7.20    1.30
  -6  12  -3    8.30    2.10
   6  12   3    8.50    2.10
   0  13  -3   17.20    1.90
   0  13   3   22.30    1.20
   0 -13  -3   19.40    1.60
   0  13   3   22.00    1.20
   0  13   3   22.30    1.10
   0  13  -3   20.50    1.60
   0 -13  -3   21.70    1.10
   0  13  -3   23.10    1.20
   0 -13  -3   20.40    1.40
   0 -13   3   20.00    1.70
   0  13  -3   20.10    1.30
   1  13  -3  282.87    9.90
  -1  13   3  281.47    9.80
   1  13  -3  270.17   10.40
  -1 -13  -3  277.57   10.40
   1 -13   3  277.37    9.80
  -1  13   3  270.67   10.20
  -1  13   3  249.48   10.20
   1  13  -3  273.57    9.90
  -1 -13  -3  275.67    9.80
  -1 -13  -3  268.37   10.20
   1  13  -3  274.67    9.80
   1  13  -3  278.87   10.50
   1 -13  -3  274.07   10.50
  -1  13  -3  265.27   10.40
   1  13   3  265.47    9.80
  -1  13  -3  272.07    9.70
  -1 -13   3  269.77    9.70
   1  13   3  269.47    9.50
  -1  13  -3  277.77   10.70
  -1  13  -3  271.77   10.20
   1 -13  -3  271.07    9.90
   1  13   3  278.37    9.60
  -1 -13   3  279.07   10.70
  -2 -13  -3   71.49    3.20
   2  13  -3   73.29    3.50
   2  13  -3   72.09    3.30
  -2 -13  -3   76.89    3.30
   2 -13   3   68.49    3.10
   2  13  -3   72.79    3.70
  -2  13   3   71.59    3.20
  -2  13   3   70.69    3.70
   2 -13   3   70.39    4.20
  -2 -13  -3   70.09    3.70
   2  13  -3   71.59    3.30
  -2 -13   3   72.99    3.00
   2  13   3   73.89    3.60
  -2  13  -3   70.09    3.80
   2 -13  -3   75.19    3.00
  -2  13  -3   74.99    3.10
   2  13   3   65.39    3.00
   2 -13  -3   70.79    3.70
  -2  13  -3   72.79    3.70
  -2  13  -3   64.19    3.80
   2  13   3   73.19    3.30
   2 -13  -3   74.99    3.20
   3  13  -3   46.10    2.60
  -3  13   3   47.90    3.20
   3  13  -3   47.30    2.70
   3  13  -3   49.80    3.10
   3  13  -3   41.40    2.40
   3 -13   3   47.60    2.50
  -3  13   3   47.80    2.70
  -3 -13  -3   44.20    2.70
  -3 -13  -3   47.20    3.10
   3  13   3   43.10    2.80
  -3  13  -3   43.90    3.00
  -3  13  -3   45.00    3.00
   3  13   3   44.00    2.70
   3 -13  -3   46.90    2.30
   3  13   3   45.70    2.90
  -3 -13   3   46.10    2.30
   3 -13  -3   46.90    2.90
   3 -13  -3   49.10    2.40
   4  13  -3   43.80    2.80
  -4 -13  -3   49.50    3.00
  -4  13   3   49.80    3.60
   4  13  -3   46.80    3.30
   4  13  -3   45.70    3.00
  -4  13   3   48.70    3.50
  -4 -13  -3   42.40    3.30
   4 -13   3   43.40    2.60
  -4 -13   3   43.50    2.50
   4 -13  -3   47.80    3.10
  -4  13  -3   45.80    3.10
  -4  13  -3   52.39    3.50
   4 -13  -3   46.10    2.50
   4  13   3   48.10    3.20
   4  13   3   43.70    3.30
   4 -13  -3   42.00    2.40
   4  13   3   44.50    2.90
  -5  13   3  196.48    9.10
  -5  13   3  178.58    9.30
   5  13  -3  176.98    8.10
   5 -13   3  196.68    8.00
  -5 -13  -3  191.18    8.40
   5  13  -3  196.78    8.50
   5  13   3  189.88    9.20
  -5  13  -3  197.38    9.10
   5 -13  -3  186.78    7.60
   5  13   3  184.08    8.70
   5  13   3  188.48    8.40
   5 -13  -3  186.68    8.30
   5 -13  -3  193.28    7.70
  -5 -13   3  182.98    7.80
   6  13  -3   33.90    2.90
  -6 -13  -3   32.60    3.40
   6 -13   3   30.80    2.60
   6  13  -3   30.10    3.30
   6 -13  -3   29.70    2.40
   6  13   3   29.60    3.30
   6  13   3   30.40    3.90
  -6  13  -3   27.00    3.50
   6  13   3   29.60    3.40
   0  14   3   18.10    1.10
   0 -14   3   20.60    1.70
   0  14  -3   18.60    1.50
   0 -14  -3   19.70    1.00
   0  14   3   18.80    1.10
   0  14  -3   18.70    1.30
   0  14   3   18.40    1.10
   0  14  -3   17.40    1.80
   0 -14  -3   21.40    1.60
   0 -14  -3   20.60    1.40
   0  14  -3   20.50    1.10
  -1 -14  -3    1.40    0.40
  -1 -14  -3    1.40    0.60
   1 -14   3    1.60    0.40
  -1  14   3    0.70    0.40
  -1  14   3    1.20    0.30
  -1 -14  -3    2.10    0.70
   1  14  -3    1.80    0.60
   1  14  -3    2.00    0.50
  -1  14   3    1.30    0.50
   1  14  -3    1.90    0.50
   1  14  -3    1.70    0.40
   1  14  -3    1.80    0.60
   1 -14   3    1.70    0.70
  -1 -14   3    1.80    0.40
  -1  14  -3    0.40    0.40
   1 -14  -3    1.80    0.50
   1  14   3    1.30    0.40
   1 -14  -3    0.80    0.50
   1  14   3    0.90    0.20
  -1  14  -3   -0.10    0.50
   1  14   3    1.00    0.30
  -1  14  -3    1.00    0.50
  -1  14  -3    1.00    0.30
   2 -14   3   40.00    2.00
  -2  14   3   40.70    2.20
  -2  14   3   41.00    2.60
  -2 -14  -3   38.20    2.10
   2  14  -3   41.30    2.30
   2  14  -3   40.40    2.20
  -2 -14  -3   34.60    2.50
   2  14  -3   43.90    2.40
  -2 -14  -3   38.30    2.10
   2  14  -3   41.30    2.60
   2  14   3   41.30    2.30
   2 -14  -3   40.60    2.00
   2  14   3   42.40    2.00
  -2  14  -3   45.70    2.70
   2 -14  -3   41.10    2.60
  -2  14  -3   44.20    2.90
   2 -14  -3   44.00    2.20
   2  14   3   42.90    2.50
  -2 -14   3   42.40    2.00
  -2  14  -3   43.00    2.80
   3  14  -3   50.29    2.70
   3  14  -3   48.30    3.20
  -3 -14  -3   53.59    2.90
  -3  14   3   54.99    2.90
   3  14  -3   52.89    2.80
   3 -14   3   49.70    2.60
  -3 -14  -3   50.29    3.30
  -3  14   3   48.50    3.30
   3  14  -3   51.59    2.90
   3  14   3   50.59    3.00
   3  14   3   44.30    2.80
  -3  14  -3   53.89    3.30
   3 -14  -3   49.30    2.50
   3 -14  -3   46.10    3.00
  -3  14  -3   50.39    3.20
   3  14   3   50.69    3.00
   3 -14  -3   47.90    2.40
  -3 -14   3   50.79    2.50
  -4  14   3    7.60    1.70
   4 -14   3    6.30    1.10
   4  14  -3    6.70    1.20
   4  14  -3    7.00    1.30
  -4 -14  -3    6.50    1.60
  -4 -14  -3    5.50    1.20
   4  14  -3    7.50    1.50
  -4  14   3    3.90    1.30
   4  14   3    4.40    1.30
   4 -14  -3    5.60    0.90
   4  14   3    7.20    1.40
   4  14   3    5.90    1.40
  -4  14  -3    5.50    1.40
  -4 -14   3    7.40    1.10
   4 -14  -3    6.20    1.00
   4 -14  -3    5.30    1.20
  -4  14  -3    5.60    1.30
  -5  14   3   16.60    2.50
   5 -14   3   18.40    1.90
  -5 -14  -3   17.10    2.20
  -5  14   3   20.20    3.00
   5  14  -3   18.50    2.30
   5  14  -3   13.90    2.00
  -5  14  -3   16.30    2.50
   5  14   3   16.40    2.40
   5 -14  -3   15.10    1.70
   5  14   3   16.00    2.20
   5  14   3   12.50    2.30
   5 -14  -3   21.50    2.50
  -5 -14   3   14.40    1.70
   6 -14   3   26.80    2.70
  -6 -14  -3   24.80    2.90
   6  14  -3   27.40    3.10
   6  14  -3   24.30    2.70
   6  14   3   26.20    3.30
   6 -14  -3   26.10    2.40
   6  14   3   19.20    3.10
  -6  14  -3   32.60    3.80
   6  14   3   26.10    3.10
   0  15   3 1685.33   55.39
   0  15  -3 1665.03   56.39
   0 -15  -3 1673.53   56.19
   0  15   3 1601.94   55.29
   0  15  -3 1685.93   56.19
   0  15  -3 1600.94   55.69
   0  15   3 1505.05   55.29
   0 -15  -3 1625.94   55.79
   0  15  -3 1658.43   55.39
   0 -15  -3 1650.03   55.29
   1 -15   3  258.17    9.30
   1  15  -3  253.77   10.00
   1  15  -3  253.87    9.40
   1  15  -3  256.97    9.50
  -1  15   3  260.07    9.40
  -1 -15  -3  259.37    9.80
  -1  15   3  266.07    9.80
  -1 -15  -3  257.37   10.00
   1  15  -3  260.27    9.50
  -1 -15  -3  265.57    9.40
   1  15  -3  259.87   10.10
  -1  15  -3  262.67    9.20
   1 -15  -3  259.37   10.10
   1  15   3  265.77    9.50
   1  15   3  242.98    8.90
  -1  15  -3  251.77    9.70
  -1  15  -3  247.78   10.00
  -1  15  -3  266.87   10.30
   1 -15  -3  259.97    9.50
   1  15   3  268.27    9.10
  -1 -15   3  250.87    9.30
   2  15  -3   18.70    1.70
   2  15  -3   18.30    1.40
   2 -15   3   18.10    1.30
  -2 -15  -3   14.10    1.70
   2  15  -3   19.70    1.40
  -2 -15  -3   16.30    1.30
   2  15  -3   17.70    1.50
  -2  15   3   18.00    1.70
  -2 -15  -3   19.10    1.30
  -2  15   3   16.30    1.30
   2 -15  -3   16.90    1.10
  -2  15  -3   15.60    1.70
   2  15   3   15.60    1.10
   2  15   3   21.10    1.60
  -2  15  -3   17.10    2.00
   2  15   3   16.80    1.30
   2 -15  -3   18.40    1.30
  -2 -15   3   17.00    1.10
   2 -15  -3   15.70    1.80
   2  15   3   16.60    1.40
  -2  15  -3   20.50    1.90
  -3  15   3  195.78    8.10
   3 -15   3  167.08    6.90
   3  15  -3  168.78    7.20
  -3 -15  -3  170.88    7.20
   3  15  -3  182.48    7.20
   3  15  -3  183.38    7.80
  -3  15   3  169.88    7.20
  -3 -15  -3  183.18    7.90
   3  15  -3  168.88    7.00
   3 -15  -3  176.88    6.90
   3  15   3  175.68    7.50
   3  15   3  178.38    7.40
  -3  15  -3  178.68    7.80
  -3 -15   3  174.98    6.90
   3 -15  -3  179.08    7.70
   3  15   3  184.08    7.70
  -3  15  -3  190.38    7.90
   3 -15  -3  171.18    6.80
  -4 -15  -3   15.10    2.30
   4  15  -3   16.40    2.00
  -4  15   3   14.50    2.30
  -4 -15  -3   12.40    1.70
   4 -15   3   16.90    1.70
   4  15  -3   15.20    2.10
  -4  15   3   15.00    2.30
   4  15  -3   12.90    1.70
  -4 -15   3   14.00    1.50
   4  15   3   15.50    2.10
   4  15   3   14.10    2.10
   4 -15  -3   14.40    2.00
   4  15   3   13.90    1.90
   4 -15  -3   13.60    1.40
   4 -15  -3   15.20    1.50
  -4  15  -3   13.10    1.90
  -4  15  -3   15.80    2.30
   5 -15   3   71.29    3.80
  -5 -15  -3   70.79    4.20
  -5  15   3   77.19    4.90
  -5  15   3   67.69    5.00
   5  15  -3   74.09    4.30
   5  15  -3   65.69    4.00
  -5  15  -3   69.79    4.60
   5  15   3   63.79    4.50
   5 -15  -3   61.49    4.00
   5 -15  -3   71.99    3.60
  -5 -15   3   64.89    3.50
   5  15   3   57.49    3.90
   5  15   3   66.39    4.30
   6  15  -3  176.88    8.20
   6 -15   3  173.78    7.80
   6  15  -3  186.18    8.50
  -6 -15  -3  176.78    8.40
   6  15   3  186.88    8.70
  -6  15  -3  197.28    9.60
   6 -15  -3  174.48    7.80
   6  15   3  179.18    9.40
   6  15   3  178.88    8.90
   0  16   3  126.09    5.10
   0  16   3  141.19    5.20
   0  16  -3  137.89    5.50
   0 -16  -3  137.59    5.10
   0  16  -3  140.09    5.90
   0  16  -3  136.39    5.10
   0 -16  -3  137.59    5.90
   0 -16  -3  140.59    5.60
   0  16  -3  132.39    6.10
   0  16   3  141.59    5.10
   1  16  -3   59.29    2.80
  -1 -16  -3   60.59    3.10
  -1 -16  -3   60.69    2.70
   1  16  -3   63.09    3.30
  -1  16   3   64.49    3.00
   1  16  -3   63.19    2.70
  -1 -16  -3   60.19    3.20
   1  16  -3   57.29    3.30
   1 -16   3   60.09    2.70
  -1  16   3   62.29    2.80
  -1 -16   3   59.19    2.60
   1  16   3   59.69    2.30
  -1  16  -3   59.09    3.20
   1 -16  -3   58.09    3.20
  -1  16  -3   54.39    3.30
   1  16   3   55.69    2.70
   1 -16  -3   60.09    2.80
  -1  16  -3   56.59    3.00
   1  16   3   54.59    2.20
   2  16  -3  184.08    7.60
  -2 -16  -3  189.58    7.40
  -2 -16  -3  198.58    8.00
  -2 -16  -3  181.48    7.30
   2  16  -3  185.78    7.40
   2  16  -3  183.28    7.30
   2 -16   3  189.18    7.20
   2  16  -3  189.88    7.90
   2  16  -3  195.08    7.20
  -2  16   3  198.78    7.40
  -2  16   3  196.98    7.90
  -2  16  -3  177.98    8.00
   2  16   3  183.68    6.90
   2 -16  -3  190.38    7.10
  -2  16  -3  179.68    8.00
   2 -16  -3  183.18    7.80
  -2  16  -3  185.78    7.70
   2  16   3  182.58    7.40
  -2 -16   3  189.68    7.00
   2 -16  -3  184.08    6.90
   2  16   3  195.18    7.20
   2  16   3  188.28    7.60
  -3  16   3  303.37   12.60
  -3  16   3  307.07   11.80
  -3 -16  -3  307.57   11.80
  -3 -16  -3  310.57   12.50
   3 -16   3  319.17   11.60
   3  16  -3  317.47   11.80
   3  16  -3  315.67   11.90
   3  16  -3  309.37   12.40
   3  16  -3  318.97   11.70
   3  16   3  329.07   12.60
   3 -16  -3  315.07   12.60
  -3  16  -3  313.27   12.80
   3 -16  -3  321.47   11.70
  -3 -16   3  316.07   11.70
   3 -16  -3  319.27   11.60
  -3  16  -3  322.97   12.80
   3  16   3  311.97   12.20
   3  16   3  340.07   12.50
   4  16  -3  239.78   10.00
   4 -16   3  246.38    9.50
  -4 -16  -3  235.48   10.50
  -4  16   3  257.27   10.90
  -4 -16  -3  239.68    9.80
   4  16  -3  253.57    9.80
  -4  16   3  233.58   10.80
   4  16  -3  237.48   10.40
   4 -16  -3  250.57    9.40
  -4  16  -3  250.97   10.70
   4 -16  -3  244.58    9.30
  -4  16  -3  245.98   10.40
   4  16   3  241.08   10.30
   4 -16  -3  241.38   10.30
   4  16   3  241.68   10.10
  -4 -16   3  239.28    9.40
   4  16   3  256.07   10.50
   5  16  -3   70.09    4.20
   5  16  -3   60.89    3.80
  -5 -16  -3   69.89    4.10
  -5  16   3   58.69    4.50
  -5  16   3   65.49    4.80
   5 -16   3   62.79    3.60
   5  16   3   61.49    4.00
   5  16   3   66.99    4.30
   5 -16  -3   68.49    4.10
   5  16   3   59.29    4.30
   5 -16  -3   66.29    3.40
  -5  16  -3   60.39    4.40
  -5 -16   3   58.59    3.40
  -6 -16  -3   42.90    3.40
   6 -16   3   37.60    2.90
   6  16  -3   42.30    3.90
   6  16  -3   42.20    3.20
   6  16   3   41.50    4.20
   6  16   3   42.50    3.50
   6 -16  -3   44.40    3.00
  -6 -16   3   44.10    4.70
  -6  16  -3   38.50    4.30
   6  16   3   41.40    4.00
   0 -17  -3  278.57   10.30
   0  17  -3  276.07   10.70
   0 -17  -3  284.67   10.70
   0  17   3  270.87    9.70
   0 -17  -3  281.37    9.80
   0  17  -3  271.77   10.90
   0  17   3  260.17    9.80
   0  17  -3  275.87    9.80
   0  17   3  274.77    9.90
   0  17  -3  281.87   10.20
  -1  17   3  399.96   13.90
   1  17  -3  389.06   14.30
  -1 -17  -3  379.36   14.20
  -1  17   3  387.56   13.70
   1  17  -3  375.86   13.50
  -1 -17  -3  377.66   14.10
   1  17  -3  375.26   13.70
  -1 -17  -3  371.16   13.50
   1  17  -3  382.46   14.40
   1  17   3  386.46   13.10
   1 -17  -3  390.26   13.70
   1  17   3  384.86   13.70
   1  17   3  358.26   13.00
  -1  17  -3  385.36   14.00
  -1 -17   3  373.76   13.50
  -1  17  -3  370.86   14.30
  -1  17  -3  389.36   14.60
   1 -17  -3  386.16   14.30
  -2 -17  -3   12.60    1.70
  -2 -17  -3   10.40    1.10
   2 -17   3   12.60    1.20
  -2 -17  -3   10.80    1.30
  -2  17   3   12.60    1.30
   2  17  -3   12.40    1.30
   2  17  -3   11.10    1.50
  -2  17   3    9.50    1.50
   2  17  -3   12.00    1.20
   2  17  -3   14.30    1.50
   2  17  -3   12.10    1.50
   2  17   3   10.90    0.90
   2  17   3   12.90    1.60
   2  17   3   10.40    1.00
   2 -17  -3   10.50    1.10
  -2 -17   3   12.00    1.00
   2 -17  -3   11.60    1.60
   2 -17  -3   12.10    0.90
   2  17   3   11.20    1.30
  -2  17  -3    8.40    1.30
  -2  17  -3   10.50    1.60
  -2  17  -3    9.40    1.50
   3  17  -3   16.80    1.70
   3  17  -3   15.60    1.80
   3  17  -3   15.40    1.70
  -3 -17  -3   15.90    2.10
  -3  17   3   15.90    2.10
   3  17  -3   16.50    2.00
  -3 -17  -3   14.00    1.60
   3 -17   3   17.60    1.40
  -3  17   3   17.20    1.80
  -3  17   3   15.50    2.30
   3  17   3   15.20    1.90
  -3 -17   3   14.40    1.20
   3  17   3   16.50    1.60
  -3  17  -3   16.30    2.10
   3  17   3   13.40    1.60
   3 -17  -3   14.30    1.20
   3 -17  -3   15.10    2.00
  -3  17  -3   14.10    2.00
   3 -17  -3   17.60    1.30
  -4  17   3   56.29    4.10
   4  17  -3   58.99    3.50
   4  17  -3   53.49    3.70
   4  17  -3   50.99    3.20
  -4 -17  -3   51.59    3.80
  -4 -17  -3   50.49    3.20
  -4  17   3   57.39    4.10
   4 -17   3   63.29    3.20
  -4 -17   3   50.79    2.80
  -4  17  -3   48.60    3.50
   4  17   3   52.19    3.40
   4  17   3   55.49    3.70
   4 -17  -3   52.49    3.50
  -4  17  -3   48.50    3.60
   4 -17  -3   54.69    2.80
   4  17   3   58.99    3.70
   5  17  -3   29.70    2.90
  -5 -17  -3   29.50    3.00
  -5  17   3   32.40    3.70
  -5  17   3   33.00    3.90
   5  17  -3   26.30    2.90
   5 -17   3   28.70    2.20
   5  17   3   28.20    2.90
   5  17   3   28.90    3.20
   5 -17  -3   29.10    2.10
   5  17   3   26.70    3.00
  -5  17  -3   24.80    3.20
   5 -17  -3   29.80    3.00
  -5 -17   3   27.80    2.10
  -6 -17  -3   23.70    2.90
   6 -17   3   22.80    2.50
   6  17  -3   22.30    2.70
   6  17  -3   25.40    3.00
  -6  17  -3   23.50    3.40
  -6 -17   3   23.50    3.10
   6  17   3   19.70    2.90
   6 -17  -3   20.60    2.20
   6  17   3   23.10    3.40
   6  17   3   20.20    2.80
   0  18  -3   13.50    1.00
   0 -18  -3   11.60    0.90
   0 -18  -3   10.80    1.30
   0  18   3    9.50    0.80
   0  18  -3   13.20    1.40
   0  18  -3   11.00    1.20
   0 -18  -3   10.50    1.40
   0  18   3   11.50    0.90
   0  18   3   11.30    0.80
   0  18  -3   11.90    1.70
   1  18  -3  194.38    8.10
  -1 -18  -3  191.78    7.80
  -1  18   3  198.88    7.70
   1  18  -3  194.38    7.50
   1  18  -3  194.38    8.10
   1  18  -3  201.18    7.30
  -1  18   3  204.58    7.50
  -1 -18  -3  198.38    8.00
  -1 -18  -3  195.38    7.30
   1  18   3  209.68    7.00
  -1  18  -3  191.08    8.40
   1  18   3  189.88    6.80
  -1 -18   3  192.98    7.40
   1  18   3  191.08    7.50
  -1  18  -3  207.98    8.30
   1 -18  -3  196.58    8.20
  -1  18  -3  199.38    7.90
   1 -18  -3  200.58    7.60
   2  18  -3  212.98    8.40
  -2  18   3  217.88    8.30
  -2 -18  -3  205.28    8.20
  -2  18   3  204.28    8.70
   2  18  -3  208.48    8.10
   2 -18   3  224.98    8.10
   2  18  -3  210.08    8.50
  -2 -18  -3  210.48    8.10
   2  18  -3  217.88    8.80
  -2 -18  -3  213.48    8.90
   2  18  -3  219.98    8.10
   2  18   3  216.28    8.60
  -2  18  -3  218.18    8.70
   2  18   3  207.68    7.90
   2  18   3  207.58    7.60
  -2  18  -3  201.78    9.00
   2 -18  -3  212.28    7.80
  -2 -18   3  217.08    7.90
   2  18   3  202.68    8.30
  -2  18  -3  206.88    9.00
   2 -18  -3  214.48    8.80
   2 -18  -3  213.98    7.90
   3  18  -3   12.50    1.60
   3 -18   3   11.80    1.30
   3  18  -3   13.50    1.50
  -3 -18  -3   12.60    1.90
  -3  18   3   12.00    2.10
  -3 -18  -3    9.60    1.30
  -3  18   3   14.50    2.10
  -3  18   3   10.10    1.60
   3  18  -3   11.00    1.50
   3  18  -3   11.90    1.70
   3  18   3   15.70    1.50
  -3 -18   3   13.30    1.20
   3 -18  -3   14.40    1.20
   3 -18  -3   13.00    1.30
   3  18   3   13.20    1.80
  -3  18  -3   14.70    2.10
   3  18   3   13.80    1.70
  -3  18  -3   13.20    1.90
   3 -18  -3   11.90    1.90
   4  18  -3  268.17   10.60
  -4 -18  -3  259.37   11.10
   4  18  -3  272.27   11.00
   4  18  -3  239.38   10.10
  -4 -18  -3  243.88   10.20
  -4  18   3  253.47   11.40
  -4  18   3  243.58   11.20
   4 -18   3  257.77    9.90
   4  18   3  252.67   10.80
  -4  18  -3  253.17   11.00
   4  18   3  252.27   10.50
   4 -18  -3  262.37    9.70
   4  18   3  250.37   10.70
  -4  18  -3  267.77   11.00
  -4 -18   3  242.18    9.70
   4 -18  -3  262.37   10.80
   5  18  -3  103.89    5.30
   5 -18   3  107.49    5.10
  -5  18   3  109.39    6.40
   5  18  -3  110.09    5.70
  -5  18   3   99.09    6.40
  -5 -18  -3  101.09    5.40
   5  18   3  111.89    5.80
   5  18   3  106.99    5.90
   5 -18  -3   97.79    5.60
   5 -18  -3  106.39    4.90
   5  18   3  106.69    6.00
  -5 -18   3  101.49    4.90
  -5  18  -3  107.39    6.30
  -6 -18  -3    5.80    1.50
   6  18  -3    9.80    1.80
   6 -18   3    8.50    1.50
   6  18  -3    9.00    1.90
   6  18   3    7.70    2.00
   6  18   3   10.20    2.00
   6 -18  -3    9.90    1.70
  -6  18  -3   10.70    2.40
  -6 -18   3    9.10    2.00
   6  18   3    8.50    2.10
   0 -19  -3  197.48    8.30
   0  19  -3  205.28    8.40
   0 -19  -3  201.48    7.50
   0  19   3  207.48    7.60
   0  19  -3  215.48    8.70
   0  19   3  209.18    7.40
   0  19   3  190.88    7.40
   0 -19  -3  201.18    8.00
   0  19  -3  206.48    7.90
   1  19  -3   72.59    3.80
  -1  19   3   65.99    3.20
   1  19  -3   71.99    3.70
  -1 -19  -3   71.09    3.70
  -1  19   3   75.39    3.40
  -1 -19  -3   67.19    3.50
   1  19  -3   68.49    3.20
  -1 -19  -3   71.19    3.10
   1  19  -3   71.79    3.10
  -1  19  -3   70.99    4.10
  -1  19  -3   70.39    3.80
   1 -19  -3   68.49    3.20
   1  19   3   73.29    3.30
  -1  19  -3   68.89    3.50
  -1 -19   3   71.39    3.10
   1 -19  -3   69.79    3.80
   2  19  -3   92.39    4.30
  -2 -19  -3   93.49    4.70
  -2  19   3   91.89    4.20
   2  19  -3   95.69    4.70
  -2 -19  -3   92.79    4.00
   2 -19   3   97.39    4.00
  -2  19   3   93.89    4.60
   2  19  -3   90.19    4.00
  -2 -19  -3   89.09    4.20
   2  19  -3   86.29    4.30
   2  19  -3   92.29    4.10
  -2  19   3   90.09    5.10
   2  19   3   89.19    4.50
   2  19   3   95.69    3.90
  -2  19  -3   87.89    4.90
   2 -19  -3   95.09    4.00
   2  19   3   89.09    3.60
   2 -19  -3   95.89    4.80
  -2  19  -3   94.99    4.70
   2  19   3   91.69    4.30
  -2  19  -3   95.09    5.00
   2  19   3   98.29    4.60
  -2 -19   3   95.29    4.00
   2 -19  -3   91.79    3.80
   3  19  -3   17.90    1.90
   3 -19   3   19.00    1.50
  -3  19   3   21.20    2.80
  -3 -19  -3   17.80    1.50
  -3  19   3   19.70    2.10
   3  19  -3   17.60    1.80
   3  19  -3   18.30    2.00
  -3 -19  -3   16.80    2.30
  -3 -19   3   19.50    1.40
   3 -19  -3   17.80    1.30
  -3  19  -3   18.60    2.40
   3  19   3   19.60    2.30
   3  19   3   16.20    1.90
  -3  19  -3   21.10    2.40
   3 -19  -3   17.00    2.20
   3  19   3   17.20    1.60
   4  19  -3  231.88   10.20
   4 -19   3  228.38    9.20
  -4  19   3  247.78   10.70
  -4 -19  -3  221.88    9.40
   4  19  -3  237.18    9.50
  -4  19   3  227.98   10.70
   4  19  -3  240.58    9.90
  -4 -19   3  222.18    8.90
  -4  19  -3  231.08   10.30
   4  19   3  229.48    9.80
   4 -19  -3  228.88    9.90
  -4  19  -3  252.07   10.30
   4 -19  -3  226.38    8.90
   4  19   3  226.28    9.70
   4  19   3  228.58   10.00
  -5  19   3   36.60    4.00
   5  19  -3   35.30    2.80
   5  19  -3   35.90    3.40
  -5 -19  -3   34.40    2.80
   5  19  -3   35.80    4.50
   5 -19   3   36.20    2.60
  -5  19   3   41.40    3.90
   5  19   3   35.60    3.70
  -5 -19   3   35.20    2.40
  -5  19  -3   37.00    3.90
  -5  19  -3   35.00    3.50
   5 -19  -3   36.90    3.10
   5  19   3   31.00    3.10
   5  19   3   38.40    3.20
   5 -19  -3   38.80    2.50
   6  19  -3   33.40    3.60
   6 -19   3   31.80    2.60
   6  19  -3   29.70    3.10
  -6 -19  -3   27.30    3.00
   6  19   3   32.70    3.90
  -6  19  -3   35.80    4.20
  -6 -19   3   36.00    3.70
   6  19   3   31.50    3.50
   0  20   3    9.10    0.80
   0  20  -3   10.90    1.20
   0  20   3    8.30    0.80
   0 -20  -3    9.10    1.20
   0 -20  -3    9.60    1.40
   0  20  -3    8.50    1.50
   0  20   3    9.00    1.00
   0  20  -3   11.60    1.60
   0 -20  -3    9.70    0.90
  -1 -20  -3  102.49    4.90
  -1 -20  -3  114.99    5.10
   1  20  -3  112.89    4.70
  -1  20   3  116.19    4.80
   1  20  -3  101.59    5.20
   1  20  -3  106.49    5.20
  -1  20   3  114.49    4.70
   1  20  -3  110.09    4.40
  -1 -20  -3  111.69    4.50
   1  20   3  116.79    5.50
  -1  20  -3  125.59    5.20
   1  20   3  106.19    4.90
  -1  20  -3  104.39    5.30
   1  20   3  107.89    4.60
   1 -20  -3  116.79    5.40
  -1  20  -3  113.59    5.70
  -1 -20   3  111.69    4.60
   1  20   3  117.09    4.80
   1 -20  -3  114.19    4.70
   2  20  -3   63.49    3.50
   2  20  -3   63.49    3.10
   2  20  -3   68.09    3.10
  -2 -20  -3   66.39    3.40
  -2 -20  -3   69.49    3.20
  -2  20   3   67.29    3.30
  -2 -20  -3   59.59    3.70
   2  20  -3   64.89    3.40
   2  20  -3   71.39    3.80
  -2  20   3   62.39    4.20
   2 -20   3   63.19    3.10
  -2  20   3   59.09    3.50
  -2  20  -3   57.29    3.40
   2  20   3   63.09    2.70
   2 -20  -3   58.69    2.70
  -2 -20   3   56.79    2.80
  -2  20  -3   61.89    3.80
   2 -20  -3   60.69    3.70
   2  20   3   57.79    3.20
   2  20   3   61.19    3.40
   2  20   3   57.49    2.50
   2 -20  -3   61.49    2.90
   2  20   3   56.89    3.60
   3  20  -3    7.60    1.20
   3  20  -3    5.80    1.20
  -3 -20  -3    6.20    1.10
  -3 -20  -3    6.70    1.40
  -3  20   3    7.50    1.80
   3  20  -3    6.60    1.40
  -3  20   3    8.90    1.60
   3 -20   3    5.90    1.00
  -3  20  -3    6.80    1.60
   3 -20  -3    9.00    1.10
   3 -20  -3    6.70    1.40
   3  20   3    7.90    1.50
  -3 -20   3    5.80    0.90
  -3  20  -3    7.40    1.50
   3  20   3    6.60    1.20
   3  20   3    5.60    1.10
   4  20  -3   29.20    2.30
  -4  20   3   32.20    3.10
   4 -20   3   34.20    2.30
   4  20  -3   30.50    2.70
   4  20  -3   31.00    2.60
  -4  20   3   28.50    3.40
  -4 -20  -3   32.70    2.40
   4 -20  -3   35.20    2.90
  -4  20  -3   32.50    3.40
   4  20   3   37.30    2.80
  -4  20  -3   35.80    3.50
  -4 -20   3   29.30    2.10
   4 -20  -3   34.10    2.10
   4  20   3   32.00    2.60
   4  20   3   34.20    3.30
   5  20  -3   40.80    3.30
  -5  20   3   35.40    4.00
  -5  20   3   43.50    4.00
   5  20  -3   36.70    2.90
   5 -20   3   36.80    2.70
  -5 -20  -3   38.70    2.90
   5  20  -3   36.60    3.40
   5  20   3   39.90    3.40
   5 -20  -3   36.40    3.20
  -5  20  -3   38.00    3.70
   5  20   3   36.00    3.60
  -5 -20   3   38.00    2.60
   5 -20  -3   36.70    2.50
  -5  20  -3   45.60    3.80
   5  20   3   39.10    3.80
   0  21   3  112.19    4.70
   0 -21  -3  117.29    5.10
   0  21  -3  109.99    5.00
   0  21   3  109.99    4.40
   0 -21  -3  110.59    5.40
   0  21   3  119.59    4.40
   0 -21  -3  117.79    4.60
   0  21  -3  112.99    5.60
   0  21   3  109.49    5.70
   0  21  -3  129.89    5.50
  -1  21   3  305.97   11.50
  -1  21   3  305.57   11.50
  -1  21   3  313.47   12.80
   1  21  -3  327.07   12.20
  -1 -21  -3  314.87   11.30
   1  21  -3  314.37   12.20
   1  21  -3  308.57   11.50
  -1 -21  -3  299.07   11.90
  -1 -21  -3  303.97   11.90
   1  21   3  314.67   11.40
   1 -21  -3  307.27   12.10
   1  21   3  303.57   12.20
   1  21   3  317.17   11.60
  -1  21  -3  294.97   12.10
   1  21   3  304.17   11.20
  -1  21  -3  299.47   11.70
  -1 -21   3  312.97   11.20
  -1  21  -3  302.77   12.40
   1 -21  -3  308.67   11.30
  -2  21   3   63.39    3.30
   2  21  -3   57.49    3.00
   2  21  -3   70.79    3.80
  -2  21   3   64.39    4.30
   2  21  -3   59.59    3.00
  -2 -21  -3   63.29    3.10
   2 -21   3   64.59    3.10
   2  21  -3   68.09    3.40
  -2 -21  -3   63.29    3.70
   2  21  -3   66.39    3.60
  -2  21   3   62.99    3.60
  -2 -21   3   52.79    2.80
   2  21   3   58.29    2.60
   2 -21  -3   62.59    3.70
   2  21   3   57.59    2.40
  -2  21  -3   56.79    3.70
  -2  21  -3   56.49    3.40
   2  21   3   60.69    3.20
  -2  21  -3   59.89    3.80
   2  21   3   56.29    3.30
  -3  21   3   13.40    2.20
  -3 -21  -3   16.10    2.20
   3  21  -3   14.50    2.00
  -3  21   3   12.50    1.90
   3  21  -3   14.70    1.60
  -3 -21  -3   13.70    1.60
   3  21  -3   13.40    1.70
   3 -21   3   13.20    1.40
   3  21   3   11.20    1.60
  -3  21  -3   19.50    2.50
   3 -21  -3   16.20    1.30
   3  21   3   14.40    1.40
   3  21   3   13.70    1.90
  -3 -21   3   12.30    1.30
   3 -21  -3   14.00    1.90
  -3  21  -3   12.60    2.00
   4  21  -3   46.00    3.00
   4  21  -3   47.90    3.30
   4 -21   3   47.80    2.80
  -4  21   3   46.70    4.00
  -4 -21  -3   43.90    2.90
   4  21  -3   42.00    3.30
  -4  21   3   42.60    3.60
  -4 -21   3   48.50    2.70
   4 -21  -3   46.00    3.40
   4  21   3   43.00    3.40
   4 -21  -3   48.00    2.70
  -4  21  -3   48.40    3.70
   4  21   3   46.00    3.30
   4  21   3   48.50    3.20
  -4  21  -3   48.70    3.70
  -5  21   3   46.00    4.20
   5  21  -3   43.60    3.70
  -5 -21  -3   45.00    3.20
  -5  21   3   54.49    5.10
   5  21  -3   41.00    3.10
   5 -21   3   47.00    3.00
   5  21  -3   48.80    3.70
   5 -21  -3   42.60    3.50
   5  21   3   48.20    3.60
   5  21   3   43.50    4.20
  -5 -21   3   44.40    2.80
   5  21   3   44.50    3.60
   5 -21  -3   43.40    2.70
  -5  21  -3   44.90    3.70
  -5  21  -3   45.40    4.60
   0  22   3    6.40    0.70
   0  22  -3    9.20    1.60
   0  22   3    7.10    0.90
   0  22  -3    7.50    1.10
   0 -22  -3    7.40    0.90
   0  22   3    6.50    0.70
   0 -22  -3    6.90    1.10
   0 -22  -3    7.80    1.40
   0  22  -3    4.80    1.00
   0  22   3    6.10    1.50
  -1  22   3  100.59    4.40
  -1 -22  -3  100.39    4.80
  -1 -22  -3  101.19    4.80
   1  22  -3   96.89    5.00
  -1  22   3   98.99    5.50
   1  22  -3   98.29    4.90
  -1 -22  -3  105.59    4.20
  -1  22   3   93.09    4.40
   1  22  -3  101.29    4.50
  -1  22  -3   93.29    5.20
  -1  22  -3  103.29    5.10
   1  22   3   99.09    4.30
   1 -22  -3   99.39    4.40
   1  22   3   93.79    4.60
   1  22   3  107.69    4.60
  -1  22  -3  104.79    4.90
   1  22   3  105.09    5.30
  -1 -22   3  100.19    4.30
   1 -22  -3  105.79    5.20
   2  22  -3  210.28    8.40
  -2 -22  -3  204.58    8.80
  -2  22   3  210.08    8.70
  -2  22   3  206.58    9.50
  -2  22   3  205.88    8.30
   2  22  -3  200.68    8.50
   2  22  -3  219.18    8.00
  -2 -22  -3  212.28    8.00
   2 -22   3  199.38    7.90
   2  22  -3  199.18    8.00
   2  22  -3  210.98    8.80
  -2  22  -3  219.98    9.40
   2  22   3  209.98    8.70
  -2 -22   3  220.48    8.20
  -2  22  -3  215.18    9.40
   2  22   3  209.38    8.50
   2  22   3  213.98    7.70
   2  22   3  199.38    7.50
  -2  22  -3  204.78    8.90
   2 -22  -3  217.78    9.20
  -3 -22  -3   73.19    3.60
  -3 -22  -3   68.99    4.30
   3 -22   3   74.39    3.50
   3  22  -3   66.89    3.90
   3  22  -3   75.89    4.20
  -3  22   3   67.59    4.80
  -3  22   3   64.99    4.20
   3  22  -3   67.99    3.60
   3  22   3   75.29    3.60
   3 -22  -3   70.99    3.30
  -3  22  -3   68.09    4.40
   3  22   3   65.79    4.00
  -3  22  -3   68.79    4.30
   3 -22  -3   74.29    4.40
   3  22   3   70.09    3.90
  -3 -22   3   69.39    3.40
  -4  22   3   95.69    6.10
   4 -22   3   96.79    4.70
   4  22  -3  110.89    5.70
  -4  22   3  107.39    6.10
   4  22  -3   95.19    4.90
  -4 -22  -3   99.49    4.90
   4  22  -3  105.59    5.50
   4  22   3  104.19    5.50
   4  22   3   93.29    5.50
  -4 -22   3   98.39    4.60
  -4  22  -3  106.89    5.90
  -4  22  -3   95.59    5.70
   4 -22  -3  102.69    5.60
   4 -22  -3  107.39    4.60
   4  22   3  107.19    5.30
   5 -22   3  140.29    6.40
  -5 -22  -3  139.89    6.60
  -5  22   3  145.39    8.00
   5  22  -3  137.99    6.70
   5  22  -3  140.09    7.20
  -5  22   3  137.99    8.00
   5  22  -3  144.99    7.40
  -5 -22   3  134.99    6.00
   5 -22  -3  127.69    6.90
   5  22   3  135.79    7.20
   5 -22  -3  140.49    6.00
  -5  22  -3  128.89    7.40
  -5  22  -3  132.49    7.20
   5  22   3  140.99    7.00
   5  22   3  129.49    6.90
   0  23   3  108.39    4.20
   0  23   3  101.79    4.20
   0  23  -3  106.89    5.50
   0 -23  -3  114.59    5.30
   0  23   3  107.99    4.60
   0 -23  -3  105.59    4.90
   0  23  -3  113.19    5.40
   0 -23  -3  112.79    4.50
   0  23  -3  112.09    5.00
   0  23   3  110.19    5.80
   1  23  -3   78.79    4.30
  -1  23   3   75.09    3.60
  -1  23   3   76.29    4.70
  -1 -23  -3   75.19    3.40
   1  23  -3   74.79    3.70
  -1  23   3   76.39    3.60
  -1 -23  -3   77.39    4.00
   1  23  -3   75.89    4.10
  -1 -23  -3   72.69    3.90
  -1  23  -3   75.69    3.90
  -1 -23   3   75.69    3.50
   1  23   3   73.09    3.60
   1  23   3   71.29    3.70
   1  23   3   71.39    4.30
  -1  23  -3   80.09    4.30
   1 -23  -3   69.29    4.10
   1  23   3   72.69    3.40
  -1  23  -3   73.59    4.40
   2  23  -3  162.08    6.70
  -2  23   3  159.88    7.10
  -2 -23  -3  166.38    7.30
   2  23  -3  173.98    6.90
   2  23  -3  162.48    6.60
   2  23  -3  160.18    7.00
   2 -23   3  157.58    6.40
  -2  23   3  168.78    8.10
   2  23  -3  145.39    7.10
  -2  23   3  162.58    6.80
  -2 -23  -3  155.78    6.40
   2 -23  -3  153.48    7.40
  -2  23  -3  166.38    7.80
   2  23   3  154.08    5.80
  -2  23  -3  192.98    8.10
   2  23   3  164.18    7.00
   2  23   3  156.08    7.10
  -2  23  -3  168.08    7.40
  -2 -23   3  160.48    6.50
   2  23   3  161.38    6.00
  -3  23   3    8.20    2.10
   3 -23   3    6.00    1.00
  -3  23   3    6.10    1.50
   3  23  -3    5.90    1.30
  -3 -23  -3    4.80    1.30
  -3 -23  -3    6.20    1.10
   3  23  -3    4.30    1.20
   3  23  -3    6.20    1.00
   3  23  -3    6.80    1.20
  -3  23  -3    6.50    1.60
   3  23   3    5.10    1.20
  -3 -23   3    5.90    1.00
  -3  23  -3    3.70    1.20
   3  23   3    9.10    1.20
   3 -23  -3    6.20    1.50
   3 -23  -3    6.50    1.00
   3  23   3    6.90    1.50
  -4  23   3   30.90    3.80
   4  23  -3   28.00    2.80
  -4  23   3   28.60    3.00
  -4 -23  -3   27.40    2.20
   4  23  -3   28.30    2.30
   4 -23   3   28.30    2.10
   4  23  -3   27.90    2.70
   4  23   3   25.60    2.80
  -4 -23   3   25.10    1.90
   4  23   3   30.40    3.30
   4 -23  -3   26.60    1.90
  -4  23  -3   31.20    3.50
  -4  23  -3   26.70    3.20
   4 -23  -3   27.20    3.10
   4  23   3   29.70    2.40
   5  23  -3   29.20    3.00
  -5  23   3   27.80    3.70
   5 -23   3   22.90    2.30
   5  23  -3   31.80    3.40
   5  23  -3   26.30    2.80
  -5  23   3   29.80    3.80
  -5 -23  -3   30.00    2.50
   5 -23  -3   24.20    2.00
  -5  23  -3   27.40    3.60
   5  23   3   29.00    3.20
   5  23   3   24.20    3.10
  -5 -23   3   30.30    2.20
   5  23   3   25.90    2.70
  -5  23  -3   30.90    3.60
   5 -23  -3   27.30    3.20
   0  24   3    2.30    1.20
   0  24   3    3.50    0.50
   0 -24  -3    4.20    1.00
   0  24  -3    3.80    1.00
   0 -24  -3    3.60    0.70
   0 -24  -3    3.40    1.10
   0  24   3    3.80    0.60
   0  24  -3    4.10    0.90
   0  24   3    5.30    0.90
   0  24  -3    3.50    1.20
   1  24  -3   91.59    4.80
  -1  24   3   91.19    4.20
  -1 -24  -3   89.89    4.50
  -1 -24  -3   90.99    4.50
   1  24  -3   85.19    4.50
  -1  24   3   95.89    5.40
   1  24  -3   88.09    4.20
  -1 -24  -3   87.99    3.90
  -1  24   3   84.79    4.10
   1 -24  -3   94.99    4.80
   1  24   3   82.29    4.00
   1  24   3   85.59    3.90
   1  24   3   89.99    4.90
  -1  24  -3   88.09    5.00
   1  24   3   86.49    4.20
  -1  24  -3   82.59    4.30
  -1  24  -3   80.69    4.60
  -1 -24   3   87.29    3.90
  -2  24   3   67.49    3.60
   2  24  -3   70.79    3.90
  -2 -24  -3   67.09    4.00
  -2 -24  -3   66.79    3.30
  -2  24   3   68.59    4.70
   2  24  -3   65.69    3.70
   2 -24   3   67.49    3.30
   2  24  -3   74.69    4.10
  -2  24   3   66.29    3.90
   2  24  -3   71.99    3.50
  -2 -24   3   70.99    3.30
  -2  24  -3   64.79    3.90
   2  24   3   68.69    3.70
   2  24   3   68.89    3.80
   2  24   3   64.69    2.60
  -2  24  -3   64.69    4.30
   2  24   3   67.29    2.70
   2 -24  -3   67.59    4.10
  -2  24  -3   75.99    4.50
   3  24  -3  118.79    5.30
  -3 -24  -3  109.69    6.10
   3  24  -3  115.09    5.90
  -3  24   3  123.69    6.90
   3 -24   3  125.49    5.30
   3  24  -3  114.29    5.30
  -3 -24  -3  122.59    5.30
   3  24  -3  123.89    5.90
  -3  24   3  121.19    6.20
   3  24   3  115.59    6.00
  -3  24  -3  117.79    6.30
  -3  24  -3  125.39    6.60
   3  24   3  122.19    5.90
   3  24   3  121.19    5.20
  -3 -24   3  121.99    5.30
   3 -24  -3  126.39    6.30
   3 -24  -3  126.39    5.20
   4  24  -3   16.90    2.00
  -4  24   3   12.90    2.30
  -4  24   3   13.80    2.70
   4 -24   3   17.60    1.90
   4  24  -3   16.20    2.20
   4  24  -3   12.20    2.10
  -4 -24  -3   14.70    1.80
   4  24   3   18.50    2.40
  -4  24  -3   18.80    2.80
  -4  24  -3   15.70    2.50
   4 -24  -3   15.80    1.70
   4 -24  -3   16.50    2.40
   4  24   3   17.60    2.50
   4  24   3   16.40    1.80
  -4 -24   3   16.10    1.70
  -5  24   3   70.69    5.40
  -5 -24  -3   64.49    3.90
   5 -24   3   71.19    3.80
  -5  24   3   63.99    5.10
   5  24  -3   59.39    4.40
   5  24  -3   61.79    4.40
   5  24  -3   65.59    4.00
  -5  24  -3   62.19    4.70
   5  24   3   61.89    4.30
  -5  24  -3   63.19    4.80
  -5 -24   3   66.89    3.60
   5  24   3   60.39    4.50
   5 -24  -3   62.29    3.50
   5 -24  -3   66.89    4.60
   5  24   3   65.09    4.20
   0  25  -3    0.70    0.60
   0  25   3    0.90    0.30
   0 -25  -3    0.80    0.70
   0  25  -3    0.90    0.50
   0 -25  -3    0.60    0.40
   0 -25  -3    0.20    0.70
   0  25   3    0.40    0.30
   0  25   3    0.50    0.40
   0  25  -3    0.10    0.80
   0  25   3    0.70    0.90
  -1 -25  -3  218.78    8.80
  -1  25   3  216.08    8.40
  -1  25   3  205.38    9.70
  -1 -25  -3  206.08    8.70
  -1  25   3  213.68    8.30
   1  25  -3  214.58    9.10
  -1 -25  -3  210.88    8.10
   1  25  -3  207.48    8.40
   1  25  -3  198.98    8.80
   1  25   3  205.18    9.30
   1  25   3  208.68    8.50
  -1  25  -3  210.88    8.80
   1 -25  -3  215.18    9.10
  -1  25  -3  219.78    9.20
   1  25   3  208.18    8.20
   1  25   3  206.28    8.40
  -1  25  -3  212.68    9.50
  -1 -25   3  208.78    8.20
   2  25  -3   34.20    2.60
  -2 -25  -3   30.50    2.60
   2  25  -3   30.50    2.30
  -2  25   3   32.20    2.50
  -2  25   3   26.90    3.30
  -2  25   3   31.80    2.30
   2  25  -3   30.50    2.10
   2  25  -3   32.60    2.60
  -2 -25  -3   32.50    2.00
  -2  25  -3   27.50    2.70
   2  25   3   33.40    2.50
  -2 -25   3   31.10    1.90
   2 -25  -3   25.00    2.70
   2  25   3   29.30    2.20
  -2  25  -3   32.40    2.60
  -2  25  -3   29.10    3.10
  -3 -25  -3    6.00    1.00
   3 -25   3    5.70    1.00
   3  25  -3    6.10    1.30
   3  25  -3    4.70    1.30
  -3  25   3    4.60    1.30
   3  25  -3    6.00    1.30
  -3 -25  -3    8.10    1.70
   3  25  -3    7.60    1.10
  -3  25   3    4.60    1.70
   3  25   3    6.90    1.00
   3  25   3    4.40    1.20
  -3 -25   3    6.20    1.00
   3 -25  -3    7.60    1.60
  -3  25  -3    5.60    1.50
   3 -25  -3    7.50    1.10
  -3  25  -3    7.50    1.80
   3  25   3    5.80    1.50
   4  25  -3    8.90    1.50
   4  25  -3    8.80    1.80
   4 -25   3   10.00    1.50
  -4  25   3   13.10    2.70
  -4 -25  -3    8.90    1.40
   4  25  -3   12.60    1.90
  -4  25   3    7.20    1.80
   4 -25  -3    9.30    1.90
  -4 -25   3    6.20    1.20
   4  25   3    9.30    1.80
  -4  25  -3    7.40    1.90
   4 -25  -3    8.40    1.20
   4  25   3   11.30    1.90
   4  25   3    9.80    1.50
  -4  25  -3    9.70    2.00
   5  25  -3   79.69    5.10
  -5  25   3   75.99    5.60
  -5  25   3   84.49    6.00
   5  25  -3   90.09    5.30
   5 -25   3   77.09    4.20
   5  25  -3   81.09    4.60
  -5 -25  -3   82.29    4.50
   5  25   3   75.89    5.30
   5 -25  -3   91.59    5.50
   5  25   3   91.39    5.10
   5 -25  -3   84.19    5.20
  -5  25  -3   89.79    5.70
  -5 -25   3   78.39    4.30
  -5  25  -3   84.09    5.70
   5  25   3   88.49    5.30
   0  26   3    1.90    0.50
   0  26  -3    2.70    0.90
   0 -26  -3    1.40    0.90
   0  26  -3    0.70    1.00
   0 -26  -3    2.70    0.60
   0  26   3    2.90    0.70
   0  26   3    2.10    1.20
   0  26  -3    2.60    0.80
  -1  26   3   63.09    4.30
   1  26  -3   63.39    3.60
   1  26  -3   54.69    3.70
  -1 -26  -3   59.19    2.90
  -1 -26  -3   55.09    3.40
  -1 -26  -3   64.79    3.60
  -1  26   3   60.69    3.20
   1  26  -3   52.89    3.10
  -1  26   3   55.19    3.10
  -1  26  -3   52.19    3.80
  -1 -26   3   51.09    2.80
   1  26   3   52.79    3.70
  -1  26  -3   59.29    3.70
   1 -26  -3   56.19    3.60
   1  26   3   54.99    2.90
  -1  26  -3   51.09    3.30
   1  26   3   55.09    3.20
   1  26   3   52.59    3.00
  -2 -26  -3   54.19    2.80
  -2  26   3   51.99    3.30
   2  26  -3   50.89    2.90
  -2  26   3   51.79    3.20
  -2 -26  -3   53.29    3.50
   2  26  -3   46.90    3.30
   2  26  -3   49.00    3.10
   2  26  -3   43.70    3.20
  -2  26   3   46.10    3.90
   2  26   3   48.10    3.20
   2  26   3   50.59    3.10
  -2  26  -3   49.80    3.80
  -2  26  -3   52.09    3.50
   2 -26  -3   51.99    3.50
  -2  26  -3   52.59    3.80
  -2 -26   3   50.59    2.70
   3  26  -3  214.28    9.30
   3  26  -3  205.98    8.50
  -3 -26  -3  214.58    8.50
  -3 -26  -3  207.98    9.50
  -3  26   3  202.08    9.50
   3 -26   3  207.98    8.50
   3  26  -3  234.78    9.30
  -3  26   3  213.88   10.40
  -3  26  -3  228.58   10.20
   3 -26  -3  211.88    9.60
  -3 -26   3  215.48    8.50
   3 -26  -3  217.58    8.40
   3  26   3  203.28    8.10
  -3  26  -3  218.28    9.80
   3  26   3  223.18    9.50
   3  26   3  213.18    9.20
  -4  26   3   31.10    4.00
  -4  26   3   33.30    3.30
   4  26  -3   38.20    3.10
   4  26  -3   35.00    2.60
  -4 -26  -3   32.80    2.50
   4  26  -3   38.70    3.10
   4 -26   3   32.70    2.40
   4 -26  -3   34.50    2.30
   4 -26  -3   35.20    3.60
   4  26   3   36.50    2.60
  -4  26  -3   39.50    4.10
  -4 -26   3   34.50    2.40
  -4  26  -3   41.30    4.10
   4  26   3   29.30    3.30
   4  26   3   38.10    3.60
   5 -26   3    0.30    0.60
   5  26  -3   -0.20    0.80
   5  26  -3   -0.60    0.80
  -5  26   3    0.10    1.50
   5  26  -3    0.30    1.10
  -5  26   3   -0.90    1.10
  -5 -26  -3    0.30    0.70
   5  26   3    0.60    1.10
  -5  26  -3    0.40    1.20
   5  26   3    1.10    0.80
  -5  26  -3    1.10    1.30
  -5 -26   3    0.50    0.60
   5  26   3   -0.70    1.00
   5 -26  -3   -1.00    1.00
   0 -27  -3   49.80    3.30
   0 -27  -3   41.70    2.40
   0  27  -3   47.90    3.20
   0  27  -3   54.99    3.70
   0  27  -3   50.69    3.00
   0  27   3   47.50    2.20
   0  27   3   55.19    3.90
   0  27   3   46.60    2.70
   1  27  -3  121.19    5.90
  -1  27   3  126.49    6.90
  -1  27   3  122.69    5.40
  -1 -27  -3  126.29    5.20
   1  27  -3  120.39    5.50
  -1 -27  -3  120.49    5.80
  -1 -27  -3  120.49    5.80
   1  27  -3  126.19    6.30
  -1  27   3  121.79    5.50
   1  27   3  124.19    6.30
   1  27   3  119.99    5.50
  -1  27  -3  125.19    5.90
   1  27   3  125.39    5.60
  -1 -27   3  115.99    5.20
  -1  27  -3  124.19    6.50
   1 -27  -3  118.29    6.00
   1  27   3  129.79    5.30
  -1  27  -3  112.29    6.10
   2  27  -3   20.30    1.80
  -2  27   3   25.00    2.20
   2  27  -3   21.20    2.40
  -2 -27  -3   25.30    2.60
  -2 -27  -3   19.80    1.60
  -2  27   3   21.50    3.00
   2  27  -3   22.50    2.20
   2  27  -3   22.90    2.30
   2  27   3   19.20    2.10
   2  27   3   23.20    2.40
  -2  27  -3   28.30    3.20
  -2  27  -3   25.10    2.80
   2 -27  -3   24.40    2.70
  -2  27  -3   22.90    2.80
   2  27   3   19.50    1.70
  -2 -27   3   23.00    1.70
   3  27  -3   23.60    2.50
  -3  27   3   23.80    2.50
  -3 -27  -3   21.90    1.80
   3 -27   3   22.70    1.80
   3  27  -3   23.90    2.40
   3  27  -3   22.00    1.90
  -3  27   3   21.40    3.20
  -3  27  -3   19.80    2.80
   3  27   3   24.70    2.60
   3 -27  -3   23.80    2.80
   3  27   3   20.20    1.50
  -3 -27   3   19.80    1.70
   3  27   3   18.50    2.40
  -3  27  -3   21.40    2.80
   4  27  -3   30.00    3.20
  -4  27   3   29.40    3.50
  -4 -27  -3   24.70    2.10
   4  27  -3   32.30    2.90
  -4  27   3   27.90    3.70
   4 -27   3   27.30    2.20
   4  27  -3   26.70    2.20
   4 -27  -3   22.00    2.90
  -4  27  -3   25.00    3.20
   4 -27  -3   25.80    2.00
  -4  27  -3   30.40    3.60
   4  27   3   24.60    3.00
  -4 -27   3   25.40    2.00
   4  27   3   25.80    3.10
   4  27   3   26.50    2.10
   0  28  -3    0.10    0.50
   0  28  -3    0.70    0.90
   0  28  -3    0.40    0.60
   0 -28  -3   -0.50    0.60
   0 -28  -3    0.70    0.50
   0  28   3   -0.40    0.80
   0  28   3    0.50    0.50
   0  28   3   -0.50    0.30
  -1  28   3  185.98    9.40
  -1  28   3  192.58    8.00
  -1 -28  -3  198.08    7.70
  -1 -28  -3  189.98    8.30
  -1  28   3  204.08    7.90
   1  28  -3  184.08    8.40
   1  28  -3  198.78    8.80
   1  28  -3  197.08    8.10
  -1  28  -3  196.08    8.90
  -1  28  -3  216.98    9.50
   1 -28  -3  200.38    8.80
   1  28   3  198.38    8.00
  -1  28  -3  198.58    8.60
   1  28   3  192.98    9.00
  -1 -28   3  186.58    7.80
   1  28   3  198.38    8.20
   2  28  -3   50.69    3.40
  -2 -28  -3   46.50    3.40
  -2 -28  -3   47.90    2.70
   2  28  -3   51.69    3.40
  -2  28   3   52.49    4.30
  -2  28   3   48.80    3.30
   2  28  -3   48.40    2.90
   2  28  -3   49.60    3.20
  -2  28  -3   58.59    4.00
  -2  28  -3   51.99    3.50
   2  28   3   46.40    3.10
  -2  28  -3   44.10    3.70
  -2 -28   3   47.60    2.70
   2  28   3   45.40    3.10
   2 -28  -3   48.60    3.60
   2  28   3   45.30    2.80
   3  28  -3  118.59    5.90
   3 -28   3  107.29    5.10
   3  28  -3  116.19    5.30
   3  28  -3  118.19    6.00
  -3  28   3  108.19    6.00
  -3  28   3  102.29    6.60
  -3 -28  -3  111.29    5.10
   3 -28  -3  109.39    6.00
  -3  28  -3  106.79    6.00
  -3  28  -3  111.89    6.40
   3  28   3  107.09    5.60
   3  28   3  106.99    5.70
  -3 -28   3  103.09    4.90
   3  28   3  103.79    4.30
   4 -28   3   14.60    1.80
   4  28  -3   15.20    2.40
  -4  28   3   12.80    2.70
   4  28  -3   11.50    1.70
  -4  28   3   14.30    2.40
   4  28  -3   13.80    2.20
  -4 -28  -3   13.90    1.80
  -4 -28   3   14.30    1.70
   4  28   3   12.40    2.10
   4 -28  -3   14.40    2.40
   4 -28  -3   15.80    1.70
   4  28   3   14.50    1.70
  -4  28  -3    8.30    2.00
  -4  28  -3   18.70    2.90
   4  28   3   14.70    2.40
   0  29  -3    2.60    0.90
   0  29  -3    2.50    0.90
   0  29  -3    2.40    1.20
   0  29   3    2.50    0.50
   0  29   3    0.90    0.60
   0  29   3    3.20    1.40
   0 -29  -3    2.70    1.10
   0 -29  -3    0.80    0.50
  -1 -29  -3  137.89    6.60
   1  29  -3  138.49    6.30
   1  29  -3  160.88    7.00
  -1  29   3  137.99    6.30
  -1  29   3  143.39    6.20
   1  29  -3  133.89    7.00
  -1  29   3  139.19    7.60
  -1 -29  -3  149.29    6.00
   1  29   3  149.59    6.30
  -1  29  -3  139.19    6.80
   1  29   3  143.59    7.40
  -1  29  -3  134.29    7.40
   1 -29  -3  156.58    7.30
  -1  29  -3  159.58    7.40
   1  29   3  148.79    6.50
  -1 -29   3  140.39    6.20
  -2 -29  -3   21.60    2.80
  -2  29   3   20.10    3.10
   2  29  -3   22.00    1.80
   2  29  -3   13.30    2.00
   2  29  -3   20.40    2.50
  -2 -29  -3   18.70    1.80
   2  29  -3   21.00    2.30
  -2  29   3   17.40    2.20
  -2  29  -3   19.50    2.80
  -2  29  -3   20.30    2.90
   2  29   3   19.60    2.30
  -2  29  -3   16.70    2.40
   2  29   3   23.40    2.80
   2 -29  -3   17.30    2.50
  -2 -29   3   18.50    1.90
   2  29   3   20.90    1.80
  -3 -29  -3   18.40    1.90
  -3  29   3   21.00    2.70
   3  29  -3   20.50    2.00
   3  29  -3   14.70    2.20
   3  29  -3   17.40    2.30
   3 -29   3   17.30    1.80
  -3  29   3   16.10    3.00
   3  29   3   20.70    2.60
  -3 -29   3   21.20    2.00
  -3  29  -3   17.10    2.70
   3  29   3   16.50    2.20
  -3  29  -3   17.90    2.60
   3 -29  -3   18.00    2.60
   3  29   3   16.30    1.20
   4 -29   3   10.80    1.60
  -4  29   3   10.90    2.20
  -4 -29  -3    9.80    1.50
  -4  29   3   10.10    2.60
   4  29  -3   10.50    1.50
   4  29  -3    9.90    1.90
   4  29  -3    7.50    1.80
   4  29   3   11.10    2.10
  -4  29  -3    9.50    2.30
   4 -29  -3   10.10    1.40
   4  29   3   10.70    2.00
   4  29   3    9.70    1.40
  -4  29  -3    8.00    2.00
  -4 -29   3    8.70    1.40
   4 -29  -3    5.60    1.60
   0  30   3   20.60    2.00
   0 -30  -3   19.00    2.40
   0  30  -3   19.40    2.10
   0  30   3   22.40    3.00
   0 -30  -3   24.30    1.70
   0  30  -3   17.80    2.10
   0  30   3   22.00    1.30
   0  30  -3   18.00    2.50
  -1  30   3   82.19    3.90
   1  30  -3   74.89    4.10
   1  30  -3   77.29    4.80
   1  30  -3   74.39    4.10
  -1  30   3   77.69    5.30
  -1  30   3   72.49    4.00
   1  30  -3   78.89    4.50
  -1 -30  -3   71.19    4.20
  -1 -30  -3   76.49    3.70
  -1  30  -3   79.69    4.50
   1 -30  -3   84.09    4.80
  -1  30  -3   73.89    4.70
   1  30   3   74.19    3.90
  -1  30  -3   76.19    5.00
   1  30   3   74.79    4.10
   1  30   3   79.99    5.00
  -1 -30   3   73.69    3.80
  -2  30   3   54.09    3.60
  -2 -30  -3   59.89    3.20
   2  30  -3   51.49    3.60
   2  30  -3   63.49    3.80
   2  30  -3   56.49    3.30
  -2  30   3   56.09    4.60
   2  30   3   55.79    3.50
  -2  30  -3   56.19    3.90
  -2  30  -3   48.50    4.00
  -2  30  -3   64.89    4.60
   2  30   3   52.19    3.10
   2 -30  -3   50.29    3.80
  -2 -30   3   57.29    3.10
  -3  30   3    7.50    1.70
  -3  30   3    8.40    2.40
   3  30  -3    3.80    1.00
   3  30  -3    4.30    1.40
  -3 -30  -3    5.40    1.10
   3  30  -3    5.80    1.40
   3 -30  -3    6.10    1.80
   3  30   3    5.30    1.40
   3  30   3    6.70    0.70
  -3  30  -3    7.80    2.10
   3  30   3    5.70    1.50
  -3  30  -3    4.40    1.40
  -3 -30   3    6.60    1.20
   4  30  -3   19.40    2.70
   4  30  -3   17.00    2.50
  -4  30   3   15.40    3.10
  -4 -30  -3   16.40    2.00
   4  30  -3   21.20    2.30
  -4  30   3   25.60    3.20
   4 -30   3   19.30    2.00
  -4  30  -3   21.90    3.30
  -4 -30   3   18.80    2.00
   4  30   3   18.10    2.60
   4  30   3   17.80    2.50
  -4  30  -3   15.40    2.70
   4 -30  -3   15.90    2.50
   4  30   3   20.30    1.70
   0  31  -3   90.09    5.00
   0  31  -3   83.39    4.70
   0  31   3   88.49    3.60
   0  31   3   93.69    4.50
   0  31   3   90.69    5.70
   0  31  -3   91.79    5.50
   0 -31  -3   84.99    5.00
  -1  31   3    7.50    2.00
  -1  31   3    9.30    1.50
   1  31  -3    7.00    1.70
  -1  31   3    8.90    1.30
   1  31  -3    7.90    1.60
  -1 -31  -3    9.90    1.30
  -1 -31  -3    8.90    1.60
   1  31  -3    6.30    1.30
   1  31  -3    4.80    1.20
  -1 -31   3    5.80    1.10
   1 -31  -3    7.40    1.70
  -1  31  -3   12.10    2.30
   1  31   3    6.70    1.20
  -1  31  -3    7.80    1.50
  -1  31  -3    7.10    1.60
   1  31   3    7.90    1.90
   1  31   3    9.70    1.50
   2  31  -3   34.90    2.70
  -2  31   3   36.30    4.30
   2  31  -3   33.30    2.50
  -2 -31  -3   30.90    2.20
   2  31  -3   34.10    2.90
  -2  31   3   29.70    2.60
  -2  31  -3   37.80    3.10
  -2  31  -3   29.80    3.20
  -2 -31   3   30.90    2.20
   2  31   3   33.60    2.40
  -2  31  -3   39.30    4.00
   2 -31  -3   34.10    3.50
   2  31   3   34.60    2.70
  -3 -31  -3   44.00    2.90
   3  31  -3   49.90    3.70
   3  31  -3   51.39    3.20
  -3  31   3   51.39    3.80
   3  31  -3   50.09    3.60
  -3  31   3   49.40    5.10
   3  31   3   53.99    3.20
  -3 -31   3   47.80    3.00
  -3  31  -3   52.39    4.30
   3  31   3   50.79    2.20
   3  31   3   47.90    3.70
  -3  31  -3   59.69    4.20
   3 -31  -3   52.89    4.10
   0  32  -3   17.10    2.20
   0  32  -3   13.00    2.40
   0  32   3   18.20    2.10
   0  32  -3   16.70    2.30
   0 -32  -3   13.70    2.10
   0  32   3   13.90    2.60
   0  32   3   15.60    1.10
   1  32  -3    3.80    1.10
  -1  32   3    0.80    0.70
  -1  32   3    3.40    1.10
   1  32  -3    2.50    0.90
   1  32  -3    2.90    1.10
  -1  32   3    1.50    1.40
   1  32  -3    2.10    1.30
  -1 -32  -3    2.10    0.80
  -1  32  -3    1.20    1.20
  -1  32  -3    1.50    1.00
  -1 -32   3    0.50    0.60
   1  32   3    2.40    0.80
   1 -32  -3    0.80    1.00
   1  32   3    2.70    1.00
  -1  32  -3    1.90    1.00
  -2  32   3  173.48    9.20
   2  32  -3  166.28    7.40
   2  32  -3  173.88    7.80
  -2  32   3  165.18    7.70
  -2 -32  -3  167.28    7.10
   2  32  -3  172.38    8.00
   2  32   3  171.78    7.20
   2 -32  -3  155.08    8.10
  -2  32  -3  166.08    8.70
  -2 -32   3  163.88    7.10
  -2  32  -3  169.38    8.10
   2  32   3  177.58    7.70
  -2  32  -3  160.48    8.50
  -3  32   3   20.70    2.80
   3  32  -3   20.70    2.20
   3  32  -3   20.60    2.70
  -3  32   3   18.20    3.20
   3  32  -3   18.80    2.50
  -3 -32  -3   20.00    2.10
   3 -32  -3   19.70    2.80
   3  32   3   19.30    2.10
  -3 -32   3   21.60    2.10
  -3  32  -3   17.20    2.70
  -3  32  -3   21.70    3.30
   3  32   3   19.50    2.70
   3  32   3   19.70    1.10
   0  33   3   37.20    1.80
   0  33  -3   40.50    4.00
   0  33  -3   34.80    2.90
   0  33   3   47.30    4.60
   0  33   3   29.40    2.40
   0  33  -3   32.30    2.90
   0 -33  -3   35.70    3.00
  -1  33   3   21.20    3.30
   1  33  -3   22.80    2.40
  -1 -33  -3   26.00    1.90
   1  33  -3   21.10    2.30
   1  33  -3   26.30    3.10
  -1  33   3   22.50    1.90
   1  33  -3   23.70    2.50
   1 -33  -3   24.40    2.90
   1  33   3   21.60    2.20
  -1  33  -3   26.30    3.40
  -1  33  -3   22.70    2.70
  -1  33  -3   18.40    2.60
   1  33   3   23.10    2.40
  -2  33   3  219.78    9.60
   2  33  -3  210.48    9.30
   2  33  -3  231.98    9.70
  -2  33   3  226.38   11.30
   2  33  -3  223.28    9.80
  -2 -33  -3  218.98    8.90
   2  33   3  219.58    9.40
  -2 -33   3  210.68    8.70
   2 -33  -3  211.68    9.90
   2  33   3  215.08    8.80
  -2  33  -3  207.58   10.30
  -2  33  -3  207.78    9.70
  -2  33  -3  206.58   10.30
  -3 -33  -3   20.60    2.10
  -3  33   3   19.60    2.70
  -3  33   3   18.90    3.40
   3  33  -3   18.40    2.60
   3  33  -3   23.40    2.40
   3  33  -3   19.40    2.60
  -3  33  -3   23.80    3.10
   3  33   3   19.00    2.10
  -3  33  -3   26.50    3.50
   3 -33  -3   26.00    3.40
  -3 -33   3   21.90    2.20
   3  33   3   22.50    2.80
   0  34   3    1.20    0.80
   0  34  -3    3.00    1.10
   0  34   3    2.90    0.60
   0 -34  -3    1.00    1.00
   0  34  -3    2.90    1.10
   0  34  -3    3.80    1.60
   0  34   3    4.10    1.70
   1  34  -3   52.29    3.70
  -1  34   3   52.79    3.10
   1  34  -3   53.99    4.00
   1  34  -3   48.40    3.30
  -1  34   3   55.89    5.30
   1  34  -3   48.00    3.40
  -1 -34  -3   50.89    3.00
  -1  34  -3   47.50    4.70
  -1  34  -3   48.70    3.60
   1  34   3   52.89    3.30
   1  34   3   55.69    3.40
  -1  34  -3   44.70    3.80
   1 -34  -3   51.29    3.80
   2  34  -3  167.88    7.80
  -2 -34  -3  162.38    7.00
  -2  34   3  166.28    7.60
   2  34  -3  160.88    7.40
  -2  34   3  154.58    9.00
   2  34  -3  163.88    7.80
   2 -34  -3  162.08    8.20
  -2 -34   3  161.58    7.10
   2  34   3  163.68    7.20
   2  34   3  153.98    7.50
  -2  34  -3  162.08    8.80
  -2  34  -3  176.58    8.90
  -2  34  -3  154.18    8.00
   0  35   3  159.78    5.90
   0  35   3  160.88    7.20
   0  35   3  173.98    8.80
   0  35  -3  136.69    7.60
   0  35  -3  153.58    7.50
   0 -35  -3  162.08    7.70
   0  35  -3  164.48    8.40
   1  35  -3   14.90    2.20
  -1  35   3   16.80    2.90
   1  35  -3   10.30    1.80
   1  35  -3   16.30    2.50
  -1 -35  -3   16.90    1.80
   1  35  -3   15.10    2.10
  -1  35   3   16.20    1.70
   1 -35  -3   14.40    2.40
  -1  35  -3   12.00    2.10
  -1  35  -3   13.30    2.40
   1  35   3   12.00    1.80
   1  35   3   17.60    2.00
  -1  35  -3   13.90    2.60
   2  35  -3  127.19    6.20
   2  35  -3  116.89    6.50
  -2  35   3  143.99    8.30
  -2 -35  -3  130.19    5.80
   2  35  -3  139.79    6.70
  -2  35   3  124.09    6.40
  -2  35  -3  125.59    7.50
  -2 -35   3  123.79    5.80
  -2  35  -3  120.49    7.30
   2  35   3  119.79    5.90
   2  35   3  128.59    6.50
  -2  35  -3  122.79    6.80
   2 -35  -3  137.59    7.10
   0  36  -3   20.20    3.00
   0  36  -3   16.30    2.30
   0  36   3   14.80    2.20
   0  36   3   13.90    2.70
   0  36  -3   17.30    2.50
   0  36   3   13.20    1.90
   1  36  -3   22.80    2.80
   1  36  -3   18.90    2.40
   1  36  -3   22.90    3.10
  -1  36   3   19.10    1.80
  -1 -36  -3   20.70    2.10
  -1  36   3   17.00    3.10
   1  36  -3   18.70    2.30
  -1  36  -3   17.60    3.00
  -1  36  -3   18.90    2.90
   1  36   3   20.40    2.30
  -1  36  -3   18.90    2.60
   1  36   3   23.60    2.60
   1 -36  -3   28.80    3.30
   0  37  -3   30.40    3.70
   0  37   3   19.70    3.30
   0  37  -3   28.10    2.90
   0  37   3   27.50    2.80
   0  37  -3   26.70    3.00
   1  37  -3   21.20    2.80
  -1 -37  -3   18.50    2.00
  -1  37   3   28.10    3.90
  -1  37   3   18.50    1.80
   1  37  -3   17.30    2.30
   1  37  -3   17.30    2.40
   1  37  -3   18.40    2.90
  -1  37  -3   18.40    3.20
  -1  37  -3   20.20    3.00
   1  37   3   17.00    2.20
   1  37   3   20.30    2.50
  -1  37  -3   19.00    2.70
   0   0   4  117.79    5.20
   0   0  -4  122.59    5.10
  -1   0  -4  312.17   11.60
  -1   0  -4  316.47   11.00
   1   0   4  291.57   11.80
  -1   0   4  322.97   11.90
   1   0  -4  310.27   11.30
   1   0  -4  304.87   11.60
  -1   0  -4  314.37   11.50
  -2   0  -4    5.10    0.90
  -2   0  -4    5.70    1.10
   2   0   4    6.80    1.30
  -2   0   4    8.00    1.30
  -2   0  -4    5.00    0.90
   2   0  -4    5.10    1.00
   2   0  -4    6.50    1.00
   2   0   4    6.50    0.70
   3   0   4    9.90    1.20
   3   0  -4   10.40    1.30
  -3   0  -4   10.70    1.50
   3   0   4   15.90    1.70
  -3   0   4   12.40    1.90
  -3   0  -4   11.30    1.30
   3   0   4   12.90    2.10
   3   0  -4   12.90    1.60
  -3   0  -4   15.00    1.80
   4   0  -4    0.20    0.60
   4   0  -4    0.20    0.50
  -4   0  -4   -0.30    0.60
   4   0   4    0.20    0.80
  -4   0   4    0.50    0.70
   4   0   4    0.30    0.60
   4   0   4   -0.20    0.50
  -4   0  -4    0.50    0.70
   5   0  -4   11.50    1.70
  -5   0  -4   17.00    2.50
  -5   0  -4    9.70    1.80
   5   0   4   14.40    2.80
   5   0   4   13.10    1.80
   5   0   4   15.60    2.20
   6   0   4  131.79    8.60
   6   0   4  143.09    7.30
   6   0   4  153.48    6.90
  -6   0  -4  152.68    7.70
   6   0  -4  152.48    6.90
   0  -1   4   33.50    2.20
   0  -1  -4   31.90    1.80
   0   1  -4   32.30    1.80
   0  -1  -4   31.60    2.00
   0   1  -4   32.70    2.00
   0   1   4   31.50    2.10
  -1  -1  -4  213.58    7.90
   1  -1   4  214.98    8.70
  -1  -1  -4  215.48    8.40
   1   1  -4  223.38    8.50
  -1  -1  -4  218.98    8.30
   1   1  -4  218.18    8.20
  -1   1   4  218.28    8.60
  -1   1  -4  209.38    8.30
  -1   1  -4  217.18    8.20
   1  -1  -4  218.78    8.40
   1   1   4  205.58    8.50
   1  -1  -4  218.78    8.10
  -1   1  -4  216.58    7.80
  -1  -1   4  211.38    8.60
   2  -1   4   84.89    4.30
   2   1  -4   69.69    3.60
   2   1  -4   75.19    3.50
  -2  -1  -4   77.69    3.80
   2  -1   4   72.69    3.10
  -2  -1  -4   73.09    3.50
  -2   1   4   86.79    4.10
  -2  -1  -4   75.69    3.50
  -2   1  -4   72.29    3.60
  -2   1  -4   74.89    3.60
  -2   1  -4   78.09    3.80
   2  -1  -4   72.39    3.50
  -2  -1   4   91.29    4.20
   2   1   4   77.49    4.10
   2   1   4   76.59    3.20
   2  -1  -4   76.19    3.80
   3  -1   4  127.99    6.50
  -3  -1  -4  127.69    5.80
  -3   1   4  128.89    6.10
   3  -1   4  125.09    5.50
   3  -1   4  120.29    5.10
   3   1  -4  126.89    5.50
   3   1  -4  120.69    5.30
  -3  -1  -4  125.29    5.20
  -3  -1  -4  122.79    5.60
  -3   1  -4  127.59    5.20
   3   1   4  119.09    5.00
   3  -1  -4  127.69    5.20
   3   1   4  123.09    6.20
  -3   1  -4  130.69    5.70
  -3   1  -4  117.39    5.50
   3  -1  -4  124.49    5.50
  -3  -1   4  114.39    5.80
   3   1   4  112.19    5.30
  -4  -1  -4    3.80    1.10
   4  -1   4    2.70    0.90
   4   1  -4    4.10    1.00
   4   1  -4    2.10    0.70
  -4   1   4    2.70    1.10
   4  -1   4    2.30    1.20
  -4  -1  -4    2.00    1.00
   4  -1   4    2.90    0.90
  -4   1  -4    2.20    1.00
   4  -1  -4    5.20    1.10
   4  -1  -4    2.80    0.80
   4   1   4    3.20    1.30
  -4   1  -4    2.70    1.00
   4   1   4    2.90    0.90
   4   1   4    3.20    1.00
  -5  -1  -4   93.59    5.40
   5  -1   4   91.79    6.20
   5  -1   4   90.99    5.00
  -5  -1  -4   92.99    5.20
   5   1  -4   89.59    4.60
   5  -1   4   97.89    4.70
   5   1   4   86.49    4.80
   5  -1  -4   83.69    4.40
  -5   1  -4   91.29    5.10
   5   1   4   90.59    4.50
   5   1   4   74.29    5.60
  -6  -1  -4   16.00    2.50
   6   1  -4   19.30    2.30
   6  -1   4   15.00    3.10
   6  -1   4   15.80    2.40
   6  -1   4   16.40    2.10
   6  -1  -4   14.30    2.00
  -6   1  -4   14.70    2.40
   6   1   4   15.50    2.40
   6   1   4   17.70    2.20
   6   1   4   15.00    3.20
   0   2  -4    0.90    0.50
   0  -2  -4    1.20    0.40
   0   2  -4    0.90    0.40
   0  -2  -4    1.10    0.50
   0  -2   4    0.80    0.50
   0   2   4    1.30    0.50
  -1   2   4  321.67   11.50
  -1  -2  -4  297.47   11.20
   1   2  -4  292.87   11.20
   1  -2   4  289.57   11.50
  -1  -2  -4  297.77   10.60
  -1  -2  -4  291.97   11.10
   1   2  -4  301.77   10.90
   1   2   4  318.47   11.50
  -1   2  -4  301.67   10.90
  -1   2  -4  296.07   11.10
  -1  -2   4  296.67   11.60
   1  -2  -4  290.17   11.00
   1  -2  -4  302.47   11.40
  -1   2  -4  313.07   11.40
  -2  -2  -4  142.79    5.70
   2   2  -4  133.09    5.70
  -2  -2  -4  141.69    6.00
  -2   2   4  157.28    6.40
   2  -2   4  135.69    5.30
  -2  -2  -4  137.79    5.80
   2  -2   4  135.99    6.50
   2   2  -4  145.29    6.00
  -2  -2   4  156.98    6.50
   2   2   4  139.79    5.50
  -2   2  -4  140.09    6.00
  -2   2  -4  142.49    6.00
   2  -2  -4  136.49    5.80
   2   2   4  149.69    6.50
   2  -2  -4  142.69    6.10
  -2   2  -4  151.98    6.10
  -3  -2  -4  165.08    6.60
   3  -2   4  162.08    6.50
  -3  -2  -4  168.48    7.00
  -3   2   4  160.78    7.50
   3  -2   4  163.38    6.90
   3  -2   4  167.28    7.90
   3   2  -4  166.38    6.70
   3   2  -4  172.38    7.00
  -3  -2  -4  170.58    7.30
  -3   2  -4  195.48    7.60
   3  -2  -4  171.78    7.40
   3   2   4  181.48    7.00
   3  -2  -4  177.78    7.10
  -3   2  -4  174.98    7.50
   3   2   4  186.78    8.30
  -3   2  -4  177.58    7.20
   3   2   4  177.88    7.40
  -3  -2   4  166.68    7.80
   4   2  -4  103.49    4.80
   4   2  -4  108.39    5.00
   4  -2   4  101.09    5.00
   4  -2   4  103.39    4.70
  -4  -2  -4  110.99    5.50
  -4  -2  -4  101.39    5.20
   4  -2   4   96.79    6.00
  -4   2   4  109.29    5.70
  -4   2  -4   98.89    5.20
   4   2   4  102.89    5.10
   4  -2  -4  105.39    4.80
   4   2   4  108.59    4.80
  -4   2  -4  103.59    5.30
   4   2   4   99.79    5.90
   4  -2  -4  104.89    5.00
   5  -2   4   34.70    2.50
  -5  -2  -4   39.90    3.20
   5   2  -4   32.90    2.50
   5  -2   4   29.90    3.90
  -5  -2  -4   37.20    3.00
   5  -2   4   37.20    2.90
   5  -2  -4   31.40    2.30
   5   2   4   30.10    3.80
   5   2   4   34.80    2.80
  -5   2  -4   34.60    3.40
   5   2   4   34.40    2.60
  -6  -2  -4   26.10    3.10
   6  -2   4   24.80    2.60
   6  -2   4   26.50    5.00
   6   2  -4   26.20    2.70
   6  -2   4   26.70    3.00
   6   2   4   24.10    2.60
   6   2   4   25.00    3.00
   6  -2  -4   20.90    2.40
  -6   2  -4   22.50    3.10
   6   2   4   24.20    3.80
   0  -3  -4   26.40    1.80
   0  -3   4   27.20    2.00
   0   3  -4   25.00    1.60
   0   3  -4   27.20    1.80
   0   3   4   24.30    1.70
  -1  -3  -4  145.39    6.10
  -1  -3  -4  141.19    5.60
   1  -3   4  162.08    6.60
  -1   3   4  177.28    6.50
   1   3  -4  145.99    6.20
   1   3  -4  146.09    5.90
  -1  -3  -4  142.59    6.10
   1  -3  -4  144.69    5.90
  -1   3  -4  140.99    5.40
   1  -3  -4  135.19    5.60
  -1  -3   4  140.99    6.10
  -1   3  -4  139.49    5.90
  -1   3  -4  143.19    5.70
   1   3   4  138.89    5.90
   2   3  -4  511.45   17.90
   2   3  -4  512.05   18.20
   2  -3   4  455.45   18.70
   2  -3   4  489.35   17.40
  -2  -3  -4  512.65   18.30
  -2   3   4  546.05   18.70
  -2  -3  -4  497.55   17.90
  -2  -3  -4  497.75   17.90
   2   3   4  539.95   18.80
   2  -3  -4  502.75   18.30
  -2  -3   4  523.95   18.70
   2   3   4  489.05   17.60
  -2   3  -4  484.85   18.20
  -2   3  -4  498.85   18.20
  -2   3  -4  504.85   18.10
   2  -3  -4  500.65   18.00
  -3  -3  -4  420.26   14.80
  -3  -3  -4  413.46   15.20
   3   3  -4  398.96   14.90
  -3   3   4  432.76   15.90
   3  -3   4  407.96   14.60
  -3  -3  -4  406.06   15.50
   3   3  -4  399.06   15.00
   3  -3   4  399.66   16.30
   3  -3   4  397.06   15.00
   3   3   4  378.46   14.80
   3   3   4  406.56   14.40
   3  -3  -4  407.26   14.50
  -3   3  -4  407.86   15.00
  -3   3  -4  405.36   14.60
   3  -3  -4  388.36   14.80
  -3  -3   4  395.86   15.30
   3   3   4  378.76   15.50
  -3   3  -4  409.56   15.00
   4  -3   4  141.19    6.40
   4  -3   4  139.99    6.00
  -4  -3  -4  150.98    6.70
   4   3  -4  142.99    6.20
   4   3  -4  144.99    6.20
   4  -3   4  136.49    7.50
  -4  -3  -4  145.99    6.80
   4  -3  -4  146.09    6.50
   4  -3  -4  135.59    6.10
   4   3   4  150.38    7.50
   4   3   4  146.49    6.20
   4   3   4  146.69    6.60
  -4   3  -4  144.39    6.70
  -4   3  -4  140.59    6.70
  -5  -3  -4   40.20    3.20
   5  -3   4   39.30    4.00
   5   3  -4   42.80    2.90
   5  -3   4   49.90    2.90
   5  -3   4   41.70    3.10
  -5  -3  -4   41.10    3.40
   5   3   4   41.10    3.90
  -5   3  -4   46.20    3.50
   5   3   4   43.50    3.00
   5  -3  -4   46.80    2.90
   5   3   4   48.30    3.40
  -6  -3  -4   33.70    3.70
   6  -3   4   39.00    2.90
   6   3  -4   39.50    2.90
   6  -3   4   37.80    3.20
   6  -3  -4   36.70    2.80
   6   3   4   36.10    2.90
   6   3   4   38.50    3.70
   6   3   4   39.30    4.30
  -6   3  -4   43.60    4.20
   0   4   4  240.58    9.70
   0  -4   4  250.57   10.00
   0   4  -4  259.97    9.10
   0   4  -4  251.67    9.70
   0  -4  -4  252.27    9.70
   0   4  -4  262.97    9.40
   0  -4  -4  268.87    9.60
   1   4  -4    6.90    1.10
  -1  -4  -4    9.20    1.20
  -1   4   4    8.80    1.30
   1   4  -4    9.60    1.10
  -1  -4  -4    7.90    0.70
   1  -4   4    7.70    0.60
  -1  -4  -4    8.60    1.20
   1  -4   4    7.00    1.20
  -1   4  -4    7.00    1.00
  -1   4  -4    6.40    0.80
   1  -4  -4    4.80    0.80
   1   4   4    4.80    0.90
   1  -4  -4    6.10    1.00
  -1   4  -4    8.10    1.20
  -1  -4   4    4.80    1.00
  -2  -4  -4  815.72   28.70
   2   4  -4  798.42   28.50
   2  -4   4  798.32   29.30
  -2   4   4  798.92   28.90
   2  -4   4  814.82   27.80
  -2  -4  -4  814.22   28.30
  -2  -4  -4  836.52   28.30
   2   4  -4  820.92   28.30
  -2   4  -4  829.32   28.70
  -2   4  -4  797.32   28.60
   2   4   4  871.51   29.20
   2   4   4  794.72   28.10
   2  -4  -4  788.62   28.80
  -2   4  -4  761.22   28.60
   2  -4  -4  789.22   28.40
  -2  -4   4  903.31   29.30
  -3  -4  -4  195.38    7.60
  -3  -4  -4  193.58    8.00
   3  -4   4  192.38    7.50
   3  -4   4  196.88    9.10
   3   4  -4  194.08    7.90
   3   4  -4  198.28    7.80
   3  -4   4  187.78    7.80
  -3  -4  -4  196.78    8.30
  -3   4   4  215.38    8.70
   3   4   4  193.28    7.90
   3   4   4  195.38    8.60
   3  -4  -4  187.18    7.90
   3  -4  -4  203.78    7.60
  -3   4  -4  191.18    8.00
  -3   4  -4  189.88    7.70
   3   4   4  190.38    7.50
  -3   4  -4  188.58    7.90
  -3  -4   4  187.48    8.30
   4  -4   4  234.08    9.60
   4  -4   4  240.38    9.20
   4   4  -4  240.28    9.50
   4   4  -4  239.28    9.40
  -4   4   4  236.48   10.50
   4  -4   4  229.78   11.00
  -4  -4  -4  234.68   10.10
  -4  -4  -4  243.18    9.80
   4   4   4  253.67    9.50
   4  -4  -4  230.48    9.70
   4  -4  -4  251.97    9.40
  -4   4  -4  233.98   10.00
   4   4   4  231.08   10.70
  -4   4  -4  230.48    9.80
   4   4   4  232.88    9.80
   5  -4   4   57.39    3.30
   5  -4   4   56.09    3.70
  -5  -4  -4   62.09    3.90
   5  -4   4   57.99    4.80
  -5  -4  -4   60.09    4.10
   5   4  -4   54.59    3.40
   5  -4  -4   58.69    3.30
   5   4   4   55.79    3.40
   5   4   4   54.99    4.50
   5   4   4   54.09    3.80
  -5   4  -4   62.69    4.10
   6  -4   4    8.40    1.50
  -6  -4  -4    8.10    1.80
   6   4  -4    7.60    1.50
   6   4   4    8.40    2.50
   6   4   4    4.70    1.30
   6   4   4    4.90    1.60
   6  -4  -4    5.70    1.30
  -6   4  -4    9.50    2.10
   0  -5  -4  233.28    8.60
   0  -5   4  225.08    9.10
   0   5   4  216.98    8.70
   0   5  -4  237.68    8.90
   0   5  -4  220.28    8.10
   0  -5  -4  225.08    8.70
   0   5  -4  226.88    8.40
   1  -5   4  154.78    5.60
   1  -5   4  165.18    6.90
  -1  -5  -4  155.98    6.40
  -1  -5  -4  163.68    6.50
  -1   5   4  164.18    6.60
   1   5  -4  148.49    6.10
  -1  -5  -4  155.58    5.80
   1   5  -4  162.48    6.50
  -1   5  -4  153.98    6.00
   1   5   4  172.08    6.50
  -1  -5   4  156.58    6.70
   1  -5  -4  153.78    6.10
  -1   5  -4  161.78    6.50
  -1   5  -4  140.19    6.00
   1  -5  -4  149.09    6.40
   2   5  -4  553.24   20.00
  -2  -5  -4  581.94   20.30
   2  -5   4  558.14   19.30
   2  -5   4  551.84   20.80
  -2  -5  -4  557.44   19.70
  -2   5   4  544.15   20.40
  -2  -5  -4  552.64   19.80
   2   5  -4  563.64   19.70
  -2   5  -4  550.34   19.90
   2   5   4  545.75   19.50
   2  -5  -4  548.75   20.20
   2  -5  -4  571.54   19.80
  -2  -5   4  617.24   20.70
  -2   5  -4  551.14   20.00
  -2   5  -4  543.65   20.10
   2   5   4  541.65   20.30
  -3   5   4    2.20    0.90
   3  -5   4    2.20    0.60
   3   5  -4    2.60    0.80
  -3  -5  -4    2.70    1.00
   3  -5   4    2.60    0.80
   3  -5   4    1.10    0.90
  -3  -5  -4    0.70    0.60
   3   5  -4    2.40    0.80
  -3  -5  -4    1.90    0.60
   3   5   4    2.20    0.90
  -3   5  -4    1.80    0.80
   3  -5  -4    1.30    0.70
   3   5   4    1.10    0.60
  -3   5  -4    2.00    0.70
   3  -5  -4    2.40    0.70
   3   5   4    0.70    0.60
  -3  -5   4    1.20    0.70
  -3   5  -4    1.40    0.70
  -4   5   4   95.19    5.30
  -4  -5  -4   86.49    5.00
   4  -5   4   89.89    4.20
   4   5  -4   84.09    4.40
   4  -5   4  101.29    6.00
  -4  -5  -4   92.39    4.70
   4  -5   4   83.89    4.50
   4   5  -4   97.59    4.50
   4   5   4   93.99    5.60
  -4   5  -4   90.79    4.80
   4   5   4   94.59    4.50
  -4   5  -4   99.69    5.10
   4  -5  -4   97.19    4.40
   4  -5  -4   89.49    4.70
   4   5   4   96.69    4.90
   5  -5   4   17.30    3.00
  -5  -5  -4   21.60    2.90
   5  -5   4   22.90    2.20
   5   5  -4   15.80    1.90
  -5  -5  -4   18.90    2.40
   5  -5   4   25.00    2.60
   5   5   4   17.70    2.90
   5  -5  -4   21.40    2.20
  -5   5  -4   18.70    2.50
   5   5   4   18.90    2.50
   5   5   4   20.20    2.20
   6  -5   4   37.10    2.80
  -6  -5  -4   39.40    3.40
   6   5  -4   41.30    3.00
   6   5   4   40.40    3.90
   6   5   4   43.40    3.20
   6  -5  -4   40.90    2.90
   6   5   4   39.50    4.90
  -6   5  -4   43.10    4.30
   0   6  -4    3.10    0.50
   0   6  -4    3.20    0.60
   0  -6  -4    3.50    0.70
   0  -6   4    2.50    0.80
   0   6   4    4.40    0.80
   0  -6  -4    4.30    0.90
   0   6  -4    3.20    0.80
  -1  -6  -4  105.69    4.60
   1  -6   4  100.49    3.80
   1  -6   4   98.69    5.00
  -1  -6  -4   98.59    4.50
  -1   6   4  107.09    4.70
  -1  -6  -4  107.19    4.00
   1   6  -4  104.49    4.70
   1   6  -4  108.99    4.40
   1  -6  -4  105.69    4.40
   1  -6  -4  107.69    4.80
  -1   6  -4  101.09    4.70
   1   6   4  102.59    4.60
  -1  -6   4  101.19    4.90
  -1   6  -4  104.69    4.30
  -1   6  -4  112.29    4.40
  -2  -6  -4  255.57    9.90
  -2   6   4  237.78   10.00
   2  -6   4  284.57   10.80
   2  -6   4  252.67    9.00
   2   6  -4  252.97    9.50
  -2  -6  -4  242.38    9.50
  -2  -6  -4  251.17    9.40
   2   6  -4  238.88    9.70
   2  -6  -4  259.57   10.20
  -2   6  -4  264.07   10.20
   2  -6  -4  258.47    9.80
  -2  -6   4  298.07   10.70
   2   6   4  249.97    9.50
  -2   6  -4  262.77   10.00
   2   6   4  239.98   10.20
  -2   6  -4  259.47    9.90
   3  -6   4   19.60    1.60
   3  -6   4   19.90    1.40
  -3   6   4   15.90    2.10
   3  -6   4   19.80    2.70
  -3  -6  -4   18.50    2.20
   3   6  -4   15.80    1.60
   3   6  -4   18.50    1.80
  -3  -6  -4   17.50    1.80
  -3  -6  -4   17.60    1.80
   3   6   4   22.20    2.20
  -3   6  -4   20.10    2.00
  -3  -6   4   16.60    2.50
   3  -6  -4   18.30    2.00
  -3   6  -4   20.50    1.70
   3   6   4   16.30    1.60
   3  -6  -4   19.10    1.50
  -3   6  -4   19.30    2.00
   3   6   4   17.90    2.30
  -4   6   4   91.79    5.20
   4  -6   4   87.99    4.10
   4  -6   4   91.29    4.50
   4   6  -4   85.79    4.30
   4   6  -4   90.09    4.40
  -4  -6  -4   85.79    4.60
  -4  -6  -4   89.29    5.00
   4  -6   4   88.79    5.70
   4   6   4   79.79    4.20
   4   6   4   82.89    4.60
   4   6   4   80.69    5.10
  -4   6  -4   89.39    4.80
   4  -6  -4   86.79    4.50
  -4   6  -4   89.99    5.60
  -4   6  -4   90.79    4.60
   4  -6  -4   87.89    4.10
   5  -6   4  101.29    4.90
   5  -6   4  126.59    9.20
   5  -6   4   94.99    5.10
  -5  -6  -4   99.79    5.40
   5   6  -4   95.39    4.90
  -5  -6  -4   93.99    5.70
   5  -6  -4   96.99    4.80
   5   6   4   88.19    5.30
   5  -6  -4  101.49    5.60
  -5   6  -4  101.99    5.70
   5   6   4  110.59    5.20
   5   6   4  102.29    6.40
  -6  -6  -4   11.60    2.10
   6  -6   4    8.80    1.60
   6   6  -4    7.80    1.60
   6   6   4    7.70    1.60
   6  -6  -4    9.40    1.50
   6   6   4   13.00    2.80
  -6   6  -4    9.20    2.00
   6   6   4   10.80    2.00
   0   7   4  290.37   10.70
   0  -7   4  316.87   11.40
   0  -7  -4  276.17   10.60
   0   7  -4  275.67   10.90
   0  -7  -4  278.07   10.80
   0   7  -4  285.97   10.40
   0   7  -4  278.07   10.20
  -1  -7  -4  144.79    6.00
  -1  -7  -4  151.58    5.40
   1   7  -4  151.08    5.80
  -1   7   4  141.19    6.10
  -1  -7  -4  146.89    6.10
   1  -7   4  138.59    6.50
   1   7  -4  152.28    6.20
   1  -7   4  147.89    5.30
  -1   7  -4  156.28    6.40
  -1  -7   4  153.48    6.60
  -1   7  -4  145.49    5.90
   1  -7  -4  146.09    6.30
   1  -7  -4  154.88    6.00
   1   7   4  143.79    6.10
  -1   7  -4  151.68    5.90
  -2  -7  -4  116.89    5.00
   2  -7   4  121.79    4.60
  -2  -7  -4  125.99    5.00
   2  -7   4  117.99    6.00
  -2   7   4  111.39    5.40
  -2  -7  -4  120.99    5.50
   2   7  -4  123.79    5.30
   2   7  -4  118.69    5.00
   2  -7  -4  121.79    5.20
  -2   7  -4  129.69    5.40
   2  -7  -4  129.59    5.70
  -2   7  -4  120.29    5.60
   2   7   4  121.19    5.10
  -2   7  -4  126.59    5.60
   2   7   4  129.49    5.70
  -2  -7   4  152.08    6.20
  -3  -7  -4   31.00    2.40
   3  -7   4   27.00    1.70
  -3  -7  -4   29.50    2.00
   3   7  -4   27.00    2.00
   3  -7   4   27.70    1.90
  -3   7   4   29.50    2.50
   3  -7   4   28.50    2.80
   3   7  -4   32.10    2.00
  -3   7  -4   27.30    2.10
   3   7   4   32.10    2.30
   3  -7  -4   28.50    1.90
  -3   7  -4   33.90    2.30
   3  -7  -4   31.50    2.30
  -3   7  -4   32.50    2.40
   3   7   4   30.60    2.50
   3   7   4   31.60    2.00
  -4  -7  -4  118.29    5.70
  -4   7   4  118.39    6.30
   4  -7   4  118.29    5.50
  -4  -7  -4  128.09    6.30
   4   7  -4  113.19    5.40
   4  -7   4  118.99    5.20
   4   7  -4  127.09    5.50
   4  -7   4  120.59    6.90
   4  -7  -4  110.59    5.10
   4   7   4  119.09    5.80
   4  -7  -4  113.79    5.60
  -4   7  -4  116.49    5.90
  -4   7  -4  114.69    5.60
   4   7   4  123.09    6.50
   4   7   4  120.89    5.40
  -4   7  -4  116.79    5.40
   5   7  -4   58.19    3.60
   5  -7   4   72.19    3.70
  -5   7   4   77.79    6.80
  -5  -7  -4   62.49    4.00
  -5  -7  -4   57.99    4.30
   5  -7  -4   57.39    3.40
   5   7   4   67.19    4.30
   5  -7  -4   61.49    3.90
   5   7   4   68.09    3.90
   5   7   4   72.29    5.10
  -5   7  -4   72.59    4.50
   6   7  -4   50.79    3.50
  -6  -7  -4   50.99    3.90
   6  -7   4   56.29    3.50
   6   7   4   47.70    3.50
   6   7   4   46.40    3.80
   6  -7  -4   51.69    3.20
  -6   7  -4   52.69    4.10
   6   7   4   45.80    4.60
   0   8  -4    5.60    0.80
   0  -8  -4    6.50    1.00
   0   8  -4    6.10    1.10
   0  -8   4    5.60    1.10
   0   8  -4    6.00    0.70
   0  -8  -4    4.60    0.90
   0   8   4    5.80    0.90
   1   8  -4   99.09    4.00
   1  -8   4   92.39    3.50
   1   8  -4   94.99    4.40
  -1   8   4   91.89    4.30
  -1  -8  -4   92.89    4.20
   1  -8   4   86.59    4.70
  -1  -8  -4   93.59    3.60
  -1  -8  -4   99.49    4.40
   1   8  -4   96.09    4.00
  -1  -8   4   98.79    4.80
   1   8   4   92.49    4.20
   1  -8  -4   99.09    4.20
   1  -8  -4   98.89    4.60
  -1   8  -4  100.89    4.20
  -1   8  -4   88.39    4.50
  -1   8  -4  103.39    4.10
  -2  -8  -4  166.98    7.00
   2  -8   4  165.38    6.10
  -2  -8  -4  161.08    6.50
   2   8  -4  157.58    6.40
  -2  -8  -4  171.78    6.40
   2  -8   4  157.68    7.50
   2   8  -4  154.38    6.70
  -2   8   4  161.28    7.00
   2  -8  -4  165.38    7.30
  -2  -8   4  201.88    7.90
   2   8   4  185.68    7.40
   2   8   4  170.88    6.80
  -2   8  -4  171.88    7.40
   2  -8  -4  175.78    7.00
  -2   8  -4  176.48    7.10
  -2   8  -4  174.78    7.20
   3   8  -4    6.00    1.00
  -3  -8  -4    7.40    1.40
  -3   8   4    8.50    1.50
   3   8  -4    6.50    1.00
   3  -8   4    6.40    0.90
  -3  -8  -4    4.90    1.00
   3  -8   4    5.30    1.00
   3  -8   4    7.30    1.70
   3   8   4    8.20    1.40
   3  -8  -4    8.50    1.10
  -3   8  -4    7.60    1.20
   3  -8  -4    6.60    1.20
  -3   8  -4    8.10    1.30
  -3   8  -4    7.70    1.40
   3   8   4    6.70    1.10
  -4  -8  -4   79.19    4.80
  -4   8   4   89.19    5.10
  -4  -8  -4   82.89    4.50
   4  -8   4   88.69    5.70
   4  -8   4   88.39    4.10
   4  -8   4   80.29    4.20
   4   8  -4   85.99    4.30
   4   8   4   80.49    5.00
   4  -8  -4   83.89    4.50
   4  -8  -4   78.89    4.00
  -4   8  -4   83.49    4.70
   4   8   4   88.99    4.70
  -4   8  -4   88.19    4.30
  -4   8  -4   85.09    4.40
   4   8   4   88.29    4.30
   5  -8   4   24.10    2.30
  -5  -8  -4   23.20    3.00
  -5   8   4   28.70    3.40
  -5  -8  -4   25.10    2.80
   5   8  -4   25.00    2.50
   5   8   4   27.90    2.70
   5   8   4   26.70    3.50
   5  -8  -4   24.80    2.00
   5   8   4   24.60    2.90
  -5   8  -4   27.40    3.20
   5  -8  -4   25.40    2.60
  -6  -8  -4   14.30    2.30
   6   8  -4   13.80    2.00
   6  -8   4   13.90    1.90
  -6   8  -4   15.20    2.60
   6   8   4    9.00    1.80
   6  -8  -4   15.60    1.90
   6   8   4   13.90    2.90
   6   8   4   13.80    2.30
   0  -9   4  103.09    5.10
   0   9  -4  110.49    4.20
   0  -9  -4  101.59    4.70
   0   9  -4  100.89    4.90
   0   9  -4  103.89    4.30
   0   9  -4  108.69    4.90
   0   9   4  106.39    4.50
   1   9  -4  147.59    6.10
   1   9  -4  143.49    5.20
   1   9  -4  138.59    6.00
  -1   9   4  125.19    5.80
   1  -9   4  134.19    6.40
   1  -9   4  143.49    5.10
  -1  -9  -4  138.29    5.80
   1   9  -4  144.19    5.60
   1   9  -4  139.99    5.40
  -1  -9  -4  144.69    5.20
  -1  -9  -4  137.49    5.90
  -1   9  -4  154.48    6.00
  -1  -9   4  143.59    6.50
  -1   9  -4  133.79    5.80
   1   9   4  153.38    6.00
   1  -9  -4  150.08    6.40
   1  -9  -4  156.88    6.00
  -1   9  -4  150.08    6.40
  -2  -9  -4  148.29    6.00
   2  -9   4  163.98    7.30
  -2  -9  -4  139.89    6.40
   2  -9   4  147.09    5.50
   2   9  -4  133.69    6.10
  -2  -9  -4  141.39    5.70
  -2   9   4  151.18    6.50
   2   9  -4  137.49    6.10
   2   9  -4  145.89    5.90
   2  -9  -4  139.99    5.70
   2   9   4  138.89    5.70
  -2   9  -4  135.89    5.80
  -2  -9   4  166.98    6.70
  -2   9  -4  139.89    6.20
   2   9   4  135.39    6.10
  -2   9  -4  138.29    6.00
   2  -9  -4  137.59    6.20
   3   9  -4  125.69    5.50
   3  -9   4  131.19    5.20
  -3  -9  -4  127.49    6.10
   3   9  -4  122.19    5.50
   3  -9   4  136.19    6.90
  -3  -9  -4  123.79    5.50
  -3   9   4  127.29    6.20
   3  -9   4  122.09    5.40
  -3   9  -4  131.39    6.00
   3   9   4  130.29    5.50
  -3   9  -4  126.99    5.60
   3  -9  -4  136.49    6.00
   3   9   4  121.59    5.80
  -3   9  -4  126.89    5.80
   3  -9  -4  120.79    5.40
  -4  -9  -4   83.49    4.90
   4  -9   4   89.99    6.40
  -4  -9  -4   90.19    4.60
   4   9  -4   90.29    4.40
  -4   9   4   84.19    5.10
   4  -9   4   87.79    4.10
  -4   9  -4   90.09    4.90
   4   9   4   81.79    5.10
   4  -9  -4   91.69    4.70
   4   9   4   88.09    4.40
  -4   9  -4   88.19    4.50
   4  -9  -4   88.39    4.20
   4   9   4   84.59    4.70
   5   9  -4   80.99    4.50
  -5   9   4   80.99    5.40
  -5  -9  -4   84.19    4.90
  -5  -9  -4   92.69    5.40
   5  -9   4   93.59    4.40
  -5   9  -4   82.39    5.20
   5  -9  -4   88.99    4.80
   5   9   4   84.19    4.60
   5   9   4   83.79    5.60
   5   9   4   82.09    5.00
   5  -9  -4   78.99    4.10
   6   9  -4   34.20    2.80
  -6  -9  -4   32.30    3.40
   6  -9   4   33.90    2.70
  -6   9  -4   38.20    4.10
   6   9   4   33.20    3.70
   6   9   4   37.10    3.10
   6  -9  -4   32.20    2.60
   6   9   4   38.10    4.70
   0  10   4    7.10    1.00
   0  10  -4    8.90    1.30
   0 -10  -4    8.70    1.20
   0  10  -4    6.10    1.10
   0 -10  -4    5.50    0.90
   0  10  -4    6.60    0.80
   0  10  -4    6.80    0.90
   0 -10   4    5.20    1.10
   1  10  -4  868.61   29.80
  -1  10   4  774.22   29.50
   1 -10   4  892.11   30.50
  -1 -10  -4  831.82   29.60
  -1 -10  -4  860.81   29.70
   1  10  -4  848.72   28.90
   1  10  -4  779.82   29.70
  -1 -10  -4  869.61   28.90
   1 -10   4  863.81   28.80
   1  10  -4  832.12   29.00
   1  10  -4  885.41   29.30
  -1  10  -4  848.22   29.40
  -1 -10   4  828.52   30.10
  -1  10  -4  833.72   29.20
  -1  10  -4  853.71   29.90
   1 -10  -4  844.02   29.80
   1 -10  -4  853.81   29.40
   1  10   4  856.71   29.40
  -2 -10  -4   35.60    2.00
  -2  10   4   43.40    2.70
  -2 -10  -4   38.00    2.20
   2  10  -4   38.90    2.20
   2  10  -4   39.70    2.40
   2 -10   4   38.60    1.90
   2 -10   4   35.60    3.00
   2  10  -4   39.30    2.10
  -2 -10  -4   40.60    2.60
  -2  10  -4   38.80    2.40
   2 -10  -4   38.20    2.50
   2 -10  -4   40.20    2.20
  -2  10  -4   40.20    2.60
  -2  10  -4   38.00    2.20
   2  10   4   36.70    2.20
   2  10   4   38.30    2.40
   3 -10   4   54.29    2.70
   3  10  -4   50.69    2.90
   3  10  -4   55.79    3.60
   3 -10   4   54.49    2.80
  -3  10   4   49.10    3.40
  -3 -10  -4   54.69    2.90
  -3 -10  -4   49.99    3.40
   3  10  -4   55.59    2.90
   3 -10   4   52.69    4.00
   3 -10  -4   53.79    3.30
  -3  10  -4   52.89    3.30
  -3  10  -4   58.49    3.30
  -3  10  -4   60.19    3.10
   3  10   4   53.39    3.30
   3  10   4   53.29    3.40
   3 -10  -4   54.79    2.90
   3  10   4   49.99    2.90
   4  10  -4  119.89    5.30
   4 -10   4  109.39    4.90
  -4  10   4  114.29    6.10
  -4 -10  -4  108.69    5.90
  -4 -10  -4  114.09    5.40
  -4  10  -4  113.59    5.40
   4 -10  -4  109.19    5.00
  -4  10  -4  115.89    5.90
   4  10   4  108.99    5.20
   4  10   4  118.89    6.20
   4  10   4   99.09    5.50
   4 -10  -4  114.89    5.60
   5  10  -4  157.28    7.30
  -5 -10  -4  173.48    7.80
  -5  10   4  180.88    8.70
   5 -10   4  160.78    7.10
  -5 -10  -4  164.08    8.30
   5  10   4  163.88    7.40
   5 -10  -4  166.28    7.00
   5  10   4  162.58    8.60
  -5  10  -4  154.68    8.00
   5 -10  -4  170.88    7.60
   5  10   4  157.08    7.80
   6 -10   4    1.70    1.00
   6  10  -4    0.10    0.80
  -6 -10  -4    2.20    1.10
   6 -10  -4    1.50    0.80
   6  10   4    2.20    1.50
   6  10   4   -0.80    1.00
   6  10   4    0.80    1.00
  -6  10  -4    1.50    1.10
   0  11  -4   29.30    2.10
   0  11  -4   25.90    2.00
   0 -11  -4   31.20    1.90
   0  11   4   32.10    1.90
   0  11  -4   29.10    1.70
   0 -11   4   35.20    2.50
   0 -11  -4   32.60    2.10
   0  11  -4   29.00    1.70
   1  11  -4  697.03   23.70
  -1 -11  -4  705.33   24.20
   1  11  -4  686.33   24.20
   1  11  -4  683.23   23.40
  -1  11   4  642.54   23.90
  -1 -11  -4  708.83   24.10
   1  11  -4  681.23   23.40
   1  11  -4  657.43   24.20
  -1 -11  -4  689.73   23.30
   1 -11   4  629.24   24.70
   1 -11  -4  656.33   23.00
  -1  11  -4  654.53   23.50
  -1  11  -4  650.23   22.70
  -1 -11   4  602.04   23.60
   1  11   4  672.13   22.90
   1 -11  -4  657.53   23.40
  -1  11  -4  679.73   23.10
   2  11  -4    6.60    1.10
   2  11  -4    6.90    1.00
  -2 -11  -4    5.10    0.90
   2 -11   4    6.30    0.80
  -2  11   4    4.80    1.10
  -2 -11  -4    7.20    1.30
  -2 -11  -4    6.60    0.90
   2  11  -4    5.60    0.90
   2 -11   4    4.80    1.30
  -2  11  -4    5.70    1.00
   2  11   4    9.10    1.30
  -2  11  -4    6.30    1.00
   2  11   4    7.00    1.10
   2 -11  -4    4.50    0.80
   2 -11  -4    6.80    1.30
  -2  11  -4    5.00    1.10
   3  11  -4   28.50    2.10
  -3  11   4   28.80    2.50
   3  11  -4   26.30    1.90
   3  11  -4   27.00    2.00
   3 -11   4   27.80    2.90
  -3 -11  -4   23.10    2.60
  -3 -11  -4   24.80    1.90
   3 -11   4   29.80    1.70
   3 -11   4   25.60    2.00
  -3  11  -4   25.90    2.50
  -3  11  -4   28.10    2.30
   3  11   4   30.50    2.40
   3  11   4   30.30    2.00
   3 -11  -4   27.50    1.90
   3 -11  -4   28.00    2.30
   3  11   4   28.70    2.30
  -3  11  -4   24.70    2.50
  -4  11   4   32.90    2.90
  -4 -11  -4   24.60    2.90
   4 -11   4   28.60    2.00
   4  11  -4   32.10    2.20
  -4 -11  -4   28.40    2.30
  -4  11  -4   28.60    2.40
   4  11   4   30.50    2.80
   4 -11  -4   28.80    2.10
   4  11   4   32.50    2.60
  -4  11  -4   31.90    3.20
   4  11   4   32.50    2.40
   4 -11  -4   32.60    2.60
  -5 -11  -4   97.39    5.20
  -5 -11  -4   86.99    5.50
   5  11  -4   93.69    4.80
   5 -11   4   97.79    4.60
  -5  11   4   85.09    5.60
  -5  11  -4   96.69    5.80
   5 -11  -4   97.69    5.40
   5 -11  -4  102.59    4.90
   5  11   4  107.49    5.40
   5  11   4  111.69    6.50
   5  11   4  101.19    5.80
  -6 -11  -4   28.90    3.20
   6 -11   4   31.60    2.90
   6  11  -4   33.40    2.80
   6  11   4   29.70    3.50
   6  11   4   26.20    3.00
  -6  11  -4   34.10    3.90
   6 -11  -4   31.10    2.40
   6  11   4   30.60    4.10
   0  12  -4  305.77   11.20
   0 -12   4  349.87   12.40
   0  12  -4  307.17   11.30
   0  12  -4  298.27   11.90
   0  12   4  306.17   11.40
   0 -12  -4  305.77   11.60
   0 -12  -4  306.07   11.80
   1  12  -4  160.28    6.30
  -1  12   4  162.28    6.80
   1  12  -4  183.08    7.20
  -1 -12  -4  172.48    6.20
   1  12  -4  161.98    6.20
  -1 -12  -4  155.68    6.80
   1  12  -4  166.98    7.00
   1 -12   4  175.78    7.70
   1  12  -4  158.78    6.50
  -1 -12  -4  172.88    7.00
  -1 -12   4  152.18    7.90
   1 -12  -4  176.68    6.80
  -1  12  -4  167.38    7.30
  -1  12  -4  174.38    6.60
  -1 -12   4  182.88    6.30
   1  12   4  166.58    6.60
  -1  12  -4  173.08    6.90
   1 -12  -4  172.78    7.30
   2  12  -4   12.70    1.50
  -2 -12  -4   10.40    1.60
   2  12  -4   10.30    1.50
  -2 -12  -4   10.80    1.30
   2  12  -4    8.00    1.10
   2  12  -4   12.80    1.20
   2  12  -4   12.00    1.40
   2 -12   4    7.10    1.50
  -2 -12  -4   10.20    1.10
  -2  12   4    9.90    1.50
   2 -12   4   10.70    0.90
   2 -12  -4   10.80    1.20
  -2  12  -4   11.50    1.60
  -2  12  -4    8.80    1.30
   2  12   4    8.80    1.40
   2  12   4   11.20    1.40
   2 -12  -4   10.60    1.60
  -2  12  -4    8.50    1.10
   3 -12   4  196.28    7.40
   3  12  -4  194.38    7.80
   3  12  -4  190.78    7.80
   3  12  -4  194.28    7.80
  -3  12   4  201.18    8.50
  -3 -12  -4  179.38    8.40
  -3 -12  -4  184.08    7.70
   3 -12  -4  193.78    7.60
  -3  12  -4  188.38    8.30
   3  12   4  206.78    8.50
   3  12   4  189.78    8.20
  -3  12  -4  187.98    8.20
   3 -12  -4  195.38    8.30
   3  12   4  187.78    7.80
  -4  12   4   39.10    3.30
  -4 -12  -4   41.70    3.30
  -4 -12  -4   43.30    2.90
   4 -12   4   43.60    2.50
   4  12  -4   43.80    2.80
   4  12   4   43.80    3.20
   4 -12  -4   40.00    2.50
   4  12   4   46.00    3.50
   4 -12  -4   45.10    3.10
  -4  12  -4   43.20    3.30
   4  12   4   42.10    2.80
  -4  12  -4   41.80    3.00
   5 -12   4   77.09    4.00
   5  12  -4   82.59    4.40
  -5  12   4   75.19    5.10
  -5 -12  -4   74.69    4.50
  -5  12   4   80.19    5.30
  -5  12  -4   70.79    4.80
   5 -12  -4   69.69    4.40
   5  12   4   72.79    4.20
   5 -12  -4   73.39    3.80
   5  12   4   79.19    4.80
   5  12   4   72.19    5.10
  -6 -12  -4   55.29    3.90
   6 -12   4   56.09    3.50
   6  12  -4   48.60    3.50
   6  12   4   47.70    4.50
  -6  12  -4   51.99    4.30
   6  12   4   50.09    4.60
   6  12   4   53.59    4.20
   0 -13   4  134.19    6.30
   0  13  -4  134.49    5.90
   0  13   4  143.49    5.40
   0  13  -4  133.79    5.30
   0  13  -4  124.99    5.90
   0 -13  -4  129.69    5.60
   0  13  -4  128.69    5.30
   0 -13  -4  132.09    5.80
   1  13  -4  431.06   15.20
  -1 -13  -4  432.56   15.20
   1  13  -4  422.36   15.30
   1 -13   4  423.06   16.60
   1  13  -4  422.26   15.20
  -1  13   4  456.15   15.70
   1  13  -4  430.16   16.00
  -1 -13  -4  432.66   15.80
  -1 -13  -4  441.36   15.90
   1  13  -4  410.96   16.00
  -1 -13   4  425.96   14.90
  -1  13  -4  420.06   15.10
   1  13   4  436.26   15.20
  -1  13  -4  452.45   16.10
   1 -13  -4  409.86   15.90
  -1  13  -4  412.26   15.40
   1 -13  -4  424.96   15.40
   2  13  -4   80.79    3.60
   2  13  -4   80.79    3.40
   2  13  -4   77.39    4.20
   2  13  -4   82.19    3.70
  -2 -13  -4   82.09    3.50
  -2 -13  -4   79.29    4.20
   2  13  -4   81.39    4.00
  -2 -13  -4   83.49    3.80
  -2  13   4   72.79    4.00
   2 -13   4   79.99    3.40
  -2  13  -4   74.89    4.20
   2 -13  -4   78.59    3.70
  -2  13  -4   78.99    3.90
   2 -13  -4   81.39    4.30
  -2  13  -4   80.29    4.10
   2  13   4   81.89    3.90
  -2 -13   4   85.49    3.40
   2  13   4   82.99    4.60
   3 -13   4   21.00    1.50
   3  13  -4   23.20    1.70
   3  13  -4   18.30    1.90
  -3 -13  -4   19.10    1.60
  -3 -13  -4   19.80    2.40
  -3  13   4   18.20    2.00
   3  13  -4   23.60    1.80
  -3  13  -4   19.40    2.30
  -3  13  -4   21.80    2.40
   3  13   4   20.30    1.90
   3 -13  -4   20.70    2.30
   3  13   4   22.10    2.00
   3 -13  -4   18.60    1.50
   3  13   4   23.40    2.40
   4  13  -4  157.68    7.00
  -4 -13  -4  162.98    7.20
  -4  13   4  177.48    8.10
   4 -13   4  164.08    6.80
  -4 -13  -4  158.48    7.90
   4  13   4  166.78    7.90
  -4  13  -4  168.08    7.80
   4  13   4  164.58    7.60
  -4  13  -4  151.38    7.20
   4 -13  -4  164.68    6.80
   4 -13  -4  157.28    7.40
   4  13   4  161.38    7.10
  -5  13   4   61.29    4.70
   5 -13   4   75.09    3.80
  -5 -13  -4   70.99    4.20
  -5  13   4   73.49    4.90
   5  13  -4   61.69    3.80
   5 -13  -4   67.69    3.70
   5  13   4   69.09    4.90
   5 -13  -4   75.69    4.40
   5  13   4   68.19    4.50
  -5  13  -4   62.29    4.50
   5  13   4   67.89    4.10
  -6 -13  -4   44.30    3.50
   6  13  -4   41.80    3.20
   6 -13   4   42.60    3.00
  -6  13  -4   43.70    4.60
   6  13   4   43.40    4.30
   6  13   4   43.70    4.40
   0  14   4   37.70    2.10
   0 -14  -4   39.20    2.40
   0  14  -4   42.70    2.20
   0  14  -4   39.60    2.60
   0 -14  -4   42.00    2.60
   0  14  -4   46.70    2.20
   0  14  -4   37.60    2.60
   1  14  -4   19.50    1.30
   1  14  -4   18.30    1.30
  -1 -14  -4   19.70    1.90
  -1 -14  -4   18.70    1.40
   1  14  -4   20.10    1.80
  -1  14   4   20.80    1.60
  -1 -14  -4   17.50    1.90
   1  14  -4   19.60    2.00
   1  14  -4   18.10    1.40
  -1  14  -4   18.60    1.30
  -1 -14   4   16.60    1.10
   1 -14  -4   16.10    1.40
   1  14   4   18.10    1.30
   1 -14  -4   18.70    2.00
  -1  14  -4   19.00    1.50
  -1  14  -4   19.60    2.10
   2  14  -4    7.40    0.80
   2 -14   4    3.50    0.60
  -2 -14  -4    4.90    0.70
   2  14  -4    4.50    0.90
  -2  14   4    4.10    1.00
   2  14  -4    6.00    1.10
  -2 -14  -4    5.10    0.90
   2  14  -4    4.30    0.90
   2  14  -4    3.60    1.00
  -2 -14  -4    3.40    1.00
   2 -14  -4    5.40    1.20
  -2  14  -4    2.90    0.90
  -2 -14   4    7.80    0.80
   2  14   4    4.50    0.90
   2 -14  -4    6.80    1.00
  -2  14  -4    5.50    1.30
   3  14  -4  250.87    9.90
   3  14  -4  248.18    9.90
   3  14  -4  257.27   10.00
  -3 -14  -4  251.97    9.80
  -3  14   4  276.97   10.80
   3 -14   4  255.77    9.60
  -3 -14  -4  241.68   10.60
  -3  14  -4  254.77   10.50
   3  14   4  241.28   10.30
   3  14   4  251.47   10.40
   3 -14  -4  267.37   10.60
  -3  14  -4  262.17   10.60
   3 -14  -4  261.07    9.80
   3  14   4  254.07   10.00
  -4 -14  -4    9.40    1.50
  -4  14   4    8.90    1.90
   4 -14   4    9.60    1.30
   4  14  -4    8.60    1.40
  -4 -14  -4    7.50    1.80
   4  14   4    9.60    1.90
   4  14   4   11.60    2.00
   4  14   4    8.60    1.50
   4 -14  -4    8.30    1.60
   4 -14  -4   10.60    1.30
  -4  14  -4    6.70    1.50
  -4  14  -4    6.40    1.50
  -5  14   4   48.70    4.00
   5 -14   4   43.90    2.80
  -5 -14  -4   42.70    3.20
   5  14  -4   41.60    3.00
  -5  14   4   40.40    4.20
   5 -14  -4   41.40    3.30
   5 -14  -4   49.90    2.90
   5  14   4   42.00    3.80
  -5  14  -4   42.60    3.60
   5  14   4   47.70    3.30
   5  14   4   44.50    3.60
   6 -14   4   -0.50    0.70
   0 -15  -4   26.00    2.10
   0  15  -4   25.50    2.20
   0  15  -4   27.10    1.60
   0  15   4   28.10    1.60
   0  15  -4   26.00    1.70
   0  15  -4   28.40    2.20
   0 -15  -4   25.10    1.90
  -1  15   4  100.99    4.60
  -1 -15  -4  102.29    4.80
   1  15  -4  105.99    5.00
   1  15  -4  108.49    5.00
   1  15  -4  101.09    4.30
   1  15  -4  104.39    4.30
  -1 -15  -4  102.19    4.90
   1  15  -4  100.39    4.20
   1  15   4  106.19    4.30
   1 -15  -4  102.49    5.10
  -1 -15   4  108.09    4.30
  -1  15  -4  112.09    5.40
  -1  15  -4  115.99    4.90
  -1  15  -4  104.89    4.40
   1 -15  -4  104.89    4.70
  -2 -15  -4   44.10    3.00
  -2 -15  -4   49.20    2.70
   2  15  -4   41.50    2.90
   2  15  -4   45.40    2.30
   2  15  -4   44.50    2.50
   2  15  -4   46.50    2.90
   2  15  -4   51.19    2.60
  -2 -15  -4   51.89    2.40
  -2  15   4   47.10    2.90
   2 -15   4   50.39    2.30
   2 -15  -4   46.90    3.10
   2  15   4   47.70    2.60
  -2 -15   4   45.40    2.20
   2 -15  -4   49.50    2.50
  -2  15  -4   46.10    3.10
  -2  15  -4   44.60    2.80
   3  15  -4   74.59    3.70
  -3 -15  -4   72.39    3.50
  -3 -15  -4   65.89    4.20
   3  15  -4   70.49    3.60
  -3  15   4   69.79    4.20
   3  15  -4   62.69    3.50
   3 -15   4   72.69    3.30
   3 -15  -4   67.59    3.40
  -3  15  -4   75.29    4.20
   3 -15  -4   62.89    3.90
   3  15   4   70.19    3.60
  -3  15  -4   63.89    3.90
   3  15   4   67.49    3.90
   3  15   4   67.69    3.90
  -4 -15  -4  131.39    6.10
   4 -15   4  129.29    5.70
   4  15  -4  132.39    6.00
  -4 -15  -4  132.69    6.90
  -4  15   4  142.39    7.10
   4  15   4  131.89    6.20
   4 -15  -4  137.39    6.70
   4  15   4  132.19    6.60
  -4  15  -4  130.79    6.80
   4  15   4  136.59    6.80
   4 -15  -4  130.39    5.70
  -4  15  -4  143.49    6.70
  -5 -15  -4   57.59    3.70
  -5  15   4   56.59    4.40
  -5  15   4   57.89    4.50
   5 -15   4   56.29    3.30
   5  15  -4   53.49    3.50
   5  15   4   57.39    4.30
   5 -15  -4   52.09    3.80
   5  15   4   53.29    3.70
   5  15   4   56.09    4.10
  -5  15  -4   59.29    4.40
   0  16   4  939.21   33.70
   0 -16  -4  942.41   34.60
   0 -16  -4 1002.10   34.40
   0  16  -4 1063.29   34.80
   0  16  -4  976.40   34.00
   0  16  -4  968.70   34.80
   0  16  -4  989.70   33.80
  -1  16   4   37.30    2.20
   1  16  -4   35.80    2.00
  -1 -16  -4   33.00    2.30
   1  16  -4   33.70    2.50
   1  16  -4   36.80    2.00
  -1 -16  -4   35.50    2.40
   1  16  -4   35.90    2.00
   1 -16  -4   35.00    2.20
  -1  16  -4   36.40    2.70
  -1  16  -4   39.40    2.30
   1  16   4   34.40    1.80
   1 -16  -4   42.20    2.70
  -1 -16   4   36.00    1.90
   2  16  -4   65.89    3.20
   2  16  -4   70.09    3.40
   2  16  -4   67.99    3.90
   2  16  -4   67.49    3.70
  -2 -16  -4   72.09    4.00
  -2 -16  -4   69.09    3.10
  -2  16   4   65.49    3.70
   2 -16   4   67.69    3.10
  -2 -16  -4   67.29    3.50
   2  16  -4   69.19    3.10
   2  16   4   72.69    3.70
   2 -16  -4   63.49    3.20
   2  16   4   64.09    3.20
   2 -16  -4   67.29    3.90
  -2  16  -4   61.59    3.80
  -2 -16   4   64.89    2.90
  -2  16  -4   60.69    3.50
  -3  16   4  128.29    6.40
   3  16  -4  127.19    5.70
   3  16  -4  124.69    5.60
  -3 -16  -4  127.09    6.40
  -3 -16  -4  129.09    5.50
   3 -16   4  125.99    5.30
   3  16  -4  125.49    5.60
   3 -16  -4  126.39    6.10
   3  16   4  118.19    5.90
  -3  16  -4  127.29    6.20
   3 -16  -4  119.49    5.20
  -3  16  -4  120.49    6.00
   3  16   4  119.79    5.70
   3  16   4  127.09    5.60
  -4 -16  -4   61.39    4.20
  -4 -16  -4   55.69    3.30
   4 -16   4   55.29    3.10
  -4  16   4   57.59    4.20
   4  16  -4   61.29    3.40
  -4  16  -4   61.99    4.00
   4 -16  -4   68.19    4.10
   4  16   4   63.29    4.10
   4 -16  -4   57.29    3.20
   4  16   4   62.89    3.70
   4  16   4   66.29    4.10
  -4  16  -4   51.79    4.00
  -5  16   4   40.90    3.90
  -5 -16  -4   45.70    3.20
   5 -16   4   47.10    2.90
  -5  16   4   46.80    4.60
   5  16  -4   42.60    3.10
   5 -16  -4   43.60    3.50
   5  16   4   43.70    3.70
   5  16   4   46.50    3.90
  -5  16  -4   49.60    4.00
   5  16   4   50.69    4.70
   0 -17  -4  223.48    9.10
   0  17  -4  220.78    9.40
   0 -17  -4  234.08    9.40
   0  17  -4  237.48    8.60
   0  17  -4  235.38    8.90
   0  17  -4  230.28    9.60
   0  17   4  238.08    8.60
   1  17  -4   13.90    1.20
  -1 -17  -4   15.70    1.80
   1  17  -4   12.60    1.30
   1  17  -4   11.70    1.60
  -1 -17  -4   13.10    1.60
   1  17  -4   15.90    1.20
   1  17  -4   15.60    1.90
  -1  17   4   14.80    1.30
  -1  17  -4   21.30    2.40
  -1 -17   4   17.40    1.20
   1 -17  -4   16.80    1.40
   1 -17  -4   13.50    1.80
  -1  17  -4   12.50    2.40
   1  17   4   15.70    1.10
  -1  17  -4   18.10    1.80
   2  17  -4   32.70    2.10
   2  17  -4   33.10    2.30
   2  17  -4   33.10    2.00
  -2 -17  -4   31.10    2.50
   2  17  -4   31.70    2.50
  -2  17   4   34.40    2.40
   2  17  -4   30.00    1.80
  -2 -17  -4   31.20    1.80
  -2 -17  -4   31.80    2.20
   2 -17   4   33.30    1.90
  -2  17  -4   28.40    2.30
  -2 -17   4   30.30    1.70
   2  17   4   27.10    2.20
   2 -17  -4   30.70    1.90
   2 -17  -4   29.90    2.50
  -2  17  -4   30.80    2.60
  -3 -17  -4    8.60    1.60
   3 -17   4    8.00    1.10
  -3 -17  -4    6.50    1.10
  -3  17   4    6.80    1.50
   3  17  -4    9.20    1.30
   3  17  -4    7.40    1.30
   3  17  -4    7.50    1.20
   3  17   4    6.90    1.40
  -3  17  -4    4.80    1.30
   3 -17  -4    5.80    1.30
   3 -17  -4    7.40    1.10
   3  17   4    6.10    1.30
   3  17   4    7.20    1.40
  -3  17  -4    4.40    1.30
  -4 -17  -4   25.80    3.10
  -4  17   4   27.00    2.90
  -4  17   4   25.30    3.30
   4 -17   4   28.20    2.00
   4  17  -4   31.60    2.30
  -4 -17  -4   29.30    2.20
   4  17   4   30.00    3.00
   4 -17  -4   34.90    2.90
  -4  17  -4   27.60    3.10
   4  17   4   34.00    2.90
   4 -17  -4   31.40    2.30
   4  17   4   28.60    3.00
  -4  17  -4   25.90    2.90
  -5  17   4   31.90    3.50
   5  17  -4   36.50    2.80
   5 -17   4   34.60    2.50
  -5  17   4   34.80    4.00
  -5 -17  -4   33.00    2.70
   5  17   4   36.90    3.40
   5  17   4   30.30    3.50
  -5  17  -4   31.60    3.80
   5 -17  -4   39.00    3.70
   0  18   4  319.07   11.50
   0 -18  -4  341.37   12.60
   0 -18  -4  325.67   12.20
   0  18  -4  317.67   11.90
   0  18  -4  322.97   12.70
   0  18  -4  298.97   12.40
   1  18  -4  128.89    6.10
  -1 -18  -4  134.59    5.90
   1  18  -4  133.59    5.40
   1  18  -4  147.09    6.30
  -1  18   4  131.49    5.60
   1  18  -4  127.89    5.30
  -1 -18  -4  128.79    6.00
   1  18  -4  126.49    5.40
   1 -18  -4  135.79    5.70
  -1 -18   4  133.39    5.30
  -1  18  -4  133.69    5.90
   1 -18  -4  134.29    6.30
   1  18   4  139.89    5.20
  -1  18  -4  121.79    6.60
  -1  18  -4  143.39    6.50
  -2  18   4   39.50    2.70
  -2 -18  -4   41.90    2.20
   2  18  -4   40.40    2.20
  -2 -18  -4   44.80    3.00
   2  18  -4   41.30    2.30
   2  18  -4   37.50    2.80
  -2 -18  -4   40.70    2.60
   2  18  -4   44.80    2.80
   2  18  -4   42.70    2.50
   2 -18   4   47.10    2.30
   2 -18  -4   46.20    2.50
  -2  18  -4   39.40    2.80
  -2  18  -4   45.10    3.20
  -2 -18   4   45.20    2.20
   2 -18  -4   40.80    3.00
   2  18   4   42.40    2.80
   3  18  -4   64.69    3.50
   3  18  -4   62.69    3.40
  -3  18   4   65.39    4.10
   3  18  -4   66.89    3.60
  -3 -18  -4   60.99    3.30
   3 -18   4   67.69    3.20
  -3 -18  -4   64.89    4.10
   3  18   4   63.09    3.50
  -3  18  -4   64.59    4.10
   3  18   4   52.49    3.60
   3 -18  -4   56.69    3.10
  -3  18  -4   67.99    4.00
   3 -18  -4   62.79    3.90
  -4 -18  -4   60.99    4.30
  -4 -18  -4   58.79    3.40
  -4  18   4   61.59    4.40
  -4  18   4   68.59    4.80
   4 -18   4   62.89    3.30
   4  18  -4   56.89    3.40
   4  18   4   63.39    4.20
   4 -18  -4   65.09    4.20
  -4  18  -4   61.89    4.20
   4  18   4   66.99    5.20
  -4  18  -4   63.49    4.20
   4  18   4   60.59    4.00
  -5  18   4   77.49    5.50
  -5  18   4   70.19    5.30
   5  18  -4   76.19    4.30
   5 -18   4   78.99    4.10
  -5 -18  -4   80.69    4.40
  -5  18  -4   67.99    5.00
   5  18   4   76.09    5.00
   5 -18  -4   69.09    4.60
   5  18   4   79.49    5.10
   0 -19  -4  438.26   16.10
   0  19  -4  415.16   16.60
   0  19  -4  443.66   15.90
   0 -19  -4  422.56   16.40
   0  19   4  464.85   15.40
   0  19  -4  422.96   16.40
   1  19  -4  118.69    5.10
   1  19  -4  123.79    5.00
  -1 -19  -4  128.99    5.80
  -1 -19  -4  124.09    5.70
   1  19  -4  133.69    6.00
  -1  19   4  119.19    5.30
   1  19  -4  117.59    5.80
   1  19  -4  124.49    5.20
   1 -19  -4  118.29    5.20
  -1  19  -4  123.69    6.20
  -1  19  -4  128.09    6.10
   1  19   4  126.59    4.60
   1  19   4  111.99    4.60
  -1  19  -4  117.29    5.40
  -1 -19   4  118.39    4.90
   1 -19  -4  115.19    5.80
   2  19  -4   56.69    3.20
   2  19  -4   56.89    3.50
   2  19  -4   60.89    3.00
   2  19  -4   59.19    2.90
   2 -19   4   59.99    2.90
   2  19  -4   67.49    3.80
  -2  19   4   63.19    3.60
  -2 -19  -4   61.09    2.90
  -2 -19  -4   61.09    3.80
   2  19   4   56.49    3.40
   2  19   4   58.89    2.90
  -2  19  -4   54.39    3.80
   2 -19  -4   63.09    3.80
  -2  19  -4   60.79    3.60
  -2 -19   4   59.19    2.80
   2 -19  -4   60.19    3.00
   3  19  -4   87.99    5.20
  -3  19   4   75.29    4.70
   3 -19   4   89.59    4.00
   3  19  -4   84.29    4.30
   3  19  -4   85.79    4.20
   3  19  -4   85.39    4.30
  -3 -19  -4   83.29    4.00
  -3 -19  -4   97.89    5.20
  -3  19  -4   84.89    5.00
   3 -19  -4   85.89    4.90
   3 -19  -4   87.79    4.00
   3  19   4   89.29    4.40
   3  19   4   86.69    4.80
  -3  19  -4   89.69    5.00
  -4  19   4   12.90    2.30
  -4 -19  -4   18.10    2.00
   4  19  -4   16.10    1.90
  -4  19   4   15.40    2.80
   4 -19   4   17.50    1.80
  -4 -19  -4   19.10    2.70
   4  19   4   17.80    2.50
   4 -19  -4   17.60    2.50
  -4  19  -4   19.70    2.50
  -4  19  -4   18.90    2.60
   4  19   4   13.70    2.10
  -5 -19  -4  216.08    9.00
  -5  19   4  208.18   10.30
   5  19  -4  198.28    8.80
   5 -19   4  204.78    8.50
  -5  19   4  203.48   10.40
   5 -19  -4  199.08    9.40
  -5  19  -4  211.78   10.00
   5  19   4  198.18    9.50
   5  19   4  199.78    9.60
   0  20  -4   21.50    1.70
   0  20   4   20.30    1.30
   0 -20  -4   25.00    2.50
   0  20  -4   20.40    2.30
   0 -20  -4   21.30    1.80
   1  20  -4   41.80    2.90
  -1  20   4   38.40    2.40
  -1 -20  -4   44.80    2.80
   1  20  -4   39.90    2.30
   1  20  -4   42.80    2.40
  -1 -20  -4   42.00    2.80
   1  20  -4   45.80    2.90
   1 -20  -4   43.90    2.50
  -1 -20   4   40.30    2.20
  -1  20  -4   42.70    3.20
   1  20   4   39.40    1.80
  -1  20  -4   40.30    2.60
  -1  20  -4   43.30    3.10
   1  20   4   43.40    1.90
   1 -20  -4   45.90    3.10
  -2 -20  -4  149.79    5.90
  -2 -20  -4  148.79    7.00
   2  20  -4  153.28    7.00
   2 -20   4  143.29    5.90
   2  20  -4  144.19    6.00
   2  20  -4  154.68    6.30
  -2  20   4  139.69    6.60
   2  20  -4  144.79    6.60
   2  20  -4  150.88    6.00
   2  20   4  143.29    6.60
  -2 -20   4  144.49    5.80
   2 -20  -4  145.29    6.90
   2 -20  -4  151.28    6.10
  -2  20  -4  156.68    7.20
   2  20   4  147.49    5.90
  -2  20  -4  140.39    6.70
  -3  20   4    0.60    1.00
   3 -20   4    0.80    0.60
   3  20  -4    0.60    0.70
  -3 -20  -4   -0.20    0.80
   3  20  -4    0.80    0.60
  -3 -20  -4    0.90    0.60
  -3  20   4    0.40    0.70
   3  20  -4    1.90    0.80
   3  20   4    1.30    0.70
   3 -20  -4    0.60    0.70
  -3  20  -4    1.20    1.00
  -3  20  -4    1.20    0.80
   3  20   4   -0.10    0.70
   4 -20   4  116.19    5.20
   4  20  -4  113.99    5.50
  -4  20   4  125.39    6.70
  -4  20   4  110.99    6.80
  -4 -20  -4  109.69    5.40
  -4 -20  -4  118.59    6.60
  -4  20  -4  113.99    6.20
  -4  20  -4  112.99    6.30
   4  20   4  124.49    6.00
   4 -20  -4  113.49    6.20
   4  20   4  105.39    6.00
  -5 -20  -4   67.89    4.00
   5 -20   4   69.39    3.80
   5  20  -4   59.49    3.90
  -5  20   4   67.69    5.10
  -5  20   4   69.29    5.30
   5  20   4   60.79    4.60
  -5  20  -4   66.49    4.80
   5  20   4   65.09    4.50
   5 -20  -4   65.89    4.50
   0  21  -4  166.88    7.60
   0  21  -4  165.68    6.80
   0  21  -4  156.88    7.30
   0 -21  -4  161.88    7.20
   0  21   4  160.98    6.10
   0 -21  -4  168.68    7.00
   1  21  -4   13.30    1.40
  -1 -21  -4    9.20    1.50
   1  21  -4   13.90    1.90
  -1  21   4   11.20    1.20
   1  21  -4   14.00    1.90
  -1 -21  -4   13.10    1.80
   1  21  -4   13.10    1.40
  -1  21  -4   13.10    2.00
   1 -21  -4   12.00    1.90
  -1  21  -4   15.80    2.10
  -1  21  -4    9.50    1.50
   1  21   4   10.90    0.80
   1 -21  -4   10.00    1.30
  -1 -21   4   12.10    1.20
  -2  21   4   62.39    3.50
   2  21  -4   54.59    3.30
   2  21  -4   50.89    3.40
   2 -21   4   54.19    2.70
   2  21  -4   54.39    3.00
  -2 -21  -4   50.79    2.60
  -2 -21  -4   52.79    3.60
   2  21  -4   52.39    2.80
   2  21  -4   51.09    2.70
   2 -21  -4   52.79    3.60
   2 -21  -4   49.80    2.90
   2  21   4   58.99    3.50
  -2  21  -4   62.29    4.00
  -2  21  -4   54.79    3.50
   2  21   4   57.19    2.70
  -2 -21   4   52.69    2.70
   3  21  -4   26.40    2.60
  -3  21   4   31.80    3.60
   3  21  -4   30.60    2.70
  -3 -21  -4   30.40    2.00
  -3  21   4   27.00    2.60
   3  21  -4   33.40    2.40
  -3 -21  -4   27.00    3.10
   3  21  -4   29.70    2.10
   3 -21   4   30.80    2.00
  -3 -21   4   33.80    2.40
  -3  21  -4   29.60    3.30
   3  21   4   36.50    2.40
   3 -21  -4   25.90    2.90
  -3  21  -4   30.40    3.20
   3  21   4   33.70    2.80
  -4 -21  -4   31.00    2.30
  -4  21   4   27.10    3.60
   4 -21   4   31.90    2.20
   4  21  -4   28.10    2.30
  -4 -21  -4   33.10    3.60
  -4  21   4   27.30    3.00
   4  21   4   33.00    3.40
  -4  21  -4   30.40    3.40
   4  21   4   31.00    2.60
  -4  21  -4   32.20    3.40
   4 -21  -4   27.90    3.20
  -5  21   4   11.20    2.60
   5 -21   4   10.80    1.50
   5  21  -4   10.60    1.80
  -5 -21  -4   10.40    1.70
  -5  21   4   10.20    2.40
  -5  21  -4    5.70    1.90
   5  21   4   10.80    2.20
   5  21   4   11.90    2.10
   5 -21  -4    9.90    2.10
   0 -22  -4    2.20    0.90
   0  22  -4    0.30    0.80
   0  22  -4    1.90    0.70
   0  22   4    1.30    0.40
   0  22  -4    1.50    0.70
   0 -22  -4    1.10    0.80
   1  22  -4  197.68    8.70
   1  22  -4  197.08    8.60
   1  22  -4  197.18    7.90
  -1 -22  -4  196.38    8.50
  -1 -22  -4  195.98    8.40
  -1  22   4  208.58    8.00
   1  22  -4  207.08    8.00
   1  22   4  196.28    7.00
   1 -22  -4  198.38    8.00
   1 -22  -4  200.08    8.70
  -1  22  -4  197.38    8.90
  -1  22  -4  202.28    8.80
  -1 -22   4  200.38    7.70
  -1  22  -4  192.18    8.30
   2  22  -4  190.08    8.40
  -2  22   4  186.88    9.20
  -2 -22  -4  176.78    8.40
   2  22  -4  195.38    8.20
  -2 -22  -4  198.08    7.40
   2  22  -4  181.98    7.50
   2  22  -4  187.68    7.80
  -2  22   4  191.18    8.10
  -2  22  -4  193.08    8.50
   2  22   4  191.68    7.30
  -2  22  -4  188.28    8.90
   2  22   4  191.58    8.30
  -2 -22   4  196.78    7.50
   2 -22  -4  199.78    8.80
   3  22  -4   27.10    2.60
  -3 -22  -4   28.30    2.00
   3  22  -4   28.40    2.60
   3  22  -4   26.50    2.00
  -3  22   4   26.70    2.60
  -3  22   4   27.40    3.40
   3 -22   4   29.40    1.90
   3  22  -4   24.80    2.00
  -3 -22  -4   29.70    3.20
  -3 -22   4   28.90    2.10
   3 -22  -4   28.60    3.10
  -3  22  -4   27.40    3.10
  -3  22  -4   24.60    2.90
   3  22   4   28.50    2.10
   3  22   4   25.70    2.90
  -4 -22  -4  155.18    7.90
  -4  22   4  139.39    7.70
  -4 -22  -4  149.39    6.60
  -4  22   4  143.29    8.20
   4 -22   4  159.18    6.40
   4  22  -4  140.39    6.50
  -4  22  -4  146.49    7.60
   4  22   4  144.99    6.90
  -4  22  -4  150.18    7.70
   4 -22  -4  149.39    7.50
   4  22   4  150.88    7.50
   5  22  -4   77.09    4.50
  -5  22   4   83.89    6.00
  -5 -22  -4   85.59    4.60
   5 -22   4   81.09    4.20
  -5  22   4   74.69    5.50
   5 -22  -4   72.79    5.00
   5  22   4   89.39    5.20
  -5  22  -4   80.49    5.60
   5  22   4   85.59    5.50
   0 -23  -4  178.68    7.90
   0  23  -4  177.78    8.00
   0  23  -4  186.98    7.50
   0  23   4  175.88    6.60
   0  23  -4  177.78    8.20
   0 -23  -4  182.38    7.60
   1  23  -4   98.39    4.40
  -1  23   4   87.29    4.20
  -1 -23  -4   91.69    4.80
   1  23  -4   84.89    4.80
   1  23  -4   98.39    5.10
  -1 -23  -4   96.79    4.80
  -1  23   4   95.69    5.60
   1  23  -4   95.29    4.40
   1  23   4  100.19    4.80
  -1  23  -4   92.79    4.80
  -1  23  -4   99.29    5.40
   1 -23  -4   94.19    4.50
  -1  23  -4   96.19    5.40
   1  23   4  104.39    5.50
   1 -23  -4   96.79    5.20
  -2 -23  -4    0.50    0.90
  -2 -23  -4    1.80    0.60
   2  23  -4    2.00    0.70
   2  23  -4    3.40    1.10
  -2  23   4    2.30    0.90
   2  23  -4    0.80    0.80
  -2  23   4    0.60    1.00
   2  23  -4    1.80    0.70
  -2 -23   4    2.30    0.60
   2 -23  -4    3.30    1.10
   2  23   4    2.40    0.50
  -2  23  -4    2.00    1.20
  -2  23  -4    0.80    0.70
   2  23   4    3.00    1.00
   3  23  -4   31.90    2.80
   3  23  -4   29.90    2.20
   3  23  -4   30.80    2.20
  -3  23   4   32.60    3.90
  -3 -23  -4   28.10    3.20
   3  23  -4   30.30    2.50
  -3 -23  -4   34.20    2.20
   3 -23   4   32.50    2.10
  -3  23   4   38.10    3.10
   3  23   4   28.30    3.00
   3  23   4   33.50    2.20
  -3 -23   4   37.70    2.20
  -3  23  -4   34.60    3.40
  -3  23  -4   38.00    3.70
   3 -23  -4   25.50    3.10
   4 -23   4    1.00    0.70
  -4  23   4    1.00    1.40
  -4 -23  -4    1.70    0.80
  -4 -23  -4    1.20    1.30
   4  23  -4    2.60    0.90
  -4  23   4    2.50    1.30
   4  23   4    2.70    1.30
  -4  23  -4   -0.30    1.00
  -4  23  -4   -0.40    1.10
   4 -23  -4    1.50    1.10
   4  23   4    1.30    0.80
   0  24   4   73.89    3.00
   0  24   4   71.89    4.70
   0  24  -4   68.89    4.20
   0  24  -4   75.69    3.90
   0 -24  -4   72.79    4.00
   0  24  -4   84.99    4.70
   0 -24  -4   76.39    4.30
   1  24  -4   46.90    3.30
   1  24  -4   52.09    2.90
   1  24  -4   50.99    2.90
  -1 -24  -4   49.30    3.30
   1  24  -4   49.70    3.40
  -1 -24  -4   58.09    3.50
  -1  24   4   48.00    2.70
  -1  24   4   61.49    4.30
   1  24   4   54.19    3.80
  -1  24  -4   55.19    3.80
  -1  24  -4   61.89    4.10
   1  24   4   55.19    3.30
  -1  24  -4   54.99    3.40
   1 -24  -4   54.69    3.70
   2  24  -4   64.29    3.40
  -2  24   4   68.99    3.90
   2  24  -4   67.59    4.10
   2  24  -4   67.49    3.70
  -2  24   4   63.59    4.70
  -2 -24  -4   60.89    4.00
   2  24  -4   65.39    4.00
  -2 -24   4   69.49    3.20
   2 -24  -4   64.79    4.10
   2  24   4   58.59    3.70
  -2  24  -4   59.69    4.30
  -2  24  -4   59.59    3.90
  -3 -24  -4   36.10    2.30
   3  24  -4   35.10    2.40
   3 -24   4   35.10    2.30
   3  24  -4   32.90    2.70
  -3  24   4   46.20    4.70
  -3 -24  -4   41.00    3.40
  -3  24   4   36.50    3.10
   3  24  -4   36.00    3.00
  -3  24  -4   28.10    3.10
   3 -24  -4   41.40    3.90
   3  24   4   35.30    2.20
  -3  24  -4   29.70    3.40
   3  24   4   32.40    3.30
  -3 -24   4   33.70    2.20
  -4 -24  -4   91.09    5.70
  -4  24   4   85.49    5.50
  -4 -24  -4   77.19    4.20
   4 -24   4   89.89    4.30
  -4  24   4   90.29    6.20
   4  24  -4   81.89    4.40
   4 -24  -4   74.49    4.90
  -4  24  -4   79.19    5.20
   4  24   4   74.39    4.90
  -4  24  -4   76.19    5.10
   4  24   4   74.49    4.20
   0 -25  -4   37.80    3.00
   0  25   4   39.50    1.80
   0  25  -4   37.00    3.10
   0  25  -4   40.00    2.70
   0  25   4   43.10    3.50
   0 -25  -4   43.80    2.80
   0  25  -4   39.70    3.00
  -1  25   4   54.29    4.10
   1  25  -4   50.49    2.90
   1  25  -4   48.80    3.40
  -1 -25  -4   44.00    3.20
  -1  25   4   52.99    2.80
   1  25  -4   52.29    3.50
  -1 -25  -4   53.19    3.40
   1  25  -4   51.29    3.00
  -1  25  -4   49.80    3.60
  -1  25  -4   48.90    3.20
   1  25   4   51.19    3.80
   1  25   4   55.19    3.20
  -1  25  -4   51.89    3.80
   1 -25  -4   51.19    3.60
   2  25  -4  182.58    7.80
  -2 -25  -4  187.48    8.50
   2  25  -4  181.38    8.20
   2  25  -4  185.08    7.60
  -2  25   4  189.68    8.10
  -2  25   4  195.98    9.50
   2  25  -4  177.78    8.40
  -2 -25   4  171.18    7.20
   2 -25  -4  177.48    8.40
  -2  25  -4  188.28    8.80
  -2  25  -4  188.58    8.30
   2  25   4  178.78    8.00
  -3 -25  -4   31.60    3.50
   3 -25   4   35.50    2.30
   3  25  -4   34.10    2.30
  -3  25   4   37.10    3.10
   3  25  -4   31.00    2.90
   3  25  -4   31.60    2.90
  -3 -25  -4   33.30    2.20
  -3  25   4   39.40    4.40
  -3  25  -4   33.60    3.60
   3 -25  -4   32.60    3.40
  -3 -25   4   32.10    2.20
   3  25   4   34.00    2.00
   3  25   4   34.30    3.40
  -3  25  -4   37.50    3.20
  -4  25   4  172.48    9.50
   4 -25   4  171.08    7.30
   4  25  -4  169.18    7.50
  -4  25   4  184.88    8.90
  -4 -25  -4  166.18    7.40
   4  25   4  153.98    7.10
  -4  25  -4  173.58    8.50
  -4  25  -4  161.78    8.40
   4 -25  -4  170.98    8.30
   4  25   4  163.48    8.20
   0 -26  -4   95.29    5.10
   0  26  -4   95.19    4.70
   0  26  -4   90.89    5.10
   0  26   4   97.49    5.70
   0 -26  -4   98.59    6.30
   0  26  -4   86.29    5.20
   0  26   4   94.19    3.60
   1  26  -4   59.69    3.30
  -1  26   4   58.39    3.00
   1  26  -4   58.39    3.80
   1  26  -4   61.99    4.00
   1  26  -4   56.09    3.20
  -1  26   4   58.19    4.40
  -1 -26  -4   63.79    3.70
  -1 -26  -4   54.29    3.60
   1  26   4   56.39    4.20
  -1  26  -4   56.99    4.10
   1 -26  -4   63.79    4.10
  -1  26  -4   58.29    4.00
   1  26   4   58.99    3.50
  -1  26  -4   65.99    3.80
   2  26  -4   24.20    2.40
  -2 -26  -4   28.60    3.00
   2  26  -4   19.30    2.30
   2  26  -4   23.70    2.30
  -2  26   4   14.60    2.70
  -2  26   4   19.80    2.00
   2  26  -4   23.60    1.90
   2 -26  -4   20.70    2.60
  -2 -26   4   19.70    1.60
   2  26   4   20.30    2.50
  -2  26  -4   14.70    2.50
  -2  26  -4   22.60    2.60
  -3 -26  -4   86.49    5.20
   3 -26   4   83.89    4.00
  -3  26   4   77.59    4.90
   3  26  -4   82.59    4.70
   3  26  -4   82.09    5.00
   3  26  -4   82.19    4.20
  -3  26   4   78.69    5.70
  -3 -26  -4   80.39    4.00
   3 -26  -4   76.29    4.90
   3  26   4   77.59    4.70
  -3 -26   4   76.29    3.80
   3  26   4   77.19    3.40
  -3  26  -4   89.79    5.40
  -3  26  -4   70.99    4.70
  -4  26   4   69.09    5.60
  -4 -26  -4   69.19    3.90
  -4  26   4   77.99    5.20
   4 -26   4   70.69    3.80
  -4  26  -4   64.59    4.80
   4  26   4   71.59    4.70
   4 -26  -4   60.39    4.50
   4  26   4   68.59    3.70
  -4  26  -4   65.49    4.80
   0  27  -4   27.90    2.30
   0  27  -4   29.10    2.60
   0 -27  -4   24.50    2.70
   0  27  -4   29.40    3.30
   0  27   4   29.10    1.40
   0  27   4   32.30    3.70
  -1 -27  -4   37.40    2.90
   1  27  -4   36.40    3.00
   1  27  -4   36.80    2.50
  -1 -27  -4   35.00    2.80
   1  27  -4   35.50    2.50
  -1  27   4   36.20    2.20
   1  27  -4   35.20    2.90
  -1  27   4   43.30    4.40
   1  27   4   42.80    2.90
   1 -27  -4   42.90    3.30
  -1  27  -4   41.70    3.00
  -1  27  -4   38.60    3.30
   1  27   4   43.10    3.60
  -1  27  -4   39.40    3.80
  -2  27   4    1.50    1.30
   2  27  -4    1.40    0.70
   2  27  -4    1.20    1.00
   2  27  -4    1.40    0.80
  -2 -27  -4    2.60    1.20
  -2  27   4    1.30    0.90
   2  27  -4    1.60    0.90
   2 -27  -4    0.30    1.00
  -2  27  -4    0.30    0.70
  -2  27  -4    3.00    1.30
   2  27   4    1.70    0.90
  -2 -27   4    0.40    0.50
  -3 -27  -4    1.20    1.20
  -3  27   4    1.50    1.00
  -3 -27  -4    1.50    0.80
   3  27  -4    1.60    0.80
   3  27  -4    2.30    1.10
   3  27  -4    0.20    0.90
  -3  27   4    2.30    1.60
   3  27   4    1.10    0.50
   3 -27  -4    2.40    1.30
  -3 -27   4    0.90    0.60
  -3  27  -4    2.00    1.40
   3  27   4    1.80    1.00
  -3  27  -4    2.40    1.20
   4 -27   4   15.40    1.80
  -4 -27  -4   17.60    2.00
  -4  27   4   15.00    2.60
  -4  27   4   19.60    3.40
  -4  27  -4   13.60    2.60
   4  27   4   17.10    1.70
   4 -27  -4   16.50    2.70
  -4  27  -4   22.60    3.20
   4  27   4   16.50    2.70
   0  28   4   48.80    4.10
   0  28  -4   55.99    3.40
   0 -28  -4   56.59    3.70
   0  28  -4   51.79    3.70
   0  28  -4   47.30    3.80
   1  28  -4   10.40    1.50
   1  28  -4   12.30    1.70
   1  28  -4   10.90    2.00
  -1  28   4   12.70    1.30
   1  28  -4   13.80    2.20
  -1 -28  -4   11.50    1.80
  -1  28   4   10.40    2.20
  -1  28  -4   14.20    2.00
  -1  28  -4   10.60    2.00
   1  28   4   10.90    2.10
   1 -28  -4    8.90    1.80
  -1  28  -4   13.80    2.30
  -2 -28  -4   50.49    3.80
   2  28  -4   59.69    3.40
   2  28  -4   59.39    3.90
   2  28  -4   58.29    3.60
  -2  28   4   58.49    3.60
   2  28  -4   62.19    4.00
  -2  28   4   65.29    5.00
   2 -28  -4   57.69    4.20
   2  28   4   62.89    3.90
  -2  28  -4   63.39    4.10
  -2  28  -4   59.59    4.40
  -2 -28   4   57.89    3.20
  -3 -28  -4  215.88    9.90
   3  28  -4  206.58    8.70
  -3  28   4  199.58   10.60
   3  28  -4  201.58    9.50
   3  28  -4  209.48    9.20
  -3  28   4  208.28    9.50
   3  28   4  214.48    9.70
  -3 -28   4  217.08    8.60
  -3  28  -4  210.98   10.20
   3 -28  -4  218.88   10.00
  -3  28  -4  202.98    9.80
   0  29  -4  129.79    6.60
   0  29  -4  122.09    6.00
   0  29  -4  131.59    6.90
   0  29   4  115.59    7.00
   0 -29  -4  134.99    6.60
  -1  29   4   57.09    3.00
  -1 -29  -4   54.09    3.70
   1  29  -4   55.39    3.90
   1  29  -4   55.79    3.40
   1  29  -4   52.99    3.90
  -1  29   4   57.29    4.60
   1  29  -4   61.19    3.50
  -1  29  -4   54.39    4.20
  -1  29  -4   51.49    3.60
  -1  29  -4   55.79    4.20
   1 -29  -4   58.59    4.00
   1  29   4   58.99    4.60
   2  29  -4  112.29    5.30
  -2  29   4  109.69    6.90
   2  29  -4  118.29    5.60
  -2  29   4  106.69    5.50
   2  29  -4  107.79    5.90
   2  29  -4  104.69    5.70
  -2 -29  -4  112.19    6.00
  -2  29  -4  104.49    6.40
  -2  29  -4  114.59    6.00
  -2 -29   4  103.19    5.00
   2  29   4  115.09    5.80
   2 -29  -4  114.99    6.30
  -3  29   4    8.00    2.40
  -3  29   4    8.90    1.90
  -3 -29  -4   11.20    2.20
   3  29  -4    8.20    1.40
   3  29  -4    8.70    1.80
   3  29  -4    9.50    1.80
   3  29   4    7.70    1.80
  -3  29  -4    8.90    2.00
  -3 -29   4    9.00    1.40
   3 -29  -4   10.20    2.10
  -3  29  -4   10.40    2.10
   0  30   4   21.10    3.20
   0  30  -4   21.50    2.40
   0  30  -4   18.70    2.50
   0  30  -4   21.40    2.90
   0 -30  -4   20.90    2.60
   1  30  -4   17.80    2.50
  -1  30   4   18.10    1.50
  -1  30   4   17.70    3.10
   1  30  -4   21.30    2.70
   1  30  -4   18.20    2.10
   1  30  -4   17.30    2.10
  -1  30  -4   12.60    2.30
  -1  30  -4   16.10    2.60
   1 -30  -4   15.10    2.30
  -1  30  -4   18.70    2.40
   2  30  -4   37.40    3.20
  -2  30   4   42.80    4.80
   2  30  -4   39.60    2.70
  -2  30   4   36.20    2.80
   2  30  -4   42.80    3.00
  -2 -30   4   43.90    2.70
   2 -30  -4   46.00    3.70
  -2  30  -4   44.60    3.60
  -2  30  -4   43.60    4.40
   3  30  -4   99.59    5.40
  -3  30   4   95.89    6.70
   3  30  -4  100.59    5.40
  -3  30   4   88.59    5.40
  -3 -30  -4   83.79    5.50
   3  30  -4   89.89    5.40
   3  30   4   96.29    5.50
  -3 -30   4   89.99    4.70
  -3  30  -4   91.09    6.00
   3 -30  -4   98.49    5.90
  -3  30  -4   95.79    5.80
   0 -31  -4   54.99    3.90
   0  31  -4   56.59    4.00
   0  31  -4   48.20    3.40
   0  31   4   58.69    4.60
   0  31  -4   60.69    4.40
  -1  31   4   71.79    3.60
   1  31  -4   76.49    4.80
   1  31  -4   86.09    4.50
   1  31  -4   72.69    4.80
  -1  31   4   74.39    5.50
   1  31  -4   76.89    4.20
  -1  31  -4   79.19    5.20
  -1  31  -4   77.19    4.60
   1 -31  -4   70.59    4.70
  -1  31  -4   80.39    5.60
  -2  31   4   28.50    4.00
   2  31  -4   22.80    2.40
   2  31  -4   28.20    2.80
   2  31  -4   24.80    2.60
  -2  31   4   21.00    2.20
   2 -31  -4   21.10    3.00
  -2 -31   4   23.60    2.00
  -2  31  -4   25.80    3.10
  -2  31  -4   25.30    3.40
  -3  31   4  246.18   11.00
   3  31  -4  252.67   11.70
   3  31  -4  235.18   11.10
  -3  31   4  265.97   12.70
   3  31  -4  261.17   11.20
  -3 -31   4  268.87   10.80
  -3  31  -4  253.87   11.80
   3  31   4  270.07   11.70
  -3  31  -4  265.77   12.30
   3 -31  -4  257.47   11.90
   0  32  -4   26.80    3.40
   0 -32  -4   29.70    3.20
   0  32   4   25.30    3.50
   0  32  -4   24.00    3.10
   0  32  -4   24.00    2.70
   1  32  -4   12.50    1.80
   1  32  -4    8.70    2.00
   1  32  -4    8.50    1.60
  -1  32   4    7.10    2.30
  -1  32   4   11.30    1.30
   1  32  -4   14.30    2.30
  -1  32  -4    9.10    2.40
  -1  32  -4   12.40    2.50
  -1  32  -4   10.00    1.90
   1 -32  -4   12.00    2.20
   2  32  -4   77.59    4.40
  -2  32   4   86.09    6.20
  -2  32   4   79.29    4.50
   2  32  -4   85.39    4.80
   2  32  -4   89.69    5.20
   2 -32  -4   76.29    5.20
  -2  32  -4   85.29    5.70
  -2  32  -4   73.09    4.90
  -2 -32   4   82.49    4.20
   0  33  -4   41.90    4.30
   0  33  -4   48.80    3.80
   0  33   4   46.60    4.80
   0  33  -4   39.50    3.20
   0 -33  -4   44.50    3.60
   1  33  -4   22.50    2.50
   1  33  -4   16.20    2.20
  -1  33   4   21.80    3.50
  -1  33   4   18.70    1.50
   1  33  -4   23.00    3.00
   1  33  -4   19.20    2.70
   1 -33  -4   21.20    3.00
  -1  33  -4   20.10    3.10
  -1  33  -4   26.80    4.80
  -1  33  -4   24.60    2.90
   2  33  -4    7.00    1.70
   2  33  -4    4.40    1.30
  -2  33   4    3.10    1.10
   2  33  -4    3.10    1.10
  -2  33   4    3.40    2.00
  -2  33  -4    2.80    1.70
  -2  33  -4    4.80    1.50
   2 -33  -4    3.60    1.50
  -2 -33   4    3.30    1.00
   0  34  -4    3.00    1.60
   0 -34  -4    0.00    1.00
   0  34  -4    1.80    1.20
   0  34  -4    1.80    1.10
   0  34   4    1.40    1.60
   1  34  -4   12.20    1.90
  -1  34   4   12.20    1.20
   1  34  -4   15.70    2.50
   1  34  -4   14.40    2.00
   1  34  -4   15.00    2.50
  -1  34   4   14.50    3.10
  -1  34  -4   17.70    2.60
  -1  34  -4   16.00    2.90
   1 -34  -4   23.30    3.10
   0  35  -4   34.30    3.30
   0 -35  -4   34.30    3.60
   0  35  -4   38.70    3.20
   0  35  -4   32.10    3.70
   0  35   4   43.50    4.90
   0   0  -5  363.16   13.50
   0   0   5  402.96   14.30
   0   0  -5  337.37   13.70
   1   0   5    9.60    1.50
  -1   0  -5   12.30    1.50
   1   0  -5    6.90    1.20
   1   0  -5    7.00    1.10
  -1   0   5   11.80    1.70
  -1   0  -5   10.10    1.40
  -2   0  -5   61.99    3.50
   2   0   5   62.69    3.90
   2   0  -5   61.39    3.20
   2   0  -5   65.19    3.60
  -2   0  -5   60.09    3.30
  -2   0   5   58.79    3.70
   3   0  -5   10.40    1.60
  -3   0   5   10.50    1.80
   3   0  -5   14.10    1.60
   3   0   5    8.30    1.80
  -3   0  -5   13.20    1.90
  -3   0  -5   10.60    1.40
   4   0   5   56.59    4.50
  -4   0  -5   59.39    3.70
   4   0   5   61.19    3.70
   4   0  -5   56.89    3.60
  -4   0  -5   62.29    4.00
   4   0  -5   54.79    3.30
   5   0   5   13.60    2.20
   5   0  -5   12.40    1.80
  -5   0  -5   13.10    2.10
   5   0   5   15.10    3.00
  -5   0  -5   14.20    2.30
   0  -1  -5  177.18    7.00
   0  -1  -5  176.68    7.30
   0  -1   5  175.58    7.60
   0   1  -5  179.88    7.40
   0   1  -5  172.48    7.00
   0   1   5  168.48    7.40
   1  -1   5   68.99    3.90
  -1  -1  -5   68.59    3.60
  -1  -1  -5   70.09    3.50
   1   1  -5   71.79    3.70
  -1   1   5   67.89    3.80
   1   1  -5   68.79    3.40
   1  -1  -5   73.29    3.60
  -1   1  -5   72.79    3.80
  -1  -1   5   73.09    4.00
  -1   1  -5   74.09    3.70
   1   1   5   81.79    4.20
   1  -1  -5   71.29    3.80
   2  -1   5  340.57   13.20
  -2   1   5  325.77   12.80
   2   1  -5  310.67   12.40
  -2  -1  -5  313.47   12.20
  -2  -1  -5  319.37   12.50
   2   1  -5  323.07   12.10
   2  -1  -5  313.17   11.40
  -2  -1   5  277.17   12.00
  -2   1  -5  302.57   11.60
   2  -1  -5  327.77   11.90
  -2   1  -5  300.17   11.70
   2   1   5  295.87   12.30
   3  -1   5  211.58    9.70
  -3  -1  -5  207.98    8.30
   3   1  -5  211.88    8.40
   3   1  -5  210.18    8.70
  -3  -1  -5  203.98    8.90
  -3   1   5  196.98    9.00
  -3  -1   5  230.08    9.60
   3   1   5  221.78    9.90
   3  -1  -5  204.88    8.90
  -3   1  -5  212.38    8.60
   3  -1  -5  207.98    8.60
   3   1   5  208.48    8.80
  -3   1  -5  212.48    9.10
  -4   1   5   35.90    3.30
  -4  -1  -5   42.10    2.90
  -4  -1  -5   42.50    3.20
   4  -1   5   35.80    2.80
   4   1  -5   43.00    2.70
   4  -1   5   37.60    3.60
   4   1  -5   36.50    2.80
   4   1   5   46.10    3.90
   4  -1  -5   43.80    2.80
   4  -1  -5   39.80    3.00
  -4   1  -5   30.40    3.30
   4   1   5   41.20    3.00
  -4   1  -5   49.10    3.20
   5  -1   5   34.80    3.40
  -5  -1  -5   32.70    3.40
   5  -1   5   38.80    4.80
   5   1  -5   38.90    2.80
  -5  -1  -5   37.20    3.90
   5   1   5   31.60    4.20
  -5   1  -5   28.90    3.40
   5   1   5   33.00    3.40
  -5   1  -5   32.40    3.20
   5  -1  -5   32.60    2.50
   0   2  -5   67.29    3.60
   0  -2   5   68.19    3.90
   0  -2  -5   72.29    3.70
   0   2   5   70.09    3.80
   0  -2  -5   68.39    3.40
   0   2  -5   73.39    3.40
   1   2  -5   75.99    4.00
   1  -2   5   88.09    4.40
   1   2  -5   77.19    3.70
  -1  -2  -5   79.49    3.90
  -1   2   5   72.59    4.10
  -1  -2  -5   80.89    4.00
   1  -2  -5   79.09    4.00
   1   2   5   76.49    4.10
  -1   2  -5   76.99    3.90
  -1   2  -5   82.49    3.80
  -1  -2   5   67.49    4.00
   1  -2  -5   81.09    3.70
  -2   2   5   48.50    3.10
   2   2  -5   39.70    2.50
  -2  -2  -5   42.50    2.80
   2   2  -5   43.40    2.80
  -2  -2  -5   39.80    2.60
   2  -2   5   44.00    3.20
   2   2   5   42.20    3.00
  -2  -2   5   42.50    3.00
   2  -2  -5   38.20    2.30
  -2   2  -5   36.50    2.50
   2  -2  -5   33.90    2.50
  -2   2  -5   40.80    2.60
   3   2  -5  289.67   11.30
   3  -2   5  279.47   12.40
  -3  -2  -5  280.77   10.90
  -3  -2  -5  281.57   11.60
   3   2  -5  287.37   11.00
  -3   2   5  285.07   11.80
  -3  -2   5  271.67   11.50
   3   2   5  310.67   12.20
   3  -2  -5  271.97   10.70
  -3   2  -5  283.77   10.80
  -3   2  -5  255.67   11.00
   3   2   5  265.37   10.90
   3  -2  -5  273.27   11.10
   4   2  -5   14.00    1.70
   4  -2   5    8.90    1.70
   4   2  -5   13.10    1.80
  -4  -2  -5   12.60    2.20
  -4  -2  -5   12.40    1.90
   4  -2   5   10.10    2.10
  -4   2   5   11.80    2.20
  -4   2  -5   11.20    1.80
   4   2   5   11.40    1.80
   4  -2  -5   12.20    1.60
   4   2   5    9.10    2.10
  -4   2  -5   11.90    2.00
   4  -2  -5   12.00    1.80
  -5  -2  -5   88.59    5.10
   5  -2   5   97.49    6.60
   5   2  -5   88.59    4.70
   5  -2   5   82.29    5.00
  -5  -2  -5   87.89    5.40
   5   2   5   85.59    5.10
   5   2   5   83.19    6.10
   5  -2  -5   95.29    4.70
  -5   2  -5   91.99    5.30
  -5   2  -5   91.19    5.40
   0   3  -5   11.50    1.40
   0   3  -5   10.30    1.40
   0  -3  -5   11.70    1.40
   0  -3  -5   11.00    1.40
   0   3   5   10.50    1.50
   0  -3   5   11.20    1.60
  -1   3   5   97.59    4.80
  -1  -3  -5   97.59    4.60
   1   3  -5  101.79    4.70
   1  -3   5   94.99    5.00
   1   3  -5   92.89    4.30
  -1  -3  -5   96.89    4.60
  -1  -3   5  104.69    5.00
  -1   3  -5   94.89    4.60
  -1   3  -5   97.49    4.40
   1  -3  -5   93.59    4.60
   1  -3  -5   90.89    4.30
   1   3   5   87.99    4.60
  -2  -3  -5   69.09    3.80
   2   3  -5   68.89    3.40
   2   3  -5   64.89    3.60
   2  -3   5   67.49    4.20
  -2  -3  -5   69.09    3.50
  -2   3   5   67.19    3.90
  -2   3  -5   72.89    3.90
  -2   3  -5   71.39    3.80
   2   3   5   72.99    4.30
  -2  -3   5   84.59    4.50
   2  -3  -5   71.19    3.90
   2  -3  -5   77.29    3.70
  -3   3   5  162.68    7.10
   3   3  -5  136.19    6.10
  -3  -3  -5  130.59    6.60
  -3  -3  -5  142.59    6.10
   3   3  -5  144.69    6.50
   3  -3   5  139.39    7.40
  -3   3  -5  137.29    6.40
   3  -3  -5  141.19    6.00
   3   3   5  133.89    6.20
  -3  -3   5  121.89    6.60
   3  -3  -5  143.09    6.40
  -3   3  -5  152.38    6.20
   3   3   5  138.89    7.10
   4  -3   5   81.19    4.40
  -4  -3  -5   81.19    5.80
   4  -3   5   73.89    5.40
   4   3  -5   79.79    4.10
  -4  -3  -5   84.09    4.90
   4   3  -5   78.49    4.30
  -4   3   5   89.29    5.20
   4  -3  -5   72.29    3.90
   4   3   5   69.09    5.00
  -4   3  -5   76.29    4.50
   4   3   5   75.69    4.40
   4  -3  -5   88.59    4.50
  -4   3  -5   79.09    4.50
   5  -3   5    8.80    2.40
  -5  -3  -5    9.50    1.80
   5  -3   5   10.50    1.90
  -5  -3  -5    9.30    2.00
   5   3  -5    7.30    1.40
   5   3   5   12.50    2.70
  -5   3  -5    9.30    2.00
  -5   3  -5    8.40    1.80
   5   3   5    7.30    1.70
   5  -3  -5    9.20    1.60
   0  -4  -5  187.58    7.50
   0   4  -5  187.98    7.80
   0  -4  -5  174.28    7.60
   0   4   5  190.48    7.80
   0  -4   5  186.58    8.10
   0   4  -5  192.58    7.40
  -1  -4  -5   41.70    2.50
   1   4  -5   39.80    2.60
  -1  -4  -5   35.40    2.40
   1  -4   5   39.20    2.80
   1   4  -5   35.70    2.20
  -1   4   5   39.90    2.70
   1  -4  -5   41.10    2.70
  -1   4  -5   43.80    2.70
  -1   4  -5   40.50    2.40
   1   4   5   43.30    2.70
  -1  -4   5   39.70    2.80
   1  -4  -5   44.10    2.50
   2  -4   5   22.80    2.80
   2   4  -5   19.90    1.70
  -2  -4  -5   26.00    2.50
  -2   4   5   23.20    2.10
   2   4  -5   22.60    1.90
  -2  -4  -5   21.50    1.80
   2  -4  -5   23.90    1.70
  -2  -4   5   22.80    2.20
  -2   4  -5   24.40    1.90
  -2   4  -5   23.70    1.90
   2   4   5   22.90    2.20
   2  -4  -5   19.70    2.10
   3   4  -5   14.10    1.60
  -3  -4  -5   15.10    1.60
  -3   4   5   13.30    2.10
   3   4  -5   14.00    1.70
   3  -4   5   17.10    2.60
  -3  -4  -5   15.20    2.10
  -3   4  -5   17.00    1.90
   3   4   5   13.20    2.20
   3  -4  -5   15.20    1.70
   3  -4  -5   15.10    1.90
   3   4   5   14.10    1.80
  -3   4  -5   20.90    2.30
  -3  -4   5   15.20    2.10
   4  -4   5   47.60    3.30
   4  -4   5   52.09    4.40
  -4  -4  -5   48.70    3.60
   4   4  -5   50.99    3.10
   4   4  -5   52.29    3.20
  -4   4   5   46.90    3.70
   4   4   5   51.39    4.10
  -4   4  -5   43.70    3.30
   4   4   5   46.70    3.40
   4  -4  -5   44.20    3.20
   4  -4  -5   51.19    3.00
  -4   4  -5   45.50    3.30
   5  -4   5   51.79    4.80
   5   4  -5   51.79    3.30
   5  -4   5   51.49    3.60
  -5  -4  -5   53.39    3.70
  -5  -4  -5   52.09    4.00
   5  -4  -5   50.99    3.20
  -5   4  -5   50.89    3.80
   5   4   5   49.90    3.70
   5   4   5   52.69    4.60
  -5   4  -5   48.50    3.70
   0  -5  -5  142.59    6.20
   0  -5   5  158.38    6.90
   0   5  -5  145.99    6.00
   0  -5  -5  150.78    6.50
   0   5   5  138.69    6.30
   0   5  -5  153.18    6.50
   1   5  -5  194.58    7.70
   1   5  -5  185.98    7.20
   1  -5   5  179.28    8.00
  -1   5   5  165.48    7.60
  -1  -5  -5  182.48    7.50
  -1  -5  -5  179.08    7.50
   1  -5  -5  184.48    7.50
  -1   5  -5  189.88    7.50
  -1  -5   5  179.18    8.10
   1   5   5  198.68    7.90
   1  -5  -5  195.28    8.00
  -1   5  -5  181.08    7.80
  -2  -5  -5  100.69    4.70
   2   5  -5   99.99    4.60
   2   5  -5   96.99    4.80
   2  -5   5  101.39    5.60
  -2  -5  -5   99.89    5.00
  -2   5   5  105.29    5.10
  -2   5  -5  103.59    5.00
  -2   5  -5  104.99    4.90
   2  -5  -5  102.19    4.70
   2   5   5  118.29    5.50
   2  -5  -5  104.89    5.10
  -2  -5   5   96.89    5.30
   3  -5   5   69.29    3.60
   3   5  -5   60.69    3.50
  -3   5   5   59.19    3.90
  -3  -5  -5   60.39    3.90
   3  -5   5   65.99    4.60
   3   5  -5   61.69    3.40
   3   5   5   66.39    4.30
   3   5   5   68.39    3.80
  -3   5  -5   65.99    3.60
   3  -5  -5   71.89    4.00
   3  -5  -5   66.89    3.50
  -3   5  -5   61.19    3.70
  -3   5  -5   64.19    4.10
   4  -5   5   66.69    3.90
  -4  -5  -5   55.19    4.10
   4   5  -5   66.69    3.70
   4   5  -5   70.09    3.90
   4  -5   5   70.59    5.20
  -4   5   5   77.79    4.80
   4  -5  -5   64.69    3.60
   4  -5  -5   69.09    4.00
   4   5   5   62.59    4.00
  -4   5  -5   71.99    4.10
   4   5   5   59.29    4.50
  -4   5  -5   66.39    4.00
   5  -5   5   41.00    4.30
  -5  -5  -5   31.00    3.50
   5   5  -5   38.30    2.80
  -5  -5  -5   33.90    3.30
   5   5   5   34.50    3.60
   5   5   5   37.70    3.90
  -5   5  -5   35.80    3.60
   5  -5  -5   31.10    2.50
   0  -6  -5    1.30    0.70
   0   6  -5    1.70    0.60
   0  -6  -5    1.60    0.60
   0   6  -5    1.60    0.70
   0  -6   5    2.20    0.80
   0   6   5    1.00    0.60
   1  -6   5  269.07   11.30
  -1   6   5  287.77   11.00
   1   6  -5  269.47   10.40
  -1  -6  -5  274.87   10.70
  -1  -6  -5  276.07   10.70
   1   6  -5  273.17   10.80
  -1   6  -5  267.87   10.80
   1   6   5  286.57   10.80
  -1   6  -5  276.17   10.40
   1  -6  -5  273.57   10.40
  -1  -6   5  271.67   11.20
   1  -6  -5  266.17   10.80
   2  -6   5   60.39    4.00
  -2  -6  -5   58.99    3.40
  -2   6   5   50.89    3.30
  -2  -6  -5   53.19    3.00
   2   6  -5   60.39    3.10
   2   6  -5   51.59    3.20
   2  -6  -5   48.50    2.80
   2   6   5   59.39    3.50
  -2   6  -5   53.69    3.20
  -2   6  -5   49.70    3.00
  -2  -6   5   51.59    3.50
   2  -6  -5   54.79    3.30
   3   6  -5    0.80    0.60
   3  -6   5    0.10    0.60
  -3  -6  -5    0.40    0.80
  -3   6   5    1.00    0.80
   3  -6   5    1.10    1.00
   3   6  -5    1.40    0.80
  -3   6  -5    0.90    0.70
  -3   6  -5    0.40    0.70
  -3   6  -5    0.30    0.60
   3  -6  -5    0.80    0.60
   3  -6  -5    1.90    0.90
   3   6   5    1.50    0.90
   3   6   5    1.70    0.90
  -4  -6  -5   77.59    4.80
   4   6  -5   80.69    4.20
   4   6  -5   91.59    4.50
   4  -6   5   81.69    4.40
   4  -6   5   85.69    5.80
  -4   6   5   78.59    5.10
   4  -6  -5   79.89    4.70
  -4   6  -5   83.29    4.70
   4   6   5   85.99    4.80
   4  -6  -5   87.49    4.30
   4   6   5   86.09    5.50
  -4   6  -5   80.49    4.60
  -5  -6  -5  138.89    7.30
  -5  -6  -5  141.59    7.00
   5   6  -5  127.29    6.30
   5  -6  -5  125.29    6.00
   5   6   5  123.59    6.70
   5  -6  -5  128.29    6.60
  -5   6  -5  135.49    6.90
   5   6   5  130.29    7.70
   0   7   5  115.09    5.40
   0  -7  -5  127.29    5.70
   0   7  -5  120.19    5.60
   0  -7  -5  127.09    5.40
   0   7  -5  129.29    5.20
   0  -7   5  125.39    6.00
   1   7  -5  517.95   18.90
  -1  -7  -5  516.45   19.30
  -1   7   5  530.15   19.40
   1  -7   5  546.15   20.10
   1   7  -5  546.15   19.40
  -1  -7  -5  516.15   19.20
   1   7   5  515.35   19.10
  -1   7  -5  511.55   18.80
   1  -7  -5  526.55   19.30
  -1  -7   5  556.14   19.80
   1  -7  -5  512.55   18.80
  -1   7  -5  524.85   19.30
   2   7  -5   34.50    2.20
  -2  -7  -5   36.00    2.60
  -2  -7  -5   34.20    2.30
  -2   7   5   40.20    2.70
   2  -7   5   35.20    3.10
   2   7  -5   36.20    2.50
   2  -7  -5   34.50    2.20
   2  -7  -5   34.70    2.60
  -2   7  -5   35.30    2.50
  -2  -7   5   35.80    2.80
   2   7   5   28.40    2.40
  -2   7  -5   31.30    2.20
   3  -7   5  138.29    6.20
   3  -7   5  168.58    8.10
  -3   7   5  135.09    6.90
   3   7  -5  142.49    6.20
  -3  -7  -5  142.49    6.90
   3   7  -5  140.49    6.40
   3   7   5  143.29    7.10
   3   7   5  136.19    6.40
   3  -7  -5  145.59    6.70
  -3   7  -5  139.49    6.40
  -3   7  -5  140.69    6.40
  -3   7  -5  136.99    6.30
   3  -7  -5  142.59    6.10
  -4   7   5    2.90    1.30
  -4  -7  -5    4.50    1.50
   4   7  -5    4.00    1.10
   4   7  -5    2.00    0.90
   4  -7   5    2.40    0.90
   4  -7   5    2.90    1.50
  -4   7  -5    4.50    1.20
   4  -7  -5    2.30    1.10
   4   7   5    1.90    1.00
   4  -7  -5    2.20    0.80
  -4   7  -5    2.20    1.00
   4   7   5    2.80    1.30
  -5  -7  -5   30.00    3.60
   5   7  -5   32.30    2.50
  -5  -7  -5   32.80    4.60
   5  -7  -5   29.00    3.10
   5   7   5   33.80    3.60
  -5   7  -5   29.60    3.40
   5  -7  -5   29.70    2.40
   5   7   5   31.50    3.40
   0  -8   5    1.00    0.70
   0  -8  -5    0.90    0.60
   0   8  -5    0.60    0.40
   0  -8  -5    0.60    0.60
   0   8   5    0.70    0.50
   0   8  -5    1.00    0.70
  -1   8   5  192.18    8.20
   1  -8   5  196.58    8.80
  -1  -8  -5  208.68    8.30
   1   8  -5  196.88    8.30
  -1  -8  -5  197.68    8.20
   1   8  -5  206.08    7.80
  -1  -8   5  202.98    8.60
  -1   8  -5  186.18    8.10
   1   8   5  197.58    8.00
  -1   8  -5  188.28    7.70
   1  -8  -5  192.28    7.70
   1  -8  -5  200.68    8.20
   2   8  -5  323.77   12.60
   2   8  -5  308.07   12.10
  -2  -8  -5  313.47   12.70
  -2  -8  -5  323.17   12.30
   2  -8   5  314.17   13.50
  -2   8   5  360.26   13.00
  -2   8  -5  315.07   12.40
  -2  -8   5  368.06   14.30
  -2   8  -5  317.17   12.10
   2  -8  -5  315.37   12.00
   2  -8  -5  313.17   12.50
   2   8   5  290.47   12.40
   3   8  -5   84.89    4.10
  -3   8   5   88.09    4.90
  -3  -8  -5   75.99    4.60
   3  -8   5   79.99    4.10
   3  -8   5   93.49    5.70
   3   8  -5   88.09    4.40
  -3   8  -5   89.59    4.60
  -3   8  -5   92.49    4.60
   3  -8  -5   88.19    4.80
   3  -8  -5   83.69    4.20
   3   8   5   83.89    4.60
  -3   8  -5   83.59    4.60
   3   8   5   96.79    5.20
   4   8  -5  248.78   10.40
  -4  -8  -5  250.67   11.00
   4  -8   5  232.28   12.40
  -4   8   5  249.78   11.10
   4   8  -5  264.77   10.10
  -4   8  -5  238.98   10.50
   4   8   5  237.88   10.50
   4  -8  -5  243.18    9.80
   4   8   5  256.57   11.30
   4  -8  -5  248.08   10.50
   5   8  -5   39.80    2.80
  -5  -8  -5   34.80    3.90
  -5   8   5   36.00    5.90
   5   8   5   46.10    4.20
   5  -8  -5   37.30    3.20
   5  -8  -5   41.90    2.90
   5   8   5   36.00    3.70
  -5   8  -5   36.20    3.70
   0  -9  -5  125.79    5.60
   0  -9   5  114.89    5.90
   0   9  -5  119.69    5.10
   0   9   5  119.49    5.30
   0  -9  -5  121.79    5.30
   0   9  -5  122.49    5.70
  -1  -9  -5    4.60    1.00
   1  -9   5    6.30    1.40
  -1   9   5    6.10    1.20
   1   9  -5    5.80    1.10
   1   9  -5    6.70    1.00
  -1  -9  -5    6.20    1.20
   1  -9  -5    5.40    1.00
   1  -9  -5    6.20    1.30
   1   9   5    5.90    1.10
  -1  -9   5    7.40    1.50
  -1   9  -5    6.00    1.30
  -1   9  -5    4.00    0.80
  -2  -9  -5  260.27   10.60
  -2   9   5  248.38   10.50
  -2  -9  -5  254.37   10.10
   2   9  -5  262.77   10.30
   2  -9   5  270.77   11.50
   2   9  -5  255.77   10.00
  -2   9  -5  244.38   10.20
  -2   9  -5  259.87   10.60
   2   9   5  283.07   10.80
   2  -9  -5  273.67   10.20
   2  -9  -5  257.37   10.70
   3   9  -5  151.48    6.80
   3  -9   5  151.08    6.50
  -3   9   5  155.98    7.40
  -3  -9  -5  153.58    7.30
   3   9  -5  157.68    6.50
   3  -9   5  146.29    8.00
  -3   9  -5  159.98    7.10
  -3   9  -5  169.28    7.10
   3   9   5  162.68    7.20
   3  -9  -5  155.28    7.20
   3  -9  -5  154.88    6.60
  -3   9  -5  156.18    6.90
   3   9   5  143.19    7.30
   4   9  -5   23.70    2.30
  -4   9   5   28.60    2.90
  -4  -9  -5   21.80    2.80
   4   9   5   29.50    3.10
  -4   9  -5   28.50    3.00
   4  -9  -5   26.30    2.10
   4  -9  -5   26.50    2.90
  -4   9  -5   26.90    2.80
   4   9   5   26.60    3.40
   5   9  -5    8.70    1.60
  -5  -9  -5   11.00    2.30
  -5   9   5    9.00    2.10
  -5   9  -5   10.30    2.00
   5   9   5    7.20    2.00
   5  -9  -5    5.50    1.50
   5  -9  -5    7.60    1.40
   5   9   5    7.90    1.80
   0 -10  -5    7.20    1.30
   0  10  -5    5.10    1.20
   0 -10   5    6.00    1.30
   0 -10  -5    5.90    1.10
   0  10  -5    6.20    1.00
   0  10   5    6.90    1.10
  -1 -10  -5   55.59    3.20
   1  10  -5   55.69    3.30
   1 -10   5   60.99    3.90
   1  10  -5   57.19    2.90
  -1  10   5   53.89    3.20
  -1 -10  -5   58.99    3.30
  -1  10  -5   51.49    2.70
  -1  10  -5   51.59    3.20
   1 -10  -5   53.19    3.20
   1  10   5   49.10    2.90
   1 -10  -5   57.19    2.90
  -1 -10   5   50.19    3.40
  -2 -10  -5   55.59    3.60
   2  10  -5   60.99    3.40
   2 -10   5   56.19    4.10
  -2 -10  -5   56.79    3.20
  -2  10   5   60.69    3.60
   2  10  -5   57.49    3.10
  -2  10  -5   61.59    3.30
   2  10   5   54.49    3.40
   2 -10  -5   60.39    3.20
  -2  10  -5   65.69    3.70
   2 -10  -5   69.59    3.80
   3 -10   5   73.59    4.40
   3 -10   5   79.79    5.50
  -3 -10  -5   79.89    4.70
   3  10  -5   83.79    4.30
   3  10  -5   82.29    4.00
  -3  10   5   81.19    4.70
   3 -10  -5   78.29    3.90
  -3  10  -5   75.29    5.30
   3 -10  -5   85.49    4.60
   3  10   5   82.59    4.50
  -3  10  -5   72.49    4.20
   3  10   5   78.99    4.60
  -3  10  -5   77.29    4.30
  -4 -10  -5   29.00    3.30
   4  10  -5   32.30    2.40
  -4  10   5   32.90    3.10
  -4  10  -5   29.10    2.50
   4 -10  -5   33.20    2.80
   4 -10  -5   25.40    2.10
   4  10   5   30.10    3.00
  -4  10  -5   27.30    2.90
   4  10   5   25.60    2.90
  -5  10   5   26.10    3.40
  -5 -10  -5   21.40    3.00
   5  10  -5   25.70    2.70
   5 -10  -5   26.50    3.00
   5  10   5   26.70    3.60
   5 -10  -5   27.70    2.30
   5  10   5   22.10    2.90
  -5  10  -5   27.60    3.30
   0 -11  -5   24.70    1.90
   0  11  -5   24.70    2.10
   0  11   5   28.10    1.90
   0  11  -5   22.40    1.60
   0 -11   5   25.10    2.40
   0 -11  -5   26.60    2.20
   1 -11   5   37.20    3.00
  -1  11   5   38.60    2.50
   1  11  -5   33.10    2.10
   1  11  -5   35.00    2.50
  -1 -11  -5   36.60    2.50
  -1 -11  -5   39.70    2.60
   1 -11  -5   38.00    2.40
  -1  11  -5   35.30    2.60
  -1  11  -5   40.50    2.30
   1  11   5   35.50    2.30
   1 -11  -5   42.40    2.80
  -2  11   5  167.58    7.40
  -2 -11  -5  170.58    7.00
   2 -11   5  170.68    8.30
   2  11  -5  163.78    6.80
   2  11  -5  166.58    7.20
  -2 -11  -5  158.88    7.50
   2 -11  -5  165.98    7.60
  -2  11  -5  170.88    7.60
  -2  11  -5  172.98    7.20
   2  11   5  180.08    7.60
   2 -11  -5  176.28    7.10
   3  11  -5   31.90    2.30
  -3 -11  -5   25.00    2.80
  -3  11   5   29.50    2.60
   3  11  -5   26.10    2.00
  -3  11  -5   30.30    2.90
   3 -11  -5   30.00    3.00
   3  11   5   29.30    2.60
   3  11   5   32.30    2.60
  -3  11  -5   33.00    2.60
   3 -11  -5   28.80    2.10
   4  11  -5   40.30    2.70
  -4 -11  -5   38.80    3.90
  -4  11   5   45.60    3.60
   4  11   5   43.30    3.70
  -4  11  -5   43.90    3.40
  -4  11  -5   41.80    3.00
   4  11   5   46.30    3.40
   4 -11  -5   40.20    3.20
   4 -11  -5   46.20    2.80
  -5 -11  -5   52.29    4.30
  -5  11   5   58.69    4.60
   5  11  -5   54.39    3.50
  -5  11  -5   57.19    4.30
   5 -11  -5   54.59    3.40
   5  11   5   53.59    4.10
   5 -11  -5   59.59    4.00
   5  11   5   57.19    4.60
   0 -12  -5  464.35   17.10
   0 -12  -5  450.95   17.30
   0  12   5  477.05   16.90
   0  12  -5  471.45   17.50
   0  12  -5  460.95   16.70
  -1 -12  -5   41.10    2.70
   1  12  -5   42.30    2.40
   1  12  -5   40.10    2.80
   1 -12   5   46.20    4.50
  -1  12   5   38.20    2.50
   1 -12  -5   40.20    2.80
  -1  12  -5   39.70    2.30
   1 -12  -5   40.80    2.50
   1  12   5   42.90    2.50
  -1  12  -5   41.40    2.90
  -2  12   5   62.69    3.70
   2  12  -5   59.09    3.50
  -2 -12  -5   54.49    3.60
  -2 -12  -5   55.99    3.30
   2  12  -5   60.79    3.20
   2  12   5   54.99    3.30
   2 -12  -5   57.19    3.10
   2 -12  -5   60.09    3.60
  -2  12  -5   52.29    3.00
  -2  12  -5   60.79    3.70
   3  12  -5   12.50    1.50
  -3 -12  -5    8.30    1.70
  -3  12   5   10.30    1.80
   3  12  -5   11.10    1.60
   3  12   5   13.20    1.90
   3 -12  -5   15.00    1.70
  -3  12  -5   16.20    2.10
  -3  12  -5   15.30    2.10
   3 -12  -5   18.40    2.30
   4  12  -5   31.80    2.40
  -4  12   5   28.40    3.00
  -4 -12  -5   27.70    3.30
   4 -12  -5   27.40    2.90
   4 -12  -5   27.40    2.10
  -4  12  -5   27.40    2.90
   4  12   5   27.20    3.00
  -4  12  -5   30.90    3.20
   4  12   5   24.60    3.10
   5  12  -5   28.70    2.80
  -5  12   5   37.60    3.70
  -5 -12  -5   29.80    3.70
   5  12   5   34.10    3.70
   5 -12  -5   31.10    3.40
   5  12   5   32.50    3.60
  -5  12  -5   33.90    3.70
   5 -12  -5   30.20    2.40
   0  13  -5  419.56   15.90
   0 -13  -5  412.96   15.80
   0 -13  -5  432.66   15.60
   0  13   5  403.36   15.20
   0  13  -5  419.46   15.00
   1  13  -5   18.10    2.10
  -1 -13  -5   18.00    2.00
  -1 -13  -5   15.80    1.90
   1  13  -5   16.50    1.60
  -1  13   5   14.30    1.50
   1 -13  -5   15.00    1.70
  -1  13  -5   14.40    1.50
  -1  13  -5   14.40    1.90
   1  13   5   14.50    1.40
   1 -13  -5   14.60    2.00
   2  13  -5  190.88    8.10
  -2 -13  -5  187.58    8.40
  -2  13   5  197.38    8.30
   2  13  -5  185.38    7.70
  -2 -13  -5  197.88    8.00
   2 -13  -5  188.38    8.40
   2  13   5  186.58    8.00
   2 -13  -5  190.88    7.70
  -2  13  -5  193.58    9.80
  -2  13  -5  189.38    8.30
   3  13  -5    9.70    1.40
   3  13  -5   10.20    1.60
  -3 -13  -5    8.80    1.80
  -3  13   5   11.50    2.00
   3 -13  -5   11.90    1.90
  -3  13  -5    9.10    1.70
   3  13   5   10.20    1.70
   3 -13  -5   10.50    1.40
  -3  13  -5   11.40    1.80
   4  13  -5  165.68    7.10
  -4  13   5  158.08    8.00
  -4 -13  -5  152.78    8.00
  -4  13  -5  162.48    7.40
   4  13   5  160.68    7.70
  -4  13  -5  146.29    7.60
   4 -13  -5  150.38    6.80
   4 -13  -5  170.48    7.80
   4  13   5  162.08    8.00
   5  13  -5   17.90    2.20
  -5 -13  -5   18.60    3.00
  -5  13   5   15.30    2.80
   5  13   5   20.90    2.90
  -5  13  -5   15.80    2.60
   5 -13  -5   15.70    2.50
   5  13   5   20.60    3.20
   5 -13  -5   16.10    2.00
   0  14  -5  642.74   22.40
   0  14   5  645.94   22.60
   0  14  -5  656.23   23.40
   0 -14  -5  637.24   22.90
   0 -14  -5  592.14   23.10
   1  14  -5  174.78    7.50
  -1  14   5  159.98    7.00
  -1 -14  -5  170.48    7.30
  -1 -14  -5  182.58    7.50
   1  14  -5  157.88    6.70
   1 -14  -5  162.78    7.40
   1 -14  -5  173.68    7.00
  -1  14  -5  174.18    7.60
  -1  14  -5  169.48    6.70
   1  14   5  159.18    6.80
   2  14  -5   16.60    1.70
  -2  14   5   13.50    1.90
   2  14  -5   19.40    2.10
  -2 -14  -5   13.70    1.70
  -2 -14  -5   14.10    2.00
   2 -14  -5   18.00    1.80
   2 -14  -5   18.30    2.30
  -2  14  -5   20.90    2.50
   2  14   5   19.40    1.80
  -2  14  -5   16.50    2.10
   3  14  -5  109.79    5.10
  -3 -14  -5  112.89    6.10
   3  14  -5  115.69    5.50
  -3  14   5  113.49    6.00
  -3  14  -5  101.59    5.50
   3  14   5  116.39    5.80
  -3  14  -5  109.69    5.70
   3 -14  -5  108.99    5.00
   3 -14  -5  114.19    5.90
   3  14   5  109.39    5.70
  -4  14   5   25.00    3.20
  -4 -14  -5   20.90    2.90
   4  14  -5   21.60    2.20
   4  14   5   21.00    2.80
   4 -14  -5   22.50    2.70
   4  14   5   22.00    2.70
  -4  14  -5   22.70    2.60
  -4  14  -5   20.60    2.70
   4 -14  -5   20.70    2.10
  -5  14   5   67.99    5.00
  -5 -14  -5   56.89    4.70
   5  14  -5   59.59    3.80
   5 -14  -5   61.69    3.60
  -5  14  -5   70.89    4.80
   5 -14  -5   55.89    4.20
   5  14   5   68.69    5.00
   5  14   5   64.69    4.60
   0  15  -5    1.70    0.60
   0 -15  -5    1.80    0.90
   0  15   5    1.00    0.50
   0 -15  -5    1.70    0.80
   0  15  -5    1.30    0.90
   1  15  -5  105.39    5.30
   1  15  -5  101.29    4.50
  -1  15   5  111.79    4.90
  -1 -15  -5   98.89    5.00
  -1 -15  -5  103.09    5.20
   1 -15  -5  108.69    4.90
   1  15   5  109.09    4.70
  -1  15  -5  100.29    5.40
   1 -15  -5  104.59    5.40
  -2 -15  -5   64.39    4.00
  -2  15   5   65.79    3.80
   2  15  -5   61.89    3.70
   2  15  -5   66.89    3.40
  -2 -15  -5   64.69    3.60
  -2  15  -5   69.49    3.90
   2 -15  -5   71.39    3.60
   2 -15  -5   67.29    4.10
  -2  15  -5   64.79    4.10
   2  15   5   72.19    3.80
   3  15  -5   82.79    4.10
  -3 -15  -5   73.59    4.70
  -3  15   5   81.59    4.80
   3  15  -5   79.49    4.30
   3 -15  -5   73.79    4.00
  -3  15  -5   87.89    4.80
   3 -15  -5   81.09    4.80
   3  15   5   81.09    4.60
   3  15   5   83.29    4.70
  -3  15  -5   80.79    4.60
  -4  15   5  111.99    6.10
  -4 -15  -5   95.39    5.90
   4  15  -5   92.89    4.90
   4  15   5   89.09    5.40
  -4  15  -5   88.59    5.30
   4  15   5   90.89    5.30
  -4  15  -5   95.09    5.20
   4 -15  -5   89.59    5.30
   4 -15  -5   95.49    4.60
   5  15  -5   17.50    2.20
  -5  15   5   12.50    2.60
  -5  15   5   14.80    2.70
  -5 -15  -5   14.10    2.70
   5  15   5   13.20    2.60
  -5  15  -5   13.70    2.50
   5 -15  -5   13.70    2.40
   5  15   5   11.50    2.20
   0  16  -5    0.40    0.40
   0  16  -5    0.50    0.80
   0  16   5    0.50    0.50
   0 -16  -5    0.30    0.70
   0 -16  -5   -0.20    0.50
   1  16  -5   24.90    2.60
  -1 -16  -5   23.50    2.40
  -1  16   5   22.30    1.80
  -1 -16  -5   26.40    2.60
   1  16  -5   22.00    1.60
   1 -16  -5   22.20    2.40
   1  16   5   21.60    1.60
  -1  16  -5   24.40    2.60
   1 -16  -5   23.10    1.90
   2  16  -5   94.79    4.80
   2  16  -5   90.89    4.30
  -2 -16  -5   89.89    5.00
  -2 -16  -5   95.89    4.70
  -2  16   5   94.89    4.90
   2 -16  -5   91.89    5.10
   2  16   5   95.19    4.50
   2 -16  -5   93.49    4.40
  -2  16  -5   91.09    4.70
  -2  16  -5   81.79    4.90
   3  16  -5   16.00    1.80
  -3 -16  -5   15.80    2.40
   3  16  -5   15.00    1.90
  -3  16   5   15.90    2.30
   3 -16  -5   17.60    1.80
   3  16   5   18.40    2.00
   3 -16  -5   12.20    2.00
  -3  16  -5   14.90    2.20
   3  16   5   14.10    2.00
  -3  16  -5   14.00    2.00
  -4 -16  -5   65.69    4.60
   4  16  -5   62.39    3.60
  -4  16   5   62.39    4.50
  -4  16  -5   64.69    4.40
   4  16   5   65.49    4.40
   4 -16  -5   66.69    4.40
  -4  16  -5   65.79    4.20
   4 -16  -5   65.09    3.70
   4  16   5   74.39    4.60
   5  16  -5   23.30    2.60
  -5  16   5   27.70    3.70
  -5  16   5   23.60    3.50
  -5 -16  -5   30.10    3.90
   5  16   5   25.90    3.30
   5  16   5   27.90    3.60
   5 -16  -5   23.10    3.00
  -5  16  -5   23.80    3.20
   0 -17  -5   62.49    3.80
   0  17   5   67.29    3.20
   0 -17  -5   61.09    3.60
   0  17  -5   62.79    3.90
  -1 -17  -5   36.00    2.70
   1  17  -5   36.80    2.70
  -1 -17  -5   33.00    2.50
  -1  17   5   35.20    2.30
   1  17  -5   34.20    2.10
   1 -17  -5   39.10    2.90
   1  17   5   38.60    2.20
   1 -17  -5   41.10    2.60
  -1  17  -5   42.00    3.10
  -2  17   5   49.30    3.20
   2  17  -5   60.99    3.50
   2  17  -5   49.90    2.80
  -2 -17  -5   47.80    3.50
   2 -17  -5   48.20    3.40
  -2  17  -5   50.09    3.20
  -2  17  -5   51.09    3.50
   2 -17  -5   44.80    2.80
   2  17   5   48.60    2.90
   3  17  -5   29.90    2.40
   3  17  -5   29.80    2.20
  -3 -17  -5   26.00    3.10
  -3  17   5   25.20    2.60
   3 -17  -5   29.10    2.20
  -3  17  -5   29.50    3.10
   3  17   5   27.20    2.40
  -3  17  -5   26.80    2.90
   3  17   5   27.70    2.90
   3 -17  -5   34.10    3.40
  -4  17   5   20.00    2.90
  -4 -17  -5   15.00    2.60
   4  17  -5   14.50    1.90
  -4  17  -5   23.10    2.80
   4 -17  -5   16.40    2.50
   4  17   5   19.10    2.70
  -4  17  -5   18.20    2.60
   4  17   5   17.90    2.60
   4 -17  -5   18.70    2.00
  -5  17   5    7.00    2.30
  -5 -17  -5    7.40    2.10
   5  17  -5    3.70    1.20
  -5  17   5    6.60    1.90
   5 -17  -5    4.80    1.70
  -5  17  -5    6.10    1.90
   5  17   5    6.50    1.80
   5  17   5    9.40    2.00
   0 -18  -5   38.20    2.60
   0  18  -5   32.30    2.80
   0  18   5   36.30    2.10
   0 -18  -5   31.00    2.60
   1  18  -5  155.68    6.40
  -1 -18  -5  169.78    7.30
  -1 -18  -5  146.19    7.00
   1  18  -5  153.28    7.30
  -1  18   5  168.18    6.70
   1 -18  -5  162.48    6.90
   1 -18  -5  153.98    7.30
   1  18   5  158.98    6.40
  -1  18  -5  158.28    7.40
   2  18  -5   56.09    3.60
  -2  18   5   65.99    3.70
  -2 -18  -5   57.39    3.90
   2  18  -5   57.49    3.10
   2  18   5   55.59    3.60
   2  18   5   61.99    3.30
  -2  18  -5   66.99    4.10
  -2  18  -5   56.39    3.60
   2 -18  -5   57.09    3.90
   2 -18  -5   56.99    3.20
  -3 -18  -5   28.80    3.20
   3  18  -5   34.90    2.40
  -3  18   5   35.70    3.00
   3  18  -5   29.40    2.50
  -3  18  -5   31.80    3.20
   3  18   5   35.70    2.90
   3 -18  -5   31.70    3.30
   3 -18  -5   34.30    2.30
  -3  18  -5   28.90    3.10
   3  18   5   29.20    2.50
  -4 -18  -5   37.00    3.90
   4  18  -5   34.80    2.60
  -4  18   5   33.80    3.30
   4  18   5   34.30    3.60
  -4  18  -5   43.20    3.50
   4 -18  -5   36.60    3.70
   4  18   5   34.10    3.10
  -4  18  -5   31.60    3.40
   0  19   5    0.70    0.50
   0  19  -5    0.30    0.70
   0 -19  -5    0.00    0.60
   0 -19  -5    1.40    0.80
  -1  19   5   42.60    2.60
  -1 -19  -5   40.70    3.00
   1  19  -5   42.30    3.10
  -1 -19  -5   40.30    3.00
   1 -19  -5   37.40    2.60
   1 -19  -5   37.20    3.00
   1  19   5   41.30    2.20
  -1  19  -5   40.40    3.10
   2  19  -5   15.70    2.10
  -2  19   5   17.90    1.90
  -2 -19  -5   18.30    2.40
   2  19  -5   16.50    1.70
   2 -19  -5   17.40    1.90
   2  19   5   15.90    2.10
   2 -19  -5   20.40    2.60
  -2  19  -5   18.70    2.20
  -2  19  -5   16.90    2.30
   2  19   5   18.30    1.60
   3  19  -5  166.38    7.50
  -3  19   5  175.48    8.00
  -3 -19  -5  170.08    8.30
   3  19  -5  159.78    7.00
  -3  19  -5  163.68    8.00
   3 -19  -5  166.28    7.00
   3 -19  -5  171.58    8.10
   3  19   5  168.48    7.90
   3  19   5  168.18    7.40
  -3  19  -5  162.78    7.80
  -4 -19  -5    0.40    1.20
  -4  19   5    1.00    1.40
  -4  19   5    1.10    1.10
   4  19  -5    0.30    0.70
   4 -19  -5    1.40    1.10
   4  19   5    0.60    0.90
  -4  19  -5   -0.10    1.00
   4  19   5    0.60    1.10
  -4  19  -5   -0.10    1.00
   0  20  -5   -0.80    0.70
   0  20   5   -0.20    0.30
   0 -20  -5    0.10    0.70
   0 -20  -5   -0.50    0.70
  -1  20   5  199.48    8.20
  -1 -20  -5  209.58    8.90
  -1 -20  -5  205.78    9.00
   1  20  -5  208.28    9.00
   1 -20  -5  207.88    8.60
   1 -20  -5  211.78    9.30
   1  20   5  207.88    8.00
  -1  20  -5  213.08    9.40
  -2 -20  -5   92.39    5.30
   2  20  -5   95.99    5.00
   2  20  -5   98.39    4.40
  -2  20   5   87.39    4.70
  -2  20  -5   97.19    5.50
   2 -20  -5  101.29    4.70
   2 -20  -5   93.99    5.40
   2  20   5   87.89    5.00
  -2  20  -5  101.49    5.20
   3  20  -5   12.10    2.60
   3  20  -5   13.60    1.70
  -3  20   5   14.90    2.20
  -3 -20  -5   16.30    2.60
  -3  20  -5   14.00    2.20
   3  20   5   12.70    1.80
   3  20   5   11.30    2.10
  -3  20  -5   12.40    2.20
   3 -20  -5   11.80    1.70
   3 -20  -5   15.40    2.40
  -4 -20  -5   69.09    4.90
  -4  20   5   61.09    5.10
  -4  20   5   60.99    4.50
   4  20  -5   64.29    3.70
   4  20   5   68.29    4.60
   4  20   5   58.59    4.00
  -4  20  -5   58.79    4.20
  -4  20  -5   56.29    4.30
   4 -20  -5   61.89    4.40
   0  21   5   79.09    3.60
   0  21  -5   74.69    4.60
   0 -21  -5   81.79    4.30
   0 -21  -5   82.79    4.60
  -1 -21  -5  194.68    8.40
  -1 -21  -5  188.58    8.50
  -1  21   5  191.28    7.70
   1  21  -5  192.28    8.60
   1  21   5  196.88    7.70
   1 -21  -5  203.78    8.40
   1 -21  -5  211.18    9.20
  -1  21  -5  204.58    9.20
  -2  21   5   53.69    3.30
   2  21  -5   46.60    3.30
  -2 -21  -5   44.00    3.50
   2 -21  -5   46.70    3.50
  -2  21  -5   44.00    3.50
   2  21   5   49.70    3.30
  -2  21  -5   53.29    3.40
   2  21   5   45.30    2.60
   2 -21  -5   43.60    2.80
   3  21  -5   45.50    2.80
  -3  21   5   46.30    3.50
  -3 -21  -5   47.70    3.80
   3  21   5   43.40    3.40
   3 -21  -5   46.10    3.60
  -3  21  -5   45.70    3.70
  -3  21  -5   39.10    3.30
   3  21   5   43.60    2.90
   4  21  -5   17.20    2.00
  -4 -21  -5   17.80    2.90
  -4  21   5   22.90    3.50
  -4  21   5   16.70    2.60
   4  21   5   18.80    2.80
  -4  21  -5   24.50    3.10
   4 -21  -5   16.90    2.60
  -4  21  -5   18.90    2.70
   4  21   5   20.50    2.50
   0 -22  -5   26.20    2.70
   0  22  -5   30.50    3.20
   0 -22  -5   30.20    3.00
   0  22   5   26.50    1.70
  -1  22   5   33.70    2.30
   1  22  -5   37.80    3.00
  -1 -22  -5   38.20    2.90
  -1 -22  -5   37.40    2.90
   1 -22  -5   33.00    2.40
   1  22   5   31.50    1.80
   1 -22  -5   27.90    2.90
  -1  22  -5   36.80    3.10
  -2  22   5   43.00    2.90
   2  22  -5   37.30    3.00
  -2 -22  -5   39.90    3.30
   2  22   5   45.80    3.20
  -2  22  -5   39.40    3.10
   2  22   5   39.30    2.30
  -2  22  -5   42.10    3.50
   2 -22  -5   46.80    2.80
   2 -22  -5   44.00    3.40
  -3 -22  -5   15.60    2.50
  -3  22   5   17.50    2.90
   3  22  -5   15.00    1.80
  -3  22   5   13.80    2.20
   3 -22  -5   16.90    2.40
   3  22   5   11.20    2.00
  -3  22  -5   15.30    2.40
   3  22   5   13.50    1.80
  -3  22  -5   13.80    2.20
  -4  22   5   67.19    4.70
   4  22  -5   57.79    3.60
  -4 -22  -5   66.49    4.90
  -4  22   5   72.09    5.50
  -4  22  -5   55.09    4.20
  -4  22  -5   52.19    4.20
   4  22   5   58.39    3.80
   4 -22  -5   57.39    4.30
   4  22   5   51.99    4.10
   0  23  -5   17.20    2.30
   0 -23  -5   21.70    2.40
   0  23   5   16.10    1.20
   0 -23  -5   17.40    2.30
  -1 -23  -5   58.29    3.70
  -1  23   5   58.89    3.10
   1  23  -5   54.59    3.80
  -1 -23  -5   61.39    3.90
   1  23   5   54.79    2.60
   1 -23  -5   58.59    3.40
  -1  23  -5   53.69    3.90
   1 -23  -5   60.89    4.00
  -2 -23  -5    7.20    1.70
  -2  23   5   10.00    1.60
   2  23  -5   10.90    1.90
   2  23   5   11.00    1.10
  -2  23  -5   11.70    2.00
   2 -23  -5   10.70    2.00
   2  23   5   14.10    2.10
  -2  23  -5   11.10    2.10
  -3  23   5   97.49    6.50
  -3  23   5   98.49    5.50
  -3 -23  -5   98.29    5.90
   3  23   5   87.09    5.20
  -3  23  -5   91.29    5.60
  -3  23  -5   88.49    5.30
   3  23   5   94.59    4.50
   3 -23  -5   88.99    5.60
  -4 -23  -5   53.59    4.50
  -4  23   5   59.99    5.10
  -4  23   5   54.29    4.20
   4  23  -5   53.89    3.40
   4  23   5   49.70    3.40
   4 -23  -5   49.50    4.10
  -4  23  -5   59.09    4.30
   4  23   5   50.39    4.00
  -4  23  -5   42.80    4.40
   0 -24  -5   80.19    4.80
   0  24   5   82.49    3.50
   0 -24  -5   78.59    4.50
   0  24  -5   84.99    5.00
   1  24  -5   55.59    3.90
  -1 -24  -5   57.59    3.90
  -1 -24  -5   62.99    3.90
  -1  24   5   64.49    3.30
  -1  24  -5   67.89    4.40
   1 -24  -5   69.29    4.40
   1  24   5   62.49    2.70
   1 -24  -5   61.79    3.70
  -2  24   5    5.50    1.80
  -2 -24  -5    7.20    1.70
   2  24  -5    8.60    1.70
  -2  24   5    8.20    1.50
   2 -24  -5    7.60    1.70
   2  24   5    7.40    0.90
  -2  24  -5    9.10    1.70
   2  24   5    7.80    1.70
  -2  24  -5   10.70    2.20
  -3 -24  -5   62.39    4.60
  -3  24   5   67.79    5.30
  -3  24   5   62.99    4.20
  -3  24  -5   65.49    4.60
   3  24   5   67.39    3.40
   3  24   5   61.79    4.30
  -3  24  -5   59.29    4.30
   3 -24  -5   74.99    4.90
   0  25  -5    4.30    1.40
   0  25   5    4.90    0.70
   0 -25  -5    5.90    1.40
   0 -25  -5    3.00    1.20
  -1 -25  -5   16.30    2.20
  -1 -25  -5   16.40    2.30
   1  25  -5   14.80    2.20
  -1  25   5   15.00    1.40
  -1  25  -5   15.20    2.40
   1  25   5   18.40    2.70
   1 -25  -5   15.50    2.40
   1  25   5   17.10    2.20
  -2  25   5   66.99    3.90
  -2 -25  -5   74.29    4.70
  -2  25   5   75.29    5.40
   2  25  -5   68.09    4.30
   2 -25  -5   79.49    5.00
  -2  25  -5   69.89    4.50
  -2  25  -5   75.49    4.90
   2  25   5   66.69    4.30
  -3 -25  -5   51.69    4.10
  -3  25   5   47.40    5.10
  -3  25   5   49.10    3.60
  -3  25  -5   55.99    4.30
   3  25   5   53.69    2.80
  -3  25  -5   54.89    4.10
   3  25   5   53.99    4.00
   3 -25  -5   57.99    4.30
   0 -26  -5   81.29    4.60
   0  26   5   81.99    5.50
   0  26   5   78.19    3.30
   0  26  -5   79.69    5.00
   0 -26  -5   76.69    4.80
   1  26  -5   46.20    3.60
  -1 -26  -5   48.50    3.60
  -1 -26  -5   49.60    3.50
  -1  26   5   46.00    2.60
  -1  26   5   47.30    4.70
  -1  26  -5   50.89    3.90
   1 -26  -5   51.09    3.80
   1  26   5   46.90    4.00
   1  26   5   51.39    3.40
  -2 -26  -5   52.69    4.00
  -2  26   5   44.10    3.10
   2  26  -5   53.99    3.60
  -2  26   5   47.70    5.00
   2  26   5   48.70    3.60
  -2  26  -5   52.69    4.00
   2 -26  -5   48.10    3.90
  -2  26  -5   53.89    3.80
  -3  26   5   32.60    2.90
  -3 -26  -5   34.30    3.90
  -3  26   5   28.40    4.00
  -3  26  -5   33.30    3.80
  -3  26  -5   30.20    3.50
   3 -26  -5   30.00    3.50
   3  26   5   31.20    1.80
   3  26   5   32.20    3.60
   0  27  -5   39.90    3.90
   0  27   5   37.10    4.20
   0 -27  -5   42.30    3.40
   0  27   5   40.60    1.90
  -1  27   5  117.29    7.10
  -1  27   5  113.69    5.00
  -1 -27  -5  111.49    6.10
  -1 -27  -5  120.99    6.60
   1  27  -5  119.89    6.30
   1 -27  -5  121.99    6.40
  -1  27  -5  107.59    6.40
   1  27   5  109.19    5.70
  -2  27   5  127.89    6.30
  -2  27   5  140.49    8.10
   2  27  -5  137.59    6.90
  -2 -27  -5  145.39    7.30
   2  27   5  142.59    7.10
  -2  27  -5  139.79    7.10
   2 -27  -5  139.99    7.50
  -2  27  -5  142.89    7.70
  -3  27   5   23.30    3.80
  -3 -27  -5   27.30    3.40
  -3  27   5   24.20    2.60
  -3  27  -5   21.90    3.10
   3 -27  -5   21.20    3.10
  -3  27  -5   19.30    2.80
   3  27   5   20.40    2.90
   0  28   5   79.59    5.50
   0  28  -5   78.29    5.10
   0  28   5   81.99    3.10
   0 -28  -5   77.59    4.90
  -1 -28  -5   31.70    3.30
  -1  28   5   25.70    1.80
   1  28  -5   29.00    3.20
  -1  28   5   32.10    4.10
  -1  28  -5   30.10    3.60
   1 -28  -5   34.50    3.60
   1  28   5   27.00    2.90
  -2 -28  -5    4.90    1.70
   2  28  -5    2.50    1.20
  -2  28   5    5.10    1.10
  -2  28   5    2.00    1.70
   2  28   5    1.30    1.10
  -2  28  -5    2.90    1.30
   2 -28  -5    4.00    1.50
  -2  28  -5    2.40    1.50
   0  29  -5    5.80    1.80
   0 -29  -5    7.00    1.70
   0  29   5    7.80    2.20
  -1  29   5    0.70    0.50
   1  29  -5    2.30    1.20
  -1  29   5    0.90    1.50
   1 -29  -5    1.50    1.10
  -1  29  -5   -0.90    1.10
  -2  29   5   55.59    5.60
   2  29  -5   51.19    3.80
  -2 -29  -5   49.30    4.00
  -2  29   5   48.40    3.20
   2 -29  -5   60.09    4.40
   2  29   5   50.09    3.70
  -2  29  -5   49.00    3.80
  -2  29  -5   35.60    4.10
   0  30   5   18.70    3.20
   0  30  -5   14.20    2.40
   0 -30  -5   16.20    2.50
   1  30  -5   24.40    3.10
  -1  30   5   21.60    1.60
  -1  30   5   24.10    3.60
   1 -30  -5   17.70    2.60
  -1  30  -5   27.40    3.40
  -2  30   5   45.80    3.10
  -2  30   5   52.99    5.50
  -2  30  -5   43.20    4.40
   2 -30  -5   43.40    4.30
  -2  30  -5   44.60    3.70
   2  30   5   47.90    5.50
   0  31  -5    1.80    1.40
   0 -31  -5    2.50    1.30
   0  31   5    5.00    1.90
   1  31  -5   54.39    4.20
  -1  31   5   60.79    2.90
  -1  31   5   54.79    5.50
   1 -31  -5   57.39    4.30
  -1  31  -5   52.99    4.40
   0 -32  -5   23.80    2.90
   0  32   5   21.00    3.50
   0  32  -5   21.20    3.00
   0   0  -6  368.16   14.10
   0   0   6  353.46   14.30
   0   0  -6  366.46   13.70
   1   0  -6    1.50    0.70
   1   0   6    1.20    0.80
   1   0  -6    3.20    1.10
  -1   0  -6    0.60    0.70
  -1   0  -6    1.70    0.80
  -1   0   6    1.40    0.80
  -2   0   6   21.30    2.30
  -2   0  -6   20.30    2.40
   2   0  -6   22.80    2.40
  -2   0  -6   22.00    2.30
   2   0  -6   20.70    2.10
   2   0   6   22.70    2.90
   3   0  -6  118.99    5.60
  -3   0   6  119.49    6.50
   3   0   6  125.79    7.00
  -3   0  -6  112.09    6.00
  -3   0  -6  121.79    5.70
   3   0  -6  122.89    6.10
  -4   0  -6    2.90    1.30
   4   0   6    2.10    1.10
   4   0  -6    3.10    1.20
   4   0  -6    3.10    1.00
   5   0   6    1.00    1.10
  -5   0  -6    0.80    1.30
   5   0   6    1.80    1.60
   5   0  -6    0.70    0.90
   0  -1   6   10.80    1.80
   0   1  -6    5.50    1.20
   0   1  -6    6.20    1.10
   0  -1  -6    9.60    1.50
   0   1   6    6.00    1.40
   1  -1   6    5.60    1.40
  -1  -1  -6    5.30    1.20
  -1   1   6    5.90    1.40
   1   1  -6    5.00    1.20
   1   1  -6    5.20    1.00
  -1  -1  -6    6.70    1.30
  -1   1  -6    6.30    1.30
   1  -1  -6    5.80    1.10
  -1   1  -6    5.60    1.20
   1   1   6    7.90    1.60
   1  -1  -6    5.30    1.20
  -1  -1   6    5.20    1.30
  -2  -1  -6  146.69    7.00
   2   1  -6  148.29    6.60
   2   1  -6  157.98    7.10
   2  -1   6  165.58    7.90
  -2   1   6  154.08    7.40
  -2  -1  -6  145.59    6.80
   2  -1  -6  140.59    6.30
   2  -1  -6  155.38    6.90
   2   1   6  150.58    7.40
  -2  -1   6  128.59    6.90
  -2   1  -6  151.18    6.70
  -2   1  -6  152.48    6.80
   3  -1   6   27.30    3.50
  -3   1   6   24.90    2.60
  -3  -1  -6   20.00    2.60
  -3  -1  -6   24.80    2.40
   3   1  -6   21.10    2.20
   3   1  -6   25.20    2.70
  -3   1  -6   19.60    2.20
   3  -1  -6   27.70    2.80
  -3  -1   6   26.40    2.70
   3   1   6   23.00    3.10
  -3   1  -6   17.70    2.40
   3  -1  -6   24.60    2.40
   4  -1   6  203.38    9.00
   4   1  -6  196.78    8.60
  -4  -1  -6  199.18    9.40
   4   1  -6  204.08    9.00
   4   1   6  200.48    9.10
  -4   1  -6  190.48    9.30
   4  -1  -6  204.18    9.10
   4  -1  -6  211.28    8.70
   5  -1   6   14.70    3.20
   5   1  -6   16.10    2.20
   5  -1   6   17.90    2.60
  -5  -1  -6   18.50    3.00
   5   1   6   10.80    2.10
  -5   1  -6   17.10    2.80
   5  -1  -6   15.00    2.10
   5   1   6   19.90    3.60
   0   2  -6  448.66   16.60
   0   2   6  477.85   17.40
   0  -2  -6  452.85   17.00
   0  -2  -6  442.66   16.70
   0  -2   6  424.76   17.30
   0   2  -6  458.45   17.10
   1  -2   6    9.20    1.80
   1   2  -6    6.30    1.30
   1   2  -6    6.90    1.20
  -1   2   6    7.20    1.40
  -1  -2  -6    6.60    1.30
  -1  -2  -6    7.10    1.30
   1  -2  -6    7.40    1.20
  -1   2  -6    6.70    1.30
  -1  -2   6    4.80    1.40
   1   2   6    7.00    1.50
   1  -2  -6    6.90    1.40
  -1   2  -6    5.10    1.10
  -2   2   6   41.10    3.20
   2  -2   6   41.90    3.50
  -2  -2  -6   44.20    2.90
  -2  -2  -6   43.70    3.10
   2   2  -6   36.60    2.60
   2   2  -6   39.40    2.90
   2  -2  -6   39.40    3.00
  -2   2  -6   37.00    2.70
   2  -2  -6   41.00    2.70
  -2   2  -6   46.20    3.00
   2   2   6   37.30    3.20
  -2  -2   6   44.00    3.30
  -3  -2  -6   27.30    2.90
  -3  -2  -6   20.30    2.50
  -3   2   6   26.00    3.20
   3   2  -6   25.10    2.10
   3  -2   6   24.00    3.30
   3   2  -6   21.10    2.40
   3  -2  -6   25.40    2.40
  -3   2  -6   19.40    2.20
  -3  -2   6   22.70    2.80
  -3   2  -6   19.70    2.40
   3   2   6   20.00    2.90
   3  -2  -6   19.80    2.40
   4  -2   6   81.89    4.80
   4   2  -6   84.79    4.50
  -4  -2  -6   85.79    5.30
   4   2  -6   78.39    4.70
  -4   2  -6   82.59    5.10
   4  -2  -6   87.99    5.00
   4   2   6   70.99    4.70
   4  -2  -6   80.59    4.40
   4   2   6   94.89    6.10
   5   2  -6   14.30    2.00
   5  -2   6   12.60    2.90
  -5  -2  -6   17.50    2.90
   5  -2   6   16.80    2.50
   5  -2  -6   17.30    2.20
   5   2   6   21.10    2.90
  -5   2  -6   18.90    2.80
   5   2   6   18.00    3.40
   0   3  -6   32.20    2.50
   0  -3  -6   29.40    2.30
   0   3  -6   30.70    2.20
   0  -3  -6   30.40    2.50
   0  -3   6   35.10    2.90
   0   3   6   32.00    2.60
  -1  -3  -6    4.80    1.10
   1   3  -6    5.80    1.30
  -1   3   6    6.20    1.40
   1  -3   6    6.70    1.50
   1   3  -6    4.20    0.90
  -1  -3  -6    7.80    1.40
  -1   3  -6    4.70    1.20
  -1  -3   6    3.80    1.10
  -1   3  -6    6.30    1.20
   1   3   6    5.40    1.30
   1  -3  -6    4.30    1.00
   1  -3  -6    6.30    1.30
   2   3  -6  116.39    5.60
  -2  -3  -6   99.89    5.50
  -2  -3  -6  112.79    5.30
  -2   3   6  111.69    5.80
   2  -3   6  112.29    6.30
   2   3  -6  108.29    5.10
  -2   3  -6  105.29    5.10
   2  -3  -6  100.59    4.90
  -2  -3   6  100.19    5.60
   2  -3  -6  108.29    5.40
   2   3   6  103.09    5.70
  -2   3  -6   97.09    5.10
  -3  -3  -6   28.20    3.10
   3  -3   6   39.50    3.70
   3   3  -6   37.20    2.60
  -3   3   6   33.80    3.10
   3   3  -6   33.60    2.80
   3  -3  -6   33.40    2.80
  -3   3  -6   30.80    3.10
   3   3   6   29.60    3.10
  -3   3  -6   32.80    2.50
   3  -3  -6   29.50    2.30
  -4  -3  -6   47.20    3.80
  -4   3   6   48.70    4.00
   4   3  -6   47.50    3.20
   4   3  -6   50.29    3.50
   4  -3   6   50.79    3.50
  -4   3  -6   52.89    3.90
   4   3   6   49.80    3.70
   4   3   6   56.29    4.60
   4  -3  -6   50.69    3.70
   4  -3  -6   51.19    3.30
   5  -3   6    3.40    1.90
  -5  -3  -6    2.00    1.40
   5  -3   6    2.90    1.90
   5   3  -6    3.40    1.20
   5   3   6    3.00    1.50
  -5   3  -6    1.10    1.30
   5  -3  -6    2.10    1.10
   5   3   6    3.30    1.70
   0   4   6    2.10    0.90
   0   4  -6    2.10    0.70
   0  -4  -6    2.30    0.80
   0  -4  -6    1.20    0.80
   0   4  -6    1.60    0.90
   0  -4   6    2.20    1.00
  -1   4   6  196.88    8.80
  -1  -4  -6  216.48    8.70
   1  -4   6  204.18    9.30
   1   4  -6  197.78    8.20
  -1  -4  -6  211.58    8.70
   1   4  -6  202.38    8.70
  -1   4  -6  205.08    8.60
  -1  -4   6  216.88    9.40
   1  -4  -6  214.88    9.10
  -1   4  -6  217.68    9.00
   1   4   6  209.48    9.20
   1  -4  -6  211.98    8.60
   2   4  -6   23.30    2.50
  -2  -4  -6   22.20    2.50
  -2   4   6   20.60    2.60
  -2  -4  -6   20.40    2.20
   2  -4   6   19.90    2.80
   2   4  -6   19.40    2.00
  -2  -4   6   17.70    2.50
  -2   4  -6   21.90    2.30
  -2   4  -6   20.80    2.30
   2   4   6   17.50    2.40
   2  -4  -6   19.10    2.00
   2  -4  -6   15.50    2.10
   3   4  -6   48.10    3.10
   3  -4   6   57.19    4.50
   3   4  -6   53.59    3.50
  -3   4   6   47.70    3.70
  -3  -4  -6   47.30    3.60
   3  -4  -6   44.90    2.90
   3   4   6   49.50    3.90
  -3   4  -6   42.20    3.20
   3  -4  -6   44.50    3.30
  -3   4  -6   50.19    3.20
  -4  -4  -6   48.10    3.90
  -4   4   6   56.79    4.20
   4   4  -6   55.89    3.70
   4   4  -6   47.30    3.20
   4  -4   6   48.20    3.50
   4   4   6   46.60    4.20
   4  -4  -6   44.10    3.40
   4  -4  -6   48.30    3.20
  -4   4  -6   46.30    3.60
   4   4   6   46.90    3.50
   5  -4   6   76.69    6.60
   5   4  -6   81.19    4.60
  -5  -4  -6   80.29    5.40
   5  -4  -6   90.69    4.80
   5   4   6   84.49    6.30
   5   4   6   81.79    5.30
   0   5  -6   27.40    2.30
   0   5  -6   26.10    2.00
   0  -5   6   34.60    2.80
   0  -5  -6   27.90    2.20
   0  -5  -6   28.50    2.30
   0   5   6   26.00    2.30
   1   5  -6   24.30    2.50
  -1  -5  -6   19.50    2.20
  -1   5   6   23.80    2.20
  -1  -5  -6   22.60    2.40
   1   5  -6   21.50    1.80
   1  -5   6   19.40    2.60
  -1   5  -6   18.30    2.10
   1  -5  -6   25.90    2.00
  -1  -5   6   17.70    2.50
   1   5   6   22.70    2.10
   1  -5  -6   20.00    2.30
  -1   5  -6   22.60    1.90
  -2  -5  -6    6.90    1.30
   2   5  -6    5.40    1.10
   2  -5   6    4.30    1.40
  -2  -5  -6    6.60    1.50
  -2   5   6    8.90    1.70
   2   5  -6    5.90    1.30
  -2   5  -6    6.10    1.30
   2   5   6    3.60    1.20
   2  -5  -6    4.00    1.00
  -2  -5   6    6.50    1.60
   2  -5  -6    3.70    1.20
  -2   5  -6    4.10    1.10
   3   5  -6  279.17   11.30
  -3  -5  -6  280.17   12.10
  -3   5   6  289.97   12.30
   3  -5   6  291.97   13.20
   3   5  -6  290.17   11.70
   3   5   6  301.47   12.90
  -3   5  -6  284.97   11.90
  -3   5  -6  298.27   11.70
   3  -5  -6  273.47   11.40
   3  -5  -6  300.37   12.10
  -4   5   6    3.70    1.50
   4   5  -6    3.20    1.10
   4  -5   6    4.10    1.30
  -4  -5  -6    5.60    1.70
   4   5  -6    2.20    1.10
  -4   5  -6    2.00    1.10
   4   5   6    2.30    1.10
   4  -5  -6    2.60    1.20
   4   5   6    2.80    1.50
   4  -5  -6    2.10    0.90
  -5  -5  -6   30.10    3.80
   5   5  -6   27.20    2.70
   5   5   6   28.60    4.20
   5  -5  -6   28.80    2.80
   5   5   6   33.40    3.70
   0  -6  -6    3.10    0.90
   0  -6   6    3.40    1.10
   0   6  -6    3.90    1.00
   0   6   6    3.20    0.90
   0   6  -6    3.00    0.80
   0  -6  -6    3.30    1.00
   1   6  -6  105.09    4.90
   1  -6   6   97.19    5.70
   1   6  -6  103.79    5.20
  -1  -6  -6  106.19    5.20
  -1   6   6  105.49    5.40
  -1  -6  -6  106.19    5.20
  -1  -6   6  124.69    6.10
  -1   6  -6  110.09    5.40
  -1   6  -6  112.99    5.10
   1  -6  -6  100.59    5.40
   1   6   6  100.49    5.40
   1  -6  -6  104.79    5.00
   2  -6   6   36.00    3.40
   2   6  -6   38.60    2.80
  -2  -6  -6   40.10    3.00
  -2   6   6   32.60    2.80
   2   6  -6   36.30    2.40
  -2  -6  -6   37.70    2.60
   2   6   6   37.70    3.10
   2  -6  -6   36.90    2.90
  -2   6  -6   39.90    2.80
  -2  -6   6   37.40    4.80
  -2   6  -6   37.10    2.70
   2  -6  -6   36.90    2.50
   3  -6   6   16.80    2.90
   3   6  -6   15.00    1.80
   3   6  -6   16.30    2.10
  -3   6   6   17.10    2.40
  -3  -6  -6   15.80    2.40
  -3   6  -6   15.70    2.10
   3   6   6   20.60    2.80
   3  -6  -6   20.40    2.20
  -3   6  -6   20.60    2.30
   3   6   6   16.00    2.20
   3  -6  -6   15.70    2.20
  -4  -6  -6   28.90    3.50
   4   6  -6   30.40    2.50
   4  -6   6   29.70    4.20
  -4   6   6   32.00    3.20
   4   6  -6   31.80    3.10
  -4   6  -6   24.40    3.50
   4  -6  -6   26.70    2.50
   4   6   6   24.30    2.90
   4  -6  -6   27.40    3.00
   4   6   6   25.00    3.50
   0   7  -6    0.40    0.50
   0   7  -6   -0.10    0.60
   0   7   6    0.20    0.60
   0  -7   6    0.30    0.70
   0  -7  -6    0.50    0.60
   0  -7  -6   -0.40    0.40
   1  -7   6   26.60    2.70
  -1  -7  -6   23.70    2.40
   1   7  -6   21.70    1.90
  -1   7   6   24.90    2.30
   1   7  -6   29.20    2.40
  -1  -7  -6   26.90    2.30
   1  -7  -6   25.40    2.00
  -1   7  -6   28.50    2.30
  -1   7  -6   22.70    1.90
   1   7   6   24.50    2.20
  -1  -7   6   23.10    2.50
   1  -7  -6   26.40    2.70
   2   7  -6    5.50    1.10
  -2  -7  -6    2.20    1.00
  -2  -7  -6    3.70    1.00
  -2   7   6    4.40    1.20
   2   7  -6    3.30    1.10
   2  -7   6    2.10    1.20
   2   7   6    2.20    1.00
  -2   7  -6    4.70    1.10
   2  -7  -6    2.50    0.80
  -2   7  -6    2.60    0.90
   2  -7  -6    3.30    1.00
   3   7  -6  132.69    6.20
  -3  -7  -6  143.49    7.10
   3  -7   6  131.69    7.80
   3   7  -6  139.79    6.60
  -3   7   6  137.29    7.00
  -3   7  -6  147.99    6.70
   3  -7  -6  146.49    7.00
   3  -7  -6  140.29    6.40
   3   7   6  150.98    6.90
  -3   7  -6  132.29    6.60
   3   7   6  137.89    7.40
   4   7  -6    7.20    1.40
  -4   7   6    7.40    1.90
  -4  -7  -6    7.40    1.90
   4   7  -6    4.00    1.30
   4  -7  -6    4.40    1.40
   4   7   6    5.70    1.60
   4  -7  -6    5.60    1.20
   4   7   6    4.80    1.70
   0   8  -6   34.40    2.30
   0  -8   6   33.30    2.90
   0  -8  -6   33.00    2.40
   0  -8  -6   30.10    2.50
   0   8  -6   30.90    2.60
   0   8   6   35.20    2.60
   1  -8   6  157.78    7.90
  -1  -8  -6  164.48    7.20
  -1  -8  -6  153.78    7.20
  -1   8   6  162.28    7.30
   1   8  -6  163.18    6.80
   1   8  -6  168.58    7.40
  -1   8  -6  163.08    7.20
   1  -8  -6  159.18    6.80
   1   8   6  148.89    7.00
  -1   8  -6  154.68    6.70
  -1  -8   6  166.78    7.80
   1  -8  -6  154.98    7.20
   2   8  -6    3.50    0.90
  -2  -8  -6    5.50    1.20
  -2   8   6    3.70    1.20
  -2  -8  -6    3.40    1.30
   2   8  -6    3.00    1.10
   2  -8   6    4.90    1.60
  -2   8  -6    2.80    0.90
   2   8   6    4.10    1.20
   2  -8  -6    3.00    1.00
  -2   8  -6    3.80    1.10
   2  -8  -6    1.70    1.00
  -3  -8  -6    2.40    1.20
   3   8  -6    1.90    0.90
   3  -8   6    4.20    1.70
   3   8  -6    2.30    1.00
  -3   8   6    2.10    1.10
   3  -8  -6    3.60    1.20
   3   8   6    1.80    1.00
   3   8   6    2.70    1.20
  -3   8  -6    3.70    1.10
   3  -8  -6    3.80    1.00
  -3   8  -6    1.20    0.90
   4   8  -6    4.80    1.40
  -4   8   6    5.00    1.60
  -4  -8  -6    6.10    1.80
   4   8  -6    7.50    1.50
   4  -8  -6    5.10    1.20
   4   8   6    3.90    1.40
   4  -8  -6    5.40    1.60
   4   8   6    6.90    1.90
   0  -9   6   77.09    4.60
   0  -9  -6   70.19    4.10
   0   9  -6   80.49    4.30
   0   9  -6   68.99    3.60
   0   9   6   66.89    3.90
   0  -9  -6   69.19    3.90
   1  -9   6  152.28    7.60
  -1  -9  -6  150.28    6.70
  -1   9   6  133.59    6.60
  -1  -9  -6  155.18    6.80
   1   9  -6  144.69    6.70
   1   9  -6  144.69    6.30
   1   9   6  142.89    6.80
   1  -9  -6  152.18    6.60
   1  -9  -6  155.68    7.10
  -1   9  -6  142.39    6.90
  -1   9  -6  160.58    6.60
   2   9  -6    6.70    1.40
   2   9  -6    8.50    1.40
  -2  -9  -6    6.10    1.30
  -2   9   6    6.20    1.40
   2  -9   6    8.40    2.00
  -2  -9  -6    5.70    1.40
  -2   9  -6    5.60    1.20
  -2   9  -6    6.50    1.50
   2  -9  -6    6.00    1.50
   2  -9  -6    5.80    1.20
   2   9   6    6.20    1.40
   3   9  -6   72.89    4.00
   3   9  -6   79.39    4.40
  -3   9   6   78.49    4.80
  -3  -9  -6   69.99    4.70
   3   9   6   78.09    4.60
  -3   9  -6   76.89    4.40
   3   9   6   75.29    5.00
   3  -9  -6   74.79    4.10
   3  -9  -6   88.09    4.90
   4   9  -6   16.50    2.00
  -4   9   6   16.80    2.70
  -4  -9  -6   17.60    2.80
   4   9   6   14.70    2.40
   4  -9  -6   19.80    2.20
   4  -9  -6   15.90    2.40
   4   9   6   13.80    2.50
   0  10  -6  310.27   12.20
   0 -10  -6  325.87   12.60
   0  10  -6  324.37   12.90
   0  10   6  333.47   12.70
   0 -10  -6  321.07   12.90
   1  10  -6   59.69    3.30
  -1  10   6   66.29    3.80
  -1 -10  -6   57.19    3.70
   1  10  -6   63.19    3.80
  -1 -10  -6   63.39    3.80
   1 -10   6   67.29    4.70
   1 -10  -6   58.39    3.40
   1  10   6   61.79    3.60
  -1  10  -6   60.09    3.80
  -1  10  -6   58.09    3.30
   1 -10  -6   63.69    3.90
  -2 -10  -6   20.10    2.30
  -2  10   6   19.70    2.40
   2  10  -6   16.30    1.90
   2  10  -6   18.50    2.20
  -2 -10  -6   19.40    2.50
  -2  10  -6   20.90    2.20
   2  10   6   18.60    2.40
  -2  10  -6   16.30    2.10
   2 -10  -6   17.50    2.30
   2 -10  -6   20.10    2.00
  -3  10   6    5.50    1.40
   3  10  -6    4.30    1.10
  -3 -10  -6    3.10    1.20
   3  10  -6    2.90    1.10
  -3  10  -6    4.50    1.30
   3 -10  -6    4.00    1.10
   3 -10  -6    3.40    1.40
   3  10   6    5.70    1.60
   3  10   6    4.10    1.20
  -4 -10  -6   24.00    3.20
   4  10  -6   18.10    2.10
  -4  10   6   23.40    3.10
   4  10   6   21.00    3.10
   4  10   6   26.20    3.10
   4 -10  -6   18.80    2.20
   4 -10  -6   23.50    3.00
   0  11  -6   60.29    3.70
   0  11   6   59.89    3.50
   0  11  -6   59.49    3.20
   0 -11  -6   61.49    3.80
   0 -11  -6   60.79    3.50
  -1  11   6   14.70    1.90
   1  11  -6   13.40    1.60
  -1 -11  -6   16.30    2.10
  -1 -11  -6   16.80    2.10
   1  11  -6   13.90    2.00
   1 -11  -6   15.20    1.90
  -1  11  -6   15.60    2.10
  -1  11  -6   15.40    1.80
   1 -11  -6   18.60    2.30
   1  11   6   16.10    1.70
  -2 -11  -6  224.38    8.90
   2  11  -6  200.98    8.90
   2  11  -6  212.68    8.50
  -2 -11  -6  206.58    9.30
  -2  11   6  195.78    9.00
  -2  11  -6  194.88    9.10
   2 -11  -6  214.38    8.70
   2 -11  -6  213.38    9.40
  -2  11  -6  233.68   10.60
   2  11   6  205.38    9.20
  -3  11   6  123.19    6.50
   3  11  -6  120.19    6.00
  -3 -11  -6  127.09    6.70
   3  11  -6  119.59    5.70
   3  11   6  117.89    6.50
   3  11   6  114.29    6.10
   3 -11  -6  111.79    5.60
  -3  11  -6  128.09    6.20
   3 -11  -6  123.69    6.40
  -4 -11  -6   97.49    6.10
   4  11  -6   97.19    5.10
  -4  11   6  108.89    6.20
   4  11   6  102.39    5.90
   4 -11  -6  103.89    5.20
   4 -11  -6   93.49    5.70
   4  11   6  112.89    6.50
   0 -12  -6   55.39    3.40
   0  12  -6   61.39    3.70
   0  12   6   58.09    3.40
   0 -12  -6   57.29    3.70
   0  12  -6   51.79    3.00
  -1 -12  -6   44.60    3.10
  -1 -12  -6   45.80    3.20
  -1  12   6   39.70    2.90
   1  12  -6   39.20    3.00
   1  12  -6   42.90    2.60
   1  12   6   46.60    2.90
   1 -12  -6   44.90    3.30
   1 -12  -6   38.60    2.80
  -1  12  -6   45.50    2.70
  -1  12  -6   43.10    3.20
   2  12  -6   11.70    1.80
  -2 -12  -6   11.50    2.00
  -2 -12  -6   12.90    1.90
  -2  12   6   13.80    2.00
   2  12  -6   13.70    1.70
   2 -12  -6   13.70    2.10
  -2  12  -6   13.70    2.00
   2  12   6   13.20    2.00
   2 -12  -6   12.50    1.70
   3  12  -6   61.59    3.60
   3  12  -6   69.69    4.00
  -3  12   6   55.19    4.00
  -3 -12  -6   58.39    4.20
   3  12   6   61.59    4.10
   3 -12  -6   58.59    3.60
   3 -12  -6   65.79    4.40
  -3  12  -6   68.99    4.20
   3  12   6   68.29    4.40
  -4 -12  -6   18.50    2.90
  -4  12   6   21.10    3.00
   4  12  -6   15.80    2.00
   4 -12  -6   23.50    2.40
   4  12   6   20.70    2.80
   4  12   6   19.00    2.90
   4 -12  -6   18.20    2.70
   0 -13  -6    8.40    1.70
   0  13   6    7.70    1.30
   0 -13  -6    7.80    1.40
   0  13  -6    6.10    1.40
   0  13  -6    8.00    1.20
  -1 -13  -6   17.40    2.20
   1  13  -6   19.20    2.40
   1  13  -6   20.20    1.70
  -1 -13  -6   17.30    2.30
  -1  13   6   21.00    2.00
   1 -13  -6   19.50    2.10
   1  13   6   16.30    1.70
  -1  13  -6   17.70    1.90
   1 -13  -6   14.40    2.10
  -1  13  -6   15.30    2.10
  -2  13   6   51.79    3.50
   2  13  -6   54.39    3.10
  -2 -13  -6   48.40    3.60
   2  13  -6   52.89    3.50
  -2 -13  -6   58.19    3.50
   2 -13  -6   50.39    3.70
   2 -13  -6   55.99    3.30
   2  13   6   49.00    3.40
  -2  13  -6   58.19    3.70
   3  13  -6   37.00    2.90
  -3  13   6   41.10    3.30
  -3 -13  -6   41.90    4.10
   3  13  -6   35.00    2.60
   3  13   6   36.70    3.10
   3  13   6   37.30    3.10
  -3  13  -6   33.30    3.30
   3 -13  -6   38.90    2.70
   3 -13  -6   32.00    3.40
  -4 -13  -6   19.60    3.00
   4  13  -6   22.80    2.50
  -4  13   6   21.30    3.00
   4 -13  -6   20.80    2.80
   4  13   6   22.00    3.10
   4 -13  -6   21.70    2.30
   4  13   6   20.50    2.90
  -4  13  -6   27.20    3.20
   0 -14  -6   12.70    2.00
   0  14   6   10.10    1.50
   0  14  -6   14.20    2.10
   0  14  -6   11.30    1.40
   0 -14  -6    9.30    1.60
  -1 -14  -6   32.10    2.60
   1  14  -6   34.30    2.70
  -1 -14  -6   29.70    3.00
  -1  14   6   33.40    2.50
   1  14  -6   32.00    2.20
  -1  14  -6   35.70    2.90
   1 -14  -6   32.60    2.50
   1  14   6   32.00    2.40
   1 -14  -6   32.50    3.20
  -2 -14  -6   51.99    3.50
  -2  14   6   44.60    3.30
  -2 -14  -6   52.69    3.70
   2  14  -6   50.09    3.00
   2  14  -6   50.19    3.40
   2 -14  -6   45.90    3.50
   2 -14  -6   43.80    2.90
  -2  14  -6   49.00    3.50
   2  14   6   49.00    3.30
  -3 -14  -6    4.20    1.50
   3  14  -6    3.40    1.20
  -3  14   6    4.70    1.40
   3  14  -6    3.40    1.00
  -3  14  -6    4.60    1.40
   3 -14  -6    4.20    1.40
   3  14   6    2.00    1.20
   3 -14  -6    3.90    1.10
   4  14  -6   36.10    2.80
  -4 -14  -6   36.30    4.10
  -4  14   6   45.50    3.80
   4  14   6   35.00    3.40
   4 -14  -6   40.00    2.80
   4 -14  -6   36.40    3.80
   4  14   6   35.30    3.70
  -4  14  -6   38.10    3.20
   0 -15  -6  112.09    5.60
   0  15   6  114.79    5.40
   0  15  -6  112.29    5.10
   0 -15  -6  116.59    5.90
   0  15  -6  121.59    6.00
  -1  15   6    8.30    1.50
   1  15  -6    7.60    1.50
   1  15  -6   10.10    1.40
  -1 -15  -6    9.00    1.70
  -1 -15  -6    9.50    1.80
   1 -15  -6    9.60    1.50
  -1  15  -6    8.60    1.70
   1  15   6   10.60    1.50
   1 -15  -6    8.50    1.70
  -2 -15  -6  126.69    6.50
   2  15  -6  130.49    6.30
  -2  15   6  128.29    6.20
   2  15  -6  116.09    5.50
   2 -15  -6  124.49    5.60
   2 -15  -6  111.49    6.20
   2  15   6  120.99    5.90
  -2  15  -6  115.79    6.20
   3  15  -6   36.10    2.90
   3  15  -6   36.30    2.60
  -3  15   6   37.90    3.20
  -3 -15  -6   36.80    3.90
  -3  15  -6   37.80    3.10
   3 -15  -6   40.30    2.70
   3 -15  -6   28.20    3.20
   3  15   6   33.50    3.40
  -4  15   6   35.90    3.40
   4  15  -6   36.30    2.80
  -4 -15  -6   37.60    4.20
  -4  15  -6   35.00    3.50
   4 -15  -6   30.70    2.50
   4  15   6   34.40    3.40
   4 -15  -6   30.40    3.40
   4  15   6   33.40    3.70
   0  16  -6  207.08    9.10
   0 -16  -6  205.08    9.00
   0 -16  -6  201.68    8.70
   0  16   6  195.98    8.30
  -1  16   6  122.99    5.80
   1  16  -6  129.49    6.30
   1  16  -6  124.39    5.50
  -1 -16  -6  115.09    6.20
  -1 -16  -6  129.09    6.20
   1  16   6  116.29    5.50
  -1  16  -6  127.89    6.30
   1 -16  -6  119.99    6.20
   1 -16  -6  118.09    5.70
   2  16  -6    6.00    1.40
  -2  16   6    4.30    1.20
   2  16  -6    7.30    1.30
  -2 -16  -6    5.90    1.60
   2 -16  -6    5.70    1.30
  -2  16  -6    7.80    1.60
   2 -16  -6    5.50    1.50
   2  16   6    5.60    1.30
  -3  16   6   27.00    2.80
  -3 -16  -6   31.80    3.60
   3  16  -6   26.90    2.30
   3  16  -6   32.30    2.70
   3  16   6   31.30    3.30
   3 -16  -6   28.20    2.30
  -3  16  -6   29.50    3.20
   3  16   6   27.00    2.70
   3 -16  -6   26.50    3.20
  -4 -16  -6    8.20    2.10
  -4  16   6    8.40    2.00
   4  16  -6    6.60    1.40
   4  16   6   12.70    2.30
  -4  16  -6   14.00    2.20
   4 -16  -6    7.00    1.40
   4  16   6    8.60    2.00
   4 -16  -6    8.30    2.00
   0 -17  -6   22.50    2.50
   0  17  -6   25.20    2.80
   0  17   6   26.70    2.10
   0 -17  -6   27.60    3.00
   1  17  -6  124.29    6.30
   1  17  -6  125.49    5.50
  -1 -17  -6  126.89    6.20
  -1 -17  -6  120.69    6.20
  -1  17   6  121.49    5.80
   1 -17  -6  127.89    6.50
   1 -17  -6  122.79    5.90
  -1  17  -6  121.69    6.40
   1  17   6  123.99    5.60
   2  17  -6  118.09    6.10
   2  17  -6  123.99    5.50
  -2 -17  -6  127.99    6.60
  -2  17   6  116.79    6.00
   2 -17  -6  117.89    5.70
  -2  17  -6  119.59    6.30
   2  17   6  118.29    5.80
   2 -17  -6  120.99    6.50
  -3 -17  -6  228.88   10.70
  -3  17   6  246.88   10.30
   3  17  -6  214.38    9.70
   3  17  -6  217.68    9.30
   3 -17  -6  216.28    9.00
  -3  17  -6  215.38    9.80
   3  17   6  227.88    9.70
   3  17   6  207.58    9.70
   3 -17  -6  209.58   10.00
   4  17  -6   63.29    3.90
  -4  17   6   77.39    5.10
  -4 -17  -6   67.69    5.10
  -4  17  -6   66.39    4.60
   4  17   6   65.49    4.70
   4 -17  -6   76.69    5.00
   4 -17  -6   69.09    4.00
   4  17   6   79.19    5.10
   0 -18  -6   44.80    3.30
   0  18   6   42.10    2.60
   0  18  -6   39.70    3.20
   0 -18  -6   36.80    2.90
   1  18  -6  106.99    5.70
  -1 -18  -6  105.09    5.70
  -1  18   6  103.29    5.20
  -1 -18  -6  115.09    5.80
   1  18   6  111.09    5.10
   1 -18  -6  115.39    6.00
  -1  18  -6  111.49    6.00
   1 -18  -6  101.89    5.30
   2  18  -6   96.79    4.60
  -2  18   6   91.99    5.00
  -2 -18  -6   89.59    5.50
   2  18  -6  100.99    5.30
  -2  18  -6   92.59    5.40
   2 -18  -6   95.69    4.90
   2  18   6   95.49    4.90
   2 -18  -6   95.89    5.60
   3  18  -6    5.90    1.30
   3  18  -6    6.70    1.50
  -3  18   6    7.20    1.70
  -3 -18  -6    7.30    1.80
   3 -18  -6    5.30    1.70
   3  18   6    5.50    1.40
  -3  18  -6    7.60    1.70
   3  18   6    3.90    1.40
   3 -18  -6    5.40    1.30
   0 -19  -6   17.10    2.40
   0 -19  -6   16.30    2.20
   0  19   6   14.80    1.50
   0  19  -6   15.40    2.20
  -1 -19  -6   45.90    3.40
  -1  19   6   51.69    3.10
  -1 -19  -6   47.50    3.50
   1  19  -6   45.40    3.40
   1  19   6   45.60    2.80
  -1  19  -6   44.40    3.50
   1 -19  -6   43.70    3.50
   1 -19  -6   48.70    3.20
   2  19  -6   -0.20    0.50
  -2 -19  -6    0.90    1.10
  -2  19   6    0.20    0.70
   2  19  -6    0.00    0.70
   2  19   6    0.20    0.80
  -2  19  -6    0.50    1.10
   2 -19  -6    0.10    0.90
   2 -19  -6    1.20    0.80
   2  19   6    0.10    0.70
   3  19  -6    6.40    1.50
   3  19  -6    5.30    1.30
  -3  19   6    5.20    1.50
  -3 -19  -6    6.20    1.90
   3  19   6    3.40    1.20
   3 -19  -6    5.20    1.20
   3  19   6    6.30    1.60
  -3  19  -6    4.50    1.60
   3 -19  -6    9.70    2.00
   0 -20  -6    1.90    1.20
   0 -20  -6    3.40    1.30
   0  20  -6    3.70    1.30
   0  20   6    3.50    0.90
  -1 -20  -6   24.70    2.80
   1  20  -6   25.20    2.80
  -1  20   6   24.40    2.10
  -1 -20  -6   28.70    3.10
   1  20   6   28.80    2.10
   1 -20  -6   27.20    2.80
   1 -20  -6   32.80    3.30
  -1  20  -6   28.30    3.10
   2  20  -6    2.20    1.10
  -2  20   6    1.90    0.90
  -2 -20  -6    2.70    1.40
   2 -20  -6    3.90    1.40
   2  20   6    2.40    0.90
  -2  20  -6    5.60    1.60
   2 -20  -6    2.40    1.10
   2  20   6    2.30    1.20
   3  20  -6    9.60    1.60
  -3 -20  -6    9.20    2.20
  -3  20   6    8.10    1.80
   3 -20  -6    8.80    1.60
   3  20   6   11.80    1.90
   3 -20  -6    7.90    2.00
  -3  20  -6    9.90    2.10
   3  20   6    4.90    1.60
   0 -21  -6   15.30    2.10
   0 -21  -6   11.70    2.10
   0  21   6   14.20    1.40
   0  21  -6   14.50    2.30
   1  21  -6   13.50    2.10
  -1 -21  -6   17.70    2.50
  -1  21   6   14.00    1.80
  -1 -21  -6   12.00    2.00
   1 -21  -6   17.80    2.20
   1  21   6   14.10    1.50
  -1  21  -6   13.50    2.30
   1 -21  -6   16.70    2.50
   2  21  -6   28.90    3.00
  -2  21   6   27.40    2.40
  -2 -21  -6   25.30    3.20
  -2  21  -6   26.80    3.20
   2 -21  -6   23.10    2.50
   2 -21  -6   26.50    3.20
   2  21   6   18.90    2.60
  -3  21   6   90.59    5.30
  -3 -21  -6   91.49    5.90
   3 -21  -6   95.09    5.80
  -3  21  -6   90.49    5.70
   3  21   6   96.99    5.60
   3  21   6   90.49    4.90
   0 -22  -6   15.40    2.30
   0  22   6   16.20    1.50
   0 -22  -6   17.20    2.30
   0  22  -6   17.00    2.50
  -1 -22  -6   71.29    4.60
  -1  22   6   77.29    4.00
   1  22  -6   75.79    4.70
  -1 -22  -6   79.59    4.80
   1 -22  -6   74.89    4.80
  -1  22  -6   74.59    4.90
   1 -22  -6   81.09    4.40
   1  22   6   71.09    3.60
  -2  22   6   24.20    2.20
   2  22  -6   19.60    2.60
  -2 -22  -6   20.20    2.80
   2  22   6   22.00    2.80
   2 -22  -6   25.50    2.60
   2 -22  -6   25.00    3.10
  -2  22  -6   17.40    2.60
  -3  22   6    4.80    1.40
  -3 -22  -6    5.20    1.70
   3  22   6    5.80    1.80
   3 -22  -6    4.50    1.70
   3  22   6    6.90    1.40
  -3  22  -6    8.10    2.00
   0 -23  -6   -0.90    0.80
   0 -23  -6    0.90    1.00
   0  23  -6    1.60    1.20
   0  23   6    0.40    0.50
  -1 -23  -6   57.19    3.90
  -1  23   6   56.29    3.20
   1  23  -6   52.39    3.90
  -1 -23  -6   56.39    4.00
   1 -23  -6   49.50    3.40
   1  23   6   51.09    2.80
   1 -23  -6   58.79    4.10
  -1  23  -6   51.69    4.10
  -2 -23  -6  134.09    7.30
   2  23  -6  134.49    6.90
  -2  23   6  140.59    6.50
  -2  23  -6  140.29    7.30
   2  23   6  130.69    5.80
   2  23   6  127.99    6.80
   2 -23  -6  137.89    7.30
   0 -24  -6   51.19    3.70
   0  24  -6   61.99    4.30
   0  24   6   53.19    2.90
   0 -24  -6   59.69    4.10
  -1 -24  -6   65.19    4.40
   1  24  -6   73.59    4.60
  -1 -24  -6   69.59    4.60
  -1  24   6   62.89    3.60
  -1  24  -6   63.69    4.60
   1 -24  -6   63.99    4.50
   1 -24  -6   59.79    3.90
   1  24   6   63.49    3.10
   2  24  -6   44.50    3.50
  -2  24   6   46.40    3.20
  -2 -24  -6   43.00    4.30
  -2  24  -6   46.00    3.90
   2 -24  -6   45.60    3.90
   2  24   6   49.90    3.70
   2  24   6   44.20    2.60
   0 -25  -6   -0.30    1.00
   0 -25  -6    1.50    1.10
   0  25  -6    1.20    1.20
   0  25   6    0.90    0.50
   1  25  -6    1.80    1.20
  -1 -25  -6    0.90    1.10
  -1  25   6    0.50    0.60
   1 -25  -6    0.00    0.90
  -1  25  -6    0.00    1.00
   1  25   6    0.90    0.50
  -2 -25  -6   34.70    3.80
  -2  25   6   31.50    2.60
   2  25  -6   37.20    3.10
  -2  25  -6   28.90    3.50
   2  25   6   32.50    3.50
   2 -25  -6   29.80    3.60
   2  25   6   32.30    1.90
   0 -26  -6  140.69    6.90
   0  26   6  123.89    5.30
   0 -26  -6  137.59    7.10
   0  26  -6  133.59    7.10
  -1 -26  -6    5.50    1.60
   1  26  -6    5.50    1.60
  -1  26   6    4.40    1.00
  -1  26  -6    4.10    1.60
   1  26   6    3.00    1.30
   1 -26  -6    2.70    1.30
   0 -27  -6   20.80    2.80
   0  27   6   22.50    1.50
   0  27   6   22.00    3.50
   0  27  -6   21.80    2.90
  -1  27   6    2.40    2.00
   1  27  -6    6.70    1.80
  -1  27  -6    7.30    2.00
   1 -27  -6    4.40    1.70
   0   0  -7   68.49    3.90
   0   0   7   72.69    4.60
   0   0  -7   65.89    4.20
  -1   0   7    6.50    1.70
   1   0  -7    3.80    1.20
  -1   0  -7    6.60    1.40
   1   0  -7    5.20    1.20
  -1   0  -7    8.20    1.50
   1   0   7    4.20    1.40
  -2   0   7   35.90    3.30
   2   0  -7   36.40    2.70
   2   0  -7   36.40    3.10
   2   0   7   33.30    3.40
  -2   0  -7   42.10    3.20
  -2   0  -7   35.60    2.90
  -3   0  -7   24.70    3.00
  -3   0   7   24.60    3.90
   3   0  -7   18.40    2.50
   3   0  -7   23.70    2.50
   3   0   7   30.50    4.00
   0   1  -7    2.30    1.00
   0   1   7    1.60    1.00
   0  -1   7    1.90    1.10
   0  -1  -7   -0.10    0.70
   0   1  -7    1.30    0.80
   0  -1  -7    3.10    1.00
  -1  -1  -7   34.20    2.80
   1   1  -7   27.40    2.30
  -1   1   7   29.00    2.90
   1   1  -7   33.70    2.80
  -1  -1  -7   30.80    2.60
   1  -1   7   25.90    2.90
  -1   1  -7   32.60    2.60
   1   1   7   33.20    3.10
  -1  -1   7   28.80    2.90
   1  -1  -7   33.30    3.20
   1  -1  -7   29.80    2.40
  -1   1  -7   31.60    3.10
   2  -1   7   33.90    3.40
  -2  -1  -7   38.20    2.90
   2   1  -7   29.00    3.10
   2   1  -7   32.50    2.50
  -2  -1  -7   27.90    3.00
  -2   1   7   30.50    3.00
  -2   1  -7   34.90    3.40
   2  -1  -7   30.90    2.50
  -2   1  -7   32.50    3.10
   2   1   7   31.80    3.30
  -2  -1   7   33.80    3.10
   2  -1  -7   36.20    3.00
  -3  -1  -7   29.50    3.40
   3   1  -7   37.30    2.80
   3  -1   7   37.10    3.90
   3   1  -7   37.70    3.20
  -3   1   7   40.60    3.60
  -3   1  -7   37.50    3.80
   3  -1  -7   33.70    2.70
   3  -1  -7   38.10    3.20
   3   1   7   38.40    3.90
   0  -2  -7   20.50    2.30
   0   2  -7   22.50    2.40
   0   2  -7   23.50    2.60
   0   2   7   22.30    2.90
   0  -2   7   22.80    3.00
   0  -2  -7   28.80    2.90
   1  -2   7   63.19    4.60
  -1  -2  -7   73.29    4.30
  -1   2   7   82.69    4.80
  -1  -2  -7   67.79    4.10
   1   2  -7   67.69    4.30
   1   2  -7   68.79    3.90
   1  -2  -7   70.49    4.50
   1  -2  -7   70.59    4.00
  -1   2  -7   75.39    4.50
  -1  -2   7   73.99    4.80
   1   2   7   78.99    4.90
  -1   2  -7   76.59    4.30
  -2  -2  -7   61.99    3.80
  -2  -2  -7   55.59    3.80
   2  -2   7   55.29    4.50
  -2   2   7   57.69    4.10
   2   2  -7   57.59    3.50
   2   2  -7   53.19    3.80
   2   2   7   51.39    4.20
   2  -2  -7   53.09    3.40
  -2   2  -7   48.40    3.60
  -2   2  -7   58.19    3.70
  -2  -2   7   60.49    4.20
   2  -2  -7   53.59    3.80
   3   2  -7    3.80    1.30
   3   2  -7    5.30    1.30
  -3  -2  -7    7.30    1.80
  -3   2   7    3.20    1.50
   3  -2   7    7.50    2.10
   3   2   7    4.50    1.80
   3  -2  -7    5.80    1.30
  -3   2  -7    5.10    1.60
   3  -2  -7    7.50    1.80
  -3   2  -7    5.00    1.30
   0  -3   7   49.30    3.90
   0   3  -7   50.89    3.60
   0  -3  -7   59.49    3.80
   0   3   7   51.99    3.80
   0  -3  -7   54.19    3.40
   0   3  -7   50.79    3.30
  -1  -3  -7   63.59    4.00
  -1  -3  -7   62.59    3.90
   1   3  -7   61.29    3.60
   1  -3   7   63.09    4.50
   1   3  -7   61.29    3.90
  -1   3   7   58.79    4.10
   1   3   7   58.99    4.10
   1  -3  -7   61.29    3.60
  -1  -3   7   61.79    4.30
  -1   3  -7   49.99    3.70
  -1   3  -7   64.89    3.80
   1  -3  -7   59.89    4.00
  -2  -3  -7   12.60    1.90
   2   3  -7   13.80    2.10
   2  -3   7   12.60    2.50
  -2   3   7   13.30    2.30
   2   3  -7   14.40    1.90
  -2  -3  -7   12.10    2.10
   2  -3  -7   17.60    2.40
   2  -3  -7   13.40    1.80
   2   3   7   15.80    2.60
  -2   3  -7   13.00    2.00
  -2  -3   7   14.60    2.50
  -2   3  -7   15.10    2.20
   3  -3   7    5.90    2.00
   3   3  -7    4.40    1.30
   3   3  -7    3.60    1.20
  -3  -3  -7    1.70    1.20
  -3   3   7    2.70    1.40
   3  -3  -7    4.30    1.20
  -3   3  -7    5.90    1.60
   3   3   7    3.60    1.60
   3  -3  -7    4.10    1.40
  -3   3  -7    6.30    1.40
   0  -4   7   78.19    5.00
   0  -4  -7   83.79    4.70
   0   4   7   77.79    4.80
   0   4  -7   81.99    4.30
   0  -4  -7   74.79    4.30
   0   4  -7   78.89    4.60
   1  -4   7  148.89    7.90
  -1  -4  -7  163.58    7.40
  -1  -4  -7  159.98    7.30
   1   4  -7  150.78    6.80
  -1   4   7  152.78    7.60
   1   4  -7  154.08    7.40
   1  -4  -7  160.38    7.10
  -1   4  -7  166.08    7.50
   1  -4  -7  153.98    7.50
  -1  -4   7  152.88    7.90
  -1   4  -7  151.88    7.10
   1   4   7  153.28    7.70
  -2   4   7    4.20    1.30
  -2  -4  -7    2.00    1.10
   2  -4   7    4.40    1.60
   2   4  -7    3.20    1.10
   2   4  -7    3.00    1.10
  -2  -4  -7    4.50    1.30
  -2   4  -7    2.80    1.10
   2   4   7    1.90    1.20
   2  -4  -7    3.10    1.10
   2  -4  -7    2.70    1.20
  -2   4  -7    1.30    1.00
  -3  -4  -7   42.30    4.10
   3   4  -7   31.00    2.60
  -3   4   7   34.50    3.40
   3   4  -7   33.60    3.40
   3  -4   7   38.80    4.10
  -3   4  -7   39.30    3.10
   3   4   7   33.50    3.60
  -3   4  -7   38.30    3.70
   3  -4  -7   35.00    3.60
   3  -4  -7   36.30    2.80
   0   5   7   40.90    3.20
   0  -5  -7   34.30    2.70
   0   5  -7   30.40    3.10
   0  -5   7   37.80    3.30
   0   5  -7   34.10    2.60
   0  -5  -7   36.60    3.00
  -1  -5  -7   20.00    2.50
  -1  -5  -7   20.20    2.40
   1   5  -7   20.20    2.50
  -1   5   7   22.90    2.40
   1  -5   7   16.20    2.60
   1   5  -7   17.30    2.10
   1   5   7   22.60    2.50
  -1   5  -7   26.00    2.80
   1  -5  -7   16.30    2.00
   1  -5  -7   25.00    2.90
  -1   5  -7   22.90    2.50
  -1  -5   7   19.90    2.80
  -2  -5  -7   68.59    4.10
   2   5  -7   63.19    4.10
  -2   5   7   63.19    4.40
   2  -5   7   65.69    5.00
   2   5  -7   63.49    3.70
  -2  -5  -7   62.29    4.20
   2  -5  -7   69.49    4.40
  -2   5  -7   61.39    4.00
   2   5   7   67.39    4.70
   2  -5  -7   64.69    3.80
  -2   5  -7   67.19    4.20
   3   5  -7   52.29    3.90
   3  -5   7   62.49    5.20
   3   5  -7   57.49    3.60
  -3  -5  -7   65.39    4.50
  -3   5   7   57.39    4.40
   3   5   7   58.19    4.70
  -3   5  -7   56.59    4.10
   3  -5  -7   64.69    4.30
   3  -5  -7   58.39    3.70
  -3   5  -7   61.79    4.00
   0   6  -7   12.70    1.80
   0   6  -7   10.90    1.90
   0  -6   7   11.60    2.20
   0   6   7   12.30    2.10
   0  -6  -7   11.90    1.90
   0  -6  -7   11.50    1.90
   1  -6   7  101.79    6.20
  -1  -6  -7  108.09    5.60
   1   6  -7  107.39    5.60
   1   6  -7   92.49    4.90
  -1   6   7  101.69    5.60
  -1  -6  -7  104.89    5.50
   1   6   7  103.49    5.70
  -1   6  -7  103.89    5.60
  -1   6  -7  110.89    5.40
   1  -6  -7  101.59    5.20
  -1  -6   7   93.39    7.00
   1  -6  -7  112.89    5.80
   2   6  -7   35.00    2.70
  -2   6   7   36.70    3.20
  -2  -6  -7   33.40    3.50
  -2  -6  -7   36.50    2.90
   2   6  -7   38.10    3.10
   2  -6   7   35.70    3.70
   2   6   7   43.10    3.60
   2  -6  -7   37.90    2.80
  -2   6  -7   41.40    3.20
  -2   6  -7   48.50    3.40
   2  -6  -7   32.40    3.40
   3   6  -7    2.10    1.00
   3   6  -7    4.00    1.30
  -3   6   7    3.20    1.40
  -3  -6  -7    5.00    1.70
   3  -6   7    4.20    1.80
  -3   6  -7    3.40    1.40
   3   6   7    3.40    1.30
   3  -6  -7    5.30    1.30
  -3   6  -7    5.10    1.40
   3  -6  -7    4.10    1.60
   3   6   7    4.40    1.70
   0   7  -7    6.20    1.30
   0  -7  -7    8.50    1.60
   0   7  -7    9.10    1.70
   0   7   7    6.60    1.50
   0  -7   7    4.90    1.60
   0  -7  -7   10.00    1.80
  -1  -7  -7   35.10    2.90
   1   7  -7   39.20    2.70
  -1   7   7   34.40    3.10
  -1  -7  -7   33.70    2.90
   1   7  -7   41.90    3.20
   1  -7   7   42.70    3.80
   1  -7  -7   34.70    2.70
  -1   7  -7   35.00    2.90
   1  -7  -7   31.10    3.20
   1   7   7   32.20    2.90
  -1   7  -7   36.60    2.70
   2  -7   7   70.59    5.40
   2   7  -7   84.29    4.80
  -2  -7  -7   80.89    4.60
  -2  -7  -7   80.69    4.90
  -2   7   7   83.99    5.00
   2   7  -7   71.39    4.20
  -2   7  -7   71.29    4.50
  -2   7  -7   83.49    4.70
   2   7   7   84.59    5.20
   2  -7  -7   74.89    4.30
   2  -7  -7   76.49    4.80
  -3  -7  -7   87.49    5.50
   3   7  -7   81.39    5.00
   3   7  -7   86.19    4.60
  -3   7   7   80.89    5.40
   3   7   7   79.69    5.60
   3  -7  -7   82.49    4.60
   3   7   7   86.99    5.10
   3  -7  -7   76.69    5.10
  -3   7  -7   94.39    5.00
   0  -8  -7   16.20    2.20
   0   8  -7   15.00    2.00
   0   8  -7   18.70    2.50
   0  -8  -7   20.10    2.40
   0   8   7   19.40    2.50
   1   8  -7   52.19    3.20
  -1   8   7   46.30    3.50
   1   8  -7   48.50    3.50
  -1  -8  -7   51.29    3.60
  -1  -8  -7   48.40    3.50
   1  -8   7   51.09    5.30
  -1   8  -7   47.90    3.20
   1  -8  -7   50.49    3.30
   1  -8  -7   46.20    3.50
   1   8   7   48.60    3.60
  -1   8  -7   52.99    3.60
  -2  -8  -7   27.60    3.10
   2   8  -7   23.60    2.40
   2   8  -7   22.60    2.70
  -2  -8  -7   26.80    2.80
  -2   8   7   24.80    2.70
   2  -8  -7   25.90    2.60
  -2   8  -7   24.20    2.70
   2   8   7   22.20    2.90
  -2   8  -7   28.30    2.90
   2  -8  -7   27.80    3.20
   3   8  -7    0.70    0.80
  -3  -8  -7    1.10    1.10
   3   8  -7    0.20    0.90
  -3   8   7    0.90    1.10
   3   8   7    0.40    1.00
   3  -8  -7    1.40    0.90
   3   8   7   -0.20    0.90
  -3   8  -7    1.20    1.00
   3  -8  -7    1.80    1.20
   0   9   7   15.20    2.20
   0   9  -7   15.10    1.90
   0  -9  -7   17.40    2.40
   0  -9  -7   13.70    2.00
   0   9  -7   15.40    2.10
  -1  -9  -7   10.70    1.80
   1   9  -7   10.70    1.60
   1   9  -7   11.80    2.00
  -1  -9  -7    9.50    1.80
  -1   9   7   12.70    2.10
  -1   9  -7   11.30    1.70
   1  -9  -7   11.40    1.80
   1   9   7   12.20    2.00
   1  -9  -7    9.30    1.90
  -1   9  -7    9.00    1.70
  -2  -9  -7   17.60    2.30
   2   9  -7   18.10    2.10
  -2   9   7   16.70    2.50
  -2  -9  -7   19.90    2.70
   2   9  -7   20.50    2.60
   2  -9  -7   17.90    2.10
   2  -9  -7   17.70    2.50
   2   9   7   15.40    2.50
  -2   9  -7   18.30    2.40
  -2   9  -7   13.60    2.10
   3   9  -7   17.70    2.50
  -3  -9  -7   16.10    2.70
  -3   9   7   19.60    2.80
   3   9  -7   20.30    2.30
   3   9   7    9.70    2.00
   3   9   7   20.00    3.10
  -3   9  -7   15.90    2.30
   3  -9  -7   18.10    2.70
   3  -9  -7   17.50    2.20
   0 -10  -7   48.80    3.60
   0 -10  -7   51.19    3.50
   0  10  -7   51.89    3.60
   0  10   7   48.90    3.50
   0  10  -7   56.49    3.30
  -1 -10  -7    1.80    1.10
   1  10  -7    2.60    1.00
  -1 -10  -7    1.70    1.00
  -1  10   7    2.80    1.10
   1  10  -7    3.40    1.30
   1  10   7    3.50    1.10
  -1  10  -7    1.90    0.90
   1 -10  -7    3.30    1.30
  -1  10  -7    1.60    1.00
   1 -10  -7    2.70    1.10
  -2 -10  -7   97.69    5.40
  -2 -10  -7  105.19    6.00
  -2  10   7  112.99    5.90
   2  10  -7   96.09    5.50
   2  10  -7   95.29    5.00
   2 -10  -7   95.29    5.10
   2  10   7  113.79    6.00
   2 -10  -7   96.39    5.70
  -2  10  -7   96.69    5.50
  -3  10   7    3.50    1.40
  -3 -10  -7    2.50    1.50
   3  10  -7    1.80    1.00
   3  10  -7    1.70    1.00
   3  10   7    2.70    1.20
   3  10   7    3.50    1.60
  -3  10  -7    3.10    1.30
   3 -10  -7    3.00    1.40
   3 -10  -7    5.50    1.30
   0  11  -7    6.90    1.60
   0  11  -7    5.80    1.20
   0 -11  -7    3.30    1.20
   0  11   7    4.90    1.30
   0 -11  -7    4.70    1.30
   1  11  -7   66.59    3.90
   1  11  -7   86.79    4.90
  -1 -11  -7   77.59    4.70
  -1  11   7   77.89    4.60
  -1 -11  -7   79.49    4.60
   1  11   7   75.79    4.50
   1 -11  -7   74.19    4.30
  -1  11  -7   66.79    4.00
  -1  11  -7   75.79    4.50
   1 -11  -7   71.29    4.60
   2  11  -7   70.09    4.10
   2  11  -7   82.39    4.80
  -2 -11  -7   74.39    5.50
  -2 -11  -7   83.79    5.10
  -2  11   7   75.09    4.80
  -2  11  -7   81.99    5.00
   2  11   7   80.49    5.10
   2 -11  -7   85.59    5.30
   2 -11  -7   94.49    4.80
  -3 -11  -7    2.00    1.30
   3  11  -7    2.60    1.20
   3  11  -7    2.90    1.00
  -3  11   7    2.90    1.30
   3 -11  -7    0.00    1.10
  -3  11  -7    3.80    1.30
   3  11   7    1.40    1.20
   3  11   7    2.10    1.20
   3 -11  -7    1.40    0.90
   0  12  -7   51.49    3.20
   0  12   7   49.60    3.50
   0 -12  -7   42.30    3.30
   0  12  -7   54.99    3.80
   0 -12  -7   53.69    3.70
  -1 -12  -7   43.90    3.30
  -1  12   7   42.00    3.20
  -1 -12  -7   43.20    3.40
   1  12  -7   42.30    2.80
   1  12  -7   43.50    3.40
   1 -12  -7   41.80    3.40
   1 -12  -7   43.50    3.10
   1  12   7   41.90    3.20
  -1  12  -7   41.40    3.40
   2  12  -7   89.49    4.60
   2  12  -7   93.49    5.20
  -2  12   7   78.99    5.00
  -2 -12  -7   81.69    5.20
   2 -12  -7   86.19    5.30
   2 -12  -7   80.19    4.60
  -2  12  -7   88.19    5.10
   2  12   7   85.29    5.20
  -3  12   7    8.00    1.90
   3  12  -7   10.70    1.70
  -3 -12  -7    8.80    2.20
   3  12  -7   12.90    2.20
  -3  12  -7    8.20    1.80
   3 -12  -7   10.40    2.10
   3  12   7    9.20    2.00
   3  12   7   10.20    2.20
   3 -12  -7    8.90    1.70
   0  13  -7   22.20    2.30
   0  13  -7   21.10    2.70
   0  13   7   23.40    2.30
   0 -13  -7   24.10    2.80
   0 -13  -7   24.30    2.80
   1  13  -7   78.99    4.70
  -1 -13  -7   69.59    4.50
  -1  13   7   73.19    4.40
  -1 -13  -7   78.69    4.70
   1  13  -7   68.29    3.90
   1 -13  -7   72.09    4.70
  -1  13  -7   73.89    4.70
   1 -13  -7   75.39    4.40
   1  13   7   75.19    4.40
   2  13  -7  134.79    6.40
  -2 -13  -7  143.19    7.40
   2  13  -7  144.69    7.10
  -2  13   7  143.99    7.20
   2  13   7  126.89    6.90
   2 -13  -7  144.49    6.60
  -2  13  -7  129.29    6.80
   2 -13  -7  149.29    7.40
   3  13  -7   24.30    2.90
  -3 -13  -7   31.10    3.70
   3  13  -7   30.30    2.90
  -3  13   7   27.30    3.00
   3 -13  -7   37.90    4.00
   3  13   7   27.50    3.30
   3  13   7   25.80    3.30
  -3  13  -7   29.60    3.20
   3 -13  -7   31.20    2.60
   0 -14  -7   83.39    4.80
   0  14   7   81.59    4.60
   0 -14  -7   79.09    5.00
   0  14  -7   90.09    5.10
  -1  14   7    8.90    1.70
   1  14  -7   11.90    1.60
   1  14  -7   11.40    2.00
  -1 -14  -7   10.90    1.90
  -1 -14  -7   11.10    2.20
  -1  14  -7    9.40    1.80
   1 -14  -7    9.80    1.70
   1 -14  -7   11.70    2.10
   1  14   7   11.30    1.80
  -2  14   7   31.60    2.90
   2  14  -7   28.50    3.10
   2  14  -7   30.80    2.50
  -2 -14  -7   35.60    3.70
  -2  14  -7   31.10    3.30
   2  14   7   31.50    2.90
   2 -14  -7   33.30    3.60
   2 -14  -7   34.70    2.80
   0  15  -7    3.90    1.20
   0 -15  -7    2.00    1.10
   0 -15  -7    2.00    1.10
   0  15   7    3.00    1.10
  -1 -15  -7   41.70    3.50
  -1  15   7   46.40    3.30
   1  15  -7   45.70    2.90
   1  15  -7   43.20    3.50
  -1 -15  -7   44.40    3.50
   1 -15  -7   55.49    4.00
  -1  15  -7   52.79    3.80
   1 -15  -7   49.10    3.50
   1  15   7   47.80    3.40
   2  15  -7   47.10    3.10
  -2 -15  -7   54.89    4.10
   2  15  -7   44.90    3.60
  -2  15   7   53.29    3.80
   2  15   7   45.80    3.50
   2 -15  -7   42.40    3.20
  -2  15  -7   50.69    3.80
   2 -15  -7   48.20    3.90
   0  16  -7    0.80    1.00
   0  16   7   -0.50    0.60
   0 -16  -7   -0.30    0.70
   0 -16  -7   -0.20    0.90
  -1  16   7   15.10    2.10
  -1 -16  -7   16.30    2.40
   1  16  -7   15.70    2.30
  -1 -16  -7   17.60    2.50
   1 -16  -7   18.90    2.70
   1  16   7   19.60    2.10
   1 -16  -7   15.00    2.20
  -1  16  -7   16.80    2.50
  -2  16   7   13.80    2.20
  -2 -16  -7   12.90    2.40
   2  16  -7   12.90    1.90
   2  16  -7   12.80    2.20
   2 -16  -7   13.20    1.90
   2  16   7   11.50    2.10
   2 -16  -7   11.10    2.10
  -2  16  -7   10.70    2.10
   0  17  -7    3.90    1.40
   0 -17  -7    0.40    1.10
   0  17   7    1.90    0.90
   0 -17  -7    3.80    1.50
  -1 -17  -7   28.30    3.20
  -1  17   7   25.50    2.40
  -1 -17  -7   32.70    3.40
   1  17  -7   23.60    2.80
   1  17   7   26.40    2.40
   1 -17  -7   33.20    2.70
   1 -17  -7   21.10    2.90
  -1  17  -7   24.60    3.00
   2  17  -7   21.70    2.80
  -2 -17  -7   27.80    3.60
  -2  17   7   21.80    2.80
   2  17  -7   23.40    2.40
   2 -17  -7   17.30    2.30
   2 -17  -7   21.90    3.00
  -2  17  -7   22.40    2.80
   2  17   7   20.80    2.60
   0  18  -7   86.99    5.10
   0 -18  -7   72.39    4.70
   0 -18  -7   77.09    5.00
   0  18   7   78.19    4.30
  -1 -18  -7    5.30    1.70
   1  18  -7   16.10    2.30
  -1 -18  -7   12.60    2.20
  -1  18   7   13.80    2.00
   1 -18  -7   11.90    2.20
   1 -18  -7   10.40    1.80
  -1  18  -7    6.30    1.70
   1  18   7   12.10    1.90
  -2  18   7   36.70    3.10
   2  18  -7   44.30    3.50
  -2 -18  -7   34.90    4.00
   2  18   7   34.60    3.00
   2 -18  -7   38.80    3.00
   2 -18  -7   39.50    4.20
  -2  18  -7   41.10    4.00
   0  19   7   64.79    3.80
   0 -19  -7   66.69    4.50
   0  19  -7   60.29    4.40
   0 -19  -7   58.29    4.10
  -1  19   7   12.60    1.90
  -1 -19  -7   12.00    2.20
   1  19  -7   15.00    2.30
  -1 -19  -7   13.70    2.40
   1  19   7   14.20    1.90
   1 -19  -7   16.50    2.60
  -1  19  -7   15.30    2.50
   1 -19  -7   14.90    2.30
   0 -20  -7    1.00    1.10
   0 -20  -7    1.10    1.00
   0  20  -7    2.00    1.20
   0  20   7    0.80    0.70
  -1  20   7   82.89    4.50
   1  20  -7   80.39    5.10
  -1 -20  -7   79.39    5.00
  -1 -20  -7   80.69    5.20
  -1  20  -7   76.89    5.10
   1 -20  -7   71.29    4.60
   1 -20  -7   80.79    5.30
   1  20   7   79.19    4.30
   0  21  -7   23.30    3.10
   0 -21  -7   17.40    2.70
   0  21   7   22.70    2.00
   0 -21  -7   19.70    2.70
   0   0  -8   30.70    3.40
   0   0  -8   35.80    3.00
   0   0   8   31.40    3.40
  -1   0   8   15.00    2.70
   1   0  -8   18.40    2.40
  -1   0  -8   19.20    2.70
   1   0  -8   20.40    2.80
   1   0   8   20.90    3.10
  -1   0  -8   17.90    2.50
   0   1  -8   64.69    4.40
   0  -1  -8   73.09    4.60
   0   1  -8   64.69    4.10
   0  -1   8   58.89    4.60
   0  -1  -8   63.09    4.10
   0   1   8   61.19    4.60
  -1   1   8   45.20    3.90
   1   1  -8   33.50    3.60
   1  -1   8   43.00    4.00
  -1  -1  -8   41.80    3.40
   1   1  -8   42.60    3.10
  -1  -1  -8   39.80    3.40
   1   1   8   40.30    3.80
  -1  -1   8   46.60    4.00
   1  -1  -8   36.50    3.90
  -1   1  -8   47.00    3.60
  -1   1  -8   39.90    3.30
   1  -1  -8   40.00    3.20
   0   2   8  151.78    8.20
   0  -2  -8  158.28    7.60
   0  -2   8  154.98    8.40
   0   2  -8  158.78    7.50
   0   2  -8  168.08    8.00
   0  -2  -8  164.18    8.00
   1   2  -8    4.10    1.20
   1  -2   8    5.60    1.70
  -1   2   8    6.00    1.80
  -1  -2  -8    3.60    1.40
   1   2  -8    8.20    1.90
  -1  -2  -8    6.90    1.70
   1  -2  -8    6.60    1.50
   1   2   8    8.80    2.00
  -1   2  -8    8.70    1.90
  -1  -2   8    7.10    1.90
  -1   2  -8    7.30    1.70
   1  -2  -8    6.60    1.70
   0  -3  -8  142.49    7.20
   0  -3  -8  128.39    6.70
   0   3  -8  132.29    6.60
   0   3   8  126.69    7.20
   0  -3   8  132.39    7.50
   0   3  -8  145.99    7.20
  -1  -3  -8   55.89    4.00
  -1  -3  -8   56.79    4.00
   1  -3   8   53.79    4.60
   1   3  -8   57.49    4.20
   1   3  -8   50.39    3.50
  -1   3   8   51.39    4.20
   1   3   8   66.49    4.80
   1  -3  -8   50.09    3.70
  -1   3  -8   64.79    4.30
  -1   3  -8   55.79    4.00
  -1  -3   8   60.19    4.70
   1  -3  -8   60.19    4.30
   0   4   8    1.40    1.10
   0   4  -8    1.40    1.10
   0  -4  -8    2.00    1.00
   0   4  -8    1.80    1.00
   0  -4  -8    2.20    1.20
   0  -4   8    1.00    1.10
   1   4  -8   22.10    2.90
  -1   4   8   21.50    3.00
   1  -4   8   18.10    3.10
  -1  -4  -8   15.10    2.30
   1   4  -8   16.80    2.20
  -1  -4  -8   19.00    2.80
  -1   4  -8   21.10    2.70
   1   4   8   17.90    2.80
   1  -4  -8   14.70    2.20
  -1   4  -8   16.00    2.40
   1  -4  -8   13.70    2.30
   0   5  -8   17.00    2.50
   0  -5  -8   21.10    2.90
   0  -5  -8   22.90    2.80
   0   5  -8   23.30    2.70
   0   5   8   19.50    2.90
  -1  -5  -8   23.20    3.00
   1   5  -8   23.00    2.60
   1   5  -8   20.90    2.80
   1  -5   8   19.10    3.20
  -1   5   8   21.10    3.00
  -1  -5  -8   19.60    2.70
  -1   5  -8   17.10    2.40
   1   5   8   20.60    2.90
  -1   5  -8   16.70    2.50
   1  -5  -8   20.00    2.80
   1  -5  -8   18.10    2.40
   0  -6  -8    0.20    1.10
   0   6   8    0.30    0.90
   0   6  -8    0.10    0.80
   0  -6  -8    1.10    1.00
   0   6  -8    1.60    1.20
   1   6  -8   34.00    2.70
  -1  -6  -8   26.00    3.10
  -1  -6  -8   32.90    3.40
   1   6  -8   27.20    3.30
  -1   6   8   30.30    3.20
   1  -6  -8   31.70    3.50
  -1   6  -8   32.90    3.40
   1   6   8   30.70    3.20
   1  -6  -8   33.80    3.30
  -1   6  -8   32.00    3.30
   0   7  -8   75.49    4.80
   0  -7  -8   73.59    4.80
   0   7   8   75.19    4.90
   0   7  -8   61.69    4.10
   0  -7  -8   70.19    4.50
  -1  -7  -8   43.40    3.60
  -1   7   8   45.30    3.80
   1   7  -8   43.10    3.20
   1   7  -8   44.70    3.70
  -1  -7  -8   49.30    3.80
  -1   7  -8   49.60    3.60
  -1   7  -8   42.20    3.60
   1   7   8   46.30    3.80
   1  -7  -8   42.80    3.30
   1  -7  -8   44.20    3.70
   0  -8  -8   27.30    3.10
   0  -8  -8   31.10    3.40
   0   8  -8   30.00    3.30
   0   8   8   33.00    3.10
   0   8  -8   26.50    2.90
   0   9   8   64.49    4.40
   0  -9  -8   61.09    4.20
   0  -9  -8   60.99    4.40
   0   9  -8   60.99    3.90
   0   9  -8   61.49    4.40
   0   0   0    0.00    0.00

_computing_structure_solution     'SHELXT 2014/5 (Sheldrick, 2014)'
;
_shelx_hkl_checksum              522
_olex2_submission_special_instructions 'No special instructions were received'
loop_
_space_group_symop_operation_xyz
'x, y, z'
'-x, -y, z'
'-x+1/2, y+1/2, -z'
'x+1/2, -y+1/2, -z'
loop_
_atom_site_label
_atom_site_type_symbol
_atom_site_fract_x
_atom_site_fract_y
_atom_site_fract_z
_atom_site_U_iso_or_equiv
_atom_site_adp_type
_atom_site_occupancy
_atom_site_site_symmetry_order
_atom_site_calc_flag
_atom_site_refinement_flags_posn
_atom_site_refinement_flags_adp
_atom_site_refinement_flags_occupancy
_atom_site_disorder_assembly
_atom_site_disorder_group
Cl1 Cl 1.33481(6) 0.71210(2) 0.91516(6) 0.01665(8) Uani 1 1 d . . . . .
O1 O 0.1775(2) 0.53200(4) 0.13391(18) 0.0195(2) Uani 1 1 d D . . . .
H1 H 0.063(7) 0.5115(13) 0.096(7) 0.029 Uiso 0.5 1 d D U P . .
C1 C 1.0898(2) 0.67891(4) 0.7712(2) 0.0130(2) Uani 1 1 d . . . . .
C2 C 0.9937(3) 0.69530(5) 0.5522(2) 0.0149(2) Uani 1 1 d . . . . .
H2 H 1.057687 0.724710 0.483057 0.018 Uiso 1 1 calc R U . . .
C3 C 0.8021(3) 0.66780(4) 0.4364(2) 0.0146(2) Uani 1 1 d . . . . .
H3 H 0.735435 0.678632 0.286478 0.018 Uiso 1 1 calc R U . . .
C4 C 0.7052(2) 0.62434(4) 0.5365(2) 0.0127(2) Uani 1 1 d . . . . .
C5 C 0.8060(3) 0.60922(4) 0.7585(2) 0.0145(2) Uani 1 1 d . . . . .
H5 H 0.741495 0.580052 0.829779 0.017 Uiso 1 1 calc R U . . .
C6 C 0.9982(3) 0.63609(4) 0.8758(2) 0.0143(2) Uani 1 1 d . . . . .
H6 H 1.066293 0.625384 1.025392 0.017 Uiso 1 1 calc R U . . .
C7 C 0.5113(3) 0.59529(4) 0.4054(2) 0.0145(2) Uani 1 1 d . . . . .
H7 H 0.490711 0.601680 0.239056 0.017 Uiso 1 1 calc R U . . .
C8 C 0.3602(3) 0.56027(5) 0.5025(2) 0.0146(2) Uani 1 1 d . . . . .
H8 H 0.373985 0.554723 0.670084 0.018 Uiso 1 1 calc R U . . .
C9 C 0.1766(3) 0.53027(4) 0.3669(2) 0.0141(2) Uani 1 1 d . . . . .
C10 C 0.000000 0.500000 0.4903(3) 0.0139(3) Uani 1 2 d S T P . .
H10 H -0.000004 0.500002 0.660574 0.017 Uiso 1 2 calc R U P . .
loop_
_atom_site_aniso_label
_atom_site_aniso_U_11
_atom_site_aniso_U_22
_atom_site_aniso_U_33
_atom_site_aniso_U_23
_atom_site_aniso_U_13
_atom_site_aniso_U_12
Cl1 0.01517(13) 0.01626(13) 0.01852(14) -0.00250(11) -0.00330(12) -0.00130(10)
O1 0.0249(5) 0.0195(4) 0.0140(4) 0.0009(3) -0.0004(4) -0.0068(4)
C1 0.0116(5) 0.0128(5) 0.0148(5) -0.0026(4) -0.0005(4) 0.0002(4)
C2 0.0147(5) 0.0144(5) 0.0156(5) 0.0012(4) -0.0015(5) -0.0016(4)
C3 0.0147(5) 0.0148(5) 0.0145(5) 0.0011(4) -0.0009(5) -0.0014(4)
C4 0.0118(5) 0.0130(5) 0.0133(5) -0.0005(4) 0.0006(4) -0.0001(4)
C5 0.0159(5) 0.0125(4) 0.0149(5) 0.0013(4) 0.0000(5) -0.0001(4)
C6 0.0155(5) 0.0141(5) 0.0133(5) 0.0002(4) -0.0006(5) 0.0009(4)
C7 0.0144(5) 0.0139(5) 0.0151(5) -0.0009(4) -0.0011(5) -0.0004(4)
C8 0.0140(5) 0.0144(5) 0.0155(5) -0.0007(4) -0.0006(5) -0.0008(4)
C9 0.0138(5) 0.0115(5) 0.0171(6) -0.0007(4) -0.0009(5) 0.0009(4)
C10 0.0151(7) 0.0129(7) 0.0136(7) 0.000 0.000 -0.0011(6)
loop_
_atom_type_symbol
_atom_type_description
_atom_type_scat_dispersion_real
_atom_type_scat_dispersion_imag
_atom_type_scat_source
C C 0.0033 0.0016 'International Tables Vol C Tables 4.2.6.8 and 6.1.1.4'
H H 0.0000 0.0000 'International Tables Vol C Tables 4.2.6.8 and 6.1.1.4'
Cl Cl 0.1484 0.1585 'International Tables Vol C Tables 4.2.6.8 and 6.1.1.4'
O O 0.0106 0.0060 'International Tables Vol C Tables 4.2.6.8 and 6.1.1.4'
loop_
_geom_angle_atom_site_label_1
_geom_angle_atom_site_label_2
_geom_angle_atom_site_label_3
_geom_angle
_geom_angle_site_symmetry_1
_geom_angle_site_symmetry_3
_geom_angle_publ_flag
C9 O1 H1 103(3) . . ?
C2 C1 Cl1 119.30(10) . . ?
C6 C1 Cl1 119.12(10) . . ?
C6 C1 C2 121.58(12) . . ?
C1 C2 H2 120.7 . . ?
C3 C2 C1 118.68(12) . . ?
C3 C2 H2 120.7 . . ?
C2 C3 H3 119.3 . . ?
C2 C3 C4 121.31(12) . . ?
C4 C3 H3 119.3 . . ?
C3 C4 C7 119.87(12) . . ?
C5 C4 C3 118.26(11) . . ?
C5 C4 C7 121.84(11) . . ?
C4 C5 H5 119.4 . . ?
C6 C5 C4 121.14(11) . . ?
C6 C5 H5 119.4 . . ?
C1 C6 H6 120.5 . . ?
C5 C6 C1 119.02(12) . . ?
C5 C6 H6 120.5 . . ?
C4 C7 H7 117.6 . . ?
C8 C7 C4 124.85(13) . . ?
C8 C7 H7 117.6 . . ?
C7 C8 H8 118.0 . . ?
C7 C8 C9 124.03(13) . . ?
C9 C8 H8 118.0 . . ?
O1 C9 C8 119.80(13) . . ?
O1 C9 C10 120.99(13) . . ?
C10 C9 C8 119.21(12) . . ?
C9 C10 C9 121.14(17) . 2_565 ?
C9 C10 H10 119.4 . . ?
C9 C10 H10 119.4 2_565 . ?
loop_
_geom_bond_atom_site_label_1
_geom_bond_atom_site_label_2
_geom_bond_distance
_geom_bond_site_symmetry_2
_geom_bond_publ_flag
Cl1 C1 1.7377(13) . ?
O1 H1 0.835(13) . ?
O1 C9 1.3006(16) . ?
C1 C2 1.3901(18) . ?
C1 C6 1.3893(18) . ?
C2 H2 0.9500 . ?
C2 C3 1.3894(18) . ?
C3 H3 0.9500 . ?
C3 C4 1.4031(17) . ?
C4 C5 1.4029(18) . ?
C4 C7 1.4622(17) . ?
C5 H5 0.9500 . ?
C5 C6 1.3863(18) . ?
C6 H6 0.9500 . ?
C7 H7 0.9500 . ?
C7 C8 1.3422(18) . ?
C8 H8 0.9500 . ?
C8 C9 1.4548(19) . ?
C9 C10 1.4019(16) . ?
C10 H10 0.9500 . ?
loop_
_geom_hbond_atom_site_label_D
_geom_hbond_atom_site_label_H
_geom_hbond_atom_site_label_A
_geom_hbond_distance_DH
_geom_hbond_distance_HA
_geom_hbond_distance_DA
_geom_hbond_angle_DHA
_geom_hbond_site_symmetry_A
_geom_hbond_publ_flag
O1 H1 O1 0.835(13) 1.720(19) 2.514(2) 158(4) 2_565 yes
loop_
_geom_torsion_atom_site_label_1
_geom_torsion_atom_site_label_2
_geom_torsion_atom_site_label_3
_geom_torsion_atom_site_label_4
_geom_torsion
_geom_torsion_site_symmetry_1
_geom_torsion_site_symmetry_2
_geom_torsion_site_symmetry_3
_geom_torsion_site_symmetry_4
_geom_torsion_publ_flag
Cl1 C1 C2 C3 178.53(10) . . . . ?
Cl1 C1 C6 C5 -178.87(10) . . . . ?
O1 C9 C10 C9 1.62(10) . . . 2_565 ?
C1 C2 C3 C4 0.2(2) . . . . ?
C2 C1 C6 C5 -0.1(2) . . . . ?
C2 C3 C4 C5 0.25(19) . . . . ?
C2 C3 C4 C7 -177.56(12) . . . . ?
C3 C4 C5 C6 -0.60(19) . . . . ?
C3 C4 C7 C8 -163.43(13) . . . . ?
C4 C5 C6 C1 0.5(2) . . . . ?
C4 C7 C8 C9 -177.17(12) . . . . ?
C5 C4 C7 C8 18.8(2) . . . . ?
C6 C1 C2 C3 -0.2(2) . . . . ?
C7 C4 C5 C6 177.16(12) . . . . ?
C7 C8 C9 O1 9.4(2) . . . . ?
C7 C8 C9 C10 -170.36(11) . . . . ?
C8 C9 C10 C9 -178.65(14) . . . 2_565 ?
