#------------------------------------------------------------------------------
#$Date: 2022-01-03 22:57:50 +0200 (Mon, 03 Jan 2022) $
#$Revision: 271737 $
#$URL: file:///home/coder/svn-repositories/cod/cif/4/51/92/4519241.cif $
#------------------------------------------------------------------------------
#
# This file is available in the Crystallography Open Database (COD),
# http://www.crystallography.net/
#
# All data on this site have been placed in the public domain by the
# contributors.
#
data_4519241
loop_
_publ_author_name
'Han, Xiao-Qing'
'Wang, Lei'
'Yang, Ping'
'Liu, Jing-Yuan'
'Xu, Wei-Yan'
'Zheng, Chao'
'Liang, Ren-Xiao'
'You, Shu-Li'
'Zhang, Junliang'
'Jia, Yi-Xia'
_publ_section_title
;
 Enantioselective Dearomative Mizoroki--Heck Reaction of Naphthalenes
;
_journal_name_full               'ACS Catalysis'
_journal_page_first              655
_journal_page_last               661
_journal_paper_doi               10.1021/acscatal.1c05008
_journal_year                    2021
_chemical_absolute_configuration ad
_chemical_formula_moiety         'C19 H15 N O3'
_chemical_formula_sum            'C19 H15 N O3'
_chemical_formula_weight         305.32
_space_group_crystal_system      triclinic
_space_group_IT_number           1
_space_group_name_Hall           'P 1'
_space_group_name_H-M_alt        'P 1'
_atom_sites_solution_hydrogens   geom
_atom_sites_solution_primary     dual
_audit_creation_date             2020-11-25
_audit_creation_method
;
Olex2 1.2
(compiled 2018.05.29 svn.r3508 for OlexSys, GUI svn.r5506)
;
_cell_angle_alpha                103.4520(10)
_cell_angle_beta                 90.191(2)
_cell_angle_gamma                108.1440(10)
_cell_formula_units_Z            2
_cell_length_a                   7.8207(4)
_cell_length_b                   8.7434(5)
_cell_length_c                   12.0792(7)
_cell_measurement_reflns_used    9843
_cell_measurement_temperature    170(2)
_cell_measurement_theta_max      68.33
_cell_measurement_theta_min      3.78
_cell_volume                     760.80(7)
_computing_cell_refinement       'SAINT V8.40B (Bruker Nano, Inc., 2019)'
_computing_data_collection       'Bruker Instrument Service vV6.2.14'
_computing_data_reduction        'SAINT V8.40B (Bruker Nano, Inc., 2019)'
_computing_molecular_graphics    'Olex2 (Dolomanov et al., 2009)'
_computing_publication_material  'Olex2 (Dolomanov et al., 2009)'
_computing_structure_refinement  'ShelXL (Sheldrick, 2015)'
_computing_structure_solution    'ShelXT (Sheldrick, 2015)'
_diffrn_ambient_temperature      170.0
_diffrn_measured_fraction_theta_full 0.987
_diffrn_measured_fraction_theta_max 0.986
_diffrn_measurement_device_type  'zju Bruker D8 Venture Ims3.0'
_diffrn_measurement_method       '\f and \w scans'
_diffrn_radiation_type           CuK\a
_diffrn_radiation_wavelength     1.54178
_diffrn_reflns_av_R_equivalents  0.0221
_diffrn_reflns_av_unetI/netI     0.0210
_diffrn_reflns_Laue_measured_fraction_full 0.987
_diffrn_reflns_Laue_measured_fraction_max 0.986
_diffrn_reflns_limit_h_max       9
_diffrn_reflns_limit_h_min       -9
_diffrn_reflns_limit_k_max       10
_diffrn_reflns_limit_k_min       -10
_diffrn_reflns_limit_l_max       14
_diffrn_reflns_limit_l_min       -14
_diffrn_reflns_number            16956
_diffrn_reflns_point_group_measured_fraction_full 0.948
_diffrn_reflns_point_group_measured_fraction_max 0.944
_diffrn_reflns_theta_full        67.679
_diffrn_reflns_theta_max         68.326
_diffrn_reflns_theta_min         3.775
_diffrn_standards_number         0
_exptl_absorpt_coefficient_mu    0.737
_exptl_absorpt_correction_T_max  0.7531
_exptl_absorpt_correction_T_min  0.6492
_exptl_absorpt_correction_type   multi-scan
_exptl_absorpt_process_details
;
SADABS-2016/2 (Bruker,2016/2) was used for absorption correction.
wR2(int) was 0.1408 before and 0.0413 after correction.
The Ratio of minimum to maximum transmission is 0.8620.
The \l/2 correction factor is Not present.
;
_exptl_crystal_colour            colourless
_exptl_crystal_colour_primary    colourless
_exptl_crystal_density_diffrn    1.333
_exptl_crystal_description       block
_exptl_crystal_F_000             320
_exptl_crystal_size_max          0.42
_exptl_crystal_size_mid          0.3
_exptl_crystal_size_min          0.23
_refine_diff_density_max         0.169
_refine_diff_density_min         -0.139
_refine_diff_density_rms         0.033
_refine_ls_abs_structure_details
;
 Flack x determined using 2492 quotients [(I+)-(I-)]/[(I+)+(I-)]
 (Parsons, Flack and Wagner, Acta Cryst. B69 (2013) 249-259).
;
_refine_ls_abs_structure_Flack   0.01(3)
_refine_ls_extinction_method     none
_refine_ls_goodness_of_fit_ref   1.070
_refine_ls_hydrogen_treatment    constr
_refine_ls_matrix_type           full
_refine_ls_number_parameters     419
_refine_ls_number_reflns         5297
_refine_ls_number_restraints     3
_refine_ls_restrained_S_all      1.070
_refine_ls_R_factor_all          0.0297
_refine_ls_R_factor_gt           0.0296
_refine_ls_shift/su_max          0.002
_refine_ls_shift/su_mean         0.000
_refine_ls_structure_factor_coef Fsqd
_refine_ls_weighting_details
'w=1/[\s^2^(Fo^2^)+(0.0522P)^2^+0.0899P] where P=(Fo^2^+2Fc^2^)/3'
_refine_ls_weighting_scheme      calc
_refine_ls_wR_factor_gt          0.0802
_refine_ls_wR_factor_ref         0.0804
_reflns_Friedel_coverage         0.914
_reflns_Friedel_fraction_full    0.909
_reflns_Friedel_fraction_max     0.902
_reflns_number_gt                5277
_reflns_number_total             5297
_reflns_threshold_expression     'I > 2\s(I)'
_cod_data_source_file            cs1c05008_si_003.cif
_cod_data_source_block           cu_201124_hxq_13_51_0m
_cod_database_code               4519241
_shelx_shelxl_version_number     2018/3
_shelx_space_group_comment
;
The symmetry employed for this shelxl refinement is uniquely defined
by the following loop, which should always be used as a source of
symmetry information in preference to the above space-group names.
They are only intended as comments.
;
_shelx_estimated_absorpt_t_max   0.849
_shelx_estimated_absorpt_t_min   0.747
_olex2_refinement_description
;
1. Fixed Uiso
 At 1.2 times of:
  All C(H) groups
 At 1.5 times of:
  All C(H,H,H) groups
2.a Aromatic/amide H refined with riding coordinates:
 C1(H1), C2(H2), C3(H3), C4(H4), C8(H8), C9(H9), C14(H14), C15(H15), C17(H17),
 C20(H20), C21(H21), C22(H22), C23(H23), C27(H27), C28(H28), C33(H33), C34(H34),
  C36(H36)
2.b Idealised Me refined as rotating group:
 C18(H18A,H18B,H18C), C19(H19A,H19B,H19C), C37(H37A,H37B,H37C), C38(H38A,H38B,
 H38C)
;
_shelx_res_file
;
TITL cu_201124_hxq_13_51_0m_a.res in P1
    cu_201124_hxq_13_51_0m.res
    created by SHELXL-2018/3 at 09:24:54 on 25-Nov-2020
REM Old TITL cu_201124_HXQ_13_51_0m in P1
REM SHELXT solution in P1: R1 0.096, Rweak 0.028, Alpha 0.000
REM <I/s> 0.000 for 0 systematic absences, Orientation as input
REM Flack x = 0.064 ( 0.032 ) from 2513 Parsons' quotients
REM Formula found by SHELXT: C38 N2 O6
CELL 1.54178 7.8207 8.7434 12.0792 103.452 90.191 108.144
ZERR 2 0.0004 0.0005 0.0007 0.001 0.002 0.001
LATT -1
SFAC C H N O
UNIT 38 30 2 6

L.S. 4 0 0
PLAN  20
SIZE 0.23 0.3 0.42
TEMP -103.15
BOND $h
htab
list 4
fmap 2 53
acta
REM <olex2.extras>
REM <HklSrc "%.\\cu_201124_HXQ_13_51_0m.hkl">
REM </olex2.extras>

WGHT    0.052200    0.089900
FVAR       2.25838
O1    4    0.358349    1.350239    1.611517    11.00000    0.06111    0.04734 =
         0.02462    0.00306    0.00397    0.02220
O2    4    0.210916    0.771802    1.023640    11.00000    0.05095    0.02042 =
         0.03562   -0.00140   -0.00468    0.01298
O3    4    0.107636    1.249511    0.851012    11.00000    0.05298    0.02993 =
         0.02280    0.00491   -0.00431    0.01694
N1    3    0.281851    0.949040    1.202827    11.00000    0.03941    0.01832 =
         0.02924    0.00309   -0.00529    0.00953
C1    1    0.673649    1.368712    1.494641    11.00000    0.04131    0.02852 =
         0.03169   -0.00015   -0.01061    0.01082
AFIX  43
H1    2    0.689761    1.417995    1.574425    11.00000   -1.20000
AFIX   0
C2    1    0.821913    1.377401    1.432559    11.00000    0.02937    0.02975 =
         0.05252    0.00592   -0.01135    0.00620
AFIX  43
H2    2    0.939948    1.430708    1.469685    11.00000   -1.20000
AFIX   0
C3    1    0.799124    1.308420    1.315895    11.00000    0.02872    0.03158 =
         0.05027    0.01399    0.00586    0.01240
AFIX  43
H3    2    0.901681    1.315418    1.272998    11.00000   -1.20000
AFIX   0
C4    1    0.627268    1.229206    1.261466    11.00000    0.03129    0.02879 =
         0.03137    0.00816    0.00370    0.01312
AFIX  43
H4    2    0.612413    1.184070    1.181174    11.00000   -1.20000
AFIX   0
C5    1    0.476032    1.215487    1.324100    11.00000    0.02921    0.01897 =
         0.02634    0.00624    0.00029    0.00989
C6    1    0.499598    1.288052    1.441390    11.00000    0.03378    0.02149 =
         0.02646    0.00572   -0.00261    0.01020
C7    1    0.341381    1.282071    1.509364    11.00000    0.04460    0.02597 =
         0.02299    0.00644    0.00166    0.01564
C8    1    0.161932    1.189582    1.449772    11.00000    0.03310    0.03401 =
         0.03346    0.01551    0.01039    0.01414
AFIX  43
H8    2    0.058379    1.184473    1.491494    11.00000   -1.20000
AFIX   0
C9    1    0.139595    1.112947    1.339658    11.00000    0.02651    0.02715 =
         0.03311    0.01117   -0.00011    0.00633
AFIX  43
H9    2    0.020417    1.049389    1.307580    11.00000   -1.20000
AFIX   0
C10   1    0.290933    1.120151    1.262163    11.00000    0.02962    0.01797 =
         0.02645    0.00417   -0.00107    0.00805
C11   1    0.232183    0.907489    1.088843    11.00000    0.03044    0.02317 =
         0.02835    0.00357   -0.00049    0.00804
C12   1    0.212358    1.058478    1.062538    11.00000    0.02498    0.02146 =
         0.02626    0.00272    0.00037    0.00725
C13   1    0.250243    1.184772    1.161617    11.00000    0.02335    0.02349 =
         0.02261    0.00404   -0.00120    0.00779
C14   1    0.243089    1.340297    1.158998    11.00000    0.02763    0.02174 =
         0.02365    0.00098   -0.00119    0.00779
AFIX  43
H14   2    0.269050    1.427229    1.226778    11.00000   -1.20000
AFIX   0
C15   1    0.197071    1.366858    1.055011    11.00000    0.03062    0.02081 =
         0.02746    0.00433   -0.00056    0.00974
AFIX  43
H15   2    0.193533    1.473207    1.051349    11.00000   -1.20000
AFIX   0
C16   1    0.156051    1.236899    0.955940    11.00000    0.02784    0.02632 =
         0.02509    0.00674    0.00021    0.00887
C17   1    0.164558    1.081161    0.959142    11.00000    0.02970    0.02315 =
         0.02324   -0.00074   -0.00104    0.00851
AFIX  43
H17   2    0.138158    0.993167    0.891964    11.00000   -1.20000
AFIX   0
C18   1    0.320636    0.836334    1.262680    11.00000    0.06104    0.02670 =
         0.03997    0.00978   -0.00844    0.01672
AFIX 137
H18A  2    0.233223    0.814905    1.319709    11.00000   -1.50000
H18B  2    0.442862    0.886356    1.300843    11.00000   -1.50000
H18C  2    0.312038    0.731559    1.207947    11.00000   -1.50000
AFIX   0
C19   1    0.083223    1.401883    0.842209    11.00000    0.05415    0.03217 =
         0.03155    0.01217   -0.00237    0.01751
AFIX 137
H19A  2    0.053262    1.395691    0.762100    11.00000   -1.50000
H19B  2    0.194906    1.493899    0.870774    11.00000   -1.50000
H19C  2   -0.015220    1.420433    0.887723    11.00000   -1.50000
AFIX   0

O4    4    0.265417    0.596481    0.439690    11.00000    0.04451    0.04115 =
         0.02606    0.00347   -0.00916    0.00044
O5    4    0.694254    1.227290    0.984887    11.00000    0.04793    0.01863 =
         0.02852   -0.00002   -0.00248    0.00967
O6    4    0.812369    0.746895    1.152642    11.00000    0.05488    0.02692 =
         0.02459    0.00226   -0.00768    0.01761
N2    3    0.563306    1.035786    0.817231    11.00000    0.04101    0.01790 =
         0.02537    0.00210   -0.00416    0.01125
C20   1    0.644828    0.735248    0.454779    11.00000    0.04961    0.02706 =
         0.02604    0.00452    0.00434    0.00798
AFIX  43
H20   2    0.586171    0.676699    0.381160    11.00000   -1.20000
AFIX   0
C21   1    0.830092    0.805561    0.467940    11.00000    0.04832    0.03598 =
         0.03674    0.01166    0.01558    0.01217
AFIX  43
H21   2    0.898963    0.794962    0.403631    11.00000   -1.20000
AFIX   0
C22   1    0.915671    0.891837    0.575350    11.00000    0.03375    0.03847 =
         0.04543    0.01753    0.00635    0.00938
AFIX  43
H22   2    1.043333    0.940291    0.584236    11.00000   -1.20000
AFIX   0
C23   1    0.817546    0.907832    0.668924    11.00000    0.03309    0.03173 =
         0.03113    0.00826   -0.00222    0.00712
AFIX  43
H23   2    0.877776    0.967508    0.741964    11.00000   -1.20000
AFIX   0
C24   1    0.629630    0.836930    0.657492    11.00000    0.03131    0.01941 =
         0.02475    0.00499   -0.00057    0.00890
C25   1    0.542923    0.749622    0.549080    11.00000    0.03607    0.01982 =
         0.02371    0.00585   -0.00076    0.00763
C26   1    0.343224    0.673148    0.533902    11.00000    0.03758    0.02163 =
         0.02546    0.00416   -0.00529    0.00587
C27   1    0.243419    0.691928    0.635602    11.00000    0.02736    0.02714 =
         0.03453    0.00622   -0.00286    0.00630
AFIX  43
H27   2    0.115773    0.643345    0.627696    11.00000   -1.20000
AFIX   0
C28   1    0.324953    0.774744    0.739064    11.00000    0.03165    0.02456 =
         0.02918    0.00508    0.00167    0.01153
AFIX  43
H28   2    0.252107    0.781624    0.801636    11.00000   -1.20000
AFIX   0
C29   1    0.525839    0.857949    0.762356    11.00000    0.03272    0.02004 =
         0.02437    0.00228   -0.00128    0.00892
C30   1    0.647084    1.085223    0.924702    11.00000    0.03174    0.02105 =
         0.02459    0.00265    0.00211    0.00820
C31   1    0.666182    0.933660    0.951016    11.00000    0.02732    0.02111 =
         0.02360    0.00272    0.00160    0.00759
C32   1    0.595504    0.800371    0.857562    11.00000    0.02933    0.02141 =
         0.02156    0.00321    0.00077    0.00772
C33   1    0.594863    0.643013    0.860671    11.00000    0.03604    0.01960 =
         0.02386   -0.00164   -0.00298    0.00819
AFIX  43
H33   2    0.546332    0.551411    0.796763    11.00000   -1.20000
AFIX   0
C34   1    0.666937    0.621689    0.959564    11.00000    0.03839    0.01986 =
         0.02614    0.00469    0.00044    0.01013
AFIX  43
H34   2    0.667429    0.514565    0.963497    11.00000   -1.20000
AFIX   0
C35   1    0.738602    0.757736    1.053110    11.00000    0.03253    0.02529 =
         0.02122    0.00406   -0.00090    0.01007
C36   1    0.739735    0.915515    1.049271    11.00000    0.03207    0.02313 =
         0.02130   -0.00020   -0.00094    0.00983
AFIX  43
H36   2    0.789605    1.008133    1.112337    11.00000   -1.20000
AFIX   0
C37   1    0.523006    1.148764    0.757671    11.00000    0.05142    0.02743 =
         0.03190    0.00830   -0.00309    0.01600
AFIX 137
H37A  2    0.564738    1.261858    0.806713    11.00000   -1.50000
H37B  2    0.392413    1.114861    0.739069    11.00000   -1.50000
H37C  2    0.584717    1.145690    0.687103    11.00000   -1.50000
AFIX   0
C38   1    0.818166    0.587298    1.158190    11.00000    0.07641    0.03052 =
         0.02975    0.00481   -0.01140    0.02413
AFIX 137
H38A  2    0.891470    0.549479    1.098972    11.00000   -1.50000
H38B  2    0.695330    0.508248    1.145921    11.00000   -1.50000
H38C  2    0.871679    0.594570    1.233486    11.00000   -1.50000
AFIX   0
HKLF 4




REM  cu_201124_hxq_13_51_0m_a.res in P1
REM wR2 = 0.0804, GooF = S = 1.070, Restrained GooF = 1.070 for all data
REM R1 = 0.0296 for 5277 Fo > 4sig(Fo) and 0.0297 for all 5297 data
REM 419 parameters refined using 3 restraints

END

WGHT      0.0522      0.0900

REM Instructions for potential hydrogen bonds
EQIV $1 x, y+1, z
HTAB C19 O2_$1
EQIV $2 x, y-1, z
HTAB C34 O5_$2

REM Highest difference peak  0.169,  deepest hole -0.139,  1-sigma level  0.033
Q1    1   0.6337  1.2376  0.7472  11.00000  0.05    0.17
Q2    1   0.2973  1.1364  1.1000  11.00000  0.05    0.17
Q3    1   0.3861  1.1726  1.2957  11.00000  0.05    0.16
Q4    1   0.7532  0.9367  0.9830  11.00000  0.05    0.16
Q5    1   0.2907  1.0435  1.2345  11.00000  0.05    0.15
Q6    1   0.6571  0.6791  1.0182  11.00000  0.05    0.15
Q7    1   0.2182  0.7244  1.2409  11.00000  0.05    0.15
Q8    1   0.4522  1.2260  0.8124  11.00000  0.05    0.14
Q9    1   0.6827  0.8808  0.8924  11.00000  0.05    0.14
Q10   1   0.5734  0.8397  0.7065  11.00000  0.05    0.14
Q11   1   0.4418  0.8161  0.7390  11.00000  0.05    0.14
Q12   1   0.5577  0.8195  0.7999  11.00000  0.05    0.14
Q13   1   0.3039  1.1793  1.2207  11.00000  0.05    0.13
Q14   1   0.4442  0.6793  0.5636  11.00000  0.05    0.13
Q15   1   0.5825  0.9554  0.7799  11.00000  0.05    0.13
Q16   1   0.1365  1.0587  1.0259  11.00000  0.05    0.13
Q17   1   0.9369  0.6585  1.2385  11.00000  0.05    0.12
Q18   1   0.6640  1.0766  0.8540  11.00000  0.05    0.12
Q19   1   0.2368  1.0854  1.0110  11.00000  0.05    0.12
Q20   1   0.1773  1.2090  1.3780  11.00000  0.05    0.12
;
_shelx_res_checksum              75634
_shelx_hkl_file
;
  -3   0   0 4703.93  128.79
   3   0   0 4529.35  128.39
   3   0   0 4922.11  130.79
   3   0   0 4554.34  130.29
   3   0   0 4766.92  128.99
  -4   0   0  488.35   16.80
  -4   0   0  505.65   15.00
  -4   0   0  478.55   14.60
   4   0   0  477.15   14.90
   4   0   0  512.05   15.50
   4   0   0  495.15   16.50
   4   0   0  510.45   14.90
   4   0   0  504.65   15.10
   4   0   0  484.25   15.20
   4   0   0  493.95   15.20
  -5   0   0  131.09    4.90
  -5   0   0  134.89    7.60
  -5   0   0  129.59    4.70
  -5   0   0  128.39    5.30
   5   0   0  136.79    5.40
   5   0   0  138.89   14.20
   5   0   0  134.39    5.80
   5   0   0  134.09    5.40
   5   0   0  130.79    5.70
  -6   0   0  388.36   12.80
  -6   0   0  403.56   12.00
  -6   0   0  404.56   12.20
  -6   0   0  402.26   12.80
  -6   0   0  407.76   14.20
   6   0   0  420.06   13.40
   6   0   0  408.06   14.10
   6   0   0  368.56   28.10
   6   0   0  405.46   14.00
  -7   0   0  311.87   10.00
  -7   0   0  309.07    9.10
  -7   0   0  303.37    9.20
   7   0   0  306.77   11.60
   7   0   0  249.08   24.10
  -8   0   0    1.30    0.30
  -8   0   0    2.20    0.70
   8   0   0    2.00    0.90
   8   0   0    1.00    2.40
   8   0   0    1.20    0.50
   9  -1   0   27.20    1.40
   9  -1   0   28.30    2.10
   9  -1   0   27.20    1.40
  -9   1   0   28.90    1.10
  -9   1   0   25.40    1.50
   8  -1   0   65.89    4.00
  -8   1   0   65.89    2.60
  -8   1   0   64.09    3.80
  -8   1   0   68.29    2.80
  -8   1   0   67.99    3.00
   7  -1   0   54.69   12.10
   7  -1   0   58.39    3.80
  -7   1   0   57.49    3.50
  -7   1   0   54.79    2.40
  -7   1   0   58.99    2.90
  -7   1   0   51.89    3.70
   6  -1   0  354.96   10.30
   6  -1   0  348.57   12.60
   6  -1   0  339.87   25.80
   6  -1   0  346.37   12.50
   6  -1   0  355.96   11.90
  -6   1   0  359.06   11.10
  -6   1   0  359.56   16.60
  -6   1   0  376.26   14.40
  -6   1   0  338.97   11.20
   5  -1   0  229.98    7.80
   5  -1   0  232.18   23.00
   5  -1   0  223.98    8.30
   5  -1   0  216.28    8.10
  -5   1   0  219.28   10.80
  -5   1   0  207.28    7.10
  -5   1   0  212.98    7.30
  -5   1   0  216.68    9.90
   4  -1   0  783.52   22.50
   4  -1   0  772.12   22.60
   4  -1   0  766.32   22.90
   4  -1   0  783.62   23.10
  -4   1   0  794.72   25.50
  -4   1   0  803.82   24.50
  -4   1   0  763.82   22.40
   3  -1   0 1183.68   33.20
   3  -1   0 1194.78   32.90
   3  -1   0 1194.78   32.80
   3  -1   0 1136.59   33.00
   3  -1   0 1166.28   32.30
  -3   1   0 1158.38   33.90
   2  -1   0 1861.71   53.39
   2  -1   0 1970.70   53.59
   2  -1   0 1924.51   53.29
  -2   1   0 1993.80   53.89
  -2  -1   0 4912.41  133.59
  -2  -1   0 4946.51  134.09
   2   1   0 4791.52  135.09
  -3  -1   0 4820.32  133.39
  -3  -1   0 4842.82  134.29
   3   1   0 4683.33  134.39
   3   1   0 4907.81  132.69
   3   1   0 4914.91  132.79
  -4  -1   0 1185.78   35.80
  -4  -1   0 1186.48   34.60
  -4  -1   0 1245.18   38.30
   4   1   0 1227.68   35.20
   4   1   0 1221.78   35.30
   4   1   0 1286.47   59.99
   4   1   0 1277.57   39.90
   4   1   0 1234.58   35.50
  -5  -1   0  468.35   14.40
  -5  -1   0  549.35   19.90
  -5  -1   0  466.15   14.30
  -5  -1   0  482.15   16.10
  -5  -1   0  480.95   15.00
   5   1   0  490.25   15.80
   5   1   0  500.05   15.60
   5   1   0  472.95   30.00
   5   1   0  482.75   15.50
   5   1   0  481.25   15.40
  -6  -1   0  144.49    4.90
  -6  -1   0  143.29    4.70
  -6  -1   0  143.39    5.10
  -6  -1   0  142.89    5.50
   6   1   0  123.89   16.10
   6   1   0  140.79    7.40
   6   1   0  142.29    7.00
  -7  -1   0   78.09    2.90
  -7  -1   0   76.29    2.80
  -7  -1   0   75.59    3.40
   7   1   0   79.69    5.00
   7   1   0   74.79    3.10
   7   1   0   64.79   11.80
  -8  -1   0  114.69    4.10
   8   1   0  112.49    5.70
   8   1   0  113.79    3.90
   9  -2   0   27.10    1.40
   9  -2   0   26.80    1.50
   9  -2   0   26.40    2.00
  -9   2   0   26.80    1.20
  -9   2   0   25.40    1.50
   8  -2   0    9.00    4.90
   8  -2   0   17.90    1.60
  -8   2   0   12.30    1.40
  -8   2   0   14.10    1.20
  -8   2   0   15.40    1.50
   7  -2   0  519.35   35.30
  -7   2   0  607.44   17.50
  -7   2   0  597.24   18.30
  -7   2   0  603.94   17.80
   6  -2   0  596.84   16.70
   6  -2   0  609.04   19.40
   6  -2   0  633.24   18.30
   6  -2   0  615.24   18.70
   6  -2   0  575.04   18.50
   6  -2   0  566.94   34.20
   6  -2   0  605.44   20.20
  -6   2   0  580.24   20.20
  -6   2   0  594.34   18.80
  -6   2   0  577.94   22.20
  -6   2   0  572.24   17.40
  -6   2   0  598.14   23.30
  -6   2   0  604.14   18.10
  -6   2   0  607.04   20.20
   5  -2   0  116.49   12.30
   5  -2   0  128.49    5.40
   5  -2   0  117.69    4.80
   5  -2   0  111.39    5.40
  -5   2   0  109.19    4.70
  -5   2   0  109.49    4.50
  -5   2   0  109.29    6.40
  -5   2   0  125.49    7.60
   4  -2   0   69.79    3.50
   4  -2   0   65.79    3.00
   4  -2   0   65.99    3.30
   4  -2   0   64.49    2.60
  -4   2   0   69.29    4.00
  -4   2   0   65.69    2.90
  -4   2   0   71.09    4.80
   3  -2   0   29.50    1.80
   3  -2   0   29.90    1.60
   3  -2   0   31.50    2.00
  -3   2   0   30.30    2.10
  -3   2   0   25.00    3.10
   2  -2   0 5746.12  151.48
   2  -2   0 5486.65  152.08
  -2   2   0 5439.36  151.98
  -1  -2   0  478.35   14.20
  -1  -2   0  499.35   14.60
  -1  -2   0  470.55   14.10
   1   2   0  494.55   13.90
   1   2   0  462.65   15.70
   1   2   0  473.75   14.40
  -2  -2   0  554.24   16.10
  -2  -2   0  560.14   16.90
  -2  -2   0  538.75   16.70
   2   2   0  509.95   16.20
   2   2   0  549.65   15.80
  -3  -2   0  556.34   18.20
  -3  -2   0  540.15   17.50
  -3  -2   0  564.84   16.30
   3   2   0  538.55   16.60
   3   2   0  577.84   16.60
   3   2   0  552.34   15.90
   3   2   0  532.65   16.30
  -4  -2   0  328.77   10.80
  -4  -2   0  331.57   10.20
  -4  -2   0  340.97   12.30
  -4  -2   0  361.26   13.80
   4   2   0  332.67   11.30
   4   2   0  350.46   11.10
   4   2   0  336.37   10.10
   4   2   0  323.57   11.00
   4   2   0  332.57   22.90
   4   2   0  335.47   10.20
  -5  -2   0   10.00    0.80
  -5  -2   0   10.60    1.30
  -5  -2   0   10.70    1.20
  -5  -2   0    8.10    1.90
  -5  -2   0    8.50    1.20
   5   2   0    9.00    4.70
   5   2   0    6.40    1.60
   5   2   0   10.70    1.90
   5   2   0    7.90    2.10
  -6  -2   0   23.70    2.80
  -6  -2   0   22.70    1.80
  -6  -2   0   24.10    1.30
   6   2   0   27.00    3.10
   6   2   0   18.40    8.10
   6   2   0   25.10    1.40
  -7  -2   0  111.49    3.60
  -7  -2   0  112.29    5.30
  -7  -2   0  106.49    4.10
   7   2   0  108.29    3.90
   7   2   0  109.09    6.20
  -8  -2   0  253.87    8.80
   8   2   0  270.27    8.10
   8   2   0  262.37   10.00
   9  -3   0    4.20    0.60
   9  -3   0    3.80    0.70
   9  -3   0    4.80    0.90
  -9   3   0    5.60    0.70
  -9   3   0    5.40    0.70
  -9   3   0    4.40    0.90
   8  -3   0   64.29    2.20
   8  -3   0   59.69    2.90
   8  -3   0   61.79    3.70
  -8   3   0   60.19    3.60
  -8   3   0   64.79    2.90
  -8   3   0   64.09    3.40
  -8   3   0   65.69    3.10
   7  -3   0  101.49   14.20
  -7   3   0  135.49    4.90
  -7   3   0  118.69    5.60
  -7   3   0  123.49    5.10
   6  -3   0  140.59    4.30
   6  -3   0  144.89    5.20
   6  -3   0  130.59   14.90
   6  -3   0  140.19    5.20
   6  -3   0  147.19    6.10
   6  -3   0  141.29    6.70
  -6   3   0  141.89    5.60
  -6   3   0  140.79    9.10
  -6   3   0  145.39    5.10
  -6   3   0  144.99    5.40
  -6   3   0  127.99    7.10
   5  -3   0  665.63   20.20
   5  -3   0  669.93   20.80
  -5   3   0  694.33   24.20
  -5   3   0  636.54   20.50
  -5   3   0  675.33   19.90
   4  -3   0  351.86   11.00
   4  -3   0  346.57   11.40
   4  -3   0  345.37   11.70
  -4   3   0  342.17   12.00
  -4   3   0  348.87   10.70
  -4   3   0  349.57   13.60
   3  -3   0  380.16   11.60
   3  -3   0  380.36   11.10
   3  -3   0  378.26   11.40
  -3   3   0  362.96   11.50
  -3   3   0  357.76   13.20
  -3   3   0  337.27   11.50
  -3   3   0  363.76   13.00
   2  -3   0  313.47    9.30
   2  -3   0  305.27    9.60
   2  -3   0  306.77    9.30
  -2   3   0  307.97   10.80
  -2   3   0  299.37   10.90
   1  -3   0  336.57   10.00
   1  -3   0  370.26   11.00
   1  -3   0  343.77   11.10
   1  -3   0  353.86   10.40
  -1   3   0  360.66   11.70
  -1   3   0  347.17   12.40
   0  -3   0   59.19    2.80
   0  -3   0   57.69    2.30
   0  -3   0   59.69    2.40
   0  -3   0   69.59    3.10
   0  -3   0   60.59    2.20
   0   3   0   56.09    2.50
   0   3   0   62.39    3.10
   0   3   0   50.69    3.90
  -1  -3   0  344.57   11.20
  -1  -3   0  350.46   11.60
  -1  -3   0  348.57   11.10
   1   3   0  353.76   11.60
   1   3   0  353.26   10.80
  -2  -3   0  883.81   26.10
  -2  -3   0  827.02   25.00
  -2  -3   0  841.22   25.70
   2   3   0  860.51   24.70
   2   3   0  841.22   24.00
   2   3   0  844.12   24.40
  -3  -3   0  449.46   14.10
  -3  -3   0  492.85   15.00
  -3  -3   0  461.25   16.10
  -3  -3   0  483.05   16.70
   3   3   0  477.55   30.50
   3   3   0  450.95   13.80
   3   3   0  475.35   13.80
   3   3   0  474.75   14.70
  -4  -3   0   44.80    3.60
  -4  -3   0   38.90    1.80
  -4  -3   0   46.70    2.40
  -4  -3   0   41.70    6.80
   4   3   0   40.50    3.00
   4   3   0   40.80    2.10
   4   3   0   39.30    3.40
   4   3   0   38.80    8.30
   4   3   0   40.80    2.10
   4   3   0   44.90    2.30
  -5  -3   0  695.03   22.40
  -5  -3   0  724.73   23.40
  -5  -3   0  712.73   20.80
  -5  -3   0  708.63   19.90
   5   3   0  712.13   24.50
   5   3   0  727.63   22.40
   5   3   0  710.53   22.50
   5   3   0  742.83   20.30
   5   3   0  601.74   38.70
  -6  -3   0  155.68    5.60
  -6  -3   0  161.78    8.90
  -6  -3   0  155.18    4.90
   6   3   0  154.18    8.30
  -7  -3   0  130.29    4.40
  -7  -3   0  127.99    5.20
   7   3   0  125.59    4.20
   9  -4   0   19.30    1.20
   9  -4   0   23.90    1.40
   9  -4   0   21.40    1.50
  -9   4   0   22.00    1.50
  -9   4   0   24.00    1.20
  -9   4   0   21.30    1.30
   8  -4   0   11.10    0.70
   8  -4   0   12.20    1.30
   8  -4   0   12.60    1.50
   8  -4   0   10.70    1.30
  -8   4   0   11.40    1.00
  -8   4   0   15.30    1.30
  -8   4   0   11.30    1.40
  -8   4   0   11.00    1.50
   7  -4   0  305.47    9.90
   7  -4   0  308.37   10.30
   7  -4   0  303.67    8.80
   7  -4   0  299.77    9.80
  -7   4   0  304.67   10.40
  -7   4   0  301.47    9.60
   6  -4   0  135.19    6.00
   6  -4   0  130.79    5.20
   6  -4   0  131.39    4.20
   6  -4   0  135.49    5.00
   6  -4   0  129.29    5.00
   6  -4   0  127.79    6.60
  -6   4   0  127.59    5.20
  -6   4   0  141.39    5.50
   5  -4   0 1073.29   31.60
   5  -4   0 1077.89   32.30
  -5   4   0 1024.40   30.90
  -5   4   0 1166.58   36.60
  -5   4   0 1073.59   31.10
  -5   4   0 1049.00   33.10
   4  -4   0  697.33   20.40
   4  -4   0  667.43   20.60
   4  -4   0  674.03   20.10
  -4   4   0  656.63   23.20
  -4   4   0  636.34   20.40
  -4   4   0  688.93   19.70
   3  -4   0 1963.70   53.69
   3  -4   0 1893.11   52.49
   3  -4   0 1902.41   53.49
   3  -4   0 1945.11   52.99
  -3   4   0 1821.82   56.69
  -3   4   0 1837.02   55.69
  -3   4   0 1883.61   52.49
   2  -4   0  284.07    9.30
   2  -4   0  272.27    9.00
   2  -4   0  244.58   10.00
  -2   4   0  257.67    7.90
  -2   4   0  268.67   10.30
   1  -4   0    9.10    1.40
   1  -4   0    9.90    1.40
   1  -4   0   10.50    1.00
   1  -4   0    9.80    1.00
  -1   4   0   12.80    1.80
  -1   4   0   14.30    1.30
  -1   4   0   12.70    0.90
   0  -4   0  356.26   12.20
   0  -4   0  353.16   10.90
   0  -4   0  361.36   11.90
   0   4   0  359.76   10.50
   0   4   0  362.26   12.40
   0   4   0  353.16   11.20
  -1  -4   0  502.05   15.20
  -1  -4   0  469.85   14.90
  -1  -4   0  490.25   15.70
   1   4   0  485.65   14.90
   1   4   0  480.75   16.00
  -2  -4   0  381.76   12.30
  -2  -4   0  370.06   13.10
  -2  -4   0  363.76   13.50
  -2  -4   0  353.36   11.10
  -2  -4   0  368.66   13.20
   2   4   0  362.66   11.90
   2   4   0  346.77   11.50
  -3  -4   0   18.50    2.70
  -3  -4   0   22.60    3.30
  -3  -4   0   16.20    3.60
  -3  -4   0   17.10    2.90
  -3  -4   0   18.20    1.40
   3   4   0   19.70    1.90
   3   4   0   16.90    1.30
   3   4   0   15.30    6.30
   3   4   0   16.90    1.40
  -4  -4   0  144.19    5.30
  -4  -4   0  139.19    6.30
  -4  -4   0  152.58    7.60
  -4  -4   0  139.09    4.50
  -4  -4   0  143.89    8.80
   4   4   0  148.79    5.10
   4   4   0  144.79    5.10
   4   4   0  140.39    6.60
  -5  -4   0   47.60    3.10
  -5  -4   0   42.20    1.70
  -5  -4   0   46.40    2.40
   5   4   0   46.90    2.20
   5   4   0   48.70    4.90
  -6  -4   0   44.10    2.70
   6   4   0   37.90    4.00
  -7  -4   0   16.20    1.20
   7   4   0   13.40    2.00
   9  -5   0   12.20    1.00
   9  -5   0   13.10    1.00
  -9   5   0   13.10    1.20
  -9   5   0   13.70    0.90
  -9   5   0   14.00    1.00
   8  -5   0  300.87    8.70
   8  -5   0  297.07    9.50
   8  -5   0  288.17    9.50
   8  -5   0  298.17    9.60
   8  -5   0  304.27    9.20
   8  -5   0  306.07    9.70
  -8   5   0  313.57   10.10
  -8   5   0  306.37    9.40
  -8   5   0  313.57   11.60
  -8   5   0  311.47   11.80
   7  -5   0  448.76   13.30
   7  -5   0  432.46   13.20
   7  -5   0  409.86   13.30
   7  -5   0  420.66   12.20
  -7   5   0  420.06   13.00
  -7   5   0  428.06   14.50
  -7   5   0  432.16   13.50
   6  -5   0   44.60    2.40
   6  -5   0   45.10    2.50
   6  -5   0   43.70    1.80
   6  -5   0   47.20    1.70
   6  -5   0   52.29    4.30
   6  -5   0   52.39    2.10
   6  -5   0   45.00    3.60
   6  -5   0   45.80    2.40
  -6   5   0   42.50    2.40
  -6   5   0   43.00    2.80
  -6   5   0   42.80    2.60
   5  -5   0  400.86   11.20
   5  -5   0  391.96   12.30
   5  -5   0  387.66   11.60
   5  -5   0  398.46   13.90
   5  -5   0  398.26   13.20
   5  -5   0  376.96   12.10
   5  -5   0  403.56   13.50
   5  -5   0  396.66   11.30
  -5   5   0  391.36   12.60
  -5   5   0  401.16   12.70
  -5   5   0  391.56   17.50
   4  -5   0 1287.07   37.80
   4  -5   0 1332.37   38.60
   4  -5   0 1307.67   38.60
  -4   5   0 1318.57   41.80
  -4   5   0 1313.57   37.40
   3  -5   0  143.29    6.00
   3  -5   0  159.78    5.40
   3  -5   0  149.09    5.80
   3  -5   0  157.18    6.70
  -3   5   0  163.98    8.40
  -3   5   0  154.18    5.40
   2  -5   0 1683.43   47.00
   2  -5   0 1673.13   48.00
   2  -5   0 1721.93   48.40
  -2   5   0 1639.14   49.80
  -2   5   0 1624.44   46.40
   1  -5   0   23.90    1.70
   1  -5   0   25.90    3.20
   1  -5   0   25.40    1.90
  -1   5   0   26.10    2.90
  -1   5   0   24.50    2.70
  -1   5   0   26.50    1.50
   0  -5   0  346.77   12.70
   0  -5   0  340.97   10.90
   0  -5   0  334.87   12.20
   0   5   0  334.97   10.50
   0   5   0  350.26   12.90
   0   5   0  348.97   11.40
  -1  -5   0  168.98    6.70
  -1  -5   0  160.18    7.40
   1   5   0  162.48    5.70
   1   5   0  167.18    6.70
   1   5   0  176.88    5.80
   1   5   0  160.68    6.30
  -2  -5   0 2070.39   59.79
  -2  -5   0 1926.91   56.59
  -2  -5   0 1946.31   57.89
  -2  -5   0 1982.40   57.59
   2   5   0 2066.89   55.79
   2   5   0 1975.60   55.59
   2   5   0 1912.71   56.39
   2   5   0 2022.70   57.09
   2   5   0 2061.79   55.79
  -3  -5   0   -0.30    2.00
  -3  -5   0    2.00    2.90
  -3  -5   0    1.00    0.70
   3   5   0    1.10    0.50
   3   5   0    2.70    1.50
   3   5   0    0.70    0.50
   3   5   0   -0.20    0.70
  -4  -5   0  185.58    7.50
   4   5   0  209.28   10.30
   4   5   0  188.08    6.40
   4   5   0  189.28    6.50
  -5  -5   0  114.09    4.90
   5   5   0  102.29    7.40
   5   5   0  114.19    3.90
  -6  -5   0    2.60    0.60
   6   5   0    3.00    1.80
  -9   6   0   15.30    0.90
  -9   6   0   15.80    1.00
   8  -6   0    5.90    0.90
   8  -6   0    5.50    0.50
   8  -6   0    5.40    0.90
   8  -6   0    3.30    0.80
  -8   6   0    6.90    0.80
  -8   6   0    9.20    1.30
  -8   6   0    5.80    1.30
  -8   6   0    5.90    0.90
   7  -6   0  147.39    4.50
   7  -6   0  151.18    5.50
   7  -6   0  147.79    5.20
   7  -6   0  147.49    5.50
   7  -6   0  144.89    5.50
  -7   6   0  147.89    5.30
  -7   6   0  147.39    6.00
  -7   6   0  151.28    5.70
   6  -6   0  191.78    6.70
   6  -6   0  196.28    6.90
   6  -6   0  196.98    6.30
   6  -6   0  197.28    6.00
   6  -6   0  198.88    5.90
   6  -6   0  198.98    6.90
  -6   6   0  197.58    7.30
  -6   6   0  197.68    7.50
  -6   6   0  191.98    6.90
   5  -6   0  295.67   10.60
   5  -6   0  302.37    9.50
   5  -6   0  295.67    9.50
   5  -6   0  295.97    9.00
   5  -6   0  291.27   11.60
   5  -6   0  298.37    8.50
   5  -6   0  299.37    8.70
  -5   6   0  294.47   10.10
  -5   6   0  278.77    9.60
  -5   6   0  287.57    9.90
   4  -6   0  482.45   13.50
   4  -6   0  477.15   13.40
   4  -6   0  446.36   14.30
   4  -6   0  501.95   16.90
   4  -6   0  475.45   13.90
   4  -6   0  465.05   14.30
   4  -6   0  457.55   15.10
   4  -6   0  466.65   13.60
  -4   6   0  498.65   14.80
  -4   6   0  463.05   14.70
   3  -6   0  210.98    7.80
   3  -6   0  220.88    9.20
   3  -6   0  221.18    7.20
  -3   6   0  209.78    7.30
  -3   6   0  215.88    7.30
  -3   6   0  221.98   11.00
  -3   6   0  198.98   10.70
   2  -6   0 1720.73   49.90
   2  -6   0 1710.13   52.19
   2  -6   0 1723.53   50.59
   2  -6   0 1845.52   52.69
  -2   6   0 1773.32   54.29
  -2   6   0 1785.62   50.09
  -2   6   0 1810.32   51.39
  -2   6   0 1987.50   55.29
  -2   6   0 1738.83   50.09
   1  -6   0  701.53   23.40
   1  -6   0  707.73   20.70
   1  -6   0  737.63   23.50
  -1   6   0  699.83   20.90
  -1   6   0  712.83   24.30
  -1   6   0  713.23   20.90
  -1   6   0  726.73   22.20
   0  -6   0 1431.96   43.80
   0  -6   0 1356.26   41.20
   0  -6   0 1442.76   40.60
   0  -6   0 1479.45   44.50
   0   6   0 1511.35   41.00
   0   6   0 1460.75   41.00
   0   6   0 1448.66   44.50
   0   6   0 1469.55   42.40
  -1  -6   0  334.17   13.40
  -1  -6   0  362.76   10.30
  -1  -6   0  343.47   14.20
  -1  -6   0  348.77   10.10
  -1  -6   0  342.77   10.90
  -1  -6   0  354.36   11.60
  -1  -6   0  340.57   10.00
  -1  -6   0  343.57   11.40
  -1  -6   0  357.36   14.70
   1   6   0  357.26   11.00
   1   6   0  368.36   11.10
   1   6   0  321.37   11.80
  -2  -6   0  208.68   11.30
  -2  -6   0  194.18    7.50
   2   6   0  196.58    6.90
   2   6   0  209.78    7.10
   2   6   0  203.68    7.10
  -3  -6   0  328.37   11.60
   3   6   0  342.77   11.00
   3   6   0  341.47   10.90
   3   6   0  336.37   10.80
   3   6   0  388.46   15.80
  -4  -6   0  249.78    8.60
   4   6   0  246.48   11.70
   4   6   0  243.38    7.80
  -5  -6   0   11.60    1.10
  -5  -6   0   13.10    0.90
   8  -7   0  170.98    5.10
   8  -7   0  172.48    5.80
  -8   7   0  179.78    5.60
  -8   7   0  180.88    6.70
  -8   7   0  179.28    6.00
   7  -7   0   50.99    2.60
   7  -7   0   56.29    2.70
   7  -7   0   55.59    1.90
  -7   7   0   52.99    2.50
  -7   7   0   55.79    3.10
   6  -7   0  167.88    4.90
   6  -7   0  160.68    5.90
   6  -7   0  159.48    5.30
   6  -7   0  170.48    5.90
   6  -7   0  157.78    5.30
   6  -7   0  163.98    5.00
  -6   7   0  165.68    6.60
  -6   7   0  161.98    6.30
  -6   7   0  153.78    5.80
   5  -7   0  870.01   24.70
   5  -7   0  859.61   24.40
   5  -7   0  836.62   25.00
   5  -7   0  900.51   25.40
   5  -7   0  879.91   25.20
   5  -7   0  894.11   24.30
  -5   7   0  874.61   26.20
  -5   7   0  867.01   27.00
  -5   7   0  870.61   25.50
   4  -7   0   66.59    4.20
   4  -7   0   67.29    2.80
   4  -7   0   70.69    2.40
   4  -7   0   70.89    7.40
   4  -7   0   73.49    3.10
   4  -7   0   69.49    2.60
   4  -7   0   67.19    3.10
   4  -7   0   70.69    2.50
  -4   7   0   67.69    3.40
  -4   7   0   70.29    3.60
  -4   7   0   67.79    3.50
   3  -7   0  892.71   25.30
   3  -7   0  921.11   26.20
   3  -7   0  882.31   26.00
   3  -7   0  910.31   25.20
   3  -7   0  863.01   26.90
   3  -7   0  913.01   25.10
   3  -7   0  919.91   25.80
   3  -7   0  929.91   29.50
  -3   7   0  929.91   26.60
  -3   7   0  878.91   31.90
  -3   7   0  917.51   26.60
  -3   7   0  865.41   26.30
   2  -7   0  492.15   14.80
   2  -7   0  487.15   14.20
   2  -7   0  492.15   14.30
   2  -7   0  475.95   15.00
   2  -7   0  497.45   18.20
   2  -7   0  504.25   14.10
   2  -7   0  499.35   18.10
   2  -7   0  502.45   15.00
  -2   7   0  497.95   15.30
  -2   7   0  484.55   15.20
  -2   7   0  501.05   15.40
  -2   7   0  521.95   20.40
   1  -7   0  152.98    8.40
   1  -7   0  156.48    5.50
   1  -7   0  154.08    5.50
   1  -7   0  148.89    5.70
   1  -7   0  152.88    4.70
   1  -7   0  155.28    4.90
   1  -7   0  144.69    8.80
  -1   7   0  154.58    5.80
  -1   7   0  149.79    5.70
  -1   7   0  170.78    9.80
  -1   7   0  154.08    5.90
   0  -7   0 1104.39   31.20
   0  -7   0 1095.39   30.40
   0  -7   0 1074.69   34.90
   0  -7   0 1060.29   31.60
   0  -7   0 1103.19   35.90
   0  -7   0 1054.99   31.00
   0  -7   0 1089.59   30.30
   0   7   0 1066.49   33.40
   0   7   0 1121.19   31.70
   0   7   0 1124.99   31.50
   0   7   0 1132.89   31.70
  -1  -7   0  114.49    5.00
  -1  -7   0  120.89    3.90
  -1  -7   0  122.49    4.60
  -1  -7   0  121.59    3.80
   1   7   0  123.39    4.80
   1   7   0  131.19    6.10
  -2  -7   0 1292.97   37.40
  -2  -7   0 1243.48   38.00
   2   7   0 1515.65   44.30
   2   7   0 1302.17   37.60
   2   7   0 1285.17   37.80
   2   7   0 1313.67   37.70
  -3  -7   0   60.29    3.00
  -3  -7   0   64.49    2.70
   3   7   0   58.19    2.60
   3   7   0   63.39    5.50
   3   7   0   59.79    2.70
  -4  -7   0  880.41   25.30
  -4  -7   0  924.41   24.80
   4   7   0  794.32   29.20
   4   7   0  932.31   24.80
   7  -8   0   14.70    1.20
   7  -8   0   15.70    1.20
   7  -8   0   15.80    0.80
  -7   8   0   15.60    1.10
  -7   8   0   14.80    1.30
  -7   8   0   14.40    1.50
   6  -8   0  507.75   14.30
   6  -8   0  507.75   15.20
   6  -8   0  496.15   14.50
   6  -8   0  508.95   15.20
   6  -8   0  507.45   14.30
  -6   8   0  500.45   15.10
  -6   8   0  515.95   16.00
  -6   8   0  520.65   16.40
   5  -8   0  617.34   18.40
   5  -8   0  598.04   18.20
   5  -8   0  637.34   17.50
   5  -8   0  613.24   17.30
   5  -8   0  609.74   17.70
  -5   8   0  636.84   19.00
  -5   8   0  626.14   19.20
   4  -8   0   95.29    4.00
   4  -8   0  101.79    3.70
   4  -8   0  101.69    3.50
   4  -8   0   98.69    3.90
   4  -8   0  101.99    3.30
   4  -8   0  101.59    3.70
   4  -8   0  106.49    3.40
  -4   8   0  103.49    4.60
  -4   8   0  104.19    4.80
  -4   8   0  100.39    4.30
   3  -8   0  300.57    9.10
   3  -8   0  296.47    8.60
   3  -8   0  290.77    8.60
   3  -8   0  288.27    9.00
   3  -8   0  296.37    8.40
   3  -8   0  278.17    9.00
   3  -8   0  287.57    9.30
  -3   8   0  283.07    9.50
  -3   8   0  299.07   10.10
  -3   8   0  293.77    9.90
  -3   8   0  265.17   14.30
   2  -8   0    8.10    0.70
   2  -8   0    8.20    0.70
   2  -8   0    6.90    1.10
   2  -8   0    6.30    0.90
   2  -8   0    8.80    0.60
   2  -8   0    6.50    0.90
  -2   8   0   10.00    1.40
  -2   8   0    9.30    1.30
  -2   8   0    6.40    1.10
  -2   8   0    7.80    2.80
   1  -8   0  150.08    4.80
   1  -8   0  142.09    5.40
   1  -8   0  137.39    5.20
   1  -8   0  149.99    4.50
   1  -8   0  142.89    4.60
   1  -8   0  145.29    5.20
  -1   8   0  158.78    6.40
  -1   8   0  148.69    5.60
  -1   8   0  145.99    9.70
  -1   8   0  149.88    5.80
   0  -8   0   85.99    3.50
   0  -8   0   80.39    3.20
   0  -8   0   85.19    2.90
   0  -8   0   88.09    3.10
   0  -8   0   84.59    3.70
   0   8   0   87.89    3.80
   0   8   0   89.29    4.10
   0   8   0   89.99    4.00
   0   8   0   90.89    7.30
  -1  -8   0   53.49    2.40
  -1  -8   0   52.29    1.90
  -1  -8   0   57.29    2.70
   1   8   0   53.49    2.70
   1   8   0   51.99    3.00
   1   8   0   54.49    2.80
   1   8   0   52.89    5.40
  -2  -8   0  315.87   10.00
  -2  -8   0  333.87    9.90
   2   8   0  312.77   14.20
   2   8   0  327.77    9.90
   2   8   0  311.07    9.80
  -3  -8   0    8.20    0.80
  -3  -8   0    7.20    0.70
   3   8   0    7.00    0.70
   3   8   0    7.90    2.00
   6  -9   0   22.80    1.20
   6  -9   0   23.50    1.40
   6  -9   0   24.20    1.00
  -6   9   0   23.80    1.60
  -6   9   0   23.40    1.40
   5  -9   0   73.09    2.40
   5  -9   0   73.99    2.50
   5  -9   0   68.99    3.00
   5  -9   0   72.99    2.60
  -5   9   0   75.59    3.70
  -5   9   0   71.79    3.00
  -5   9   0   74.59    3.40
   4  -9   0   32.60    1.40
   4  -9   0   32.30    1.50
   4  -9   0   33.10    1.80
   4  -9   0   30.90    1.20
  -4   9   0   28.60    3.40
  -4   9   0   32.90    2.20
  -4   9   0   31.40    1.90
   3  -9   0   24.40    1.60
   3  -9   0   22.40    1.00
   3  -9   0   25.60    1.20
   3  -9   0   23.30    1.20
   3  -9   0   28.10    1.40
  -3   9   0   22.20    1.70
  -3   9   0   23.60    2.10
  -3   9   0   20.40    4.70
   2  -9   0   50.99    2.30
   2  -9   0   53.19    1.90
   2  -9   0   49.30    2.00
   2  -9   0   48.30    2.00
   2  -9   0   49.00    1.70
   2  -9   0   51.59    2.10
  -2   9   0   50.29    2.60
  -2   9   0   46.30    5.40
  -2   9   0   51.69    3.00
   1  -9   0   67.69    2.30
   1  -9   0   70.69    2.80
   1  -9   0   69.09    2.60
   1  -9   0   71.99    2.50
   1  -9   0   69.09    2.70
   1  -9   0   66.49    2.30
  -1   9   0   67.89    3.40
  -1   9   0   68.59    3.30
  -1   9   0   67.99    6.30
  -1   9   0   68.79    3.10
   0  -9   0   16.70    0.80
   0  -9   0   18.00    1.10
   0  -9   0   18.20    1.00
   0  -9   0   18.70    1.20
   0   9   0   19.50    1.80
   0   9   0   18.50    1.50
   0   9   0   19.50    1.40
   0   9   0   16.50    3.20
  -1  -9   0   79.59    2.60
  -1  -9   0   78.29    2.80
  -1  -9   0   79.69    2.70
   1   9   0   71.99    6.40
   1   9   0   73.19    2.90
   1   9   0   70.19    2.90
   4 -10   0    0.40    0.30
   4 -10   0    1.50    0.30
  -4  10   0    1.10    0.40
  -4  10   0    1.30    0.60
   3 -10   0   21.60    0.90
   3 -10   0   21.40    0.90
   3 -10   0   21.10    1.00
  -3  10   0   23.00    1.60
  -3  10   0   22.60    1.40
   2 -10   0  164.88    4.70
   2 -10   0  157.08    4.70
   2 -10   0  164.78    4.80
  -2  10   0  170.78    5.40
  -2  10   0  164.68    5.60
  -2  10   0  138.49    8.80
  -1  10  -1  159.88    5.10
  -1  10  -1  153.78    5.20
  -1  10  -1  142.69    8.50
   1 -10   1  159.38    4.60
  -2  10  -1   72.19    2.90
  -2  10  -1   63.99    5.70
  -2  10  -1   68.69    3.00
   2 -10   1   70.69    2.30
  -3  10  -1  764.22   21.90
   3 -10   1  765.12   21.70
   3 -10   1  767.02   21.20
  -4  10  -1   47.30    2.30
  -4  10  -1   43.30    2.10
   4 -10   1   45.30    1.60
   4 -10   1   43.80    1.50
   4 -10   1   45.90    2.00
  -5  10  -1   88.89    3.20
  -5  10  -1   86.89    3.40
   5 -10   1   90.39    3.20
   1   9  -1   77.59    3.00
   1   9  -1   72.79    6.10
  -1  -9   1   79.89    3.60
   0   9  -1    6.40    0.90
   0   9  -1    8.70    2.60
   0   9  -1    6.80    1.30
   0   9  -1    7.50    1.10
   0  -9   1    6.20    0.70
   0  -9   1    7.20    0.60
   0  -9   1    6.60    0.80
  -1   9  -1   29.00    2.10
  -1   9  -1   27.70    1.80
  -1   9  -1   33.50    4.80
   1  -9   1   29.10    1.50
   1  -9   1   27.50    1.70
   1  -9   1   27.10    1.80
   1  -9   1   33.10    1.20
   1  -9   1   26.40    1.30
   1  -9   1   27.90    1.20
  -2   9  -1  135.39    5.70
  -2   9  -1  135.39    5.20
  -2   9  -1  143.29    5.50
   2  -9   1  134.29    4.10
   2  -9   1  136.69    4.50
   2  -9   1  134.99    4.40
   2  -9   1  137.09    4.90
   2  -9   1  133.69    4.30
   2  -9   1  134.39    4.90
   2  -9   1  143.59    4.90
  -3   9  -1   23.30    1.90
  -3   9  -1   19.40    4.40
  -3   9  -1   20.50    1.60
   3  -9   1   22.40    1.50
   3  -9   1   22.80    1.40
   3  -9   1   20.40    0.90
   3  -9   1   20.40    1.10
   3  -9   1   21.80    1.20
  -4   9  -1  116.59    4.60
  -4   9  -1  116.39    5.10
   4  -9   1  119.79    3.70
   4  -9   1  123.59    4.50
   4  -9   1  121.89    4.00
   4  -9   1  118.09    3.90
   4  -9   1  122.99    3.90
   4  -9   1  121.99    4.30
  -5   9  -1  223.08    7.30
  -5   9  -1  226.78    7.80
  -5   9  -1  226.48    8.00
   5  -9   1  216.08    6.40
   5  -9   1  219.58    7.20
   5  -9   1  224.98    6.50
   5  -9   1  216.18    6.70
   5  -9   1  223.68    7.10
  -6   9  -1   56.39    2.70
  -6   9  -1   55.39    2.40
  -6   9  -1   53.29    2.90
   6  -9   1   51.39    2.30
   6  -9   1   50.99    1.80
   6  -9   1   53.99    2.40
  -7   9  -1   38.50    2.30
  -7   9  -1   37.00    1.80
  -7   9  -1   37.70    1.60
   7  -9   1   37.90    1.70
   7  -9   1   35.10    1.70
   7  -9   1   34.20    1.20
   3   8  -1   83.09    6.00
   3   8  -1   93.19    3.10
  -3  -8   1   94.09    3.00
  -3  -8   1   87.39    3.40
   2   8  -1   69.89    3.00
   2   8  -1   77.49    3.10
   2   8  -1   71.69    6.20
  -2  -8   1   73.89    2.90
  -2  -8   1   72.39    3.30
   1   8  -1    8.40    2.60
   1   8  -1    8.50    1.30
   1   8  -1    8.30    1.10
  -1  -8   1    6.60    0.90
   0   8  -1  248.18    8.30
   0   8  -1  251.87    8.50
   0   8  -1  248.08   13.40
   0   8  -1  244.78    8.60
   0  -8   1  243.18    7.20
   0  -8   1  238.88    7.90
   0  -8   1  236.18    8.40
   0  -8   1  244.38    7.80
  -1   8  -1  482.45   14.90
  -1   8  -1  474.15   15.00
  -1   8  -1  473.25   20.70
  -1   8  -1  472.55   14.60
   1  -8   1  475.75   13.70
   1  -8   1  464.75   13.30
   1  -8   1  470.15   14.60
   1  -8   1  465.85   13.50
   1  -8   1  478.65   14.00
   1  -8   1  459.15   14.20
  -2   8  -1   11.30    1.50
  -2   8  -1   10.80    1.30
  -2   8  -1   10.10    1.40
  -2   8  -1   10.60    3.40
   2  -8   1   10.90    0.90
   2  -8   1   10.10    0.70
   2  -8   1   10.30    0.80
   2  -8   1   11.70    1.20
   2  -8   1   11.60    1.20
  -3   8  -1  485.15   15.20
  -3   8  -1  484.85   14.90
  -3   8  -1  445.06   20.80
  -3   8  -1  491.65   15.40
   3  -8   1  462.05   13.80
   3  -8   1  480.75   13.70
   3  -8   1  487.35   13.50
   3  -8   1  488.55   14.10
   3  -8   1  481.45   14.60
   3  -8   1  483.05   14.70
  -4   8  -1  742.83   22.50
  -4   8  -1  727.83   25.90
  -4   8  -1  727.93   21.90
   4  -8   1  762.42   21.70
   4  -8   1  732.73   20.70
   4  -8   1  741.63   21.70
   4  -8   1  749.62   20.90
   4  -8   1  745.43   21.10
   4  -8   1  741.23   20.90
  -5   8  -1   47.70    2.90
  -5   8  -1   42.80    2.40
  -5   8  -1   43.70    2.90
   5  -8   1   43.20    1.90
   5  -8   1   43.70    1.80
   5  -8   1   45.20    1.70
   5  -8   1   44.90    2.20
   5  -8   1   41.60    2.30
   5  -8   1   43.00    2.30
  -6   8  -1  718.03   21.20
  -6   8  -1  737.43   22.10
  -6   8  -1  746.63   21.80
   6  -8   1  731.33   21.10
   6  -8   1  738.73   20.30
   6  -8   1  721.63   20.30
   6  -8   1  711.73   20.50
   6  -8   1  737.03   21.20
   6  -8   1  700.13   20.40
  -7   8  -1   58.29    3.00
  -7   8  -1   54.09    2.60
  -7   8  -1   54.39    2.40
   7  -8   1   51.79    1.80
   7  -8   1   55.19    2.50
   7  -8   1   51.99    2.40
  -8   8  -1   54.99    2.70
  -8   8  -1   51.19    2.00
  -8   8  -1   52.89    2.20
   8  -8   1   51.99    2.20
   8  -8   1   49.40    2.50
   4   7  -1  555.74   15.40
   4   7  -1  514.15   19.40
  -4  -7   1  542.65   16.30
  -4  -7   1  553.64   15.50
   3   7  -1   60.09    2.70
   3   7  -1   58.69    5.70
  -3  -7   1   59.59    2.60
  -3  -7   1   61.49    3.20
   2   7  -1  614.24   23.30
   2   7  -1  581.24   17.50
   2   7  -1  582.34   17.40
   2   7  -1  562.04   17.60
  -2  -7   1  569.94   18.00
  -2  -7   1  588.24   17.20
   1   7  -1  339.07   11.00
   1   7  -1  354.46   11.20
   1   7  -1  361.86   11.40
   1   7  -1  372.66   16.40
  -1  -7   1  336.97   11.50
  -1  -7   1  334.37   10.70
  -1  -7   1  331.77   11.50
   0   7  -1  583.24   17.80
   0   7  -1  578.14   19.20
   0   7  -1  649.24   23.90
   0   7  -1  607.04   18.10
   0   7  -1  617.44   18.10
   0  -7   1  586.64   17.50
   0  -7   1  585.14   16.70
   0  -7   1  605.14   26.10
   0  -7   1  582.64   17.50
   0  -7   1  573.94   18.10
   0  -7   1  557.14   21.80
   0  -7   1  586.44   16.60
  -1   7  -1  517.35   15.80
  -1   7  -1  519.15   15.80
  -1   7  -1  502.75   15.60
  -1   7  -1  546.25   21.20
   1  -7   1  502.85   15.70
   1  -7   1  501.85   18.70
   1  -7   1  515.65   14.40
   1  -7   1  501.95   15.10
   1  -7   1  507.45   18.50
   1  -7   1  498.45   14.50
   1  -7   1  499.05   15.30
  -2   7  -1  146.49    9.40
  -2   7  -1  147.89    5.70
  -2   7  -1  137.79    5.60
  -2   7  -1  136.79    5.50
   2  -7   1  141.59    7.70
   2  -7   1  142.09    8.10
   2  -7   1  148.99    4.60
   2  -7   1  147.49    5.20
   2  -7   1  149.88    4.70
   2  -7   1  145.09    4.40
   2  -7   1  150.28    5.30
   2  -7   1  137.99    5.40
  -3   7  -1 1763.92   50.89
  -3   7  -1 1756.02   57.49
  -3   7  -1 1880.41   51.39
  -3   7  -1 1820.72   51.19
   3  -7   1 1789.12   49.80
   3  -7   1 1791.02   50.19
   3  -7   1 1753.32   51.39
   3  -7   1 1780.22   50.69
   3  -7   1 1784.12   49.90
   3  -7   1 1847.92   50.89
   3  -7   1 1871.11   53.99
   3  -7   1 1822.02   49.60
  -4   7  -1  297.97   10.30
  -4   7  -1  303.27   10.50
  -4   7  -1  299.27    9.90
   4  -7   1  305.57    8.90
   4  -7   1  301.47    9.20
   4  -7   1  299.17    8.70
   4  -7   1  289.97   10.60
   4  -7   1  307.27    8.90
   4  -7   1  310.97    9.90
   4  -7   1  303.67    9.80
   4  -7   1  297.47   12.30
  -5   7  -1  536.55   17.10
  -5   7  -1  523.95   16.90
   5  -7   1  526.35   16.50
   5  -7   1  558.54   16.60
   5  -7   1  550.74   15.30
  -6   7  -1   39.90    2.30
  -6   7  -1   45.80    2.90
  -6   7  -1   44.70    2.70
   6  -7   1   42.00    1.60
   6  -7   1   43.50    1.70
   6  -7   1   39.70    1.80
   6  -7   1   41.00    2.20
   6  -7   1   43.40    2.30
   6  -7   1   42.60    2.30
  -7   7  -1  161.08    6.20
  -7   7  -1  159.08    5.80
  -7   7  -1  153.58    5.40
   7  -7   1  149.49    5.10
   7  -7   1  150.18    4.60
   7  -7   1  149.29    5.40
   7  -7   1  148.29    5.50
  -8   7  -1  380.56   10.90
  -8   7  -1  378.96   11.20
  -8   7  -1  384.96   12.10
   8  -7   1  359.96   10.90
   8  -7   1  352.16   10.20
   8  -7   1  344.67   11.90
   5   6  -1  141.49    8.10
  -5  -6   1  171.08    5.20
  -5  -6   1  173.78    6.00
   4   6  -1  171.58   10.20
   4   6  -1  169.18    5.50
   4   6  -1  152.58    9.70
  -4  -6   1  163.08    6.40
   3   6  -1  761.32   26.60
   3   6  -1  690.13   20.90
   3   6  -1  708.53   20.90
  -3  -6   1  704.03   21.90
   2   6  -1  744.53   20.80
   2   6  -1  748.13   21.00
   2   6  -1  739.83   20.90
  -2  -6   1  695.63   21.60
  -2  -6   1  651.03   23.10
  -2  -6   1  668.33   22.60
  -2  -6   1  679.23   20.40
   1   6  -1  478.15   14.50
   1   6  -1  486.75   14.60
   1   6  -1  466.85   15.60
  -1  -6   1  455.85   14.20
  -1  -6   1  480.05   14.20
  -1  -6   1  457.65   16.70
  -1  -6   1  484.05   18.00
  -1  -6   1  480.75   15.60
   0   6  -1 1455.95   45.60
   0   6  -1 1477.45   42.00
   0   6  -1 1517.25   42.10
   0   6  -1 1517.65   43.20
   0  -6   1 1511.05   45.30
   0  -6   1 1450.85   41.70
   0  -6   1 1472.55   44.40
  -1   6  -1  345.97   11.10
  -1   6  -1  404.06   15.60
  -1   6  -1  352.66   11.10
  -1   6  -1  333.97   14.10
  -1   6  -1  359.16   12.10
   1  -6   1  342.57   10.80
   1  -6   1  354.36   13.10
   1  -6   1  351.16   13.30
  -2   6  -1  834.12   24.00
  -2   6  -1  804.62   23.90
  -2   6  -1  830.12   28.50
  -2   6  -1  823.02   27.80
  -2   6  -1  831.32   24.90
   2  -6   1  838.62   23.70
   2  -6   1  804.32   24.10
   2  -6   1  802.92   25.60
   2  -6   1  824.52   26.00
  -3   6  -1   18.90    1.60
  -3   6  -1   19.20    3.80
  -3   6  -1   15.80    1.50
  -3   6  -1   15.50    4.00
   3  -6   1   18.70    1.80
   3  -6   1   18.30    2.60
  -4   6  -1  337.17   15.50
  -4   6  -1  353.76   11.20
  -4   6  -1  326.57   11.00
   4  -6   1  342.47    9.60
   4  -6   1  339.07    9.80
   4  -6   1  330.27    9.90
   4  -6   1  322.37   10.70
   4  -6   1  328.17   11.30
   4  -6   1  344.37   10.70
  -5   6  -1   24.80    2.10
  -5   6  -1   23.30    2.00
   5  -6   1   24.30    1.20
   5  -6   1   24.40    1.70
   5  -6   1   24.90    1.80
   5  -6   1   28.60    1.50
   5  -6   1   25.30    3.50
   5  -6   1   28.20    2.60
  -6   6  -1    9.10    1.30
  -6   6  -1    9.30    1.60
   6  -6   1    8.50    0.70
   6  -6   1    7.90    1.30
  -7   6  -1   43.10    2.80
  -7   6  -1   39.00    2.10
  -7   6  -1   43.10    2.50
   7  -6   1   39.60    2.20
   7  -6   1   39.40    1.50
   7  -6   1   36.00    2.60
   7  -6   1   40.60    2.30
   7  -6   1   41.60    2.30
  -8   6  -1  236.08    8.40
  -8   6  -1  230.18    7.20
  -8   6  -1  229.78    7.80
  -8   6  -1  229.68    7.50
   8  -6   1  225.38    7.60
   8  -6   1  210.58    6.90
   8  -6   1  213.78    7.10
   8  -6   1  225.78    7.40
   8  -6   1  223.18    7.40
  -9   6  -1   80.99    2.70
  -9   6  -1   79.29    3.20
   9  -6   1   74.89    2.80
   9  -6   1   77.99    3.60
   6   5  -1  101.39    6.10
  -6  -5   1  114.39    4.40
   5   5  -1  137.89    4.50
   5   5  -1  129.29    8.20
  -5  -5   1  136.19    5.60
   4   5  -1  365.36   17.00
   4   5  -1  441.56   17.20
   4   5  -1  404.16   12.30
  -4  -5   1  412.26   13.60
   3   5  -1  196.68    6.60
   3   5  -1  199.08    6.70
   3   5  -1  199.58    8.20
  -3  -5   1  185.38    7.50
  -3  -5   1  184.68   10.00
  -3  -5   1  203.38    8.70
  -3  -5   1  187.28    5.90
  -3  -5   1  197.38    6.50
   2   5  -1  119.59    4.50
   2   5  -1  114.39    5.50
   2   5  -1  112.59    5.20
   2   5  -1  114.89    5.10
   2   5  -1  114.29    4.40
  -2  -5   1  112.79    5.60
  -2  -5   1  112.49    7.80
  -2  -5   1  127.19    6.20
  -2  -5   1  113.29    4.20
   1   5  -1   68.19    3.70
   1   5  -1   75.49    3.70
   1   5  -1   74.29    3.10
  -1  -5   1   72.89    4.90
  -1  -5   1   68.19    3.80
  -1  -5   1   70.99    2.90
  -1  -5   1   70.99    4.30
   0   5  -1  606.44   19.20
   0   5  -1  610.24   17.30
   0   5  -1  595.94   17.30
   0   5  -1  552.34   19.70
   0  -5   1  597.04   19.00
   0  -5   1  602.94   19.40
   0  -5   1  579.94   17.50
  -1   5  -1  599.34   18.00
  -1   5  -1  609.04   17.30
  -1   5  -1  576.14   19.90
   1  -5   1  597.84   17.30
   1  -5   1  593.84   19.00
   1  -5   1  592.94   19.00
   1  -5   1  597.44   17.50
  -2   5  -1 7247.38  196.68
  -2   5  -1 7021.30  200.08
   2  -5   1 7318.97  198.08
   2  -5   1 7099.39  196.98
   2  -5   1 7250.47  198.38
  -3   5  -1  908.81   30.10
  -3   5  -1  913.11   26.50
   3  -5   1  930.91   26.80
   3  -5   1  938.11   27.90
   3  -5   1  908.71   26.90
   3  -5   1  941.41   26.30
  -4   5  -1  696.13   25.20
  -4   5  -1  762.02   21.40
  -4   5  -1  695.13   21.20
   4  -5   1  711.03   21.50
   4  -5   1  724.53   22.30
   4  -5   1  701.43   22.10
   4  -5   1  737.43   20.90
  -5   5  -1  836.42   29.60
  -5   5  -1  829.92   24.50
  -5   5  -1  834.22   24.70
   5  -5   1  842.62   27.70
   5  -5   1  828.02   23.00
   5  -5   1  830.72   24.00
   5  -5   1  831.12   24.90
   5  -5   1  820.82   25.30
   5  -5   1  798.52   24.30
  -6   5  -1  170.18    6.20
  -6   5  -1  184.68    6.70
  -6   5  -1  186.28    7.00
   6  -5   1  177.98    6.60
   6  -5   1  168.98    6.20
   6  -5   1  182.88    8.20
   6  -5   1  179.48    5.40
   6  -5   1  176.18    7.40
   6  -5   1  181.98    6.20
  -7   5  -1  328.67   11.90
  -7   5  -1  327.67   10.70
  -7   5  -1  324.47   10.20
  -7   5  -1  338.77   11.20
   7  -5   1  322.07   10.40
   7  -5   1  322.87   10.30
   7  -5   1  324.07   10.70
   7  -5   1  310.27    9.30
  -8   5  -1   17.70    1.70
  -8   5  -1   17.20    1.20
   8  -5   1   15.90    1.30
   8  -5   1   15.60    1.40
   8  -5   1   16.10    1.40
   8  -5   1   14.80    0.80
  -9   5  -1   54.09    2.60
  -9   5  -1   53.69    2.00
  -9   5  -1   52.69    2.10
   9  -5   1   49.60    2.10
   7   4  -1    3.50    1.20
  -7  -4   1    4.90    0.80
   6   4  -1    6.80    2.00
  -6  -4   1   12.00    1.40
  -6  -4   1    9.80    0.70
   5   4  -1   52.89    5.10
   5   4  -1   54.49    2.40
  -5  -4   1   56.79    3.50
  -5  -4   1   52.19    2.10
  -5  -4   1   57.19    2.70
   4   4  -1   34.70    2.00
   4   4  -1   40.20    4.30
   4   4  -1   39.30    4.90
   4   4  -1   42.90    2.40
   4   4  -1   34.80    3.20
  -4  -4   1   40.00    4.00
  -4  -4   1   33.60    1.60
  -4  -4   1   34.90    2.00
  -4  -4   1   33.80    5.10
  -4  -4   1   32.90    2.80
  -4  -4   1   34.90    2.00
   3   4  -1   70.79    3.00
   3   4  -1   70.39    4.10
   3   4  -1   70.89    4.00
   3   4  -1   70.89    3.10
   3   4  -1   67.49    3.90
  -3  -4   1   68.29    4.80
  -3  -4   1   82.79    3.10
  -3  -4   1   73.69    5.70
  -3  -4   1   71.59    5.40
  -3  -4   1   74.59    3.20
   2   4  -1 2660.43   74.09
   2   4  -1 2738.73   73.29
   2   4  -1 2679.73   73.29
  -2  -4   1 2644.24   74.69
  -2  -4   1 2674.63   75.89
  -2  -4   1 2514.45   75.19
   1   4  -1  445.36   14.10
   1   4  -1  472.45   14.10
   1   4  -1  476.45   13.60
  -1  -4   1  442.06   14.60
  -1  -4   1  475.05   15.40
  -1  -4   1  452.25   14.30
   0   4  -1  853.61   25.20
   0   4  -1  811.62   23.50
   0  -4   1  784.72   22.90
   0  -4   1  837.22   24.60
   0  -4   1  777.42   24.10
  -2   4  -1  827.92   25.70
  -2   4  -1  823.82   23.10
   2  -4   1  813.32   24.20
   2  -4   1  839.52   23.90
   2  -4   1  779.82   23.70
   2  -4   1  810.72   23.30
  -3   4  -1 4392.16  131.59
  -3   4  -1 4586.94  126.19
  -3   4  -1 4556.04  129.19
   3  -4   1 4611.24  126.99
   3  -4   1 4596.44  126.39
   3  -4   1 4501.95  125.99
   3  -4   1 4705.93  126.59
   3  -4   1 4820.42  127.19
  -4   4  -1  174.28    6.10
  -4   4  -1  175.58    8.80
   4  -4   1  167.98    5.80
   4  -4   1  173.28    6.20
   4  -4   1  163.98    6.60
   4  -4   1  178.98    6.60
  -5   4  -1  413.36   12.80
  -5   4  -1  400.86   13.00
  -5   4  -1  406.56   15.10
  -5   4  -1  408.36   17.00
   5  -4   1  406.36   13.20
   5  -4   1  419.46   13.90
   5  -4   1  416.86   13.30
  -6   4  -1   84.39    3.60
  -6   4  -1   88.29    3.90
  -6   4  -1   90.69    4.20
   6  -4   1   82.79    5.10
   6  -4   1   87.69    4.50
   6  -4   1   81.49   11.50
   6  -4   1   89.49    4.10
   6  -4   1   87.19    3.60
  -7   4  -1  856.21   24.70
  -7   4  -1  847.12   25.50
   7  -4   1  881.01   25.70
   7  -4   1  827.32   23.80
   7  -4   1  830.62   24.80
   7  -4   1  900.41   25.00
  -8   4  -1  176.68    6.90
  -8   4  -1  178.88    5.80
  -8   4  -1  179.28    6.40
  -8   4  -1  177.98    6.10
   8  -4   1  175.58    7.10
   8  -4   1  173.28    6.10
   8  -4   1  166.28    5.20
  -9   4  -1   16.40    1.40
  -9   4  -1   15.90    0.90
  -9   4  -1   15.80    1.00
   9  -4   1   14.10    1.30
   9  -4   1   14.40    1.10
   9  -4   1   13.20    0.90
   7   3  -1   71.09    2.80
   7   3  -1   70.99    4.90
  -7  -3   1   81.69    3.80
  -7  -3   1   73.09    2.60
   6   3  -1  109.19    6.70
  -6  -3   1  103.49    4.10
  -6  -3   1  108.79    5.60
  -6  -3   1  104.99    3.60
   5   3  -1  114.69    7.00
   5   3  -1  121.59    4.20
   5   3  -1  116.49    7.80
   5   3  -1  124.69    7.50
  -5  -3   1  120.59    4.00
  -5  -3   1  117.09    4.20
  -5  -3   1  110.19    5.80
  -5  -3   1  125.19    4.70
  -5  -3   1  125.49    7.00
   4   3  -1  253.77    9.20
   4   3  -1  227.28   20.60
   4   3  -1  261.37    9.00
   4   3  -1  268.37   11.00
  -4  -3   1  249.88    8.30
  -4  -3   1  255.47    8.00
  -4  -3   1  251.27   10.70
  -4  -3   1  257.77   12.50
  -4  -3   1  256.47    8.20
  -4  -3   1  253.97    7.80
   3   3  -1  388.46   11.60
   3   3  -1  382.66   12.50
   3   3  -1  393.96   12.70
   3   3  -1  415.96   12.50
  -3  -3   1  392.46   12.40
  -3  -3   1  389.96   14.10
  -3  -3   1  393.26   13.80
  -3  -3   1  371.06   11.50
   2   3  -1  809.82   22.90
   2   3  -1  796.62   23.50
   2   3  -1  802.82   23.40
  -2  -3   1  817.62   24.50
  -2  -3   1  810.32   23.70
  -2  -3   1  826.52   24.70
   1   3  -1  332.77   11.50
   1   3  -1  342.87   10.40
  -1  -3   1  338.37   11.20
  -1  -3   1  343.07   10.70
  -1  -3   1  346.17   10.80
   0   3  -1  841.22   27.20
   0   3  -1  838.42   25.80
   0   3  -1  901.01   24.70
   0  -3   1  911.81   25.30
   0  -3   1  908.11   24.50
   0  -3   1  862.11   24.50
   0  -3   1  851.31   26.10
  -2   3  -1 1372.36   43.30
  -2   3  -1 1433.66   42.20
   2  -3   1 1454.95   40.50
   2  -3   1 1498.35   42.30
   2  -3   1 1511.95   40.70
   2  -3   1 1486.85   40.70
   2  -3   1 1423.76   41.40
  -3   3  -1 3659.43   98.69
  -3   3  -1 3507.55   97.69
  -3   3  -1 3497.05  100.89
  -3   3  -1 3556.34  100.19
   3  -3   1 3728.03   99.09
   3  -3   1 3435.06   98.09
   3  -3   1 3494.15   98.09
   3  -3   1 3477.25   97.59
   3  -3   1 3614.94   97.79
  -4   3  -1  861.81   26.80
  -4   3  -1  795.92   23.50
  -4   3  -1  829.02   25.20
   4  -3   1  803.32   23.60
   4  -3   1  793.92   23.50
   4  -3   1  787.42   24.00
  -5   3  -1  251.27   11.80
  -5   3  -1  245.08    8.40
  -5   3  -1  241.88   10.70
  -5   3  -1  247.78    8.20
   5  -3   1  246.98    8.50
   5  -3   1  244.88    9.00
   5  -3   1  254.87   17.80
  -6   3  -1   24.60    1.80
  -6   3  -1   21.10    1.60
  -6   3  -1   24.90    2.40
  -6   3  -1   23.60    1.90
  -6   3  -1   30.40    5.70
   6  -3   1   25.50    1.80
   6  -3   1   26.20    2.40
   6  -3   1   25.60    1.20
   6  -3   1   26.70    6.60
   6  -3   1   23.60    3.00
  -7   3  -1  908.11   26.30
  -7   3  -1  899.61   26.70
  -7   3  -1  910.01   27.40
  -7   3  -1  961.80   26.80
   7  -3   1  945.21   27.90
   7  -3   1  798.52   44.50
  -8   3  -1  356.06   12.20
  -8   3  -1  367.56   11.30
  -8   3  -1  359.56   11.90
  -8   3  -1  369.16   11.10
   8  -3   1  332.67   14.80
   8  -3   1  364.16   11.10
  -9   3  -1    1.90    0.60
  -9   3  -1    1.40    0.60
  -9   3  -1    1.40    0.40
   9  -3   1    1.00    0.40
   9  -3   1    0.90    2.60
   9  -3   1    1.70    0.70
   8   2  -1   11.20    1.80
   8   2  -1   10.90    0.80
   7   2  -1   85.69    3.30
   7   2  -1   82.59    5.30
  -7  -2   1   82.39    3.30
  -7  -2   1   82.49    2.90
   6   2  -1  562.04   19.70
   6   2  -1  558.04   16.40
  -6  -2   1  560.34   16.50
  -6  -2   1  552.34   16.00
  -6  -2   1  567.94   16.40
  -6  -2   1  522.25   17.60
   5   2  -1  365.06   28.20
   5   2  -1  423.06   12.20
   5   2  -1  414.66   14.00
   5   2  -1  424.66   13.70
   5   2  -1  418.86   13.90
   5   2  -1  412.06   14.00
   5   2  -1  419.36   15.40
  -5  -2   1  409.86   12.10
  -5  -2   1  409.56   12.90
  -5  -2   1  411.36   12.50
  -5  -2   1  417.96   12.40
   4   2  -1  375.06   11.70
   4   2  -1  377.06   12.20
   4   2  -1  340.57   24.30
  -4  -2   1  395.76   14.40
  -4  -2   1  348.07   10.90
  -4  -2   1  361.76   11.30
  -4  -2   1  364.16   13.00
  -4  -2   1  367.46   11.20
   3   2  -1  251.97    8.50
   3   2  -1  251.97    8.50
   3   2  -1  264.37    8.30
  -3  -2   1  265.47    9.80
  -3  -2   1  243.18    7.70
  -3  -2   1  268.77    8.00
  -3  -2   1  245.48    9.10
   2   2  -1 2007.40   58.79
   2   2  -1 1917.71   57.09
   2   2  -1 2095.09   56.39
  -2  -2   1 2114.89   57.39
  -2  -2   1 2034.30   57.19
  -2  -2   1 2049.40   56.49
  -2   2  -1  928.71   26.40
  -2   2  -1  962.20   29.30
  -2   2  -1  913.51   25.30
  -2   2  -1  844.42   26.30
  -2   2  -1  924.51   27.10
   2  -2   1  936.71   25.70
   2  -2   1  911.11   25.90
   2  -2   1  939.91   26.70
   2  -2   1  954.60   25.70
   2  -2   1  882.61   26.80
  -3   2  -1  465.45   15.20
  -3   2  -1  448.46   15.10
  -3   2  -1  452.15   13.10
  -3   2  -1  447.56   14.50
   3  -2   1  483.85   14.00
   3  -2   1  461.25   13.90
   3  -2   1  460.55   13.40
   3  -2   1  437.26   13.60
  -4   2  -1 2744.23   79.59
  -4   2  -1 2863.11   81.69
  -4   2  -1 3015.20   82.69
   4  -2   1 2839.82   79.29
   4  -2   1 2809.22   79.69
   4  -2   1 3060.09   80.39
   4  -2   1 2821.62   79.99
  -5   2  -1  313.07   11.30
  -5   2  -1  319.47   13.20
  -5   2  -1  325.17   13.70
  -5   2  -1  322.57   10.70
  -5   2  -1  344.07   10.60
  -5   2  -1  318.37   10.30
   5  -2   1  333.07   11.20
   5  -2   1  335.57   11.40
   5  -2   1  356.86   21.40
   5  -2   1  340.97   10.90
  -6   2  -1 1207.78   35.40
  -6   2  -1 1390.96   39.70
  -6   2  -1 1223.28   35.10
  -6   2  -1 1294.87   41.40
  -6   2  -1 1232.48   35.70
  -6   2  -1 1174.58   36.90
  -6   2  -1 1257.77   43.70
   6  -2   1 1238.08   36.50
   6  -2   1 1263.77   60.79
   6  -2   1 1225.38   36.20
   6  -2   1 1232.28   36.90
   6  -2   1 1198.88   34.40
  -7   2  -1  526.65   15.30
  -7   2  -1  515.85   15.90
  -7   2  -1  513.55   16.60
  -7   2  -1  512.75   15.60
   7  -2   1  475.05   32.70
   7  -2   1  561.64   18.00
  -8   2  -1  285.57    9.70
  -8   2  -1  285.37    8.90
  -8   2  -1  288.37   10.00
  -8   2  -1  294.47    9.30
   8  -2   1  287.27   11.00
  -9   2  -1   42.90    1.60
  -9   2  -1   38.90    2.00
   9  -2   1   41.70    2.60
   9  -2   1   40.10    1.90
   8   1  -1   21.00    1.30
   8   1  -1   22.40    2.40
   8   1  -1   22.50    1.30
  -8  -1   1   20.70    1.40
  -8  -1   1   21.80    1.10
   7   1  -1   53.19    2.60
   7   1  -1   51.19    4.00
  -7  -1   1   57.09    2.20
  -7  -1   1   53.59    2.70
  -7  -1   1   56.09    2.40
   6   1  -1   42.50    3.60
   6   1  -1   46.30    4.30
   6   1  -1   37.70    9.30
   6   1  -1   50.89    3.50
  -6  -1   1   39.10    4.90
  -6  -1   1   54.39    2.40
  -6  -1   1   47.30    2.40
  -6  -1   1   44.90    2.60
  -6  -1   1   46.20    2.10
   5   1  -1  178.68    7.20
   5   1  -1  166.08   17.40
   5   1  -1  185.68    6.80
   5   1  -1  177.58    6.80
   5   1  -1  176.48    7.30
  -5  -1   1  180.28    6.00
  -5  -1   1  180.08    6.10
  -5  -1   1  173.38    6.40
   4   1  -1  698.23   20.10
   4   1  -1  678.33   20.60
   4   1  -1  691.13   20.60
   4   1  -1  680.93   20.40
  -4  -1   1  660.93   20.70
  -4  -1   1  685.03   25.40
  -4  -1   1  678.53   19.60
   3   1  -1 6340.37  172.28
   3   1  -1 6250.17  173.88
   1   1  -1 1664.33   46.90
   1   1  -1 1570.54   46.90
   1   1  -1 1686.83   46.00
  -1  -1   1 1645.94   45.90
  -1  -1   1 1639.44   46.80
  -1  -1   1 1763.92   46.50
  -1  -1   1 1656.43   46.00
  -1  -1   1 1673.23   45.90
  -1  -1   1 1731.03   47.00
  -2   1  -1  623.14   18.60
  -2   1  -1  627.14   19.40
  -2   1  -1  620.04   18.80
  -2   1  -1  638.44   17.50
  -2   1  -1  635.34   17.70
   2  -1   1  632.14   17.80
   2  -1   1  662.23   19.40
   2  -1   1  635.54   18.00
   2  -1   1  629.04   17.80
   2  -1   1  634.04   18.10
   2  -1   1  602.64   17.80
  -3   1  -1 1416.26   40.40
  -3   1  -1 1401.96   40.00
   3  -1   1 1411.16   38.90
   3  -1   1 1328.47   38.60
   3  -1   1 1440.96   40.50
   3  -1   1 1276.37   39.20
   3  -1   1 1402.06   38.70
  -4   1  -1  618.24   18.80
  -4   1  -1  655.33   21.10
  -4   1  -1  663.73   21.50
  -4   1  -1  637.54   19.20
   4  -1   1  655.73   20.10
   4  -1   1  648.34   19.30
   4  -1   1  672.93   19.20
   4  -1   1  644.04   19.40
   4  -1   1  651.83   19.10
  -5   1  -1  415.16   15.80
  -5   1  -1  393.76   12.30
  -5   1  -1  390.36   15.40
  -5   1  -1  379.96   12.80
  -5   1  -1  392.06   12.90
  -5   1  -1  384.86   12.00
   5  -1   1  401.56   13.10
   5  -1   1  401.06   12.70
   5  -1   1  424.16   24.30
   5  -1   1  390.36   13.00
  -6   1  -1   59.69    3.00
  -6   1  -1   60.79    2.80
  -6   1  -1   61.19    4.50
  -6   1  -1   59.79    3.40
  -6   1  -1   65.99    7.50
  -6   1  -1   62.69    2.60
   6  -1   1   59.89    2.20
   6  -1   1   59.99    4.10
   6  -1   1   58.79    3.50
   6  -1   1   63.69   10.20
  -7   1  -1  392.76   14.80
  -7   1  -1  372.56   12.00
  -7   1  -1  383.86   11.60
  -7   1  -1  413.16   12.80
   7  -1   1  388.46   13.70
   7  -1   1  383.06   40.20
  -8   1  -1  273.67    9.40
  -8   1  -1  253.47    7.90
  -8   1  -1  264.97    7.90
   8  -1   1  255.37    9.90
  -9   1  -1    9.20    0.50
   9  -1   1    8.10    1.20
   9  -1   1    9.60    0.80
   8   0  -1   72.19    4.30
   8   0  -1   69.09    2.90
  -8   0   1   71.19    2.60
  -8   0   1   71.89    2.70
  -8   0   1   68.29    3.00
   7   0  -1   26.20    2.60
   7   0  -1   18.80    7.00
  -7   0   1   27.70    2.00
  -7   0   1   24.50    1.60
  -7   0   1   26.10    1.50
  -7   0   1   25.30    1.90
   6   0  -1 1087.79   29.40
   6   0  -1  953.00   51.59
   6   0  -1 1073.49   31.30
   6   0  -1 1097.19   32.30
   6   0  -1 1090.59   32.30
   6   0  -1 1062.09   32.20
  -6   0   1 1097.49   30.80
  -6   0   1 1052.19   30.20
  -6   0   1 1060.19   30.40
  -6   0   1 1017.50   29.80
  -6   0   1 1051.59   32.00
   5   0  -1 1540.25   43.70
   5   0  -1 1515.55   43.10
   5   0  -1 1431.36   61.79
   5   0  -1 1556.34   43.80
  -5   0   1 1539.65   46.30
  -5   0   1 1491.25   42.40
  -5   0   1 1514.15   45.30
  -5   0   1 1498.65   42.50
   4   0  -1 6077.59  170.18
   4   0  -1 6612.44  170.98
   4   0  -1 6127.89  170.08
  -4   0   1 5887.61  169.88
  -4   0   1 6119.59  172.18
  -4   0   1 6404.86  170.18
   3   0  -1  595.34   16.80
   3   0  -1  589.04   17.30
   3   0  -1  603.34   17.00
   3   0  -1  552.84   17.10
  -3   0   1  585.94   18.00
  -3   0   1  579.54   16.90
   0   0   1 1555.64   41.70
   0   0   1 1415.76   41.00
  -1   0  -1 1226.28   32.90
  -1   0  -1 1183.38   32.90
  -1   0  -1 1276.37   33.10
  -1   0  -1 1190.18   33.40
   1   0   1 1166.88   32.70
   1   0   1 1268.67   34.60
   1   0   1 1021.50   33.50
   1   0   1 1209.98   32.70
  -2   0  -1  119.39    4.70
  -2   0  -1  118.29    4.20
   2   0   1  122.19    3.90
   2   0   1  122.39    4.00
   2   0   1  123.59    5.80
   2   0   1  118.39    3.90
  -3   0  -1  345.37   10.80
  -3   0  -1  349.96   11.90
   3   0   1  350.56   10.50
   3   0   1  346.27   10.50
   3   0   1  355.96   13.30
   3   0   1  338.27   10.40
  -4   0  -1  709.33   20.90
  -4   0  -1  725.33   23.70
  -4   0  -1  727.93   21.50
  -4   0  -1  731.73   21.70
   4   0   1  716.43   22.10
   4   0   1  715.53   22.80
   4   0   1  731.93   21.40
   4   0   1  742.03   24.90
   4   0   1  731.13   21.50
   4   0   1  757.82   21.40
  -5   0  -1  252.27   11.70
  -5   0  -1  252.57    8.80
  -5   0  -1  258.37    9.50
  -5   0  -1  246.98    8.10
  -5   0  -1  245.28    8.20
  -5   0  -1  252.17   11.80
   5   0   1  261.27    9.00
   5   0   1  267.57    9.10
   5   0   1  259.17    9.10
   5   0   1  254.67    9.00
   5   0   1  270.87   19.70
  -6   0  -1  182.78    8.20
  -6   0  -1  180.68    6.00
  -6   0  -1  187.68    7.00
  -6   0  -1  181.78    6.20
   6   0   1  170.28    5.90
   6   0   1  193.28   18.90
   6   0   1  185.58    7.90
   6   0   1  194.28    7.50
   6   0   1  181.28    7.80
  -7   0  -1   38.10    2.40
  -7   0  -1   38.70    1.90
  -7   0  -1   38.20    1.80
   7   0   1   34.70    3.10
   7   0   1   43.00    9.50
  -8   0  -1   12.40    1.20
  -8   0  -1   11.60    0.70
   8   0   1   11.30    1.00
   8   0   1   10.40    4.50
   8   0   1   11.10    1.70
   9  -1  -1   46.80    2.00
   9  -1  -1   47.90    2.70
   9  -1  -1   48.10    2.00
  -9   1   1   49.70    1.80
   8  -1  -1   21.50    2.20
   8  -1  -1   20.40    1.50
  -8   1   1   21.40    1.20
  -8   1   1   22.70    1.50
  -8   1   1   25.40    1.70
  -8   1   1   24.10    1.80
   7  -1  -1  335.57    9.60
   7  -1  -1  311.07   10.50
   7  -1  -1  326.67   11.90
  -7   1   1  358.96   11.40
  -7   1   1  321.67   11.40
  -7   1   1  326.07   10.50
  -7   1   1  319.77   10.00
   6  -1  -1  721.03   21.70
   6  -1  -1  725.73   21.00
   6  -1  -1  742.83   22.90
   6  -1  -1  646.94   39.30
   6  -1  -1  721.83   22.60
  -6   1   1  724.43   21.10
  -6   1   1  718.53   20.90
  -6   1   1  689.73   20.50
   5  -1  -1  105.19    5.10
   5  -1  -1   89.39   16.50
   5  -1  -1  110.99    5.00
   5  -1  -1  105.99    4.40
  -5   1   1  110.39    7.40
  -5   1   1  104.49    6.20
  -5   1   1  108.29    4.20
  -5   1   1  103.99    4.60
  -5   1   1  104.19    4.30
   4  -1  -1   36.20    2.30
   4  -1  -1   35.20    2.00
   4  -1  -1   35.60    2.30
  -4   1   1   32.60    2.70
  -4   1   1   34.10    1.80
   3  -1  -1   24.80    1.40
   3  -1  -1   24.40    1.70
   3  -1  -1   26.20    1.60
  -3   1   1   21.50    1.70
   2  -1  -1  416.36   12.10
   2  -1  -1  417.46   12.50
   2  -1  -1  429.46   12.00
  -2   1   1  426.76   12.60
   0  -1  -1  258.47    7.60
   0  -1  -1  265.07    7.20
   0  -1  -1  240.08    7.40
   0  -1  -1  248.58    7.30
   0  -1  -1  255.97    7.50
   0   1   1  238.68    7.30
   0   1   1  255.97    7.30
   0   1   1  243.28    7.20
  -2  -1  -1 4157.68  111.09
  -2  -1  -1 4110.99  111.59
  -2  -1  -1 3923.41  111.99
   2   1   1 3973.80  110.59
   2   1   1 4060.79  110.99
  -3  -1  -1 4004.50  111.69
  -3  -1  -1 4090.79  112.79
  -3  -1  -1 3943.21  113.79
   3   1   1 4066.29  112.09
   3   1   1 4240.38  112.09
   3   1   1 4072.09  111.69
  -4  -1  -1  155.58    7.70
  -4  -1  -1  152.98    6.20
  -4  -1  -1  144.69    5.00
  -4  -1  -1  147.59    5.50
  -4  -1  -1  148.99    6.50
   4   1   1  144.89    5.70
   4   1   1  150.48    5.00
   4   1   1  157.88   13.30
   4   1   1  147.69   10.20
   4   1   1  153.68    5.60
   4   1   1  152.38    5.70
  -5  -1  -1  797.02   22.70
  -5  -1  -1  739.93   22.40
  -5  -1  -1  811.22   27.90
  -5  -1  -1  829.32   27.20
  -5  -1  -1  752.92   22.40
  -5  -1  -1  795.62   23.40
   5   1   1  811.42   24.20
   5   1   1  812.82   23.90
   5   1   1  764.42   24.00
  -6  -1  -1   33.30    4.40
  -6  -1  -1   33.00    1.70
  -6  -1  -1   35.40    2.30
  -6  -1  -1   28.60    3.60
   6   1   1   30.40    3.80
   6   1   1   36.30    3.20
   6   1   1   28.10    3.10
   6   1   1   33.10    1.60
   6   1   1   29.70    7.70
  -7  -1  -1    7.10    1.20
  -7  -1  -1    7.30    1.70
  -7  -1  -1    6.30    0.60
   7   1   1    3.50    3.40
   7   1   1    6.90    1.70
  -8  -1  -1   21.90    1.90
  -8  -1  -1   20.90    0.90
  -8  -1  -1   24.30    2.20
   8   1   1   22.00    1.30
   8   1   1   20.60    2.50
   9  -2  -1   61.29    2.50
   9  -2  -1   62.79    2.90
   9  -2  -1   60.99    2.60
  -9   2   1   65.69    2.30
  -9   2   1   65.79    2.40
   8  -2  -1   46.20    2.50
  -8   2   1   51.69    2.90
  -8   2   1   50.39    2.40
  -8   2   1   50.39    2.60
  -8   2   1   56.29    2.70
   7  -2  -1  230.18   10.20
  -7   2   1  236.18    8.00
  -7   2   1  237.58    8.60
  -7   2   1  236.08    8.20
   6  -2  -1  173.28    6.20
   6  -2  -1  181.98    7.80
   6  -2  -1  179.98    8.00
   6  -2  -1  179.68    6.50
   6  -2  -1  187.28    9.00
   6  -2  -1  173.98    6.90
   6  -2  -1  175.88   18.20
   6  -2  -1  175.18    5.30
  -6   2   1  155.58    9.10
  -6   2   1  161.48    5.90
  -6   2   1  177.28    6.40
  -6   2   1  163.08    9.70
  -6   2   1  176.38    7.10
   5  -2  -1   65.59    9.80
   5  -2  -1   71.49    4.20
   5  -2  -1   70.09    3.90
   5  -2  -1   71.09    3.40
  -5   2   1   81.39    6.40
  -5   2   1   67.99    4.90
   4  -2  -1 1964.10   56.09
   4  -2  -1 2105.99   57.19
   4  -2  -1 1980.10   56.69
  -4   2   1 1952.40   59.49
  -4   2   1 2076.89   57.69
  -4   2   1 1989.60   55.89
   3  -2  -1 2617.94   73.29
   3  -2  -1 2529.55   72.89
   3  -2  -1 2652.83   73.59
   3  -2  -1 2737.13   72.79
  -3   2   1 2648.24   75.39
  -3   2   1 2660.83   73.59
   2  -2  -1  359.96   11.20
   2  -2  -1  358.76   10.60
   2  -2  -1  375.46   10.70
   2  -2  -1  358.66   10.90
  -2   2   1  376.16   10.50
  -2   2   1  364.96   12.10
  -2   2   1  364.36   11.20
   0  -2  -1  571.34   15.50
   0  -2  -1  525.25   16.10
   0  -2  -1  551.44   16.20
   0  -2  -1  552.44   15.60
   0  -2  -1  535.65   16.00
   0   2   1  546.85   15.60
   0   2   1  545.45   16.40
   0   2   1  532.75   15.30
  -1  -2  -1  661.53   19.00
  -1  -2  -1  657.43   18.70
  -1  -2  -1  606.64   19.10
  -1  -2  -1  667.83   19.20
   1   2   1  651.93   18.60
  -2  -2  -1  363.76   11.80
  -2  -2  -1  331.57   11.30
  -2  -2  -1  382.76   11.10
  -2  -2  -1  344.67   11.60
   2   2   1  336.67   10.70
   2   2   1  331.57   10.20
  -3  -2  -1    4.50    1.30
  -3  -2  -1    3.90    1.50
  -3  -2  -1    5.10    1.10
  -3  -2  -1    4.80    1.10
   3   2   1    5.70    1.00
   3   2   1    4.60    0.70
   3   2   1    3.80    0.80
   3   2   1    8.00    1.20
  -4  -2  -1  479.55   17.80
  -4  -2  -1  444.16   13.50
  -4  -2  -1  454.75   14.20
  -4  -2  -1  475.55   15.60
  -4  -2  -1  459.95   16.10
   4   2   1  457.55   22.50
   4   2   1  467.15   13.80
   4   2   1  461.05   14.80
   4   2   1  477.75   27.30
   4   2   1  472.15   13.80
   4   2   1  475.95   14.80
  -5  -2  -1  115.29    6.20
  -5  -2  -1  105.09    3.70
  -5  -2  -1  112.99    4.50
   5   2   1  102.69    5.30
   5   2   1   99.59    5.40
   5   2   1  111.59    4.00
   5   2   1  104.69   13.70
   5   2   1  109.79    3.90
  -6  -2  -1  339.67   12.60
  -6  -2  -1  347.27   10.00
  -6  -2  -1  347.77   11.00
   6   2   1  338.57   13.50
   6   2   1  297.07   25.70
   6   2   1  357.76   10.20
  -7  -2  -1   36.70    2.00
  -7  -2  -1   38.00    1.40
  -7  -2  -1   39.10    2.80
   7   2   1   35.90    3.40
  -8  -2  -1   49.40    2.40
   8   2   1   48.80    3.30
   8   2   1   46.80    1.80
   9  -3  -1   75.89    2.90
   9  -3  -1   78.29    3.00
   9  -3  -1   71.69    3.00
  -9   3   1   75.49    3.00
  -9   3   1   78.89    2.70
   8  -3  -1   12.10    0.80
   8  -3  -1    7.00    7.70
   8  -3  -1   12.90    1.70
   8  -3  -1   13.20    1.30
   8  -3  -1   11.30    1.30
  -8   3   1   12.10    1.50
  -8   3   1   12.60    1.00
  -8   3   1   12.50    1.30
  -8   3   1   11.90    1.20
   7  -3  -1 1054.09   32.10
   7  -3  -1 1113.49   30.10
   7  -3  -1 1101.99   31.90
  -7   3   1 1060.59   31.00
  -7   3   1 1087.69   31.40
  -7   3   1 1043.40   30.80
  -7   3   1 1080.29   32.10
   6  -3  -1   77.99    3.30
   6  -3  -1   73.59    4.00
   6  -3  -1   64.29    4.10
   6  -3  -1   68.99    4.60
   6  -3  -1   58.59   10.40
   6  -3  -1   70.99    4.60
  -6   3   1   70.29    3.50
  -6   3   1   67.19    3.00
  -6   3   1   68.39    6.90
  -6   3   1   65.49    3.30
   5  -3  -1  147.79    5.80
   5  -3  -1  138.69    6.50
   5  -3  -1  141.19    6.20
  -5   3   1  149.19    8.80
  -5   3   1  137.19    5.30
  -5   3   1  133.89    7.40
  -5   3   1  140.69    5.30
   4  -3  -1 1045.70   29.90
   4  -3  -1  996.30   30.90
   4  -3  -1 1071.49   29.90
   4  -3  -1 1044.30   32.10
  -4   3   1 1019.80   29.30
  -4   3   1 1019.70   30.80
  -4   3   1 1057.79   33.10
   3  -3  -1 1117.19   31.80
   3  -3  -1 1108.09   31.10
   3  -3  -1 1135.79   31.40
   3  -3  -1 1074.39   31.60
  -3   3   1 1129.49   31.30
  -3   3   1  977.80   30.90
  -3   3   1 1126.09   33.60
   2  -3  -1   57.89    2.80
   2  -3  -1   58.79    2.80
   2  -3  -1   60.59    2.60
   2  -3  -1   63.99    3.00
  -2   3   1   62.29    3.70
  -2   3   1   71.09    3.90
   1  -3  -1   94.09    3.20
   1  -3  -1   92.79    3.40
   1  -3  -1  104.89    4.00
   1  -3  -1   93.69    4.00
  -1   3   1   91.89    4.30
  -1   3   1   90.29    5.00
   0  -3  -1   32.60    2.10
   0  -3  -1   34.40    2.30
   0  -3  -1   31.20    1.70
   0   3   1   30.60    1.70
   0   3   1   33.10    1.80
   0   3   1   35.10    2.20
  -1  -3  -1 1177.48   33.90
  -1  -3  -1 1162.38   33.40
  -1  -3  -1 1197.78   32.90
  -1  -3  -1 1106.49   33.10
   1   3   1 1132.29   33.20
   1   3   1 1136.39   32.00
  -2  -3  -1 1433.46   41.10
  -2  -3  -1 1394.86   42.00
  -2  -3  -1 1425.26   41.30
  -2  -3  -1 1464.85   42.30
   2   3   1 1437.36   40.00
   2   3   1 1469.25   40.80
   2   3   1 1421.46   40.10
  -3  -3  -1 2679.93   75.29
  -3  -3  -1 2664.33   74.79
  -3  -3  -1 2601.14   73.89
  -3  -3  -1 2661.43   76.49
  -3  -3  -1 2755.52   77.19
   3   3   1 2691.03   74.69
   3   3   1 2668.33   73.69
   3   3   1 2596.84   90.39
   3   3   1 2652.23   73.59
  -4  -3  -1  267.27   10.20
  -4  -3  -1  238.38    9.70
  -4  -3  -1  257.47   12.60
  -4  -3  -1  235.18    7.50
  -4  -3  -1  264.77   12.90
   4   3   1  234.98   20.10
   4   3   1  254.17    9.30
   4   3   1  259.07    8.00
   4   3   1  260.77    8.10
   4   3   1  254.67    8.10
  -5  -3  -1  365.46   10.50
  -5  -3  -1  360.16   13.00
  -5  -3  -1  373.76   11.60
  -5  -3  -1  394.06   15.50
   5   3   1  310.97   25.60
   5   3   1  368.66   11.10
   5   3   1  339.57   12.90
   5   3   1  395.96   11.40
   5   3   1  350.66   14.60
  -6  -3  -1   68.39    3.10
  -6  -3  -1   68.79    2.40
  -6  -3  -1   74.49    5.00
   6   3   1   70.69    5.30
   6   3   1   71.49    3.20
  -7  -3  -1   85.09    3.70
  -7  -3  -1   75.29    3.00
   7   3   1   77.69    4.90
   7   3   1   80.39    3.00
   9  -4  -1  159.08    5.10
   9  -4  -1  156.68    5.30
   9  -4  -1  159.98    5.30
  -9   4   1  162.48    5.00
  -9   4   1  174.28    6.20
  -9   4   1  156.28    5.50
   8  -4  -1   14.00    0.80
   8  -4  -1   12.10    1.10
   8  -4  -1   14.20    1.30
   8  -4  -1   13.30    1.30
   8  -4  -1   13.80    1.30
   8  -4  -1   15.30    1.40
  -8   4   1   15.20    1.10
  -8   4   1   13.30    1.30
  -8   4   1   12.30    1.80
  -8   4   1   12.70    1.40
   7  -4  -1 1056.69   30.10
   7  -4  -1 1049.49   30.20
   7  -4  -1 1004.00   30.20
   7  -4  -1 1034.70   28.90
  -7   4   1 1036.30   29.70
  -7   4   1 1040.60   30.70
  -7   4   1 1073.99   30.60
  -7   4   1 1041.70   32.40
   6  -4  -1  161.58    4.90
   6  -4  -1  159.08    5.30
   6  -4  -1  181.88    6.00
   6  -4  -1  157.68    5.90
   6  -4  -1  160.88    7.60
   6  -4  -1  158.68    4.90
   6  -4  -1  151.78    6.80
   6  -4  -1  165.28    5.90
  -6   4   1  154.38    6.20
  -6   4   1  155.18    6.00
   5  -4  -1 1327.07   39.10
   5  -4  -1 1335.87   39.90
  -5   4   1 1353.56   38.40
  -5   4   1 1340.47   38.50
  -5   4   1 1396.26   44.90
   4  -4  -1  791.92   23.80
   4  -4  -1  847.62   24.20
   4  -4  -1  802.32   24.50
  -4   4   1  798.22   23.20
  -4   4   1  794.52   23.90
  -4   4   1  798.32   27.30
   3  -4  -1  414.16   13.20
   3  -4  -1  400.66   14.30
   3  -4  -1  398.16   12.30
   3  -4  -1  416.16   13.10
  -3   4   1  421.56   15.10
  -3   4   1  388.46   15.10
  -3   4   1  382.96   12.30
   2  -4  -1  406.26   11.90
   2  -4  -1  397.26   12.70
   2  -4  -1  389.96   12.50
   2  -4  -1  391.46   12.40
  -2   4   1  394.96   13.80
  -2   4   1  344.87   11.30
   1  -4  -1 1318.47   39.10
   1  -4  -1 1422.96   40.70
   1  -4  -1 1367.26   40.60
   1  -4  -1 1436.66   39.50
  -1   4   1 1428.16   38.90
  -1   4   1 1483.75   39.90
  -1   4   1 1391.96   41.20
   0  -4  -1  877.21   26.90
   0  -4  -1  874.91   25.80
   0  -4  -1  941.91   27.50
   0   4   1  903.91   27.10
   0   4   1  915.01   26.20
   0   4   1  880.81   25.20
  -1  -4  -1  217.18    8.80
  -1  -4  -1  200.78    7.50
  -1  -4  -1  208.48    7.50
   1   4   1  207.78    6.60
   1   4   1  205.48    7.60
  -2  -4  -1 1225.88   36.70
  -2  -4  -1 1160.38   33.60
  -2  -4  -1 1165.88   35.20
  -2  -4  -1 1189.28   35.90
  -2  -4  -1 1149.78   34.90
   2   4   1 1212.68   33.90
   2   4   1 1214.88   34.60
   2   4   1 1160.38   33.40
   2   4   1 1202.38   33.60
  -3  -4  -1  442.16   16.90
  -3  -4  -1  409.66   13.00
  -3  -4  -1  451.15   15.00
  -3  -4  -1  411.26   14.10
  -3  -4  -1  426.16   16.30
  -3  -4  -1  412.36   14.40
   3   4   1  376.16   25.90
   3   4   1  428.16   12.80
   3   4   1  442.76   12.90
   3   4   1  435.46   14.30
   3   4   1  430.76   12.90
  -4  -4  -1   75.29    2.70
  -4  -4  -1   82.19    5.80
  -4  -4  -1   75.09    4.20
  -4  -4  -1   79.69    3.50
   4   4   1   64.19   11.10
   4   4   1   80.69    3.30
   4   4   1   75.19    6.10
   4   4   1   79.29    3.30
   4   4   1   81.69    3.40
  -5  -4  -1  112.59    5.20
  -5  -4  -1  112.09    4.50
   5   4   1  113.09    4.20
   5   4   1  105.89    8.30
   5   4   1  124.79    7.40
  -6  -4  -1   29.20    2.10
   6   4   1   31.40    3.80
   6   4   1   30.50    1.50
   9  -5  -1  119.69    4.10
   9  -5  -1  125.19    4.20
   9  -5  -1  116.79    3.60
  -9   5   1  126.39    4.10
  -9   5   1  122.99    3.90
  -9   5   1  113.39    4.40
   8  -5  -1   67.69    2.20
   8  -5  -1   67.39    3.00
   8  -5  -1   65.29    2.90
   8  -5  -1   63.39    2.80
  -8   5   1   61.59    3.50
  -8   5   1   65.49    3.30
  -8   5   1   64.09    2.70
  -8   5   1   64.39    3.00
   7  -5  -1  241.18    8.00
   7  -5  -1  246.38    8.20
   7  -5  -1  253.77    8.50
   7  -5  -1  246.38    8.30
   7  -5  -1  246.58    7.40
  -7   5   1  264.07    9.00
  -7   5   1  249.48    8.10
  -7   5   1  254.17    8.60
   6  -5  -1  543.85   16.00
   6  -5  -1  543.65   16.30
   6  -5  -1  535.55   15.60
   6  -5  -1  529.05   17.60
   6  -5  -1  545.05   15.30
   6  -5  -1  530.85   16.00
   6  -5  -1  541.05   15.20
   6  -5  -1  542.65   19.20
   6  -5  -1  545.35   16.30
  -6   5   1  547.75   16.90
  -6   5   1  512.35   16.10
  -6   5   1  547.45   16.60
   5  -5  -1   39.10    2.30
   5  -5  -1   41.90    2.20
   5  -5  -1   39.10    1.90
   5  -5  -1   45.20    2.80
   5  -5  -1   40.70    3.00
   5  -5  -1   42.70    1.80
   5  -5  -1   44.80    3.70
   5  -5  -1   45.40    2.90
  -5   5   1   43.90    2.60
  -5   5   1   44.90    2.60
   4  -5  -1 1030.50   30.50
   4  -5  -1 1045.80   31.30
   4  -5  -1 1050.89   31.40
  -4   5   1 1047.90   34.50
  -4   5   1 1018.40   30.10
  -4   5   1 1035.00   29.70
   3  -5  -1  156.68    5.30
   3  -5  -1  158.28    6.80
   3  -5  -1  152.98    6.50
   3  -5  -1  150.88    6.30
   3  -5  -1  152.18    5.90
  -3   5   1  151.68    5.20
  -3   5   1  150.88    8.20
   2  -5  -1   74.79    4.30
   2  -5  -1   73.69    4.30
   2  -5  -1   76.09    3.40
  -2   5   1   67.29    2.80
  -2   5   1   68.89    5.00
  -2   5   1   69.79    3.70
   1  -5  -1   64.89    4.40
   1  -5  -1   69.59    3.20
   1  -5  -1   81.59    4.20
   1  -5  -1   67.29    4.30
  -1   5   1   71.89    2.80
  -1   5   1   67.29    3.70
  -1   5   1   69.29    4.60
   0  -5  -1 1904.91   54.69
   0  -5  -1 1906.51   54.19
   0  -5  -1 1834.92   52.29
   0   5   1 1822.52   53.99
   0   5   1 1869.61   51.69
   0   5   1 1783.02   51.59
   0   5   1 1877.41   52.89
  -1  -5  -1  159.38    8.10
  -1  -5  -1  155.48    7.30
  -1  -5  -1  153.38    6.50
   1   5   1  157.58    5.40
   1   5   1  154.28    5.50
   1   5   1  159.68    6.60
   1   5   1  150.78    5.90
  -2  -5  -1  572.54   20.80
  -2  -5  -1  562.84   16.20
  -2  -5  -1  566.34   18.70
  -2  -5  -1  550.04   19.10
   2   5   1  577.64   17.00
   2   5   1  568.64   17.10
   2   5   1  584.94   17.00
  -3  -5  -1  193.98    9.70
  -3  -5  -1  199.58    7.80
  -3  -5  -1  207.48   11.20
  -3  -5  -1  202.08    6.30
   3   5   1  210.38    7.10
   3   5   1  211.48    8.70
   3   5   1  219.98    7.20
   3   5   1  213.98    7.00
  -4  -5  -1   24.40    2.10
   4   5   1   26.50    1.60
   4   5   1   24.90    2.20
   4   5   1   26.30    1.70
  -5  -5  -1   17.00    1.60
   5   5   1   16.60    1.10
  -6  -5  -1  111.59    4.20
   8  -6  -1  358.66   10.70
   8  -6  -1  356.96   11.10
   8  -6  -1  358.36   11.00
   8  -6  -1  351.66   10.20
  -8   6   1  359.56   11.90
  -8   6   1  368.46   11.20
  -8   6   1  365.56   11.30
  -8   6   1  357.76   11.40
   7  -6  -1  255.07    8.10
   7  -6  -1  255.07    8.50
   7  -6  -1  247.48    7.40
   7  -6  -1  240.68    8.30
  -7   6   1  261.97    8.90
  -7   6   1  251.37    8.10
  -7   6   1  254.77    8.60
   6  -6  -1   97.79    3.50
   6  -6  -1   99.49    3.10
   6  -6  -1   97.09    3.40
   6  -6  -1   96.09    3.20
   6  -6  -1   96.49    4.00
   6  -6  -1   96.79    4.00
  -6   6   1   93.09    4.70
  -6   6   1   94.19    4.00
  -6   6   1   98.19    4.50
   5  -6  -1  531.65   15.50
   5  -6  -1  526.45   15.00
   5  -6  -1  530.15   15.10
   5  -6  -1  534.15   14.90
   5  -6  -1  530.55   15.50
   5  -6  -1  519.45   17.30
   5  -6  -1  557.14   16.10
   5  -6  -1  531.25   16.00
  -5   6   1  520.65   16.50
  -5   6   1  519.75   16.40
   4  -6  -1  625.14   17.20
   4  -6  -1  595.44   19.20
   4  -6  -1  628.24   17.50
   4  -6  -1  630.04   20.60
   4  -6  -1  604.04   18.50
   4  -6  -1  617.34   18.30
  -4   6   1  601.14   18.40
  -4   6   1  605.54   18.50
   3  -6  -1  210.18    6.90
   3  -6  -1  197.98    6.70
   3  -6  -1  200.78    6.00
   3  -6  -1  199.88    7.60
   3  -6  -1  206.98    6.10
   3  -6  -1  197.68    6.30
   3  -6  -1  214.88   12.60
  -3   6   1  211.48    8.50
  -3   6   1  198.28   10.30
  -3   6   1  200.48    6.90
  -3   6   1  199.28   14.40
  -3   6   1  196.88    6.90
   2  -6  -1  679.73   19.90
   2  -6  -1  682.93   22.40
   2  -6  -1  645.84   20.90
  -2   6   1  684.63   21.50
  -2   6   1  709.13   20.10
  -2   6   1  694.73   20.10
  -2   6   1  697.63   24.10
   1  -6  -1  675.73   19.50
   1  -6  -1  702.43   22.70
   1  -6  -1  614.64   20.40
   1  -6  -1  664.53   22.60
  -1   6   1  691.03   19.70
  -1   6   1  664.03   22.90
  -1   6   1  664.73   19.70
  -1   6   1  695.73   21.30
   0  -6  -1  756.32   21.60
   0  -6  -1  775.72   25.50
   0  -6  -1  773.92   21.70
   0  -6  -1  785.52   26.30
   0  -6  -1  771.02   23.60
   0  -6  -1  745.23   22.40
   0  -6  -1  778.92   22.00
   0   6   1  795.92   22.60
   0   6   1  777.72   23.20
  -1  -6  -1 1124.19   32.60
  -1  -6  -1 1126.09   31.20
  -1  -6  -1 1100.09   32.10
  -1  -6  -1 1145.29   36.70
  -1  -6  -1 1111.39   35.20
  -1  -6  -1 1088.39   31.20
  -1  -6  -1 1075.79   31.40
  -1  -6  -1 1133.29   33.70
   1   6   1 1158.88   32.20
   1   6   1 1174.88   32.20
   1   6   1 1123.09   32.10
  -2  -6  -1  658.33   24.10
  -2  -6  -1  693.13   19.80
  -2  -6  -1  730.43   25.30
  -2  -6  -1  694.63   20.60
   2   6   1  728.93   20.90
   2   6   1  720.33   20.90
  -3  -6  -1  532.45   15.10
  -3  -6  -1  521.95   16.70
   3   6   1  538.75   16.10
   3   6   1  537.15   16.20
   3   6   1  550.14   16.10
  -4  -6  -1  440.86   14.20
   4   6   1  445.46   13.30
   4   6   1  458.95   13.50
   4   6   1  477.85   17.60
  -5  -6  -1   48.10    2.30
  -5  -6  -1   48.20    2.00
   5   6   1   45.30    2.10
   8  -7  -1  549.85   16.30
   8  -7  -1  559.74   16.50
   8  -7  -1  541.45   15.60
  -8   7   1  580.14   17.20
  -8   7   1  603.04   17.90
  -8   7   1  556.64   16.10
  -8   7   1  555.34   16.70
   7  -7  -1  260.37    7.60
   7  -7  -1  257.07    8.50
   7  -7  -1  255.87    8.50
  -7   7   1  270.47    8.80
  -7   7   1  270.17    8.30
   6  -7  -1  138.29    5.20
   6  -7  -1  136.39    4.30
   6  -7  -1  133.49    5.10
   6  -7  -1  137.79    4.60
   6  -7  -1  137.59    4.20
  -6   7   1  140.89    5.80
  -6   7   1  139.29    5.60
   5  -7  -1  944.81   26.30
   5  -7  -1  890.31   25.20
   5  -7  -1  892.11   26.10
   5  -7  -1  909.81   25.70
   5  -7  -1  917.61   25.30
  -5   7   1  897.91   26.90
  -5   7   1  911.81   26.80
  -5   7   1  866.21   26.20
   4  -7  -1  830.22   23.80
   4  -7  -1  834.32   24.50
   4  -7  -1  845.52   24.30
   4  -7  -1  856.91   24.10
   4  -7  -1  794.42   25.50
   4  -7  -1  860.91   23.50
   4  -7  -1  863.51   23.60
   4  -7  -1  808.32   27.50
   4  -7  -1  847.32   23.70
  -4   7   1  849.81   24.90
  -4   7   1  854.71   25.00
   3  -7  -1   61.99    2.30
   3  -7  -1   62.99    2.20
   3  -7  -1   59.29    2.70
   3  -7  -1   61.79    2.40
   3  -7  -1   66.79    3.00
   3  -7  -1   62.19    2.90
   3  -7  -1   60.09    2.60
  -3   7   1   61.09    3.10
  -3   7   1   57.29    5.80
  -3   7   1   63.79    3.20
   2  -7  -1  191.78    5.80
   2  -7  -1  182.08    9.60
   2  -7  -1  193.48    5.90
   2  -7  -1  193.18    6.20
   2  -7  -1  186.38   10.00
   2  -7  -1  192.08    6.00
   2  -7  -1  188.18    6.50
   2  -7  -1  186.58    6.40
   2  -7  -1  192.98    6.60
  -2   7   1  190.08    6.90
  -2   7   1  204.98    7.00
  -2   7   1  180.48    6.80
  -2   7   1  210.08   10.90
   1  -7  -1  110.29    3.90
   1  -7  -1  110.99    4.30
   1  -7  -1  108.99    3.80
   1  -7  -1  111.29    3.70
   1  -7  -1  108.49    4.20
   1  -7  -1  115.39    4.30
   1  -7  -1  109.39    7.60
   1  -7  -1  111.39    3.60
  -1   7   1  114.49    4.60
  -1   7   1  109.49    4.50
  -1   7   1  107.79    4.60
   0   7   1 1575.94   47.10
   0   7   1 1774.72   49.50
   0   7   1 1649.54   47.20
  -1  -7  -1   58.69    2.20
  -1  -7  -1   61.89    2.90
  -1  -7  -1   60.39    3.10
  -1  -7  -1   62.89    2.20
   1   7   1   63.59    3.10
   1   7   1   66.69    3.10
   1   7   1   62.69    3.20
  -2  -7  -1 2684.03   79.69
  -2  -7  -1 2783.82   81.09
  -2  -7  -1 2862.41   80.79
   2   7   1 2985.50   80.99
   2   7   1 3365.26   87.69
   2   7   1 2854.41   80.79
   2   7   1 2883.51   80.99
  -3  -7  -1  255.17    8.00
  -3  -7  -1  252.27    8.40
   3   7   1  263.07   11.90
   3   7   1  251.67    8.10
   3   7   1  249.88    8.00
  -4  -7  -1  287.17    8.80
  -4  -7  -1  293.27    8.50
   4   7   1  262.37   11.90
   4   7   1  297.77    8.50
   7  -8  -1  109.39    3.30
   7  -8  -1  106.79    4.20
  -7   8   1  106.79    4.40
  -7   8   1  108.09    4.10
  -7   8   1  105.49    3.70
   6  -8  -1   29.00    1.40
   6  -8  -1   29.80    1.20
   6  -8  -1   28.20    1.80
   6  -8  -1   29.80    1.80
   6  -8  -1   30.20    1.30
  -6   8   1   29.70    2.60
  -6   8   1   27.90    2.00
  -6   8   1   29.00    1.80
   5  -8  -1  348.27   10.70
  -5   8   1  341.57   11.30
  -5   8   1  340.57   10.80
  -5   8   1  341.97   11.40
   4  -8  -1  217.38    7.30
   4  -8  -1  215.48    7.10
   4  -8  -1  217.38    6.50
   4  -8  -1  220.08    6.90
   4  -8  -1  209.48    6.50
   4  -8  -1  218.88    6.30
  -4   8   1  209.48    7.70
  -4   8   1  213.18    7.90
  -4   8   1  209.58    7.40
   3  -8  -1  237.08    6.90
   3  -8  -1  231.08    7.40
   3  -8  -1  234.98    7.70
   3  -8  -1  222.98    7.00
   3  -8  -1  231.58    6.80
  -3   8   1  234.58    8.30
  -3   8   1  222.18   12.50
  -3   8   1  223.58    8.10
  -3   8   1  225.58    7.80
   2  -8  -1   19.80    1.40
   2  -8  -1   23.80    1.40
   2  -8  -1   22.10    1.00
   2  -8  -1   21.00    1.10
   2  -8  -1   18.60    1.50
  -2   8   1   22.40    1.90
  -2   8   1   25.40    2.00
  -2   8   1   22.50    3.90
  -2   8   1   20.70    1.80
   1  -8  -1  118.29    3.80
   1  -8  -1  124.59    4.60
   1  -8  -1  117.99    4.40
   1  -8  -1  123.29    4.10
   1  -8  -1  120.89    4.40
   1  -8  -1  119.99    3.90
  -1   8   1  111.49    4.70
  -1   8   1  117.69    5.00
  -1   8   1  123.79    5.00
  -1   8   1  124.99    8.50
   0  -8  -1  380.16   11.00
   0  -8  -1  374.56   11.30
   0  -8  -1  377.36   12.00
   0   8   1  392.76   12.40
   0   8   1  405.76   17.30
   0   8   1  392.66   12.30
  -1  -8  -1   43.00    1.80
  -1  -8  -1   41.40    1.60
  -1  -8  -1   41.70    2.10
  -1  -8  -1   42.40    1.50
  -1  -8  -1   43.00    2.10
   1   8   1   45.20    2.90
   1   8   1   43.10    4.90
   1   8   1   47.70    2.30
   1   8   1   43.30    2.40
  -2  -8  -1  178.88    5.90
  -2  -8  -1  181.88    5.50
  -2  -8  -1  178.18    6.30
   2   8   1  179.48    7.10
   2   8   1  176.48    9.40
   2   8   1  188.18    6.00
   6  -9  -1   12.70    0.60
   6  -9  -1   13.10    0.60
   6  -9  -1   13.80    0.70
   6  -9  -1   13.10    1.00
   6  -9  -1   12.80    1.00
  -6   9   1   13.10    1.20
  -6   9   1   12.20    1.50
   5  -9  -1    2.50    0.30
   5  -9  -1    2.30    0.60
   5  -9  -1    1.60    0.50
   5  -9  -1    1.60    0.70
   5  -9  -1    2.00    0.40
  -5   9   1    2.30    0.60
  -5   9   1    2.00    0.70
  -5   9   1    1.20    0.80
   4  -9  -1    5.80    0.80
   4  -9  -1    7.90    0.70
   4  -9  -1    7.40    0.60
   4  -9  -1    7.40    0.50
   4  -9  -1    8.30    0.60
  -4   9   1    7.90    1.10
  -4   9   1    9.00    1.20
  -4   9   1    8.40    1.30
   3  -9  -1  172.88    5.10
   3  -9  -1  174.28    5.60
   3  -9  -1  173.08    5.30
   3  -9  -1  170.88    5.80
   3  -9  -1  175.08    5.30
  -3   9   1  168.38    6.60
  -3   9   1  174.08    6.00
  -3   9   1  182.58    6.50
   2  -9  -1  359.76   10.10
   2  -9  -1  349.77    9.80
   2  -9  -1  344.07   10.00
   2  -9  -1  347.27   10.30
  -2   9   1  350.46   10.80
  -2   9   1  347.27   11.30
  -2   9   1  354.66   11.20
  -2   9   1  319.17   15.30
   1  -9  -1   37.00    1.40
   1  -9  -1   38.90    1.80
   1  -9  -1   38.20    1.60
  -1   9   1   40.20    2.10
  -1   9   1   36.40    2.40
  -1   9   1   36.30    4.50
  -1   9   1   37.90    2.20
   0  -9  -1   75.19    2.70
   0  -9  -1   74.59    2.60
   0  -9  -1   72.19    2.30
   0   9   1   78.49    3.20
   0   9   1   73.39    5.90
   0   9   1   72.79    3.80
  -1  -9  -1   49.30    1.70
   1   9   1   48.60    2.10
   1   9   1   45.70    2.50
   1   9   1   45.60    4.30
   3 -10  -1  119.29    3.90
   3 -10  -1  141.19    4.00
   3 -10  -1  131.29    4.00
  -3  10   1  134.69    4.70
  -3  10   1  137.09    4.90
  -1  10  -2  187.78    6.00
  -1  10  -2  176.98   10.00
   1 -10   2  186.18    5.50
   1 -10   2  188.48    5.70
   1 -10   2  188.48    5.60
  -2  10  -2   58.69    5.70
  -2  10  -2   68.39    2.80
  -2  10  -2   68.09    2.90
   2 -10   2   68.69    2.40
   2 -10   2   67.09    2.40
   2 -10   2   70.59    2.60
  -3  10  -2  133.59   12.40
  -3  10  -2  150.58    5.40
  -3  10  -2  152.68    6.50
   3 -10   2  152.98    5.00
   3 -10   2  150.58    4.50
  -4  10  -2   38.30    2.50
  -4  10  -2   35.70    1.80
   4 -10   2   36.80    1.80
   4 -10   2   35.70    1.30
  -5  10  -2   22.00    1.30
  -5  10  -2   20.80    1.40
   5 -10   2   20.80    1.10
   5 -10   2   21.80    1.20
   5 -10   2   19.70    0.80
   2   9  -2   41.70    1.90
   2   9  -2   38.10    4.10
  -2  -9   2   44.60    1.50
  -2  -9   2   44.10    1.90
   1   9  -2   43.30    2.00
   1   9  -2   41.60    4.80
  -1  -9   2   41.70    1.70
  -1  -9   2   43.00    2.20
   0   9  -2    7.70    2.70
   0   9  -2    8.10    1.20
   0   9  -2    6.50    1.70
   0   9  -2   10.00    1.10
   0  -9   2    9.10    1.10
   0  -9   2   10.70    0.70
   0  -9   2    8.30    1.40
  -1   9  -2   13.00    5.50
  -1   9  -2   19.60    1.50
   1  -9   2   16.30    1.30
   1  -9   2   17.60    1.10
   1  -9   2   15.80    1.00
   1  -9   2   17.00    1.40
  -2   9  -2   83.09    3.80
  -2   9  -2   79.69    4.10
  -2   9  -2   72.19    7.20
  -2   9  -2   80.09    3.50
   2  -9   2   80.89    3.60
   2  -9   2   76.29    3.80
   2  -9   2   78.89    2.80
   2  -9   2   82.49    2.90
   2  -9   2   81.89    2.50
  -3   9  -2   12.90    1.40
  -3   9  -2   13.40    1.60
  -3   9  -2   12.00    4.30
  -3   9  -2   14.40    1.90
   3  -9   2   14.40    0.90
   3  -9   2   14.00    1.30
   3  -9   2   14.70    0.70
   3  -9   2   15.00    1.00
   3  -9   2   16.20    1.60
  -4   9  -2   75.39    3.90
  -4   9  -2   74.49    3.60
  -4   9  -2   72.39    3.30
   4  -9   2   75.19    3.10
   4  -9   2   72.69    2.50
   4  -9   2   70.09    3.00
   4  -9   2   70.09    2.40
   4  -9   2   73.79    2.60
  -5   9  -2  102.69    4.60
  -5   9  -2   96.69    3.80
  -5   9  -2   99.29    4.20
   5  -9   2   98.19    3.50
   5  -9   2   97.59    3.00
   5  -9   2   95.69    3.10
   5  -9   2   97.29    3.20
   5  -9   2   94.99    3.60
  -6   9  -2  162.98    5.70
  -6   9  -2  164.28    6.10
  -6   9  -2  165.28    5.80
   6  -9   2  156.48    4.70
   6  -9   2  161.28    5.50
   6  -9   2  165.28    5.60
  -7   9  -2    5.00    1.10
  -7   9  -2    4.30    0.70
  -7   9  -2    2.60    0.40
   7  -9   2    2.80    0.50
   7  -9   2    2.90    0.50
   3   8  -2   29.40    3.80
   3   8  -2   30.30    1.30
  -3  -8   2   28.90    1.70
   2   8  -2   80.69    3.20
   2   8  -2   74.99    6.60
  -2  -8   2   77.09    3.50
  -2  -8   2   80.69    3.40
   1   8  -2  227.38    7.60
   1   8  -2  224.28   12.80
   1   8  -2  227.88    7.60
   1   8  -2  235.08    8.00
  -1  -8   2  205.18    8.30
  -1  -8   2  221.28    7.90
  -1  -8   2  225.48    7.10
   0   8  -2  108.29    4.40
   0   8  -2  106.99    4.80
   0   8  -2  111.49    4.60
   0   8  -2  103.69    8.50
   0  -8   2  106.49    4.20
   0  -8   2  107.09    4.60
   0  -8   2  105.49    3.40
   0  -8   2  107.39    3.90
  -1   8  -2  668.43   20.20
  -1   8  -2  645.24   26.60
  -1   8  -2  643.24   19.90
  -1   8  -2  657.53   19.70
   1  -8   2  642.24   19.80
   1  -8   2  644.04   18.30
   1  -8   2  654.03   18.50
   1  -8   2  691.93   19.50
   1  -8   2  660.33   19.00
   1  -8   2  661.23   18.70
  -2   8  -2  497.05   15.80
  -2   8  -2  498.45   15.30
   2  -8   2  503.65   15.40
   2  -8   2  497.65   14.30
   2  -8   2  490.05   14.10
   2  -8   2  480.35   14.40
   2  -8   2  493.85   13.90
  -3   8  -2   19.70    1.70
  -3   8  -2   18.80    2.20
  -3   8  -2   17.30    2.00
   3  -8   2   19.70    1.10
   3  -8   2   18.00    0.90
   3  -8   2   18.30    1.90
   3  -8   2   22.40    1.30
   3  -8   2   17.60    1.60
   3  -8   2   21.10    1.10
  -4   8  -2  818.12   24.40
  -4   8  -2  801.42   23.80
  -4   8  -2  818.02   24.70
   4  -8   2  818.82   22.50
   4  -8   2  822.72   23.80
   4  -8   2  799.12   22.90
   4  -8   2  814.32   22.70
   4  -8   2  789.72   23.80
  -5   8  -2  185.58    7.00
  -5   8  -2  180.48    6.50
  -5   8  -2  187.88    7.30
   5  -8   2  181.58    5.70
   5  -8   2  181.68    6.50
   5  -8   2  183.98    5.60
   5  -8   2  185.58    5.50
   5  -8   2  177.88    6.30
  -6   8  -2  126.99    5.10
  -6   8  -2  123.79    4.60
  -6   8  -2  127.69    5.40
   6  -8   2  124.59    4.60
   6  -8   2  120.39    3.80
   6  -8   2  120.69    4.60
   6  -8   2  122.89    4.50
  -7   8  -2   21.30    1.90
  -7   8  -2   21.50    1.60
  -7   8  -2   23.40    1.40
   7  -8   2   22.20    1.40
   7  -8   2   22.40    0.90
   7  -8   2   23.60    1.40
  -8   8  -2  281.97    8.50
  -8   8  -2  291.77    8.40
  -8   8  -2  291.47    9.20
   8  -8   2  281.27    8.60
   8  -8   2  270.07    8.30
   4   7  -2  583.44   21.70
  -4  -7   2  624.44   18.50
  -4  -7   2  639.94   17.50
   3   7  -2   24.10    1.50
  -3  -7   2   28.30    1.60
  -3  -7   2   24.70    1.90
   2   7  -2  512.35   15.60
   2   7  -2  509.75   15.50
   2   7  -2  516.35   21.50
  -2  -7   2  526.55   15.30
  -2  -7   2  515.75   15.30
  -2  -7   2  513.65   16.30
   1   7  -2  404.26   15.90
   1   7  -2  437.46   13.70
   1   7  -2  465.55   19.60
   1   7  -2  440.86   13.60
  -1  -7   2  436.66   13.20
  -1  -7   2  427.96   13.70
  -1  -7   2  412.96   20.60
   0   7  -2   83.09    3.60
   0   7  -2   73.89    4.80
   0   7  -2   80.09    7.00
   0   7  -2   84.29    3.70
   0   7  -2   82.89    3.80
   0  -7   2   77.59    2.70
   0  -7   2   75.79    5.90
   0  -7   2   73.39    3.70
   0  -7   2   79.19    3.40
   0  -7   2   79.89    3.30
   0  -7   2   84.59    6.70
  -1   7  -2 2073.09   57.29
  -1   7  -2 2070.29   57.19
  -1   7  -2 2086.69   64.19
  -1   7  -2 1948.80   56.89
   1  -7   2 2023.90   57.19
   1  -7   2 2017.20   55.79
   1  -7   2 2039.90   60.29
   1  -7   2 1965.80   56.59
   1  -7   2 2030.60   59.99
  -2   7  -2  154.68    6.10
  -2   7  -2  146.59    5.60
  -2   7  -2  143.69    9.80
  -2   7  -2  157.58    5.90
   2  -7   2  147.79    8.00
   2  -7   2  149.88    5.10
   2  -7   2  143.69    5.70
   2  -7   2  144.79    4.80
   2  -7   2  149.69    5.50
   2  -7   2  150.48    7.80
   2  -7   2  152.28    4.70
  -3   7  -2  181.38   11.70
  -3   7  -2  200.88    7.40
  -3   7  -2  183.98    7.00
   3  -7   2  205.58    9.40
   3  -7   2  205.58    6.90
   3  -7   2  196.98    7.10
   3  -7   2  196.68    6.10
   3  -7   2  217.08    6.10
   3  -7   2  187.28    7.30
   3  -7   2  202.08    5.90
  -4   7  -2  129.49    5.60
  -4   7  -2  125.19    5.40
  -4   7  -2  122.69    5.00
   4  -7   2  121.49    5.60
   4  -7   2  131.09    7.30
   4  -7   2  131.89    5.00
   4  -7   2  127.99    4.10
   4  -7   2  128.19    4.40
   4  -7   2  130.19    4.00
  -5   7  -2  320.37   11.10
  -5   7  -2  321.47   10.80
   5  -7   2  310.37   11.50
   5  -7   2  312.47    9.50
   5  -7   2  325.17   11.00
  -6   7  -2   34.60    2.10
  -6   7  -2   39.30    2.80
  -6   7  -2   40.10    2.60
   6  -7   2   37.70    1.50
   6  -7   2   37.50    2.30
   6  -7   2   36.00    2.10
  -7   7  -2   28.40    2.20
  -7   7  -2   30.60    2.00
  -7   7  -2   31.80    1.80
   7  -7   2   30.20    1.20
   7  -7   2   26.70    1.70
   7  -7   2   30.80    1.80
   7  -7   2   30.90    1.80
  -8   7  -2  639.74   18.60
  -8   7  -2  624.54   19.00
  -8   7  -2  670.43   19.60
   8  -7   2  634.94   18.30
   5   6  -2  327.57   14.30
  -5  -6   2  406.06   12.10
  -5  -6   2  401.66   11.10
   4   6  -2  313.07   15.30
   4   6  -2  366.06   10.80
   4   6  -2  387.46   19.70
  -4  -6   2  378.86   12.10
   3   6  -2  124.19   10.00
   3   6  -2  136.99    8.90
   3   6  -2  130.49    4.80
   3   6  -2  136.19    5.00
  -3  -6   2  124.19    5.60
  -3  -6   2  132.49    4.80
   2   6  -2 1212.08   37.90
   2   6  -2 1132.09   31.70
   2   6  -2 1135.59   31.50
   2   6  -2 1130.69   31.40
   2   6  -2 1049.49   32.90
  -2  -6   2 1104.49   31.20
  -2  -6   2 1059.79   30.70
  -2  -6   2 1084.99   35.90
  -2  -6   2 1023.30   33.60
  -2  -6   2 1060.69   33.10
  -2  -6   2 1061.39   32.30
   1   6  -2 1165.18   35.60
   1   6  -2 1194.38   35.50
   1   6  -2 1239.38   35.00
   1   6  -2 1243.78   34.60
   1   6  -2 1341.97   41.20
  -1  -6   2 1154.28   34.10
  -1  -6   2 1160.78   36.70
  -1  -6   2 1216.58   38.20
  -1  -6   2 1176.38   35.40
  -1  -6   2 1179.28   35.10
   0   6  -2  155.58    5.70
   0   6  -2  146.99    6.40
   0   6  -2  155.68    5.70
   0   6  -2  152.78    8.60
   0   6  -2  167.38    9.30
   0  -6   2  159.08    5.50
   0  -6   2  150.88    7.30
   0  -6   2  155.78    7.90
  -1   6  -2  101.59    5.00
  -1   6  -2  107.39    4.30
  -1   6  -2  109.79    7.40
  -1   6  -2  106.79    6.80
   1  -6   2  115.79    6.00
   1  -6   2  107.99    4.10
   1  -6   2  105.89    5.90
  -2   6  -2  713.93   21.20
  -2   6  -2  726.73   21.90
  -2   6  -2  758.02   25.10
  -2   6  -2  680.33   26.00
  -2   6  -2  721.03   21.30
   2  -6   2  697.03   22.80
   2  -6   2  724.13   20.90
   2  -6   2  707.83   21.20
   2  -6   2  745.13   23.30
  -3   6  -2  295.37    9.90
  -3   6  -2  308.67   10.10
  -3   6  -2  280.57   14.50
  -3   6  -2  315.77   13.80
   3  -6   2  306.67   11.60
   3  -6   2  336.27    9.70
   3  -6   2  293.17   13.60
   3  -6   2  291.77   10.00
  -4   6  -2   69.19    6.80
  -4   6  -2   76.49    3.70
  -4   6  -2   80.09    3.80
   4  -6   2   80.29    3.40
   4  -6   2   73.59    2.50
   4  -6   2   74.99    3.50
  -5   6  -2   15.20    1.50
  -5   6  -2   14.20    1.70
  -5   6  -2   14.80    1.60
   5  -6   2   15.90    1.00
   5  -6   2   15.20    2.90
   5  -6   2   16.20    2.10
   5  -6   2   13.90    1.00
   5  -6   2   16.10    1.60
   5  -6   2   16.80    1.40
   5  -6   2   17.00    0.90
  -6   6  -2  164.38    6.70
  -6   6  -2  160.98    6.60
  -6   6  -2  164.18    6.40
   6  -6   2  167.88    6.60
  -7   6  -2  220.98    8.10
  -7   6  -2  217.78    7.70
  -7   6  -2  215.08    8.70
  -7   6  -2  219.08    7.30
   7  -6   2  221.38    7.70
   7  -6   2  222.08    7.40
   7  -6   2  213.78    7.20
  -8   6  -2  187.18    6.20
  -8   6  -2  180.18    6.50
  -8   6  -2  189.98    6.00
  -8   6  -2  185.98    7.10
   8  -6   2  177.88    5.30
   8  -6   2  180.48    5.90
   8  -6   2  178.38    6.20
   8  -6   2  182.78    6.30
   8  -6   2  177.98    6.10
  -9   6  -2  179.38    5.20
   9  -6   2  159.98    5.10
   6   5  -2   69.19    4.90
  -6  -5   2   81.89    3.50
   5   5  -2   19.20    3.40
  -5  -5   2   19.20    1.90
   4   5  -2   67.39    6.80
   4   5  -2   66.39    2.80
   4   5  -2   60.69    5.90
  -4  -5   2   65.59    2.40
  -4  -5   2   64.29    2.90
  -4  -5   2   69.19    3.80
   3   5  -2   14.70    1.40
   3   5  -2   15.40    3.10
   3   5  -2   14.60    2.40
   3   5  -2   15.80    1.30
   3   5  -2    9.50    2.00
  -3  -5   2   12.60    0.90
  -3  -5   2   12.90    1.80
  -3  -5   2   14.00    2.50
  -3  -5   2   12.30    1.20
  -3  -5   2   13.30    3.30
   2   5  -2  383.26   15.00
   2   5  -2  334.67   10.50
   2   5  -2  339.17   10.50
   2   5  -2  325.07   11.50
   2   5  -2  320.87   11.30
  -2  -5   2  322.37   10.20
  -2  -5   2  312.97   11.90
   1   5  -2    9.20    1.40
   1   5  -2   11.80    1.30
   1   5  -2    8.40    2.10
   1   5  -2   10.90    2.60
   1   5  -2    7.50    1.00
   1   5  -2    8.30    1.50
  -1  -5   2    7.50    1.80
  -1  -5   2    8.30    0.90
   0   5  -2 3060.69   81.09
   0   5  -2 2661.43   82.29
   0   5  -2 2692.63   76.69
   0   5  -2 2757.72   76.19
   0  -5   2 2686.93   78.29
   0  -5   2 2670.13   77.79
  -1   5  -2 3558.94   99.19
  -1   5  -2 3508.15   96.49
  -1   5  -2 3595.04   96.09
   1  -5   2 3525.05   97.69
   1  -5   2 3420.16   95.99
   1  -5   2 3403.66   97.49
   1  -5   2 3602.84   97.79
   1  -5   2 3279.27   95.69
  -2   5  -2 2243.88   62.99
  -2   5  -2 2165.08   66.19
   2  -5   2 2241.98   62.89
   2  -5   2 2286.37   63.99
   2  -5   2 2328.27   64.49
   2  -5   2 2321.77   64.09
  -3   5  -2  176.58    8.80
  -3   5  -2  164.38    6.00
  -3   5  -2  174.28    6.10
   3  -5   2  161.68    6.00
   3  -5   2  167.88    5.70
   3  -5   2  170.68    6.40
   3  -5   2  173.18    7.10
   3  -5   2  166.48    6.60
  -4   5  -2 1126.49   33.40
  -4   5  -2 1187.58   33.40
  -4   5  -2 1165.18   37.60
   4  -5   2 1161.18   34.40
   4  -5   2 1150.58   34.00
   4  -5   2 1179.58   32.90
   4  -5   2 1143.89   33.40
  -5   5  -2  710.63   21.40
  -5   5  -2  732.23   26.60
  -5   5  -2  736.43   22.10
  -5   5  -2  727.93   21.70
   5  -5   2  697.53   21.80
   5  -5   2  708.63   20.00
   5  -5   2  703.73   21.40
   5  -5   2  698.33   22.30
   5  -5   2  724.33   22.40
  -6   5  -2  104.29    4.10
  -6   5  -2  105.29    4.50
  -6   5  -2  104.59    4.70
   6  -5   2   99.89    4.50
   6  -5   2  100.79    3.30
   6  -5   2  104.69    4.10
   6  -5   2   96.39    5.80
   6  -5   2  101.69    5.20
  -7   5  -2  333.67   10.60
  -7   5  -2  314.07   10.20
  -7   5  -2  328.67   11.80
   7  -5   2  315.27    9.30
   7  -5   2  342.37   11.00
   7  -5   2  315.97   10.20
   7  -5   2  325.37   10.20
  -8   5  -2  567.74   16.90
  -8   5  -2  569.64   16.30
  -8   5  -2  562.84   16.50
   8  -5   2  542.25   15.60
   8  -5   2  546.95   16.50
   8  -5   2  562.14   17.10
  -9   5  -2  128.79    4.00
  -9   5  -2  125.89    4.60
   9  -5   2  120.29    4.00
   9  -5   2  123.39    4.10
   9  -5   2  122.19    4.30
   7   4  -2   18.50    2.30
   6   4  -2   62.29    5.00
  -6  -4   2   66.09    2.30
  -6  -4   2   69.39    3.60
   5   4  -2  322.77   14.20
   5   4  -2  330.77    9.60
  -5  -4   2  310.07   11.30
  -5  -4   2  307.07    9.50
  -5  -4   2  318.67    9.90
  -5  -4   2  331.67   10.00
   4   4  -2   74.89    6.20
   4   4  -2   72.79    4.80
   4   4  -2   73.99    3.00
   4   4  -2   76.69    4.50
   4   4  -2   76.39    6.20
  -4  -4   2   64.09    4.10
  -4  -4   2   69.99    3.10
  -4  -4   2   71.39    3.00
  -4  -4   2   66.29    2.60
  -4  -4   2   65.69    5.90
  -4  -4   2   65.29    2.70
   3   4  -2   17.70    1.50
   3   4  -2   16.20    2.00
   3   4  -2   20.30    2.60
   3   4  -2   16.30    2.20
   3   4  -2   23.10    3.30
  -3  -4   2   17.50    1.30
  -3  -4   2   19.50    3.50
  -3  -4   2   16.80    2.70
  -3  -4   2   17.30    1.20
  -3  -4   2   20.50    1.50
   2   4  -2  799.72   23.20
   2   4  -2  817.72   22.70
   2   4  -2  761.32   23.50
   2   4  -2  793.52   22.70
  -2  -4   2  799.32   23.80
  -2  -4   2  814.82   25.10
  -2  -4   2  790.72   24.50
  -2  -4   2  756.62   22.40
   1   4  -2 1564.84   45.80
   1   4  -2 1584.74   45.50
   1   4  -2 1578.14   47.50
   1   4  -2 1659.53   45.10
  -1  -4   2 1660.93   46.10
  -1  -4   2 1654.93   47.10
  -1  -4   2 1641.14   46.30
   0   4  -2  150.68    5.10
   0   4  -2  137.69    6.40
   0  -4   2  140.49    5.60
   0  -4   2  139.69    5.70
  -1   4  -2 1235.88   34.30
  -1   4  -2 1165.58   36.50
   1  -4   2 1233.38   37.90
   1  -4   2 1215.98   34.20
   1  -4   2 1260.37   35.30
   1  -4   2 1214.98   35.40
   1  -4   2 1247.08   34.30
  -2   4  -2  547.45   18.10
   2  -4   2  511.95   15.60
   2  -4   2  545.75   16.30
   2  -4   2  548.45   16.70
   2  -4   2  539.25   15.70
  -3   4  -2 2797.92   78.19
  -3   4  -2 2663.53   75.09
   3  -4   2 2596.64   74.69
   3  -4   2 2689.73   77.69
   3  -4   2 2740.93   75.89
   3  -4   2 2712.63   75.49
   3  -4   2 2815.92   75.39
   3  -4   2 2665.73   74.99
  -4   4  -2  557.44   19.50
  -4   4  -2  521.85   16.20
  -4   4  -2  552.54   16.40
   4  -4   2  534.75   16.30
   4  -4   2  533.05   16.10
   4  -4   2  538.15   16.70
   4  -4   2  537.75   15.80
   4  -4   2  539.55   16.80
  -5   4  -2  394.56   13.00
  -5   4  -2  429.06   17.30
  -5   4  -2  408.06   13.30
   5  -4   2  434.46   23.60
   5  -4   2  422.96   13.90
   5  -4   2  426.96   14.20
   5  -4   2  409.66   13.40
  -6   4  -2  487.15   15.20
  -6   4  -2  506.55   16.00
  -6   4  -2  509.45   15.70
   6  -4   2  518.95   16.10
   6  -4   2  532.65   15.30
   6  -4   2  502.85   17.00
   6  -4   2  516.95   16.50
  -7   4  -2  292.77    9.00
  -7   4  -2  289.47    9.70
  -7   4  -2  292.27   12.10
  -7   4  -2  283.57    9.40
   7  -4   2  277.07    8.20
   7  -4   2  249.08   22.10
   7  -4   2  292.67   10.00
   7  -4   2  278.57    9.10
  -8   4  -2  188.68    7.40
  -8   4  -2  188.28    7.10
  -8   4  -2  176.88    5.90
  -8   4  -2  184.58    6.30
   8  -4   2  176.68    6.10
   8  -4   2  171.48    6.90
  -9   4  -2   38.80    1.60
  -9   4  -2   38.20    2.10
   9  -4   2   39.60    2.20
   9  -4   2   37.70    1.70
   7   3  -2   87.09    5.50
   7   3  -2   90.29    3.20
  -7  -3   2   89.49    2.90
   6   3  -2  341.57   10.40
   6   3  -2  337.27   14.10
  -6  -3   2  347.87   10.60
  -6  -3   2  343.87   10.20
  -6  -3   2  336.27   10.10
   5   3  -2  930.11   30.20
   5   3  -2  906.11   29.80
   5   3  -2  904.31   26.90
  -5  -3   2  884.01   25.70
  -5  -3   2  861.11   25.20
  -5  -3   2  894.31   25.60
  -5  -3   2  884.71   25.40
   4   3  -2   53.79    3.60
   4   3  -2   59.19    3.70
   4   3  -2   49.80    3.40
   4   3  -2   40.60    8.90
  -4  -3   2   50.39    4.40
  -4  -3   2   49.99    2.30
  -4  -3   2   54.79    2.60
  -4  -3   2   46.80    2.20
  -4  -3   2   47.40    2.20
   3   3  -2  801.42   24.50
   3   3  -2  837.02   24.60
   3   3  -2  836.52   24.00
  -3  -3   2  825.32   25.60
  -3  -3   2  827.62   23.40
  -3  -3   2  807.22   23.30
  -3  -3   2  836.22   24.00
   2   3  -2  857.81   25.00
   2   3  -2  865.51   24.50
  -2  -3   2  829.42   24.80
  -2  -3   2  908.51   25.80
  -2  -3   2  826.72   24.10
   1   3  -2 1038.80   31.60
   1   3  -2 1111.29   30.00
   1   3  -2 1046.80   30.30
  -1  -3   2 1066.69   30.70
  -1  -3   2 1063.59   30.60
  -1  -3   2 1065.69   30.40
   0   3  -2 2670.33   74.79
   0   3  -2 2580.34   76.59
   0   3  -2 2620.14   73.19
   0  -3   2 2600.24   75.89
   0  -3   2 2673.93   73.89
   0  -3   2 2789.72   73.89
   0  -3   2 2693.53   73.89
  -2   3  -2 1002.00   34.20
  -2   3  -2 1077.59   32.00
   2  -3   2 1118.99   30.50
   2  -3   2 1097.89   32.30
   2  -3   2 1040.70   30.00
   2  -3   2 1108.19   30.40
  -3   3  -2 1338.47   38.60
  -3   3  -2 1198.48   40.20
   3  -3   2 1262.37   36.40
   3  -3   2 1272.77   36.10
   3  -3   2 1357.16   36.30
   3  -3   2 1293.07   37.90
  -4   3  -2  285.87   11.50
  -4   3  -2  279.27    8.40
  -4   3  -2  279.07   10.70
  -4   3  -2  289.17    9.10
   4  -3   2  277.87    9.00
   4  -3   2  276.67   10.00
   4  -3   2  263.57    8.60
   4  -3   2  279.37    9.30
   4  -3   2  282.07    9.30
  -5   3  -2 1297.87   39.40
  -5   3  -2 1206.48   38.30
  -5   3  -2 1179.28   35.00
  -5   3  -2 1171.38   34.70
   5  -3   2 1170.28   35.60
   5  -3   2 1251.37   35.10
   5  -3   2 1289.47   48.20
   5  -3   2 1221.68   35.20
  -6   3  -2  280.47    9.00
  -6   3  -2  272.47   10.10
  -6   3  -2  273.07    9.30
  -6   3  -2  264.17    8.70
   6  -3   2  264.07    7.90
   6  -3   2  281.67    9.80
   6  -3   2  267.87   10.20
   6  -3   2  275.27    9.70
   6  -3   2  271.97    8.70
  -7   3  -2  464.65   16.50
  -7   3  -2  459.95   14.10
  -7   3  -2  456.45   13.50
  -7   3  -2  444.96   14.10
   7  -3   2  452.05   13.70
   7  -3   2  446.26   12.70
   7  -3   2  460.95   14.90
   7  -3   2  406.96   30.10
  -8   3  -2   21.10    1.90
  -8   3  -2   20.80    2.20
  -8   3  -2   23.10    1.40
   8  -3   2   22.30    2.10
   8  -3   2   16.90    9.60
  -9   3  -2   22.00    1.00
  -9   3  -2   19.90    1.40
   9  -3   2   22.60    1.30
   9  -3   2   22.40    1.80
   8   2  -2   50.19    3.40
   8   2  -2   51.19    2.10
  -8  -2   2   52.19    1.70
   7   2  -2   32.60    1.90
   7   2  -2   32.50    3.30
   7   2  -2   29.90    1.70
  -7  -2   2   31.20    1.60
  -7  -2   2   32.20    1.50
   6   2  -2  140.49    5.20
   6   2  -2  145.79    7.60
  -6  -2   2  146.19    4.80
  -6  -2   2  144.09    5.10
  -6  -2   2  143.99    6.00
  -6  -2   2  146.29    5.30
   5   2  -2  419.26   14.20
   5   2  -2  402.16   12.60
   5   2  -2  428.86   13.60
   5   2  -2  395.46   17.20
   5   2  -2  402.96   13.40
  -5  -2   2  432.76   12.70
  -5  -2   2  415.06   12.80
  -5  -2   2  414.76   12.30
  -5  -2   2  424.36   12.50
   4   2  -2  317.47   12.50
   4   2  -2  334.97   11.40
   4   2  -2  338.77   11.00
   4   2  -2  322.57   11.40
  -4  -2   2  392.16   12.30
  -4  -2   2  318.07   10.20
  -4  -2   2  331.07   13.00
   3   2  -2 1623.44   45.50
   3   2  -2 1623.54   46.20
   3   2  -2 1650.93   46.10
  -3  -2   2 1685.43   47.40
  -3  -2   2 1625.64   46.70
  -3  -2   2 1559.74   45.10
   2   2  -2 2805.92   77.69
   2   2  -2 2785.72   77.09
   2   2  -2 2752.52   79.99
  -2  -2   2 2805.02   77.19
  -2  -2   2 2874.41   81.59
   1   2  -2 1206.48   36.20
   1   2  -2 1202.68   33.70
   1   2  -2 1184.08   35.10
   1   2  -2 1193.88   34.10
  -1  -2   2 1277.57   34.30
  -1  -2   2 1191.68   34.10
  -1  -2   2 1219.68   35.80
  -1  -2   2 1261.87   34.80
  -1   2  -2 4662.63  121.89
  -1   2  -2 4390.96  124.99
   1  -2   2 4315.07  122.49
  -2   2  -2  575.14   20.00
  -2   2  -2  576.64   17.80
  -2   2  -2  599.14   18.20
   2  -2   2  589.54   17.00
   2  -2   2  616.54   17.40
   2  -2   2  618.04   18.90
   2  -2   2  592.74   16.80
  -3   2  -2  800.52   23.60
  -3   2  -2  730.33   21.50
  -3   2  -2  741.73   23.10
  -3   2  -2  702.53   24.60
   3  -2   2  769.12   21.60
   3  -2   2  798.22   22.00
   3  -2   2  764.12   23.60
   3  -2   2  757.12   21.70
  -4   2  -2  872.31   27.10
  -4   2  -2  814.62   24.50
  -4   2  -2  848.12   24.60
  -4   2  -2  866.41   27.00
   4  -2   2  863.21   26.10
   4  -2   2  848.22   24.60
   4  -2   2  885.51   24.50
   4  -2   2  827.82   24.70
  -5   2  -2  296.27   10.30
  -5   2  -2  306.17   10.70
  -5   2  -2  308.47   10.00
  -5   2  -2  304.87   13.00
  -5   2  -2  295.17    9.70
  -5   2  -2  307.67   13.00
   5  -2   2  301.87   10.40
   5  -2   2  338.37   20.00
   5  -2   2  311.27   10.20
  -6   2  -2  175.88    6.50
  -6   2  -2  187.78   11.20
  -6   2  -2  178.08    6.00
  -6   2  -2  177.78    6.30
  -6   2  -2  173.48    7.10
   6  -2   2  184.18   16.70
   6  -2   2  179.08    7.00
   6  -2   2  172.68    5.40
   6  -2   2  184.18    8.30
  -7   2  -2  281.07    9.30
  -7   2  -2  293.67    8.90
   7  -2   2  266.17   32.80
   7  -2   2  294.07   10.50
  -8   2  -2   63.89    3.30
  -8   2  -2   63.49    2.40
  -8   2  -2   58.19    2.40
   8  -2   2   60.29    3.60
  -9   2  -2   58.99    2.00
  -9   2  -2   59.49    2.50
   9  -2   2   59.89    3.20
   9  -2   2   59.39    2.30
   8   1  -2  168.28    5.50
   8   1  -2  165.18    7.40
   8   1  -2  163.88    5.50
  -8  -1   2  172.18    5.20
  -8  -1   2  171.98    5.20
   7   1  -2  264.17   11.10
   7   1  -2  275.67    8.80
  -7  -1   2  283.17    8.90
  -7  -1   2  270.87    8.50
  -7  -1   2  271.67    8.30
   6   1  -2 2363.26   66.99
   6   1  -2 2437.96   65.59
   6   1  -2 2296.27   67.79
   6   1  -2 2332.37   68.29
  -6  -1   2 2362.76   65.79
  -6  -1   2 2341.57   65.49
  -6  -1   2 2363.96   65.59
   5   1  -2 1906.91   53.59
   5   1  -2 1892.11   53.79
   5   1  -2 1693.63   75.49
   5   1  -2 2000.70   54.99
   5   1  -2 1971.90   54.79
  -5  -1   2 1891.81   52.99
  -5  -1   2 1995.00   57.79
  -5  -1   2 1926.91   53.19
  -5  -1   2 1858.51   53.39
   4   1  -2 3200.88   85.29
   4   1  -2 2737.63  103.39
   4   1  -2 3070.59   84.39
   4   1  -2 3026.60   85.89
   4   1  -2 3212.98   85.19
  -4  -1   2 2976.50   84.09
  -4  -1   2 3155.88   86.99
  -4  -1   2 3012.60   84.19
  -4  -1   2 3091.89   85.29
   3   1  -2  207.28    7.40
   3   1  -2  219.78    6.80
   3   1  -2  216.18    7.10
   3   1  -2  215.18    8.80
   3   1  -2  222.78    7.30
  -3  -1   2  221.08    8.20
   2   1  -2  294.17    9.10
   2   1  -2  300.47    8.50
   2   1  -2  276.17   10.20
  -2  -1   2  284.37    8.70
  -2  -1   2  299.17    8.30
  -2  -1   2  298.47    9.60
   1   1  -2  761.72   22.50
   1   1  -2  818.82   22.10
   1   1  -2  776.52   25.10
   1   1  -2  798.12   23.00
   1   1  -2  805.52   22.60
  -1  -1   2  835.12   22.50
  -1  -1   2  789.22   22.10
  -1  -1   2  832.02   23.50
  -1  -1   2  808.42   23.50
  -1   1  -2 1814.42   52.19
  -1   1  -2 1856.31   49.60
  -1   1  -2 1868.81   49.50
  -1   1  -2 1649.73   49.60
   1  -1   2 1867.21   51.89
   1  -1   2 1730.43   49.99
   1  -1   2 1827.42   50.19
   1  -1   2 1835.22   49.30
   1  -1   2 1836.02   49.20
   1  -1   2 1803.52   49.30
   1  -1   2 1708.33   50.19
  -2   1  -2   11.90    0.90
  -2   1  -2   11.90    0.90
  -2   1  -2   11.80    1.30
  -2   1  -2   13.50    1.30
   2  -1   2   12.10    1.40
   2  -1   2   16.60    1.00
   2  -1   2   14.50    2.40
   2  -1   2   15.90    0.90
   2  -1   2   12.80    0.80
  -3   1  -2 4522.65  122.59
  -3   1  -2 4351.36  121.99
  -3   1  -2 4468.05  120.49
   3  -1   2 4247.57  120.59
   3  -1   2 4052.09  120.49
   3  -1   2 4481.25  121.59
   3  -1   2 4708.43  124.49
   3  -1   2 4335.67  120.79
  -4   1  -2  414.06   11.80
  -4   1  -2  408.56   14.60
  -4   1  -2  396.56   14.10
  -4   1  -2  382.16   12.00
  -4   1  -2  404.46   12.60
   4  -1   2  374.46   12.90
   4  -1   2  396.66   12.30
   4  -1   2  399.76   15.40
   4  -1   2  407.66   12.40
   4  -1   2  410.76   12.40
  -5   1  -2  145.09    6.00
  -5   1  -2  149.49    5.40
  -5   1  -2  148.59    8.40
  -5   1  -2  146.59    5.30
  -5   1  -2  153.58    6.30
   5  -1   2  174.78   14.20
   5  -1   2  148.19    6.00
   5  -1   2  144.59    6.00
   5  -1   2  152.08    6.00
  -6   1  -2  440.66   14.30
  -6   1  -2  430.46   13.10
  -6   1  -2  438.46   15.20
  -6   1  -2  424.16   13.20
  -6   1  -2  437.66   13.50
   6  -1   2  459.05   13.10
   6  -1   2  452.05   14.90
   6  -1   2  422.06   14.80
   6  -1   2  440.06   14.50
   6  -1   2  467.45   29.00
  -7   1  -2   21.40    2.00
  -7   1  -2   23.60    1.50
  -7   1  -2   24.20    1.40
   7  -1   2   24.20    7.10
   7  -1   2   25.00    2.50
  -8   1  -2   56.79    2.80
  -8   1  -2   55.19    2.10
   8  -1   2   42.60    8.90
   8  -1   2   55.79    3.60
   9  -1   2   33.80    1.60
   9  -1   2   33.90    2.30
   8   0  -2  138.59    4.80
   8   0  -2  139.79    4.90
   8   0  -2  134.99    6.30
  -8   0   2  138.69    4.60
  -8   0   2  138.39    4.50
   7   0  -2  256.97    8.60
   7   0  -2  276.77   10.60
   7   0  -2  261.27    8.60
  -7   0   2  261.77    8.50
  -7   0   2  277.27   10.30
  -7   0   2  246.28    8.70
  -7   0   2  263.27    8.20
   6   0  -2 2767.22   77.59
   6   0  -2 2775.32   74.39
   6   0  -2 2803.32   76.89
   6   0  -2 2723.43   76.19
   6   0  -2 2708.33   77.29
   6   0  -2 2795.22   77.49
  -6   0   2 2585.64   75.09
  -6   0   2 2744.13   75.39
  -6   0   2 2619.64   75.59
  -6   0   2 2599.14   74.79
   5   0  -2  393.46   28.40
   5   0  -2  478.85   15.40
   5   0  -2  485.85   14.40
   5   0  -2  481.85   15.20
  -5   0   2  452.95   14.30
  -5   0   2  458.15   13.90
  -5   0   2  470.55   13.80
  -4   0   2 9999.00  273.37
   3   0  -2  245.08    7.40
   3   0  -2  232.78    7.80
   3   0  -2  233.48    8.00
   3   0  -2  234.98    7.30
  -3   0   2  247.38    8.50
   1   0  -2 4249.47  118.99
  -1   0   2 4430.26  118.79
   0   0   2 3423.36   94.29
  -1   0  -2   36.80    1.60
  -1   0  -2   36.90    2.00
  -1   0  -2   42.00    1.40
  -1   0  -2   40.30    1.90
  -1   0  -2   39.70    1.70
  -1   0  -2   38.80    1.70
   1   0   2   36.60    1.50
   1   0   2   38.50    3.00
  -2   0  -2 1271.67   36.50
  -2   0  -2 1299.17   36.60
  -2   0  -2 1277.27   36.30
  -2   0  -2 1334.47   36.30
  -2   0  -2 1294.77   37.40
   2   0   2 1237.58   35.90
   2   0   2 1303.07   36.10
   2   0   2 1355.56   39.80
  -3   0  -2 1461.45   42.60
  -3   0  -2 1451.65   43.40
  -3   0  -2 1490.15   42.00
  -3   0  -2 1496.45   41.80
   3   0   2 1503.55   41.10
   3   0   2 1497.85   43.00
   3   0   2 1432.16   41.50
   3   0   2 1449.06   41.50
   3   0   2 1544.75   46.20
  -4   0  -2 1148.79   34.00
  -4   0  -2 1141.69   36.20
  -4   0  -2 1123.09   32.50
  -4   0  -2 1043.90   31.50
   4   0   2 1164.18   31.70
   4   0   2 1073.49   32.00
   4   0   2 1136.39   31.40
   4   0   2 1130.19   37.40
   4   0   2 1153.98   33.30
   4   0   2 1086.29   33.50
  -5   0  -2  157.38    6.30
  -5   0  -2  171.98    9.50
  -5   0  -2  175.18    7.30
  -5   0  -2  158.58    5.60
  -5   0  -2  165.78    5.80
   5   0   2  181.08   15.40
   5   0   2  163.18    6.70
   5   0   2  170.28    6.70
   5   0   2  172.18    5.60
   5   0   2  173.28    6.70
  -6   0  -2  105.49    3.90
  -6   0  -2  119.39    4.00
  -6   0  -2  109.09    4.90
  -6   0  -2  109.19    6.50
   6   0   2  110.49    5.90
   6   0   2  108.09    5.40
   6   0   2  114.69   14.10
   6   0   2  114.09    5.80
   6   0   2  110.49    3.90
  -7   0  -2  114.29    3.90
  -7   0  -2  122.59    5.00
  -7   0  -2  115.39    6.60
   7   0   2  109.69   14.90
   7   0   2  124.49    6.20
  -8   0  -2   14.10    1.20
  -8   0  -2   13.60    1.90
   8   0   2   15.00    1.90
   8   0   2   10.10    4.50
   9  -1  -2   40.70    1.90
   9  -1  -2   45.70    1.90
  -9   1   2   41.30    1.60
   8  -1  -2  103.29    3.90
   8  -1  -2  104.69    4.10
   8  -1  -2  103.69    5.10
   8  -1  -2  108.69    4.00
  -8   1   2  104.79    4.00
  -8   1   2  105.89    4.20
  -8   1   2  100.69    4.00
  -8   1   2  103.49    3.70
   7  -1  -2   16.90    1.60
   7  -1  -2   16.40    2.00
   7  -1  -2   17.30    1.00
   7  -1  -2   17.90    1.50
   7  -1  -2   18.70    1.70
   7  -1  -2   13.80    8.70
  -7   1   2   18.20    1.60
  -7   1   2   21.30    1.30
   6  -1  -2  268.97    7.80
   6  -1  -2  268.77    9.60
   6  -1  -2  260.47   10.30
   6  -1  -2  258.77    8.80
   6  -1  -2  264.77   10.60
   6  -1  -2  276.97    9.50
   6  -1  -2  257.07    9.60
  -6   1   2  256.67    8.40
  -6   1   2  257.07    8.60
   5  -1  -2   11.50    1.40
   5  -1  -2   10.80    4.70
   5  -1  -2    6.60    1.40
   5  -1  -2    6.20    1.40
  -5   1   2    8.40    2.30
  -5   1   2    6.90    0.90
  -5   1   2    7.70    1.50
   4  -1  -2  701.93   20.30
   4  -1  -2  686.13   21.10
   4  -1  -2  711.83   20.90
  -4   1   2  669.83   19.90
  -4   1   2  703.53   21.80
   2  -1  -2 2883.21   79.19
   2  -1  -2 2929.21   79.29
   2  -1  -2 2869.51   79.29
  -2   1   2 2857.31   79.09
  -2   1   2 2999.80   80.09
  -2   1   2 2805.92   79.69
   0  -1  -2 1373.96   38.20
   0  -1  -2 1439.26   38.70
   0  -1  -2 1365.56   37.90
   0  -1  -2 1445.96   38.00
   0  -1  -2 1448.96   38.50
   0   1   2 1174.48   38.80
   0   1   2 1361.86   37.90
   0   1   2 1404.06   38.00
  -2  -1  -2  206.98    7.50
  -2  -1  -2  214.08    7.10
  -2  -1  -2  218.58    8.00
  -2  -1  -2  215.78    7.30
  -2  -1  -2  205.78    7.00
  -3  -1  -2 6301.27  179.38
  -3  -1  -2 6199.48  177.08
  -3  -1  -2 6608.04  178.28
  -3  -1  -2 6519.55  177.68
   3   1   2 6412.56  176.48
   3   1   2 6118.29  176.98
   3   1   2 7042.20  184.38
   3   1   2 6474.25  177.18
  -4  -1  -2  248.88    9.10
  -4  -1  -2  239.58    9.40
  -4  -1  -2  258.47   11.10
  -4  -1  -2  240.28    9.80
   4   1   2  242.38    7.60
   4   1   2  242.28    8.50
   4   1   2  240.78    7.60
   4   1   2  233.38    8.30
   4   1   2  245.88   14.60
   4   1   2  252.27   17.30
  -5  -1  -2   93.59   11.10
  -5  -1  -2   83.59    5.10
  -5  -1  -2   79.69    3.00
  -5  -1  -2   82.69    3.10
   5   1   2   85.19   12.10
   5   1   2   81.59    4.30
   5   1   2   86.39    3.20
   5   1   2   85.89    4.70
   5   1   2   87.09    3.30
  -6  -1  -2   30.40    5.40
  -6  -1  -2   32.40    3.50
  -6  -1  -2   32.40    2.20
   6   1   2   35.90    2.30
   6   1   2   33.50    4.10
   6   1   2   32.30    8.00
   6   1   2   27.30    5.00
  -7  -1  -2  106.89    5.50
  -7  -1  -2  109.69    4.40
  -7  -1  -2  104.19    3.40
   7   1   2   95.49   13.60
   7   1   2  104.29    5.90
  -8  -1  -2   81.99    3.10
   8   1   2   63.29   12.60
   8   1   2   82.19    4.50
   8   1   2   81.29    2.70
   9  -2  -2   17.40    1.20
   9  -2  -2   17.70    1.20
  -9   2   2   17.80    1.00
  -9   2   2   19.70    1.10
   8  -2  -2  129.89    4.90
   8  -2  -2  129.29    4.10
   8  -2  -2  137.09    5.70
   8  -2  -2  132.79    4.80
   8  -2  -2  139.29    4.80
   8  -2  -2  134.49    5.00
  -8   2   2  134.09    5.00
  -8   2   2  131.09    4.50
  -8   2   2  127.09    4.80
  -8   2   2  132.69    5.10
   7  -2  -2  104.09    5.00
   7  -2  -2  109.19    4.30
   7  -2  -2  107.39    4.40
   7  -2  -2  107.09    4.50
   7  -2  -2  111.09    3.50
  -7   2   2  104.39    4.30
  -7   2   2  108.09    4.50
  -7   2   2  107.19    5.10
  -7   2   2  105.69    4.00
   6  -2  -2 1059.39   30.20
   6  -2  -2 1064.19   32.40
   6  -2  -2 1021.00   31.00
   6  -2  -2 1044.60   31.90
   6  -2  -2 1065.89   30.90
   6  -2  -2 1042.20   29.00
  -6   2   2 1035.90   30.30
  -6   2   2 1010.60   29.50
  -6   2   2 1015.50   29.90
  -6   2   2 1038.90   32.50
   5  -2  -2  237.68    9.20
   5  -2  -2  250.47    8.50
   5  -2  -2  241.68    9.50
  -5   2   2  239.78   10.20
  -5   2   2  268.37   12.60
  -5   2   2  250.67    8.10
  -5   2   2  223.98    7.90
   4  -2  -2  207.08    6.90
   4  -2  -2  202.68    8.00
   4  -2  -2  200.88    7.70
  -4   2   2  196.68    6.50
  -4   2   2  198.08    7.80
  -4   2   2  201.88    9.60
   3  -2  -2 1963.30   54.69
   3  -2  -2 1880.71   54.39
   3  -2  -2 1946.41   53.79
   3  -2  -2 1918.21   53.89
  -3   2   2 1971.10   54.49
  -3   2   2 1958.90   56.59
   2  -2  -2  125.19    4.40
   2  -2  -2  121.09    3.80
   2  -2  -2  127.69    4.20
   2  -2  -2  128.39    4.60
   2  -2  -2  126.39    4.30
  -2   2   2  122.49    4.30
  -2   2   2  113.89    4.00
  -2   2   2  109.99    5.30
   1  -2  -2  186.48    6.40
   1  -2  -2  196.48    6.20
   1  -2  -2  184.58    6.40
   1  -2  -2  188.48    6.20
   1  -2  -2  193.58    5.90
   1  -2  -2  190.08    5.90
  -1   2   2  191.18    6.70
   0  -2  -2  752.92   22.10
   0  -2  -2  780.62   22.70
   0  -2  -2  805.22   22.00
   0  -2  -2  795.02   22.90
   0   2   2  772.42   22.10
   0   2   2  769.62   22.20
   0   2   2  783.82   22.20
  -1  -2  -2 2221.68   62.09
  -1  -2  -2 2205.38   62.59
  -1  -2  -2 2001.00   61.39
  -1  -2  -2 2159.98   62.29
  -1  -2  -2 2229.68   61.79
   1   2   2 2517.55   63.59
  -2  -2  -2  927.71   27.40
  -2  -2  -2  903.11   27.50
  -2  -2  -2  866.01   26.20
  -2  -2  -2  907.91   26.50
  -2  -2  -2  908.81   26.60
   2   2   2  932.81   26.20
  -3  -2  -2  535.15   16.50
  -3  -2  -2  539.35   18.30
  -3  -2  -2  552.64   18.60
  -3  -2  -2  547.15   16.10
  -3  -2  -2  529.45   16.90
   3   2   2  510.35   15.50
   3   2   2  536.75   16.40
   3   2   2  542.95   16.20
   3   2   2  522.75   15.60
  -4  -2  -2  562.14   17.30
  -4  -2  -2  589.34   21.30
  -4  -2  -2  555.74   19.40
  -4  -2  -2  580.34   18.80
   4   2   2  590.44   30.60
   4   2   2  559.04   17.80
   4   2   2  583.54   16.80
   4   2   2  561.54   18.00
   4   2   2  588.04   16.90
  -5  -2  -2   28.20    2.90
  -5  -2  -2   23.00    3.10
  -5  -2  -2   23.30    1.90
  -5  -2  -2   24.60    1.30
   5   2   2   26.00    6.80
   5   2   2   28.40    3.10
   5   2   2   24.90    2.10
   5   2   2   25.90    1.60
   5   2   2   25.70    1.50
  -6  -2  -2   65.49    2.30
  -6  -2  -2   68.79    3.30
  -6  -2  -2   65.69    4.20
   6   2   2   58.59   10.80
   6   2   2   68.39    5.10
   6   2   2   69.09    2.70
  -7  -2  -2  165.88    5.70
  -7  -2  -2  167.18    6.60
   7   2   2  153.08    7.60
   9  -3  -2   32.10    1.60
   9  -3  -2   34.60    1.70
   9  -3  -2   32.10    1.70
  -9   3   2   35.40    1.50
  -9   3   2   33.50    1.70
   8  -3  -2   32.70    2.00
   8  -3  -2   29.10    1.30
   8  -3  -2   28.30    2.00
   8  -3  -2   26.90    1.80
   8  -3  -2   28.80    1.80
   8  -3  -2   28.00    1.70
  -8   3   2   27.40    1.90
  -8   3   2   29.40    2.30
  -8   3   2   31.20    1.90
  -8   3   2   28.60    1.60
   7  -3  -2  131.39    5.20
   7  -3  -2  128.99    5.10
   7  -3  -2  128.29    4.90
   7  -3  -2  136.49    4.10
   7  -3  -2  130.29    5.40
  -7   3   2  116.79    4.60
  -7   3   2  131.39    5.30
   6  -3  -2  422.06   15.10
   6  -3  -2  416.06   14.10
   6  -3  -2  433.06   13.30
   6  -3  -2  442.26   15.50
   6  -3  -2  429.96   13.20
   6  -3  -2  422.66   12.10
   6  -3  -2  415.26   13.30
  -6   3   2  414.16   17.20
  -6   3   2  414.66   13.20
  -6   3   2  436.56   15.90
   5  -3  -2  580.74   17.80
   5  -3  -2  570.74   18.60
   5  -3  -2  577.84   19.00
  -5   3   2  572.44   19.50
  -5   3   2  533.95   17.00
  -5   3   2  616.14   22.40
  -5   3   2  564.14   17.10
   4  -3  -2  884.41   26.40
   4  -3  -2  883.01   26.70
   4  -3  -2  909.71   25.80
   4  -3  -2  873.51   25.70
  -4   3   2  845.12   26.40
  -4   3   2  880.81   25.00
   3  -3  -2  927.11   27.10
   3  -3  -2  935.11   27.00
   3  -3  -2  967.80   26.70
   3  -3  -2  904.91   26.30
   3  -3  -2  895.91   25.80
  -3   3   2  879.51   25.90
  -3   3   2  895.31   26.30
  -3   3   2  905.31   27.10
  -3   3   2  933.31   28.80
   2  -3  -2   25.70    1.80
   2  -3  -2   28.10    1.60
   2  -3  -2   26.30    1.90
   2  -3  -2   27.80    1.30
   2  -3  -2   27.80    2.00
   2  -3  -2   28.60    1.90
  -2   3   2   24.60    2.70
   1  -3  -2  143.09    5.70
   1  -3  -2  146.49    5.60
   1  -3  -2  146.99    4.90
   1  -3  -2  139.39    4.80
  -1   3   2  142.89    5.80
  -1   3   2  142.19    5.00
   0  -3  -2  906.51   26.20
   0  -3  -2  850.01   25.30
   0  -3  -2  926.91   26.60
   0   3   2  890.91   25.50
   0   3   2  855.41   25.70
  -1  -3  -2 2865.91   80.99
  -1  -3  -2 2990.30   81.79
  -1  -3  -2 2878.21   80.39
   1   3   2 2841.92   80.29
   1   3   2 2885.81   79.39
  -2  -3  -2  311.77   11.80
  -2  -3  -2  318.17   11.70
  -2  -3  -2  314.07   11.00
  -2  -3  -2  313.17   10.80
   2   3   2  315.87   11.00
   2   3   2  320.87    9.60
  -3  -3  -2 1679.63   49.20
  -3  -3  -2 1782.52   52.79
  -3  -3  -2 1714.43   50.29
  -3  -3  -2 1743.73   52.09
  -3  -3  -2 1742.73   50.79
   3   3   2 1758.52   64.49
   3   3   2 1786.62   48.90
   3   3   2 1803.42   49.00
   3   3   2 1768.92   50.19
  -4  -3  -2  125.49    7.60
  -4  -3  -2  124.69    6.60
  -4  -3  -2  120.79    4.80
  -4  -3  -2  119.49    6.00
   4   3   2  122.09    4.50
   4   3   2  113.59   18.80
   4   3   2  121.19    4.50
   4   3   2  122.49    4.40
   4   3   2  117.69    5.50
  -5  -3  -2  326.47   11.80
  -5  -3  -2  334.37   11.90
   5   3   2  325.17   10.50
   5   3   2  332.47   10.00
   5   3   2  293.97   27.40
  -6  -3  -2   22.10    1.10
  -6  -3  -2   20.40    1.60
  -6  -3  -2   20.90    2.00
   6   3   2   22.10    1.30
   6   3   2   25.20    3.60
   6   3   2   16.70    6.40
  -7  -3  -2   54.79    2.30
  -7  -3  -2   55.29    2.70
   7   3   2   53.59    4.10
   9  -4  -2  162.08    5.10
   9  -4  -2  172.58    5.50
   9  -4  -2  154.48    5.40
   9  -4  -2  167.48    5.50
  -9   4   2  173.08    5.20
  -9   4   2  176.48    5.40
   8  -4  -2   72.49    2.40
   8  -4  -2   68.99    3.10
   8  -4  -2   69.09    3.00
   8  -4  -2   73.39    3.20
   8  -4  -2   71.39    3.30
  -8   4   2   74.39    3.50
  -8   4   2   74.59    3.40
  -8   4   2   74.29    2.90
  -8   4   2   72.09    3.60
   7  -4  -2  205.68    7.10
   7  -4  -2  204.38    7.00
   7  -4  -2  190.58    6.60
   7  -4  -2  190.38    6.80
   7  -4  -2  183.18    6.50
   7  -4  -2  202.18    5.90
  -7   4   2  186.48    6.50
  -7   4   2  200.38    7.90
  -7   4   2  197.78    7.20
  -7   4   2  189.18    6.90
   6  -4  -2  181.08    6.50
   6  -4  -2  181.38    5.50
   6  -4  -2  174.28    6.10
   6  -4  -2  169.68    6.30
   6  -4  -2  190.28    8.50
   6  -4  -2  179.68    5.30
   6  -4  -2  177.98    5.80
   6  -4  -2  176.88    6.20
   6  -4  -2  173.88    6.00
   6  -4  -2  187.08    7.50
  -6   4   2  178.78    6.70
  -6   4   2  170.38    6.50
   5  -4  -2  412.96   14.10
   5  -4  -2  402.66   16.00
  -5   4   2  389.96   12.40
  -5   4   2  390.66   12.40
  -5   4   2  385.16   17.30
   4  -4  -2 1583.04   44.70
   4  -4  -2 1539.75   44.40
   4  -4  -2 1561.14   45.30
  -4   4   2 1600.14   48.40
  -4   4   2 1500.65   43.40
   3  -4  -2  936.41   26.50
   3  -4  -2  816.72   27.30
   3  -4  -2  928.31   27.20
   3  -4  -2  946.51   27.30
  -3   4   2  902.11   29.20
  -3   4   2  924.71   25.60
   2  -4  -2  295.97    8.70
   2  -4  -2  292.57    9.50
   2  -4  -2  311.07   10.50
   2  -4  -2  294.77   10.30
   2  -4  -2  300.87   10.10
  -2   4   2  290.17   11.20
   1  -4  -2   49.80    2.50
   1  -4  -2   47.80    3.20
   1  -4  -2   46.90    3.30
   1  -4  -2   51.99    2.50
  -1   4   2   60.89    2.90
  -1   4   2   50.89    3.40
  -1   4   2   48.50    1.90
   0  -4  -2  847.12   26.20
   0  -4  -2  853.11   24.80
   0   4   2  824.92   25.40
   0   4   2  851.21   24.00
   0   4   2  879.21   25.10
  -1  -4  -2  470.15   16.40
  -1  -4  -2  429.06   13.70
  -1  -4  -2  464.65   15.60
  -1  -4  -2  462.75   14.80
   1   4   2  474.65   13.70
   1   4   2  454.75   13.80
   1   4   2  494.65   14.20
   1   4   2  447.96   14.60
  -2  -4  -2   50.69    2.60
  -2  -4  -2   57.59    3.70
  -2  -4  -2   56.79    4.60
  -2  -4  -2   51.49    3.80
   2   4   2   54.19    3.50
   2   4   2   52.49    2.50
  -3  -4  -2  514.45   15.30
  -3  -4  -2  543.15   19.80
  -3  -4  -2  527.95   16.10
  -3  -4  -2  518.05   17.10
  -3  -4  -2  551.44   18.20
   3   4   2  548.55   16.00
   3   4   2  529.05   15.90
   3   4   2  532.05   15.90
  -4  -4  -2  609.34   23.80
  -4  -4  -2  633.14   18.40
  -4  -4  -2  630.44   17.50
   4   4   2  605.14   20.00
   4   4   2  622.74   18.10
   4   4   2  536.75   33.50
   4   4   2  630.74   18.10
  -5  -4  -2  247.68    7.40
  -5  -4  -2  250.67    9.10
  -5  -4  -2  253.17    8.30
   5   4   2  253.87    8.00
   5   4   2  252.07    8.00
  -6  -4  -2   13.10    1.30
   6   4   2   18.20    3.40
   6   4   2   13.40    0.90
   9  -5  -2   59.89    2.50
   9  -5  -2   58.59    2.20
   9  -5  -2   60.69    1.90
   9  -5  -2   63.29    2.50
  -9   5   2   61.69    2.30
  -9   5   2   63.19    2.40
   8  -5  -2   21.80    1.00
   8  -5  -2   23.60    1.60
   8  -5  -2   22.70    1.60
   8  -5  -2   20.20    1.50
  -8   5   2   23.60    1.90
  -8   5   2   23.80    1.60
  -8   5   2   20.00    1.30
  -8   5   2   20.80    1.90
   7  -5  -2  519.55   16.20
   7  -5  -2  560.14   16.50
   7  -5  -2  563.94   16.60
   7  -5  -2  542.55   15.40
  -7   5   2  553.04   16.90
  -7   5   2  552.74   16.60
  -7   5   2  513.85   16.00
   6  -5  -2  349.47   13.70
   6  -5  -2  366.76   12.90
   6  -5  -2  358.66   11.50
   6  -5  -2  365.06   10.80
   6  -5  -2  365.86   11.50
   6  -5  -2  362.46   10.30
   6  -5  -2  357.66   11.30
   6  -5  -2  364.06   10.50
  -6   5   2  352.86   11.60
  -6   5   2  369.26   11.90
   5  -5  -2   55.29    2.00
   5  -5  -2   59.09    2.20
   5  -5  -2   56.29    2.30
   5  -5  -2   55.99    2.80
   5  -5  -2   53.49    2.40
   5  -5  -2   54.79    2.00
   5  -5  -2   50.49    4.10
   5  -5  -2   53.09    3.60
  -5   5   2   55.69    3.00
  -5   5   2   57.79    3.00
   4  -5  -2  312.37   11.10
   4  -5  -2  291.37   12.10
   4  -5  -2  300.57   12.90
  -4   5   2  300.87    9.30
  -4   5   2  268.87   13.30
   3  -5  -2  200.58    8.10
   3  -5  -2  199.38    7.50
   3  -5  -2  212.48    8.60
  -3   5   2  207.08   10.10
  -3   5   2  219.98    7.80
   2  -5  -2 2136.69   59.89
   2  -5  -2 2048.20   59.99
   2  -5  -2 2045.50   58.29
  -2   5   2 2025.80   57.39
  -2   5   2 2064.59   61.69
  -2   5   2 2139.39   58.99
   1  -5  -2  494.55   15.20
   1  -5  -2  475.25   17.30
   1  -5  -2  531.15   17.40
  -1   5   2  529.65   16.30
  -1   5   2  507.45   17.20
   0  -5  -2 1953.30   56.69
   0  -5  -2 2018.50   58.49
   0  -5  -2 2001.80   59.09
   0   5   2 2033.80   57.29
   0   5   2 2021.40   55.89
   0   5   2 2073.09   55.79
   0   5   2 1951.90   57.79
  -1  -5  -2  100.59    5.20
  -1  -5  -2   91.89    4.40
  -1  -5  -2  106.19    6.90
  -1  -5  -2  100.99    6.10
   1   5   2  103.09    4.00
   1   5   2  101.59    5.20
   1   5   2  101.89    3.90
  -2  -5  -2   37.90    1.70
  -2  -5  -2   40.00    4.20
  -2  -5  -2   37.00    3.90
  -2  -5  -2   30.60    2.60
  -2  -5  -2   42.00    5.20
  -2  -5  -2   39.50    2.50
   2   5   2   41.10    2.20
   2   5   2   46.20    2.30
   2   5   2   40.10    2.20
   3   5   2  639.74   19.00
   3   5   2  636.24   18.90
  -4  -5  -2  147.09    5.90
   4   5   2  142.89    5.10
   4   5   2  139.89    5.30
   4   5   2  135.59    5.10
  -5  -5  -2   58.69    2.90
   5   5   2   56.69    4.90
   5   5   2   56.09    2.40
   8  -6  -2   66.39    2.70
   8  -6  -2   66.59    2.90
   8  -6  -2   67.89    2.20
   8  -6  -2   64.49    2.80
  -8   6   2   63.79    3.30
  -8   6   2   64.89    2.80
  -8   6   2   61.79    2.50
  -8   6   2   63.99    3.00
  -7   6   2   70.79    3.00
  -7   6   2   66.79    3.40
  -7   6   2   65.59    3.20
   6  -6  -2  209.58    7.40
   6  -6  -2  211.78    7.40
   6  -6  -2  211.28    6.50
   6  -6  -2  220.78    6.80
   6  -6  -2  217.78    6.30
  -6   6   2  214.18    7.70
  -6   6   2  214.58    7.90
   5  -6  -2  239.68    9.50
   5  -6  -2  250.97    8.30
   5  -6  -2  245.68    7.50
   5  -6  -2  251.17    7.30
   5  -6  -2  250.77    7.40
   5  -6  -2  244.08    8.30
   5  -6  -2  253.67    7.90
  -5   6   2  244.68    8.60
  -5   6   2  257.67    8.80
   4  -6  -2 2149.88   59.69
   4  -6  -2 2099.79   58.59
   4  -6  -2 2159.78   59.29
   4  -6  -2 2166.48   58.89
   4  -6  -2 2150.48   58.69
   4  -6  -2 2077.29   60.79
   4  -6  -2 2172.28   62.39
   4  -6  -2 2136.39   59.59
  -4   6   2 2082.89   60.89
  -4   6   2 2164.58   59.99
   3  -6  -2    2.10    0.50
   3  -6  -2    1.80    1.80
   3  -6  -2    2.80    0.70
  -3   6   2    2.40    0.70
  -3   6   2    1.70    0.90
  -3   6   2    2.50    2.10
  -3   6   2    3.10    3.00
   2  -6  -2 1497.15   42.60
   2  -6  -2 1554.14   45.90
   2  -6  -2 1513.05   45.60
   2  -6  -2 1502.45   41.90
   2  -6  -2 1597.14   42.70
   2  -6  -2 1478.15   42.00
   2  -6  -2 1504.75   42.30
   2  -6  -2 1475.75   42.30
   2  -6  -2 1507.05   43.60
   2  -6  -2 1498.35   42.10
  -2   6   2 1525.75   46.80
  -2   6   2 1484.85   42.70
  -2   6   2 1598.04   42.70
   1  -6  -2 1939.31   56.69
   1  -6  -2 1884.91   56.79
   1  -6  -2 1968.30   52.49
   1  -6  -2 1751.42   53.99
   1  -6  -2 1891.91   53.39
   1  -6  -2 1756.02   52.99
   1  -6  -2 1961.60   53.09
  -1   6   2 1972.00   53.39
  -1   6   2 2016.30   53.29
   0  -6  -2 1846.92   55.39
   0  -6  -2 1867.01   50.59
   0  -6  -2 1807.22   50.19
   0  -6  -2 1790.32   51.09
   0  -6  -2 1795.82   50.29
   0  -6  -2 1767.92   54.39
   0  -6  -2 1820.02   51.09
   0   6   2 1894.21   51.19
   0   6   2 1852.71   51.09
   0   6   2 1776.32   51.19
  -1  -6  -2  246.18    7.60
  -1  -6  -2  251.17    7.40
  -1  -6  -2  249.48   16.20
  -1  -6  -2  246.98    8.20
  -1  -6  -2  241.18    8.40
  -1  -6  -2  249.97   13.90
  -1  -6  -2  242.88    7.40
   1   6   2  260.37    8.30
   1   6   2  236.38    8.10
   1   6   2  248.38    8.30
  -2  -6  -2  919.51   25.50
  -2  -6  -2  873.01   25.60
  -2  -6  -2  932.51   27.00
  -2  -6  -2  916.91   25.60
   2   6   2  910.61   26.60
   2   6   2  917.91   26.70
   2   6   2  935.11   26.40
  -3  -6  -2 1121.09   32.30
  -3  -6  -2 1103.89   30.80
   3   6   2 1098.29   31.70
   3   6   2 1133.39   31.90
   3   6   2 1112.19   31.80
  -4  -6  -2    2.30    0.60
  -4  -6  -2    3.90    0.80
   4   6   2    3.00    1.50
   4   6   2    2.90    0.90
   4   6   2    2.30    0.50
  -5  -6  -2  141.59    4.50
  -5  -6  -2  142.29    4.70
   5   6   2  131.49    4.20
   8  -7  -2  134.19    4.70
   8  -7  -2  139.89    4.80
   8  -7  -2  137.79    4.10
  -8   7   2  142.19    4.70
  -8   7   2  136.79    4.40
  -8   7   2  138.89    5.20
   7  -7  -2  225.98    7.60
   7  -7  -2  228.08    7.60
   7  -7  -2  235.88    6.70
  -7   7   2  223.98    7.90
  -7   7   2  233.38    7.20
  -7   7   2  228.58    7.70
   6  -7  -2  389.16   11.40
   6  -7  -2  397.26   11.80
   6  -7  -2  388.26   11.40
   6  -7  -2  428.16   12.50
   6  -7  -2  393.36   13.50
  -6   7   2  401.96   12.70
  -6   7   2  392.96   12.90
   5  -7  -2   57.09    2.10
   5  -7  -2   59.39    2.20
   5  -7  -2   59.19    2.10
   5  -7  -2   57.99    2.50
   5  -7  -2   60.19    2.90
   5  -7  -2   62.49    2.90
  -5   7   2   57.19    3.50
  -5   7   2   54.89    3.10
   4  -7  -2  428.26   12.10
   4  -7  -2  426.36   12.90
   4  -7  -2  424.66   12.00
   4  -7  -2  430.66   12.30
   4  -7  -2  419.06   13.00
   4  -7  -2  424.06   12.70
  -4   7   2  405.06   13.60
  -4   7   2  412.66   13.40
   3  -7  -2  545.35   14.70
   3  -7  -2  514.75   14.50
   3  -7  -2  510.95   14.40
   3  -7  -2  537.85   15.00
   3  -7  -2  504.05   15.20
   3  -7  -2  469.75   16.20
   3  -7  -2  475.75   18.50
   3  -7  -2  508.75   15.10
  -3   7   2  500.45   15.50
  -3   7   2  498.95   15.50
  -3   7   2  482.95   19.60
   2  -7  -2 2257.97   68.79
   2  -7  -2 2582.04   68.89
   2  -7  -2 2427.36   73.39
   2  -7  -2 2498.35   68.69
   2  -7  -2 2427.56   69.39
   2  -7  -2 2462.05   68.79
   2  -7  -2 2408.66   73.39
   2  -7  -2 2606.64   69.09
   2  -7  -2 2522.45   69.49
  -2   7   2 2840.32   76.19
  -2   7   2 2428.96   69.79
  -2   7   2 2560.54   69.89
   1  -7  -2  746.33   31.60
   1  -7  -2  834.82   23.50
  -1   7   2  821.32   23.80
  -1   7   2  786.42   23.60
  -1   7   2  836.42   23.80
   0  -7  -2 1852.71   51.99
   0  -7  -2 1865.01   51.89
   0  -7  -2 1890.51   51.69
   0  -7  -2 1809.32   52.39
   0  -7  -2 1855.51   51.79
   0  -7  -2 1978.70   52.69
   0   7   2 1881.51   52.89
   0   7   2 1865.81   52.89
   0   7   2 1897.51   52.79
  -1  -7  -2   32.70    1.60
  -1  -7  -2   34.80    1.50
  -1  -7  -2   36.20    2.10
  -1  -7  -2   35.00    1.50
  -1  -7  -2   34.80    2.00
   1   7   2   40.60    2.40
   1   7   2   36.60    2.20
   1   7   2   34.40    2.10
  -2  -7  -2   83.99    3.50
  -2  -7  -2   89.79    3.70
  -2  -7  -2   84.29    2.80
  -2  -7  -2   91.99    2.80
   2   7   2   87.39    3.60
   2   7   2   99.29    6.90
   2   7   2   87.29    3.80
   2   7   2   86.29    3.70
  -3  -7  -2  468.65   14.30
  -3  -7  -2  472.65   14.20
   3   7   2  479.05   14.30
   3   7   2  516.65   18.40
   3   7   2  490.75   14.30
   7  -8  -2  118.49    3.60
   7  -8  -2  120.39    4.20
   7  -8  -2  119.09    4.20
  -7   8   2  119.69    4.90
  -7   8   2  118.19    4.30
  -7   8   2  119.09    3.90
   6  -8  -2   61.59    2.30
   6  -8  -2   59.29    2.70
   6  -8  -2   61.09    2.10
   6  -8  -2   66.69    2.20
   6  -8  -2   60.69    2.80
  -6   8   2   62.59    3.00
  -6   8   2   61.29    2.70
  -6   8   2   61.19    3.20
   5  -8  -2    5.00    0.60
   5  -8  -2    6.10    0.90
   5  -8  -2    6.30    0.70
   5  -8  -2    3.60    0.80
   5  -8  -2    5.30    0.50
   5  -8  -2    5.30    0.50
  -5   8   2    6.60    1.00
  -5   8   2    4.90    1.10
  -5   8   2    6.40    1.10
   4  -8  -2   15.10    2.00
   4  -8  -2   14.00    1.10
   4  -8  -2   14.00    0.90
   4  -8  -2   12.50    0.80
   4  -8  -2   14.40    1.60
   4  -8  -2   14.90    0.80
  -4   8   2   12.20    1.60
  -4   8   2   12.60    1.50
   3  -8  -2   29.50    1.70
   3  -8  -2   30.20    1.20
   3  -8  -2   27.60    1.80
   3  -8  -2   29.60    1.30
   3  -8  -2   27.20    1.40
  -3   8   2   30.70    2.10
  -3   8   2   25.50    2.20
  -3   8   2   30.50    2.20
  -3   8   2   27.80    4.90
   2  -8  -2  233.98    7.50
   2  -8  -2  235.68    7.00
   2  -8  -2  217.78    7.00
   2  -8  -2  234.88    6.80
  -2   8   2  224.28    8.10
  -2   8   2  241.28    8.10
  -2   8   2  236.18   12.00
   1  -8  -2  188.58    5.80
   1  -8  -2  189.88    6.30
   1  -8  -2  190.98    6.00
   1  -8  -2  189.18    6.40
  -1   8   2  187.48    6.70
  -1   8   2  189.98    6.90
  -1   8   2  192.58    7.00
  -1   8   2  202.28   10.80
   0  -8  -2   15.60    0.90
   0  -8  -2   16.70    1.30
   0  -8  -2   15.10    1.00
   0  -8  -2   15.70    1.00
   0  -8  -2   15.20    0.80
   0   8   2   16.70    1.50
   0   8   2   21.30    3.40
   0   8   2   21.10    1.50
   0   8   2   19.30    1.70
  -1  -8  -2  176.88    5.50
  -1  -8  -2  170.98    5.50
  -1  -8  -2  178.78    5.90
   1   8   2  181.58    6.20
   1   8   2  178.18    6.10
   1   8   2  177.38    6.40
   1   8   2  187.28    9.80
  -2  -8  -2  246.58    7.40
  -2  -8  -2  249.78    7.70
   2   8   2  252.07    7.90
   2   8   2  277.47   14.90
   2   8   2  247.08    7.90
   6  -9  -2   56.39    2.00
   6  -9  -2   58.09    1.80
   6  -9  -2   58.69    2.30
   6  -9  -2   55.79    1.90
  -6   9   2   59.29    2.50
   5  -9  -2   41.10    1.60
   5  -9  -2   43.10    1.80
   5  -9  -2   38.90    1.90
  -5   9   2   40.10    2.30
   4  -9  -2   24.40    1.00
   4  -9  -2   23.20    1.00
   4  -9  -2   23.10    1.20
   4  -9  -2   23.70    1.10
   4  -9  -2   22.20    1.40
  -4   9   2   23.10    1.70
  -4   9   2   21.20    1.80
  -4   9   2   25.50    1.60
   3  -9  -2   19.20    1.00
   3  -9  -2   17.50    1.10
   3  -9  -2   17.70    0.90
   3  -9  -2   17.00    0.80
   3  -9  -2   19.70    1.30
  -3   9   2   16.90    1.60
  -3   9   2   20.80    1.50
  -3   9   2   16.70    1.50
   2  -9  -2   99.99    3.50
   2  -9  -2  103.49    3.30
   2  -9  -2   99.29    3.10
   2  -9  -2   97.09    3.20
  -2   9   2  100.49    4.10
  -2   9   2   99.59    3.80
  -2   9   2   99.39    4.20
   1  -9  -2   34.30    1.40
   1  -9  -2   31.50    1.20
  -1   9   2   34.20    2.00
  -1   9   2   34.00    1.80
  -1   9   2   30.80    4.40
  -1   9   2   32.40    2.10
   0  -9  -2   52.19    1.80
   0  -9  -2   50.39    1.70
   0  -9  -2   52.89    2.00
   0  -9  -2   47.80    1.60
   0   9   2   52.39    4.70
   0   9   2   53.29    2.40
   0   9   2   53.39    2.30
   0  10  -3  129.69    7.90
   0  10  -3  138.79    4.30
  -1  10  -3  142.09    9.00
  -1  10  -3  150.68    5.00
   1 -10   3  157.98    4.80
   1 -10   3  152.28    5.00
   1 -10   3  149.49    4.50
  -2  10  -3   38.60    4.90
  -2  10  -3   39.40    2.10
   2 -10   3   42.40    2.40
   2 -10   3   42.50    1.90
   2 -10   3   42.50    1.50
  -3  10  -3    6.80    1.10
  -3  10  -3    7.20    1.00
  -3  10  -3    8.60    3.00
   3 -10   3    7.50    1.00
   3 -10   3    7.40    0.50
   3 -10   3    8.60    1.10
  -4  10  -3   38.00    2.00
  -4  10  -3   38.30    1.90
   4 -10   3   35.70    1.50
   4 -10   3   35.70    1.40
   4 -10   3   35.20    1.80
   4 -10   3   38.20    1.80
  -5  10  -3   41.30    1.80
  -5  10  -3   40.40    1.90
   5 -10   3   39.30    1.80
   5 -10   3   37.70    1.70
   2   9  -3   27.30    3.60
  -2  -9   3   29.70    1.60
  -2  -9   3   30.20    1.20
   1   9  -3    4.40    2.00
   1   9  -3    6.70    0.90
  -1  -9   3    5.30    0.60
  -1  -9   3    5.10    0.80
   0   9  -3  368.96   11.20
   0   9  -3  359.86   17.50
   0   9  -3  368.96   11.30
   0  -9   3  355.46   11.00
   0  -9   3  373.06   10.60
   0  -9   3  367.96   11.60
  -1   9  -3   11.70    1.40
  -1   9  -3   12.50    1.20
  -1   9  -3    8.70    3.00
  -1   9  -3   10.80    1.80
   1  -9   3   10.50    0.80
   1  -9   3    9.60    1.10
   1  -9   3    8.70    1.10
  -2   9  -3   37.20    5.40
  -2   9  -3   41.90    2.90
  -2   9  -3   35.80    2.70
  -2   9  -3   40.30    2.50
   2  -9   3   43.90    1.70
   2  -9   3   42.90    2.30
  -3   9  -3  294.97   10.20
  -3   9  -3  297.07    9.90
  -3   9  -3  300.07   10.50
   3  -9   3  300.07    9.50
   3  -9   3  286.77    8.40
   3  -9   3  292.77    8.60
  -4   9  -3   32.80    2.00
  -4   9  -3   33.10    2.20
  -4   9  -3   34.40    2.60
   4  -9   3   33.90    1.40
   4  -9   3   33.10    2.00
   4  -9   3   32.40    1.30
   4  -9   3   33.20    1.90
  -5   9  -3    6.60    1.10
  -5   9  -3    4.80    0.80
  -5   9  -3    5.80    1.30
   5  -9   3    6.20    0.80
   5  -9   3    5.90    0.80
  -6   9  -3   26.50    2.30
  -6   9  -3   30.90    1.80
  -6   9  -3   33.20    1.70
   6  -9   3   31.30    1.60
   6  -9   3   29.50    1.60
  -7   9  -3    7.80    0.70
  -7   9  -3    8.20    1.30
   7  -9   3    7.20    0.70
   3   8  -3   79.39    6.20
  -3  -8   3   86.49    3.50
   2   8  -3   43.90    2.10
   2   8  -3   40.70    5.10
  -2  -8   3   44.90    2.50
  -2  -8   3   41.80    2.10
   1   8  -3  850.91   24.80
   1   8  -3  863.31   32.40
   1   8  -3  833.72   24.60
  -1  -8   3  866.21   25.30
  -1  -8   3  839.42   24.50
   0   8  -3  536.55   16.70
   0   8  -3  550.24   24.00
   0   8  -3  561.24   17.20
   0   8  -3  561.24   16.90
   0  -8   3  562.04   16.60
   0  -8   3  541.25   17.10
  -1   8  -3   71.09    3.70
  -1   8  -3   68.49    3.40
  -1   8  -3   61.49    6.90
   1  -8   3   67.99    2.60
   1  -8   3   68.09    3.50
   1  -8   3   66.69    3.10
  -2   8  -3  522.85   16.60
  -2   8  -3  531.55   16.00
   2  -8   3  517.25   16.20
   2  -8   3  528.65   14.90
   2  -8   3  501.35   17.80
   2  -8   3  517.45   14.60
  -3   8  -3   20.80    2.20
  -3   8  -3   17.40    1.60
  -3   8  -3   19.20    2.00
   3  -8   3   21.90    1.10
   3  -8   3   17.30    1.60
   3  -8   3   19.10    1.70
   3  -8   3   18.30    0.90
  -4   8  -3  212.68    7.50
  -4   8  -3  221.78    9.50
  -4   8  -3  193.58   12.80
  -4   8  -3  213.68    7.90
   4  -8   3  210.68    7.60
   4  -8   3  217.68    6.40
   4  -8   3  220.68    7.50
   4  -8   3  216.98    6.30
  -5   8  -3   94.49    4.30
  -5   8  -3   92.29    3.90
  -5   8  -3   89.89    4.50
   5  -8   3   90.99    3.00
   5  -8   3   91.19    3.20
   5  -8   3   95.69    3.80
   5  -8   3   90.59    4.00
  -6   8  -3  205.48    7.60
  -6   8  -3  200.98    6.80
  -6   8  -3  210.58    7.20
   6  -8   3  204.88    6.80
   6  -8   3  193.78    6.90
   6  -8   3  207.18    6.70
   6  -8   3  196.18    5.90
  -7   8  -3   54.79    3.20
  -7   8  -3   56.59    2.40
  -7   8  -3   58.19    2.60
   7  -8   3   56.39    2.40
   7  -8   3   55.69    2.50
  -8   8  -3  143.29    4.50
   4   7  -3  116.89    7.00
   4   7  -3  145.09    9.10
  -4  -7   3  149.99    5.30
   3   7  -3  174.88    5.70
  -3  -7   3  171.08    5.80
  -3  -7   3  172.08    6.60
   2   7  -3   41.50    2.90
   2   7  -3   49.10    2.40
   2   7  -3   41.60    5.40
  -2  -7   3   45.10    2.30
  -2  -7   3   50.49    3.00
   1   7  -3 1699.63   54.49
   1   7  -3 1647.54   46.60
   1   7  -3 1615.44   49.40
   1   7  -3 1648.24   46.40
  -1  -7   3 1566.24   49.80
  -1  -7   3 1663.13   46.20
   0   7  -3  381.16   12.10
   0   7  -3  373.86   13.40
   0   7  -3  352.66   17.50
   0   7  -3  381.96   11.80
   0   7  -3  373.46   11.90
   0  -7   3  364.66   11.60
   0  -7   3  357.66   14.30
   0  -7   3  375.56   10.70
   0  -7   3  383.36   15.50
   0  -7   3  371.16   12.30
  -1   7  -3  146.49    5.60
  -1   7  -3  168.18    5.90
  -1   7  -3  135.49    9.90
  -1   7  -3  150.88    5.90
   1  -7   3  141.29    4.60
   1  -7   3  140.49    8.10
   1  -7   3  143.09    7.70
   1  -7   3  142.49    5.80
   1  -7   3  151.78    5.40
  -2   7  -3 2862.11   78.09
  -2   7  -3 2632.04   85.59
  -2   7  -3 2919.91   77.89
  -2   7  -3 2877.21   78.99
   2  -7   3 2774.02   78.09
   2  -7   3 2843.32   80.79
   2  -7   3 2723.73   76.59
   2  -7   3 2718.73   76.39
   2  -7   3 2693.73   77.09
   2  -7   3 2873.31   77.59
   2  -7   3 2805.42   80.49
  -3   7  -3 1865.31   50.79
  -3   7  -3 1678.23   58.39
  -3   7  -3 1803.12   51.19
  -3   7  -3 1801.92   51.39
   3  -7   3 1816.92   50.59
   3  -7   3 1813.12   49.40
   3  -7   3 1713.93   50.79
   3  -7   3 1831.02   51.09
   3  -7   3 1781.02   49.60
   3  -7   3 1887.01   53.79
  -4   7  -3  136.39    5.70
  -4   7  -3  141.29    5.60
  -4   7  -3  119.29    9.90
  -4   7  -3  131.59    5.20
   4  -7   3  134.09    4.10
   4  -7   3  133.19    5.40
   4  -7   3  138.89    5.20
   4  -7   3  132.89    7.50
   4  -7   3  130.49    4.20
   4  -7   3  127.49    5.70
  -5   7  -3   32.00    2.10
  -5   7  -3   32.20    2.30
  -5   7  -3   29.50    2.50
   5  -7   3   31.40    1.30
   5  -7   3   30.40    2.20
   5  -7   3   30.00    1.90
  -6   7  -3  167.58    6.00
  -6   7  -3  174.58    6.80
  -6   7  -3  170.48    6.40
   6  -7   3  170.78    6.40
   6  -7   3  159.38    5.80
   6  -7   3  160.38    5.00
  -7   7  -3  444.96   12.90
   7  -7   3  419.76   13.20
   7  -7   3  415.26   12.90
   7  -7   3  423.36   12.80
  -8   7  -3  257.07    8.00
  -8   7  -3  265.87    8.90
   8  -7   3  270.07    8.50
   8  -7   3  256.67    8.00
   8  -7   3  247.78    8.00
   5   6  -3  102.09    6.40
  -5  -6   3  125.29    4.70
   4   6  -3  650.93   25.00
   4   6  -3  563.14   23.20
   4   6  -3  650.23   18.10
  -4  -6   3  639.24   17.80
  -4  -6   3  653.83   18.60
  -4  -6   3  674.63   19.80
   3   6  -3   39.90    5.60
   3   6  -3   53.19    2.50
   3   6  -3   51.29    5.70
  -3  -6   3   49.20    3.10
  -3  -6   3   51.09    1.90
  -3  -6   3   54.29    2.60
   2   6  -3  849.41   33.30
   2   6  -3  948.61   26.70
   2   6  -3  975.50   33.60
   2   6  -3  898.61   28.50
   2   6  -3  960.20   26.70
  -2  -6   3  937.71   31.40
  -2  -6   3  898.11   27.70
  -2  -6   3  906.81   25.80
  -2  -6   3  949.01   28.60
  -2  -6   3  929.21   26.60
   1   6  -3  329.87   10.70
   1   6  -3  307.67   11.10
   1   6  -3  311.07   14.80
   1   6  -3  296.97    9.90
  -1  -6   3  298.57   10.70
  -1  -6   3  298.67   12.60
  -1  -6   3  303.77   10.50
  -1  -6   3  288.47   11.50
  -1  -6   3  288.37    8.90
   0   6  -3   15.20    3.10
   0   6  -3   15.60    4.10
   0   6  -3   11.30    2.00
   0   6  -3   19.40    1.70
   0   6  -3   14.60    1.40
   0  -6   3   14.70    2.50
   0  -6   3   10.60    2.20
   0  -6   3   13.20    1.20
  -1   6  -3  548.65   17.00
  -1   6  -3  558.14   20.50
  -1   6  -3  586.04   17.60
  -1   6  -3  574.44   17.00
  -1   6  -3  541.45   22.10
   1  -6   3  573.54   18.90
   1  -6   3  555.24   16.60
   1  -6   3  572.44   19.00
  -2   6  -3 1827.52   56.09
  -2   6  -3 1867.71   52.59
  -2   6  -3 1818.82   52.09
  -2   6  -3 1913.31   52.29
  -2   6  -3 1715.83   58.09
   2  -6   3 1907.61   54.09
   2  -6   3 1861.81   51.69
   2  -6   3 1863.51   53.79
   2  -6   3 1894.71   51.89
   2  -6   3 1837.32   53.59
  -3   6  -3  376.36   11.40
  -3   6  -3  314.57   16.20
  -3   6  -3  342.97   11.40
   3  -6   3  359.06   10.90
   3  -6   3  342.57   11.10
   3  -6   3  342.77   13.60
   3  -6   3  344.87   12.50
   3  -6   3  353.76   12.80
  -4   6  -3  147.39   10.50
  -4   6  -3  153.08    5.70
  -4   6  -3  160.78    6.20
   4  -6   3  155.48    7.10
   4  -6   3  146.59    6.00
   4  -6   3  155.78    4.70
   4  -6   3  155.88    6.00
   4  -6   3  161.88    7.40
  -5   6  -3  131.59    5.20
  -5   6  -3  145.19    5.90
  -5   6  -3  143.29    5.70
   5  -6   3  141.89    5.70
   5  -6   3  130.99    7.00
   5  -6   3  137.59    6.00
   5  -6   3  137.59    5.10
   5  -6   3  137.89    4.60
   5  -6   3  138.19    4.30
   5  -6   3  142.49    4.30
  -6   6  -3   10.40    1.20
  -6   6  -3    8.10    1.30
  -6   6  -3   11.20    1.70
   6  -6   3   12.30    1.30
   6  -6   3   11.30    0.80
   6  -6   3    9.40    1.30
  -7   6  -3  270.97    8.80
  -7   6  -3  284.37   10.40
  -7   6  -3  271.27    9.50
  -7   6  -3  274.37    9.10
   7  -6   3  275.67    8.90
   7  -6   3  278.37    9.50
  -8   6  -3 1312.47   36.30
  -8   6  -3 1316.17   36.40
  -8   6  -3 1324.57   37.60
   8  -6   3 1269.07   36.90
   8  -6   3 1263.97   36.40
   6   5  -3   96.59    5.80
  -6  -5   3  111.79    5.70
   5   5  -3  556.54   22.00
  -5  -5   3  639.14   19.00
  -5  -5   3  611.84   17.50
  -5  -5   3  603.74   17.00
   4   5  -3  445.06   19.90
   4   5  -3  459.15   13.10
   4   5  -3  423.86   18.30
  -4  -5   3  440.06   14.70
  -4  -5   3  448.76   13.40
  -4  -5   3  444.36   12.90
   3   5  -3  168.48   10.00
   3   5  -3  166.98    5.70
   3   5  -3  159.08    7.10
   3   5  -3  153.78    9.90
   3   5  -3  162.58    7.40
  -3  -5   3  167.78    6.90
  -3  -5   3  164.58    5.70
  -3  -5   3  163.48    5.30
  -3  -5   3  163.18    5.50
  -3  -5   3  168.48    9.10
   2   5  -3  256.97    9.70
   2   5  -3  301.57   13.30
   2   5  -3  274.57    9.00
   2   5  -3  269.07    8.50
   2   5  -3  261.67    9.30
  -2  -5   3  261.47    8.40
  -2  -5   3  268.27   11.80
  -2  -5   3  252.67   10.70
  -2  -5   3  258.57    8.10
  -2  -5   3  244.28    9.90
   1   5  -3   10.50    1.30
   1   5  -3   10.50    2.80
   1   5  -3   10.80    1.30
   1   5  -3   12.40    1.70
   1   5  -3   10.90    1.50
  -1  -5   3   11.50    2.10
  -1  -5   3   11.40    2.00
  -1  -5   3   13.10    1.10
  -1  -5   3   13.90    2.50
   0   5  -3 2897.41   82.69
   0   5  -3 2998.20   79.49
   0   5  -3 2834.52   79.69
   0   5  -3 2921.01   79.39
   0   5  -3 2913.51   84.49
   0  -5   3 2874.51   80.89
   0  -5   3 2706.93   79.09
   0  -5   3 2846.22   79.69
   0  -5   3 2836.12   81.09
  -1   5  -3 4418.96  121.99
  -1   5  -3 4390.96  122.09
   1  -5   3 4282.17  123.59
   1  -5   3 4466.05  121.69
   1  -5   3 4604.74  123.59
   1  -5   3 4429.06  121.59
  -2   5  -3 3638.24   96.99
  -2   5  -3 3287.77   93.19
  -2   5  -3 3271.57   93.29
   2  -5   3 3553.34   94.39
   2  -5   3 3247.28   93.19
   2  -5   3 3397.56   98.29
   2  -5   3 3226.28   92.79
   2  -5   3 3397.86   94.69
   2  -5   3 3324.57   92.89
  -3   5  -3  503.35   15.60
  -3   5  -3  541.65   18.90
   3  -5   3  508.15   15.40
   3  -5   3  522.75   15.10
   3  -5   3  494.65   15.60
   3  -5   3  494.15   19.30
   3  -5   3  477.05   16.10
   3  -5   3  539.05   16.80
  -4   5  -3  916.41   27.20
  -4   5  -3  947.51   31.40
  -4   5  -3  947.11   27.40
   4  -5   3  954.30   28.50
   4  -5   3  949.51   26.80
   4  -5   3  918.11   27.60
   4  -5   3  902.91   27.20
  -5   5  -3   58.09    2.80
  -5   5  -3   65.79    7.60
  -5   5  -3   59.99    3.30
   5  -5   3   57.59    3.40
   5  -5   3   54.99    4.10
   5  -5   3   51.99    2.70
   5  -5   3   57.09    3.90
   5  -5   3   62.69    3.30
  -6   5  -3  204.58    7.40
  -6   5  -3  202.38    7.70
  -6   5  -3  211.58    7.10
   6  -5   3  217.18    7.00
   6  -5   3  210.58    7.80
  -7   5  -3  256.47    8.90
  -7   5  -3  251.97    8.40
  -7   5  -3  249.97    8.10
  -7   5  -3  250.87    9.60
   7  -5   3  249.78    9.00
   7  -5   3  250.67    8.20
  -8   5  -3  119.49    4.20
  -8   5  -3  114.49    4.60
  -8   5  -3  119.49    5.10
  -8   5  -3  118.89    4.10
   8  -5   3  107.79    4.20
   8  -5   3  117.99    4.90
  -9   5  -3   68.19    2.90
  -9   5  -3   72.99    2.40
   9  -5   3   66.59    2.90
   9  -5   3   65.99    2.50
   7   4  -3    9.40    1.70
   6   4  -3   90.19    4.10
   6   4  -3   85.59    5.90
  -6  -4   3   83.99    3.20
  -6  -4   3   83.19    2.90
   5   4  -3  503.15   15.10
   5   4  -3  500.85   19.70
  -5  -4   3  511.15   14.80
  -5  -4   3  518.65   15.30
  -5  -4   3  519.45   14.90
   4   4  -3  539.25   18.00
   4   4  -3  552.84   21.40
   4   4  -3  505.75   20.30
   4   4  -3  544.55   15.70
   4   4  -3  546.85   17.90
   4   4  -3  538.35   17.00
  -4  -4   3  532.95   15.50
  -4  -4   3  543.75   19.50
  -4  -4   3  539.75   15.70
   3   4  -3 1118.39   33.40
   3   4  -3 1166.68   37.00
   3   4  -3 1099.59   33.30
   3   4  -3 1137.89   32.30
  -3  -4   3 1106.39   34.80
  -3  -4   3 1096.89   31.60
  -3  -4   3 1119.39   34.70
   2   4  -3  960.80   29.90
   2   4  -3  895.81   26.30
   2   4  -3  908.91   25.50
  -2  -4   3  888.41   27.00
  -2  -4   3  852.01   24.90
  -2  -4   3  834.82   24.80
  -2  -4   3  849.72   25.00
  -2  -4   3  858.91   26.10
   1   4  -3 2471.75   66.49
   1   4  -3 2493.65   66.39
   1   4  -3 2358.46   69.09
   1   4  -3 2366.26   67.09
  -1  -4   3 2291.87   67.19
  -1  -4   3 2374.16   67.69
  -1  -4   3 2420.06   67.49
   0   4  -3   30.30    1.80
   0   4  -3   30.60    2.80
   0  -4   3   30.10    2.20
   0  -4   3   29.00    3.60
   0  -4   3   32.60    2.30
  -1   4  -3 1993.10   60.59
  -1   4  -3 2129.69   58.69
   1  -4   3 2121.89   59.29
   1  -4   3 2059.99   58.09
   1  -4   3 2080.79   59.49
   1  -4   3 2264.17   62.59
  -2   4  -3  378.06   11.60
  -2   4  -3  347.77   13.10
   2  -4   3  391.66   11.90
   2  -4   3  339.57   10.80
   2  -4   3  378.26   14.10
  -3   4  -3   20.50    1.60
  -3   4  -3   21.80    2.70
   3  -4   3   20.00    1.90
   3  -4   3   20.30    1.50
   3  -4   3   22.20    3.00
  -4   4  -3 1949.41   56.19
  -4   4  -3 2006.80   59.79
  -4   4  -3 1973.40   56.59
   4  -4   3 2020.60   57.29
   4  -4   3 1980.90   56.09
   4  -4   3 2010.80   55.69
   4  -4   3 2029.30   56.29
   4  -4   3 2037.60   59.09
   4  -4   3 2016.90   56.39
  -5   4  -3  430.76   13.80
  -5   4  -3  448.96   17.80
  -5   4  -3  419.56   13.50
   5  -4   3  424.46   14.30
   5  -4   3  465.25   23.70
   5  -4   3  431.66   14.10
   5  -4   3  422.56   13.80
  -6   4  -3  321.37   10.30
  -6   4  -3  330.17   11.10
  -6   4  -3  334.67   10.80
  -6   4  -3  334.67   12.00
   6  -4   3  335.57   11.60
   6  -4   3  342.97   22.40
   6  -4   3  329.77   11.30
  -7   4  -3   84.69    4.20
  -7   4  -3   87.99    3.50
  -7   4  -3   89.69    4.60
  -7   4  -3   87.09    3.70
   7  -4   3   86.19    3.50
   7  -4   3   80.49   11.50
   7  -4   3   86.59    4.30
  -8   4  -3  166.08    5.50
  -8   4  -3  166.88    5.60
   8  -4   3  172.48    5.70
   8  -4   3  175.18    6.70
  -9   4  -3   65.79    2.20
  -9   4  -3   65.79    2.90
   9  -4   3   64.29    3.10
   7   3  -3   43.90    2.00
   7   3  -3   42.20    3.70
  -7  -3   3   44.80    1.90
  -7  -3   3   44.50    1.70
   6   3  -3   10.20    1.10
   6   3  -3    7.60    2.10
  -6  -3   3   13.80    1.10
  -6  -3   3   10.60    1.50
  -6  -3   3   10.30    0.90
   5   3  -3  657.83   23.30
   5   3  -3  658.43   21.40
   5   3  -3  679.53   19.30
   5   3  -3  657.83   20.20
   5   3  -3  650.93   21.80
  -5  -3   3  659.63   18.90
  -5  -3   3  661.53   19.30
  -5  -3   3  654.83   19.10
   4   3  -3  198.38    7.90
   4   3  -3  194.98    7.20
   4   3  -3  206.48    8.20
   4   3  -3  201.78    7.60
  -4  -3   3  191.98    8.70
  -4  -3   3  201.58    6.50
  -4  -3   3  195.48    6.40
  -4  -3   3  196.58    9.60
  -4  -3   3  186.48    6.20
   3   3  -3    6.10    1.10
   3   3  -3    6.60    4.00
   3   3  -3    5.00    1.10
   3   3  -3    7.60    1.30
  -3  -3   3    6.30    1.80
  -3  -3   3    6.90    0.80
   2   3  -3  219.58    6.80
   2   3  -3  205.58    7.40
  -2  -3   3  206.38    6.50
  -2  -3   3  203.18    7.10
  -2  -3   3  218.68    7.60
  -2  -3   3  212.48    8.00
   1   3  -3 2687.23   77.09
   1   3  -3 2671.63   75.59
   1   3  -3 2706.43   74.89
  -1  -3   3 2709.73   75.79
  -1  -3   3 2797.12   76.39
  -1  -3   3 2772.12   75.69
   0   3  -3   43.30    1.80
   0  -3   3   44.20    2.80
   0  -3   3   46.00    3.50
  -2   3  -3  606.34   20.40
  -2   3  -3  603.34   23.70
  -2   3  -3  653.03   17.90
   2  -3   3  623.44   18.20
   2  -3   3  676.53   21.20
   2  -3   3  687.83   19.10
  -3   3  -3 1010.10   31.10
  -3   3  -3 1016.10   29.10
  -3   3  -3 1007.20   28.40
   3  -3   3  996.90   28.80
   3  -3   3 1049.99   29.50
   3  -3   3 1043.50   31.70
   3  -3   3 1019.40   29.30
  -4   3  -3  470.45   17.30
  -4   3  -3  497.85   14.50
  -4   3  -3  513.65   15.00
   4  -3   3  487.35   14.90
   4  -3   3  501.95   15.00
   4  -3   3  494.25   17.10
   4  -3   3  488.05   15.00
  -5   3  -3  155.78    8.60
  -5   3  -3  147.59    5.50
  -5   3  -3  142.99    6.30
  -5   3  -3  148.49    5.70
   5  -3   3  147.49    6.10
   5  -3   3  169.28   13.10
   5  -3   3  143.29    6.10
   5  -3   3  149.88    5.80
  -6   3  -3  225.78    8.80
  -6   3  -3  223.28    7.60
  -6   3  -3  220.08    7.40
   6  -3   3  229.98    8.50
   6  -3   3  224.58    8.50
   6  -3   3  242.78   18.60
  -7   3  -3   31.60    1.90
  -7   3  -3   30.40    2.50
  -7   3  -3   29.80    1.70
  -7   3  -3   28.70    2.20
   7  -3   3   29.40    7.30
   7  -3   3   31.00    2.10
   7  -3   3   32.20    2.50
  -8   3  -3  255.07    7.50
  -8   3  -3  247.58    7.60
  -8   3  -3  270.57    9.40
   8  -3   3  252.47    9.10
   8  -3   3  210.58   19.20
  -9   3  -3    6.40    0.80
  -9   3  -3    6.20    0.50
   9  -3   3    4.40    3.90
   9  -3   3    6.50    1.00
   8   2  -3   23.00    1.30
   8   2  -3   23.50    2.20
  -8  -2   3   26.00    1.00
   7   2  -3    4.70    0.80
   7   2  -3    2.20    1.20
   7   2  -3    2.30    0.60
  -7  -2   3    1.80    0.40
  -7  -2   3    1.50    0.50
  -7  -2   3    3.60    0.90
   6   2  -3   68.29    3.10
   6   2  -3   67.49    3.00
   6   2  -3   70.69    5.00
  -6  -2   3   68.89    3.40
  -6  -2   3   65.69    2.60
   5   2  -3  983.40   28.20
   5   2  -3  973.90   30.70
   5   2  -3  974.30   29.40
   5   2  -3  951.60   27.60
   5   2  -3  970.70   29.60
  -5  -2   3  926.91   27.10
  -5  -2   3  948.91   27.40
   4   2  -3  453.95   14.10
   4   2  -3  465.25   13.90
   4   2  -3  466.55   14.90
   4   2  -3  474.45   15.20
  -4  -2   3  429.36   13.50
  -4  -2   3  455.75   15.40
  -4  -2   3  498.15   16.80
  -4  -2   3  436.06   13.60
   3   2  -3   22.00    1.70
   3   2  -3   22.90    1.90
   3   2  -3   21.70    1.60
  -3  -2   3   23.20    2.40
  -3  -2   3   21.50    1.30
   2   2  -3  252.17    7.30
   2   2  -3  227.98   10.90
   2   2  -3  249.28    7.90
   2   2  -3  244.78    8.20
  -2  -2   3  264.57    8.90
  -2  -2   3  240.28    8.00
  -2  -2   3  235.68    7.60
   1   2  -3 1055.39   35.50
   1   2  -3 1160.18   31.60
   1   2  -3 1125.99   32.40
  -1  -2   3 1228.98   34.30
  -1  -2   3 1229.98   32.50
  -1  -2   3 1084.59   33.40
   0   2  -3   58.29    2.00
   0   2  -3   50.79    4.40
   0  -2   3   57.79    3.50
  -1   2  -3  483.95   13.90
  -1   2  -3  482.35   15.00
  -1   2  -3  462.25   17.80
  -1   2  -3  507.95   14.10
   1  -2   3  489.55   14.70
   1  -2   3  505.15   16.60
   1  -2   3  482.35   13.60
  -2   2  -3 3181.08   91.69
  -2   2  -3 3289.47   90.39
  -2   2  -3 3281.77   95.29
   2  -2   3 3475.25   94.19
   2  -2   3 3281.97   90.19
   2  -2   3 3367.46   91.49
   2  -2   3 3177.68   90.19
  -3   2  -3  511.05   16.60
  -3   2  -3  476.05   19.30
  -3   2  -3  509.65   15.00
  -3   2  -3  516.95   16.80
   3  -2   3  498.95   14.90
   3  -2   3  518.35   14.90
   3  -2   3  516.05   15.90
   3  -2   3  534.05   18.50
  -4   2  -3 3189.38   90.99
  -4   2  -3 3035.10   87.89
  -4   2  -3 3266.07   90.49
  -4   2  -3 3154.78   88.09
   4  -2   3 3323.87   91.99
   4  -2   3 3178.58   87.99
   4  -2   3 3117.29   87.99
  -5   2  -3  536.15   16.50
  -5   2  -3  539.75   17.50
  -5   2  -3  568.94   20.80
  -5   2  -3  539.15   16.80
  -5   2  -3  545.35   17.30
  -5   2  -3  568.24   20.00
   5  -2   3  611.64   28.50
   5  -2   3  566.84   17.20
  -6   2  -3  372.16   11.70
  -6   2  -3  355.66   11.20
  -6   2  -3  363.96   11.40
  -6   2  -3  369.36   12.50
   6  -2   3  403.96   25.30
   6  -2   3  358.76   12.40
   6  -2   3  366.56   12.70
  -7   2  -3   98.79    3.70
  -7   2  -3  101.19    4.70
  -7   2  -3   94.79    3.60
   7  -2   3   92.89    4.90
   7  -2   3   93.09   12.90
  -8   2  -3  122.89    3.90
  -8   2  -3  124.09    5.00
   8  -2   3  100.39   13.10
   8  -2   3  119.59    5.50
  -9   2  -3   37.50    1.80
   9  -2   3   36.70    1.60
   9  -2   3   36.40    2.30
   8   1  -3  308.37    9.60
   8   1  -3  301.87   11.30
   8   1  -3  314.77    9.50
  -8  -1   3  325.27    9.20
   7   1  -3  178.78    8.30
   7   1  -3  175.38    6.10
   7   1  -3  176.88    6.00
  -7  -1   3  173.18    6.00
  -7  -1   3  177.58    5.90
  -7  -1   3  170.58    5.60
   6   1  -3 1072.49   33.40
   6   1  -3 1077.09   30.90
   6   1  -3 1088.29   30.80
   6   1  -3 1106.39   33.10
  -6  -1   3 1032.50   30.20
  -6  -1   3 1077.99   30.70
  -6  -1   3 1062.99   30.60
   5   1  -3   25.80    2.10
   5   1  -3   26.20    2.60
   5   1  -3   20.40    6.60
   5   1  -3   28.10    2.90
   5   1  -3   29.60    1.30
   5   1  -3   23.70    2.90
  -5  -1   3   26.30    1.60
  -5  -1   3   25.20    3.70
  -5  -1   3   27.70    1.70
  -5  -1   3   25.00    2.20
   4   1  -3  864.51   25.30
   4   1  -3  872.71   24.20
   4   1  -3  828.92   25.00
  -4  -1   3  802.52   23.80
  -4  -1   3  818.92   23.90
  -4  -1   3  835.42   26.40
   3   1  -3  183.48    5.90
   3   1  -3  188.18    5.70
   3   1  -3  181.38    6.40
   3   1  -3  177.28    6.60
   3   1  -3  175.88    8.60
  -3  -1   3  186.68    7.30
  -3  -1   3  175.78    5.90
   2   1  -3 2042.90   57.09
   2   1  -3 2113.09   56.29
   2   1  -3 2050.89   56.79
   2   1  -3 1979.10   59.59
  -2  -1   3 2111.29   57.99
  -2  -1   3 2056.59   57.89
  -2  -1   3 2076.89   56.59
  -2  -1   3 1939.61   56.19
   1   1  -3 3197.58   85.19
   1   1  -3 2951.60   88.79
  -1  -1   3 3377.56   87.59
  -1  -1   3 2721.13   86.99
  -1  -1   3 3367.86   85.99
   0   1  -3  816.72   26.70
   0   1  -3  838.72   23.90
   0   1  -3  828.02   23.30
   0   1  -3  845.32   23.30
   0   1  -3  804.22   23.00
   0  -1   3  861.21   26.00
   0  -1   3  855.51   24.10
   0  -1   3  817.82   24.10
  -1   1  -3 1612.04   42.50
  -1   1  -3 1440.96   43.10
  -1   1  -3 1543.85   42.20
  -1   1  -3 1526.05   46.00
  -1   1  -3 1480.55   42.00
   1  -1   3 1495.95   43.20
   1  -1   3 1627.64   45.80
   1  -1   3 1543.75   41.90
   1  -1   3 1438.06   42.60
  -2   1  -3  236.18    7.80
  -2   1  -3  231.68    7.40
  -2   1  -3  237.88    7.60
  -2   1  -3  231.68    8.50
   2  -1   3  247.78   10.70
   2  -1   3  239.78    7.20
   2  -1   3  232.48    6.80
   2  -1   3  232.38    8.40
  -3   1  -3  918.81   27.80
  -3   1  -3  916.71   26.70
  -3   1  -3  911.71   25.80
  -3   1  -3  903.51   25.90
   3  -1   3  864.01   25.20
   3  -1   3  888.81   25.60
   3  -1   3  907.61   25.70
   3  -1   3  921.91   30.30
   3  -1   3  838.82   26.90
  -4   1  -3  169.78    6.50
  -4   1  -3  181.08    7.60
  -4   1  -3  165.08    5.80
  -4   1  -3  177.18    6.10
  -4   1  -3  158.98    8.60
   4  -1   3  168.38    6.00
   4  -1   3  176.68   10.30
   4  -1   3  171.28    6.30
   4  -1   3  175.18    6.30
   4  -1   3  171.08    5.50
   4  -1   3  170.88    7.40
  -5   1  -3   13.10    3.30
  -5   1  -3   14.40    2.10
  -5   1  -3   15.70    1.20
  -5   1  -3   14.00    3.10
  -5   1  -3   13.30    1.60
   5  -1   3   14.70    1.30
   5  -1   3   12.60    1.80
   5  -1   3   14.60    2.10
   5  -1   3   19.30    4.60
   5  -1   3   13.20    1.70
  -6   1  -3  509.05   16.30
  -6   1  -3  510.85   17.40
  -6   1  -3  515.35   15.00
  -6   1  -3  509.15   15.10
  -6   1  -3  505.65   19.80
   6  -1   3  505.05   17.00
   6  -1   3  551.14   31.30
   6  -1   3  501.45   16.50
   6  -1   3  518.35   14.90
  -7   1  -3  226.78    8.10
  -7   1  -3  209.68   10.30
  -7   1  -3  219.28    6.80
   7  -1   3  225.48    9.00
   7  -1   3  217.28   20.30
  -8   1  -3  139.09    4.20
  -8   1  -3  141.49    6.60
  -8   1  -3  146.19    5.30
   8  -1   3  118.59   14.20
   8  -1   3  139.09    6.20
   8   0  -3   81.59    4.50
   8   0  -3   83.29    3.40
   8   0  -3   85.89    3.40
  -8   0   3   82.79    3.10
  -8   0   3   82.79    3.30
  -8   0   3   84.59    3.00
   7   0  -3  233.98    8.00
   7   0  -3  237.48    9.70
   7   0  -3  240.78    7.80
   7   0  -3  235.18    8.00
  -7   0   3  242.88    7.80
  -7   0   3  241.88    8.10
  -7   0   3  235.88    7.50
   6   0  -3 1018.80   29.60
   6   0  -3 1045.10   30.20
   6   0  -3 1041.10   29.40
   6   0  -3 1038.40   28.40
   6   0  -3  984.50   31.10
   6   0  -3 1031.60   31.50
   6   0  -3 1011.00   29.40
   6   0  -3 1019.50   31.70
  -6   0   3 1001.90   29.20
  -6   0   3  974.10   28.80
  -6   0   3 1056.79   29.40
  -6   0   3 1028.40   29.50
   5   0  -3  248.98    9.60
   5   0  -3  255.37    9.40
   5   0  -3  259.47    8.60
  -5   0   3  252.17   10.90
  -5   0   3  221.68    8.20
  -5   0   3  244.98    7.90
  -5   0   3  252.47    8.10
   2   0  -3 2408.36   68.59
   2   0  -3 2295.77   66.79
   2   0  -3 2367.06   67.09
   2   0  -3 2415.66   66.39
  -2   0   3 2544.85   68.09
  -2   0   3 2303.77   66.29
  -2   0   3 2529.45   66.49
  -2   0   3 2486.75   67.49
   1   0  -3  455.25   13.00
   1   0  -3  431.66   12.90
   1   0  -3  453.75   12.70
   1   0  -3  440.16   15.40
   1   0  -3  476.85   13.00
   1   0  -3  434.76   13.10
   1   0  -3  460.25   13.20
  -1   0   3  464.65   15.10
  -1   0   3  442.06   13.50
   0   0  -3 1162.48   33.60
   0   0  -3 1282.57   33.80
   0   0  -3 1193.78   33.30
   0   0  -3 1211.68   34.10
   0   0  -3 1211.08   33.90
   0   0  -3 1220.38   36.90
   0   0  -3 1164.78   33.30
   0   0   3 1186.58   34.60
   0   0   3 1235.48   36.70
   0   0   3 1248.98   33.30
   0   0   3 1203.18   33.70
  -1   0  -3  111.19    3.90
  -1   0  -3  108.99    4.20
  -1   0  -3  108.19    3.80
   1   0   3  107.49    3.50
   1   0   3  103.79    6.10
   1   0   3  102.79    4.70
  -2   0  -3  356.76   11.00
  -2   0  -3  331.27   10.10
  -2   0  -3  341.17   11.80
  -2   0  -3  349.47   10.60
   2   0   3  331.17   11.80
   2   0   3  362.46   14.60
   2   0   3  330.37    9.90
   2   0   3  345.87   10.30
  -3   0  -3 1335.27   38.20
  -3   0  -3 1358.26   40.20
  -3   0  -3 1370.96   38.60
  -3   0  -3 1360.96   38.30
   3   0   3 1343.67   39.80
   3   0   3 1287.07   37.40
   3   0   3 1325.67   37.80
  -4   0  -3  116.09    4.70
  -4   0  -3  115.69    5.40
  -4   0  -3  114.29    5.60
  -4   0  -3  119.79    5.30
   4   0   3  109.49    6.40
   4   0   3  115.39    4.10
   4   0   3  123.39   10.60
   4   0   3  112.09    4.80
   4   0   3  116.99    9.70
   4   0   3  113.59    4.50
   4   0   3  115.89    4.10
  -5   0  -3   74.09    6.80
  -5   0  -3   76.59    3.00
  -5   0  -3   81.99    3.90
  -5   0  -3   81.39    4.80
   5   0   3   79.79    3.20
   5   0   3   87.29    4.30
   5   0   3   80.89    3.20
   5   0   3   87.09   10.30
   5   0   3   77.99    3.00
   5   0   3   83.19    4.40
   5   0   3   77.79    4.10
  -6   0  -3    2.60    1.60
  -6   0  -3    1.60    0.40
  -6   0  -3    1.30    2.40
   6   0   3    1.20    1.10
   6   0   3    1.00    1.40
   6   0   3    1.50    0.40
   6   0   3    1.30    2.40
  -7   0  -3   80.99    2.80
  -7   0  -3   82.79    3.80
   7   0   3   73.19    3.00
   7   0   3   88.09    5.00
   7   0   3   80.29   12.20
  -8   0  -3  124.89    5.30
  -8   0  -3  131.09    4.50
   8   0   3  123.49    5.80
   8   0   3  100.69   12.40
   9  -1  -3   15.40    1.10
  -9   1   3   18.20    1.00
  -9   1   3   18.90    0.90
   8  -1  -3    3.50    1.00
   8  -1  -3    2.00    0.70
   8  -1  -3    3.20    0.70
   8  -1  -3    2.20    0.60
  -8   1   3    4.20    0.60
  -8   1   3    2.20    0.70
  -8   1   3    3.60    1.00
   7  -1  -3    3.90    0.90
   7  -1  -3    3.40    3.40
   7  -1  -3    6.90    1.10
   7  -1  -3    5.60    1.30
   7  -1  -3    4.90    1.00
   7  -1  -3    5.20    0.50
  -7   1   3    5.10    1.00
  -7   1   3    3.70    0.60
  -7   1   3    4.60    0.90
  -7   1   3    4.60    1.20
   6  -1  -3  777.02   23.10
   6  -1  -3  801.52   21.90
   6  -1  -3  787.02   25.00
   6  -1  -3  789.92   25.40
   6  -1  -3  804.82   23.20
   6  -1  -3  784.32   24.10
   6  -1  -3  792.82   22.90
   6  -1  -3  763.32   23.70
  -6   1   3  773.72   22.80
  -6   1   3  763.52   23.00
   5  -1  -3  844.02   25.20
   5  -1  -3  837.52   25.60
   5  -1  -3  823.12   24.20
  -5   1   3  828.72   23.80
  -5   1   3  821.12   26.60
  -5   1   3  787.12   24.20
  -5   1   3  797.52   23.80
   4  -1  -3    1.70    0.90
   4  -1  -3    5.90    0.90
  -4   1   3    4.00    1.30
  -4   1   3    4.10    0.70
   3  -1  -3 4886.31  138.89
  -3   1   3 5249.37  140.19
  -2   1   3 5532.65  158.38
  -2   1   3 5581.44  157.58
  -2   1   3 6065.89  157.88
   1  -1  -3 1247.78   35.00
   1  -1  -3 1276.07   34.90
   1  -1  -3 1250.87   34.60
   1  -1  -3 1207.48   34.60
   1  -1  -3 1281.67   34.40
   1  -1  -3 1176.18   34.70
  -1   1   3 1246.78   37.50
   0  -1  -3 3728.63  115.89
   0   1   3 4481.95  119.99
   0   1   3 4437.06  115.49
   0   1   3 4235.38  115.39
   1   1   3 6552.44  184.48
  -2  -1  -3 1726.83   50.09
  -2  -1  -3 1772.92   48.80
  -2  -1  -3 1744.33   48.80
  -2  -1  -3 1725.23   49.40
   2   1   3 1800.02   48.40
   2   1   3 1748.63   47.90
   2   1   3 1593.54   56.09
  -3  -1  -3    1.90    1.10
  -3  -1  -3   -0.70    1.20
   3   1   3   -0.90    2.60
   3   1   3    4.10    0.90
   3   1   3    0.70    0.60
  -4  -1  -3  475.65   15.20
  -4  -1  -3  504.45   18.90
  -4  -1  -3  493.35   16.80
  -4  -1  -3  487.15   16.30
   4   1   3  487.15   18.30
   4   1   3  484.75   15.20
   4   1   3  507.25   15.70
   4   1   3  535.75   26.30
   4   1   3  488.25   23.80
   4   1   3  491.35   14.60
   4   1   3  497.75   14.60
  -5  -1  -3  911.71   28.60
  -5  -1  -3  906.01   26.90
   5   1   3  897.21   27.80
   5   1   3  905.91   25.90
   5   1   3  974.70   43.70
   5   1   3  904.41   26.10
   5   1   3  889.31   26.10
  -6  -1  -3   14.80    2.40
  -6  -1  -3   17.40    1.80
  -6  -1  -3   13.70    0.90
   6   1   3   15.50    2.60
   6   1   3   15.20    1.10
   6   1   3   14.20    6.10
  -7  -1  -3   72.99    3.40
  -7  -1  -3   73.99    4.20
   7   1   3   59.49   10.60
   7   1   3   69.59    2.40
   7   1   3   69.89    4.60
  -8  -1  -3  140.19    4.60
   8   1   3  135.59    6.10
   9  -2  -3   87.99    3.00
   9  -2  -3   91.19    3.30
   9  -2  -3   92.09    3.40
  -9   2   3   92.99    3.20
  -9   2   3   93.69    3.00
   8  -2  -3   54.49    2.60
   8  -2  -3   51.29    2.50
   8  -2  -3   56.59    2.00
   8  -2  -3   53.49    2.70
   8  -2  -3   51.49    2.80
   8  -2  -3   51.09    2.40
  -8   2   3   51.59    2.20
  -8   2   3   54.59    2.50
  -8   2   3   57.09    2.70
   7  -2  -3  233.18    8.00
   7  -2  -3  230.98    8.60
   7  -2  -3  242.78    7.00
   7  -2  -3  236.78    8.20
   7  -2  -3  232.88    7.70
   7  -2  -3  232.88    8.10
  -7   2   3  237.78    8.30
  -7   2   3  237.28    8.10
  -7   2   3  234.18    7.90
  -7   2   3  229.68    7.50
   6  -2  -3  268.27   11.10
   6  -2  -3  276.37    9.50
   6  -2  -3  269.17   10.90
   6  -2  -3  269.87    9.10
   6  -2  -3  274.17    8.00
   6  -2  -3  270.37    9.80
   6  -2  -3  272.77    8.90
   6  -2  -3  281.97    9.20
  -6   2   3  273.07    9.10
  -6   2   3  265.07    8.80
  -6   2   3  255.07   11.70
   5  -2  -3  535.45   16.20
   5  -2  -3  520.15   17.50
   5  -2  -3  527.75   17.10
  -5   2   3  479.95   15.40
  -5   2   3  530.05   15.60
  -5   2   3  518.35   18.10
  -5   2   3  522.05   20.90
   4  -2  -3  929.41   28.10
   4  -2  -3  952.80   27.20
   4  -2  -3  916.91   27.70
  -4   2   3  917.51   33.40
  -4   2   3  961.40   28.20
  -4   2   3  922.21   26.40
   3  -2  -3  607.94   18.80
   3  -2  -3  651.43   18.40
   3  -2  -3  624.04   18.30
   3  -2  -3  608.04   19.00
  -3   2   3  620.04   21.00
  -3   2   3  642.24   18.90
   2  -2  -3  434.76   14.50
   2  -2  -3  448.06   14.10
   2  -2  -3  466.15   13.50
   2  -2  -3  469.25   14.20
   2  -2  -3  485.55   13.80
   2  -2  -3  463.15   14.30
  -2   2   3  483.55   14.40
  -2   2   3  500.05   15.60
  -2   2   3  471.05   16.60
   1  -2  -3 2260.57   60.29
   1  -2  -3 2109.49   60.39
   1  -2  -3 2214.88   60.09
   1  -2  -3 2080.99   60.79
   1  -2  -3 2271.87   60.99
   1  -2  -3 2174.08   61.79
  -1   2   3 2119.39   60.99
  -1   2   3 2185.98   60.19
   0  -2  -3  366.26   12.00
   0  -2  -3  374.36   11.20
   0  -2  -3  371.06   11.70
   0   2   3  356.66   10.70
   0   2   3  366.66   11.00
  -1  -2  -3  478.45   15.00
  -1  -2  -3  489.65   15.50
  -1  -2  -3  471.05   14.50
   1   2   3  467.35   14.30
  -2  -2  -3 1262.57   38.10
  -2  -2  -3 1280.97   37.30
  -2  -2  -3 1282.77   37.20
  -2  -2  -3 1287.87   38.50
   2   2   3 1306.67   36.80
   2   2   3 1304.67   35.90
  -3  -2  -3  180.08    7.40
  -3  -2  -3  182.68    8.90
  -3  -2  -3  181.08    8.10
   3   2   3  183.78    6.90
   3   2   3  179.38   13.50
   3   2   3  182.08    6.00
   3   2   3  176.08    6.50
   3   2   3  192.78   13.60
  -4  -2  -3   65.09    6.40
  -4  -2  -3   74.29    6.10
  -4  -2  -3   81.99    4.80
  -4  -2  -3   67.09    3.30
  -4  -2  -3   64.69    5.30
   4   2   3   67.59    2.90
   4   2   3   65.99    3.00
   4   2   3   63.19    3.70
   4   2   3   70.99    9.40
   4   2   3   67.09    4.10
   4   2   3   64.39    2.70
  -5  -2  -3   64.89    5.50
  -5  -2  -3   63.49    4.50
  -5  -2  -3   69.19    3.40
   5   2   3   71.39    3.10
   5   2   3   66.59   10.50
   5   2   3   68.49    3.00
   5   2   3   70.59    2.90
  -6  -2  -3  109.79    4.50
  -6  -2  -3  107.69    5.50
   6   2   3   98.59   13.50
   6   2   3  108.09    3.80
  -7  -2  -3    7.30    1.40
  -7  -2  -3    5.70    0.90
  -7  -2  -3    5.70    0.60
   7   2   3    4.70    1.70
   7   2   3    5.20    3.60
   9  -3  -3   95.09    3.40
   9  -3  -3   90.69    3.30
   9  -3  -3   85.09    3.20
  -9   3   3   94.29    3.30
  -9   3   3   96.69    3.10
   8  -3  -3    8.50    1.00
   8  -3  -3    8.50    1.10
   8  -3  -3    7.90    1.20
   8  -3  -3    8.10    0.60
   8  -3  -3    9.20    1.10
  -8   3   3   10.90    0.90
  -8   3   3    8.50    1.10
  -8   3   3   10.30    1.50
   7  -3  -3  491.35   14.00
   7  -3  -3  503.45   15.20
   7  -3  -3  466.15   14.80
   7  -3  -3  495.25   15.00
   7  -3  -3  505.85   15.30
   7  -3  -3  489.95   14.80
  -7   3   3  491.75   15.30
  -7   3   3  489.95   14.60
  -7   3   3  484.05   15.70
  -7   3   3  497.05   15.00
   6  -3  -3  698.33   20.60
   6  -3  -3  702.23   19.60
   6  -3  -3  713.53   23.10
   6  -3  -3  701.83   23.40
   6  -3  -3  678.13   20.50
   6  -3  -3  700.03   21.80
   6  -3  -3  661.43   20.20
   6  -3  -3  728.43   20.90
   6  -3  -3  721.73   20.80
  -6   3   3  696.03   20.60
  -6   3   3  668.43   20.80
   5  -3  -3   32.40    3.10
   5  -3  -3   32.90    3.10
   5  -3  -3   36.20    2.60
  -5   3   3   30.30    2.00
  -5   3   3   31.00    3.90
   4  -3  -3  273.47    9.20
   4  -3  -3  262.77   10.10
   4  -3  -3  270.87    9.00
   4  -3  -3  271.17    9.90
  -4   3   3  282.47   12.40
  -4   3   3  263.37    8.30
  -4   3   3  273.07    9.80
   3  -3  -3 1973.10   53.39
   3  -3  -3 2014.80   53.79
   3  -3  -3 1963.70   54.09
   3  -3  -3 1860.31   52.99
   3  -3  -3 1935.71   54.19
  -3   3   3 1872.31   55.99
  -3   3   3 1849.21   54.19
  -3   3   3 1794.72   53.19
  -3   3   3 1855.71   55.79
   2  -3  -3  103.59    3.90
   2  -3  -3   97.19    4.20
   2  -3  -3  100.49    4.50
   2  -3  -3   97.09    3.50
   2  -3  -3  109.49    4.60
   2  -3  -3   99.79    4.30
  -2   3   3   89.19    5.70
  -2   3   3  102.99    3.60
  -2   3   3  104.89    5.20
   1  -3  -3 6214.98  162.48
   1  -3  -3 6019.70  161.08
  -1   3   3 6015.80  161.28
  -1   3   3 6019.80  160.98
  -1   3   3 5526.65  160.98
  -1   3   3 5459.25  161.88
   0  -3  -3 2323.97   64.39
   0  -3  -3 2202.58   63.79
   0  -3  -3 2261.17   62.99
   0   3   3 2287.57   62.99
   0   3   3 2210.18   62.69
  -1  -3  -3 4824.72  132.59
  -1  -3  -3 4731.33  133.19
   1   3   3 4976.00  132.39
   1   3   3 4657.93  131.29
  -2  -3  -3  659.63   22.00
  -2  -3  -3  658.53   20.90
  -2  -3  -3  667.93   20.70
   2   3   3  653.83   19.10
   2   3   3  645.54   19.10
   2   3   3  701.73   20.40
  -3  -3  -3  125.89    6.00
  -3  -3  -3  123.69    7.20
  -3  -3  -3  138.49    7.20
  -3  -3  -3  121.89    4.80
   3   3   3  125.29    5.90
   3   3   3  127.39   12.20
   3   3   3  122.59    5.40
   3   3   3  130.19    4.70
   3   3   3  125.69    4.60
  -4  -3  -3  721.43   23.40
  -4  -3  -3  775.12   24.50
  -4  -3  -3  756.32   25.60
  -4  -3  -3  728.63   22.00
   4   3   3  712.43   22.70
   4   3   3  745.23   21.60
   4   3   3  741.23   21.40
   4   3   3  764.52   21.70
   4   3   3  724.23   37.60
  -5  -3  -3   13.50    0.90
  -5  -3  -3   12.20    1.80
  -5  -3  -3   12.30    1.30
   5   3   3   14.00    1.20
   5   3   3   12.20    1.10
   5   3   3   14.00    1.70
   5   3   3   10.10    5.20
  -6  -3  -3   53.79    2.00
  -6  -3  -3   53.49    3.10
  -6  -3  -3   55.09    2.60
   6   3   3   53.59    2.20
  -7  -3  -3   54.89    2.50
   7   3   3   48.80    3.90
   9  -4  -3   45.40    1.90
   9  -4  -3   47.00    1.90
   9  -4  -3   50.09    2.10
   9  -4  -3   50.29    2.10
  -9   4   3   51.59    2.00
  -9   4   3   48.30    1.90
   8  -4  -3   62.79    2.70
   8  -4  -3   60.79    2.90
   8  -4  -3   57.59    2.80
   8  -4  -3   58.79    2.10
   8  -4  -3   57.99    2.80
  -8   4   3   60.29    3.60
  -8   4   3   61.39    2.80
  -8   4   3   63.59    2.50
  -8   4   3   61.69    3.20
   7  -4  -3  585.54   17.70
   7  -4  -3  603.54   17.80
   7  -4  -3  566.14   17.40
   7  -4  -3  575.34   17.20
   7  -4  -3  582.54   16.40
  -7   4   3  604.34   17.60
  -7   4   3  559.14   17.00
  -7   4   3  594.84   17.90
  -7   4   3  571.94   18.40
   6  -4  -3  285.17    9.20
   6  -4  -3  285.67    9.50
   6  -4  -3  292.07    8.50
   6  -4  -3  288.37    8.30
   6  -4  -3  289.57   12.10
   6  -4  -3  301.17    9.70
   6  -4  -3  288.07    8.80
   6  -4  -3  276.57    9.30
   6  -4  -3  288.87   11.20
  -6   4   3  273.87    9.50
  -6   4   3  297.17    9.70
   5  -4  -3   14.30    2.40
   5  -4  -3   14.00    0.90
   5  -4  -3   15.50    1.10
   5  -4  -3   13.30    1.80
   5  -4  -3   17.90    0.90
   5  -4  -3   15.20    1.50
   5  -4  -3   21.60    1.70
  -5   4   3   15.20    5.10
  -5   4   3   16.40    1.60
   4  -4  -3    5.60    1.10
   4  -4  -3    6.60    1.80
   4  -4  -3    4.70    1.30
  -4   4   3    2.90    2.00
  -4   4   3    8.70    1.00
   3  -4  -3  920.61   27.50
   3  -4  -3  863.61   26.80
   3  -4  -3  920.61   26.70
   3  -4  -3  946.41   27.70
  -3   4   3  924.01   29.70
  -3   4   3  929.61   36.70
  -3   4   3  889.91   25.50
   2  -4  -3  739.33   22.10
   2  -4  -3  771.42   23.40
   2  -4  -3  766.32   23.20
   2  -4  -3  749.03   21.40
  -2   4   3  728.23   24.00
  -2   4   3  757.32   22.50
   1  -4  -3 1256.47   37.70
   1  -4  -3 1259.17   36.10
   1  -4  -3 1285.27   36.30
  -1   4   3 1317.77   36.90
  -1   4   3 1256.37   37.40
   0  -4  -3  611.04   18.90
   0  -4  -3  642.24   20.20
   0  -4  -3  628.04   20.70
   0   4   3  608.94   17.80
   0   4   3  621.24   19.10
   0   4   3  627.34   18.90
  -1  -4  -3  360.16   12.60
  -1  -4  -3  351.56   13.50
  -1  -4  -3  332.67   10.60
  -1  -4  -3  356.36   11.90
   1   4   3  322.67   10.70
   1   4   3  341.47   11.70
   1   4   3  344.57   10.40
  -2  -4  -3   89.09    4.40
  -2  -4  -3   95.39    6.40
  -2  -4  -3   96.29    3.60
  -2  -4  -3   93.29    5.40
  -2  -4  -3   94.09    3.90
  -2  -4  -3   96.99    5.30
   2   4   3   93.79    3.70
   2   4   3   97.99    5.20
   2   4   3   98.89    3.80
  -3  -4  -3  861.01   27.90
  -3  -4  -3  895.11   25.20
  -3  -4  -3  933.71   25.50
  -3  -4  -3  890.71   30.20
  -3  -4  -3  923.01   28.50
  -3  -4  -3  876.31   26.10
  -3  -4  -3  894.61   27.10
  -3  -4  -3  846.32   25.20
   3   4   3  906.01   25.70
   3   4   3  943.61   26.10
   3   4   3  915.51   25.90
   3   4   3  886.61   27.20
  -4  -4  -3  763.72   22.20
  -4  -4  -3  760.12   21.20
  -4  -4  -3  748.93   23.10
   4   4   3  640.74   37.00
   4   4   3  767.82   21.80
   4   4   3  771.72   21.90
   4   4   3  794.52   22.00
  -5  -4  -3   34.10    1.40
  -5  -4  -3   33.10    2.40
  -5  -4  -3   35.20    2.00
   5   4   3   31.50    1.80
   5   4   3   34.10    1.80
  -6  -4  -3   45.30    2.40
   6   4   3   44.60    1.80
   8  -5  -3  359.46   11.10
   8  -5  -3  354.96   11.00
   8  -5  -3  348.07   11.10
   8  -5  -3  357.26   10.10
  -8   5   3  344.27   11.80
  -8   5   3  363.56   11.00
  -8   5   3  352.16   11.20
  -8   5   3  367.96   10.60
   7  -5  -3  612.24   18.90
   7  -5  -3  624.74   18.40
   7  -5  -3  612.64   18.40
   7  -5  -3  600.34   17.20
  -7   5   3  610.44   18.60
  -7   5   3  600.54   18.30
   6  -5  -3  130.19    5.20
   6  -5  -3  132.69    4.20
   6  -5  -3  129.39    4.40
   6  -5  -3  133.69    5.10
   6  -5  -3  128.49    4.00
   6  -5  -3  130.59    5.00
  -6   5   3  123.49    5.10
  -6   5   3  126.39    5.20
   5  -5  -3  226.08    6.70
   5  -5  -3  220.18    7.00
   5  -5  -3  211.88    9.50
   5  -5  -3  216.18    8.60
   5  -5  -3  220.88    7.50
   5  -5  -3  222.88    6.50
   5  -5  -3  223.48    6.60
   5  -5  -3  213.78    7.60
  -5   5   3  219.18    7.60
  -5   5   3  234.88    8.70
   4  -5  -3 1098.69   30.60
   4  -5  -3 1106.79   30.60
   4  -5  -3 1066.39   33.00
   4  -5  -3 1070.99   31.00
   4  -5  -3 1063.59   32.10
   4  -5  -3 1036.40   32.80
   4  -5  -3 1085.29   30.20
   4  -5  -3 1080.79   30.70
   4  -5  -3 1088.99   30.00
   4  -5  -3 1061.79   31.00
  -4   5   3 1227.08   37.10
  -4   5   3 1041.40   30.70
   3  -5  -3   31.10    3.20
   3  -5  -3   26.70    3.00
   3  -5  -3   30.60    2.30
  -3   5   3   28.10    1.60
  -3   5   3   29.40    4.40
  -3   5   3   29.00    3.10
   2  -5  -3 1800.72   50.59
   2  -5  -3 1705.53   52.09
   2  -5  -3 1816.22   52.39
  -2   5   3 1705.83   52.89
  -2   5   3 1877.01   51.29
   1  -5  -3  201.28    9.00
   1  -5  -3  184.18    7.00
   1  -5  -3  207.28    8.90
  -1   5   3  197.58    7.80
  -1   5   3  187.48    6.60
  -1   5   3  199.08    6.30
   0  -5  -3  503.35   16.70
   0  -5  -3  547.95   19.20
   0   5   3  532.05   15.50
   0   5   3  531.95   17.20
   0   5   3  525.25   15.70
  -1  -5  -3  165.48    8.30
  -1  -5  -3  165.48    5.50
  -1  -5  -3  165.38    5.70
  -1  -5  -3  176.48    9.30
  -1  -5  -3  165.78    7.50
   1   5   3  176.38    6.00
   1   5   3  194.28    7.10
  -2  -5  -3  414.56   11.90
  -2  -5  -3  409.76   11.90
  -2  -5  -3  407.36   12.10
  -2  -5  -3  393.46   14.80
  -2  -5  -3  389.86   15.20
  -2  -5  -3  403.46   12.10
  -2  -5  -3  400.36   13.00
  -2  -5  -3  448.16   21.70
   2   5   3  424.56   12.70
   2   5   3  401.46   12.40
   2   5   3  403.46   12.60
  -3  -5  -3  676.23   19.20
  -3  -5  -3  674.23   20.80
  -3  -5  -3  694.13   19.40
   3   5   3  704.33   20.10
   3   5   3  674.43   20.20
   3   5   3  678.03   20.20
  -4  -5  -3  182.48    5.50
   4   5   3  179.28    6.20
   4   5   3  184.98    6.40
  -5  -5  -3  336.97   10.60
   5   5   3  331.47   10.00
   5   5   3  342.27   12.90
   8  -6  -3  118.59    3.90
   8  -6  -3  116.79    4.90
  -8   6   3  116.69    4.40
  -8   6   3  112.99    4.50
   7  -6  -3   88.99    2.90
   7  -6  -3   86.19    3.70
   7  -6  -3   79.79    3.70
  -7   6   3   85.09    3.60
  -7   6   3   90.29    3.90
   6  -6  -3  428.06   13.40
   6  -6  -3  421.36   12.30
   6  -6  -3  457.05   13.40
   6  -6  -3  427.46   12.10
   6  -6  -3  421.86   12.60
  -6   6   3  434.56   13.60
  -6   6   3  402.56   13.40
   5  -6  -3   82.89    3.30
   5  -6  -3   96.99    4.10
   5  -6  -3   80.49    3.00
   5  -6  -3   97.19    3.90
   5  -6  -3   85.29    2.80
   5  -6  -3   87.79    3.00
  -5   6   3   79.59    3.90
  -5   6   3   82.89    3.90
   4  -6  -3  846.12   24.10
   4  -6  -3  873.11   24.50
   4  -6  -3  849.72   23.60
   4  -6  -3  833.32   27.00
   4  -6  -3  850.81   23.40
   4  -6  -3  814.32   24.30
   4  -6  -3  853.41   23.70
   4  -6  -3  858.71   23.50
  -4   6   3  817.12   24.30
  -4   6   3  784.62   24.40
   3  -6  -3  492.85   15.40
   3  -6  -3  517.55   15.30
   3  -6  -3  510.45   14.70
   3  -6  -3  512.35   14.60
   3  -6  -3  520.15   18.40
   3  -6  -3  508.25   16.50
   3  -6  -3  525.35   14.50
   3  -6  -3  529.45   15.00
  -3   6   3  498.65   16.20
   2  -6  -3 2506.65   69.99
   2  -6  -3 2570.64   73.89
   2  -6  -3 2554.94   70.59
   2  -6  -3 2539.15   69.99
   2  -6  -3 2563.84   74.19
   2  -6  -3 2617.34   72.39
   2  -6  -3 2583.34   69.79
   2  -6  -3 2486.05   70.19
  -2   6   3 2482.95   70.59
  -2   6   3 2540.05   70.79
   1  -6  -3   40.60    1.80
   1  -6  -3   43.60    1.80
   1  -6  -3   39.30    4.30
   1  -6  -3   43.20    2.00
   1  -6  -3   38.10    2.20
   1  -6  -3   40.40    4.90
   1  -6  -3   41.30    1.70
   1  -6  -3   39.30    1.90
   1  -6  -3   41.50    1.90
  -1   6   3   39.90    2.20
  -1   6   3   39.70    2.30
   0  -6  -3  149.69    4.80
   0  -6  -3  138.39    5.10
   0  -6  -3  147.39    5.00
   0  -6  -3  148.19    4.90
   0  -6  -3  152.18    4.70
   0  -6  -3  146.39    9.00
   0  -6  -3  146.79    8.10
   0   6   3  145.49    5.40
   0   6   3  149.19    5.40
   0   6   3  145.49    5.40
   1   6   3  137.29    5.20
   1   6   3  138.19    6.40
   1   6   3  140.49    5.20
  -2  -6  -3  106.39    4.30
  -2  -6  -3  101.79    3.60
  -2  -6  -3  100.49    3.40
  -2  -6  -3  102.79    3.50
  -2  -6  -3  104.89    4.20
   2   6   3  107.69    4.30
   2   6   3  101.89    4.10
   2   6   3  102.59    4.20
  -3  -6  -3   29.00    1.90
  -3  -6  -3   28.60    1.20
  -3  -6  -3   28.90    1.80
   3   6   3   27.80    1.70
   3   6   3   27.80    1.80
   3   6   3   25.30    1.90
  -4  -6  -3   20.80    1.40
  -4  -6  -3   22.90    1.40
   4   6   3   20.00    1.30
   4   6   3   22.40    1.30
   8  -7  -3    0.90    0.40
   8  -7  -3    1.20    0.40
   7  -7  -3   12.90    1.20
   7  -7  -3   13.10    1.20
   7  -7  -3   13.60    0.70
  -7   7   3   14.40    1.50
  -7   7   3   16.50    1.30
   6  -7  -3  400.46   11.60
   6  -7  -3  403.06   12.30
   6  -7  -3  392.16   11.20
   6  -7  -3  387.96   12.20
   6  -7  -3  401.26   11.30
  -6   7   3  383.56   12.40
  -6   7   3  396.86   12.60
   5  -7  -3  297.77    9.50
   5  -7  -3  281.57    9.30
   5  -7  -3  288.97    8.40
   5  -7  -3  289.47    8.40
   5  -7  -3  295.47    8.60
   5  -7  -3  293.97    8.90
  -5   7   3  284.77    9.70
  -5   7   3  279.87    9.60
   4  -7  -3  560.04   15.60
   4  -7  -3  570.34   16.30
   4  -7  -3  571.64   15.80
   4  -7  -3  563.34   16.60
   4  -7  -3  574.24   16.70
   4  -7  -3  565.54   15.90
  -4   7   3  537.75   16.80
  -4   7   3  493.65   18.90
   3  -7  -3  456.45   12.70
   3  -7  -3  435.76   13.60
   3  -7  -3  447.96   13.40
   3  -7  -3  444.86   12.80
   3  -7  -3  448.36   13.10
   3  -7  -3  448.46   12.90
  -3   7   3  433.96   14.60
  -3   7   3  434.76   13.80
  -3   7   3  460.85   22.20
   2  -7  -3 1620.14   44.50
   2  -7  -3 1687.13   45.30
   2  -7  -3 1549.24   44.60
   2  -7  -3 1631.34   44.90
   2  -7  -3 1645.04   45.30
   2  -7  -3 1551.04   44.60
  -2   7   3 1602.04   45.50
   1  -7  -3   88.69    3.70
   1  -7  -3   87.89    3.30
   1  -7  -3   85.79    3.10
   1  -7  -3   89.79    3.00
   1  -7  -3   85.39    3.10
  -1   7   3   82.19    3.70
  -1   7   3   90.59    3.90
  -1   7   3   93.99    3.90
   0  -7  -3 1268.77   34.70
   0  -7  -3 1216.28   35.00
   0  -7  -3 1283.87   35.70
   0  -7  -3 1289.97   34.80
   0  -7  -3 1194.78   34.90
   0  -7  -3 1216.48   34.90
   0   7   3 1225.98   35.70
   0   7   3 1319.97   35.90
   0   7   3 1259.77   35.80
  -1  -7  -3  847.82   24.60
  -1  -7  -3  843.12   25.30
  -1  -7  -3  820.92   24.50
  -1  -7  -3  900.31   25.20
   1   7   3  900.41   25.40
   1   7   3  904.61   25.40
  -2  -7  -3  263.07    8.30
  -2  -7  -3  252.27    8.00
  -2  -7  -3  252.77    7.50
  -2  -7  -3  263.57    8.00
  -2  -7  -3  254.27    7.70
   2   7   3  266.37    8.50
   2   7   3  260.27    8.30
   2   7   3  260.17    8.50
  -3  -7  -3  124.39    4.10
  -3  -7  -3  122.89    3.70
  -3  -7  -3  126.49    4.30
  -3  -7  -3  123.99    3.90
   3   7   3  139.69    8.10
   3   7   3  129.99    4.40
   3   7   3  127.39    4.40
   7  -8  -3   36.00    1.70
   7  -8  -3   35.20    1.20
   6  -8  -3   45.90    2.20
   6  -8  -3   50.39    2.30
   6  -8  -3   49.99    1.70
   6  -8  -3   49.70    1.70
   6  -8  -3   49.00    1.90
  -6   8   3   50.19    2.70
  -6   8   3   46.20    2.80
   5  -8  -3  230.78    6.70
   5  -8  -3  235.28    6.70
   5  -8  -3  240.38    6.80
   5  -8  -3  216.58    8.00
   5  -8  -3  235.58    7.10
   5  -8  -3  217.38    7.50
  -5   8   3  226.18    7.80
  -5   8   3  233.18    7.90
   4  -8  -3  346.87   10.00
   4  -8  -3  337.37   10.70
   4  -8  -3  345.67    9.90
   4  -8  -3  354.86   10.40
   4  -8  -3  349.27   10.10
  -4   8   3  346.17   11.20
  -4   8   3  341.57   11.10
   3  -8  -3   12.20    1.00
   3  -8  -3   12.50    0.90
   3  -8  -3   11.90    1.00
   3  -8  -3   11.00    1.20
   3  -8  -3   10.30    1.30
  -3   8   3   10.40    1.30
  -3   8   3   14.40    1.50
   2  -8  -3  270.87    8.10
   2  -8  -3  277.47    8.30
   2  -8  -3  271.87    9.40
   2  -8  -3  277.07    8.60
  -2   8   3  273.17    9.10
  -2   8   3  261.67    8.90
  -2   8   3  277.87    9.20
   1  -8  -3    6.20    0.50
  -1   8   3    4.90    1.00
   0  -8  -3  271.37    8.20
   0  -8  -3  280.77    8.80
   0  -8  -3  272.57    8.10
   0  -8  -3  273.57    8.00
   0   8   3  274.57    8.90
   0   8   3  285.47    9.20
   0   8   3  282.07    9.10
   0   8   3  305.67   13.20
  -1  -8  -3  259.57    7.70
  -1  -8  -3  268.17    8.30
  -1  -8  -3  267.77    7.70
   1   8   3  291.37   12.40
   1   8   3  273.77    8.80
   1   8   3  273.17    8.70
  -2  -8  -3  426.46   12.10
  -2  -8  -3  407.86   12.00
   2   8   3  424.56   15.60
   2   8   3  406.36   12.30
   2   8   3  434.66   12.30
   5  -9  -3  111.29    3.20
   5  -9  -3  101.89    3.60
   5  -9  -3  102.09    3.40
   5  -9  -3  110.09    3.20
  -5   9   3  102.69    3.90
   4  -9  -3   13.50    0.70
   4  -9  -3   14.90    0.80
   4  -9  -3   14.10    1.10
   4  -9  -3   13.60    0.90
   4  -9  -3   13.40    0.70
  -4   9   3   15.30    1.20
  -4   9   3   14.20    1.30
  -4   9   3   10.00    1.50
   3  -9  -3    2.80    0.60
  -3   9   3    2.70    0.90
  -3   9   3    2.40    0.80
   2  -9  -3   36.50    1.60
   2  -9  -3   35.70    1.30
   2  -9  -3   36.00    1.60
   2  -9  -3   36.40    1.60
  -2   9   3   35.90    5.10
  -2   9   3   35.30    1.80
  -2   9   3   33.60    2.30
   1  -9  -3   37.70    1.30
   1  -9  -3   39.60    1.70
   1  -9  -3   37.30    1.40
   1  -9  -3   37.80    1.40
  -1   9   3   38.90    2.00
  -1   9   3   35.80    1.80
  -1   9   3   35.70    3.90
  -1   9   3   36.30    2.30
   0  10  -4   32.10    4.00
   0  10  -4   36.80    1.40
   0 -10   4   36.00    1.70
  -1  10  -4   30.90    4.30
  -1  10  -4   31.50    1.50
   1 -10   4   33.40    1.80
   1 -10   4   30.00    1.50
   1 -10   4   32.60    1.20
  -2  10  -4   84.69    7.10
  -2  10  -4   91.39    3.90
   2 -10   4   87.59    2.70
   2 -10   4   88.69    3.30
  -3  10  -4  151.08    5.10
  -3  10  -4  161.78    5.80
  -3  10  -4  141.79    9.10
   3 -10   4  149.69    5.40
  -4  10  -4   48.20    2.20
  -4  10  -4   50.49    2.20
   4 -10   4   47.70    2.10
   4 -10   4   44.50    1.90
   4 -10   4   46.20    2.10
  -5  10  -4   16.50    1.10
   5 -10   4   15.60    1.00
   5 -10   4   15.50    0.90
   5 -10   4   16.60    1.10
   2   9  -4  126.19    7.70
  -2  -9   4  135.39    4.70
  -2  -9   4  136.49    4.00
   1   9  -4  110.69    3.60
   1   9  -4  100.59    7.70
  -1  -9   4  108.39    4.30
  -1  -9   4   95.69    3.60
  -1  -9   4  104.29    3.40
   0   9  -4  332.77   17.00
   0   9  -4  347.47   10.70
   0  -9   4  365.96   10.20
   0  -9   4  356.76   11.30
   0  -9   4  354.46   10.80
  -1   9  -4   49.90    6.80
  -1   9  -4   56.39    2.60
  -1   9  -4   51.89    2.60
   1  -9   4   54.69    2.00
   1  -9   4   53.09    2.90
   1  -9   4   53.29    2.80
  -2   9  -4  152.78    6.20
  -2   9  -4  148.19    5.50
  -2   9  -4  137.59   10.50
   2  -9   4  145.69    5.30
   2  -9   4  145.09    4.50
   2  -9   4  142.59    5.60
  -3   9  -4  266.07    8.60
  -3   9  -4  249.08    9.60
  -3   9  -4  256.67    8.60
   3  -9   4  246.58    8.70
   3  -9   4  246.08    8.30
   3  -9   4  254.47    7.40
  -4   9  -4   96.79    8.50
  -4   9  -4  101.49    4.50
  -4   9  -4  100.79    4.00
  -4   9  -4   97.69    4.70
   4  -9   4   95.89    4.20
   4  -9   4  102.59    3.20
   4  -9   4  103.49    4.20
  -5   9  -4   15.90    1.40
  -5   9  -4   15.70    2.30
  -5   9  -4   15.70    1.30
   5  -9   4   18.20    1.30
   5  -9   4   16.70    1.40
  -6   9  -4   20.30    1.70
  -6   9  -4   21.60    1.30
   6  -9   4   19.60    1.30
   6  -9   4   19.40    1.40
  -7   9  -4   22.60    1.70
  -7   9  -4   25.10    1.20
   7  -9   4   24.90    1.30
   7  -9   4   23.70    1.20
   3   8  -4  226.58   11.20
  -3  -8   4  236.78    7.70
   2   8  -4  192.58    6.00
   2   8  -4  187.18   11.30
  -2  -8   4  187.18    6.20
  -2  -8   4  184.28    6.80
   1   8  -4   58.09    2.70
   1   8  -4   57.89    6.60
  -1  -8   4   56.49    2.70
   0   8  -4  862.91   25.20
   0   8  -4  892.51   25.30
   0   8  -4  813.32   33.30
   0  -8   4  890.01   26.00
   0  -8   4  872.61   25.20
  -1   8  -4  192.68    7.10
  -1   8  -4  201.08    7.60
  -1   8  -4  179.68   12.50
   1  -8   4  210.68    6.10
   1  -8   4  196.08    6.90
   1  -8   4  194.48    7.40
  -2   8  -4 2354.26   62.89
  -2   8  -4 2283.17   63.69
  -2   8  -4 2100.39   73.79
  -2   8  -4 2241.28   61.99
   2  -8   4 2107.19   61.99
   2  -8   4 2229.68   62.59
   2  -8   4 2171.98   60.89
  -3   8  -4 1453.25   41.50
  -3   8  -4 1486.55   41.20
  -3   8  -4 1320.47   49.20
  -3   8  -4 1432.56   40.70
   3  -8   4 1440.56   40.70
   3  -8   4 1436.76   39.60
   3  -8   4 1408.86   39.40
   3  -8   4 1467.15   41.30
  -4   8  -4  313.17   10.30
  -4   8  -4  318.97   10.90
  -4   8  -4  304.97    9.90
  -4   8  -4  274.87   15.80
   4  -8   4  296.97    8.70
   4  -8   4  293.77    8.70
   4  -8   4  300.67   10.20
   4  -8   4  310.97    9.90
  -5   8  -4    7.50    1.10
  -5   8  -4    9.50    1.30
  -5   8  -4    8.80    1.60
   5  -8   4    9.70    1.10
   5  -8   4    9.90    1.30
  -6   8  -4  136.79    5.10
  -6   8  -4  129.99    5.50
  -6   8  -4  136.69    4.90
   6  -8   4  135.99    5.20
   6  -8   4  139.99    4.80
  -7   8  -4   57.39    2.40
  -7   8  -4   56.49    3.10
   7  -8   4   57.69    2.30
   7  -8   4   55.09    2.40
   7  -8   4   57.09    2.60
   4   7  -4  248.18   11.50
  -4  -7   4  334.77    9.70
   3   7  -4  304.77   15.50
   3   7  -4  308.77    9.20
  -3  -7   4  319.77   10.60
  -3  -7   4  319.37    9.70
   2   7  -4   58.29    6.10
   2   7  -4   72.89    7.20
   2   7  -4   77.99    3.20
  -2  -7   4   74.49    2.50
  -2  -7   4   75.89    3.90
  -2  -7   4   76.89    3.30
   1   7  -4  608.44   26.10
   1   7  -4  620.54   18.70
   1   7  -4  653.63   19.10
  -1  -7   4  634.34   18.70
  -1  -7   4  630.34   21.20
   0   7  -4   41.60    5.60
   0   7  -4   36.50    2.30
   0   7  -4   35.40    2.20
   0   7  -4   35.20    2.60
   0   7  -4   37.20    4.00
   0  -7   4   45.50    5.70
   0  -7   4   34.20    2.10
   0  -7   4   32.90    2.40
   0  -7   4   24.30    4.00
   0  -7   4   34.10    1.50
  -1   7  -4  165.18    6.10
  -1   7  -4  160.58   11.30
  -1   7  -4  177.48    6.80
  -1   7  -4  176.38    6.40
   1  -7   4  170.98    6.00
   1  -7   4  164.78    8.30
   1  -7   4  161.38    6.50
   1  -7   4  171.58    8.80
  -2   7  -4 2684.13   72.39
  -2   7  -4 2588.84   71.49
  -2   7  -4 2652.03   71.89
  -2   7  -4 2383.96   79.99
   2  -7   4 2561.44   74.39
   2  -7   4 2454.25   73.89
   2  -7   4 2619.04   70.89
   2  -7   4 2585.44   71.29
   2  -7   4 2524.15   71.99
  -3   7  -4   59.09    3.40
  -3   7  -4   58.39    3.00
  -3   7  -4   57.09    3.20
  -3   7  -4   54.69    6.60
   3  -7   4   61.49    3.30
   3  -7   4   60.99    4.90
   3  -7   4   54.69    2.20
   3  -7   4   59.09    2.90
   3  -7   4   57.79    2.00
  -4   7  -4   27.90    2.10
  -4   7  -4   21.30    1.70
  -4   7  -4   25.80    5.70
  -4   7  -4   23.20    2.30
   4  -7   4   23.00    1.70
   4  -7   4   18.30    3.20
   4  -7   4   21.80    1.90
  -5   7  -4  536.15   17.00
  -5   7  -4  519.95   16.10
   5  -7   4  543.55   16.80
   5  -7   4  527.25   15.90
  -6   7  -4  853.61   25.40
  -6   7  -4  844.42   24.60
  -6   7  -4  851.81   24.90
   6  -7   4  847.12   24.40
   6  -7   4  850.91   25.30
  -7   7  -4  410.66   12.10
  -7   7  -4  396.26   12.70
  -7   7  -4  417.56   13.50
  -7   7  -4  390.26   12.20
   7  -7   4  376.86   11.90
   7  -7   4  406.06   12.10
   7  -7   4  409.46   12.70
  -8   7  -4  361.76   10.40
  -8   7  -4  355.36   11.40
   8  -7   4  352.16   10.80
   8  -7   4  346.67   10.50
   5   6  -4   28.10    3.10
  -5  -6   4   33.80    2.20
  -5  -6   4   35.50    2.20
   4   6  -4  251.67   12.80
   4   6  -4  293.57   14.40
  -4  -6   4  302.57    8.50
  -4  -6   4  309.57   10.20
   3   6  -4  169.98    5.50
   3   6  -4  168.58   10.90
   3   6  -4  134.69    9.20
  -3  -6   4  174.98    5.80
  -3  -6   4  158.48    5.10
  -3  -6   4  161.78    6.70
   2   6  -4   58.09    6.30
   2   6  -4   64.99    2.90
   2   6  -4   63.29    5.00
   2   6  -4   64.69    6.70
  -2  -6   4   66.89    3.00
  -2  -6   4   66.89    3.80
  -2  -6   4   62.49    2.40
  -2  -6   4   55.79    7.20
   1   6  -4  184.88    6.10
   1   6  -4  168.78    6.80
   1   6  -4  169.88   10.80
   1   6  -4  169.98    6.00
   1   6  -4  162.98    7.30
  -1  -6   4  160.88    6.70
  -1  -6   4  167.78    5.90
  -1  -6   4  166.08    8.70
  -1  -6   4  162.58    7.70
   0   6  -4  238.18    9.40
   0   6  -4  263.97    8.20
   0   6  -4  235.98   11.60
   0   6  -4  237.28    8.70
   0   6  -4  247.98    8.30
   0   6  -4  236.88    8.00
   0   6  -4  233.78   13.10
   0  -6   4  240.48    7.90
   0  -6   4  236.28    9.80
  -1   6  -4  267.77    8.20
  -1   6  -4  222.88    8.40
  -1   6  -4  216.98   12.70
  -1   6  -4  237.78    8.20
  -1   6  -4  234.88   11.50
   1  -6   4  232.18    9.80
   1  -6   4  227.78    9.50
   1  -6   4  235.58    7.70
   1  -6   4  246.58    9.90
  -2   6  -4 5394.96  170.68
  -2   6  -4 5852.41  168.08
  -2   6  -4 5904.61  163.68
  -2   6  -4 6051.99  163.78
  -2   6  -4 6065.19  163.48
   2  -6   4 5692.03  162.88
   2  -6   4 6138.39  165.18
   2  -6   4 6172.28  165.38
   2  -6   4 6081.79  165.58
   2  -6   4 6071.79  163.08
  -3   6  -4  228.18    7.90
  -3   6  -4  210.38   11.20
  -3   6  -4  209.98   12.90
  -3   6  -4  238.98    8.20
   3  -6   4  214.78    9.60
   3  -6   4  223.98    9.30
   3  -6   4  223.78    7.60
   3  -6   4  237.88    7.50
  -4   6  -4  274.57   15.50
  -4   6  -4  310.67   10.50
  -4   6  -4  307.27   10.20
   4  -6   4  307.47    9.80
   4  -6   4  311.67    8.90
   4  -6   4  294.27   10.10
   4  -6   4  330.37   12.00
  -5   6  -4  805.92   23.80
  -5   6  -4  826.92   24.30
  -5   6  -4  829.22   24.70
   5  -6   4  790.42   24.60
   5  -6   4  838.62   23.60
   5  -6   4  810.22   26.00
   5  -6   4  813.72   24.60
  -6   6  -4 1058.29   31.00
  -6   6  -4 1072.59   31.80
  -6   6  -4 1102.19   31.40
   6  -6   4 1115.29   31.90
   6  -6   4 1061.59   30.70
  -7   6  -4  204.48    6.70
  -7   6  -4  199.88    7.20
  -7   6  -4  197.38    6.70
  -7   6  -4  191.18    7.80
   7  -6   4  195.08    9.70
   7  -6   4  199.38    7.40
  -8   6  -4  393.66   11.70
  -8   6  -4  407.66   12.90
  -8   6  -4  415.56   11.90
   8  -6   4  392.46   12.00
   8  -6   4  413.46   12.70
   6   5  -4    2.00    1.00
   5   5  -4  289.77   13.30
  -5  -5   4  308.47    9.00
  -5  -5   4  314.67    9.50
   4   5  -4   11.70    2.90
   4   5  -4   14.30    3.70
  -4  -5   4   12.80    0.90
  -4  -5   4   12.80    1.10
  -4  -5   4   11.70    1.20
   3   5  -4  148.09    5.00
   3   5  -4  131.19    8.80
   3   5  -4  143.69    6.60
   3   5  -4  150.78    9.90
   3   5  -4  142.39    7.00
  -3  -5   4  150.28    8.40
  -3  -5   4  141.59    4.90
  -3  -5   4  142.79    5.20
  -3  -5   4  140.39    4.70
   2   5  -4 1408.66   40.70
   2   5  -4 1415.66   39.30
   2   5  -4 1429.86   46.10
   2   5  -4 1413.76   41.00
  -2  -5   4 1342.27   38.80
  -2  -5   4 1407.86   42.50
  -2  -5   4 1349.07   39.20
  -2  -5   4 1333.27   40.60
  -2  -5   4 1378.66   38.90
  -2  -5   4 1474.15   42.00
  -2  -5   4 1351.16   38.60
   1   5  -4  514.55   15.00
   1   5  -4  500.15   15.20
   1   5  -4  503.75   20.40
   1   5  -4  503.15   16.20
   1   5  -4  522.85   15.20
  -1  -5   4  511.55   16.50
  -1  -5   4  496.15   14.70
  -1  -5   4  514.85   16.50
  -1  -5   4  479.35   14.80
  -1  -5   4  481.45   14.60
   0   5  -4  781.32   22.80
   0   5  -4  805.52   22.90
   0   5  -4  781.12   22.90
   0   5  -4  794.82   26.10
   0  -5   4  806.12   24.50
   0  -5   4  795.72   22.40
   0  -5   4  810.02   23.80
   0  -5   4  788.82   24.30
   0  -5   4  732.43   22.80
  -1   5  -4  360.36   11.50
  -1   5  -4  367.16   14.20
  -1   5  -4  361.96   16.40
  -1   5  -4  384.16   11.70
   1  -5   4  379.06   12.80
   1  -5   4  366.36   11.20
   1  -5   4  377.66   12.60
   1  -5   4  380.66   16.30
   1  -5   4  373.96   12.90
  -2   5  -4 5693.13  155.08
  -2   5  -4 5733.33  154.98
  -2   5  -4 5680.43  158.38
  -2   5  -4 5210.78  161.38
   2  -5   4 5655.93  160.38
   2  -5   4 5850.92  156.68
   2  -5   4 5678.03  154.48
   2  -5   4 5461.05  154.48
   2  -5   4 5792.52  156.18
  -3   5  -4  376.16   18.10
  -3   5  -4  420.76   13.00
  -3   5  -4  419.56   16.20
   3  -5   4  411.46   17.20
   3  -5   4  427.16   13.90
   3  -5   4  416.26   12.50
   3  -5   4  406.76   12.60
   3  -5   4  442.96   14.40
  -4   5  -4  112.29    4.80
  -4   5  -4  113.19    4.60
  -4   5  -4   95.69    8.80
  -4   5  -4  122.09    7.70
   4  -5   4  110.89    5.90
   4  -5   4  112.99    4.20
   4  -5   4  110.29    4.60
   4  -5   4  114.79    5.70
  -5   5  -4  391.56   12.60
  -5   5  -4  379.86   11.90
  -5   5  -4  400.46   12.30
   5  -5   4  380.66   12.60
   5  -5   4  397.46   13.70
   5  -5   4  357.56   11.60
  -6   5  -4  181.68    6.90
  -6   5  -4  178.88    6.50
  -6   5  -4  182.58    6.20
  -6   5  -4  182.18    7.70
   6  -5   4  172.98    7.40
   6  -5   4  177.78    7.10
   6  -5   4  177.88    6.30
   6  -5   4  182.28   15.90
  -7   5  -4  535.35   15.70
  -7   5  -4  531.65   16.40
  -7   5  -4  539.05   15.90
  -7   5  -4  542.45   17.30
   7  -5   4  539.05   15.80
   7  -5   4  476.05   32.10
   7  -5   4  554.84   16.90
  -8   5  -4    8.60    1.30
  -8   5  -4    7.20    1.10
  -8   5  -4    8.30    0.80
   8  -5   4    9.40    1.20
   8  -5   4    7.70    1.20
   7   4  -4    7.80    1.50
   6   4  -4   32.30    3.50
  -6  -4   4   31.20    1.40
  -6  -4   4   31.10    1.70
   5   4  -4  496.95   19.70
   5   4  -4  502.85   15.30
  -5  -4   4  526.65   15.30
  -5  -4   4  535.25   15.50
  -5  -4   4  527.25   15.10
  -5  -4   4  504.85   14.90
   4   4  -4   43.70    3.60
   4   4  -4   40.50    4.60
   4   4  -4   41.90    3.90
   4   4  -4   42.70    2.40
  -4  -4   4   42.50    2.20
  -4  -4   4   45.80    2.00
  -4  -4   4   35.20    5.00
   3   4  -4  518.95   21.20
   3   4  -4  561.74   17.40
   3   4  -4  535.15   18.00
  -3  -4   4  542.05   18.80
  -3  -4   4  508.05   15.30
  -3  -4   4  538.15   15.70
   2   4  -4  129.89    4.90
   2   4  -4  139.79    5.80
   2   4  -4  148.69    5.70
   2   4  -4  127.49    8.30
  -2  -4   4  131.99    6.30
  -2  -4   4  128.79    5.60
   1   4  -4 2441.26   68.79
   1   4  -4 2383.46   67.69
  -1  -4   4 2473.45   68.99
  -1  -4   4 2530.35   69.29
  -1  -4   4 2373.16   67.59
  -1  -4   4 2506.85   69.59
  -1  -4   4 2462.85   73.09
   0   4  -4  640.54   20.70
   0   4  -4  637.84   18.00
   0  -4   4  618.34   19.90
   0  -4   4  669.03   19.40
   0  -4   4  621.04   22.20
   0  -4   4  634.34   19.30
   0  -4   4  577.64   18.00
  -1   4  -4 2103.59   61.79
   1  -4   4 2255.07   60.39
   1  -4   4 2077.99   58.69
   1  -4   4 2115.19   63.39
  -2   4  -4 3627.04  103.29
   2  -4   4 3761.72  101.49
   2  -4   4 3561.54  104.49
  -3   4  -4  440.66   13.30
  -3   4  -4  431.36   15.70
   3  -4   4  439.36   16.60
   3  -4   4  433.16   13.80
   3  -4   4  411.96   12.80
  -4   4  -4  467.55   14.00
  -4   4  -4  471.55   17.30
   4  -4   4  450.05   13.90
   4  -4   4  442.76   13.60
   4  -4   4  452.95   14.50
   4  -4   4  452.75   17.50
  -5   4  -4  312.17   10.30
  -5   4  -4  311.17   10.00
  -5   4  -4  292.77    9.70
  -5   4  -4  288.27   15.50
   5  -4   4  337.57   19.30
   5  -4   4  307.77   11.10
   5  -4   4  308.67   10.40
  -6   4  -4   18.10    1.90
  -6   4  -4   12.10    1.90
  -6   4  -4   16.70    1.40
   6  -4   4   17.00    1.80
   6  -4   4   18.90    5.10
   6  -4   4   15.00    2.00
  -7   4  -4  113.39    4.10
  -7   4  -4  110.49    4.20
  -7   4  -4  107.69    4.70
  -7   4  -4  115.19    5.30
   7  -4   4  115.19    5.20
   7  -4   4  107.19    4.20
   7  -4   4  106.79   12.80
  -8   4  -4   53.99    2.90
  -8   4  -4   50.89    2.00
   8  -4   4   47.30    2.90
   8  -4   4   38.10    7.70
  -9   4  -4   55.39    2.50
  -9   4  -4   54.99    1.70
   9  -4   4   56.49    2.80
   7   3  -4   69.59    2.70
   7   3  -4   67.69    4.50
  -7  -3   4   71.69    2.40
  -7  -3   4   58.69    2.60
  -7  -3   4   66.09    2.80
   6   3  -4   13.80    2.10
   6   3  -4   18.70    2.80
   6   3  -4   17.40    1.40
  -6  -3   4   15.20    1.40
  -6  -3   4   16.30    1.10
  -6  -3   4   15.50    1.20
   5   3  -4  295.77   13.10
   5   3  -4  305.77   11.60
   5   3  -4  303.97    9.70
   5   3  -4  298.37   12.00
   5   3  -4  306.07    9.70
  -5  -3   4  302.77    9.50
  -5  -3   4  305.37    9.60
  -5  -3   4  306.57    9.20
   4   3  -4   76.69    4.70
   4   3  -4   88.39    3.90
   4   3  -4   76.49    4.40
   4   3  -4   66.99    5.30
  -4  -3   4   74.59    3.10
  -4  -3   4   72.89    2.80
  -4  -3   4   71.79    5.70
  -4  -3   4   75.19    5.70
   3   3  -4  591.04   16.80
   3   3  -4  572.64   16.90
   3   3  -4  597.84   18.00
   3   3  -4  611.14   18.50
  -3  -3   4  540.65   16.60
  -3  -3   4  582.24   19.30
  -3  -3   4  543.15   16.70
   2   3  -4  875.51   30.00
   2   3  -4  944.01   25.70
   2   3  -4  941.61   25.90
   2   3  -4  928.91   26.80
  -2  -3   4  904.71   25.90
  -2  -3   4  915.11   27.10
  -2  -3   4  946.31   28.00
  -2  -3   4  894.01   26.50
   1   3  -4  949.01   25.60
   1   3  -4  910.01   26.70
  -1  -3   4  904.51   26.80
  -1  -3   4  911.01   27.90
  -1  -3   4  921.41   29.40
   0   3  -4   33.90    2.60
   0   3  -4   32.30    1.40
   0  -3   4   34.50    3.20
   0  -3   4   32.00    2.10
  -1   3  -4 1190.88   32.60
  -1   3  -4 1130.49   34.50
   1  -3   4 1196.48   33.70
  -2   3  -4 1967.00   55.89
  -2   3  -4 1915.61   53.59
   2  -3   4 1976.50   57.69
   2  -3   4 1995.90   54.89
   2  -3   4 1850.61   53.49
  -3   3  -4   66.09    4.20
  -3   3  -4   64.79    3.00
  -3   3  -4   63.59    2.70
   3  -3   4   71.19    3.60
   3  -3   4   68.59    2.70
   3  -3   4   66.19    5.20
  -4   3  -4 1738.63   50.79
  -4   3  -4 1706.23   50.49
  -4   3  -4 1857.21   50.69
  -4   3  -4 1910.81   53.89
   4  -3   4 1920.71   51.69
   4  -3   4 1850.51   54.99
   4  -3   4 1757.72   50.69
   4  -3   4 1872.41   50.69
   4  -3   4 1684.13   50.09
  -5   3  -4  692.33   24.00
  -5   3  -4  671.43   20.30
  -5   3  -4  687.83   21.20
  -5   3  -4  654.13   19.90
   5  -3   4  734.13   32.00
   5  -3   4  655.43   20.50
  -6   3  -4  130.69    4.70
  -6   3  -4  135.09    5.30
  -6   3  -4  132.09    5.90
  -6   3  -4  133.69    4.90
   6  -3   4  126.99    5.80
   6  -3   4  136.09    5.90
   6  -3   4  133.19    4.30
  -7   3  -4   29.70    2.30
  -7   3  -4   22.50    1.40
  -7   3  -4   21.70    1.50
   7  -3   4   22.00    2.20
   7  -3   4   22.50    6.20
  -8   3  -4   11.80    1.40
  -8   3  -4   14.00    0.90
   8  -3   4   11.40    4.80
   8  -3   4   14.50    1.70
   9  -3   4    1.00    0.50
   8   2  -4   60.09    2.30
   8   2  -4   52.49    3.00
  -8  -2   4   62.39    2.00
   7   2  -4  137.79    4.90
   7   2  -4  138.79    7.10
   7   2  -4  144.39    5.10
  -7  -2   4  140.99    4.60
  -7  -2   4  139.39    4.90
  -7  -2   4  143.09    4.80
   6   2  -4  163.78    5.80
   6   2  -4  178.18    6.00
   6   2  -4  164.38    8.50
   6   2  -4  184.38    6.20
  -6  -2   4  164.48    5.70
  -6  -2   4  164.68    5.50
   5   2  -4   65.29    4.30
   5   2  -4   58.89    3.00
   5   2  -4   65.79    2.90
   5   2  -4   71.19    3.80
   5   2  -4   60.59    4.70
   5   2  -4   59.49    4.50
   5   2  -4   67.89    3.60
  -5  -2   4   61.69    2.50
  -5  -2   4   64.49    2.90
  -5  -2   4   58.99    2.70
   4   2  -4  383.16   11.60
   4   2  -4  381.76   13.00
   4   2  -4  380.86   12.60
  -4  -2   4  344.47   11.10
  -4  -2   4  379.26   14.20
  -4  -2   4  363.86   11.20
   3   2  -4 1094.69   31.90
   3   2  -4 1090.19   31.00
   3   2  -4 1123.99   32.40
   3   2  -4 1118.69   30.70
  -3  -2   4 1073.49   30.80
  -3  -2   4 1105.69   34.00
   2   2  -4 2191.78   58.89
   2   2  -4 2121.79   59.09
   2   2  -4 2098.49   60.39
   2   2  -4 2157.48   59.99
  -2  -2   4 2077.39   59.69
  -2  -2   4 2154.08   59.69
  -2  -2   4 2178.88   62.29
  -2  -2   4 2240.58   61.59
   1   2  -4  667.03   25.30
   1   2  -4  742.43   20.90
   1   2  -4  736.13   20.40
  -1  -2   4  743.83   22.90
  -1  -2   4  684.83   20.80
   0   2  -4 3297.27   91.29
   0   2  -4 3338.57   89.79
   0   2  -4 3052.59   95.39
   0   2  -4 2934.61   91.59
   0  -2   4 3469.05   93.19
   0  -2   4 3541.65   90.79
  -1   2  -4  146.09    9.00
  -1   2  -4  141.09    4.70
  -1   2  -4  142.89    5.60
   1  -2   4  135.49    4.10
   1  -2   4  141.19    7.40
   1  -2   4  140.29    5.60
  -2   2  -4  914.01   26.30
  -2   2  -4  873.91   25.10
   2  -2   4  855.11   24.70
   2  -2   4  905.51   29.60
   2  -2   4  866.91   27.30
  -3   2  -4  526.25   15.70
  -3   2  -4  542.15   17.10
   3  -2   4  511.35   16.90
   3  -2   4  513.95   15.30
   3  -2   4  550.34   15.10
   3  -2   4  512.95   15.40
   3  -2   4  528.45   20.20
  -4   2  -4 1016.80   31.80
  -4   2  -4 1108.69   31.70
  -4   2  -4 1101.19   31.10
  -4   2  -4 1140.79   33.50
   4  -2   4 1108.69   31.30
   4  -2   4 1094.69   32.70
   4  -2   4 1067.79   30.70
   4  -2   4 1052.69   31.60
   4  -2   4 1136.39   41.60
   4  -2   4 1100.89   36.70
  -5   2  -4  349.37   12.00
  -5   2  -4  358.16   12.20
  -5   2  -4  339.77   10.80
  -5   2  -4  360.16   14.20
   5  -2   4  357.96   11.70
   5  -2   4  378.16   21.50
   5  -2   4  354.56   10.70
  -6   2  -4  334.67   11.70
  -6   2  -4  342.57   10.40
  -6   2  -4  330.87   15.30
  -6   2  -4  331.97   10.40
   6  -2   4  338.97   11.70
   6  -2   4  338.87   10.10
   6  -2   4  347.47   12.10
   6  -2   4  364.46   23.60
  -7   2  -4  128.39    4.40
  -7   2  -4  131.99    5.60
  -7   2  -4  127.49    8.00
   7  -2   4  134.29   15.00
   7  -2   4  132.59    6.10
  -8   2  -4   55.59    2.80
  -8   2  -4   50.89    1.80
  -8   2  -4   50.69    4.00
   8  -2   4   45.40    8.50
   8  -2   4   51.99    3.30
   8   1  -4  128.19    4.60
   8   1  -4  145.69    5.30
  -8  -1   4  134.39    4.40
   7   1  -4  101.09    4.50
   7   1  -4  106.29    5.90
   7   1  -4  111.79    4.20
   7   1  -4  104.29    4.00
  -7  -1   4  107.69    4.00
  -7  -1   4  102.29    3.70
  -7  -1   4  104.19    4.10
   6   1  -4  349.47   10.90
   6   1  -4  337.17   13.30
   6   1  -4  338.47   13.50
   6   1  -4  345.47   10.80
   6   1  -4  355.46   11.10
   6   1  -4  336.37   13.20
   6   1  -4  341.57   10.90
  -6  -1   4  348.37   10.80
  -6  -1   4  348.47   10.70
  -6  -1   4  338.47   10.40
   5   1  -4  844.42   23.80
   5   1  -4  879.01   25.10
   5   1  -4  878.41   26.40
   5   1  -4  840.92   26.70
   5   1  -4  848.82   24.70
   5   1  -4  816.52   24.80
   5   1  -4  876.51   25.10
   5   1  -4  817.12   26.90
  -5  -1   4  880.51   24.60
  -5  -1   4  847.22   24.70
   4   1  -4   11.70    1.70
   4   1  -4   15.00    1.90
   4   1  -4   14.80    1.50
  -4  -1   4   13.40    1.10
   3   1  -4  748.23   22.40
   3   1  -4  736.73   22.00
   3   1  -4  730.43   25.20
   3   1  -4  749.82   21.20
  -3  -1   4  734.83   21.10
  -3  -1   4  774.42   23.30
  -3  -1   4  734.73   21.30
   2   1  -4 2159.08   61.49
   2   1  -4 2041.00   56.29
   2   1  -4 2040.00   57.49
   2   1  -4 2026.60   56.99
  -2  -1   4 2000.30   56.89
  -2  -1   4 1981.80   58.39
  -2  -1   4 2104.49   58.89
   1   1  -4 2217.28   70.39
   1   1  -4 2487.15   68.89
   1   1  -4 2444.16   73.59
   1   1  -4 2539.25   68.89
  -1  -1   4 2669.13   69.69
  -1  -1   4 2660.93   71.79
   0   1  -4 1171.08   32.80
   0   1  -4 1128.89   32.30
   0   1  -4 1191.08   37.60
   0   1  -4 1181.78   32.80
   0   1  -4 1208.28   33.10
   0  -1   4 1140.49   33.90
   0  -1   4 1189.48   36.50
  -1   1  -4 2572.74   72.59
  -1   1  -4 2618.04   72.49
  -1   1  -4 2635.34   72.39
  -1   1  -4 2566.04   77.59
  -1   1  -4 2488.05   71.89
   1  -1   4 2756.62   73.89
   1  -1   4 2607.74   71.79
   1  -1   4 2851.61   77.29
   1  -1   4 2490.35   72.69
  -2   1  -4 1036.60   29.90
  -2   1  -4 1058.29   29.70
  -2   1  -4 1038.60   29.70
   2  -1   4  978.30   32.30
   2  -1   4 1063.09   34.70
   2  -1   4 1063.99   29.20
  -3   1  -4   14.50    1.70
  -3   1  -4   12.90    1.50
   3  -1   4   12.30    3.20
   3  -1   4    9.70    0.80
   3  -1   4   10.40    1.10
   3  -1   4    9.10    1.90
  -4   1  -4 3994.40  106.99
  -4   1  -4 3849.42  107.89
  -4   1  -4 3927.21  110.59
  -4   1  -4 3489.75  106.79
  -4   1  -4 3892.11  107.39
   4  -1   4 3805.32  108.99
   4  -1   4 3936.11  114.59
   4  -1   4 3930.61  118.89
   4  -1   4 3914.71  106.09
   4  -1   4 3849.21  106.79
   4  -1   4 3834.72  106.89
   4  -1   4 3910.31  105.99
   4  -1   4 3854.51  106.29
  -5   1  -4  100.89    4.40
  -5   1  -4   85.09    4.90
  -5   1  -4   94.79    7.50
   5  -1   4   88.59    3.40
   5  -1   4   90.39    3.50
   5  -1   4   84.99    3.20
   5  -1   4   84.29    4.60
   5  -1   4   92.99   10.30
  -6   1  -4  726.33   21.90
  -6   1  -4  768.02   27.30
  -6   1  -4  769.62   27.00
  -6   1  -4  763.52   23.40
   6  -1   4  769.12   24.30
   6  -1   4  835.42   40.00
   6  -1   4  769.32   23.70
   6  -1   4  784.82   22.00
  -7   1  -4   63.99    2.40
  -7   1  -4   64.49    5.10
  -7   1  -4   67.79    3.50
   7  -1   4   64.99   10.70
   7  -1   4   65.19    4.10
  -8   1  -4   24.00    1.60
  -8   1  -4   23.00    2.30
   8  -1   4   21.90    5.90
   8   0  -4  686.03   20.00
   8   0  -4  697.83   20.00
   8   0  -4  691.03   19.60
   8   0  -4  653.03   20.70
  -8   0   4  702.13   19.50
  -8   0   4  701.23   19.70
   7   0  -4  446.16   13.60
   7   0  -4  440.96   15.40
   7   0  -4  438.86   13.30
   7   0  -4  439.36   13.60
  -7   0   4  442.96   13.30
  -7   0   4  434.46   13.40
  -7   0   4  439.76   13.00
   6   0  -4 3539.95   95.09
   6   0  -4 3386.16   95.69
   6   0  -4 3416.96   95.09
   6   0  -4 3542.05   94.89
   6   0  -4 3340.77   95.19
   6   0  -4 3440.06   93.89
   6   0  -4 3403.96   96.99
   6   0  -4 3575.74   98.69
  -6   0   4 3410.26   94.89
  -6   0   4 3266.57   94.29
  -6   0   4 3415.76   94.79
   5   0  -4 3611.14  101.09
   5   0  -4 3636.74  103.39
  -5   0   4 3574.74  100.49
  -5   0   4 3841.72  100.69
  -5   0   4 3577.94  104.29
   4   0  -4  985.90   28.80
   4   0  -4  986.40   27.80
   4   0  -4  963.90   29.10
  -4   0   4  953.30   27.50
  -4   0   4  959.90   29.90
   3   0  -4 1939.51   51.99
   3   0  -4 1823.02   52.99
   3   0  -4 1882.71   52.69
  -3   0   4 1887.91   53.79
  -3   0   4 1824.92   52.39
   2   0  -4 2670.23   69.79
   2   0  -4 2587.84   69.89
   2   0  -4 2602.14   73.49
   2   0  -4 2186.38   70.39
   2   0  -4 2545.25   70.29
  -2   0   4 2635.44   72.19
  -2   0   4 2621.94   70.29
  -2   0   4 2575.54   71.89
  -2   0   4 2422.56   69.39
   1   0  -4  194.28    6.30
   1   0  -4  219.18    6.70
   1   0  -4  202.98    6.50
   1   0  -4  212.58    6.00
   1   0  -4  213.18    9.70
   1   0  -4  212.48    6.80
  -1   0   4  206.98    5.90
  -1   0   4  196.48    9.00
  -1   0   4  184.68    7.20
   0   0  -4  723.43   19.70
   0   0  -4  630.74   20.90
   0   0  -4  752.62   20.60
   0   0  -4  746.43   21.40
   0   0  -4  666.43   20.00
   0   0   4  712.83   20.40
   0   0   4  717.73   21.60
   0   0   4  722.53   24.30
  -1   0  -4 4450.35  124.19
  -1   0  -4 4571.44  124.69
   1   0   4 4478.35  125.79
   1   0   4 4638.34  129.59
   1   0   4 4456.75  123.69
  -2   0  -4 2448.46   69.39
  -2   0  -4 2572.04   69.89
   2   0   4 2548.55   75.59
   2   0   4 2400.06   71.09
   2   0   4 2476.45   68.89
  -3   0  -4  678.73   20.80
  -3   0  -4  697.53   21.20
  -3   0  -4  699.83   22.90
   3   0   4  694.43   19.70
   3   0   4  703.53   27.30
   3   0   4  682.53   19.60
   3   0   4  681.73   20.20
   3   0   4  667.93   22.60
  -4   0  -4   43.90    3.20
  -4   0  -4   38.90    2.40
  -4   0  -4   42.60    4.50
  -4   0  -4   41.20    3.40
   4   0   4   42.10    4.80
   4   0   4   37.20    7.50
   4   0   4   48.30    2.70
   4   0   4   41.40    2.80
   4   0   4   41.10    2.00
   4   0   4   43.70    6.40
   4   0   4   43.00    2.10
  -5   0  -4  335.17   11.20
  -5   0  -4  325.67   13.90
  -5   0  -4  341.97   12.50
  -5   0  -4  322.57    9.90
   5   0   4  341.77   10.40
   5   0   4  370.36   22.70
   5   0   4  323.67   11.70
   5   0   4  333.57   10.50
  -6   0  -4  197.88    6.30
  -6   0  -4  199.68    7.50
  -6   0  -4  207.68   11.00
   6   0   4  208.28   18.70
   6   0   4  200.18    6.50
  -7   0  -4  210.58    7.40
  -7   0  -4  213.38    9.10
   7   0   4  206.08    6.30
   7   0   4  201.38   19.00
   7   0   4  198.68    8.70
  -8   0  -4  101.39    4.30
   8   0   4   97.09    4.80
   8   0   4   78.79   12.20
   8  -1  -4    8.50    1.10
   8  -1  -4    7.60    1.00
   8  -1  -4    6.80    0.90
  -8   1   4    9.60    1.00
  -8   1   4    7.20    0.90
  -8   1   4    7.50    0.70
   7  -1  -4  149.19    4.50
   7  -1  -4  143.29    5.30
   7  -1  -4  142.99    5.40
   7  -1  -4  142.29    5.60
   7  -1  -4  142.89    5.40
   7  -1  -4  138.69    6.20
  -7   1   4  140.49    6.90
  -7   1   4  146.49    5.20
  -7   1   4  143.59    4.90
   6  -1  -4 1195.68   35.70
   6  -1  -4 1175.68   33.30
   6  -1  -4 1176.18   36.00
   6  -1  -4 1131.59   34.40
   6  -1  -4 1156.88   33.50
   6  -1  -4 1156.88   33.10
   6  -1  -4 1171.18   33.60
   6  -1  -4 1169.78   34.10
   6  -1  -4 1194.28   32.20
  -6   1   4 1178.48   33.30
  -6   1   4 1087.99   32.70
  -6   1   4 1137.79   33.10
   5  -1  -4 1246.28   36.40
   5  -1  -4 1248.28   35.20
   5  -1  -4 1254.77   36.80
  -5   1   4 1152.68   34.40
  -5   1   4 1209.98   34.50
  -5   1   4 1197.88   37.60
   4  -1  -4  771.72   23.70
   4  -1  -4  765.12   22.40
   4  -1  -4  773.72   23.40
  -4   1   4  773.72   21.90
  -4   1   4  755.92   24.10
   3  -1  -4 1849.21   51.49
   3  -1  -4 1781.62   50.39
   3  -1  -4 1732.23   50.99
  -3   1   4 1870.81   51.89
   2  -1  -4  223.78    7.50
   2  -1  -4  221.68    7.40
   2  -1  -4  230.38    7.10
   2  -1  -4  244.28    7.60
   2  -1  -4  231.88    7.80
   2  -1  -4  235.58    8.20
  -2   1   4  231.18    9.70
  -2   1   4  221.78    7.90
  -2   1   4  226.58    8.70
  -1   1   4 5746.62  161.38
  -1   1   4 5974.30  166.18
  -1   1   4 6002.40  163.18
   0  -1  -4 1038.50   29.70
   0  -1  -4  997.90   29.10
   0  -1  -4 1093.79   30.50
   0  -1  -4 1064.69   30.10
   0   1   4 1041.30   34.50
   0   1   4 1033.90   29.30
  -1  -1  -4 1540.25   45.40
  -1  -1  -4 1626.64   45.00
  -1  -1  -4 1556.14   44.70
   1   1   4 1581.34   50.69
   1   1   4 1617.44   44.30
  -2  -1  -4  133.99    5.40
  -2  -1  -4  127.99    5.30
  -2  -1  -4  131.29    5.90
   2   1   4  129.29    4.30
   2   1   4  133.89    4.90
   2   1   4  131.49    9.70
  -3  -1  -4  582.14   18.40
  -3  -1  -4  651.73   21.30
  -3  -1  -4  646.24   19.60
   3   1   4  617.54   24.00
   3   1   4  627.24   18.00
   3   1   4  632.94   18.30
   3   1   4  623.54   18.80
   3   1   4  604.14   17.90
   3   1   4  625.74   27.00
   3   1   4  619.54   27.60
  -4  -1  -4  660.73   20.50
  -4  -1  -4  697.43   22.50
  -4  -1  -4  706.63   22.10
   4   1   4  645.34   24.30
   4   1   4  743.13   32.90
   4   1   4  710.53   20.00
   4   1   4  683.73   20.00
   4   1   4  661.13   20.40
  -5  -1  -4  317.47   13.10
  -5  -1  -4  327.27   12.70
   5   1   4  323.07   10.00
   5   1   4  327.97   10.20
   5   1   4  315.77   11.90
   5   1   4  352.16   23.40
   5   1   4  325.67   10.30
  -6  -1  -4   75.19    4.90
  -6  -1  -4   82.59    3.80
   6   1   4   79.99   11.70
   6   1   4   77.99    3.00
   6   1   4   72.29    5.80
  -7  -1  -4  219.98    7.10
  -7  -1  -4  213.78    8.20
   7   1   4  187.58   17.70
   7   1   4  201.48    6.20
   9  -2  -4   64.29    2.40
   9  -2  -4   69.99    2.70
   9  -2  -4   68.59    2.60
  -9   2   4   69.69    2.30
  -9   2   4   71.19    2.50
   8  -2  -4   52.59    2.50
   8  -2  -4   60.59    2.70
   8  -2  -4   57.19    2.80
   8  -2  -4   57.39    2.70
   8  -2  -4   56.09    2.00
  -8   2   4   56.89    2.50
  -8   2   4   61.99    2.40
   7  -2  -4    2.70    0.80
   7  -2  -4    2.10    0.80
   7  -2  -4    3.20    0.70
   7  -2  -4    3.30    0.50
   7  -2  -4    4.00    1.00
   7  -2  -4    3.40    0.70
  -7   2   4    2.40    0.60
  -7   2   4    1.40    0.60
   6  -2  -4  316.97   10.20
   6  -2  -4  333.67   12.60
   6  -2  -4  331.17   11.40
   6  -2  -4  317.37   12.80
   6  -2  -4  319.67   10.40
   6  -2  -4  303.17   10.50
   6  -2  -4  321.77    9.30
   6  -2  -4  322.27   10.60
   6  -2  -4  323.47   10.60
  -6   2   4  328.17   10.20
  -6   2   4  308.87   10.80
  -6   2   4  333.97   10.50
   5  -2  -4   37.80    2.70
  -5   2   4   39.70    5.70
  -5   2   4   38.90    4.20
  -5   2   4   36.80    2.10
   4  -2  -4    6.30    1.40
   4  -2  -4    7.20    1.50
   4  -2  -4    5.80    1.00
  -4   2   4    7.60    2.40
  -4   2   4    5.90    0.90
  -4   2   4    7.10    1.70
   3  -2  -4  192.08    7.10
   3  -2  -4  192.08    7.40
   3  -2  -4  200.98    6.60
   3  -2  -4  190.48    6.60
  -3   2   4  198.98    7.40
  -3   2   4  186.38    6.60
  -3   2   4  193.98    9.00
  -3   2   4  181.78    7.80
  -3   2   4  204.68    8.50
   2  -2  -4  124.59    4.80
   2  -2  -4  121.39    4.90
   2  -2  -4  117.59    4.30
   2  -2  -4  122.19    4.90
   2  -2  -4  125.39    4.90
   2  -2  -4  126.49    4.40
  -2   2   4  117.59    5.50
  -2   2   4  115.29    6.40
  -2   2   4  126.29    5.40
  -2   2   4  128.99    7.50
   1  -2  -4 1241.98   36.10
   1  -2  -4 1192.68   36.40
   1  -2  -4 1278.27   36.30
   1  -2  -4 1312.47   37.00
   1  -2  -4 1287.97   37.10
   1  -2  -4 1285.67   35.90
  -1   2   4 1284.47   36.80
  -1   2   4 1343.77   36.10
  -1   2   4 1316.97   41.80
   0  -2  -4    3.50    0.80
   0  -2  -4    4.20    1.00
   0  -2  -4    3.90    1.10
   0   2   4    4.80    2.40
   0   2   4    4.20    0.80
  -1  -2  -4  879.71   26.60
  -1  -2  -4  865.81   25.90
  -1  -2  -4  856.51   25.50
   1   2   4  872.51   32.60
   1   2   4  854.21   24.20
   1   2   4  859.11   25.00
  -2  -2  -4  379.76   13.00
  -2  -2  -4  381.46   13.90
  -2  -2  -4  424.16   13.10
   2   2   4  380.56   20.00
   2   2   4  382.06   11.50
  -3  -2  -4   33.50    2.10
  -3  -2  -4   36.50    3.10
  -3  -2  -4   34.90    2.80
  -3  -2  -4   34.80    3.80
   3   2   4   36.20    1.90
   3   2   4   40.00    3.00
   3   2   4   39.60    2.00
   3   2   4   40.40    6.10
  -4  -2  -4  316.87   10.00
  -4  -2  -4  327.37   13.50
  -4  -2  -4  327.87   10.80
  -4  -2  -4  332.77   12.70
  -4  -2  -4  340.17   12.80
   4   2   4  330.97   10.40
   4   2   4  362.16   22.40
   4   2   4  325.47   10.40
   4   2   4  328.37   10.10
  -5  -2  -4  143.59    7.00
  -5  -2  -4  148.69    5.80
   5   2   4  149.19   15.50
   5   2   4  146.79    5.30
   5   2   4  139.49    5.20
   5   2   4  144.39    5.10
  -6  -2  -4  540.65   18.00
  -6  -2  -4  545.05   16.00
   6   2   4  487.75   31.10
  -7  -2  -4   12.40    1.10
  -7  -2  -4   12.70    1.30
  -7  -2  -4   12.40    0.70
   7   2   4   11.80    2.20
   7   2   4    9.40    4.00
   9  -3  -4    0.80    0.50
   9  -3  -4    0.10    0.30
  -9   3   4    0.30    0.20
  -9   3   4    0.80    0.30
   8  -3  -4   34.30    2.00
   8  -3  -4   36.20    2.00
   8  -3  -4   37.60    2.20
   8  -3  -4   36.90    1.40
   8  -3  -4   34.70    2.00
  -8   3   4   35.80    1.70
  -8   3   4   35.30    1.90
  -8   3   4   38.70    2.20
   7  -3  -4  144.79    4.50
   7  -3  -4  144.59    5.50
   7  -3  -4  144.59    5.40
   7  -3  -4  142.09    5.30
   7  -3  -4  145.49    5.60
  -7   3   4  133.79    4.90
  -7   3   4  141.29    5.30
  -7   3   4  148.29    5.60
  -7   3   4  138.49    5.80
   6  -3  -4  249.88    8.40
   6  -3  -4  243.08   11.10
   6  -3  -4  250.57   11.90
   6  -3  -4  247.88   11.50
   6  -3  -4  257.67    8.60
   6  -3  -4  237.98    8.20
   6  -3  -4  249.28    7.30
   6  -3  -4  246.58    8.60
  -6   3   4  245.18    8.40
  -6   3   4  245.98    8.30
   5  -3  -4  112.89    4.60
   5  -3  -4  115.49    4.60
   5  -3  -4  112.29    3.90
   5  -3  -4  116.49    4.60
   5  -3  -4  121.29    5.30
   5  -3  -4  117.09    6.10
   5  -3  -4  113.79    6.20
   5  -3  -4  114.89    3.70
  -5   3   4  106.69    8.60
  -5   3   4  112.29    4.40
   4  -3  -4  318.67   11.60
   4  -3  -4  318.07   11.80
   4  -3  -4  331.67   10.80
   4  -3  -4  318.47   10.50
  -4   3   4  334.47   11.50
  -4   3   4  320.47   14.20
   3  -3  -4 1312.67   37.10
   3  -3  -4 1329.87   36.60
   3  -3  -4 1280.57   37.50
   3  -3  -4 1321.77   37.40
   3  -3  -4 1238.78   36.50
  -3   3   4 1280.67   40.20
  -3   3   4 1272.47   36.70
  -3   3   4 1211.78   37.20
  -3   3   4 1274.07   39.40
   2  -3  -4  420.76   13.90
   2  -3  -4  419.36   13.90
   2  -3  -4  414.46   12.80
   2  -3  -4  426.56   13.60
   2  -3  -4  428.86   13.10
   2  -3  -4  418.96   13.60
  -2   3   4  430.76   18.40
  -2   3   4  422.36   14.70
  -2   3   4  462.75   13.40
  -2   3   4  430.26   13.20
   1  -3  -4 5042.10  135.49
   1  -3  -4 5108.29  136.99
   1  -3  -4 4965.90  136.59
   1  -3  -4 4846.92  135.29
  -1   3   4 4703.83  135.99
  -1   3   4 4869.21  135.59
   0  -3  -4 2647.83   74.09
   0  -3  -4 2792.22   76.29
   0  -3  -4 2686.53   75.09
   0   3   4 2654.83   73.99
   0   3   4 2477.05   72.69
  -1  -3  -4  507.65   17.20
  -1  -3  -4  505.55   15.80
  -1  -3  -4  475.95   14.60
  -1  -3  -4  510.25   16.50
   1   3   4  495.35   15.40
   1   3   4  467.15   14.20
  -2  -3  -4  447.86   14.00
  -2  -3  -4  473.85   15.60
  -2  -3  -4  469.35   15.80
  -2  -3  -4  478.65   17.00
   2   3   4  465.25   13.80
   2   3   4  465.85   15.00
   2   3   4  453.25   13.80
  -3  -3  -4  187.68    6.80
  -3  -3  -4  192.78    8.50
  -3  -3  -4  199.68    9.90
  -3  -3  -4  199.28    8.70
  -3  -3  -4  186.08    6.80
  -3  -3  -4  191.18    6.20
   3   3   4  202.38    6.60
   3   3   4  200.38    6.70
   3   3   4  190.38    6.40
   3   3   4  185.48    7.30
   3   3   4  205.28   15.70
  -4  -3  -4  800.62   25.10
  -4  -3  -4  749.62   21.40
  -4  -3  -4  692.43   21.20
  -4  -3  -4  721.23   22.20
  -4  -3  -4  748.43   23.60
  -4  -3  -4  712.53   25.90
   4   3   4  750.32   21.90
   4   3   4  758.22   21.70
   4   3   4  801.72   22.10
   4   3   4  772.92   38.20
  -5  -3  -4  425.56   12.30
  -5  -3  -4  441.36   13.40
  -5  -3  -4  435.46   14.40
   5   3   4  442.96   12.80
   5   3   4  434.66   12.90
   5   3   4  387.46   26.70
   5   3   4  411.96   12.90
  -6  -3  -4  126.19    4.60
  -6  -3  -4  121.49    5.10
  -6  -3  -4  122.99    4.20
   6   3   4  124.19    4.20
   8  -4  -4  111.99    4.30
   8  -4  -4  112.39    4.30
   8  -4  -4  109.59    4.10
   8  -4  -4  113.39    3.50
   8  -4  -4  117.09    4.50
  -8   4   4  113.89    3.90
  -8   4   4  114.69    4.30
  -8   4   4  113.79    4.20
   7  -4  -4  483.75   15.00
   7  -4  -4  494.35   15.30
   7  -4  -4  492.55   13.90
   7  -4  -4  487.95   15.00
   7  -4  -4  492.55   15.10
  -7   4   4  488.05   15.60
  -7   4   4  491.85   14.90
  -7   4   4  486.25   15.10
   6  -4  -4   20.80    1.90
   6  -4  -4   18.70    1.10
   6  -4  -4   17.90    1.90
   5  -4  -4  205.58    6.50
   5  -4  -4  203.38    8.00
   5  -4  -4  212.78    9.10
   5  -4  -4  194.38    6.20
   5  -4  -4  202.08    6.20
   5  -4  -4  209.98    7.30
   5  -4  -4  204.18    7.20
  -5   4   4  200.38    7.00
   4  -4  -4  755.12   23.10
   4  -4  -4  760.92   23.40
  -4   4   4  763.52   27.10
  -4   4   4  763.32   22.10
   3  -4  -4  319.27   11.30
   3  -4  -4  341.17   11.80
   3  -4  -4  341.47   11.10
   3  -4  -4  335.87   11.90
  -3   4   4  343.07   11.40
  -3   4   4  322.47   13.50
   2  -4  -4   12.00    2.00
   2  -4  -4    5.30    1.50
   2  -4  -4    5.40    1.00
  -2   4   4    6.40    1.40
  -2   4   4   11.90    5.00
  -2   4   4    6.70    2.00
   1  -4  -4    9.70    1.40
   1  -4  -4   12.00    2.20
   1  -4  -4    9.20    2.00
  -1   4   4   10.70    2.00
  -1   4   4   11.40    1.80
   0  -4  -4   86.79    4.40
   0  -4  -4   86.89    5.60
   0  -4  -4   90.29    5.10
   0   4   4   91.39    4.50
  -1  -4  -4  164.88    7.10
  -1  -4  -4  159.98    7.70
  -1  -4  -4  160.38    8.50
   1   4   4  166.88    5.70
   1   4   4  186.48    9.50
   1   4   4  166.38    5.60
  -2  -4  -4  100.79    4.10
  -2  -4  -4  105.19    6.00
  -2  -4  -4  103.09    5.90
  -2  -4  -4   96.59    4.40
  -2  -4  -4   96.29    3.90
  -2  -4  -4  101.89    7.00
  -2  -4  -4  102.49    3.60
  -2  -4  -4  102.29    3.70
   2   4   4  102.69    4.00
   2   4   4  102.19    3.90
   2   4   4  102.39    5.20
  -3  -4  -4  303.47   10.70
  -3  -4  -4  305.87    9.30
  -3  -4  -4  300.37   14.10
  -3  -4  -4  311.07   10.20
  -3  -4  -4  298.87   12.50
  -3  -4  -4  309.17   14.30
  -3  -4  -4  322.47    9.50
  -3  -4  -4  305.67    9.50
  -3  -4  -4  314.57    9.30
   3   4   4  307.07    9.70
   3   4   4  332.87   10.10
   3   4   4  322.37   10.00
  -4  -4  -4  265.07    9.80
  -4  -4  -4  300.97    8.50
  -4  -4  -4  281.47    9.30
   4   4   4  283.87    8.90
   4   4   4  281.47    9.10
   4   4   4  277.77    9.10
  -5  -4  -4   79.59    3.70
  -5  -4  -4   74.79    2.60
   5   4   4   76.79    3.00
   5   4   4   76.19    3.00
  -6  -4  -4   28.50    1.60
   6   4   4   27.20    1.20
   8  -5  -4   21.00    0.90
   8  -5  -4   21.80    1.50
   8  -5  -4   21.80    1.40
   8  -5  -4   22.90    1.60
  -8   5   4   22.10    1.40
  -8   5   4   22.60    1.60
   7  -5  -4  100.19    4.50
   7  -5  -4   91.99    3.90
   7  -5  -4   99.19    4.70
  -7   5   4   95.09    4.60
  -7   5   4   98.29    4.20
  -7   5   4  105.29    4.80
   6  -5  -4  165.08    5.30
   6  -5  -4  159.98    4.80
   6  -5  -4  164.48    6.10
   6  -5  -4  148.49    5.90
   6  -5  -4  164.88    5.00
   6  -5  -4  161.18    5.90
  -6   5   4  159.58    6.00
  -6   5   4  158.68    7.90
   5  -5  -4   94.59    3.10
   5  -5  -4   92.29    3.00
   5  -5  -4   96.59    4.10
   5  -5  -4   98.09    4.20
   5  -5  -4   90.79    6.00
   5  -5  -4   96.29    3.60
   5  -5  -4   96.99    5.20
   5  -5  -4   97.99    3.20
  -5   5   4   91.79    4.00
   4  -5  -4  711.83   23.70
   4  -5  -4  765.02   23.00
   4  -5  -4  761.02   20.70
   4  -5  -4  743.23   20.90
   4  -5  -4  751.22   21.10
   4  -5  -4  731.83   23.90
   4  -5  -4  765.22   20.90
   4  -5  -4  742.33   21.40
   4  -5  -4  715.73   21.90
   4  -5  -4  751.92   21.80
  -4   5   4  728.93   21.40
   3  -5  -4   69.79    2.40
   3  -5  -4   72.89    3.00
   3  -5  -4   63.79    4.90
   3  -5  -4   68.79    4.70
   3  -5  -4   71.49    3.20
   3  -5  -4   71.39    2.50
   3  -5  -4   65.49    2.70
   3  -5  -4   81.29    4.00
   3  -5  -4   69.29    2.50
  -3   5   4   61.09    6.60
  -3   5   4   62.19    2.60
  -3   5   4   61.89    4.80
   2  -5  -4  316.27    9.50
   2  -5  -4  316.97   12.50
   2  -5  -4  332.47   12.80
   2  -5  -4  326.17   10.90
   2  -5  -4  314.67    9.40
   2  -5  -4  328.17    9.80
  -2   5   4  321.97    9.60
  -2   5   4  315.47   11.60
   1  -5  -4  102.69    4.10
   1  -5  -4  101.39    6.00
   1  -5  -4  102.49    3.60
   1  -5  -4  104.29    4.00
   1  -5  -4  103.29    3.50
   1  -5  -4  109.49    5.10
  -1   5   4  115.29    5.80
  -1   5   4  111.69    3.90
   0  -5  -4  130.09    7.10
   0  -5  -4  138.99    6.20
   0  -5  -4  116.99    4.30
   0  -5  -4  117.39    7.60
   0  -5  -4  119.09    4.30
   0   5   4  123.79    4.70
   0   5   4  131.59    4.60
  -1  -5  -4  307.37    9.80
  -1  -5  -4  311.47    9.20
  -1  -5  -4  302.57   12.60
  -1  -5  -4  307.07    9.60
  -1  -5  -4  316.07   14.00
  -1  -5  -4  310.67    9.30
  -1  -5  -4  319.57    9.50
  -1  -5  -4  306.87    9.90
  -1  -5  -4  309.37   11.80
   1   5   4  319.87    9.80
   1   5   4  310.47    9.90
   1   5   4  294.67    9.70
   2   5   4  634.34   18.60
   2   5   4  628.64   20.00
   2   5   4  616.24   18.70
  -3  -5  -4  135.09    5.30
  -3  -5  -4  132.09    4.40
  -3  -5  -4  133.59    4.30
  -3  -5  -4  135.29    4.40
   3   5   4  131.89    5.00
   3   5   4  131.49    4.90
   3   5   4  135.29    5.00
  -4  -5  -4  472.45   14.60
  -4  -5  -4  477.85   13.50
   4   5   4  476.35   14.30
   4   5   4  467.75   14.20
   4   5   4  484.35   14.10
  -5  -5  -4    4.20    0.60
  -5  -5  -4    4.30    0.70
  -5  -5  -4    5.30    0.40
   5   5   4    3.30    0.50
   8  -6  -4  208.18    6.80
   8  -6  -4  206.48    6.70
   8  -6  -4  212.58    6.00
  -8   6   4  208.48    6.60
   7  -6  -4  200.68    6.90
   7  -6  -4  206.08    6.00
   7  -6  -4  204.38    7.00
  -7   6   4  206.58    7.00
  -7   6   4  195.88    6.80
   6  -6  -4  930.81   26.30
   6  -6  -4  948.91   25.90
   6  -6  -4  929.61   27.10
   6  -6  -4  910.61   26.00
   6  -6  -4  908.31   27.00
  -6   6   4  941.11   27.10
  -6   6   4  945.81   27.10
   5  -6  -4  245.08    7.40
   5  -6  -4  254.57    7.30
   5  -6  -4  254.57    7.30
   5  -6  -4  257.07    8.50
   5  -6  -4  241.78    8.30
   5  -6  -4  252.07    7.80
  -5   6   4  228.78   10.10
   4  -6  -4 1339.77   46.00
   4  -6  -4 1462.85   40.50
  -4   6   4 1424.26   39.90
   3  -6  -4  428.76   12.30
   3  -6  -4  424.96   11.90
   3  -6  -4  394.96   13.80
   3  -6  -4  421.76   12.00
   3  -6  -4  405.36   19.90
   3  -6  -4  412.36   12.70
   3  -6  -4  409.56   12.50
   3  -6  -4  415.76   12.00
  -3   6   4  403.66   12.50
   2  -6  -4  409.96   11.90
   2  -6  -4  408.06   11.90
   2  -6  -4  404.96   11.80
   2  -6  -4  417.16   12.60
   2  -6  -4  390.16   15.80
   2  -6  -4  401.96   12.20
   2  -6  -4  418.46   12.60
   2  -6  -4  474.35   21.10
  -2   6   4  409.66   12.40
  -2   6   4  386.86   12.50
   1  -6  -4   37.60    1.70
   1  -6  -4   38.10    2.10
   1  -6  -4   36.50    1.70
   1  -6  -4   36.00    1.80
   1  -6  -4   35.80    1.60
   1  -6  -4   37.90    1.90
   1  -6  -4   32.50    4.50
   1  -6  -4   32.90    6.20
  -1   6   4   35.70    2.00
  -1   6   4   36.30    2.20
   0  -6  -4  265.57    8.50
   0  -6  -4  272.37    8.90
   0   6   4  267.17    8.80
   0   6   4  281.67    8.90
  -1  -6  -4 1855.51   52.29
  -1  -6  -4 1832.22   52.29
  -1  -6  -4 1774.42   52.69
  -1  -6  -4 1893.21   53.19
  -1  -6  -4 1928.11   52.59
  -1  -6  -4 1967.40   52.29
   1   6   4 1936.91   53.29
   1   6   4 1894.01   53.09
   1   6   4 1983.50   53.19
  -2  -6  -4   80.69    3.30
  -2  -6  -4   82.19    2.90
  -2  -6  -4   80.69    3.40
  -2  -6  -4   84.59    3.60
   2   6   4   83.59    3.60
   2   6   4   83.29    3.50
   2   6   4   85.79    3.60
  -3  -6  -4  538.75   16.10
  -3  -6  -4  562.24   15.40
  -3  -6  -4  551.14   15.50
  -3  -6  -4  553.24   15.60
  -3  -6  -4  549.95   16.30
   3   6   4  552.94   16.30
   3   6   4  551.34   16.20
   3   6   4  551.94   16.40
  -4  -6  -4  100.99    3.40
  -4  -6  -4   93.19    3.10
  -4  -6  -4   85.29    2.70
   4   6   4   89.99    3.30
   4   6   4   96.39    5.40
   7  -7  -4  167.08    5.80
   7  -7  -4  187.08    5.60
   7  -7  -4  173.28    6.20
  -7   7   4  174.18    5.70
  -7   7   4  163.18    6.20
   6  -7  -4  129.79    4.20
   6  -7  -4  128.59    4.00
   6  -7  -4  125.29    4.80
   6  -7  -4  130.99    3.90
   6  -7  -4  122.99    4.70
  -6   7   4  129.59    4.90
  -6   7   4  124.49    4.90
   5  -7  -4  104.89    4.30
   5  -7  -4  100.29    4.00
   5  -7  -4  105.99    3.50
   5  -7  -4   99.99    3.20
  -5   7   4   91.19    4.20
  -5   7   4   99.69    4.30
   4  -7  -4 1117.39   31.20
   4  -7  -4 1123.79   30.70
   4  -7  -4 1082.99   30.80
   4  -7  -4 1106.99   30.60
   4  -7  -4 1083.39   31.60
  -4   7   4 1103.59   31.80
  -4   7   4 1119.09   31.80
   3  -7  -4   92.39    3.60
   3  -7  -4   94.09    3.10
   3  -7  -4   92.59    3.20
   3  -7  -4   87.99    3.10
   3  -7  -4   95.79    3.40
   3  -7  -4   92.59    3.80
  -3   7   4   93.99    4.00
  -3   7   4   83.79    3.80
   2  -7  -4 1104.79   30.10
   2  -7  -4 1129.69   30.60
   2  -7  -4 1014.00   30.20
   2  -7  -4 1077.99   30.20
   2  -7  -4 1105.99   30.90
  -2   7   4 1069.89   31.10
  -2   7   4 1086.69   31.10
   1  -7  -4  190.98    5.90
   1  -7  -4  192.88    5.80
   1  -7  -4  190.28    5.90
   1  -7  -4  187.98    6.10
   1  -7  -4  188.58    6.50
  -1   7   4  187.78    6.60
  -1   7   4  183.78    6.60
   0  -7  -4   51.29    2.50
   0  -7  -4   50.19    2.00
   0  -7  -4   48.20    2.10
   0  -7  -4   51.39    2.10
   0  -7  -4   52.49    1.90
   0   7   4   49.99    2.70
   0   7   4   50.39    2.60
   0   7   4   52.19    2.70
  -1  -7  -4  442.86   13.10
  -1  -7  -4  463.45   13.80
  -1  -7  -4  455.65   13.00
  -1  -7  -4  463.35   12.90
  -1  -7  -4  450.25   12.90
   1   7   4  441.86   13.90
   1   7   4  471.75   13.80
  -2  -7  -4   12.60    0.70
  -2  -7  -4   13.90    0.80
  -2  -7  -4   12.20    1.10
   2   7   4   14.20    1.20
   2   7   4   12.40    1.30
   2   7   4   15.10    1.20
  -3  -7  -4   13.60    0.90
   3   7   4   15.60    2.30
   3   7   4   13.90    1.00
   6  -8  -4  110.99    3.80
   6  -8  -4  114.89    3.40
   6  -8  -4  115.09    3.40
   6  -8  -4  111.79    4.00
   6  -8  -4  114.09    3.60
  -6   8   4  110.59    4.20
   5  -8  -4  257.57    7.60
   5  -8  -4  257.87    7.30
   5  -8  -4  254.37    7.40
  -5   8   4  249.18    8.20
  -5   8   4  250.37    8.30
   4  -8  -4  155.48    4.60
   4  -8  -4  158.18    4.70
   4  -8  -4  158.58    5.00
   4  -8  -4  154.48    4.70
   4  -8  -4  142.69    5.20
  -4   8   4  151.08    5.70
  -4   8   4  147.29    5.50
   3  -8  -4   14.50    0.80
   3  -8  -4   14.60    1.80
   3  -8  -4   14.90    0.90
   3  -8  -4   12.90    0.70
   3  -8  -4   13.00    1.10
  -3   8   4   13.60    1.40
  -3   8   4   16.80    1.50
   2  -8  -4   39.00    1.50
   2  -8  -4   38.30    1.60
   2  -8  -4   38.60    1.90
   2  -8  -4   40.90    1.60
  -2   8   4   38.10    2.50
  -2   8   4   37.20    2.20
  -2   8   4   38.80    4.30
  -2   8   4   36.30    3.20
   1  -8  -4   48.20    2.20
   1  -8  -4   49.40    2.00
   1  -8  -4   46.70    1.80
   1  -8  -4   48.80    1.80
   1  -8  -4   49.40    1.70
  -1   8   4   46.00    2.50
  -1   8   4   51.79    4.60
  -1   8   4   49.90    2.50
  -1   8   4   48.40    2.50
   0  -8  -4  201.88    6.10
   0  -8  -4  208.98    6.10
   0  -8  -4  205.48    6.60
   0   8   4  194.78    6.70
   0   8   4  209.18    7.00
   0   8   4  206.38    6.90
   0   8   4  223.88   10.30
  -1  -8  -4  494.35   14.20
  -1  -8  -4  505.45   14.10
  -1  -8  -4  480.95   14.20
  -1  -8  -4  505.35   14.60
   1   8   4  523.85   15.00
   1   8   4  544.15   18.50
   1   8   4  503.05   14.80
   4  -9  -4   49.10    1.60
   4  -9  -4   50.29    1.80
   4  -9  -4   50.49    1.60
   4  -9  -4   49.60    1.60
  -4   9   4   41.40    2.20
   3  -9  -4    9.60    0.60
   3  -9  -4    8.80    0.50
   3  -9  -4   10.10    0.60
   3  -9  -4   10.00    0.70
  -3   9   4   10.50    1.10
   2  -9  -4   18.80    1.00
   2  -9  -4   19.10    0.80
   2  -9  -4   19.50    0.80
   2  -9  -4   19.60    0.80
  -2   9   4   16.80    1.30
  -2   9   4   17.50    1.20
  -1  10  -5   30.10    4.10
  -1  10  -5   28.60    1.30
   1 -10   5   28.70    1.50
   1 -10   5   26.80    1.10
   1 -10   5   28.60    1.70
  -2  10  -5   96.19    3.30
  -2  10  -5   87.99    7.20
   2 -10   5   96.89    3.70
   2 -10   5   92.39    3.50
  -3  10  -5  904.91   32.80
  -3  10  -5  993.00   27.30
   3 -10   5  982.50   28.20
   3 -10   5  989.40   28.00
  -4  10  -5 1070.49   29.40
   4 -10   5 1042.60   29.40
   4 -10   5 1031.30   29.60
  -5  10  -5   44.80    1.80
   5 -10   5   45.80    1.90
   5 -10   5   44.90    1.90
   5 -10   5   44.60    1.80
  -2  -9   5   40.30    1.40
  -2  -9   5   40.70    2.00
   1   9  -5   32.00    4.40
   1   9  -5   28.60    1.70
  -1  -9   5   31.00    1.20
  -1  -9   5   30.80    1.60
  -1  -9   5   29.30    1.90
   0   9  -5  310.17    9.10
   0   9  -5  287.07   15.50
   0  -9   5  293.77    9.90
   0  -9   5  301.37    8.70
   0  -9   5  301.27    9.40
  -1   9  -5   42.70    7.80
  -1   9  -5   47.40    2.20
   1  -9   5   44.30    1.70
   1  -9   5   44.40    2.60
   1  -9   5   42.80    2.30
  -2   9  -5  153.78    5.60
  -2   9  -5  156.28   12.10
  -2   9  -5  165.28    5.70
   2  -9   5  161.98    4.90
   2  -9   5  163.48    5.80
   2  -9   5  157.48    6.10
  -3   9  -5    7.00    3.10
  -3   9  -5    7.90    1.00
  -3   9  -5    8.30    1.30
   3  -9   5    9.20    1.20
   3  -9   5    8.90    1.00
  -4   9  -5   43.30    2.20
  -4   9  -5   42.90    2.30
  -4   9  -5   42.00    6.20
   4  -9   5   42.10    2.30
   4  -9   5   39.40    2.40
  -5   9  -5    7.50    0.90
  -5   9  -5   10.50    1.20
   5  -9   5    8.60    0.90
   5  -9   5    7.00    1.00
  -6   9  -5   36.00    1.90
  -6   9  -5   33.00    2.30
   6  -9   5   41.20    2.40
   6  -9   5   35.00    1.70
   6  -9   5   35.90    2.10
   3   8  -5  224.48   11.60
  -3  -8   5  239.08    7.60
  -3  -8   5  218.88    7.40
   2   8  -5  478.95   20.70
  -2  -8   5  492.85   14.20
  -2  -8   5  463.65   14.80
   1   8  -5  444.06   21.10
   1   8  -5  459.05   13.60
  -1  -8   5  453.35   14.60
  -1  -8   5  472.05   13.90
   0   8  -5  181.58   12.70
   0   8  -5  205.58    6.80
   0  -8   5  204.48    7.60
   0  -8   5  203.68    7.00
  -1   8  -5  122.59    5.00
  -1   8  -5  133.59    5.00
  -1   8  -5  119.59   10.20
   1  -8   5  140.99    5.70
   1  -8   5  129.99    5.00
  -2   8  -5  374.76   11.70
  -2   8  -5  364.26   11.50
  -2   8  -5  345.57   18.90
  -2   8  -5  346.87   13.50
   2  -8   5  374.06   12.20
   2  -8   5  365.36   10.50
   2  -8   5  362.66   11.50
  -3   8  -5 2108.79   72.49
  -3   8  -5 2337.47   63.19
  -3   8  -5 2286.47   62.89
   3  -8   5 2252.77   63.59
   3  -8   5 2258.47   62.99
  -4   8  -5   25.80    1.90
  -4   8  -5   22.40    2.50
  -4   8  -5   20.90    5.30
  -4   8  -5   22.10    1.70
   4  -8   5   22.60    1.90
   4  -8   5   21.70    1.70
  -5   8  -5   24.40    1.80
  -5   8  -5   18.60    2.50
  -5   8  -5   23.90    1.60
   5  -8   5   23.70    1.90
  -6   8  -5   16.00    1.40
  -6   8  -5   16.90    2.00
  -6   8  -5   16.80    1.30
   6  -8   5   17.00    1.20
   6  -8   5   21.30    1.70
  -7   8  -5   45.10    2.60
   7  -8   5   41.90    2.30
  -4  -7   5  319.37   10.10
  -4  -7   5  310.77    9.40
   3   7  -5   35.40    5.10
  -3  -7   5   35.40    1.90
  -3  -7   5   33.00    2.30
  -3  -7   5   34.70    1.30
   2   7  -5  292.27    8.90
   2   7  -5  286.67   15.70
  -2  -7   5  285.67    9.30
  -2  -7   5  284.47   10.10
  -2  -7   5  289.77    8.40
   1   7  -5   20.40    4.00
   1   7  -5   31.30    1.90
  -1  -7   5   29.60    2.30
  -1  -7   5   25.80    2.50
  -1  -7   5   29.10    1.40
   0   7  -5  216.18   13.90
   0   7  -5  231.68    7.60
   0   7  -5  220.48    9.40
   0   7  -5  238.18    7.70
   0  -7   5  226.88    6.80
   0  -7   5  229.48    7.70
   0  -7   5  223.88    8.40
   0  -7   5  215.68   10.90
   0  -7   5  221.18   10.20
  -1   7  -5  212.18    7.50
  -1   7  -5  202.28    7.30
  -1   7  -5  240.08    8.40
  -1   7  -5  227.08    9.10
   1  -7   5  197.28    7.90
   1  -7   5  204.88    6.40
   1  -7   5  211.18    7.30
   1  -7   5  208.18   10.20
   1  -7   5  225.18    9.90
  -2   7  -5  124.19   10.40
  -2   7  -5  144.29    5.80
  -2   7  -5  131.89    5.20
  -2   7  -5  148.09    5.50
   2  -7   5  145.09    5.30
   2  -7   5  143.09    7.90
   2  -7   5  141.79    7.50
   2  -7   5  133.19    4.30
   2  -7   5  132.89    5.80
  -3   7  -5  709.53   30.50
  -3   7  -5  767.12   22.60
  -3   7  -5  750.92   22.30
  -3   7  -5  771.82   23.00
   3  -7   5  773.02   22.30
   3  -7   5  749.03   23.00
   3  -7   5  788.72   26.70
  -4   7  -5  534.85   16.20
  -4   7  -5  542.85   16.80
  -4   7  -5  551.34   16.40
  -4   7  -5  503.85   23.50
   4  -7   5  518.05   18.80
   4  -7   5  525.35   16.80
   4  -7   5  534.55   16.10
  -5   7  -5  995.00   31.00
  -5   7  -5 1030.20   29.30
  -5   7  -5  987.50   29.00
   5  -7   5 1001.70   29.90
   5  -7   5 1026.00   29.20
  -6   7  -5  482.95   15.20
  -6   7  -5  478.85   14.50
  -6   7  -5  499.55   14.70
  -6   7  -5  502.55   16.00
   6  -7   5  466.75   15.30
   6  -7   5  479.65   15.30
  -7   7  -5  262.67    8.00
  -7   7  -5  251.27    8.00
  -7   7  -5  259.77    9.00
   7  -7   5  253.37    8.00
   7  -7   5  249.58    8.60
  -8   7  -5   11.80    1.20
  -8   7  -5   11.50    0.70
   8  -7   5   11.70    1.10
   5   6  -5   67.69    4.70
  -5  -6   5   83.79    3.00
  -5  -6   5   86.29    2.50
  -5  -6   5   89.99    3.90
   4   6  -5  343.87   15.70
  -4  -6   5  422.36   13.20
  -4  -6   5  416.06   13.00
  -4  -6   5  410.56   11.50
   3   6  -5   26.70    4.90
   3   6  -5   18.00    3.50
  -3  -6   5   26.10    1.70
  -3  -6   5   25.60    2.30
   2   6  -5   25.80    4.60
   2   6  -5   18.70    2.70
   2   6  -5   19.60    2.80
   2   6  -5   24.20    1.60
   2   6  -5   18.40    3.80
  -2  -6   5   22.20    2.20
  -2  -6   5   23.10    1.50
  -2  -6   5   18.80    3.50
  -2  -6   5   20.90    1.20
  -2  -6   5   22.50    1.60
   1   6  -5   52.69    6.30
   1   6  -5   56.19    4.00
   1   6  -5   54.89    2.70
  -1  -6   5   57.49    2.70
  -1  -6   5   57.99    5.20
  -1  -6   5   53.59    3.20
  -1  -6   5   55.89    2.20
  -1  -6   5   55.09    4.10
  -1  -6   5   55.89    4.50
   0   6  -5   46.40    2.50
   0   6  -5   44.00    3.30
   0   6  -5   42.70    2.30
   0  -6   5   45.70    3.00
   0  -6   5   50.99    3.90
   0  -6   5   44.90    2.10
   0  -6   5   45.00    1.90
   0  -6   5   34.20    5.50
  -1   6  -5   18.40    1.70
  -1   6  -5   19.50    2.10
  -1   6  -5   26.80    2.00
  -1   6  -5   21.90    4.20
  -1   6  -5   23.80    4.10
   1  -6   5   19.60    1.40
   1  -6   5   21.50    3.40
   1  -6   5   22.60    4.00
  -2   6  -5  285.37    9.40
  -2   6  -5  262.97   15.20
  -2   6  -5  267.77    9.50
  -2   6  -5  277.57    9.90
  -2   6  -5  283.87    9.70
  -2   6  -5  280.67   13.10
   2  -6   5  295.17   11.60
   2  -6   5  293.57   11.30
   2  -6   5  329.57    9.40
  -3   6  -5  160.28    5.80
  -3   6  -5  167.38    6.40
  -3   6  -5  164.68    6.10
  -3   6  -5  161.88   10.00
  -3   6  -5  151.98   11.20
   3  -6   5  168.08    5.80
   3  -6   5  162.98    7.80
   3  -6   5  161.18    6.70
   3  -6   5  160.28    7.70
  -4   6  -5  302.57   10.40
  -4   6  -5  299.07   10.00
  -4   6  -5  303.27    9.70
   4  -6   5  305.17   11.90
   4  -6   5  292.77   10.40
   4  -6   5  312.47    9.70
   4  -6   5  291.17    8.70
  -5   6  -5  129.59    5.00
  -5   6  -5  125.79    5.40
  -5   6  -5  120.89    4.70
   5  -6   5  121.09    5.40
   5  -6   5  119.09    7.10
  -6   6  -5 1247.48   36.10
  -6   6  -5 1188.68   34.40
  -6   6  -5 1221.28   34.60
  -6   6  -5 1233.58   35.10
   6  -6   5 1240.58   35.60
   6  -6   5 1146.59   34.10
  -7   6  -5  430.76   13.00
  -7   6  -5  442.96   13.00
  -7   6  -5  439.86   14.50
   7  -6   5  452.05   14.10
   7  -6   5  430.66   13.10
  -8   6  -5  210.58    7.20
  -8   6  -5  210.28    6.40
   8  -6   5  200.28    7.80
   8  -6   5  200.88    6.40
   6   5  -5   73.39    4.60
  -6  -5   5   86.09    3.20
  -6  -5   5   93.59    2.70
   5   5  -5   18.60    3.00
  -5  -5   5   22.60    1.20
  -5  -5   5   23.40    1.50
   4   5  -5 1150.88   41.40
  -4  -5   5 1292.97   36.50
  -4  -5   5 1340.17   36.60
  -4  -5   5 1296.57   36.10
  -4  -5   5 1359.46   36.00
   3   5  -5  237.48   13.50
   3   5  -5  195.88   11.30
   3   5  -5  230.88   13.30
  -3  -5   5  224.58    7.00
  -3  -5   5  230.78    7.60
  -3  -5   5  231.28    7.30
  -3  -5   5  223.78    7.40
   2   5  -5  134.29    6.50
   2   5  -5  144.49    4.80
   2   5  -5  132.29    5.90
   2   5  -5  138.29   10.00
  -2  -5   5  132.79    4.70
  -2  -5   5  127.89    5.20
  -2  -5   5  132.29    4.90
  -2  -5   5  130.69    6.30
   1   5  -5  335.97   11.70
   1   5  -5  324.67   16.10
  -1  -5   5  320.57   12.20
  -1  -5   5  344.47   12.30
  -1  -5   5  332.57   10.30
  -1  -5   5  327.17   10.10
  -1  -5   5  329.17   11.70
  -1  -5   5  332.07   10.00
   0   5  -5 1797.52   51.89
   0   5  -5 1976.70   53.39
   0   5  -5 1775.32   58.99
   0  -5   5 1869.91   53.69
   0  -5   5 1849.61   53.69
   0  -5   5 1906.31   51.49
   0  -5   5 1911.11   52.19
   0  -5   5 1846.72   53.59
   0  -5   5 1768.32   51.69
  -1   5  -5 1200.68   34.90
  -1   5  -5 1144.19   42.90
  -1   5  -5 1334.87   35.00
  -1   5  -5 1217.98   34.50
  -1   5  -5 1273.27   38.40
   1  -5   5 1147.49   36.80
   1  -5   5 1280.87   36.50
   1  -5   5 1172.88   34.40
   1  -5   5 1196.38   34.10
   1  -5   5 1239.38   36.30
   1  -5   5 1222.78   34.20
  -2   5  -5   97.59    6.20
  -2   5  -5   94.39    4.10
  -2   5  -5   88.99    3.80
   2  -5   5  103.69    3.60
   2  -5   5   89.79    3.60
   2  -5   5   88.89    3.50
   2  -5   5   92.09    4.90
  -3   5  -5  142.89   10.30
  -3   5  -5  150.68    8.40
  -3   5  -5  150.48    5.50
   3  -5   5  149.39    6.60
   3  -5   5  147.79    5.20
   3  -5   5  144.49    5.20
  -4   5  -5  286.67   15.40
  -4   5  -5  291.07   15.60
  -4   5  -5  259.67    8.90
  -4   5  -5  278.37    9.20
  -4   5  -5  281.47    9.50
   4  -5   5  292.37   11.50
   4  -5   5  292.27   19.40
   4  -5   5  264.27    9.10
   4  -5   5  263.77   10.40
   4  -5   5  272.97    8.90
  -5   5  -5 1062.89   30.10
  -5   5  -5 1073.79   30.40
  -5   5  -5 1070.69   31.20
   5  -5   5 1051.09   32.30
   5  -5   5 1042.00   47.80
   5  -5   5 1080.39   31.30
   5  -5   5 1015.70   29.20
   5  -5   5 1024.30   30.80
  -6   5  -5   32.40    1.90
  -6   5  -5   29.10    2.90
  -6   5  -5   35.70    2.10
  -6   5  -5   31.00    2.60
   6  -5   5   33.40    6.60
   6  -5   5   32.80    2.50
  -7   5  -5  891.31   25.10
  -7   5  -5  912.91   26.70
   7  -5   5  920.91   26.60
   7  -5   5  878.01   25.40
   7  -5   5  810.92   46.90
  -8   5  -5   15.10    1.50
  -8   5  -5   15.80    0.90
   8  -5   5   14.20    1.50
   6   4  -5   37.40    2.00
   6   4  -5   32.00    3.40
  -6  -4   5   38.10    1.90
  -6  -4   5   38.50    1.60
  -6  -4   5   38.10    1.70
   5   4  -5  231.28   11.60
   5   4  -5  252.97    8.20
  -5  -4   5  259.07    8.20
  -5  -4   5  258.57    7.90
  -5  -4   5  244.98    7.70
  -5  -4   5  252.57    8.10
   4   4  -5   42.20    2.20
   4   4  -5   38.90    2.30
   4   4  -5   37.40    4.00
   4   4  -5   40.50    3.70
   4   4  -5   37.60    4.50
  -4  -4   5   40.60    2.20
  -4  -4   5   41.20    1.90
   3   4  -5  676.83   21.60
   3   4  -5  606.94   23.80
   3   4  -5  677.03   26.10
   3   4  -5  680.63   21.00
  -3  -4   5  701.73   19.50
  -3  -4   5  681.63   22.70
  -3  -4   5  651.73   19.10
   2   4  -5  435.86   19.50
   2   4  -5  462.85   15.00
   2   4  -5  446.26   14.30
  -2  -4   5  429.76   15.00
  -2  -4   5  430.66   14.30
  -2  -4   5  471.05   15.80
  -2  -4   5  467.75   13.40
   1   4  -5 1249.18   35.40
   1   4  -5 1132.49   40.10
  -1  -4   5 1261.87   36.50
  -1  -4   5 1211.68   39.40
  -1  -4   5 1192.08   34.00
  -1  -4   5 1187.48   33.90
  -1  -4   5 1211.98   33.80
  -1  -4   5 1228.58   35.30
  -1  -4   5 1206.68   35.50
   0   4  -5  462.85   16.00
   0   4  -5  445.16   12.70
   0   4  -5  434.56   14.00
   0  -4   5  441.26   14.30
   0  -4   5  434.46   12.80
   0  -4   5  448.36   18.00
   0  -4   5  413.06   15.40
  -1   4  -5  348.77   13.00
   1  -4   5  335.07   10.30
   1  -4   5  359.46   11.80
   1  -4   5  351.06   14.60
  -2   4  -5 1679.53   50.39
   2  -4   5 1688.13   47.10
   2  -4   5 1642.64   52.29
   2  -4   5 1618.64   47.20
   2  -4   5 1894.31   49.10
  -3   4  -5  399.16   12.20
   3  -4   5  374.46   11.50
   3  -4   5  385.46   16.20
   3  -4   5  375.96   11.60
   3  -4   5  411.56   16.00
  -4   4  -5 1140.59   42.00
  -4   4  -5 1222.48   35.30
  -4   4  -5 1266.37   39.20
  -4   4  -5 1259.27   35.70
   4  -4   5 1279.97   46.10
   4  -4   5 1297.77   36.70
   4  -4   5 1211.28   35.40
   4  -4   5 1257.17   34.80
   4  -4   5 1270.87   35.10
  -5   4  -5   92.99    3.90
  -5   4  -5   96.99    5.90
  -5   4  -5  101.19    8.20
  -5   4  -5  100.39    4.40
  -5   4  -5   99.49    3.90
   5  -4   5  101.99   10.20
   5  -4   5   92.49    3.30
   5  -4   5   94.19    4.50
   5  -4   5   91.09    4.60
  -6   4  -5   47.40    3.20
  -6   4  -5   42.20    2.10
  -6   4  -5   40.30    2.20
   6  -4   5   41.90    3.70
   6  -4   5   41.70    2.90
   6  -4   5   39.60    2.40
   6  -4   5   45.40    7.60
  -7   4  -5  125.69    5.50
  -7   4  -5  121.39    4.30
   7  -4   5  119.79    5.50
   7  -4   5  121.19   13.20
  -8   4  -5  238.18    6.80
  -8   4  -5  244.38    8.00
   8  -4   5  192.78   16.30
   8  -4   5  236.48    8.30
   7   3  -5   36.80    3.10
   7   3  -5   46.80    2.00
  -7  -3   5   43.40    1.80
  -7  -3   5   43.60    1.70
  -7  -3   5   42.50    2.00
   6   3  -5   53.29    4.60
   6   3  -5   56.99    2.70
   6   3  -5   58.29    2.80
  -6  -3   5   59.19    2.70
  -6  -3   5   59.49    2.50
  -6  -3   5   57.69    2.30
   5   3  -5  882.71   28.00
   5   3  -5  864.11   31.20
  -5  -3   5  951.80   26.40
  -5  -3   5  957.50   26.50
  -5  -3   5  932.51   26.00
   4   3  -5  421.16   17.20
   4   3  -5  468.25   15.40
   4   3  -5  448.36   13.90
   4   3  -5  439.86   15.80
   4   3  -5  458.25   13.90
   4   3  -5  466.15   14.00
  -4  -3   5  487.65   13.70
  -4  -3   5  448.16   13.50
   3   3  -5   98.09    5.00
   3   3  -5   97.19    4.60
  -3  -3   5   98.29    5.70
  -3  -3   5   94.59    3.60
  -3  -3   5   99.39    3.70
   2   3  -5  361.66   11.70
  -2  -3   5  332.57   14.10
  -2  -3   5  335.47   10.20
  -2  -3   5  341.87   10.20
  -2  -3   5  335.77   11.40
  -2  -3   5  343.27   11.00
  -2  -3   5  344.97   13.80
   1   3  -5  284.87    8.90
   1   3  -5  274.87    9.40
  -1  -3   5  264.27   10.90
  -1  -3   5  276.87    8.40
  -1  -3   5  294.87    9.60
  -1  -3   5  286.77   11.90
   0   3  -5  507.65   16.80
   0   3  -5  508.55   15.30
   0  -3   5  495.65   18.10
   0  -3   5  476.65   14.30
   0  -3   5  518.45   15.70
  -1   3  -5   37.40    2.90
   1  -3   5   39.70    4.00
   1  -3   5   41.00    2.00
   1  -3   5   43.30    2.70
  -2   3  -5  825.42   23.70
  -2   3  -5  849.32   25.70
   2  -3   5  857.61   28.50
   2  -3   5  860.81   25.20
   2  -3   5  789.42   23.20
   2  -3   5  810.52   23.40
  -3   3  -5  868.51   26.80
  -3   3  -5  853.61   24.50
   3  -3   5  830.42   29.50
   3  -3   5  877.11   26.10
   3  -3   5  859.01   24.20
   3  -3   5  829.82   24.20
  -4   3  -5  386.56   12.10
  -4   3  -5  407.96   14.90
  -4   3  -5  398.76   12.60
  -4   3  -5  395.46   12.40
   4  -3   5  412.96   21.10
   4  -3   5  420.36   15.70
   4  -3   5  401.26   12.00
   4  -3   5  392.46   12.40
   4  -3   5  408.36   17.50
  -5   3  -5  123.39    5.50
  -5   3  -5  124.89    4.50
  -5   3  -5  120.79    4.40
   5  -3   5  120.49    4.30
   5  -3   5  122.29    4.10
   5  -3   5  129.09   11.80
  -6   3  -5  130.09    9.00
  -6   3  -5  134.59    5.90
  -6   3  -5  133.19    4.70
   6  -3   5  129.19    6.00
   6  -3   5  135.49    6.10
   6  -3   5  146.69   13.90
   6  -3   5  138.99    4.40
  -7   3  -5  103.19    4.80
  -7   3  -5  104.19    3.70
  -7   3  -5  108.79    9.00
   7  -3   5  107.09    5.20
   7  -3   5  108.29   12.80
  -8   3  -5  203.08    5.90
  -8   3  -5  220.48    9.30
  -8   3  -5  214.28    7.20
   8  -3   5  200.78    7.70
   8  -3   5  180.18   16.20
   7   2  -5   31.50    2.90
   7   2  -5   32.00    1.70
   7   2  -5   30.60    1.80
  -7  -2   5   31.00    1.80
  -7  -2   5   33.10    1.70
  -7  -2   5   32.20    1.50
   6   2  -5   66.89    3.10
   6   2  -5   64.59    3.10
   6   2  -5   62.09    4.80
   6   2  -5   62.59    2.90
  -6  -2   5   65.49    3.00
  -6  -2   5   64.79    2.80
  -6  -2   5   65.89    2.60
   5   2  -5  441.86   13.20
   5   2  -5  442.26   13.30
   5   2  -5  421.76   15.40
   5   2  -5  408.06   16.00
   5   2  -5  425.76   13.30
   5   2  -5  422.46   14.90
  -5  -2   5  424.66   12.90
  -5  -2   5  417.66   12.50
  -5  -2   5  426.56   12.90
   4   2  -5  548.95   18.00
   4   2  -5  527.75   17.20
  -4  -2   5  514.75   15.60
  -4  -2   5  523.05   15.60
  -4  -2   5  549.45   19.00
   3   2  -5  656.33   19.40
   3   2  -5  660.23   19.30
   3   2  -5  655.43   20.00
  -3  -2   5  579.74   18.20
  -3  -2   5  618.84   19.10
  -3  -2   5  649.93   21.00
   2   2  -5 1433.06   40.30
   2   2  -5 1417.96   40.80
  -2  -2   5 1436.86   40.40
  -2  -2   5 1366.06   39.40
  -2  -2   5 1494.05   42.60
  -2  -2   5 1392.06   42.70
   1   2  -5  862.91   23.60
  -1  -2   5  708.43   25.20
  -1  -2   5  838.52   23.60
  -1  -2   5  773.32   22.40
  -1  -2   5  828.32   28.30
   0   2  -5 1448.46   41.50
   0   2  -5 1480.25   41.90
   0   2  -5 1466.95   43.40
   0   2  -5 1462.85   42.30
   0  -2   5 1602.54   49.50
   0  -2   5 1573.24   43.20
  -1   2  -5 2941.21   81.79
  -1   2  -5 3013.30   82.89
   1  -2   5 3105.19   87.19
   1  -2   5 2987.50   83.29
   1  -2   5 2767.82   81.49
  -2   2  -5 5130.69  137.49
  -2   2  -5 4939.41  138.39
   2  -2   5 5112.19  139.29
   2  -2   5 4727.53  136.69
   2  -2   5 5102.19  143.69
  -3   2  -5 1929.61   53.19
  -3   2  -5 1811.62   52.09
   3  -2   5 1832.32   53.89
   3  -2   5 1784.32   51.49
   3  -2   5 1923.51   58.99
   3  -2   5 1833.22   51.29
  -4   2  -5 1835.02   51.79
  -4   2  -5 1757.42   50.69
   4  -2   5 1737.03   49.99
   4  -2   5 1821.32   61.99
   4  -2   5 1792.52   49.60
   4  -2   5 1757.72   57.59
   4  -2   5 1762.62   49.50
  -5   2  -5   75.99    4.40
  -5   2  -5   80.79    4.90
  -5   2  -5   82.09    3.10
   5  -2   5   79.09    4.00
   5  -2   5   80.99    3.30
   5  -2   5   79.19    3.20
   5  -2   5   78.59    2.90
  -6   2  -5  642.04   23.90
  -6   2  -5  620.84   18.50
  -6   2  -5  624.54   20.00
   6  -2   5  641.44   20.60
   6  -2   5  702.63   34.80
   6  -2   5  669.73   18.50
   6  -2   5  623.14   20.10
  -7   2  -5  122.89    5.10
  -7   2  -5  117.89    4.10
   7  -2   5  116.29   13.60
   7  -2   5  115.09    4.20
   7  -2   5  118.09    6.10
  -8   2  -5    4.60    0.90
  -8   2  -5    4.40    1.30
   8  -2   5    2.80    2.60
   8  -2   5    4.10    1.10
   8   1  -5  317.47    9.80
   8   1  -5  326.27    9.90
  -8  -1   5  330.97    9.60
  -8  -1   5  331.77    9.50
   7   1  -5   21.80    2.40
   7   1  -5   16.90    1.40
   7   1  -5   21.30    1.60
   7   1  -5   20.80    1.60
  -7  -1   5   20.20    1.40
   6   1  -5  128.39    5.00
   6   1  -5  129.59    5.10
   6   1  -5  123.29    6.70
   6   1  -5  126.39    4.90
   6   1  -5  129.09    4.80
  -6  -1   5  124.79    5.20
  -6  -1   5  129.59    4.80
  -6  -1   5  119.39    4.30
   5   1  -5  979.40   27.40
   5   1  -5  960.80   27.80
   5   1  -5  951.60   29.00
   5   1  -5  935.61   26.20
   5   1  -5  955.30   29.60
   5   1  -5  953.80   27.40
   5   1  -5  910.21   29.60
   5   1  -5  951.80   27.20
  -5  -1   5  940.41   26.90
  -5  -1   5  890.21   26.60
  -5  -1   5  937.71   27.40
   4   1  -5   72.59    3.90
   4   1  -5   67.39    3.20
   4   1  -5   74.39    4.30
  -4  -1   5   67.09    2.80
  -4  -1   5   72.39    4.90
  -4  -1   5   68.49    2.90
   3   1  -5   94.59    4.70
   3   1  -5  117.89    5.50
   3   1  -5  106.39    3.70
  -3  -1   5  102.99    5.40
  -3  -1   5   92.89    3.50
  -3  -1   5   91.59    6.90
  -3  -1   5  104.59    4.10
   2   1  -5 1090.99   31.40
   2   1  -5 1124.29   32.00
   2   1  -5 1041.00   36.60
   2   1  -5 1130.09   30.50
  -2  -1   5 1081.39   33.40
  -2  -1   5 1161.68   31.50
  -2  -1   5 1103.39   31.00
  -2  -1   5 1091.89   33.70
   1   1  -5  178.38    5.90
   1   1  -5  193.18    6.10
   1   1  -5  192.38    6.50
  -1  -1   5  189.88    8.90
  -1  -1   5  182.48    6.90
   0   1  -5  590.04   17.40
   0   1  -5  586.54   17.10
   0   1  -5  590.24   17.10
   0  -1   5  551.94   18.40
   0  -1   5  611.64   21.70
  -1   1  -5  418.96   13.20
  -1   1  -5  427.26   12.40
  -1   1  -5  444.26   13.00
  -1   1  -5  433.06   13.00
   1  -1   5  421.36   12.20
   1  -1   5  410.46   17.50
   1  -1   5  421.46   14.50
  -2   1  -5 4571.34  125.99
  -2   1  -5 4558.14  125.69
  -2   1  -5 4595.44  126.59
   2  -1   5 4659.13  127.89
   2  -1   5 4305.57  124.99
   2  -1   5 4669.03  132.89
  -3   1  -5  166.28    5.70
  -3   1  -5  155.18    6.20
  -3   1  -5  163.78    6.30
   3  -1   5  157.08    5.20
   3  -1   5  149.59    7.70
   3  -1   5  150.58   10.90
   3  -1   5  156.18    5.70
  -4   1  -5 1199.78   35.10
  -4   1  -5 1199.08   34.60
  -4   1  -5 1132.09   34.20
   4  -1   5 1209.58   34.40
   4  -1   5 1023.40   48.60
   4  -1   5 1240.78   34.40
   4  -1   5 1247.68   46.10
   4  -1   5 1211.98   33.50
   4  -1   5 1199.48   37.20
   4  -1   5 1206.98   33.50
  -5   1  -5  653.13   25.50
  -5   1  -5  695.93   22.00
  -5   1  -5  658.93   19.40
  -5   1  -5  671.03   20.80
   5  -1   5  698.53   20.00
   5  -1   5  684.33   20.20
   5  -1   5  675.03   19.60
   5  -1   5  683.93   21.00
   5  -1   5  754.32   34.30
  -6   1  -5  304.77   14.20
  -6   1  -5  298.47   10.60
  -6   1  -5  296.27    9.20
   6  -1   5  304.77    9.40
   6  -1   5  328.67   13.80
   6  -1   5  328.67   22.90
  -7   1  -5   92.49    5.80
  -7   1  -5   99.59    4.30
   7  -1   5   93.49    3.20
   7  -1   5   90.79   12.20
   7  -1   5   90.29    5.00
  -8   1  -5  240.58    7.50
  -8   1  -5  240.18    8.60
   8  -1   5  202.78   17.00
   8  -1   5  233.68    8.70
   8   0  -5  197.88    6.50
   8   0  -5  194.98    6.50
   8   0  -5  192.18    6.20
  -8   0   5  202.28    6.30
  -8   0   5  202.98    6.20
   7   0  -5  339.47   10.60
   7   0  -5  323.67   11.60
   7   0  -5  327.07   10.60
   7   0  -5  321.47   10.30
   7   0  -5  327.37   10.50
  -7   0   5  333.37   10.20
  -7   0   5  325.67   10.30
  -7   0   5  327.67    9.90
   6   0  -5 1243.18   35.60
   6   0  -5 1304.27   35.90
   6   0  -5 1306.67   35.80
   6   0  -5 1247.98   34.50
   6   0  -5 1246.68   38.00
   6   0  -5 1239.48   35.70
   6   0  -5 1211.48   38.30
   6   0  -5 1207.78   37.40
  -6   0   5 1245.68   35.40
  -6   0   5 1207.58   34.90
  -6   0   5 1235.38   35.30
   5   0  -5  517.65   15.80
   5   0  -5  507.45   15.40
   5   0  -5  502.25   16.90
   5   0  -5  497.05   14.40
   5   0  -5  531.45   17.20
   5   0  -5  520.35   15.50
   5   0  -5  510.65   15.80
   5   0  -5  508.65   17.60
   5   0  -5  502.75   15.70
  -5   0   5  488.35   15.10
  -5   0   5  513.45   15.20
   4   0  -5  442.66   14.90
   4   0  -5  430.36   14.40
   4   0  -5  442.16   13.40
  -4   0   5  441.06   15.60
   3   0  -5  614.14   18.80
   3   0  -5  634.74   17.90
   3   0  -5  629.14   19.30
  -3   0   5  604.64   17.60
  -3   0   5  641.94   20.30
  -3   0   5  619.94   17.80
  -3   0   5  590.84   19.00
   2   0  -5 1382.86   39.80
   2   0  -5 1443.36   39.20
   2   0  -5 1453.45   40.40
   2   0  -5 1408.76   39.60
  -2   0   5 1350.26   42.10
  -2   0   5 1428.06   42.60
  -2   0   5 1427.76   40.20
   1   0  -5  460.65   13.60
   1   0  -5  473.35   13.90
   1   0  -5  473.55   14.20
   1   0  -5  487.35   13.20
   1   0  -5  465.45   14.00
  -1   0   5  459.05   17.80
  -1   0   5  433.46   14.90
   0   0  -5 1544.75   42.80
   0   0  -5 1456.95   42.20
   0   0  -5 1450.85   41.80
   0   0   5 1536.65   44.00
   0   0   5 1449.85   41.40
   0   0   5 1455.35   42.20
   0   0   5 1621.94   48.10
  -1   0  -5 1240.08   35.90
  -1   0  -5 1267.47   36.50
   1   0   5 1210.48   41.80
   1   0   5 1282.17   37.90
   1   0   5 1292.47   35.20
  -2   0  -5 1099.19   32.00
  -2   0  -5 1083.99   32.50
   2   0   5 1110.39   31.20
   2   0   5 1081.59   30.70
   2   0   5 1123.79   34.30
   2   0   5 1103.09   39.10
  -3   0  -5  197.68    8.20
  -3   0  -5  182.68    7.20
   3   0   5  177.48    5.90
   3   0   5  180.48    5.90
   3   0   5  180.08   12.70
   3   0   5  182.48   13.10
  -4   0  -5   12.80    1.40
  -4   0  -5   14.40    2.40
  -4   0  -5   11.40    2.00
   4   0   5   12.80    3.70
   4   0   5   14.60    1.90
   4   0   5   10.30    3.30
   4   0   5   13.90    1.20
   4   0   5   13.40    1.10
  -5   0  -5  447.36   14.60
  -5   0  -5  465.85   16.30
  -5   0  -5  435.66   13.60
  -5   0  -5  457.45   17.60
   5   0   5  467.85   13.90
   5   0   5  467.25   14.00
   5   0   5  444.06   15.20
   5   0   5  466.45   13.60
   5   0   5  502.15   27.50
  -6   0  -5  217.98   10.00
  -6   0  -5  206.78    7.70
   6   0   5  213.38    6.80
   6   0   5  204.58    6.80
   6   0   5  228.28   19.20
  -7   0  -5   60.39    4.00
  -7   0  -5   61.09    3.10
   7   0   5   58.49    2.20
   7   0   5   59.89    9.70
   7   0   5   63.09    4.20
  -8   0  -5  337.87    9.90
  -8   0  -5  332.97   10.80
   8   0   5  320.77   11.30
   8  -1  -5   17.80    1.30
   8  -1  -5   15.70    1.30
   8  -1  -5   16.60    1.30
  -8   1   5   17.10    1.00
  -8   1   5   16.90    1.20
  -8   1   5   17.20    1.30
   7  -1  -5  164.58    6.20
   7  -1  -5  164.78    5.10
   7  -1  -5  165.88    6.00
   7  -1  -5  161.58    6.00
   7  -1  -5  165.68    6.20
  -7   1   5  168.58    5.80
  -7   1   5  165.38    5.40
  -7   1   5  172.18    6.00
   6  -1  -5  128.99    5.10
   6  -1  -5  127.99    6.90
   6  -1  -5  131.89    4.00
   6  -1  -5  120.39    5.40
   6  -1  -5  127.69    4.90
   6  -1  -5  130.59    5.20
   6  -1  -5  128.59    5.20
   6  -1  -5  119.69    7.10
  -6   1   5  123.79    4.80
  -6   1   5  123.89    4.70
   5  -1  -5   61.69    4.50
   5  -1  -5   67.79    4.40
   5  -1  -5   68.09    3.70
   5  -1  -5   74.79    3.50
   5  -1  -5   65.19    2.30
   5  -1  -5   63.89    3.30
   5  -1  -5   69.69    3.20
   5  -1  -5   73.39    3.20
  -5   1   5   59.39    5.10
  -5   1   5   65.79    3.00
   4  -1  -5 1367.26   40.90
   4  -1  -5 1378.46   40.50
   4  -1  -5 1381.66   39.40
  -4   1   5 1397.26   41.40
  -4   1   5 1406.16   38.80
   3  -1  -5 2013.30   54.79
   3  -1  -5 1930.91   56.09
   3  -1  -5 1913.81   55.59
  -3   1   5 2034.30   54.59
  -3   1   5 1884.31   55.79
  -3   1   5 2019.90   56.89
   2  -1  -5 2996.80   82.09
   2  -1  -5 2922.61   82.29
   2  -1  -5 2998.30   81.79
   2  -1  -5 2942.61   82.59
   2  -1  -5 2943.11   82.19
   2  -1  -5 3062.59   81.59
  -2   1   5 2957.30   81.39
  -2   1   5 3009.50   86.29
  -2   1   5 2910.61   83.09
  -2   1   5 2894.81   84.29
   1  -1  -5 1384.86   39.80
   1  -1  -5 1459.95   39.40
   1  -1  -5 1431.16   40.60
   1  -1  -5 1379.46   39.70
   1  -1  -5 1415.16   40.30
   1  -1  -5 1354.46   39.90
  -1   1   5 1407.16   41.60
  -1   1   5 1527.25   45.80
  -1   1   5 1378.66   39.30
   0  -1  -5  332.87   11.00
   0  -1  -5  306.97   10.20
   0  -1  -5  301.87    9.50
   0  -1  -5  324.77   10.60
   0   1   5  324.17    9.70
   0   1   5  320.67   12.10
   0   1   5  332.07   15.40
  -1  -1  -5  380.86   12.50
  -1  -1  -5  402.36   12.80
  -1  -1  -5  400.96   13.40
   1   1   5  378.56   11.30
   1   1   5  385.36   14.60
   1   1   5  398.56   12.00
   1   1   5  406.66   18.80
  -2  -1  -5   65.19    3.50
  -2  -1  -5   57.99    3.90
  -2  -1  -5   55.19    3.40
   2   1   5   57.99    2.40
   2   1   5   69.19    2.50
   2   1   5   54.29    3.00
   2   1   5   57.09    7.90
   2   1   5   56.49    5.00
  -3  -1  -5  119.39    6.30
  -3  -1  -5  116.39    4.60
  -3  -1  -5  120.89    5.80
   3   1   5  122.09    4.30
   3   1   5  119.59    8.00
   3   1   5  123.29   10.50
   3   1   5  119.89    4.30
   3   1   5  122.49    5.20
  -4  -1  -5  221.98   11.00
  -4  -1  -5  263.17   10.60
  -4  -1  -5  239.08    7.70
  -4  -1  -5  248.28   11.50
  -4  -1  -5  252.87   10.10
  -4  -1  -5  255.07    7.70
   4   1   5  230.78    7.50
   4   1   5  240.98    7.90
   4   1   5  257.37    8.00
   4   1   5  219.88   13.10
  -5  -1  -5  157.98    5.10
  -5  -1  -5  152.08    5.20
  -5  -1  -5  155.48    7.90
  -5  -1  -5  161.78    8.40
  -5  -1  -5  155.78    6.10
   5   1   5  167.18   15.50
   5   1   5  162.98    5.40
   5   1   5  156.88    5.70
   5   1   5  162.38    5.70
   5   1   5  149.99    7.30
  -6  -1  -5  438.86   15.80
  -6  -1  -5  448.76   14.10
   6   1   5  454.25   13.20
   6   1   5  458.65   28.90
   6   1   5  442.96   13.20
  -7  -1  -5  202.78    7.50
  -7  -1  -5  204.68    6.60
   7   1   5  194.68    8.50
   7   1   5  172.28   16.00
   7   1   5  198.58    5.80
   8  -2  -5   62.09    2.70
   8  -2  -5   62.79    2.20
   8  -2  -5   62.79    2.90
   8  -2  -5   63.39    2.90
   8  -2  -5   65.89    2.90
  -8   2   5   62.59    2.60
  -8   2   5   64.19    2.70
   7  -2  -5  167.28    6.00
   7  -2  -5  164.98    6.20
   7  -2  -5  167.38    6.20
   7  -2  -5  164.98    6.30
   7  -2  -5  168.08    5.10
  -7   2   5  167.68    5.80
  -7   2   5  154.18    5.90
  -7   2   5  172.98    6.00
   6  -2  -5  821.02   24.00
   6  -2  -5  841.92   24.50
   6  -2  -5  809.52   24.20
   6  -2  -5  842.52   27.10
   6  -2  -5  843.52   24.30
   6  -2  -5  804.62   25.00
   6  -2  -5  810.52   26.50
   6  -2  -5  808.42   22.90
  -6   2   5  849.91   24.10
  -6   2   5  775.42   23.70
   5  -2  -5  162.38    7.80
   5  -2  -5  165.28    6.60
   5  -2  -5  161.58    5.00
   5  -2  -5  159.78    6.00
   5  -2  -5  152.28    5.80
   5  -2  -5  160.68    5.20
   5  -2  -5  168.28    7.50
   5  -2  -5  168.48    6.90
  -5   2   5  154.08    8.40
  -5   2   5  163.28    5.70
   4  -2  -5  107.59    4.60
   4  -2  -5  112.99    5.40
   4  -2  -5  105.59    5.50
  -4   2   5  108.99    7.70
  -4   2   5   98.69    5.60
   3  -2  -5 1922.01   52.49
   3  -2  -5 1918.81   53.69
   3  -2  -5 1895.41   53.29
   3  -2  -5 1831.42   52.49
  -3   2   5 1772.32   52.69
  -3   2   5 1867.41   55.99
  -3   2   5 1918.71   53.89
  -3   2   5 1834.62   55.19
   2  -2  -5  439.76   13.70
   2  -2  -5  432.46   13.90
   2  -2  -5  439.36   13.20
   2  -2  -5  451.15   13.20
   2  -2  -5  436.16   13.90
   2  -2  -5  460.05   14.00
  -2   2   5  427.86   15.10
  -2   2   5  438.76   13.10
  -2   2   5  401.46   20.00
  -2   2   5  436.56   14.90
  -2   2   5  426.36   14.90
   1  -2  -5  540.45   16.60
   1  -2  -5  520.35   15.80
   1  -2  -5  536.35   15.80
   1  -2  -5  529.65   16.80
   1  -2  -5  512.85   15.80
   1  -2  -5  548.25   15.50
  -1   2   5  511.75   18.00
  -1   2   5  518.75   15.60
  -1   2   5  503.85   16.10
  -1   2   5  526.65   21.90
   0  -2  -5 1542.35   44.50
   0  -2  -5 1553.64   45.60
   0  -2  -5 1580.24   45.20
   0   2   5 1530.05   44.00
   0   2   5 1610.94   52.79
  -1  -2  -5  553.14   17.30
  -1  -2  -5  581.94   17.90
  -1  -2  -5  575.84   18.60
   1   2   5  549.74   16.80
   1   2   5  547.45   25.30
   1   2   5  510.25   15.70
  -2  -2  -5  739.23   23.40
  -2  -2  -5  793.52   25.30
  -2  -2  -5  818.92   24.30
  -2  -2  -5  778.62   24.10
   2   2   5  799.12   23.50
   2   2   5  783.72   22.30
   2   2   5  783.92   31.90
   2   2   5  756.82   22.30
  -3  -2  -5   78.09    4.80
  -3  -2  -5   78.99    3.60
  -3  -2  -5   79.19    6.40
  -3  -2  -5   83.09    5.10
   3   2   5   90.29    9.40
   3   2   5   87.19    8.10
   3   2   5   81.59    3.30
   3   2   5   73.09    4.50
   3   2   5   77.89    3.30
  -4  -2  -5 2059.09   61.49
  -4  -2  -5 1967.40   58.19
  -4  -2  -5 2080.69   57.29
  -4  -2  -5 1989.30   57.59
  -4  -2  -5 1945.01   57.29
  -4  -2  -5 2024.20   60.19
  -4  -2  -5 2138.79   60.79
   4   2   5 2245.08   76.09
   4   2   5 2042.70   57.79
   4   2   5 2139.59   57.49
   4   2   5 2131.89   57.89
  -5  -2  -5   71.89    2.70
  -5  -2  -5   74.49    3.60
  -5  -2  -5   73.09    4.50
   5   2   5   77.79    3.30
   5   2   5   80.19   11.00
   5   2   5   75.49    3.10
   5   2   5   74.79    3.50
  -6  -2  -5  107.39    4.30
  -6  -2  -5  103.19    4.80
  -6  -2  -5   97.89    3.30
   6   2   5   89.69   11.60
   6   2   5   97.39    3.50
  -7  -2  -5  176.28    5.60
  -7  -2  -5  189.98    6.30
   8  -3  -5    5.70    0.90
   8  -3  -5    6.70    0.50
   8  -3  -5    5.10    0.80
   8  -3  -5    7.60    1.00
   8  -3  -5    6.00    0.90
  -8   3   5    5.30    0.80
  -8   3   5    6.40    0.80
  -8   3   5    7.70    1.00
   7  -3  -5   87.79    2.90
   7  -3  -5   81.99    3.90
   7  -3  -5   85.29    3.80
   7  -3  -5   86.89    3.70
   7  -3  -5   87.49    3.90
  -7   3   5   87.59    3.80
  -7   3   5   84.79    3.50
   6  -3  -5  150.18    7.80
  -6   3   5  169.58    6.10
  -6   3   5  181.58    6.20
   5  -3  -5  400.56   12.80
   5  -3  -5  437.26   15.40
   5  -3  -5  409.56   13.50
   5  -3  -5  389.96   12.80
   5  -3  -5  406.66   14.80
   5  -3  -5  407.56   12.00
   5  -3  -5  406.76   13.00
   5  -3  -5  402.16   11.70
  -5   3   5  405.06   12.40
   4  -3  -5  188.48    7.00
   4  -3  -5  186.68    7.90
   4  -3  -5  185.58    8.20
  -4   3   5  176.58   10.20
   3  -3  -5 1681.83   48.20
   3  -3  -5 1713.73   49.50
   3  -3  -5 1813.52   49.00
   3  -3  -5 1743.53   50.09
   3  -3  -5 1792.42   49.90
   3  -3  -5 1715.33   49.10
  -3   3   5 1713.43   49.40
  -3   3   5 1684.63   50.09
  -3   3   5 1704.83   49.00
   2  -3  -5 1084.69   32.00
   2  -3  -5 1089.99   30.70
   2  -3  -5 1099.39   31.50
   2  -3  -5 1098.29   32.00
   2  -3  -5 1100.99   30.80
   2  -3  -5 1043.70   31.40
  -2   3   5 1082.49   33.50
  -2   3   5 1077.39   31.50
  -2   3   5 1110.19   31.10
  -2   3   5  989.80   37.80
  -2   3   5 1020.10   32.50
   1  -3  -5  940.91   29.00
   1  -3  -5  920.91   28.60
   1  -3  -5 1008.70   30.10
  -1   3   5  927.11   27.80
  -1   3   5  929.81   27.50
   0  -3  -5   16.60    2.60
   0  -3  -5   17.40    2.10
   0  -3  -5   19.00    2.30
   0   3   5   21.20    2.10
   0   3   5   17.10    1.10
  -1  -3  -5  662.93   22.10
  -1  -3  -5  673.13   20.60
  -1  -3  -5  683.63   21.30
  -1  -3  -5  638.74   19.00
   1   3   5  631.44   18.80
   1   3   5  645.44   20.10
   1   3   5  640.64   18.70
  -2  -3  -5  197.58    7.00
  -2  -3  -5  206.88    6.70
  -2  -3  -5  217.48    7.30
  -2  -3  -5  207.78    9.90
  -2  -3  -5  192.98    7.70
  -2  -3  -5  206.48    8.70
   2   3   5  216.48    8.40
   2   3   5  214.28    6.90
   2   3   5  200.98    6.80
   2   3   5  222.88   14.80
  -3  -3  -5  819.62   24.30
  -3  -3  -5  814.92   25.40
  -3  -3  -5  794.92   23.90
  -3  -3  -5  799.42   23.50
  -3  -3  -5  828.82   26.10
  -3  -3  -5  819.12   23.60
  -3  -3  -5  841.62   26.70
  -3  -3  -5  844.62   28.30
   3   3   5  829.12   24.10
   3   3   5  888.51   38.00
   3   3   5  857.51   24.10
   3   3   5  807.32   23.70
  -4  -3  -5 1112.09   33.80
  -4  -3  -5 1110.39   31.70
  -4  -3  -5 1161.88   31.90
  -4  -3  -5 1124.09   31.80
  -4  -3  -5 1096.99   32.70
  -4  -3  -5 1114.69   32.00
   4   3   5 1154.78   32.50
   4   3   5 1161.38   32.20
   4   3   5 1159.28   49.90
   4   3   5 1160.08   32.70
  -5  -3  -5    7.20    1.00
  -5  -3  -5    8.00    0.70
   5   3   5    6.70    1.10
   5   3   5    8.30    1.00
   5   3   5    5.70    4.10
  -6  -3  -5  362.66   10.40
  -6  -3  -5  374.16   11.10
  -6  -3  -5  363.06   11.80
   8  -4  -5   58.79    2.60
   8  -4  -5   58.49    2.60
   8  -4  -5   57.39    2.50
   8  -4  -5   58.29    2.70
   8  -4  -5   61.19    2.00
  -8   4   5   56.29    2.60
  -8   4   5   57.79    2.60
   7  -4  -5   45.00    2.50
   7  -4  -5   45.10    2.50
  -7   4   5   49.30    2.60
   6  -4  -5   38.70    1.80
   6  -4  -5   39.40    1.50
   6  -4  -5   39.40    2.40
   6  -4  -5   38.50    1.60
   6  -4  -5   35.90    2.40
   6  -4  -5   38.40    2.50
   6  -4  -5   37.30    2.40
  -6   4   5   41.80    2.40
   5  -4  -5    8.90    0.80
   5  -4  -5    7.30    1.20
   5  -4  -5    4.40    2.80
   5  -4  -5    7.60    1.20
   5  -4  -5    7.20    1.70
   5  -4  -5    7.40    0.60
   5  -4  -5    6.40    1.20
   5  -4  -5    5.50    0.60
  -5   4   5    6.70    1.20
   4  -4  -5  301.67    9.80
   4  -4  -5  321.57   10.60
   4  -4  -5  298.57   11.40
   4  -4  -5  287.97   11.70
   4  -4  -5  299.87    8.50
  -4   4   5  270.97   14.30
  -4   4   5  292.07   11.00
   3  -4  -5  400.86   12.70
   3  -4  -5  400.66   13.50
   3  -4  -5  372.96   13.00
   3  -4  -5  391.96   13.60
  -3   4   5  348.07   15.20
  -3   4   5  388.36   13.10
   2  -4  -5   79.49    4.90
   2  -4  -5   74.09    3.60
   2  -4  -5   78.19    4.80
   2  -4  -5   79.29    3.80
  -2   4   5   80.79    4.50
   1  -4  -5  306.37   10.30
   1  -4  -5  306.77   11.80
   1  -4  -5  304.07   12.10
  -1   4   5  306.67   10.80
  -1   4   5  298.07    9.00
   0  -4  -5   92.49    8.20
   0  -4  -5   86.49    4.60
   0   4   5   86.39    3.30
   0   4   5   97.19    6.10
  -1  -4  -5  258.87   10.00
  -1  -4  -5  275.17   10.20
  -1  -4  -5  252.17   10.70
  -1  -4  -5  252.57    9.10
  -1  -4  -5  256.87   11.70
  -1  -4  -5  242.88    8.30
   1   4   5  255.77    8.20
   1   4   5  255.87    8.20
  -2  -4  -5 2439.56   65.79
  -2  -4  -5 2342.17   65.89
  -2  -4  -5 2457.95   68.79
  -2  -4  -5 2340.47   68.89
  -2  -4  -5 2309.37   65.59
  -2  -4  -5 2450.25   70.99
  -2  -4  -5 2215.48   66.29
  -2  -4  -5 2249.87   65.39
   2   4   5 2445.76   65.89
   2   4   5 2384.56   66.09
   2   4   5 2489.05   66.19
  -3  -4  -5   39.90    1.80
  -3  -4  -5   37.70    1.80
  -3  -4  -5   39.50    1.90
  -3  -4  -5   39.50    2.00
  -3  -4  -5   36.50    2.40
  -3  -4  -5   39.90    2.30
   3   4   5   39.80    2.10
   3   4   5   39.90    2.30
   3   4   5   35.80    2.40
  -4  -4  -5  201.68    6.10
  -4  -4  -5  195.58    7.20
   4   4   5  207.68    6.70
   4   4   5  198.28    6.80
   4   4   5  202.28    6.80
  -5  -4  -5   77.79    3.30
   5   4   5   77.29    2.90
   5   4   5   75.09    3.70
   8  -5  -5  135.29    4.70
   8  -5  -5  138.39    4.80
   8  -5  -5  133.69    4.00
   8  -5  -5  129.29    4.60
  -8   5   5  133.99    4.50
   7  -5  -5   11.40    0.70
   7  -5  -5    9.60    1.20
   7  -5  -5    8.30    1.10
   7  -5  -5   10.30    1.20
  -7   5   5   10.60    1.30
  -7   5   5   10.10    1.30
   6  -5  -5  138.79    5.40
   6  -5  -5  140.79    5.40
   6  -5  -5  135.29    4.30
   6  -5  -5  135.39    4.10
   6  -5  -5  134.79    4.60
   6  -5  -5  133.19    5.60
  -6   5   5  136.09    5.20
   5  -5  -5  204.68    7.20
   5  -5  -5  207.08    6.60
   5  -5  -5  191.18    7.20
   5  -5  -5  210.28    6.20
   5  -5  -5  209.98    6.10
  -5   5   5  207.18    7.10
   4  -5  -5   11.20    0.80
   4  -5  -5   10.70    1.00
   4  -5  -5   11.20    1.40
   4  -5  -5   11.30    0.70
   4  -5  -5   12.50    0.80
   4  -5  -5   10.40    2.60
   4  -5  -5   13.10    1.40
   4  -5  -5   13.70    1.00
  -4   5   5   15.30    1.50
   3  -5  -5  361.86   11.40
   3  -5  -5  374.86   10.90
   3  -5  -5  372.16   10.40
   3  -5  -5  365.56   12.30
   3  -5  -5  363.86   11.10
   3  -5  -5  360.36   10.50
   3  -5  -5  371.76   10.60
   3  -5  -5  356.86   13.70
  -3   5   5  321.47   11.00
   2  -5  -5  129.59    7.20
   2  -5  -5  141.59    4.40
   2  -5  -5  140.49    5.00
   2  -5  -5  140.39    4.70
   2  -5  -5  131.79    4.40
   2  -5  -5  138.99    4.80
   2  -5  -5  139.49    4.50
   2  -5  -5  127.39    7.40
  -2   5   5  135.99    4.60
   1  -5  -5   75.79    6.00
   1  -5  -5   76.29    5.50
   1  -5  -5   72.19    3.10
   1  -5  -5   74.79    2.70
   1  -5  -5   73.49    3.20
   1  -5  -5   76.69    3.00
   1  -5  -5   75.79    2.80
  -1   5   5   78.09    3.00
   0  -5  -5   34.50    5.00
   0  -5  -5   42.20    4.50
   0  -5  -5   43.00    2.00
   0  -5  -5   37.50    1.80
   0  -5  -5   37.10    2.00
   0  -5  -5   39.20    1.70
   0  -5  -5   37.30    1.70
   0  -5  -5   45.20    4.50
   0   5   5   38.60    2.20
   0   5   5   40.10    2.10
  -1  -5  -5  382.56   14.30
  -1  -5  -5  373.46   15.10
  -1  -5  -5  401.76   11.90
  -1  -5  -5  393.36   11.40
  -1  -5  -5  382.56   16.40
  -1  -5  -5  393.96   11.50
  -1  -5  -5  404.06   11.80
  -1  -5  -5  380.56   11.70
  -1  -5  -5  397.36   12.20
  -1  -5  -5  390.86   11.60
   1   5   5  378.76   11.90
   1   5   5  388.86   12.10
   1   5   5  409.66   12.20
  -2  -5  -5 1513.35   42.40
  -2  -5  -5 1547.25   42.70
  -2  -5  -5 1575.14   42.70
  -2  -5  -5 1507.95   43.00
  -2  -5  -5 1552.44   42.40
  -2  -5  -5 1465.85   43.20
   2   5   5 1563.64   43.40
   2   5   5 1556.14   43.30
   2   5   5 1483.65   42.90
  -3  -5  -5   57.39    2.10
  -3  -5  -5   50.59    2.00
  -3  -5  -5   57.29    2.60
  -3  -5  -5   49.70    2.10
   3   5   5   56.99    2.70
   3   5   5   55.69    2.60
   3   5   5   54.79    2.70
  -4  -5  -5  546.45   15.60
  -4  -5  -5  532.05   15.60
  -4  -5  -5  541.95   15.00
   4   5   5  538.95   15.60
   4   5   5  497.75   15.80
   4   5   5  533.75   15.50
   7  -6  -5   90.99    3.70
   7  -6  -5   92.09    3.70
   7  -6  -5   96.09    2.90
  -7   6   5   94.99    3.60
  -7   6   5   93.29    4.20
   6  -6  -5  573.74   15.90
   6  -6  -5  570.74   15.70
   6  -6  -5  566.64   16.20
   6  -6  -5  564.74   17.00
   6  -6  -5  540.55   16.90
  -6   6   5  567.44   16.90
   5  -6  -5  486.05   15.50
   5  -6  -5  508.85   14.30
   5  -6  -5  513.55   14.90
   5  -6  -5  506.75   15.50
   5  -6  -5  517.05   14.50
   5  -6  -5  516.75   14.60
  -5   6   5  513.35   15.50
   4  -6  -5 1646.74   44.80
   4  -6  -5 1616.14   45.40
   4  -6  -5 1654.53   45.20
   4  -6  -5 1598.64   45.90
   4  -6  -5 1626.54   45.90
   4  -6  -5 1612.54   44.90
   4  -6  -5 1637.24   45.00
   3  -6  -5   92.59    3.20
   3  -6  -5   93.69    3.20
   3  -6  -5   95.69    3.70
   3  -6  -5   92.59    3.90
   3  -6  -5   96.09    3.50
   3  -6  -5   95.19    3.10
  -3   6   5   93.19    3.70
   2  -6  -5  264.57    7.80
   2  -6  -5  268.77    8.00
   2  -6  -5  255.97    8.60
   2  -6  -5  272.27    8.10
   2  -6  -5  269.87    8.30
  -2   6   5  252.37    8.40
   1  -6  -5  729.23   20.40
   1  -6  -5  712.33   20.30
   1  -6  -5  704.93   21.00
   1  -6  -5  729.53   20.50
   1  -6  -5  723.03   20.70
  -1   6   5  718.73   21.80
  -1   6   5  707.53   20.90
   0  -6  -5   49.20    2.00
   0  -6  -5   49.50    2.50
   0  -6  -5   45.40    1.90
   0  -6  -5   46.50    2.10
   0  -6  -5   49.50    2.00
   0  -6  -5   49.10    2.30
   0   6   5   52.39    2.60
   0   6   5   48.60    2.50
  -1  -6  -5   22.10    1.60
  -1  -6  -5   22.90    1.20
  -1  -6  -5   21.40    1.20
  -1  -6  -5   22.20    1.30
  -1  -6  -5   21.70    1.20
   1   6   5   21.60    1.70
   1   6   5   25.10    1.70
   1   6   5   21.30    1.60
  -2  -6  -5   88.39    3.00
  -2  -6  -5   90.39    3.00
  -2  -6  -5   89.39    3.00
  -2  -6  -5   87.19    3.60
  -2  -6  -5   89.79    3.10
   2   6   5   87.69    3.70
   2   6   5   91.79    4.00
   2   6   5   86.69    3.50
  -3  -6  -5   54.59    2.40
  -3  -6  -5   54.99    1.80
  -3  -6  -5   51.09    2.00
   3   6   5   53.59    2.60
   3   6   5   54.79    2.40
   3   6   5   54.69    2.40
   7  -7  -5  142.59    4.80
   7  -7  -5  143.79    4.20
   6  -7  -5  440.46   13.80
   6  -7  -5  492.55   13.20
   6  -7  -5  463.15   14.00
   6  -7  -5  479.65   13.50
  -6   7   5  478.15   14.00
  -6   7   5  462.95   14.00
   5  -7  -5 1413.66   37.70
   5  -7  -5 1355.46   37.50
   5  -7  -5 1387.76   38.00
   5  -7  -5 1378.96   37.50
   5  -7  -5 1350.16   38.50
  -5   7   5 1299.27   38.50
   4  -7  -5  657.13   17.90
   4  -7  -5  637.34   17.70
   4  -7  -5  609.24   18.60
   4  -7  -5  633.54   18.60
   4  -7  -5  634.54   17.80
  -4   7   5  624.44   18.70
   3  -7  -5 1041.10   29.30
   3  -7  -5 1033.80   28.70
   3  -7  -5 1028.20   29.20
   3  -7  -5 1001.30   28.80
   3  -7  -5 1059.79   28.60
   3  -7  -5 1036.10   28.90
  -3   7   5 1007.90   29.40
   2  -7  -5  202.28    6.50
   2  -7  -5  202.78    6.40
   2  -7  -5  199.48    6.60
   2  -7  -5  203.98    6.00
   2  -7  -5  202.58    6.10
  -2   7   5  194.68    6.80
  -2   7   5  192.98    6.80
   1  -7  -5   38.80    1.60
  -1   7   5   38.40    2.20
  -1   7   5   36.80    2.20
   0  -7  -5   64.09    2.30
   0  -7  -5   63.69    2.30
   0  -7  -5   64.39    2.50
   0  -7  -5   66.39    2.80
   0  -7  -5   65.99    2.30
   0   7   5   66.29    3.00
   0   7   5   62.39    2.90
   0   7   5   62.79    3.00
  -1  -7  -5  335.97   10.00
  -1  -7  -5  351.56    9.80
  -1  -7  -5  347.47   10.50
  -1  -7  -5  344.77    9.90
  -1  -7  -5  343.37    9.80
   1   7   5  342.67   11.20
   1   7   5  347.37   10.70
   1   7   5  337.47   10.60
  -2  -7  -5   33.70    1.40
  -2  -7  -5   32.10    1.20
  -2  -7  -5   31.00    1.60
   2   7   5   28.60    2.70
   2   7   5   35.20    1.70
   2   7   5   33.20    1.80
   5  -8  -5   86.59    3.20
   5  -8  -5   88.29    3.00
   5  -8  -5   90.19    2.80
   5  -8  -5   90.59    2.70
  -5   8   5   87.09    3.90
   4  -8  -5  283.67    8.10
   4  -8  -5  276.47    7.70
   4  -8  -5  262.07    8.10
  -4   8   5  257.27    8.60
  -4   8   5  265.27    8.60
   3  -8  -5  265.17    7.70
   3  -8  -5  272.27    7.60
   3  -8  -5  272.67    7.70
   3  -8  -5  272.67    8.10
  -3   8   5  256.67    8.50
  -3   8   5  259.47    8.50
   2  -8  -5  351.66   10.20
   2  -8  -5  360.16    9.80
   2  -8  -5  352.26    9.70
   2  -8  -5  337.57   10.10
  -2   8   5  329.67   13.50
  -2   8   5  333.67   10.60
  -2   8   5  333.07   10.80
   1  -8  -5    4.90    0.50
   1  -8  -5    5.00    0.50
   1  -8  -5    4.50    0.50
   1  -8  -5    5.60    0.70
  -1   8   5    5.70    1.80
  -1   8   5    3.20    1.10
  -1   8   5    4.70    0.90
   0  -8  -5  136.39    4.20
   0  -8  -5  138.89    4.10
   0  -8  -5  141.59    4.60
   0   8   5  135.79    4.80
   0   8   5  149.49    7.50
  -1  10  -6    3.40    1.90
   1 -10   6    1.60    0.50
   1 -10   6    1.20    0.40
  -2  10  -6  249.58    7.20
  -2  10  -6  232.28   12.30
   2 -10   6  247.68    7.90
   2 -10   6  246.98    7.60
  -3  10  -6  809.42   22.30
  -3  10  -6  772.72   27.90
   3 -10   6  783.32   22.70
   3 -10   6  809.82   22.90
  -4  10  -6   17.40    0.90
   4 -10   6   16.10    1.20
   4 -10   6   16.20    1.00
  -1  -9   6    9.80    0.90
  -1  -9   6   12.00    1.20
   0   9  -6   27.90    1.30
   0   9  -6   26.40    4.60
   0  -9   6   28.80    1.70
   0  -9   6   29.20    1.20
   0  -9   6   28.00    1.90
  -1   9  -6    9.90    1.00
  -1   9  -6    7.00    3.00
   1  -9   6   13.00    1.10
   1  -9   6    9.50    1.20
  -2   9  -6   26.10    1.60
  -2   9  -6   26.10    4.90
   2  -9   6   26.20    1.90
   2  -9   6   28.00    2.00
  -3   9  -6  423.26   12.40
  -3   9  -6  391.16   19.30
   3  -9   6  409.96   13.10
   3  -9   6  412.06   12.80
  -4   9  -6  176.98    5.80
  -4   9  -6  177.18   11.20
   4  -9   6  172.58    6.10
   4  -9   6  175.58    6.50
  -5   9  -6    4.90    0.70
   5  -9   6    5.60    0.70
   5  -9   6    6.60    0.90
  -6   9  -6  179.88    5.40
   6  -9   6  177.78    5.90
   6  -9   6  166.08    5.40
  -3  -8   6  465.55   14.00
  -3  -8   6  454.95   13.30
   2   8  -6  133.49    9.30
  -2  -8   6  143.29    4.90
   1   8  -6   23.50    4.60
   1   8  -6   24.70    1.40
  -1  -8   6   25.90    2.00
  -1  -8   6   25.30    1.70
   0   8  -6  201.48   13.50
   0   8  -6  205.08    6.80
   0  -8   6  213.98    7.90
   0  -8   6  213.88    7.20
  -1   8  -6   82.49    3.50
  -1   8  -6   82.49    8.60
   1  -8   6   90.79    3.80
   1  -8   6   89.89    4.30
  -2   8  -6  481.55   23.80
  -2   8  -6  536.25   15.40
   2  -8   6  507.55   16.30
  -3   8  -6  105.09    9.70
  -3   8  -6  120.09    4.50
  -3   8  -6  111.59    4.40
   3  -8   6  116.29    4.60
   3  -8   6  112.89    5.10
  -4   8  -6    6.50    3.10
  -5   8  -6   88.49    3.50
  -5   8  -6   89.49    3.50
  -5   8  -6   88.29    4.40
   5  -8   6   93.79    4.20
   5  -8   6   88.99    3.50
  -6   8  -6   11.40    0.90
  -6   8  -6   11.70    1.70
   6  -8   6   10.70    1.30
  -7   8  -6   21.70    1.10
   7  -8   6   19.50    1.40
   7  -8   6   19.90    1.20
  -4  -7   6  416.16   12.30
  -4  -7   6  426.66   13.00
   3   7  -6  183.78   11.20
  -3  -7   6  206.48    8.30
  -3  -7   6  193.58    6.50
  -3  -7   6  193.08    5.80
   2   7  -6   66.39    7.30
  -2  -7   6   71.79    3.20
  -2  -7   6   76.59    4.30
  -2  -7   6   70.19    2.60
   1   7  -6  359.06   10.70
   1   7  -6  342.87   18.50
  -1  -7   6  353.16   10.30
  -1  -7   6  345.47   12.00
  -1  -7   6  350.16   11.10
   0   7  -6   68.69    7.70
   0  -7   6   52.09    6.90
   0  -7   6   81.39    4.90
   0  -7   6   68.59    3.40
   0  -7   6   75.19    3.30
  -1   7  -6   84.29    8.50
  -1   7  -6   68.19    3.10
  -1   7  -6   71.69    4.80
   1  -7   6   64.89    2.50
   1  -7   6   64.49    3.10
   1  -7   6   63.09    3.60
   1  -7   6   66.89    6.30
   1  -7   6   61.49    5.10
  -2   7  -6  822.82   23.00
  -2   7  -6  799.12   22.90
  -2   7  -6  736.33   32.00
   2  -7   6  771.22   25.90
   2  -7   6  778.92   22.00
   2  -7   6  774.02   26.50
   2  -7   6  792.72   23.90
   2  -7   6  790.72   23.00
  -3   7  -6  568.04   16.80
  -3   7  -6  528.65   25.10
  -3   7  -6  564.54   16.70
   3  -7   6  558.64   16.80
   3  -7   6  548.75   17.60
   3  -7   6  564.44   19.80
  -4   7  -6  963.40   29.90
  -4   7  -6 1040.90   29.00
  -4   7  -6 1006.80   43.90
   4  -7   6 1016.00   29.60
   4  -7   6 1006.40   30.00
  -5   7  -6 1120.79   33.00
  -5   7  -6 1097.29   31.60
  -5   7  -6 1109.79   31.70
   5  -7   6 1120.29   32.80
  -6   7  -6   93.59    3.60
   6  -7   6   94.09    4.40
   6  -7   6  102.19    3.70
  -7   7  -6  147.49    4.70
  -7   7  -6  146.09    5.60
   7  -7   6  150.08    5.60
   7  -7   6  143.19    4.90
   5   6  -6    0.50    0.80
  -5  -6   6    0.80    0.20
  -5  -6   6    1.20    0.40
  -4  -6   6   94.19    3.20
  -4  -6   6   96.49    3.70
   3   6  -6  155.48   10.90
  -3  -6   6  156.58    5.50
  -3  -6   6  149.88    4.90
  -3  -6   6  149.09    5.00
   2   6  -6   17.10    4.50
  -2  -6   6   15.50    1.10
  -2  -6   6   15.80    1.20
  -2  -6   6   16.60    1.40
   1   6  -6  233.08    9.00
   1   6  -6  235.48    7.50
   1   6  -6  229.78   14.20
   1   6  -6  231.68    9.60
  -1  -6   6  240.08    7.40
  -1  -6   6  225.08    7.10
  -1  -6   6  230.78    7.70
  -1  -6   6  222.98    9.80
   0   6  -6  186.48    8.10
   0   6  -6  176.08   12.30
   0  -6   6  185.88    5.90
   0  -6   6  191.58    8.50
   0  -6   6  181.98    6.20
   0  -6   6  196.28    6.60
   0  -6   6  186.68    7.20
  -1   6  -6   19.00    1.50
  -1   6  -6   11.10    1.80
  -1   6  -6   16.90    4.40
   1  -6   6   12.20    2.50
   1  -6   6   14.60    1.00
   1  -6   6   12.20    1.20
   1  -6   6   15.90    1.10
  -2   6  -6  149.29    5.30
  -2   6  -6  143.29    5.30
   2  -6   6  141.49    7.20
   2  -6   6  137.49    5.70
   2  -6   6  138.89    4.60
   2  -6   6  140.89    4.70
  -3   6  -6 1246.58   36.90
  -3   6  -6 1281.67   37.60
  -3   6  -6 1241.88   35.80
  -3   6  -6 1173.88   44.90
   3  -6   6 1318.67   38.80
   3  -6   6 1316.57   37.60
   3  -6   6 1277.07   35.90
   3  -6   6 1247.48   35.10
  -4   6  -6 2477.95   67.09
  -4   6  -6 2437.76   67.19
  -4   6  -6 2345.17   76.79
   4  -6   6 2454.15   70.19
   4  -6   6 2359.46   66.19
   4  -6   6 2394.46   67.19
  -5   6  -6 2037.90   56.59
  -5   6  -6 2062.09   58.19
  -5   6  -6 2013.40   56.59
   5  -6   6 2001.00   58.29
  -6   6  -6  208.68    8.00
  -6   6  -6  205.58    6.80
   6  -6   6  205.68    7.90
  -7   6  -6  385.16   12.40
  -7   6  -6  379.26   11.30
   7  -6   6  383.96   11.40
   7  -6   6  381.66   12.50
  -8   6  -6   28.80    1.70
   8  -6   6   26.80    1.80
  -6  -5   6   55.29    1.80
  -6  -5   6   52.89    2.20
   5   5  -6   79.19    5.60
  -5  -5   6   97.99    3.20
  -5  -5   6   95.29    3.30
  -5  -5   6   98.79    3.70
   4   5  -6  200.38   11.00
  -4  -5   6  245.38    7.40
  -4  -5   6  251.17    7.60
  -4  -5   6  247.18    7.90
  -4  -5   6  241.18    7.70
   3   5  -6   10.00    2.70
   3   5  -6   12.20    2.30
   3   5  -6    6.40    2.20
   3   5  -6    8.50    3.20
  -3  -5   6    7.50    2.90
  -3  -5   6   11.10    1.20
  -3  -5   6    8.90    1.00
  -3  -5   6   10.20    1.00
   2   5  -6  278.57   10.00
   2   5  -6  267.57   10.60
   2   5  -6  262.67   14.90
  -2  -5   6  254.87    8.10
  -2  -5   6  261.67    8.40
  -2  -5   6  259.27    8.60
  -2  -5   6  288.87   10.20
   1   5  -6  245.98   14.40
   1   5  -6  270.47   10.10
   1   5  -6  274.77    9.40
  -1  -5   6  261.07    8.30
  -1  -5   6  268.07    8.50
  -1  -5   6  252.77   10.70
  -1  -5   6  256.27    9.90
  -1  -5   6  262.47   10.60
  -1  -5   6  263.17    8.20
   0   5  -6  197.18    7.50
   0   5  -6  177.18   11.70
   0   5  -6  186.88    9.50
   0  -5   6  175.28    5.90
   0  -5   6  179.08    6.10
   0  -5   6  183.78    6.00
   0  -5   6  180.08    7.90
   0  -5   6  171.18    8.50
   0  -5   6  180.88    7.70
  -1   5  -6  120.99    5.40
  -1   5  -6  119.79    7.20
  -1   5  -6  108.79    9.00
   1  -5   6  112.19    4.10
   1  -5   6  118.59    4.10
   1  -5   6  119.79    4.30
   1  -5   6  118.59    5.90
   1  -5   6  105.29    6.80
  -2   5  -6  116.39    4.40
  -2   5  -6  111.29    9.30
  -2   5  -6  120.69    7.30
   2  -5   6  117.79    4.30
   2  -5   6  110.29    4.00
   2  -5   6  116.79    5.90
  -3   5  -6  876.21   35.10
  -3   5  -6  957.20   27.00
  -3   5  -6  969.70   31.40
   3  -5   6  948.71   26.90
   3  -5   6  951.10   26.50
   3  -5   6  963.80   29.00
   3  -5   6  917.91   26.90
  -4   5  -6   84.59    8.40
  -4   5  -6   96.69    3.90
  -4   5  -6   94.89    4.80
  -4   5  -6  103.89    8.00
  -4   5  -6  103.69    4.60
   4  -5   6   96.69    9.80
   4  -5   6   91.99    3.80
   4  -5   6   86.29    4.60
   4  -5   6  114.39    6.40
  -5   5  -6 1744.13   48.80
  -5   5  -6 1666.03   47.10
  -5   5  -6 1624.04   47.10
   5  -5   6 1644.14   48.60
   5  -5   6 1677.73   46.60
   5  -5   6 1639.54   49.90
   5  -5   6 1806.12   61.29
  -6   5  -6   36.20    5.60
  -6   5  -6   45.40    3.10
  -6   5  -6   44.60    2.10
   6  -5   6   45.20    3.00
   6  -5   6   46.70    7.50
  -7   5  -6  474.35   18.80
  -7   5  -6  463.85   13.40
  -7   5  -6  427.06   16.10
   7  -5   6  483.05   13.60
   7  -5   6  470.85   14.90
   7  -5   6  449.16   25.50
  -8   5  -6   32.30    3.50
  -8   5  -6   30.70    1.20
   8  -5   6   30.40    2.10
   6   4  -6   43.70    2.10
   6   4  -6   38.60    3.30
  -6  -4   6   42.50    1.80
  -6  -4   6   42.40    2.00
  -6  -4   6   42.90    1.70
   5   4  -6  277.07   13.10
  -5  -4   6  317.47    9.90
  -5  -4   6  334.37    9.70
  -5  -4   6  322.07    9.50
  -5  -4   6  322.97   10.00
   4   4  -6  882.41   25.40
  -4  -4   6  795.82   32.70
  -4  -4   6  893.81   24.90
   3   4  -6  415.16   12.80
   3   4  -6  415.76   14.00
   3   4  -6  449.66   19.80
   3   4  -6  418.36   12.60
   3   4  -6  417.66   14.80
   3   4  -6  360.16   16.30
  -3  -4   6  410.36   12.80
  -3  -4   6  397.86   12.00
   2   4  -6  545.25   16.90
   2   4  -6  545.35   17.70
   2   4  -6  532.75   22.70
  -2  -4   6  535.65   17.70
  -2  -4   6  530.45   15.70
  -2  -4   6  521.55   16.90
  -2  -4   6  564.24   18.80
  -2  -4   6  530.25   15.90
  -2  -4   6  520.35   15.70
   1   4  -6 1503.35   42.10
   1   4  -6 1452.25   41.10
   1   4  -6 1425.16   49.30
  -1  -4   6 1376.56   40.40
  -1  -4   6 1426.66   40.30
  -1  -4   6 1413.96   42.10
  -1  -4   6 1460.05   40.40
  -1  -4   6 1454.35   41.90
  -1  -4   6 1485.55   43.80
   0   4  -6  413.76   15.10
   0   4  -6  415.86   12.30
   0   4  -6  413.36   13.10
   0  -4   6  386.96   11.80
   0  -4   6  397.16   11.80
   0  -4   6  412.06   13.50
   0  -4   6  390.86   11.90
   0  -4   6  358.56   14.90
   0  -4   6  393.06   18.20
  -1   4  -6 1365.36   37.20
  -1   4  -6 1236.58   45.00
  -1   4  -6 1441.46   38.70
   1  -4   6 1272.17   37.30
   1  -4   6 1354.86   37.40
   1  -4   6 1362.26   39.20
   1  -4   6 1342.87   43.20
  -2   4  -6  185.68    5.70
  -2   4  -6  158.08   10.90
   2  -4   6  167.58    5.50
   2  -4   6  159.18    7.00
   2  -4   6  167.58    5.50
  -3   4  -6  229.28   13.80
  -3   4  -6  248.28    7.90
  -3   4  -6  257.37   10.80
   3  -4   6  241.28    7.60
   3  -4   6  252.37    9.60
   3  -4   6  240.58    7.70
  -4   4  -6   21.20    2.40
  -4   4  -6   29.40    4.60
  -4   4  -6   23.10    2.20
  -4   4  -6   19.40    5.00
   4  -4   6   22.70    1.60
   4  -4   6   22.90    1.50
   4  -4   6   21.70    1.30
   4  -4   6   23.00    1.40
   4  -4   6   20.20    2.80
   4  -4   6   18.20    2.00
   4  -4   6   24.80    4.80
  -5   4  -6  459.15   14.80
  -5   4  -6  441.26   13.40
   5  -4   6  484.25   25.00
   5  -4   6  437.36   13.00
   5  -4   6  425.26   14.20
   5  -4   6  446.26   14.90
  -6   4  -6  187.28    9.20
  -6   4  -6  179.58    6.00
  -6   4  -6  163.28   10.50
   6  -4   6  196.08   17.20
   6  -4   6  189.08    7.50
   6  -4   6  184.68    5.70
  -7   4  -6   55.59    2.20
  -7   4  -6   50.39    5.10
  -7   4  -6   62.79    3.30
   7  -4   6   56.79    8.80
   7  -4   6   61.39    3.50
  -8   4  -6   32.00    1.90
  -8   4  -6   32.00    3.30
   8  -4   6   23.00    5.50
   8  -4   6   29.40    2.10
   7   3  -6   27.80    1.50
   7   3  -6   22.90    2.00
  -7  -3   6   28.80    1.30
  -7  -3   6   30.70    1.50
  -7  -3   6   29.40    1.20
   6   3  -6   30.70    1.70
   6   3  -6   24.70    3.00
   6   3  -6   32.10    1.90
   6   3  -6   31.00    1.90
  -6  -3   6   30.80    1.50
  -6  -3   6   30.90    1.80
   5   3  -6  155.58    5.80
   5   3  -6  159.68    5.60
   5   3  -6  165.48    5.80
   5   3  -6  145.39    8.20
  -5  -3   6  156.38    5.60
  -5  -3   6  154.68    5.10
  -5  -3   6  152.78    5.40
   4   3  -6  308.47   12.80
   4   3  -6  354.66   12.50
   4   3  -6  368.26   11.00
   4   3  -6  350.56   11.00
   4   3  -6  315.27   14.00
   4   3  -6  344.37   11.00
  -4  -3   6  354.46   10.70
  -4  -3   6  353.16   10.70
  -4  -3   6  345.97   10.30
   3   3  -6  358.56   12.10
  -3  -3   6  348.77   10.70
  -3  -3   6  370.66   10.80
  -3  -3   6  354.46   14.30
  -3  -3   6  337.97   12.20
   2   3  -6  564.24   16.70
   2   3  -6  540.95   17.40
  -2  -3   6  543.95   15.70
  -2  -3   6  506.75   20.00
  -2  -3   6  533.45   16.20
  -2  -3   6  544.35   18.80
  -2  -3   6  549.65   17.70
  -2  -3   6  529.35   16.60
   1   3  -6  541.45   16.60
   1   3  -6  529.75   15.80
  -1  -3   6  528.95   18.90
  -1  -3   6  517.85   15.30
  -1  -3   6  534.75   16.70
  -1  -3   6  527.35   19.70
   0   3  -6  937.91   26.90
   0   3  -6  951.60   29.60
   0   3  -6  973.90   28.00
   0  -3   6  936.71   26.80
   0  -3   6  981.70   28.50
   0  -3   6  950.20   31.60
  -1   3  -6 1167.88   34.90
  -1   3  -6 1141.19   32.70
  -1   3  -6 1169.18   33.30
   1  -3   6 1120.09   32.30
   1  -3   6 1121.69   37.80
   1  -3   6 1230.18   34.40
  -2   3  -6  167.78    5.80
  -2   3  -6  178.58    7.50
   2  -3   6  150.98    7.00
   2  -3   6  166.98   12.40
   2  -3   6  164.08    5.40
  -3   3  -6  259.57   14.40
  -3   3  -6  271.87   10.60
  -3   3  -6  269.97    8.90
   3  -3   6  274.57    8.40
   3  -3   6  272.47    8.60
   3  -3   6  265.67   14.20
   3  -3   6  284.07   10.70
  -4   3  -6   90.09    4.30
  -4   3  -6   95.69    4.50
   4  -3   6   92.29    5.80
   4  -3   6   86.79    3.90
   4  -3   6   93.29    3.60
   4  -3   6   91.19    9.40
   4  -3   6   94.69    3.50
  -5   3  -6  296.57   15.10
  -5   3  -6  350.06   11.60
  -5   3  -6  336.67   10.30
   5  -3   6  338.47   11.30
   5  -3   6  342.27   10.10
   5  -3   6  369.76   21.60
   5  -3   6  353.06   10.40
   5  -3   6  332.87   12.50
   5  -3   6  348.37   11.20
  -6   3  -6 1011.20   35.60
  -6   3  -6 1025.00   29.60
   6  -3   6 1166.08   55.49
   6  -3   6 1023.80   31.70
   6  -3   6 1063.69   29.60
  -7   3  -6  170.68    5.20
  -7   3  -6  168.68    9.00
  -7   3  -6  170.58    6.60
   7  -3   6  171.98    5.20
   7  -3   6  177.08    7.20
   7  -3   6  173.08   15.90
  -8   3  -6    9.50    1.80
  -8   3  -6    9.80    1.10
   8  -3   6    9.30    1.30
   7   2  -6   39.50    2.10
   7   2  -6   34.00    2.60
   7   2  -6   42.40    2.40
   7   2  -6   38.80    1.80
  -7  -2   6   41.00    2.00
  -7  -2   6   41.50    1.70
  -7  -2   6   41.60    1.90
   6   2  -6   54.09    2.80
   6   2  -6   56.59    2.80
   6   2  -6   52.29    4.20
   6   2  -6   56.49    2.70
  -6  -2   6   54.19    2.60
  -6  -2   6   58.59    2.60
  -6  -2   6   54.89    2.30
   5   2  -6  947.31   26.70
   5   2  -6  912.81   29.20
   5   2  -6  915.01   28.60
   5   2  -6  850.51   29.50
   5   2  -6  947.51   26.70
   5   2  -6  964.00   26.80
  -5  -2   6  892.41   25.90
  -5  -2   6  892.21   26.20
   4   2  -6  639.14   18.60
   4   2  -6  629.54   20.60
   4   2  -6  632.94   18.80
   4   2  -6  655.13   18.70
   4   2  -6  554.74   22.00
   4   2  -6  645.74   19.90
  -4  -2   6  640.44   18.20
  -4  -2   6  587.74   18.80
   3   2  -6   82.89    4.10
   3   2  -6   81.19    4.50
  -3  -2   6   77.89    3.10
  -3  -2   6   81.79    5.30
  -3  -2   6   80.49    4.20
  -3  -2   6   84.09    6.70
  -3  -2   6   77.99    3.10
   2   2  -6 2077.19   60.39
   2   2  -6 2175.38   59.59
  -2  -2   6 2098.49   62.79
  -2  -2   6 2091.69   59.79
  -2  -2   6 2192.78   62.59
   1   2  -6 1408.56   40.30
   1   2  -6 1351.76   39.50
   1   2  -6 1437.56   39.50
  -1  -2   6 1407.76   43.60
  -1  -2   6 1452.55   40.60
  -1  -2   6 1389.26   39.00
   0   2  -6 2768.72   75.59
   0   2  -6 2651.93   75.89
   0  -2   6 2873.21   77.09
   0  -2   6 2710.83   80.69
   0  -2   6 2647.64   74.89
  -1   2  -6  810.42   23.60
  -1   2  -6  806.92   24.70
  -1   2  -6  815.02   23.70
   1  -2   6  818.32   23.00
   1  -2   6  848.52   29.70
   1  -2   6  814.12   25.40
  -2   2  -6 4416.36  118.09
  -2   2  -6 4301.07  118.79
  -2   2  -6 3990.80  117.39
   2  -2   6 4407.76  120.39
   2  -2   6 4203.58  117.09
   2  -2   6 4394.86  125.89
   2  -2   6 4229.78  117.19
  -3   2  -6  282.47    9.60
  -3   2  -6  270.07    9.20
   3  -2   6  253.97    8.40
   3  -2   6  247.78   14.90
   3  -2   6  271.67   11.10
   3  -2   6  262.87    8.40
  -4   2  -6  820.52   25.30
  -4   2  -6  806.62   24.70
   4  -2   6  822.82   27.30
   4  -2   6  860.71   24.10
   4  -2   6  861.21   24.00
   4  -2   6  869.81   36.20
   4  -2   6  817.52   24.40
  -5   2  -6 1019.80   30.30
  -5   2  -6 1005.70   34.80
  -5   2  -6  985.70   28.80
  -5   2  -6 1017.20   31.10
   5  -2   6 1044.90   29.40
   5  -2   6 1119.49   44.70
   5  -2   6 1035.90   28.90
   5  -2   6 1004.80   30.20
   5  -2   6 1040.60   29.30
  -6   2  -6  810.32   23.40
  -6   2  -6  813.12   28.80
  -6   2  -6  826.02   25.10
   6  -2   6  824.92   25.90
   6  -2   6  910.51   41.10
   6  -2   6  835.22   23.70
  -7   2  -6   11.40    1.40
  -7   2  -6   11.80    1.00
  -7   2  -6    8.50    2.20
   7  -2   6   13.40    1.80
   7  -2   6   11.00    0.80
   7  -2   6   10.50    4.30
  -8   2  -6  130.39    4.80
  -8   2  -6  124.89    5.60
   8  -2   6  124.19    5.30
   8  -2   6  106.49   13.10
   8   1  -6   38.70    1.70
   8   1  -6   36.30    1.80
  -8  -1   6   37.20    1.50
  -8  -1   6   37.10    1.60
   7   1  -6   81.69    4.00
   7   1  -6  102.29    4.00
   7   1  -6   97.59    3.70
   7   1  -6   95.99    3.90
  -7  -1   6   97.69    3.40
  -7  -1   6  100.69    3.90
  -7  -1   6   98.19    3.70
   6   1  -6   57.29    4.00
   6   1  -6   56.49    2.90
   6   1  -6   55.29    2.90
   6   1  -6   54.79    2.90
  -6  -1   6   56.89    2.60
  -6  -1   6   56.49    2.40
  -6  -1   6   59.99    2.90
   5   1  -6  306.77    9.80
   5   1  -6  295.57    8.70
   5   1  -6  273.27   11.50
   5   1  -6  310.57   10.00
   5   1  -6  299.27   12.00
   5   1  -6  314.47    9.90
   5   1  -6  312.77   11.60
   5   1  -6  311.67    9.90
  -5  -1   6  292.87    9.40
  -5  -1   6  273.97    9.00
  -5  -1   6  286.87    9.30
   4   1  -6   44.20    4.80
   4   1  -6   44.00    3.30
  -4  -1   6   36.00    3.90
  -4  -1   6   41.90    2.00
  -4  -1   6   40.80    2.00
   3   1  -6  316.37   11.30
   3   1  -6  323.27   10.80
  -3  -1   6  314.27   10.30
  -3  -1   6  314.57    9.60
  -3  -1   6  334.67   12.70
  -3  -1   6  319.97   14.60
   2   1  -6  431.76   13.40
   2   1  -6  403.96   12.60
  -2  -1   6  391.46   15.10
  -2  -1   6  399.06   15.10
  -2  -1   6  411.86   12.90
  -2  -1   6  388.16   11.60
   1   1  -6    8.00    1.10
   1   1  -6    8.80    1.00
   1   1  -6    6.80    1.10
  -1  -1   6    8.50    2.40
  -1  -1   6    8.60    1.50
   0   1  -6 2839.62   75.69
   0   1  -6 2867.91   76.09
   0   1  -6 2629.34   75.49
   0  -1   6 2537.05   74.69
   0  -1   6 2709.03   77.39
   0  -1   6 2761.72   81.99
  -1   1  -6 2105.79   59.99
  -1   1  -6 2186.78   60.69
  -1   1  -6 2268.37   61.19
   1  -1   6 2096.79   59.59
   1  -1   6 2107.79   59.59
   1  -1   6 2155.28   62.89
   1  -1   6 2259.67   68.29
  -2   1  -6 1157.58   32.80
  -2   1  -6 1123.19   32.40
   2  -1   6 1093.99   31.50
   2  -1   6 1133.89   40.30
   2  -1   6 1079.49   31.20
  -3   1  -6   78.09    4.10
  -3   1  -6   92.79    4.50
   3  -1   6   74.49    5.80
   3  -1   6   75.39    3.90
   3  -1   6   77.09    3.20
  -4   1  -6  300.67   10.80
  -4   1  -6  299.17   11.10
  -4   1  -6  290.67   10.00
   4  -1   6  312.07    9.50
   4  -1   6  296.87   10.50
   4  -1   6  304.47    9.40
   4  -1   6  312.57   19.10
   4  -1   6  290.47   13.40
   4  -1   6  296.27   10.20
  -5   1  -6 1908.71   56.89
  -5   1  -6 1956.60   60.89
  -5   1  -6 2000.00   58.39
   5  -1   6 2090.59   56.09
   5  -1   6 2120.89   73.59
   5  -1   6 2047.20   56.19
   5  -1   6 1963.50   57.19
   5  -1   6 1999.00   55.69
  -6   1  -6  107.79    4.80
  -6   1  -6  106.59    6.80
  -6   1  -6  106.29    3.90
   6  -1   6  112.99    3.90
   6  -1   6  109.09    4.00
   6  -1   6  122.09   13.30
  -7   1  -6  237.28    8.00
  -7   1  -6  239.18    9.90
   7  -1   6  234.58    9.40
   7  -1   6  232.28   19.00
   7  -1   6  230.08    7.00
  -8   1  -6    8.70    0.90
  -8   1  -6    7.30    1.10
   8  -1   6    6.00    3.10
   8  -1   6    7.50    1.40
   8   0  -6  286.27    8.90
   8   0  -6  277.07    8.60
   8   0  -6  299.57    9.10
  -8   0   6  289.77    8.50
  -8   0   6  285.97    8.80
  -8   0   6  301.37    9.00
   7   0  -6  474.45   14.50
   7   0  -6  444.86   14.30
   7   0  -6  495.85   14.60
  -7   0   6  474.25   14.00
  -7   0   6  469.25   13.70
  -7   0   6  478.15   14.20
   6   0  -6  274.97    9.10
   6   0  -6  272.07    9.00
   6   0  -6  265.27    8.90
   6   0  -6  260.17    8.90
   6   0  -6  266.67    7.80
   6   0  -6  228.38    9.20
  -6   0   6  266.37    8.10
  -6   0   6  260.17   10.10
  -6   0   6  279.67    8.60
   5   0  -6  136.79    4.10
   5   0  -6  137.19    6.70
   5   0  -6  127.99    5.10
   5   0  -6  136.29    5.30
   5   0  -6  136.19    5.30
   5   0  -6  112.99    5.80
   5   0  -6  131.59    7.00
   5   0  -6  132.89    5.40
  -5   0   6  137.69    4.80
  -5   0   6  125.69    4.70
   4   0  -6    8.80    1.70
   4   0  -6    2.50    1.40
   4   0  -6    5.00    1.40
  -4   0   6    3.80    0.70
  -4   0   6    5.10    2.00
   3   0  -6  446.16   13.00
   3   0  -6  451.85   14.10
   3   0  -6  455.95   14.70
  -3   0   6  418.56   14.90
  -3   0   6  422.66   12.70
  -3   0   6  428.76   13.20
  -3   0   6  445.36   15.90
   2   0  -6  305.87    9.70
   2   0  -6  300.87    8.80
   2   0  -6  302.97   10.20
  -2   0   6  294.37   12.90
  -2   0   6  289.27   12.10
  -2   0   6  288.47   10.30
   1   0  -6 2185.28   59.69
   1   0  -6 2114.09   59.19
   1   0  -6 2106.39   59.39
   1   0  -6 2120.29   58.79
  -1   0   6 1962.60   60.69
  -1   0   6 2235.38   65.49
   0   0  -6 1959.30   57.89
   0   0  -6 2048.40   57.39
   0   0  -6 2001.80   56.89
   0   0   6 2219.88   59.29
   0   0   6 2053.69   64.49
   0   0   6 2006.70   59.49
   0   0   6 2042.10   56.39
  -1   0  -6  103.69    4.90
  -1   0  -6   99.89    4.40
   1   0   6   99.99    3.40
   1   0   6  100.69    9.00
   1   0   6  104.19    6.20
  -2   0  -6  955.90   28.10
  -2   0  -6  949.40   28.70
   2   0   6  915.61   30.70
   2   0   6  973.70   36.90
   2   0   6  937.91   27.10
   2   0   6  930.51   26.60
  -3   0  -6  724.23   22.60
  -3   0  -6  656.53   20.70
  -3   0  -6  731.13   22.20
   3   0   6  707.13   21.20
   3   0   6  701.33   20.30
   3   0   6  705.03   25.00
   3   0   6  717.03   20.40
  -4   0  -6  439.16   14.50
  -4   0  -6  472.15   16.30
  -4   0  -6  468.75   16.30
  -4   0  -6  521.45   20.90
   4   0   6  487.25   14.30
   4   0   6  493.35   26.20
   4   0   6  448.16   19.30
   4   0   6  440.96   17.10
   4   0   6  482.05   14.20
   4   0   6  471.45   13.80
  -5   0  -6  937.01   27.70
  -5   0  -6  878.11   27.10
  -5   0  -6  966.10   29.80
  -5   0  -6  919.41   30.80
  -5   0  -6  892.01   26.70
   5   0   6  906.71   28.40
   5   0   6  978.60   27.10
   5   0   6  962.00   27.10
   5   0   6  946.91   26.70
   5   0   6 1022.20   43.60
  -6   0  -6 1018.50   30.30
  -6   0  -6 1022.40   32.80
   6   0   6 1038.20   29.40
   6   0   6 1103.19   48.20
   6   0   6 1025.10   29.40
  -7   0  -6  184.98    7.40
  -7   0  -6  187.98    6.30
   7   0   6  177.88   15.90
   7   0   6  173.18    6.20
   7   0   6  179.38    7.90
   8  -1  -6   34.70    2.00
   8  -1  -6   37.10    1.90
   8  -1  -6   34.60    1.90
  -8   1   6   36.20    1.70
  -8   1   6   38.50    1.80
  -8   1   6   36.90    1.50
   7  -1  -6  158.28    6.00
   7  -1  -6  155.88    7.60
   7  -1  -6  166.28    6.20
  -7   1   6  161.78    5.50
  -7   1   6  155.88    5.40
  -7   1   6  146.99    5.00
   6  -1  -6  308.87   10.40
   6  -1  -6  301.77   10.20
   6  -1  -6  319.67   10.40
   6  -1  -6  306.67   10.30
   6  -1  -6  313.07    9.10
  -6   1   6  310.67   10.00
  -6   1   6  318.27    9.90
   5  -1  -6   47.10    2.80
   5  -1  -6   50.59    4.20
   5  -1  -6   47.90    1.80
   5  -1  -6   47.50    2.70
   5  -1  -6   45.70    2.70
   5  -1  -6   49.00    3.40
   5  -1  -6   47.60    2.90
   5  -1  -6   45.90    4.10
  -5   1   6   51.89    2.50
  -5   1   6   52.19    2.70
   4  -1  -6  318.37   10.30
   4  -1  -6  312.47   11.80
   4  -1  -6  320.77   11.50
  -4   1   6  309.27   12.40
   3  -1  -6  310.27   10.70
   3  -1  -6  280.07    9.10
   3  -1  -6  285.87   10.10
  -3   1   6  279.77    9.40
  -3   1   6  287.77   11.40
   2  -1  -6  369.56   10.90
   2  -1  -6  365.96   12.00
   2  -1  -6  352.86   11.70
   2  -1  -6  358.56   11.70
   2  -1  -6  368.86   11.60
  -2   1   6  354.86   12.70
  -2   1   6  337.17   13.60
  -2   1   6  376.46   10.70
  -2   1   6  359.26   16.00
   1  -1  -6   14.20    1.70
   1  -1  -6   13.40    1.40
   1  -1  -6   12.10    1.50
   1  -1  -6   13.40    1.40
   1  -1  -6   12.70    1.50
  -1   1   6   13.00    2.10
  -1   1   6   13.40    2.40
  -1   1   6   13.80    3.90
  -1   1   6   17.00    1.40
   0  -1  -6  703.43   22.30
   0  -1  -6  651.43   19.20
   0   1   6  683.93   27.60
   0   1   6  646.34   22.50
   0   1   6  672.13   19.50
  -1  -1  -6 2044.40   56.79
  -1  -1  -6 2036.00   57.79
  -1  -1  -6 2065.79   56.99
   1   1   6 2046.60   66.59
   1   1   6 1947.31   59.69
   1   1   6 1892.91   55.09
   1   1   6 1965.90   55.89
  -2  -1  -6  628.44   20.50
  -2  -1  -6  593.04   18.10
  -2  -1  -6  627.14   19.70
   2   1   6  632.74   17.90
   2   1   6  620.54   22.70
   2   1   6  632.94   18.80
   2   1   6  599.94   17.80
  -3  -1  -6  784.32   24.30
  -3  -1  -6  809.42   26.80
  -3  -1  -6  896.41   30.00
   3   1   6  842.12   30.00
   3   1   6  845.92   25.90
   3   1   6  848.82   24.00
   3   1   6  836.32   24.10
   3   1   6  836.92   35.60
  -4  -1  -6  591.74   18.10
  -4  -1  -6  583.04   18.50
  -4  -1  -6  658.23   21.20
  -4  -1  -6  616.44   21.30
  -4  -1  -6  627.04   21.40
  -4  -1  -6  644.74   18.10
  -4  -1  -6  608.54   18.80
   4   1   6  623.24   18.00
   4   1   6  607.34   18.40
   4   1   6  669.73   31.80
   4   1   6  638.54   18.50
  -5  -1  -6 2489.25   72.69
  -5  -1  -6 2404.16   70.19
  -5  -1  -6 2378.06   69.49
  -5  -1  -6 2452.95   69.09
  -5  -1  -6 2537.25   69.29
   5   1   6 2628.64   69.79
   5   1   6 2591.44   69.79
   5   1   6 2589.64   69.39
  -6  -1  -6  196.18    8.10
  -6  -1  -6  193.58    6.90
   6   1   6  190.38   19.80
   6   1   6  185.58    6.10
   6   1   6  198.08    6.20
  -7  -1  -6  620.34   17.10
  -7  -1  -6  617.74   16.40
  -7  -1  -6  615.44   17.80
   7   1   6  569.44   16.30
   7   1   6  497.75   28.10
   8  -2  -6   60.29    2.70
   8  -2  -6   57.39    2.70
  -8   2   6   57.59    2.10
  -8   2   6   59.09    2.50
  -8   2   6   56.29    2.40
   7  -2  -6  271.57    9.40
   7  -2  -6  256.47    9.40
   7  -2  -6  260.87    9.50
  -7   2   6  274.97    8.50
  -7   2   6  255.27    8.30
   6  -2  -6   76.89    3.60
   6  -2  -6   74.59    3.60
   6  -2  -6   74.79    2.60
   6  -2  -6   80.99    3.80
   6  -2  -6   77.09    3.80
  -6   2   6   77.99    3.40
   5  -2  -6  271.67    9.60
   5  -2  -6  291.97    8.50
   5  -2  -6  300.27   11.70
   5  -2  -6  284.07    9.70
   5  -2  -6  294.97   10.20
   5  -2  -6  292.07    9.80
   5  -2  -6  307.17   10.00
   5  -2  -6  294.17   12.00
   5  -2  -6  294.87    8.80
   4  -2  -6  102.29    5.40
   4  -2  -6   97.99    4.40
  -4   2   6   99.59    6.00
  -4   2   6   89.29    7.80
   3  -2  -6  150.88    6.70
   3  -2  -6  155.88    5.70
   3  -2  -6  149.39    6.50
   3  -2  -6  156.68    6.50
  -3   2   6  150.08    5.70
  -3   2   6  146.59    8.50
   2  -2  -6  547.65   15.70
   2  -2  -6  532.75   16.70
   2  -2  -6  527.75   16.70
   2  -2  -6  527.55   15.80
   2  -2  -6  522.65   16.30
   2  -2  -6  537.45   16.60
  -2   2   6  504.65   18.00
  -2   2   6  515.95   22.40
  -2   2   6  502.35   17.70
  -2   2   6  506.65   18.00
  -2   2   6  529.35   15.70
   1  -2  -6   24.40    2.30
   1  -2  -6   24.70    2.00
   1  -2  -6   24.60    2.10
   1  -2  -6   24.90    2.60
  -1   2   6   24.40    3.60
  -1   2   6   28.20    6.60
   0  -2  -6  353.26   12.40
   0  -2  -6  338.77   11.80
   0  -2  -6  325.07   11.20
   0   2   6  332.17   10.70
   0   2   6  327.97   18.90
   0   2   6  342.87   14.20
   0   2   6  316.67    9.80
  -1  -2  -6  168.28    5.80
  -1  -2  -6  174.18    8.10
  -1  -2  -6  172.58    7.10
  -1  -2  -6  174.78    7.40
   1   2   6  175.28    6.60
   1   2   6  171.08    9.90
  -2  -2  -6  573.64   19.50
  -2  -2  -6  521.55   16.30
  -2  -2  -6  559.04   18.10
   2   2   6  542.45   17.30
   2   2   6  534.95   22.40
   2   2   6  539.55   16.10
   2   2   6  549.54   16.10
   2   2   6  573.84   26.20
  -3  -2  -6  490.15   14.40
  -3  -2  -6  485.45   17.00
  -3  -2  -6  493.95   18.10
  -3  -2  -6  491.45   16.60
  -3  -2  -6  462.85   14.80
  -3  -2  -6  444.66   14.80
  -3  -2  -6  489.45   14.40
   3   2   6  502.75   14.50
   3   2   6  488.55   14.70
   3   2   6  521.55   26.10
   3   2   6  487.75   14.70
  -4  -2  -6  168.78    8.00
  -4  -2  -6  155.88    6.20
   4   2   6  170.88    6.00
   4   2   6  179.18   15.30
   4   2   6  171.28    6.10
  -5  -2  -6  167.18    6.20
  -5  -2  -6  163.68    5.50
  -5  -2  -6  169.58    7.20
   5   2   6  172.58    5.90
   5   2   6  167.68   15.70
   5   2   6  171.18    5.70
   5   2   6  172.18    6.00
  -6  -2  -6   24.10    1.90
  -6  -2  -6   26.40    1.60
  -6  -2  -6   23.90    1.10
   6   2   6   20.40    5.40
   6   2   6   23.70    1.30
   8  -3  -6    2.40    0.70
   8  -3  -6    3.80    0.70
  -8   3   6    4.10    0.60
  -8   3   6    4.00    0.70
   7  -3  -6  111.99    4.60
   7  -3  -6  108.49    4.50
   7  -3  -6  107.79    4.40
   7  -3  -6  107.69    4.30
   7  -3  -6  108.99    3.40
  -7   3   6  107.89    4.20
  -7   3   6  103.99    4.00
   6  -3  -6   15.80    1.60
   6  -3  -6   15.40    1.50
   6  -3  -6   14.60    1.50
   6  -3  -6   16.30    0.90
   6  -3  -6   13.30    1.50
  -6   3   6   13.50    1.80
   5  -3  -6  233.78   13.00
   5  -3  -6  266.87    9.00
   5  -3  -6  263.37    9.00
   5  -3  -6  269.07    8.10
   5  -3  -6  270.47    9.80
   5  -3  -6  269.97    7.80
   5  -3  -6  277.37    9.10
   5  -3  -6  263.97    9.10
  -5   3   6  263.87    8.50
   4  -3  -6  890.21   25.40
   4  -3  -6  882.71   26.20
   4  -3  -6  918.01   28.10
   4  -3  -6  897.81   26.70
   4  -3  -6  919.01   28.50
   4  -3  -6  915.01   26.30
   4  -3  -6  912.81   25.10
   4  -3  -6  907.91   26.60
  -4   3   6  852.51   31.40
   3  -3  -6  236.68    9.50
   3  -3  -6  239.08    9.10
   3  -3  -6  226.68    7.90
   3  -3  -6  251.77    8.50
   3  -3  -6  238.88    8.80
   3  -3  -6  246.08    9.30
  -3   3   6  245.68    8.80
  -3   3   6  247.18   11.50
   2  -3  -6 1017.40   31.10
   2  -3  -6 1037.10   31.10
   2  -3  -6 1021.00   29.70
   2  -3  -6 1063.69   29.80
  -2   3   6  993.80   33.00
  -2   3   6 1034.20   30.00
  -2   3   6 1013.60   39.40
   1  -3  -6  355.96   12.40
   1  -3  -6  338.67   12.60
   1  -3  -6  346.07   11.30
  -1   3   6  281.07   12.90
  -1   3   6  343.87   11.20
  -1   3   6  345.87   14.90
   0  -3  -6   55.79    3.60
   0  -3  -6   54.99    4.50
   0  -3  -6   51.09    3.90
   0   3   6   61.09    3.70
   0   3   6   52.79    2.70
  -1  -3  -6  132.29    7.30
  -1  -3  -6  116.49    4.70
  -1  -3  -6  133.99    6.50
  -1  -3  -6  121.39    4.40
  -1  -3  -6  116.79    4.30
  -1  -3  -6  112.99    6.60
  -1  -3  -6  117.29    4.00
   1   3   6  126.39    6.40
   1   3   6  118.69    4.40
   1   3   6  120.79    4.30
  -2  -3  -6  131.39    4.60
  -2  -3  -6  128.09    7.90
  -2  -3  -6  133.99    4.40
  -2  -3  -6  132.29    5.00
  -2  -3  -6  139.09    4.70
  -2  -3  -6  132.19    5.30
  -2  -3  -6  139.29    7.00
  -2  -3  -6  137.49    6.90
  -2  -3  -6  134.49    5.00
   2   3   6  133.29   11.50
   2   3   6  130.29    4.80
   2   3   6  131.89    4.80
   2   3   6  115.79    4.70
  -3  -3  -6  411.46   13.30
  -3  -3  -6  436.06   13.60
  -3  -3  -6  443.16   15.60
  -3  -3  -6  459.55   13.30
  -3  -3  -6  447.96   14.20
  -3  -3  -6  431.56   19.10
  -3  -3  -6  433.66   13.70
  -3  -3  -6  407.76   17.50
   3   3   6  451.65   13.60
   3   3   6  455.35   13.60
   3   3   6  459.25   25.20
   3   3   6  446.66   13.20
  -4  -3  -6  366.26   11.80
  -4  -3  -6  380.86   11.10
  -4  -3  -6  364.26   11.20
  -4  -3  -6  371.56   12.50
  -4  -3  -6  380.86   11.10
  -4  -3  -6  379.86   11.20
   4   3   6  368.76   11.70
   4   3   6  369.06   11.40
   4   3   6  389.86   24.80
   4   3   6  380.36   11.70
  -5  -3  -6   43.30    2.50
  -5  -3  -6   44.70    1.80
  -5  -3  -6   43.50    2.30
   5   3   6   40.30    2.00
   5   3   6   32.90    7.20
   5   3   6   44.50    2.00
   5   3   6   41.10    2.20
  -6  -3  -6  114.69    3.50
  -6  -3  -6  118.59    4.10
  -6  -3  -6  120.79    3.90
   6   3   6  109.89    3.70
   8  -4  -6    1.10    0.40
   8  -4  -6    1.90    0.50
   8  -4  -6    1.30    0.30
   8  -4  -6    1.90    0.50
  -8   4   6    1.70    0.50
   7  -4  -6   50.39    2.60
   7  -4  -6   51.19    1.80
   7  -4  -6   50.59    2.70
   7  -4  -6   51.89    2.70
   7  -4  -6   48.30    2.50
  -7   4   6   49.70    2.40
  -7   4   6   50.89    2.50
   6  -4  -6   56.99    2.90
   6  -4  -6   52.69    3.00
   6  -4  -6   64.39    3.10
   6  -4  -6   56.99    2.30
   6  -4  -6   58.09    3.10
   6  -4  -6   56.39    2.10
  -6   4   6   55.89    2.80
   5  -4  -6  438.86   13.80
   5  -4  -6  430.86   12.90
   5  -4  -6  433.36   14.40
   5  -4  -6  450.25   14.20
   5  -4  -6  438.66   12.60
  -5   4   6  439.36   13.70
   4  -4  -6  940.21   29.80
   4  -4  -6  984.50   27.80
   4  -4  -6  958.50   27.80
   4  -4  -6  973.80   26.80
   4  -4  -6  937.71   28.50
   4  -4  -6  924.31   26.50
   4  -4  -6  938.01   26.40
   4  -4  -6  972.10   27.70
   4  -4  -6  952.70   27.00
   4  -4  -6  946.61   27.00
   3  -4  -6  156.28    5.60
   3  -4  -6  135.99    5.30
   3  -4  -6  146.79    6.80
   3  -4  -6  146.49    7.00
   3  -4  -6  137.19    8.00
   3  -4  -6  149.49    5.20
   3  -4  -6  145.39    6.10
  -3   4   6  135.69    7.20
   2  -4  -6  401.26   14.70
   2  -4  -6  407.86   13.00
   2  -4  -6  413.86   11.80
   2  -4  -6  427.06   12.50
   2  -4  -6  422.06   12.00
   2  -4  -6  411.56   12.40
   2  -4  -6  386.56   14.60
  -2   4   6  403.86   14.00
   1  -4  -6   65.09    5.80
   1  -4  -6   59.39    2.70
   1  -4  -6   69.39    3.50
   1  -4  -6   60.09    2.30
   1  -4  -6   60.09    4.50
   1  -4  -6   57.49    2.60
   1  -4  -6   59.79    4.90
  -1   4   6   52.59    4.50
  -1   4   6   51.09    8.10
  -1   4   6   58.89    2.40
   0  -4  -6  956.10   26.70
   0  -4  -6  970.10   27.20
   0  -4  -6  962.40   27.50
   0  -4  -6  969.40   30.40
   0  -4  -6  924.61   26.90
   0  -4  -6  947.31   28.90
   0  -4  -6  986.20   31.30
   0  -4  -6  916.31   27.30
   0   4   6  952.10   27.10
  -1  -4  -6  140.39    4.60
  -1  -4  -6  129.99    4.90
  -1  -4  -6  129.99    4.40
  -1  -4  -6  126.09    6.90
  -1  -4  -6  129.89    4.40
  -1  -4  -6  127.39    7.20
  -1  -4  -6  129.19    4.90
  -1  -4  -6  132.89    4.70
  -1  -4  -6  124.69    8.10
   1   4   6  130.59    4.80
   1   4   6  138.29    4.90
  -2  -4  -6  576.14   18.40
  -2  -4  -6  584.94   17.00
  -2  -4  -6  565.34   17.70
  -2  -4  -6  585.64   17.30
  -2  -4  -6  580.94   17.80
   2   4   6  617.84   17.70
   2   4   6  630.34   17.80
  -3  -4  -6    6.70    0.90
  -3  -4  -6    5.80    0.70
  -3  -4  -6    6.80    0.80
   3   4   6    6.80    1.00
   3   4   6    7.20    1.00
   3   4   6    9.10    1.10
  -4  -4  -6  214.48    6.50
  -4  -4  -6  212.38    6.30
  -4  -4  -6  211.98    7.10
   4   4   6  212.88    6.90
   4   4   6  215.98    7.30
   4   4   6  211.68    7.00
  -5  -4  -6   26.00    1.10
  -5  -4  -6   26.10    1.40
  -5  -4  -6   25.90    1.40
   5   4   6   27.60    1.40
   5   4   6   24.40    1.60
   8  -5  -6   27.90    1.50
   8  -5  -6   29.20    1.00
   8  -5  -6   28.50    1.50
   7  -5  -6  108.59    4.20
   7  -5  -6  107.69    4.20
   7  -5  -6  106.39    3.90
   7  -5  -6  110.99    3.40
  -7   5   6  107.69    3.90
   6  -5  -6  166.08    5.30
   6  -5  -6  162.98    6.10
   6  -5  -6  161.98    4.90
   6  -5  -6  169.68    5.80
   6  -5  -6  167.28    6.20
   6  -5  -6  173.18    5.10
   5  -5  -6  408.96   11.60
   5  -5  -6  419.86   12.90
   5  -5  -6  406.86   11.50
   5  -5  -6  403.86   12.00
   5  -5  -6  388.96   12.80
   4  -5  -6  713.33   21.00
   4  -5  -6  681.73   19.80
   4  -5  -6  730.33   20.10
   4  -5  -6  688.83   20.90
   4  -5  -6  712.33   19.70
   4  -5  -6  711.63   20.30
   4  -5  -6  703.93   19.80
   3  -5  -6  417.66   12.00
   3  -5  -6  402.86   11.60
   3  -5  -6  401.66   11.60
   3  -5  -6  377.26   14.90
   3  -5  -6  403.56   12.10
   3  -5  -6  403.86   11.50
   2  -5  -6  281.37    8.70
   2  -5  -6  289.57    8.40
   2  -5  -6  287.07    8.90
   2  -5  -6  287.37    9.00
   2  -5  -6  287.37    8.40
   2  -5  -6  286.87    8.50
   2  -5  -6  271.67   11.90
  -2   5   6  274.27    8.60
   1  -5  -6   42.60    1.80
   1  -5  -6   41.80    1.80
   1  -5  -6   42.10    2.20
   1  -5  -6   43.20    2.00
   1  -5  -6   35.30    4.50
   1  -5  -6   42.90    5.40
   1  -5  -6   42.10    1.90
   1  -5  -6   43.10    2.20
  -1   5   6   42.10    2.10
   0   5   6  344.57   10.40
   0   5   6  325.67   10.50
  -1  -5  -6  375.36   11.00
  -1  -5  -6  372.06   11.60
  -1  -5  -6  373.06   11.20
  -1  -5  -6  355.26   11.30
  -1  -5  -6  376.16   10.90
  -1  -5  -6  378.46   10.80
   1   5   6  383.46   11.70
   1   5   6  367.26   11.60
   1   5   6  361.86   11.40
  -2  -5  -6  836.92   23.30
  -2  -5  -6  813.72   24.00
  -2  -5  -6  839.42   23.50
  -2  -5  -6  816.92   23.60
  -2  -5  -6  828.92   23.30
   2   5   6  837.92   24.10
   2   5   6  836.32   24.00
   2   5   6  805.82   25.20
  -3  -5  -6   43.60    2.20
  -3  -5  -6   41.30    1.60
  -3  -5  -6   42.00    1.70
  -3  -5  -6   44.80    1.80
  -3  -5  -6   43.20    1.70
   3   5   6   42.60    2.20
   3   5   6   43.70    2.10
  -4  -5  -6  301.27    9.00
  -4  -5  -6  299.07    8.50
   4   5   6  302.07    9.00
   4   5   6  291.67    9.00
   7  -6  -6   10.90    1.00
   7  -6  -6   10.50    1.00
   7  -6  -6   11.10    0.60
   6  -6  -6  717.23   20.60
   6  -6  -6  719.63   19.90
   6  -6  -6  676.13   20.50
   6  -6  -6  701.73   19.60
   5  -6  -6  747.73   20.90
   5  -6  -6  736.73   21.80
   5  -6  -6  763.32   20.80
   5  -6  -6  767.92   20.80
   5  -6  -6  742.33   21.20
   5  -6  -6  745.93   21.90
  -5   6   6  735.03   22.20
   4  -6  -6   45.60    1.80
   4  -6  -6   46.50    2.10
   4  -6  -6   45.10    1.70
   4  -6  -6   44.80    2.60
   4  -6  -6   46.40    1.70
   4  -6  -6   47.70    2.00
  -4   6   6   44.20    2.50
   3  -6  -6 1580.04   44.20
   3  -6  -6 1572.34   43.70
   3  -6  -6 1567.24   43.60
   3  -6  -6 1606.04   43.60
   3  -6  -6 1589.84   44.00
   3  -6  -6 1575.84   44.40
  -3   6   6 1571.24   44.20
   2  -6  -6  110.99    3.90
   2  -6  -6  111.79    3.60
   2  -6  -6  104.79    4.10
   2  -6  -6  105.79    3.70
   2  -6  -6  107.19    3.50
   2  -6  -6  107.29    3.70
  -2   6   6  106.59    4.00
   1  -6  -6  659.33   19.00
   1  -6  -6  656.33   18.70
   1  -6  -6  654.83   18.80
   1  -6  -6  662.23   18.50
   1  -6  -6  660.83   18.50
   1  -6  -6  652.83   19.20
  -1   6   6  639.04   19.10
  -1   6   6  664.63   19.30
   0  -6  -6  177.88    5.80
   0  -6  -6  171.38    5.80
   0  -6  -6  183.88    5.60
   0  -6  -6  185.08    6.00
   0  -6  -6  180.78    6.20
   0  -6  -6  184.88    5.70
   0   6   6  178.98    6.20
   0   6   6  176.98    6.20
  -1  -6  -6   62.49    2.50
  -1  -6  -6   60.69    2.80
  -1  -6  -6   69.09    2.40
  -1  -6  -6   70.39    2.30
  -1  -6  -6   63.89    2.40
   1   6   6   61.39    2.90
   1   6   6   62.89    3.50
   1   6   6   67.69    2.90
  -2  -6  -6  292.07    8.40
  -2  -6  -6  288.27    8.40
  -2  -6  -6  294.07    9.00
   2   6   6  294.57    9.20
   2   6   6  282.57    9.20
   2   6   6  289.37    9.00
  -3  -6  -6  204.18    6.20
  -3  -6  -6  226.88    6.80
  -3  -6  -6  218.48    6.30
   3   6   6  221.08    6.80
   3   6   6  219.08    6.80
   6  -7  -6  435.06   12.20
   6  -7  -6  439.46   12.80
   6  -7  -6  435.76   12.10
   6  -7  -6  436.46   12.40
   5  -7  -6  344.97    9.50
   5  -7  -6  334.97    9.50
   5  -7  -6  330.77    9.30
   5  -7  -6  329.87    9.70
   5  -7  -6  317.77   10.10
   4  -7  -6  528.65   14.70
   4  -7  -6  520.65   15.50
   4  -7  -6  536.15   15.20
   4  -7  -6  538.85   14.80
   4  -7  -6  528.15   14.80
  -4   7   6  499.05   15.60
   3  -7  -6  266.17    7.70
   3  -7  -6  257.37    7.50
   3  -7  -6  257.07    7.40
   3  -7  -6  255.57    7.90
   3  -7  -6  250.27    7.40
  -3   7   6  241.28    8.10
   2  -7  -6  203.08    6.10
   2  -7  -6  203.88    6.00
   2  -7  -6  200.98    6.50
   2  -7  -6  203.78    6.30
   2  -7  -6  196.68    6.00
  -2   7   6  205.38    6.80
  -2   7   6  197.58    6.70
   1  -7  -6    3.10    0.50
   1  -7  -6    3.60    0.40
   1  -7  -6    2.80    0.50
   1  -7  -6    3.70    0.50
   1  -7  -6    2.70    0.60
  -1   7   6    3.40    0.70
  -1   7   6    4.20    0.80
   0  -7  -6   76.69    3.00
   0  -7  -6   77.49    2.50
   0  -7  -6   75.89    2.70
   0  -7  -6   75.39    2.60
   0  -7  -6   75.79    2.50
   0   7   6   75.19    3.20
   0   7   6   72.99    3.10
   0   7   6   75.39    3.10
  -1  -7  -6  235.38    6.90
  -1  -7  -6  245.18    6.80
  -1  -7  -6  238.98    7.30
  -1  -7  -6  235.88    6.80
   1   7   6  237.08    7.40
   1   7   6  227.98    7.60
   4  -8  -6   42.30    1.40
   4  -8  -6   41.70    1.60
   4  -8  -6   41.00    1.40
   4  -8  -6   40.60    1.40
   3  -8  -6  246.58    7.10
   3  -8  -6  247.28    7.40
   3  -8  -6  256.67    7.10
   3  -8  -6  253.17    7.10
  -3   8   6  237.98    7.90
   2  -8  -6  279.47    7.70
   2  -8  -6  275.57    7.90
   2  -8  -6  276.77    8.10
   2  -8  -6  280.97    7.80
  -2   8   6  247.78    8.40
   1  -8  -6  154.88    4.80
   1  -8  -6  157.98    4.50
   1  -8  -6  156.18    4.50
   1  -8  -6  144.99    4.50
  -1   8   6  153.78    5.10
  -2  10  -7   89.19    6.90
   2 -10   7   95.39    3.70
   2 -10   7   97.39    3.40
   3 -10   7   70.69    2.80
   3 -10   7   73.09    3.00
   4 -10   7   26.10    1.30
   4 -10   7   26.70    1.50
   1   9  -7    2.40    1.00
   1   9  -7    4.30    2.10
  -1  -9   7    2.10    0.50
  -1  -9   7    2.60    0.70
   0   9  -7   37.60    5.10
   0  -9   7   36.20    1.90
   0  -9   7   36.80    2.20
  -1   9  -7   26.40    4.70
  -1   9  -7   27.70    1.30
   1  -9   7   27.90    1.70
   1  -9   7   29.00    2.00
  -2   9  -7   36.90    1.60
  -2   9  -7   27.10    5.00
   2  -9   7   30.10    2.10
   2  -9   7   28.60    1.80
  -3   9  -7  220.78   13.20
  -3   9  -7  241.28    7.10
   3  -9   7  228.48    8.00
   3  -9   7  226.48    7.50
  -4   9  -7   35.40    1.60
   4  -9   7   35.30    1.90
   4  -9   7   36.30    2.20
  -5   9  -7   19.10    1.00
   5  -9   7   17.90    1.60
   5  -9   7   17.20    1.10
   6  -9   7  163.58    5.50
  -3  -8   7  128.09    4.80
  -3  -8   7  164.78    6.30
   2   8  -7  250.57   13.20
  -2  -8   7  255.47    8.60
  -2  -8   7  254.97    8.00
   1   8  -7   15.90    4.00
  -1  -8   7   20.70    1.50
  -1  -8   7   20.40    1.80
  -1  -8   7   17.70    0.90
   0   8  -7  100.19    9.10
   0   8  -7   97.99    3.30
   0  -8   7   98.09    4.00
   0  -8   7   96.49    4.50
   0  -8   7   96.59    3.10
  -1   8  -7   58.09    7.30
  -1   8  -7   57.09    2.50
   1  -8   7   55.49    3.50
   1  -8   7   58.19    2.80
  -2   8  -7   25.90    5.30
  -2   8  -7   30.40    1.70
   2  -8   7   33.30    2.00
   2  -8   7   31.90    2.40
  -3   8  -7   11.00    3.60
  -3   8  -7   12.50    1.10
   3  -8   7   15.80    1.40
   3  -8   7   12.80    1.50
  -4   8  -7   14.70    1.20
  -4   8  -7   13.60    4.40
  -4   8  -7   11.10    2.50
   4  -8   7   12.60    1.50
   4  -8   7   14.10    1.30
  -5   8  -7   30.00    1.60
   5  -8   7   29.00    1.60
   5  -8   7   30.80    2.20
  -6   8  -7   99.09    3.40
   6  -8   7   93.79    4.10
   7  -8   7    3.60    0.50
   7  -8   7    3.90    0.70
  -4  -7   7   34.60    1.60
   3   7  -7  254.27   17.70
  -3  -7   7  276.97    8.60
  -3  -7   7  276.97    7.90
   2   7  -7  189.88   12.40
  -2  -7   7  196.08    7.60
  -2  -7   7  190.28    6.70
  -2  -7   7  208.38    6.90
   1   7  -7  271.67   16.10
  -1  -7   7  283.87    9.10
  -1  -7   7  264.67    9.80
  -1  -7   7  276.77    8.30
   0   7  -7  569.74   27.80
   0   7  -7  602.34   17.30
   0  -7   7  599.74   18.90
   0  -7   7  603.84   17.90
   0  -7   7  606.74   17.10
  -1   7  -7  849.72   35.30
  -1   7  -7  854.01   25.70
   1  -7   7  888.61   25.00
   1  -7   7  879.11   25.30
  -2   7  -7 1614.94   57.69
   2  -7   7 1697.53   46.80
  -3   7  -7  228.78   19.30
  -3   7  -7  226.48    7.30
   3  -7   7  215.88    8.30
   3  -7   7  212.18    6.60
   3  -7   7  221.08    8.30
  -4   7  -7  164.78   12.10
  -4   7  -7  177.28    5.90
   4  -7   7  172.38    6.10
   4  -7   7  170.28    5.10
   4  -7   7  168.68    6.90
  -5   7  -7   16.30    2.30
  -5   7  -7   19.90    1.30
   5  -7   7   14.70    1.70
  -6   7  -7   58.49    2.40
  -6   7  -7   60.09    3.20
   6  -7   7   59.29    3.20
  -7   7  -7   52.99    1.80
  -7   7  -7   52.89    2.60
   7  -7   7   55.59    2.20
   7  -7   7   55.19    2.80
  -5  -6   7   37.10    1.30
  -5  -6   7   34.00    1.60
  -4  -6   7  405.06   12.40
  -4  -6   7  417.26   11.80
   3   6  -7  224.78   13.20
  -3  -6   7  222.08    7.40
  -3  -6   7  217.58    6.90
  -3  -6   7  218.48    6.80
   2   6  -7   65.09    7.50
  -2  -6   7   62.49    2.70
  -2  -6   7   60.69    2.90
  -2  -6   7   63.09    3.00
  -2  -6   7   60.59    2.50
   1   6  -7  267.97   11.00
   1   6  -7  270.37   16.10
  -1  -6   7  272.67    8.30
  -1  -6   7  271.57    8.70
  -1  -6   7  275.07    8.50
  -1  -6   7  260.47    8.80
   0   6  -7  333.17   12.40
   0   6  -7  331.97   18.30
   0   6  -7  342.87   10.10
   0  -6   7  333.17   10.50
   0  -6   7  329.27   10.10
   0  -6   7  332.57   10.40
   0  -6   7  321.67    9.90
   0  -6   7  316.27   12.70
  -1   6  -7  409.86   14.40
  -1   6  -7  426.36   12.40
  -1   6  -7  396.06   20.90
   1  -6   7  405.46   12.50
   1  -6   7  410.66   12.30
   1  -6   7  416.46   12.10
   1  -6   7  419.16   15.20
   1  -6   7  416.16   12.70
  -2   6  -7  885.31   25.20
  -2   6  -7  842.92   35.10
  -2   6  -7  919.71   27.50
   2  -6   7  873.71   24.80
   2  -6   7  888.91   25.00
   2  -6   7  900.31   25.50
   2  -6   7  850.61   28.10
  -3   6  -7 1713.93   46.20
  -3   6  -7 1604.54   56.99
   3  -6   7 1660.63   47.60
   3  -6   7 1645.24   45.70
   3  -6   7 1607.84   49.40
   3  -6   7 1657.33   46.40
  -4   6  -7  364.26   10.90
  -4   6  -7  347.97   12.70
  -4   6  -7  343.27   18.70
   4  -6   7  361.66   11.20
   4  -6   7  352.66   12.30
   4  -6   7  352.16   14.00
   4  -6   7  360.36   10.40
  -5   6  -7  207.98    7.70
  -5   6  -7  203.18    6.60
   5  -6   7  197.68    7.90
   5  -6   7  200.48    6.10
  -6   6  -7   83.69    7.20
  -6   6  -7  108.79    4.20
  -6   6  -7  100.89    5.90
   6  -6   7  106.59    5.10
  -7   6  -7  115.19    7.30
  -7   6  -7  122.39    3.80
  -7   6  -7  122.99    4.70
   7  -6   7  116.39    4.90
   7  -6   7  118.19    4.00
   8  -6   7    9.50    1.00
  -5  -5   7   63.09    2.40
  -5  -5   7   62.49    2.30
  -5  -5   7   62.69    2.70
  -4  -5   7  157.28    5.10
  -4  -5   7  156.28    5.30
  -4  -5   7  157.58    5.60
  -4  -5   7  154.88    5.40
  -3  -5   7  463.55   13.90
  -3  -5   7  500.95   16.30
  -3  -5   7  461.95   14.20
   2   5  -7  588.24   25.60
   2   5  -7  601.54   18.80
   2   5  -7  601.84   19.90
  -2  -5   7  583.44   17.30
  -2  -5   7  561.54   16.80
  -2  -5   7  590.54   17.50
  -2  -5   7  571.64   17.20
   1   5  -7  584.64   26.20
   1   5  -7  621.04   20.10
   1   5  -7  628.84   19.10
  -1  -5   7  624.94   18.20
  -1  -5   7  633.74   18.00
  -1  -5   7  582.04   21.20
  -1  -5   7  609.74   18.00
  -1  -5   7  624.14   20.00
   0   5  -7  283.67   16.10
   0   5  -7  280.07   10.60
   0  -5   7  282.57   11.10
   0  -5   7  276.07    9.00
   0  -5   7  283.87    8.60
   0  -5   7  282.37    8.80
   0  -5   7  292.27    8.90
   0  -5   7  287.17   12.60
  -1   5  -7  420.46   13.60
  -1   5  -7  385.06   19.70
   1  -5   7  332.37   15.60
   1  -5   7  409.86   12.00
   1  -5   7  392.16   14.10
   1  -5   7  401.76   12.00
   1  -5   7  405.26   11.80
  -2   5  -7 1212.58   35.00
  -2   5  -7 1140.29   43.00
   2  -5   7 1177.38   33.40
   2  -5   7 1218.08   33.20
   2  -5   7 1175.98   33.00
   2  -5   7 1181.78   33.40
   2  -5   7 1154.98   35.70
  -3   5  -7  900.01   25.70
  -3   5  -7  904.11   30.50
   3  -5   7  908.51   25.90
   3  -5   7  907.61   25.60
   3  -5   7  887.41   25.80
  -4   5  -7  211.88   13.80
  -4   5  -7  219.48    7.10
  -4   5  -7  229.58    8.30
   4  -5   7  221.88    6.80
   4  -5   7  225.28   15.40
   4  -5   7  210.08    8.50
   4  -5   7  225.58    7.30
   4  -5   7  222.98    7.00
  -5   5  -7 1368.26   39.00
  -5   5  -7 1386.86   40.00
   5  -5   7 1411.96   52.39
   5  -5   7 1354.36   38.90
  -6   5  -7  205.28   11.70
  -6   5  -7  235.08    8.40
  -6   5  -7  238.38    7.10
   6  -5   7  242.08   16.90
   6  -5   7  226.48    8.70
   6  -5   7  227.08    6.80
  -7   5  -7  247.48   11.70
  -7   5  -7  258.07    8.50
   7  -5   7  250.77   17.20
   7  -5   7  251.97    9.00
  -8   5  -7  128.29    6.10
  -8   5  -7  132.39    5.10
   8  -5   7  115.79    4.80
   6   4  -7  105.99    3.80
   6   4  -7  106.39    3.80
  -6  -4   7  102.69    3.80
  -6  -4   7  114.09    4.10
  -6  -4   7  108.99    3.50
   5   4  -7  192.68    6.50
   5   4  -7  181.28    6.10
  -5  -4   7  181.38    6.40
  -5  -4   7  190.98    6.40
  -5  -4   7  190.08    6.20
  -5  -4   7  191.68    6.40
   4   4  -7  348.97   11.40
   4   4  -7  350.16   11.00
  -4  -4   7  364.16   11.10
  -4  -4   7  363.96   10.70
  -4  -4   7  357.86   11.20
  -4  -4   7  352.06   11.00
   3   4  -7   10.50    4.10
   3   4  -7    9.30    2.50
   3   4  -7   16.70    1.50
   3   4  -7   10.00    2.20
   3   4  -7   12.30    2.40
   3   4  -7   15.30    1.70
  -3  -4   7   12.50    1.00
  -3  -4   7   13.40    1.20
  -3  -4   7   15.90    1.20
  -3  -4   7   14.70    1.30
   2   4  -7  447.66   14.30
   2   4  -7  440.66   15.20
   2   4  -7  448.86   20.60
   2   4  -7  454.45   13.40
  -2  -4   7  437.66   16.60
  -2  -4   7  429.56   12.80
  -2  -4   7  461.05   14.70
  -2  -4   7  408.76   14.90
  -2  -4   7  449.56   13.20
  -2  -4   7  426.46   15.20
  -2  -4   7  395.36   15.50
   1   4  -7  699.23   28.80
   1   4  -7  769.22   22.80
   1   4  -7  732.13   21.50
  -1  -4   7  703.33   20.70
  -1  -4   7  709.43   24.70
  -1  -4   7  718.73   22.70
  -1  -4   7  722.73   20.90
  -1  -4   7  708.63   20.80
   0   4  -7  891.81   26.00
   0   4  -7  866.51   33.00
   0  -4   7  876.91   24.40
   0  -4   7  754.52   28.40
   0  -4   7  839.92   26.20
   0  -4   7  867.21   24.30
   0  -4   7  876.01   24.40
  -1   4  -7  137.29   10.50
  -1   4  -7  145.89    7.70
  -1   4  -7  148.39    6.10
   1  -4   7  141.99    5.00
   1  -4   7  145.89    4.90
   1  -4   7  153.28    6.80
   1  -4   7  141.39    5.00
  -2   4  -7  412.56   12.90
  -2   4  -7  372.26   11.80
  -2   4  -7  359.66   18.80
  -2   4  -7  390.36   14.90
   2  -4   7  396.26   11.60
   2  -4   7  395.16   13.80
   2  -4   7  390.56   11.70
   2  -4   7  371.76   11.60
  -3   4  -7 1136.69   42.90
  -3   4  -7 1211.58   34.90
  -3   4  -7 1175.78   34.80
  -3   4  -7 1299.67   37.80
   3  -4   7 1145.09   33.70
   3  -4   7 1251.67   40.50
   3  -4   7 1173.58   33.70
   3  -4   7 1201.18   33.90
  -4   4  -7  434.76   14.10
  -4   4  -7  469.35   13.50
   4  -4   7  437.96   13.30
   4  -4   7  432.46   12.90
   4  -4   7  436.26   13.10
  -5   4  -7  120.89    4.10
  -5   4  -7  120.19    5.20
  -5   4  -7  106.79    8.10
   5  -4   7  121.99   11.80
   5  -4   7  115.49    4.20
   5  -4   7  115.29    5.60
   5  -4   7  117.19    4.00
  -6   4  -7  890.31   26.60
  -6   4  -7  866.71   25.10
  -6   4  -7  866.31   31.30
   6  -4   7  906.71   27.30
   6  -4   7  885.31   25.10
   6  -4   7  958.90   40.70
  -7   4  -7 1459.15   40.30
  -7   4  -7 1416.76   44.00
   7  -4   7 1369.16   54.79
   7  -4   7 1408.96   41.00
  -8   4  -7   53.99    4.70
  -8   4  -7   54.89    2.40
   8  -4   7   44.40    6.80
   8  -4   7   53.99    2.80
   7   3  -7   26.20    1.50
  -7  -3   7   24.80    1.20
  -7  -3   7   28.10    1.20
  -7  -3   7   24.70    1.30
   6   3  -7   53.29    2.50
   6   3  -7   50.39    2.50
   6   3  -7   53.39    2.20
   6   3  -7   56.39    2.50
  -6  -3   7   52.39    2.40
  -6  -3   7   53.29    2.10
   5   3  -7  308.17    9.50
   5   3  -7  297.07    9.60
   5   3  -7  312.07    9.80
   5   3  -7  254.77   11.80
  -5  -3   7  302.97    9.40
  -5  -3   7  303.07    9.00
  -5  -3   7  302.27    9.50
   4   3  -7  834.72   27.90
   4   3  -7  906.41   26.00
   4   3  -7  914.01   26.10
   4   3  -7  928.11   26.20
   4   3  -7  877.61   28.50
  -4  -3   7  883.21   25.30
  -4  -3   7  898.11   25.60
  -4  -3   7  904.61   25.70
   3   3  -7    6.80    1.70
   3   3  -7    6.00    1.70
   3   3  -7    8.10    1.30
   3   3  -7    4.60    1.10
  -3  -3   7    6.80    0.80
  -3  -3   7    5.00    0.70
  -3  -3   7    6.30    0.90
   2   3  -7  654.23   21.00
   2   3  -7  665.33   20.00
   2   3  -7  703.73   27.00
  -2  -3   7  640.74   19.00
  -2  -3   7  629.54   20.60
  -2  -3   7  655.43   22.90
  -2  -3   7  668.13   19.10
   1   3  -7 1363.66   48.40
   1   3  -7 1475.55   41.60
   1   3  -7 1460.15   40.30
  -1  -3   7 1460.75   41.50
  -1  -3   7 1452.95   39.80
  -1  -3   7 1383.36   39.80
  -1  -3   7 1375.06   44.40
   0   3  -7  135.29    5.50
   0   3  -7  116.39    9.30
   0   3  -7  134.79    4.80
   0  -3   7  123.69    4.30
   0  -3   7  122.89    8.60
   0  -3   7  124.49    5.90
  -1   3  -7  309.57   10.20
  -1   3  -7  308.77    9.70
  -1   3  -7  274.97   15.50
  -1   3  -7  316.47   11.80
   1  -3   7  316.87   11.40
   1  -3   7  292.67    9.10
  -2   3  -7  357.56   17.90
  -2   3  -7  361.66   13.10
  -2   3  -7  342.17   11.30
  -2   3  -7  366.16   11.50
   2  -3   7  359.86   13.20
   2  -3   7  347.87   10.60
   2  -3   7  356.06   10.80
  -3   3  -7  667.03   27.40
  -3   3  -7  651.73   19.70
   3  -3   7  671.63   22.00
   3  -3   7  628.54   18.80
   3  -3   7  645.74   19.00
  -4   3  -7  154.88    6.00
  -4   3  -7  147.19    6.30
   4  -3   7  145.59    8.30
   4  -3   7  146.19    5.80
   4  -3   7  154.98    5.40
  -5   3  -7   55.59    3.20
  -5   3  -7   51.49    5.50
  -5   3  -7   54.39    2.20
   5  -3   7   57.19    8.20
   5  -3   7   57.69    2.30
   5  -3   7   56.69    2.80
   5  -3   7   58.49    2.60
  -6   3  -7  467.55   18.80
  -6   3  -7  471.85   15.00
   6  -3   7  470.75   13.70
   6  -3   7  455.75   15.70
   6  -3   7  494.95   27.40
  -7   3  -7  217.48   10.00
  -7   3  -7  216.38    7.50
   7  -3   7  224.58   17.50
   7  -3   7  220.88    8.30
   7  -3   7  212.88    6.40
  -8   3  -7   23.80    1.40
  -8   3  -7   26.30    2.30
   8  -3   7   29.10    3.10
   8  -3   7   20.00    4.70
   7   2  -7    9.10    0.80
   7   2  -7   11.00    1.00
   7   2  -7   10.70    1.40
   6   2  -7   23.40    1.70
   6   2  -7   20.50    1.80
   6   2  -7   16.30    2.00
   6   2  -7   18.90    1.50
  -6  -2   7   23.70    1.30
  -6  -2   7   22.60    1.50
  -6  -2   7   21.00    1.40
   5   2  -7  263.27    8.60
   5   2  -7  262.77    8.60
   5   2  -7  220.68   10.10
   5   2  -7  259.07    8.50
  -5  -2   7  252.47    8.10
  -5  -2   7  243.68    7.70
   4   2  -7  165.58    5.90
   4   2  -7  130.69    7.30
   4   2  -7  168.88    5.90
   4   2  -7  154.68    7.00
   4   2  -7  149.49    5.70
   4   2  -7  152.48    7.50
  -4  -2   7  143.39    5.10
  -4  -2   7  148.29    5.20
   3   2  -7   37.80    2.90
  -3  -2   7   32.50    1.70
  -3  -2   7   30.50    3.80
   2   2  -7 1487.15   42.60
   2   2  -7 1464.75   41.60
  -2  -2   7 1530.95   45.50
  -2  -2   7 1411.06   40.60
  -2  -2   7 1444.26   40.60
  -2  -2   7 1424.36   45.50
   1   2  -7  645.54   18.80
   1   2  -7  677.83   19.90
   1   2  -7  632.64   19.00
  -1  -2   7  608.74   18.30
  -1  -2   7  655.93   20.20
   0   2  -7 4001.50  115.59
   0   2  -7 4453.05  115.29
   0  -2   7 4344.77  117.49
   0  -2   7 4036.20  114.39
   0  -2   7 4049.09  121.89
  -1   2  -7  730.13   28.90
  -1   2  -7  738.63   21.90
  -1   2  -7  764.12   22.10
   1  -2   7  743.53   21.20
   1  -2   7  743.03   24.10
   1  -2   7  758.12   29.00
  -2   2  -7  409.56   13.10
   2  -2   7  416.56   15.30
   2  -2   7  407.76   12.10
   2  -2   7  395.36   12.00
  -3   2  -7  205.58    7.20
  -3   2  -7  216.88    8.00
   3  -2   7  207.68    6.70
   3  -2   7  197.68    6.80
   3  -2   7  208.98   10.10
   3  -2   7  213.48    6.90
  -4   2  -7  399.26   18.40
  -4   2  -7  408.26   12.90
  -4   2  -7  407.36   14.20
   4  -2   7  411.06   12.30
   4  -2   7  395.96   16.40
   4  -2   7  413.86   12.50
   4  -2   7  424.16   23.50
   4  -2   7  399.46   12.80
  -5   2  -7  106.49    4.80
  -5   2  -7  110.89    7.50
   5  -2   7  114.69    4.30
   5  -2   7  111.99    4.40
   5  -2   7  112.59    3.90
   5  -2   7  121.09   12.20
  -6   2  -7   79.39    3.80
  -6   2  -7   79.49    5.90
  -6   2  -7   76.59    3.50
   6  -2   7   80.89    3.00
   6  -2   7   93.49   11.10
   6  -2   7   68.99    3.40
  -7   2  -7    9.60    1.90
  -7   2  -7   12.00    1.30
  -7   2  -7    8.80    0.80
   7  -2   7    9.40    1.80
   7  -2   7    9.70    0.80
   7  -2   7    9.80    4.00
   8  -2   7   38.10    2.40
   8  -2   7   32.30    5.60
   7   1  -7   18.70    1.30
   7   1  -7   20.40    1.50
   7   1  -7   17.80    1.40
  -7  -1   7   20.20    1.30
  -7  -1   7   18.50    1.10
  -7  -1   7   19.80    1.30
   6   1  -7   42.30    2.40
   6   1  -7   39.00    2.30
   6   1  -7   39.30    2.40
  -6  -1   7   36.40    2.00
  -6  -1   7   38.10    1.80
   5   1  -7  261.37    8.70
   5   1  -7  261.57    8.90
   5   1  -7  267.37    8.90
   5   1  -7  256.77   10.60
   5   1  -7  258.27    8.80
   5   1  -7  258.87    8.80
   5   1  -7  244.08   11.10
  -5  -1   7  262.77    8.30
  -5  -1   7  262.47    8.30
  -5  -1   7  241.48    7.90
   4   1  -7   11.20    1.50
   4   1  -7   14.90    1.60
   4   1  -7   14.80    1.70
   4   1  -7   12.00    0.90
   4   1  -7   14.30    1.60
   4   1  -7   17.40    2.60
   4   1  -7   13.70    2.40
  -4  -1   7   13.40    1.20
  -4  -1   7   16.00    1.20
   3   1  -7    1.70    1.20
   3   1  -7    3.90    1.30
  -3  -1   7    2.20    0.50
  -3  -1   7    1.60    0.70
  -3  -1   7    0.30    1.80
   2   1  -7 1888.91   52.09
   2   1  -7 1866.41   52.99
  -2  -1   7 1843.52   55.89
  -2  -1   7 1884.11   52.69
  -2  -1   7 1728.93   50.89
  -2  -1   7 1868.91   56.19
   1   1  -7  520.75   15.30
   1   1  -7  486.45   14.70
   1   1  -7  471.65   14.10
  -1  -1   7  465.45   13.70
  -1  -1   7  466.95   16.10
  -1  -1   7  473.65   19.80
   0   1  -7 1235.48   35.30
   0   1  -7 1274.57   35.50
   0  -1   7 1273.47   44.20
   0  -1   7 1196.48   34.30
   0  -1   7 1208.08   37.50
  -1   1  -7  143.59    5.90
  -1   1  -7  128.89    5.50
  -1   1  -7  143.99    5.00
   1  -1   7  136.39    4.50
   1  -1   7  142.19   11.20
   1  -1   7  137.79    4.50
   1  -1   7  142.69    7.60
  -2   1  -7 1567.34   44.40
  -2   1  -7 1510.05   44.70
   2  -1   7 1520.95   43.20
   2  -1   7 1567.94   43.00
   2  -1   7 1464.35   42.80
   2  -1   7 1617.34   47.50
  -3   1  -7   93.89    5.00
  -3   1  -7   99.69    5.00
  -3   1  -7   98.69    4.00
   3  -1   7   89.19    4.20
   3  -1   7   94.09    3.60
   3  -1   7   95.39    3.70
   3  -1   7   94.09    7.30
   3  -1   7   91.79    4.30
  -4   1  -7  363.56   11.10
  -4   1  -7  358.16   13.20
  -4   1  -7  365.36   13.00
  -4   1  -7  367.66   11.80
  -4   1  -7  355.46   15.20
   4  -1   7  378.16   11.40
   4  -1   7  361.26   12.10
   4  -1   7  385.76   11.00
   4  -1   7  386.46   22.50
  -5   1  -7  114.89    4.90
   5  -1   7  119.09    4.50
   5  -1   7  114.49    6.60
   5  -1   7  114.99    4.50
   5  -1   7  127.09   12.80
  -6   1  -7  167.78    8.50
  -6   1  -7  171.98    6.40
  -6   1  -7  160.28    5.90
   6  -1   7  181.78   15.90
   6  -1   7  170.08    5.60
   6  -1   7  175.28    5.60
  -7   1  -7  386.36   13.50
  -7   1  -7  392.26   11.80
   7  -1   7  370.16   23.50
   8   0  -7  137.99    4.80
   8   0  -7  139.69    4.70
   8   0  -7  138.19    4.80
  -8   0   7  140.39    4.50
  -8   0   7  145.99    4.60
   7   0  -7   29.00    1.90
   7   0  -7   30.10    1.90
   7   0  -7   28.10    1.80
  -7   0   7   30.60    1.40
  -7   0   7   28.90    1.60
   6   0  -7   76.79    3.60
   6   0  -7   83.99    3.80
   6   0  -7   74.59    2.60
   6   0  -7   76.19    3.60
   6   0  -7   79.09    3.50
  -6   0   7   74.79    3.20
  -6   0   7   79.49    3.20
  -6   0   7   72.99    2.90
   5   0  -7   10.00    1.30
   5   0  -7    7.30    1.20
   5   0  -7    5.10    2.20
   5   0  -7   10.40    0.70
   5   0  -7   12.00    2.80
   5   0  -7    9.40    1.30
   5   0  -7    6.60    1.20
  -5   0   7    9.60    1.00
  -5   0   7    8.90    1.00
   4   0  -7   48.60    4.00
   4   0  -7   50.39    3.80
   4   0  -7   44.60    2.80
   4   0  -7   52.49    4.30
  -4   0   7   42.20    6.60
  -4   0   7   46.80    2.20
   3   0  -7  477.55   15.40
   3   0  -7  487.75   16.10
  -3   0   7  454.45   13.70
  -3   0   7  482.25   17.70
   2   0  -7  215.58    7.70
   2   0  -7  220.18    7.50
   2   0  -7  229.98    8.40
  -2   0   7  218.08    8.60
  -2   0   7  204.48   10.30
  -2   0   7  214.68   11.80
   1   0  -7  691.13   21.20
   1   0  -7  709.93   21.00
   1   0  -7  733.73   20.80
   1   0  -7  706.53   20.10
  -1   0   7  717.13   27.70
  -1   0   7  665.63   22.60
  -1   0   7  645.24   19.30
   0   0  -7  986.50   28.90
   0   0  -7 1047.80   29.60
   0   0  -7  998.40   30.10
   0   0   7 1046.70   37.90
   0   0   7 1005.60   28.20
   0   0   7  977.50   28.00
  -1   0  -7   21.20    2.40
  -1   0  -7   21.30    2.10
   1   0   7   18.90    1.70
   1   0   7   21.30    3.50
   1   0   7   20.10    1.10
  -2   0  -7 1105.09   33.00
  -2   0  -7 1100.39   32.30
   2   0   7 1070.89   35.60
   2   0   7 1078.89   30.60
   2   0   7 1071.49   30.60
  -3   0  -7  724.53   21.80
  -3   0  -7  730.23   24.90
  -3   0  -7  760.32   23.60
  -3   0  -7  734.93   22.10
  -3   0  -7  763.02   24.00
   3   0   7  751.02   22.40
   3   0   7  733.63   21.50
   3   0   7  768.52   21.60
   3   0   7  728.03   27.00
  -4   0  -7 2026.60   56.19
  -4   0  -7 1975.90   56.99
  -4   0  -7 2083.99   59.19
  -4   0  -7 2072.29   60.59
  -4   0  -7 1992.70   56.39
  -4   0  -7 1956.60   56.99
  -4   0  -7 1955.00   58.89
   4   0   7 2013.90   57.99
   4   0   7 2113.69   72.89
   4   0   7 2046.40   56.19
   4   0   7 2065.99   56.59
   4   0   7 2030.20   56.69
  -5   0  -7   94.49    4.20
  -5   0  -7   94.69    3.60
  -5   0  -7   89.69    3.40
  -5   0  -7  100.79    4.10
  -5   0  -7   90.29    5.80
   5   0   7   99.79   11.40
   5   0   7  100.29    3.90
   5   0   7   96.39    3.60
   5   0   7   94.89    3.90
  -6   0  -7  290.27    8.50
  -6   0  -7  271.07    9.60
  -6   0  -7  280.37   11.00
   6   0   7  268.67    8.60
   6   0   7  285.57    8.60
   6   0   7  293.97   20.80
  -7   0  -7  107.09    3.90
  -7   0  -7  107.09    4.60
   7   0   7  105.49    3.30
   7   0   7   97.29   12.70
   8  -1  -7  184.78    6.00
   8  -1  -7  181.28    5.80
   8  -1  -7  182.68    6.00
  -8   1   7  176.08    5.60
  -8   1   7  183.88    5.40
   7  -1  -7   89.29    3.80
   7  -1  -7   93.79    3.80
   7  -1  -7   91.69    3.90
   7  -1  -7   90.39    3.90
  -7   1   7   92.19    3.50
  -7   1   7   91.29    3.20
  -7   1   7   92.79    3.70
   6  -1  -7   93.59    4.20
   6  -1  -7   89.69    4.10
   6  -1  -7   90.59    3.00
   6  -1  -7   90.39    4.00
   6  -1  -7   91.09    4.00
  -6   1   7   89.19    3.60
  -6   1   7   85.89    3.50
   5  -1  -7  164.88    6.30
   5  -1  -7  168.28    6.40
   5  -1  -7  169.28    8.40
   5  -1  -7  164.18    6.20
   5  -1  -7  162.08    6.20
   5  -1  -7  162.58    5.00
  -5   1   7  160.18    5.60
   4  -1  -7  759.62   23.20
   4  -1  -7  772.22   25.00
   4  -1  -7  790.52   24.50
   4  -1  -7  790.82   21.70
   4  -1  -7  764.92   25.30
  -4   1   7  789.82   26.00
  -4   1   7  766.42   22.10
   3  -1  -7 1040.90   30.20
   3  -1  -7  984.00   28.70
   3  -1  -7 1001.40   30.70
  -3   1   7 1001.50   32.10
   2  -1  -7   97.29    4.20
   2  -1  -7  103.39    4.90
   2  -1  -7   94.79    4.60
   2  -1  -7   96.79    4.40
  -2   1   7   90.69    6.50
  -2   1   7   96.29    9.60
  -2   1   7   91.19    5.90
   1  -1  -7  638.14   19.50
   1  -1  -7  628.44   20.30
   1  -1  -7  679.13   19.70
  -1   1   7  642.74   18.60
  -1   1   7  625.24   27.30
  -1   1   7  664.83   22.80
   0  -1  -7  810.72   24.40
   0  -1  -7  777.42   23.40
   0   1   7  771.62   22.40
   0   1   7  763.82   26.40
   0   1   7  754.02   21.70
  -1  -1  -7  340.87   12.70
  -1  -1  -7  340.67   11.90
   1   1   7  373.26   15.40
   1   1   7  328.07   10.20
   1   1   7  341.07   11.00
  -2  -1  -7  159.18    5.60
  -2  -1  -7  171.68    8.10
   2   1   7  168.58    5.60
   2   1   7  161.38    6.50
   2   1   7  164.08    5.50
   2   1   7  149.19   10.20
  -3  -1  -7  134.59    5.20
  -3  -1  -7  132.09    4.90
  -3  -1  -7  131.29    6.80
  -3  -1  -7  149.99    5.50
  -3  -1  -7  139.49    7.00
  -3  -1  -7  133.99    4.90
  -3  -1  -7  136.99    7.60
   3   1   7  139.49   12.30
   3   1   7  135.69    5.10
   3   1   7  142.59    5.00
   3   1   7  145.49    5.40
  -4  -1  -7   37.70    5.00
  -4  -1  -7   47.00    2.70
  -4  -1  -7   46.10    2.30
   4   1   7   48.90    2.50
   4   1   7   51.39    2.40
   4   1   7   49.40    2.50
   4   1   7   53.69    8.00
  -5  -1  -7  882.41   25.60
  -5  -1  -7  900.11   25.60
  -5  -1  -7  880.71   26.40
  -5  -1  -7  914.01   28.40
   5   1   7  902.01   26.10
   5   1   7  941.81   42.00
   5   1   7  910.81   25.80
   5   1   7  922.71   26.10
  -6  -1  -7   61.79    3.50
  -6  -1  -7   62.39    2.80
   6   1   7   66.49    2.50
   6   1   7   58.39    8.70
   6   1   7   63.59    2.80
   8  -2  -7    4.50    0.70
   8  -2  -7    3.10    0.60
   8  -2  -7    3.80    0.60
  -8   2   7    4.70    0.60
  -8   2   7    4.00    0.60
   7  -2  -7   25.50    1.80
   7  -2  -7   23.50    1.10
   7  -2  -7   24.80    1.80
   7  -2  -7   23.10    1.70
   7  -2  -7   24.90    1.70
  -7   2   7   22.60    1.40
  -7   2   7   24.60    1.60
   6  -2  -7  136.49    5.40
   6  -2  -7  122.39    5.20
   6  -2  -7  128.19    5.20
   6  -2  -7  137.19    5.30
   6  -2  -7  132.19    4.10
  -6   2   7  134.19    4.80
  -6   2   7  131.09    4.80
   5  -2  -7  178.68    6.60
   5  -2  -7  173.48    8.60
   5  -2  -7  172.38    6.60
   5  -2  -7  173.28    6.50
   5  -2  -7  164.28    6.50
   5  -2  -7  169.68    8.80
   5  -2  -7  173.08    5.30
  -5   2   7  182.78    6.00
   4  -2  -7   14.60    2.50
   4  -2  -7   15.10    2.10
   4  -2  -7   15.90    2.70
   4  -2  -7   15.70    1.10
   4  -2  -7   14.30    1.60
   4  -2  -7   18.40    1.70
   4  -2  -7   22.60    1.90
  -4   2   7   15.20    3.70
   3  -2  -7  318.67   11.90
   3  -2  -7  329.37   11.60
   3  -2  -7  329.17   10.40
  -3   2   7  321.97   12.80
  -3   2   7  313.47   14.20
   2  -2  -7  306.67   11.00
   2  -2  -7  314.27   10.60
   2  -2  -7  316.87   10.20
   2  -2  -7  316.17   11.00
   2  -2  -7  300.77   10.80
  -2   2   7  300.77   12.90
  -2   2   7  299.17   12.90
  -2   2   7  299.37   19.40
   1  -2  -7   77.19    4.70
   1  -2  -7   77.99    4.00
   1  -2  -7   78.59    4.40
  -1   2   7   74.79    6.80
  -1   2   7   81.79    3.90
   0  -2  -7  523.65   17.60
   0  -2  -7  549.85   18.50
   0  -2  -7  528.95   17.10
   0   2   7  538.65   21.00
   0   2   7  540.15   16.50
   0   2   7  534.85   15.40
  -1  -2  -7   14.70    1.30
  -1  -2  -7   21.80    3.20
  -1  -2  -7   20.40    2.60
  -1  -2  -7   14.10    2.30
  -1  -2  -7   17.30    1.50
  -1  -2  -7   15.60    1.60
   1   2   7   18.90    4.50
   1   2   7   17.30    1.20
   1   2   7   16.90    2.20
   1   2   7   17.70    1.30
  -2  -2  -7  863.21   25.10
  -2  -2  -7  849.61   25.60
  -2  -2  -7  918.31   27.70
  -2  -2  -7  881.71   26.30
  -2  -2  -7  879.61   28.90
  -2  -2  -7  838.02   26.00
  -2  -2  -7  892.71   25.20
   2   2   7  866.71   25.20
   2   2   7  905.21   41.00
  -3  -2  -7  930.81   28.20
  -3  -2  -7  985.10   30.90
  -3  -2  -7  952.40   28.30
  -3  -2  -7  956.90   31.90
  -3  -2  -7  954.60   29.50
  -3  -2  -7  975.80   27.80
  -3  -2  -7  981.60   27.80
   3   2   7  983.60   28.10
   3   2   7 1037.00   41.90
   3   2   7  977.90   27.70
   3   2   7 1014.20   28.20
  -4  -2  -7   25.40    2.30
  -4  -2  -7   25.60    1.80
  -4  -2  -7   26.40    1.70
  -4  -2  -7   23.10    1.40
  -4  -2  -7   24.70    1.50
   4   2   7   24.90    1.70
   4   2   7   24.50    5.70
   4   2   7   24.70    1.80
   4   2   7   25.40    1.50
  -5  -2  -7  325.87    9.80
  -5  -2  -7  338.17   11.30
  -5  -2  -7  332.77   10.70
  -5  -2  -7  344.27   10.90
  -5  -2  -7  341.77    9.90
   5   2   7  326.97   21.60
   5   2   7  333.77   10.40
   5   2   7  338.97   10.10
   5   2   7  329.17   10.40
  -6  -2  -7   34.30    1.90
  -6  -2  -7   32.40    1.70
  -6  -2  -7   31.90    1.30
   6   2   7   32.30    1.50
   8  -3  -7   61.69    2.50
   8  -3  -7   63.69    2.50
   8  -3  -7   64.09    2.60
   8  -3  -7   65.49    2.60
   7  -3  -7   95.59    3.90
   7  -3  -7   93.79    3.80
   7  -3  -7   92.89    3.80
   7  -3  -7   90.99    3.00
   7  -3  -7   95.39    3.90
  -7   3   7   92.79    3.50
  -7   3   7   95.69    3.50
   6  -3  -7  265.97    7.70
   6  -3  -7  268.37    9.10
   6  -3  -7  266.67    9.00
   6  -3  -7  261.67    8.90
   6  -3  -7  254.67    8.80
  -6   3   7  261.57    8.40
   5  -3  -7  293.07    9.70
   5  -3  -7  281.27    9.60
   5  -3  -7  278.17    9.60
   5  -3  -7  283.87    8.60
   5  -3  -7  292.67    8.30
   5  -3  -7  286.07    9.70
   4  -3  -7 1372.06   39.80
   4  -3  -7 1479.65   40.00
   4  -3  -7 1424.56   40.00
   4  -3  -7 1384.26   41.80
   4  -3  -7 1352.46   38.80
   4  -3  -7 1361.16   40.20
   4  -3  -7 1423.96   38.50
   4  -3  -7 1345.87   42.20
   4  -3  -7 1405.16   39.80
   3  -3  -7  685.83   19.40
   3  -3  -7  645.44   17.90
   3  -3  -7  597.54   20.00
   3  -3  -7  626.04   20.50
   3  -3  -7  655.73   18.50
   3  -3  -7  651.03   19.50
   3  -3  -7  617.14   18.40
   3  -3  -7  633.34   18.70
   3  -3  -7  638.14   18.00
   3  -3  -7  603.84   20.10
   3  -3  -7  658.53   19.30
   3  -3  -7  666.43   19.40
   3  -3  -7  659.33   18.10
   3  -3  -7  605.54   20.70
   3  -3  -7  654.83   19.20
   2  -3  -7  237.68    7.30
   2  -3  -7  227.18    9.30
   2  -3  -7  242.58    7.70
   2  -3  -7  232.28    9.50
  -2   3   7  224.98   12.50
   1  -3  -7   40.50    1.90
   1  -3  -7   39.40    3.50
   1  -3  -7   38.90    1.70
   1  -3  -7   40.10    2.20
   1  -3  -7   40.40    2.10
   1  -3  -7   41.80    4.00
   1  -3  -7   41.70    3.80
  -1   3   7   36.00    6.00
  -1   3   7   30.30    3.10
   0  -3  -7  647.04   20.80
   0  -3  -7  646.54   21.70
   0  -3  -7  607.14   18.10
   0  -3  -7  585.04   19.60
   0  -3  -7  601.44   18.00
   0   3   7  595.34   19.50
   0   3   7  641.34   17.80
  -1  -3  -7   54.79    2.50
  -1  -3  -7   52.19    2.10
  -1  -3  -7   52.29    2.60
  -1  -3  -7   56.59    4.50
  -1  -3  -7   61.69    2.60
  -1  -3  -7   53.69    2.20
  -1  -3  -7   56.29    2.90
  -1  -3  -7   54.39    5.40
  -1  -3  -7   59.09    4.40
   1   3   7   54.49    2.60
   1   3   7   54.29    2.50
  -2  -3  -7 2308.47   66.99
  -2  -3  -7 2312.07   68.69
  -2  -3  -7 2306.97   63.89
  -2  -3  -7 2248.28   64.19
  -2  -3  -7 2265.87   63.69
  -2  -3  -7 2352.56   64.49
  -2  -3  -7 2146.49   64.19
  -2  -3  -7 2383.56   63.99
   2   3   7 2286.37   63.89
   2   3   7 2355.66   64.29
   2   3   7 2413.06   64.29
  -3  -3  -7  447.66   14.00
  -3  -3  -7  445.96   13.30
  -3  -3  -7  445.36   13.20
  -3  -3  -7  431.36   13.60
  -3  -3  -7  439.86   13.10
   3   3   7  468.85   13.80
   3   3   7  465.75   25.20
   3   3   7  444.06   13.30
   3   3   7  437.96   14.70
  -4  -3  -7  286.37    8.60
  -4  -3  -7  283.27    8.80
  -4  -3  -7  288.77    8.70
  -4  -3  -7  290.27    8.60
  -4  -3  -7  289.57    9.50
   4   3   7  292.27    9.30
   4   3   7  281.07   19.70
   4   3   7  289.47    8.90
   4   3   7  291.27    9.20
  -5  -3  -7   99.09    3.50
  -5  -3  -7   99.09    3.80
  -5  -3  -7   96.89    3.20
   5   3   7   96.89    3.40
   5   3   7   90.19    3.80
   7  -4  -7   31.40    1.90
   7  -4  -7   32.00    1.90
   7  -4  -7   30.20    1.80
   7  -4  -7   30.80    3.00
   7  -4  -7   31.80    1.20
  -7   4   7   31.40    1.80
  -7   4   7   30.80    1.70
   6  -4  -7   41.60    2.50
   6  -4  -7   43.70    1.60
   6  -4  -7   39.50    2.50
   6  -4  -7   51.59    2.80
   6  -4  -7   43.40    2.40
  -6   4   7   42.00    3.60
   5  -4  -7  158.78    5.90
   5  -4  -7  152.28    5.80
   5  -4  -7  148.49    4.70
   5  -4  -7  152.48    5.70
   5  -4  -7  153.38    5.00
   3  -4  -7   91.19    3.00
   3  -4  -7   91.69    3.10
   3  -4  -7   88.89    3.40
   3  -4  -7   96.79    3.50
   3  -4  -7   90.79    3.10
   3  -4  -7   77.59    7.10
   3  -4  -7   88.29    4.00
   2  -4  -7 2021.90   55.09
   2  -4  -7 2022.40   55.39
   2  -4  -7 1998.60   56.69
   2  -4  -7 2065.89   55.89
   2  -4  -7 1860.61   58.39
   2  -4  -7 1967.10   58.59
   2  -4  -7 2021.20   55.19
   2  -4  -7 2048.90   55.79
   2  -4  -7 2025.70   55.69
   1  -4  -7  113.49    4.30
   1  -4  -7  109.09    4.10
   1  -4  -7  109.79    3.60
   1  -4  -7  112.69    6.50
   1  -4  -7  106.99    3.80
   1  -4  -7  107.89    4.00
   1  -4  -7  103.49    6.90
   1  -4  -7   91.99    5.50
  -1   4   7  111.09    4.00
   0  -4  -7   46.20    2.40
   0  -4  -7   45.50    5.70
   0  -4  -7   48.70    2.00
   0  -4  -7   48.00    2.30
   0  -4  -7   48.10    2.50
   0  -4  -7   45.80    2.10
   0  -4  -7   44.60    4.50
   0  -4  -7   43.20    5.40
   0   4   7   50.49    2.30
   0   4   7   47.60    2.50
  -1  -4  -7  261.27    8.50
  -1  -4  -7  261.57    8.10
  -1  -4  -7  263.07    8.30
  -1  -4  -7  253.27    8.50
  -1  -4  -7  260.27    7.90
   1   4   7  271.17    8.50
   1   4   7  251.87    8.40
  -2  -4  -7  646.34   19.30
  -2  -4  -7  662.03   18.90
  -2  -4  -7  666.33   19.30
  -2  -4  -7  650.13   18.70
   2   4   7  684.63   19.40
   2   4   7  640.34   19.40
   2   4   7  650.43   19.10
  -3  -4  -7   31.40    1.50
  -3  -4  -7   29.80    1.80
  -3  -4  -7   29.70    1.40
  -3  -4  -7   29.30    1.50
  -3  -4  -7   32.10    1.50
  -3  -4  -7   28.40    1.60
   3   4   7   32.20    1.90
   3   4   7   31.20    1.70
   3   4   7   32.60    1.90
  -4  -4  -7   54.89    2.10
  -4  -4  -7   53.09    1.90
  -4  -4  -7   57.49    2.00
   4   4   7   55.59    2.40
   4   4   7   58.39    2.40
   4   4   7   53.09    2.50
   7  -5  -7   46.10    1.50
   7  -5  -7   44.00    2.10
   7  -5  -7   45.20    2.20
   6  -5  -7    8.20    1.00
   6  -5  -7    8.50    0.60
   6  -5  -7    7.70    0.70
   6  -5  -7    8.10    1.10
   5  -5  -7   78.89    3.50
   5  -5  -7   73.89    2.70
   5  -5  -7   75.79    3.70
   5  -5  -7   74.59    2.40
   5  -5  -7   68.59    3.30
   4  -5  -7  190.38    7.00
   4  -5  -7  199.58    6.10
   4  -5  -7  191.68    6.20
   4  -5  -7  197.98    5.80
   4  -5  -7  196.58    5.70
   4  -5  -7  184.18    6.80
   4  -5  -7  193.58    5.80
   3  -5  -7  245.38    7.10
   3  -5  -7  237.28    7.60
   3  -5  -7  244.78    7.50
   3  -5  -7  236.68    7.10
   3  -5  -7  233.88    8.00
   3  -5  -7  244.38    7.20
   2  -5  -7 1725.33   47.40
   2  -5  -7 1720.23   47.40
   2  -5  -7 1732.83   47.80
   2  -5  -7 1720.33   47.60
   2  -5  -7 1711.83   48.10
   2  -5  -7 1718.03   48.00
  -2   5   7 1718.83   47.80
   1  -5  -7  172.68    5.60
   1  -5  -7  173.18    5.90
   1  -5  -7  167.78    5.30
   1  -5  -7  175.28    5.90
   1  -5  -7  168.58    5.70
   1  -5  -7  175.78    5.40
  -1   5   7  171.68    5.80
   0  -5  -7 2387.56   66.99
   0  -5  -7 2388.46   66.59
   0  -5  -7 2449.05   66.39
   0  -5  -7 2365.16   66.99
   0  -5  -7 2395.96   66.69
   0   5   7 2490.55   67.19
   0   5   7 2416.66   66.99
  -1  -5  -7  355.56   10.80
  -1  -5  -7  362.66   10.50
  -1  -5  -7  366.26   11.20
  -1  -5  -7  363.56   11.00
  -1  -5  -7  366.46   10.70
   1   5   7  333.67   10.90
   1   5   7  359.46   11.30
   1   5   7  369.26   11.20
  -2  -5  -7  605.34   17.30
  -2  -5  -7  588.74   17.60
  -2  -5  -7  595.74   17.00
  -2  -5  -7  614.04   17.30
  -2  -5  -7  603.84   17.10
   2   5   7  615.04   17.80
   2   5   7  579.94   17.50
   2   5   7  611.44   17.80
  -3  -5  -7   19.20    1.50
  -3  -5  -7   19.20    1.00
  -3  -5  -7   20.60    1.00
  -3  -5  -7   20.60    0.90
   3   5   7   20.20    1.40
   3   5   7   20.60    1.20
   3   5   7   19.10    1.30
   6  -6  -7   69.29    2.30
   6  -6  -7   67.29    2.80
   6  -6  -7   66.99    2.20
   6  -6  -7   65.69    2.70
   5  -6  -7   53.69    2.60
   5  -6  -7   57.99    2.00
   5  -6  -7   55.59    1.90
   5  -6  -7   58.19    2.20
   4  -6  -7   96.79    3.20
   4  -6  -7   92.19    3.00
   4  -6  -7   93.49    2.90
   4  -6  -7   90.59    3.70
   4  -6  -7   89.89    3.00
   4  -6  -7   92.69    3.30
   3  -6  -7   16.90    0.90
   3  -6  -7   16.60    0.90
   3  -6  -7   15.80    0.80
   3  -6  -7   15.50    1.10
   3  -6  -7   16.90    1.10
   2  -6  -7   15.90    0.90
   2  -6  -7   16.50    1.10
  -2   6   7   17.50    1.50
   1  -6  -7   58.29    2.10
   1  -6  -7   60.59    2.40
   1  -6  -7   59.99    2.60
   1  -6  -7   60.39    2.40
   1  -6  -7   70.49    2.90
   1  -6  -7   62.29    2.30
  -1   6   7   55.69    2.60
  -1   6   7   61.49    2.80
   0  -6  -7    5.10    0.60
   0  -6  -7    6.50    0.60
   0  -6  -7    5.30    0.80
   0  -6  -7    4.50    0.70
   0  -6  -7    4.60    0.70
   0   6   7    5.90    1.00
  -1  -6  -7   75.09    2.70
  -1  -6  -7   72.69    2.50
  -1  -6  -7   72.29    2.90
  -1  -6  -7   73.19    2.50
   1   6   7   70.89    3.00
   1   6   7   72.49    3.00
   1   6   7   71.09    2.90
  -2  -6  -7   57.19    2.00
  -2  -6  -7   60.29    2.00
  -2  -6  -7   60.29    2.00
  -2  -6  -7   60.09    2.30
   2   6   7   56.49    2.50
   2   6   7   60.09    2.40
   2   6   7   61.09    2.50
   5  -7  -7   33.10    1.10
   5  -7  -7   31.80    1.10
   5  -7  -7   32.50    1.30
   4  -7  -7    6.20    0.50
   4  -7  -7    6.50    0.50
   4  -7  -7    6.10    0.40
   4  -7  -7    6.00    0.60
   3  -7  -7  393.76   11.50
   3  -7  -7  397.26   11.10
   3  -7  -7  408.86   11.40
   3  -7  -7  401.26   11.30
   3  -7  -7  378.56   11.10
   2  -7  -7  207.68    5.90
   2  -7  -7  206.18    5.80
   2  -7  -7  201.98    6.20
   2  -7  -7  208.08    6.10
   2  -7  -7  201.88    5.80
  -2   7   7  185.68    6.50
  -2   7   7  180.68    6.40
   1  -7  -7   48.80    1.70
   1  -7  -7   47.30    1.90
   1  -7  -7   48.00    1.70
  -1   7   7   42.10    2.20
  -1   7   7   42.80    2.20
   0  -7  -7  154.58    4.60
   0  -7  -7  160.78    4.70
   0  -7  -7  158.88    4.80
   0  -7  -7  157.78    5.00
   0   7   7  148.49    5.20
   1   9  -8    1.40    0.50
   1   9  -8    0.90    1.70
  -1  -9   8   -0.10    0.40
  -1  -9   8    0.60    0.30
   0   9  -8   65.09    3.40
   0  -9   8   68.09    3.10
   0  -9   8   71.59    3.00
  -1   9  -8   67.89    6.80
   1  -9   8   68.19    2.80
   1  -9   8   64.89    3.20
  -2   9  -8   47.70    6.00
   2  -9   8   53.59    3.70
   2  -9   8   55.49    2.50
  -3   9  -8   94.39    7.90
   3  -9   8   97.09    3.70
  -4   9  -8    5.70    2.60
  -4   9  -8    1.10    1.40
   4  -9   8    3.10    0.60
   4  -9   8    3.50    0.80
   5  -9   8  172.98    5.30
   5  -9   8  171.88    6.00
   2   8  -8  151.48    9.20
  -2  -8   8  145.29    5.50
  -2  -8   8  153.48    5.30
   1   8  -8  307.67   16.00
  -1  -8   8  320.57   10.60
  -1  -8   8  317.57    9.90
   0  -8   8   47.60    1.80
   0  -8   8   53.29    3.20
   0  -8   8   53.79    3.20
  -1   8  -8  211.48    7.00
  -1   8  -8  206.28   13.80
   1  -8   8  206.68    6.20
   1  -8   8  208.28    7.10
   1  -8   8  208.78    7.80
  -2   8  -8    2.50    2.50
  -2   8  -8    3.10    0.50
  -2   8  -8    1.10    1.30
   2  -8   8    4.70    1.10
   2  -8   8    2.30    0.40
   2  -8   8    2.20    0.60
  -3   8  -8    2.10    0.50
  -3   8  -8    2.00    1.30
  -3   8  -8    2.20    2.40
   3  -8   8    1.90    0.70
   3  -8   8    1.30    0.50
  -4   8  -8   23.10    4.70
  -4   8  -8   25.60    1.30
   4  -8   8   25.70    1.60
   4  -8   8   25.10    2.00
  -5   8  -8   16.10    0.90
   5  -8   8   18.40    1.60
   5  -8   8   18.90    1.20
  -6   8  -8   39.20    4.10
   6  -8   8   34.70    2.10
   3   7  -8  853.21   29.20
  -3  -7   8  809.02   23.50
  -3  -7   8  844.92   23.90
   2   7  -8   76.59    7.70
  -2  -7   8   77.99    2.70
  -2  -7   8   76.59    3.90
   1   7  -8  475.55   22.90
  -1  -7   8  492.75   14.00
  -1  -7   8  483.65   14.70
   0   7  -8 1652.23   58.99
   0  -7   8 1698.43   48.20
   0  -7   8 1807.22   48.00
   0  -7   8 1685.73   47.40
  -1   7  -8  509.55   24.90
   1  -7   8  500.65   16.40
   1  -7   8  512.55   15.40
   1  -7   8  506.25   14.60
  -2   7  -8  303.87    9.10
  -2   7  -8  298.27   17.90
   2  -7   8  304.47    9.00
   2  -7   8  304.27    9.80
  -3   7  -8  756.22   32.40
  -3   7  -8  796.62   22.20
   3  -7   8  763.52   23.80
   3  -7   8  788.72   22.80
   3  -7   8  791.52   21.90
  -4   7  -8   65.29    7.40
  -4   7  -8   65.89    2.50
   4  -7   8   62.99    2.20
   4  -7   8   60.59    3.50
   4  -7   8   63.09    2.90
  -5   7  -8   67.59    2.50
   5  -7   8   67.39    3.60
  -6   7  -8   11.70    3.00
   6  -7   8    9.80    1.20
  -7   7  -8   88.49    5.30
   7  -7   8   89.39    2.90
   7  -7   8   87.39    3.60
  -4  -6   8  100.49    3.30
  -4  -6   8  101.59    3.80
   3   6  -8  214.98   12.60
  -3  -6   8  230.78    7.30
  -3  -6   8  217.08    6.70
  -3  -6   8  212.18    7.40
  -3  -6   8  222.68    7.40
   2   6  -8   50.09    6.70
  -2  -6   8   41.70    1.90
  -2  -6   8   41.70    2.30
  -2  -6   8   42.40    2.30
  -2  -6   8   44.20    2.10
  -1  -6   8  553.24   18.00
  -1  -6   8  565.04   16.80
  -1  -6   8  571.44   16.30
   0   6  -8 1198.18   36.40
   0   6  -8 1209.48   45.00
   0  -6   8 1197.38   33.80
   0  -6   8 1212.88   34.00
   0  -6   8 1145.49   36.50
   0  -6   8 1192.58   33.30
   0  -6   8 1168.48   33.60
  -1   6  -8 2460.25   72.19
  -1   6  -8 2439.76   80.49
   1  -6   8 2525.25   68.49
   1  -6   8 2355.26   74.99
   1  -6   8 2519.25   68.29
   1  -6   8 2459.45   67.79
   1  -6   8 2440.56   67.99
  -2   6  -8  520.25   19.10
  -2   6  -8  529.85   15.10
  -2   6  -8  498.05   24.90
   2  -6   8  521.85   15.10
   2  -6   8  503.75   18.50
   2  -6   8  527.05   15.60
   2  -6   8  519.85   15.70
   2  -6   8  541.65   15.30
  -3   6  -8  426.06   12.30
  -3   6  -8  431.46   14.90
  -3   6  -8  415.16   21.70
   3  -6   8  399.36   14.00
   3  -6   8  416.96   12.40
   3  -6   8  422.96   12.90
   3  -6   8  400.36   16.00
   3  -6   8  428.46   12.30
  -4   6  -8  108.89    3.70
  -4   6  -8   98.89    9.40
   4  -6   8  102.99    3.50
   4  -6   8  106.49   10.00
   4  -6   8  102.89    4.10
   4  -6   8  102.19    5.10
  -5   6  -8   53.29    2.10
   5  -6   8   52.39    2.00
   5  -6   8   60.39    7.50
   5  -6   8   50.59    3.30
  -6   6  -8   65.19    3.20
  -6   6  -8   58.59    5.40
   6  -6   8   66.99    3.50
  -7   6  -8   93.99    5.70
   7  -6   8   93.29    4.00
  -5  -5   8    5.60    0.70
  -5  -5   8    4.80    0.70
  -4  -5   8  642.44   19.40
  -4  -5   8  655.13   18.60
  -4  -5   8  670.53   19.00
  -4  -5   8  646.04   19.20
   3   5  -8  384.86   18.60
  -3  -5   8  372.36   11.30
  -3  -5   8  391.26   11.80
  -3  -5   8  382.36   11.60
  -3  -5   8  377.06   11.90
   2   5  -8   80.39    6.80
   2   5  -8   83.99    8.60
  -2  -5   8   79.29    3.40
  -2  -5   8   90.29    3.60
  -2  -5   8   81.99    3.60
   1   5  -8  625.84   20.50
   1   5  -8  620.94   27.40
  -1  -5   8  579.44   20.00
  -1  -5   8  598.74   18.00
  -1  -5   8  645.74   18.00
  -1  -5   8  593.74   17.50
  -1  -5   8  606.24   18.10
   0   5  -8  343.97   19.10
   0   5  -8  371.76   13.20
   0  -5   8  356.76   13.40
   0  -5   8  363.46   11.20
   0  -5   8  365.46   11.10
   0  -5   8  362.76   10.80
  -1   5  -8 1068.79   41.40
  -1   5  -8 1078.19   31.40
  -1   5  -8 1126.19   32.90
   1  -5   8 1100.99   30.50
   1  -5   8 1151.18   30.90
   1  -5   8 1132.49   31.00
   1  -5   8  926.21   38.30
   1  -5   8 1088.59   31.10
  -2   5  -8  188.98    7.80
  -2   5  -8  189.98    8.20
  -2   5  -8  171.88    6.50
  -2   5  -8  175.88   13.00
   2  -5   8  186.18    6.40
   2  -5   8  183.58    5.90
   2  -5   8  184.78    6.30
   2  -5   8  185.08    6.10
  -3   5  -8 2021.10   55.79
  -3   5  -8 2023.20   57.89
  -3   5  -8 1943.71   67.49
   3  -5   8 2019.90   55.89
   3  -5   8 2076.99   56.19
   3  -5   8 2006.60   56.39
   3  -5   8 2046.90   56.29
  -4   5  -8   28.30    1.50
  -4   5  -8   30.80    5.70
   4  -5   8   25.50    1.60
   4  -5   8   28.80    1.50
   4  -5   8   27.00    5.40
  -5   5  -8   65.29    2.40
  -5   5  -8   64.89    3.40
   5  -5   8   70.49    4.00
   5  -5   8   68.99    8.50
   5  -5   8   64.19    2.50
  -6   5  -8   46.30    5.00
  -6   5  -8   48.00    2.70
   6  -5   8   48.20    3.10
   6  -5   8   49.30    1.80
   6  -5   8   49.20    8.60
  -7   5  -8  169.88    5.70
  -7   5  -8  170.68    8.30
   7  -5   8  160.08   12.70
   7  -5   8  170.68    6.40
   6   4  -8   46.40    2.50
   6   4  -8   43.80    2.00
  -6  -4   8   47.50    1.80
  -6  -4   8   45.30    2.00
  -6  -4   8   48.60    1.90
   5   4  -8   19.50    1.30
   5   4  -8   14.60    2.00
   5   4  -8   19.80    1.50
  -5  -4   8   18.20    1.40
  -5  -4   8   19.90    1.10
  -5  -4   8   21.10    1.40
  -5  -4   8   20.10    1.30
   4   4  -8  488.55   15.00
   4   4  -8  486.95   14.60
   4   4  -8  473.25   14.60
  -4  -4   8  486.05   14.20
  -4  -4   8  495.25   14.60
  -4  -4   8  494.85   14.70
  -4  -4   8  485.45   14.80
   3   4  -8   45.30    2.70
   3   4  -8   47.50    7.40
   3   4  -8   45.50    2.50
  -3  -4   8   46.70    2.20
  -3  -4   8   47.50    2.40
  -3  -4   8   47.70    2.40
  -3  -4   8   46.70    2.50
   2   4  -8   93.29    5.60
   2   4  -8   93.89    4.30
   2   4  -8   90.99    4.00
   2   4  -8   89.69    8.70
   2   4  -8   91.29    3.80
  -2  -4   8   88.59    3.40
  -2  -4   8   97.59    3.80
  -2  -4   8   96.99    3.70
  -2  -4   8   91.19    3.80
   1   4  -8  192.68   13.30
   1   4  -8  198.18    7.40
   1   4  -8  199.98    8.40
  -1  -4   8  202.38    6.50
  -1  -4   8  183.48   10.50
  -1  -4   8  189.48    8.50
  -1  -4   8  190.88    6.50
   0   4  -8   65.89    7.50
   0   4  -8   72.39    4.20
   0  -4   8   64.69    2.80
   0  -4   8   58.99    4.50
   0  -4   8   62.69    6.80
   0  -4   8   66.49    2.80
   0  -4   8   63.69    2.80
  -1   4  -8  998.80   29.40
  -1   4  -8  943.71   37.50
   1  -4   8  979.40   30.30
   1  -4   8  966.50   27.80
   1  -4   8  986.10   27.90
   1  -4   8  990.50   27.80
  -2   4  -8 1369.16   42.10
  -2   4  -8 1352.26   39.50
  -2   4  -8 1304.87   38.60
  -2   4  -8 1333.47   48.80
   2  -4   8 1349.56   38.20
   2  -4   8 1415.86   38.30
   2  -4   8 1391.26   41.10
   2  -4   8 1385.26   38.40
   2  -4   8 1348.97   37.90
  -3   4  -8  629.74   27.90
  -3   4  -8  627.64   19.30
   3  -4   8  646.14   18.70
   3  -4   8  644.44   18.50
   3  -4   8  621.84   18.20
   4  -4   8   57.29    2.60
   4  -4   8   57.59    2.80
   4  -4   8   56.79    2.30
  -5   4  -8 1286.17   36.80
  -5   4  -8 1201.58   42.10
   5  -4   8 1335.27   51.19
   5  -4   8 1309.77   35.80
   5  -4   8 1274.87   36.00
  -6   4  -8  385.96   13.20
   6  -4   8  382.76   13.30
   6  -4   8  409.16   23.40
  -7   4  -8   46.20    2.20
  -7   4  -8   58.79    6.20
   7  -4   8   47.40    7.20
   7  -4   8   47.10    2.90
   6   3  -8   16.30    1.20
   6   3  -8   16.80    1.40
   6   3  -8   16.40    1.30
  -6  -3   8   17.90    1.00
  -6  -3   8   17.40    1.20
  -6  -3   8   18.20    1.30
  -6  -3   8   17.30    1.10
   5   3  -8  195.88    6.70
   5   3  -8  197.58    7.40
   5   3  -8  207.68    7.20
  -5  -3   8  205.08    6.80
  -5  -3   8  198.08    6.40
   4   3  -8   64.09    3.10
   4   3  -8   70.09    3.30
   4   3  -8   71.19    3.50
  -4  -3   8   64.49    2.60
  -4  -3   8   70.29    3.00
   3   3  -8  201.18    6.90
   3   3  -8  193.88    7.00
   3   3  -8  191.98    8.20
   3   3  -8  191.68    8.80
   3   3  -8  198.18    7.20
  -3  -3   8  199.98    6.60
  -3  -3   8  198.78    6.60
  -3  -3   8  184.18    6.20
   2   3  -8   16.10    1.70
   2   3  -8   17.00    1.70
   2   3  -8   17.90    1.50
   2   3  -8   15.70    4.30
   2   3  -8   11.10    2.00
  -2  -3   8   15.30    1.20
   1   3  -8   16.40    2.20
   1   3  -8   17.00    4.60
  -1  -3   8   15.50    1.10
  -1  -3   8   15.90    3.80
  -1  -3   8   11.70    1.10
  -1  -3   8   15.70    1.20
  -1  -3   8   17.70    2.80
   0   3  -8  163.48   11.70
   0   3  -8  179.38    6.30
   0   3  -8  182.78    7.20
   0  -3   8  179.78    5.80
   0  -3   8  168.58    7.70
   0  -3   8  169.88    5.80
   0  -3   8  169.58    5.70
  -1   3  -8  826.12   33.70
  -1   3  -8  870.21   26.00
  -1   3  -8  875.31   25.40
   1  -3   8  878.61   24.80
   1  -3   8  880.01   24.70
   1  -3   8  880.01   27.50
  -2   3  -8  547.45   17.10
  -2   3  -8  551.64   25.00
   2  -3   8  573.94   16.40
   2  -3   8  547.55   16.20
  -3   3  -8  134.79    5.20
  -3   3  -8  131.49    5.80
   3  -3   8  146.29    5.60
   3  -3   8  130.29    4.50
   3  -3   8  140.39    5.00
  -4   3  -8 1464.35   40.40
  -4   3  -8 1314.87   45.40
  -4   3  -8 1419.56   42.30
   4  -3   8 1437.06   40.10
   4  -3   8 1470.65   40.00
   4  -3   8 1408.76   39.60
  -5   3  -8  453.25   15.00
  -5   3  -8  444.26   18.90
   5  -3   8  464.55   13.70
   5  -3   8  459.25   14.20
   5  -3   8  505.95   31.40
   5  -3   8  490.15   14.90
  -6   3  -8  334.77   10.80
   6  -3   8  330.87   10.00
   6  -3   8  347.67   21.90
  -7   3  -8   21.40    2.50
  -7   3  -8   19.70    1.10
  -7   3  -8   20.80    1.30
  -7   3  -8   19.90    1.90
   7  -3   8   22.40    2.10
   7  -3   8   20.20    4.80
   7  -3   8   20.50    1.00
   7   2  -8   44.00    2.00
   7   2  -8   40.60    1.80
   7   2  -8   38.50    1.60
  -7  -2   8   40.80    1.80
  -7  -2   8   42.00    1.60
  -7  -2   8   42.40    1.90
   6   2  -8  188.08    6.40
   6   2  -8  175.68    6.10
   6   2  -8  181.98    6.50
  -6  -2   8  183.58    6.10
  -6  -2   8  187.58    5.80
  -6  -2   8  183.98    6.10
   5   2  -8  173.08    6.30
   5   2  -8  171.28    6.30
   5   2  -8  168.88    6.20
   5   2  -8  182.48    6.50
  -5  -2   8  161.48    5.50
  -5  -2   8  172.88    5.90
  -5  -2   8  169.08    5.90
   4   2  -8  590.74   19.40
   4   2  -8  588.74   17.60
   4   2  -8  553.14   19.70
   4   2  -8  565.24   17.30
   4   2  -8  566.44   17.40
  -4  -2   8  539.55   16.40
  -4  -2   8  561.94   16.80
  -4  -2   8  594.04   16.90
   3   2  -8   52.69    4.10
   3   2  -8   48.90    2.70
   3   2  -8   47.00    2.90
   3   2  -8   53.29    2.90
  -3  -2   8   48.60    2.50
   2   2  -8 1758.32   52.49
   2   2  -8 1947.11   59.79
   2   2  -8 1846.02   52.69
  -2  -2   8 1688.03   50.39
  -2  -2   8 1818.22   52.19
  -2  -2   8 1808.22   55.89
  -2  -2   8 1843.22   50.39
   1   2  -8  147.49   10.70
   1   2  -8  145.99    5.50
   1   2  -8  152.18    6.30
  -1  -2   8  139.29    4.90
  -1  -2   8  142.69    4.90
  -1  -2   8  143.69    4.70
  -1  -2   8  120.39    8.40
  -1  -2   8  139.89    6.70
   0   2  -8  578.74   25.10
   0   2  -8  599.84   17.90
   0   2  -8  592.74   18.30
   0  -2   8  578.64   19.70
   0  -2   8  594.74   16.90
   0  -2   8  575.04   16.90
  -1   2  -8  106.79    9.20
  -1   2  -8  103.09    4.60
  -1   2  -8  101.89    4.60
   1  -2   8  101.89    3.70
   1  -2   8  102.29    6.40
   1  -2   8  104.39    3.80
  -2   2  -8   69.69    3.80
   2  -2   8   66.39    2.80
   2  -2   8   68.29    2.90
   2  -2   8   72.79    5.90
  -3   2  -8 1244.48   34.40
  -3   2  -8 1179.78   35.40
   3  -2   8 1169.78   33.50
   3  -2   8 1205.38   34.10
  -4   2  -8  569.94   19.10
  -4   2  -8  563.94   21.90
  -4   2  -8  558.94   17.60
   4  -2   8  604.34   30.20
   4  -2   8  609.14   17.60
   4  -2   8  608.74   17.00
   4  -2   8  598.04   17.40
  -5   2  -8   32.70    2.30
  -5   2  -8   39.90    4.20
   5  -2   8   33.70    6.50
   5  -2   8   36.80    2.00
   5  -2   8   36.00    2.10
  -6   2  -8  108.59    6.60
  -6   2  -8  109.49    3.90
  -6   2  -8  103.29    5.80
  -6   2  -8  108.09    4.20
   6  -2   8  115.99    4.40
   6  -2   8  113.69   12.00
   6  -2   8  105.09    3.90
  -7   2  -8   87.39    3.50
  -7   2  -8   89.09    2.90
   7  -2   8   85.49    2.80
   7  -2   8   86.59   10.00
   7   1  -8   17.70    1.30
   7   1  -8   16.90    1.10
   7   1  -8   16.80    1.40
  -7  -1   8   17.40    1.00
  -7  -1   8   19.70    1.20
  -7  -1   8   19.30    1.20
   6   1  -8  136.59    5.20
   6   1  -8  132.69    5.10
   6   1  -8  135.59    5.50
  -6  -1   8  130.09    4.70
  -6  -1   8  137.79    4.80
  -6  -1   8  131.29    4.40
   5   1  -8   73.89    3.50
   5   1  -8   80.59    3.50
   5   1  -8   68.29    3.50
   5   1  -8   75.49    3.60
  -5  -1   8   69.99    2.80
  -5  -1   8   70.99    3.00
   4   1  -8  272.37    8.80
   4   1  -8  255.07    8.90
   4   1  -8  267.07    9.10
   4   1  -8  268.17    9.00
   4   1  -8  259.47    9.00
   4   1  -8  261.77   11.10
   4   1  -8  260.67   10.40
  -4  -1   8  249.38    8.20
  -4  -1   8  262.27    8.30
   3   1  -8  154.98    5.90
   3   1  -8  157.08    5.90
   3   1  -8  149.19    7.20
   3   1  -8  152.98    6.70
   3   1  -8  144.59    5.80
   3   1  -8  151.68    5.80
   3   1  -8  145.69    5.60
  -3  -1   8  143.09    5.00
   2   1  -8  955.30   28.20
  -2  -1   8  907.21   31.30
  -2  -1   8  882.91   25.80
  -2  -1   8  926.61   27.90
   1   1  -8   80.29    4.20
   1   1  -8   75.89    3.60
  -1  -1   8   76.29    5.10
   0   1  -8 1717.73   47.40
   0   1  -8 1567.14   47.00
   0  -1   8 1694.63   49.99
  -1   1  -8  166.98    6.80
  -1   1  -8  149.88    6.30
   1  -1   8  152.68    8.60
   1  -1   8  155.78    5.20
   1  -1   8  158.38    5.40
  -2   1  -8    5.00    1.50
   2  -1   8    3.30    3.10
   2  -1   8    3.60    0.70
   2  -1   8    3.70    0.70
  -3   1  -8 2067.79   58.69
  -3   1  -8 2209.58   59.09
  -3   1  -8 2096.29   58.79
  -3   1  -8 2088.29   60.59
  -3   1  -8 2166.08   60.89
  -3   1  -8 2040.50   63.09
   3  -1   8 2011.00   58.29
   3  -1   8 2162.28   58.69
   3  -1   8 2144.29   59.49
  -4   1  -8  132.19    5.20
  -4   1  -8  128.49    4.70
  -4   1  -8  138.69    8.00
  -4   1  -8  119.89    7.70
   4  -1   8  143.29    5.20
   4  -1   8  135.29    4.60
   4  -1   8  143.69   13.20
   4  -1   8  143.99    5.10
  -5   1  -8  736.33   22.10
  -5   1  -8  736.73   21.60
  -5   1  -8  719.83   22.10
  -5   1  -8  736.93   25.40
   5  -1   8  755.12   21.90
   5  -1   8  800.72   36.70
   5  -1   8  755.92   21.40
   5  -1   8  742.03   21.70
  -6   1  -8    8.80    0.80
  -6   1  -8    8.90    1.10
  -6   1  -8    7.20    1.80
  -6   1  -8    8.70    1.10
   6  -1   8    7.90    1.10
   6  -1   8    8.50    6.00
   6  -1   8    9.40    0.80
  -7   1  -8   81.09    3.00
  -7   1  -8   82.59    4.00
   7  -1   8   76.69    9.20
   7  -1   8   78.09    2.60
   7   0  -8   85.89    3.50
   7   0  -8   83.99    3.40
   7   0  -8   85.29    3.60
  -7   0   8   85.99    2.90
  -7   0   8   86.19    3.20
  -7   0   8   83.79    3.20
   6   0  -8   70.09    3.40
   6   0  -8   71.79    3.30
   6   0  -8   64.19    3.30
   6   0  -8   69.89    3.20
  -6   0   8   70.79    2.90
  -6   0   8   65.99    2.80
   5   0  -8  234.28    7.60
   5   0  -8  221.38    7.90
   5   0  -8  216.18    7.90
   5   0  -8  227.48    7.80
   5   0  -8  221.78    8.00
   5   0  -8  207.48    6.50
  -5   0   8  227.58    7.20
   4   0  -8   74.49    5.00
   4   0  -8   70.29    3.50
   4   0  -8   68.89    3.50
   4   0  -8   66.99    3.30
   4   0  -8   64.69    3.30
   4   0  -8   64.99    3.40
   4   0  -8   65.89    5.00
   4   0  -8   68.39    2.40
  -4   0   8   64.79    2.70
   3   0  -8  257.47    8.90
   3   0  -8  256.77    8.70
   3   0  -8  256.67    8.70
   3   0  -8  262.07   10.40
   3   0  -8  264.37    8.80
   3   0  -8  251.37    8.80
   3   0  -8  262.77    9.70
  -3   0   8  256.57   12.10
  -3   0   8  259.37    7.80
   2   0  -8  159.18    7.00
   2   0  -8  162.48    6.10
  -2   0   8  155.58    7.60
  -2   0   8  153.58    9.30
   1   0  -8  572.04   16.90
   1   0  -8  552.04   17.20
  -1   0   8  528.75   15.40
  -1   0   8  523.75   19.10
   0   0  -8  530.05   17.30
   0   0  -8  546.85   16.70
   0   0   8  496.45   19.40
  -1   0  -8    1.20    1.00
  -1   0  -8    1.30    1.10
   1   0   8    1.80    0.50
   1   0   8    1.60    2.50
  -2   0  -8 1917.91   51.29
  -2   0  -8 1742.13   50.79
  -2   0  -8 1861.81   53.39
  -2   0  -8 1877.41   52.79
  -2   0  -8 1802.42   51.39
  -2   0  -8 1745.53   53.49
   2   0   8 1856.41   50.69
   2   0   8 1770.02   56.69
   2   0   8 1786.92   50.59
  -3   0  -8 1291.17   36.40
  -3   0  -8 1259.07   36.20
  -3   0  -8 1259.97   39.50
  -3   0  -8 1237.08   36.90
  -3   0  -8 1290.57   38.60
  -3   0  -8 1265.27   36.20
  -3   0  -8 1294.77   39.00
   3   0   8 1272.57   35.90
   3   0   8 1332.47   36.30
   3   0   8 1290.07   36.40
   3   0   8 1319.07   50.79
  -4   0  -8 1833.42   50.59
  -4   0  -8 1815.02   50.99
  -4   0  -8 1774.42   53.99
  -4   0  -8 1728.83   51.39
  -4   0  -8 1743.33   50.89
   4   0   8 1807.62   50.29
   4   0   8 1826.42   50.69
   4   0   8 1876.01   67.09
   4   0   8 1873.11   50.89
  -5   0  -8  187.88    6.80
  -5   0  -8  194.28    8.70
  -5   0  -8  192.18    6.40
  -5   0  -8  191.78    6.10
  -5   0  -8  190.08    7.00
   5   0   8  203.68    6.30
   5   0   8  210.48   16.60
   5   0   8  197.18    6.60
   5   0   8  189.78    6.70
  -6   0  -8   27.90    1.70
  -6   0  -8   29.90    2.40
  -6   0  -8   28.30    1.60
   6   0   8   30.90    1.50
   6   0   8   29.20    6.00
   6   0   8   34.50    2.50
   7  -1  -8   14.70    1.30
   7  -1  -8   17.80    1.40
   7  -1  -8   15.60    1.30
  -7   1   8   18.20    1.10
  -7   1   8   17.30    1.20
   6  -1  -8  169.98    6.30
   6  -1  -8  167.28    6.10
   6  -1  -8  171.58    6.30
   6  -1  -8  171.98    6.30
  -6   1   8  161.78    5.60
  -6   1   8  165.48    5.60
   5  -1  -8   26.60    2.00
   5  -1  -8   28.20    2.10
   5  -1  -8   23.30    1.10
   5  -1  -8   24.10    2.00
   5  -1  -8   24.60    1.90
  -5   1   8   21.60    1.50
   4  -1  -8  192.68    6.70
   4  -1  -8  196.88    7.00
   4  -1  -8  190.98    8.70
   4  -1  -8  186.88    9.00
   4  -1  -8  181.68    7.00
   4  -1  -8  191.68    7.10
   4  -1  -8  184.28    5.70
   4  -1  -8  188.58    7.10
  -4   1   8  200.68    6.30
   3  -1  -8  325.77   10.20
   3  -1  -8  315.67   10.30
   3  -1  -8  315.07   11.30
   3  -1  -8  302.57   11.80
   3  -1  -8  304.37   11.10
   3  -1  -8  312.17   10.20
  -3   1   8  310.67   13.60
  -3   1   8  301.47   15.90
   2  -1  -8   21.90    2.80
  -2   1   8   23.90    3.90
  -2   1   8   19.60    4.20
   1  -1  -8  738.93   23.30
   1  -1  -8  781.72   22.60
  -1   1   8  693.03   25.30
   0  -1  -8   82.19    4.40
   0  -1  -8   84.59    5.20
   0   1   8   83.99    7.50
   0   1   8   78.09    2.90
  -1  -1  -8 1377.46   37.40
  -1  -1  -8 1335.47   38.80
  -1  -1  -8 1265.47   36.80
  -1  -1  -8 1243.58   37.40
  -1  -1  -8 1343.77   39.80
  -1  -1  -8 1301.37   37.00
   1   1   8 1355.46   36.70
   1   1   8 1295.87   43.10
   1   1   8 1253.97   36.60
  -2  -1  -8   30.10    1.80
  -2  -1  -8   33.10    3.60
  -2  -1  -8   28.20    4.00
  -2  -1  -8   31.50    2.10
  -2  -1  -8   30.90    2.00
  -2  -1  -8   30.20    1.80
  -2  -1  -8   32.90    2.80
  -2  -1  -8   28.30    2.20
   2   1   8   30.00    1.80
   2   1   8   31.70    1.90
  -3  -1  -8 4281.47  115.89
  -3  -1  -8 4184.08  115.99
  -3  -1  -8 4082.39  118.19
  -3  -1  -8 4209.08  119.49
  -3  -1  -8 4288.67  118.89
  -3  -1  -8 4069.99  116.59
  -3  -1  -8 3862.91  116.09
   3   1   8 4422.96  116.29
   3   1   8 4315.87  115.69
   3   1   8 4372.76  132.79
   3   1   8 4271.77  116.09
  -4  -1  -8   19.10    2.30
  -4  -1  -8   19.50    1.40
  -4  -1  -8   23.30    1.70
  -4  -1  -8   19.40    1.60
  -4  -1  -8   21.30    1.30
   4   1   8   23.80    1.40
   4   1   8   20.70    1.60
   4   1   8   21.50    5.30
   4   1   8   22.40    1.70
  -5  -1  -8  780.42   21.60
  -5  -1  -8  746.53   23.40
  -5  -1  -8  746.23   21.40
  -5  -1  -8  755.32   22.20
  -5  -1  -8  727.43   21.80
   5   1   8  775.42   21.80
   5   1   8  804.22   38.00
  -6  -1  -8  118.39    4.10
  -6  -1  -8  116.79    3.70
  -6  -1  -8  116.29    4.60
   6   1   8  116.89    3.80
   6   1   8  107.49   10.70
   7  -2  -8   67.89    3.00
   7  -2  -8   64.79    3.00
   7  -2  -8   72.29    3.10
   7  -2  -8   68.89    2.90
  -7   2   8   65.79    2.60
  -7   2   8   67.59    2.70
   6  -2  -8   16.70    2.20
   6  -2  -8   13.10    1.70
   6  -2  -8   14.00    0.80
   6  -2  -8   14.30    1.50
   6  -2  -8   13.50    1.60
  -6   2   8   12.70    1.20
  -6   2   8   12.20    1.40
   5  -2  -8   45.00    1.70
   5  -2  -8   46.20    2.70
   5  -2  -8   42.00    2.70
   5  -2  -8   47.30    2.70
   5  -2  -8   43.60    2.60
   4  -2  -8  241.38    8.50
   4  -2  -8  251.27   10.80
   4  -2  -8  245.18    8.50
   4  -2  -8  246.58    8.50
   4  -2  -8  242.58    7.10
   4  -2  -8  240.28    8.60
   3  -2  -8  727.03   21.40
   3  -2  -8  729.73   22.70
   3  -2  -8  712.33   21.50
   3  -2  -8  714.63   21.10
   3  -2  -8  706.33   21.20
   3  -2  -8  707.13   23.20
   3  -2  -8  714.83   21.30
   2  -2  -8  276.07    8.40
   2  -2  -8  278.87    8.90
   2  -2  -8  259.77   10.30
   2  -2  -8  266.87   10.40
   2  -2  -8  269.17    9.10
   2  -2  -8  269.67    9.30
   2  -2  -8  277.07    9.50
   2  -2  -8  277.67    8.70
   1  -2  -8  893.61   25.40
   1  -2  -8  874.41   25.00
   1  -2  -8  876.21   25.00
   1  -2  -8  870.71   26.10
   1  -2  -8  838.12   27.10
   1  -2  -8  852.81   24.40
   1  -2  -8  865.21   25.00
  -1   2   8  817.32   30.10
   0  -2  -8  555.54   16.40
   0  -2  -8  597.04   17.00
   0  -2  -8  590.24   18.70
   0  -2  -8  563.54   19.80
   0  -2  -8  579.14   18.20
   0  -2  -8  590.84   17.40
   0   2   8  569.34   16.60
  -1  -2  -8  829.22   23.20
  -1  -2  -8  785.72   23.00
  -1  -2  -8  794.32   22.90
  -1  -2  -8  761.52   23.40
  -1  -2  -8  801.92   26.50
  -1  -2  -8  774.32   22.40
  -1  -2  -8  819.22   25.20
   1   2   8  801.62   22.90
   1   2   8  794.62   23.10
  -2  -2  -8  455.15   17.40
  -2  -2  -8  467.75   14.40
  -2  -2  -8  449.66   14.10
  -2  -2  -8  453.45   16.30
  -2  -2  -8  472.85   13.90
  -2  -2  -8  475.65   13.80
  -2  -2  -8  463.25   13.80
  -2  -2  -8  447.96   13.40
   2   2   8  446.16   13.90
   2   2   8  469.25   24.40
   2   2   8  451.95   13.50
   2   2   8  470.45   14.00
  -3  -2  -8 1377.36   38.20
  -3  -2  -8 1357.96   38.30
  -3  -2  -8 1382.36   38.30
  -3  -2  -8 1264.47   37.90
  -3  -2  -8 1322.27   39.10
  -3  -2  -8 1333.87   38.70
  -3  -2  -8 1310.17   38.50
   3   2   8 1460.75   53.29
   3   2   8 1434.46   38.60
   3   2   8 1374.76   38.60
   3   2   8 1347.37   38.10
  -4  -2  -8  262.37    8.60
  -4  -2  -8  277.77    8.70
  -4  -2  -8  267.27    8.50
  -4  -2  -8  254.97    8.30
  -4  -2  -8  271.47    8.30
  -4  -2  -8  257.07    8.30
   4   2   8  265.17    8.60
   4   2   8  265.77    8.60
   4   2   8  275.07   20.40
  -5  -2  -8   98.49    3.20
  -5  -2  -8   95.39    3.20
  -5  -2  -8  103.19    3.30
  -5  -2  -8   99.89    3.90
  -5  -2  -8  101.49    3.40
   5   2   8   85.29   10.10
   5   2   8   98.29    3.50
   5   2   8   97.29    3.60
   7  -3  -8   32.60    1.20
   7  -3  -8   30.80    1.80
   7  -3  -8   31.40    1.80
   7  -3  -8   30.30    1.80
   7  -3  -8   27.70    1.70
  -7   3   8   30.20    1.50
   6  -3  -8   87.89    3.80
   6  -3  -8   92.89    2.90
   6  -3  -8   96.69    4.00
   6  -3  -8   89.59    3.80
   6  -3  -8   87.69    3.80
  -6   3   8   85.49    3.40
   5  -3  -8   69.59    3.40
   5  -3  -8   59.39    2.10
   5  -3  -8   57.49    3.10
   5  -3  -8   65.59    3.20
   5  -3  -8   61.19    2.30
   5  -3  -8   60.39    3.10
   4  -3  -8  413.56   12.70
   4  -3  -8  379.76   12.40
   4  -3  -8  390.46   11.50
   4  -3  -8  381.86   12.40
   4  -3  -8  386.76   11.20
   4  -3  -8  405.56   12.50
   3  -3  -8  690.93   19.90
   3  -3  -8  658.23   19.60
   3  -3  -8  661.93   18.90
   3  -3  -8  648.84   19.20
   3  -3  -8  649.64   19.60
   3  -3  -8  660.83   18.60
   3  -3  -8  655.63   19.60
   3  -3  -8  660.43   18.80
   3  -3  -8  633.84   18.50
   2  -3  -8  186.98    6.50
   2  -3  -8  182.38    6.20
   2  -3  -8  184.48    5.50
   2  -3  -8  183.58    5.90
   2  -3  -8  166.98    8.20
   2  -3  -8  184.88    6.20
   2  -3  -8  188.28    5.80
   2  -3  -8  179.78    6.70
   2  -3  -8  172.78    7.10
   2  -3  -8  179.78    8.20
   1  -3  -8  702.33   20.30
   1  -3  -8  690.03   23.50
   1  -3  -8  700.53   20.70
   1  -3  -8  698.83   19.80
   1  -3  -8  724.53   20.60
   1  -3  -8  701.53   21.90
   1  -3  -8  722.23   20.90
   1  -3  -8  693.23   23.00
   1  -3  -8  709.03   20.20
   0  -3  -8  675.83   23.80
   0  -3  -8  625.64   18.20
   0  -3  -8  636.84   24.70
   0  -3  -8  629.94   19.10
   0  -3  -8  649.83   18.70
   0  -3  -8  626.24   18.60
   0  -3  -8  654.53   18.90
   0   3   8  647.74   18.60
  -1  -3  -8  118.09    4.40
  -1  -3  -8  113.99    9.60
   1   3   8  101.39    4.10
   1   3   8  103.29    4.10
  -2  -3  -8  849.32   25.10
  -2  -3  -8  887.31   25.90
  -2  -3  -8  897.81   25.50
  -2  -3  -8  910.01   25.40
  -2  -3  -8  890.21   25.60
   2   3   8  922.41   26.10
   2   3   8  889.31   25.80
   2   3   8  889.61   25.40
  -3  -3  -8   47.70    2.00
  -3  -3  -8   48.50    2.40
  -3  -3  -8   45.40    2.50
  -3  -3  -8   49.80    2.20
  -3  -3  -8   52.19    2.40
   3   3   8   51.59    2.50
   3   3   8   49.70    2.30
   3   3   8   52.59    2.60
  -4  -3  -8  208.68    6.40
  -4  -3  -8  217.38    6.50
  -4  -3  -8  214.98    6.50
  -4  -3  -8  215.48    6.50
   4   3   8  209.88    6.70
   4   3   8  208.98    7.00
   4   3   8  216.88    7.00
  -5  -3  -8  120.49    3.60
   5   3   8  118.29    3.80
   5   3   8  111.89    4.20
   7  -4  -8   27.60    1.50
   7  -4  -8   28.20    1.00
   7  -4  -8   27.80    1.60
   7  -4  -8   26.90    1.60
   6  -4  -8    6.10    1.00
   6  -4  -8    5.20    0.90
   6  -4  -8    6.00    0.90
   6  -4  -8    5.70    0.50
   5  -4  -8    7.90    0.70
   5  -4  -8    4.90    1.00
   5  -4  -8    4.80    1.00
   5  -4  -8    7.60    0.60
   5  -4  -8    5.50    1.20
   4  -4  -8  202.68    5.90
   4  -4  -8  191.48    7.00
   4  -4  -8  202.58    6.00
   4  -4  -8  207.68    6.20
   4  -4  -8  208.68    6.30
   4  -4  -8  208.28    7.00
   4  -4  -8  193.78    7.00
   3  -4  -8   22.40    1.10
   3  -4  -8   25.00    1.40
   3  -4  -8   23.60    1.40
   3  -4  -8   22.40    1.50
   3  -4  -8   27.60    1.10
   3  -4  -8   19.10    2.40
   2  -4  -8  648.84   18.40
   2  -4  -8  656.53   18.80
   2  -4  -8  638.94   18.70
   2  -4  -8  640.14   18.20
   2  -4  -8  651.43   18.90
   1  -4  -8  429.06   13.00
   1  -4  -8  433.06   13.20
   1  -4  -8  428.36   12.70
   1  -4  -8  428.26   12.40
   1  -4  -8  440.96   13.00
  -1   4   8  437.86   12.90
   0  -4  -8   38.30    1.90
   0  -4  -8   40.10    2.20
   0  -4  -8   41.40    2.10
   0  -4  -8   38.70    2.00
   0  -4  -8   41.40    1.80
   0   4   8   38.50    2.20
   0   4   8   41.50    2.10
  -1  -4  -8  173.88    5.50
  -1  -4  -8  172.68    6.10
  -1  -4  -8  169.48    5.70
  -1  -4  -8  176.88    5.90
  -1  -4  -8  180.08    6.00
   1   4   8  168.38    6.00
   1   4   8  177.18    6.10
  -2  -4  -8  153.18    5.40
  -2  -4  -8  159.98    5.20
  -2  -4  -8  160.18    5.40
  -2  -4  -8  155.88    5.40
  -2  -4  -8  162.18    6.10
   2   4   8  155.68    5.50
   2   4   8  146.99    5.30
   2   4   8  154.18    5.60
  -3  -4  -8  136.49    4.50
  -3  -4  -8  142.09    5.70
  -3  -4  -8  137.69    4.50
  -3  -4  -8  134.29    4.30
  -3  -4  -8  137.19    4.30
   3   4   8  137.69    4.90
   3   4   8  133.19    4.60
   3   4   8  137.69    4.90
  -4  -4  -8   41.60    1.40
  -4  -4  -8   44.80    1.60
  -4  -4  -8   43.50    1.70
   4   4   8   43.80    1.80
   4   4   8   42.60    1.90
   6  -5  -8  111.59    4.10
   6  -5  -8  107.99    4.00
   6  -5  -8  116.89    3.40
   5  -5  -8   63.09    2.30
   5  -5  -8   58.39    3.30
   5  -5  -8   62.19    2.10
   5  -5  -8   61.39    2.80
   4  -5  -8   94.99    2.90
   4  -5  -8   86.19    3.70
   4  -5  -8   97.89    3.30
   4  -5  -8   96.39    3.00
   4  -5  -8   93.19    3.00
   4  -5  -8   94.79    3.20
   3  -5  -8  445.66   14.40
   3  -5  -8  457.55   12.80
   2  -5  -8  394.76   11.50
   2  -5  -8  378.96   10.90
   2  -5  -8  374.26   11.40
   2  -5  -8  379.76   11.10
   1  -5  -8  571.54   15.80
   1  -5  -8  563.14   16.30
   1  -5  -8  542.05   16.90
   1  -5  -8  563.04   15.90
   1  -5  -8  549.45   16.20
  -1   5   8  542.75   16.20
   0  -5  -8  225.18    7.10
   0  -5  -8  213.88    6.90
   0  -5  -8  205.38    6.70
   0   5   8  215.88    7.00
   0   5   8  208.28    7.20
  -1  -5  -8  144.29    4.60
  -1  -5  -8  143.69    4.70
  -1  -5  -8  141.29    4.90
  -1  -5  -8  144.99    4.90
  -1  -5  -8  149.69    4.80
   1   5   8  145.79    5.20
   1   5   8  145.79    5.50
  -2  -5  -8   71.69    2.60
  -2  -5  -8   71.89    2.70
  -2  -5  -8   72.89    2.50
  -2  -5  -8   71.19    2.40
   2   5   8   70.69    2.90
   2   5   8   69.99    3.00
   2   5   8   66.49    2.70
  -3  -5  -8   49.80    1.80
  -3  -5  -8   52.19    1.80
  -3  -5  -8   50.09    1.70
  -3  -5  -8   52.09    1.90
   3   5   8   52.69    2.10
   3   5   8   52.49    2.20
   6  -6  -8   36.00    1.20
   6  -6  -8   35.60    1.50
   5  -6  -8  150.68    4.30
   5  -6  -8  145.99    5.20
   5  -6  -8  150.48    4.30
   5  -6  -8  151.58    4.60
   4  -6  -8  118.29    3.50
   4  -6  -8  119.29    3.50
   4  -6  -8  116.49    3.50
   3  -6  -8  136.09    4.40
   3  -6  -8  134.59    4.10
   3  -6  -8  137.29    4.20
   3  -6  -8  134.49    4.40
   3  -6  -8  135.19    4.00
   2  -6  -8  151.98    4.70
   2  -6  -8  156.38    5.00
   2  -6  -8  156.48    4.60
   2  -6  -8  158.58    5.00
   2  -6  -8  160.58    4.80
  -2   6   8  142.39    5.40
   1  -6  -8   27.10    1.40
   1  -6  -8   28.80    1.40
   1  -6  -8   28.50    1.40
   1  -6  -8   26.60    1.20
   1  -6  -8   28.30    1.20
  -1   6   8   22.00    1.60
  -1   6   8   28.80    1.80
   0  -6  -8  164.58    5.00
   0  -6  -8  161.98    5.20
   0  -6  -8  168.48    5.80
   0  -6  -8  160.28    4.90
   0   6   8  159.88    5.40
   0   6   8  161.88    5.70
  -1  -6  -8  164.88    5.10
  -1  -6  -8  165.28    4.80
  -1  -6  -8  165.58    5.00
  -1  -6  -8  161.78    4.90
   1   6   8  158.48    5.30
   1   6   8  157.98    5.20
   4  -7  -8   23.80    0.80
   4  -7  -8   24.50    1.20
   3  -7  -8  138.89    4.20
   3  -7  -8  137.79    4.10
   3  -7  -8  137.79    4.00
   2  -7  -8   87.79    2.70
   2  -7  -8   83.49    2.80
   2  -7  -8   83.99    2.60
   2  -7  -8   84.19    2.80
   1  -7  -8   84.39    2.70
   1  -7  -8   82.39    2.60
   1  -7  -8   81.89    2.50
   0   9  -9  152.58    9.10
   0  -9   9  143.79    5.20
   0  -9   9  144.89    4.80
  -1   9  -9   69.99    9.00
   1  -9   9   77.09    3.40
   1  -9   9   75.09    3.00
  -2   9  -9   68.69    9.00
   2  -9   9   78.59    3.90
   2  -9   9   76.89    3.40
  -3   9  -9   31.70    4.50
   3  -9   9   34.80    2.10
   3  -9   9   32.90    1.70
  -4   9  -9    4.80    1.40
   2   8  -9   71.29    2.80
  -2  -8   9   69.69    2.70
   1   8  -9   10.70    1.00
   1   8  -9    9.80    2.90
  -1  -8   9   11.00    0.60
  -1  -8   9    9.70    1.00
   0   8  -9   51.09    2.40
   0   8  -9   49.99    6.20
   0  -8   9   51.09    1.80
   0  -8   9   51.49    3.00
   0  -8   9   51.19    2.40
  -1   8  -9   48.90    6.40
   1  -8   9   49.30    1.80
   1  -8   9   49.70    2.40
   1  -8   9   50.19    3.60
  -2   8  -9   15.30    4.00
   2  -8   9   19.30    1.90
   2  -8   9   18.10    1.30
   2  -8   9   15.10    0.80
  -3   8  -9   62.89    7.00
   3  -8   9   61.59    3.30
   3  -8   9   61.29    2.70
  -4   8  -9  156.88   10.30
   4  -8   9  155.38    5.30
   5  -8   9   15.90    1.40
  -6   8  -9    4.70    1.60
  -3  -7   9  169.88    5.10
  -3  -7   9  177.38    6.00
   2   7  -9  614.14   24.60
  -2  -7   9  628.84   18.20
  -2  -7   9  622.34   17.60
   1   7  -9   70.29    8.60
  -1  -7   9   64.29    2.50
  -1  -7   9   65.59    2.50
  -1  -7   9   63.89    2.90
   0   7  -9  754.42   31.50
   0  -7   9  767.62   21.10
   0  -7   9  704.33   21.30
   0  -7   9  752.02   21.80
  -1   7  -9   13.10    1.60
  -1   7  -9   10.10    3.60
   1  -7   9   13.40    1.30
   1  -7   9   15.60    1.20
   1  -7   9   14.00    1.00
  -2   7  -9   72.09    8.20
   2  -7   9   68.19    2.60
   2  -7   9   68.29    3.10
  -3   7  -9   23.50    5.00
   3  -7   9   19.40    1.10
   3  -7   9   19.20    1.40
   3  -7   9   19.50    2.20
   4  -7   9  122.29    5.40
   4  -7   9  114.39    3.70
   4  -7   9  111.89    4.30
   5  -7   9    4.70    1.00
  -6   7  -9    8.00    2.00
   6  -7   9    8.40    1.10
   4   6  -9  251.17    7.70
  -4  -6   9  221.98    7.70
  -4  -6   9  235.48    7.00
  -3  -6   9  282.87    8.90
  -3  -6   9  280.17    8.50
  -3  -6   9  278.77    8.40
  -3  -6   9  282.87    8.80
   2   6  -9  359.86   18.30
  -2  -6   9  360.76   11.30
  -2  -6   9  367.46   10.80
  -2  -6   9  367.66   11.20
  -2  -6   9  356.06   10.90
   1   6  -9 1343.07   49.50
  -1  -6   9 1405.06   39.30
  -1  -6   9 1390.66   38.70
  -1  -6   9 1393.26   39.20
  -1  -6   9 1394.56   39.00
   0   6  -9  141.59   11.60
   0  -6   9  127.69    4.80
   0  -6   9  127.29    4.40
   0  -6   9  125.99    4.60
   0  -6   9  126.29    4.90
  -1   6  -9 1156.18   34.50
   1  -6   9 1214.58   33.60
   1  -6   9 1194.58   34.60
   1  -6   9 1225.88   34.20
   1  -6   9 1212.08   34.70
  -2   6  -9  133.19    5.20
   2  -6   9  141.79    4.60
   2  -6   9  136.39    5.10
  -3   6  -9   36.10    6.10
   3  -6   9   39.70    1.90
   3  -6   9   37.20    2.10
   3  -6   9   39.80    1.80
   4  -6   9  371.56   10.90
   4  -6   9  381.46   11.40
   4  -6   9  377.86   20.30
   4  -6   9  361.66   13.30
   5  -6   9  338.67   18.50
   5  -6   9  341.17   11.70
   5  -6   9  327.07    9.70
  -6   6  -9  320.17   14.70
   6  -6   9  334.37   10.90
  -7   6  -9  308.37   14.20
   7  -6   9  310.27    9.90
   5   5  -9  133.09    4.40
  -5  -5   9  118.99    4.00
  -5  -5   9  121.79    4.20
  -5  -5   9  128.49    3.90
  -4  -5   9  116.29    4.20
  -4  -5   9  113.79    3.80
  -4  -5   9  115.49    4.30
  -4  -5   9  110.69    4.00
   3   5  -9  173.08    6.20
  -3  -5   9  179.48    6.20
  -3  -5   9  173.98    6.10
  -3  -5   9  177.38    6.00
  -3  -5   9  177.88    5.70
   2   5  -9  129.69   10.60
   2   5  -9  137.29    5.20
  -2  -5   9  130.19    4.50
  -2  -5   9  131.79    5.00
  -2  -5   9  136.29    5.00
  -2  -5   9  134.79    4.90
   1   5  -9  180.48   10.90
   1   5  -9  169.68    6.60
   1   5  -9  188.38    6.20
   1   5  -9  179.98   13.10
  -1  -5   9  181.68    6.40
  -1  -5   9  183.88    9.40
  -1  -5   9  192.08    6.40
  -1  -5   9  183.58    6.30
   0   5  -9  339.57   11.70
   0   5  -9  363.96   20.00
   0   5  -9  397.56   11.70
   0  -5   9  348.77   10.80
   0  -5   9  360.86   11.30
   0  -5   9  368.56   11.20
   0  -5   9  362.36   11.30
  -1   5  -9 1058.79   41.60
  -1   5  -9 1034.00   30.80
  -1   5  -9 1055.39   32.50
  -1   5  -9 1065.99   30.60
   1  -5   9 1097.29   30.30
   1  -5   9 1070.69   30.40
   1  -5   9 1047.30   30.30
   1  -5   9 1074.79   29.90
  -2   5  -9  176.08    6.20
  -2   5  -9  159.78    6.20
  -2   5  -9  186.48   13.60
  -2   5  -9  177.28    8.00
   2  -5   9  174.68    6.00
   2  -5   9  182.58    6.20
   2  -5   9  166.48    5.60
   2  -5   9  175.98    5.90
  -3   5  -9 1351.26   49.70
   3  -5   9 1271.67   39.00
   3  -5   9 1369.96   38.30
   3  -5   9 1366.56   38.30
   3  -5   9 1391.96   38.00
  -4   5  -9    1.70    1.00
   4  -5   9    1.80    0.60
   4  -5   9    1.10    1.70
   4  -5   9    1.30    0.40
  -5   5  -9  110.19    7.80
   5  -5   9  122.39   11.30
   5  -5   9  120.69    4.00
  -6   5  -9   44.30    4.30
   6  -5   9   48.90    3.10
   6  -5   9   48.00    1.80
   6  -5   9   47.60    6.70
  -7   5  -9  188.48    6.00
  -7   5  -9  194.08    8.20
   7  -5   9  194.98    6.80
   7  -5   9  169.98   12.10
   5   4  -9   55.79    2.60
   5   4  -9   53.09    2.50
  -5  -4   9   54.39    2.40
  -5  -4   9   55.99    2.10
  -5  -4   9   53.99    2.40
  -5  -4   9   56.69    2.30
   4   4  -9   94.59    3.80
   4   4  -9   99.09    4.20
  -4  -4   9   94.39    3.90
  -4  -4   9  104.59    3.90
  -4  -4   9  100.79    3.90
   3   4  -9    5.70    1.50
   3   4  -9    7.60    1.20
   3   4  -9    5.60    1.00
   3   4  -9    5.60    0.80
  -3  -4   9    6.40    1.00
  -3  -4   9    5.90    0.90
  -3  -4   9    5.00    0.90
  -3  -4   9    6.70    0.80
   2   4  -9   49.40    2.70
   2   4  -9   50.49    4.50
   2   4  -9   50.79    7.20
   2   4  -9   51.89    2.60
   2   4  -9   49.60    2.90
  -2  -4   9   52.59    2.50
  -2  -4   9   51.19    2.50
  -2  -4   9   49.20    2.50
   1   4  -9  469.75   14.30
   1   4  -9  465.65   22.70
   1   4  -9  478.25   14.20
   1   4  -9  460.45   16.40
   1   4  -9  471.95   14.70
  -1  -4   9  476.55   14.10
  -1  -4   9  466.75   14.10
  -1  -4   9  483.65   14.10
  -1  -4   9  438.36   13.60
   0   4  -9  384.76   13.50
   0   4  -9  366.86   12.10
   0   4  -9  371.96   12.10
   0   4  -9  358.56   19.80
   0   4  -9  380.26   11.60
   0  -4   9  383.56   11.40
   0  -4   9  368.46   11.40
   0  -4   9  375.56   11.50
   0  -4   9  361.06   11.10
  -1   4  -9  269.67   10.20
  -1   4  -9  269.87    9.60
  -1   4  -9  253.47   16.20
  -1   4  -9  252.57    8.90
   1  -4   9  267.57    8.50
   1  -4   9  265.47    8.40
   1  -4   9  257.07    8.30
   1  -4   9  265.67    8.10
  -2   4  -9   22.10    5.10
  -2   4  -9   14.90    1.90
  -2   4  -9   16.40    1.70
  -2   4  -9   20.60    1.90
   2  -4   9   15.20    1.30
   2  -4   9   17.40    1.20
   2  -4   9   18.10    1.30
  -3   4  -9  730.53   21.20
   3  -4   9  719.33   20.90
   3  -4   9  725.13   21.10
   3  -4   9  705.73   20.50
   4  -4   9  156.38   17.40
   4  -4   9  145.99    4.90
   4  -4   9  142.49    5.40
  -5   4  -9 1171.48   40.60
   5  -4   9 1227.98   35.00
   5  -4   9 1308.57   50.09
   5  -4   9 1287.37   34.90
  -6   4  -9  417.26   16.50
   6  -4   9  421.56   12.30
   6  -4   9  447.16   23.80
  -7   4  -9  176.38    5.30
  -7   4  -9  177.38    7.60
   7  -4   9  174.08    6.50
   7  -4   9  164.28   12.60
   6   3  -9   40.60    1.90
   6   3  -9   41.10    2.00
   6   3  -9   40.00    1.70
   6   3  -9   38.10    2.10
  -6  -3   9   40.40    1.60
  -6  -3   9   40.10    1.90
  -6  -3   9   40.50    1.90
  -6  -3   9   39.30    1.80
   5   3  -9  164.78    5.70
   5   3  -9  160.38    5.90
   5   3  -9  157.58    5.50
   5   3  -9  168.48    5.80
  -5  -3   9  158.68    5.20
  -5  -3   9  159.48    5.50
   4   3  -9   72.69    3.60
   4   3  -9   78.19    3.70
   4   3  -9   77.29    3.40
   4   3  -9   79.09    3.50
  -4  -3   9   74.19    3.20
  -4  -3   9   76.29    2.90
  -4  -3   9   75.29    3.20
   3   3  -9   92.09    4.70
   3   3  -9   89.79    4.30
  -3  -3   9   83.39    3.40
  -3  -3   9   87.19    3.60
  -3  -3   9   88.19    3.50
  -3  -3   9   88.39    3.70
   2   3  -9  224.08    8.20
   2   3  -9  249.88    9.90
   2   3  -9  233.88    7.80
   2   3  -9  235.78   14.40
   2   3  -9  244.48    8.10
  -2  -3   9  219.88    7.50
  -2  -3   9  215.78    7.20
  -2  -3   9  226.28    7.60
  -2  -3   9  236.98    7.60
   1   3  -9   93.19    4.40
   1   3  -9   94.49   11.10
   1   3  -9  113.09    6.10
   1   3  -9  103.29    5.50
   1   3  -9  104.19    4.10
  -1  -3   9   99.59    3.80
  -1  -3   9  103.09    4.30
  -1  -3   9   96.09    3.60
  -1  -3   9   98.99    3.80
   0   3  -9   38.10    3.40
   0   3  -9   36.20    2.00
   0   3  -9   40.90    2.30
   0   3  -9   34.90    2.30
   0   3  -9   37.90    2.60
   0  -3   9   37.00    1.90
   0  -3   9   24.90    4.50
   0  -3   9   37.60    2.00
   0  -3   9   34.60    1.90
  -1   3  -9  128.19    5.20
  -1   3  -9  122.89    5.10
  -1   3  -9  130.79    6.10
  -1   3  -9  130.39    5.40
   1  -3   9  128.69    4.50
   1  -3   9  128.69    4.70
  -2   3  -9  394.96   13.30
  -2   3  -9  422.26   13.00
  -2   3  -9  388.46   13.40
   2  -3   9  411.76   13.60
   2  -3   9  427.06   12.40
  -3   3  -9  158.88    7.00
  -3   3  -9  163.88    6.00
  -3   3  -9  160.78    5.80
   3  -3   9  160.78    5.40
   3  -3   9  169.18    5.90
   3  -3   9  167.78    5.70
  -4   3  -9  750.12   27.90
   4  -3   9  815.02   36.90
   4  -3   9  819.52   22.40
   4  -3   9  775.92   23.00
   4  -3   9  772.32   22.70
  -5   3  -9  147.59    8.70
  -5   3  -9  140.49    6.80
   5  -3   9  161.08   13.90
   5  -3   9  157.98    5.00
   5  -3   9  147.99    5.50
   5  -3   9  155.88    5.30
  -6   3  -9  270.37    9.10
  -6   3  -9  278.97   11.90
  -6   3  -9  289.17    9.00
   6  -3   9  313.17   19.50
   6  -3   9  282.77    8.50
  -7   3  -9   69.79    3.90
  -7   3  -9   66.79    2.50
  -7   3  -9   68.29    3.00
   7  -3   9   64.29    7.80
   6   2  -9  194.88    6.60
   6   2  -9  195.58    6.40
   6   2  -9  184.38    6.20
   6   2  -9  195.38    7.10
  -6  -2   9  189.18    6.20
   5   2  -9    3.10    0.90
   5   2  -9    2.70    0.80
   5   2  -9    2.70    0.70
   5   2  -9    4.60    1.20
  -5  -2   9    4.20    0.80
  -5  -2   9    3.90    0.70
  -5  -2   9    1.90    0.50
   4   2  -9  401.96   13.00
   4   2  -9  405.66   12.70
   4   2  -9  421.16   12.80
   4   2  -9  403.76   12.50
  -4  -2   9  393.26   12.10
  -4  -2   9  365.46   11.70
  -4  -2   9  396.36   12.10
   3   2  -9   62.09    3.40
   3   2  -9   68.49    3.50
   3   2  -9   52.69    6.90
   3   2  -9   73.09    3.30
   3   2  -9   63.09    3.30
  -3  -2   9   64.89    2.80
  -3  -2   9   67.09    2.90
   2   2  -9  874.31   25.30
   2   2  -9  873.31   25.00
   2   2  -9  813.52   25.10
   2   2  -9  840.02   26.70
   2   2  -9  857.21   24.70
  -2  -2   9  826.02   26.70
   1   2  -9  559.84   18.20
   1   2  -9  569.84   17.20
   1   2  -9  557.14   16.80
   1   2  -9  561.34   24.80
   1   2  -9  558.24   16.50
   1   2  -9  535.95   17.00
  -1  -2   9  549.74   18.70
  -1  -2   9  536.05   16.10
  -1  -2   9  560.34   16.10
  -1  -2   9  541.05   16.10
   0   2  -9   15.40    1.90
   0   2  -9   15.90    1.70
   0   2  -9   13.40    4.00
   0   2  -9   15.50    2.20
   0   2  -9   17.00    1.50
   0   2  -9   15.70    1.60
   0  -2   9   14.30    1.10
   0  -2   9   12.30    2.90
   0  -2   9   12.30    1.10
  -1   2  -9 1161.98   34.30
  -1   2  -9 1195.98   34.00
  -1   2  -9 1215.48   33.50
  -1   2  -9 1174.08   33.80
   1  -2   9 1121.39   33.00
   1  -2   9 1158.58   37.20
   1  -2   9 1193.78   33.20
  -2   2  -9  398.76   12.60
  -2   2  -9  391.06   13.40
  -2   2  -9  407.66   14.30
   2  -2   9  417.36   13.80
   2  -2   9  400.86   12.00
   2  -2   9  369.46   11.70
  -3   2  -9  138.59    5.00
  -3   2  -9  134.19    5.20
  -3   2  -9  134.49    6.60
  -3   2  -9  128.49    7.90
   3  -2   9  135.69    4.90
   3  -2   9  139.89    5.10
   3  -2   9  132.89    4.60
  -4   2  -9  609.64   22.60
  -4   2  -9  596.54   17.90
   4  -2   9  614.44   18.40
   4  -2   9  633.64   32.20
   4  -2   9  636.14   17.90
   4  -2   9  621.34   18.40
  -5   2  -9   68.19    3.40
  -5   2  -9   65.59    5.10
  -5   2  -9   67.19    3.10
   5  -2   9   69.79    3.00
   5  -2   9   71.09    2.70
   5  -2   9   69.79    3.20
   5  -2   9   73.09    9.40
  -6   2  -9  140.89    6.90
  -6   2  -9  136.19    4.90
  -6   2  -9  138.49    4.90
  -6   2  -9  139.59    4.70
   6  -2   9  139.29    4.50
   6  -2   9  144.69   12.90
  -7   2  -9   86.19    4.00
   7  -2   9   79.29    8.60
   7   1  -9   72.99    2.80
   7   1  -9   72.89    2.70
   7   1  -9   79.59    3.00
  -7  -1   9   71.89    2.40
   6   1  -9   27.20    1.70
   6   1  -9   26.20    1.80
   6   1  -9   26.30    1.90
  -6  -1   9   28.10    1.80
  -6  -1   9   26.40    1.60
   5   1  -9   49.60    2.80
   5   1  -9   52.49    2.80
   5   1  -9   53.79    2.90
   5   1  -9   48.80    2.90
  -5  -1   9   50.99    2.40
  -5  -1   9   51.69    2.40
   4   1  -9  390.66   12.00
   4   1  -9  370.26   12.10
   4   1  -9  371.96   12.30
  -4  -1   9  357.76   11.30
  -4  -1   9  374.16   11.30
   3   1  -9  846.22   27.60
   3   1  -9  895.71   25.60
   3   1  -9  913.71   25.50
   3   1  -9  859.81   25.80
   3   1  -9  847.12   25.50
  -3  -1   9  843.52   24.60
  -3  -1   9  853.71   24.60
   2   1  -9  306.57   10.10
   2   1  -9  301.17   11.30
   2   1  -9  306.77    9.80
   2   1  -9  300.47   10.10
  -2  -1   9  271.57    9.00
  -2  -1   9  271.67   11.30
  -2  -1   9  287.17    8.90
   1   1  -9  107.59    4.80
   1   1  -9  105.89    4.70
   1   1  -9  107.39    4.40
   1   1  -9  100.59    5.40
   1   1  -9  111.69    4.60
  -1  -1   9   99.29    3.70
  -1  -1   9  106.49    6.90
  -1  -1   9  102.99    3.80
   0   1  -9  494.15   16.10
   0   1  -9  510.95   15.60
   0   1  -9  523.35   15.40
   0   1  -9  529.45   15.90
   0  -1   9  487.85   14.80
   0  -1   9  496.45   18.90
   0  -1   9  514.45   14.80
  -1   1  -9 1413.86   39.80
  -1   1  -9 1412.76   40.00
  -1   1  -9 1419.46   40.80
  -1   1  -9 1453.15   39.50
  -1   1  -9 1275.57   41.80
   1  -1   9 1395.46   39.20
   1  -1   9 1410.36   39.20
  -2   1  -9    9.90    1.20
  -2   1  -9    6.20    2.00
  -2   1  -9    9.90    1.40
  -2   1  -9    9.70    1.90
   2  -1   9   12.60    1.10
   2  -1   9    8.40    1.00
   2  -1   9   12.90    1.10
  -3   1  -9 1149.78   37.50
  -3   1  -9 1230.98   39.30
  -3   1  -9 1235.58   34.20
  -3   1  -9 1154.58   33.80
   3  -1   9 1157.48   33.40
   3  -1   9 1204.38   34.10
   3  -1   9 1230.28   33.90
  -4   1  -9  387.96   12.70
  -4   1  -9  383.26   15.20
  -4   1  -9  384.16   11.80
  -4   1  -9  388.76   12.10
   4  -1   9  405.16   12.30
   4  -1   9  400.36   11.70
   4  -1   9  407.56   23.90
   4  -1   9  398.66   12.20
  -5   1  -9   79.79    5.60
  -5   1  -9   75.69    3.60
   5  -1   9   77.49    3.30
   5  -1   9   84.89    3.10
   5  -1   9   78.89    9.70
   5  -1   9   74.99    3.30
  -6   1  -9  104.99    4.00
  -6   1  -9   99.79    3.60
  -6   1  -9  106.59    5.10
  -6   1  -9  103.59    3.80
   6  -1   9   91.29    3.70
   6  -1   9  107.59   10.80
   6  -1   9  111.29    3.60
   7   0  -9   34.90    1.80
   7   0  -9   34.90    1.70
   7   0  -9   35.30    1.90
  -7   0   9   36.40    2.40
  -7   0   9   35.70    1.40
  -7   0   9   36.50    1.60
   6   0  -9   32.30    2.10
   6   0  -9   34.50    2.00
   6   0  -9   34.40    2.10
  -6   0   9   34.60    1.80
  -6   0   9   35.30    2.10
   5   0  -9   14.20    1.40
   5   0  -9   10.80    1.50
   5   0  -9   12.40    1.30
   5   0  -9   11.10    1.50
   5   0  -9   12.40    1.50
  -5   0   9   12.10    1.20
   4   0  -9   25.20    2.30
   4   0  -9   28.30    2.10
   4   0  -9   28.30    2.20
   4   0  -9   27.80    2.20
   3   0  -9  400.66   14.90
   3   0  -9  405.06   12.90
   3   0  -9  411.66   12.80
   3   0  -9  409.06   12.80
   3   0  -9  398.66   13.10
   3   0  -9  405.16   12.60
  -3   0   9  390.46   11.80
   2   0  -9  164.68    6.60
   2   0  -9  164.68    6.90
   2   0  -9  179.28    7.90
   2   0  -9  171.98    6.40
   2   0  -9  175.58    6.60
   2   0  -9  168.78    6.00
   2   0  -9  177.68    6.40
  -2   0   9  165.78    5.40
  -2   0   9  170.78    9.10
   1   0  -9  863.71   24.80
   1   0  -9  846.32   25.40
   1   0  -9  860.81   25.20
   1   0  -9  883.21   25.10
  -1   0   9  805.02   23.80
  -1   0   9  818.42   28.30
   0   0  -9  852.21   24.50
   0   0  -9  786.32   24.30
   0   0  -9  855.81   24.70
   0   0  -9  850.11   24.20
   0   0  -9  829.62   26.00
   0   0  -9  846.22   25.40
   0   0  -9  818.42   23.70
   0   0   9  793.02   30.20
   0   0   9  840.92   23.60
  -1   0  -9   86.29    4.10
  -1   0  -9   89.89    3.60
  -1   0  -9   94.59    3.90
  -1   0  -9   97.49    4.20
  -1   0  -9   91.69    5.10
  -1   0  -9   90.59    5.40
  -1   0  -9   87.19    3.20
   1   0   9   98.49    3.60
   1   0   9   96.09    3.60
  -2   0  -9 1312.27   39.60
  -2   0  -9 1362.06   37.40
  -2   0  -9 1302.07   36.90
  -2   0  -9 1324.17   39.10
  -2   0  -9 1257.47   37.60
  -2   0  -9 1281.47   38.90
  -2   0  -9 1318.17   37.00
   2   0   9 1255.77   36.40
   2   0   9 1347.17   36.90
   2   0   9 1290.57   36.80
  -3   0  -9  296.07   10.00
   3   0   9  283.47    9.30
   3   0   9  289.17    9.20
   3   0   9  281.67   19.20
  -4   0  -9  152.08    5.20
  -4   0  -9  146.19    5.30
  -4   0  -9  141.09    4.90
  -4   0  -9  149.49    5.70
  -4   0  -9  141.49    6.90
   4   0   9  143.89    4.90
   4   0   9  152.88   13.60
   4   0   9  151.88    5.50
   4   0   9  143.19    5.30
  -5   0  -9  153.58    5.30
  -5   0  -9  153.08    4.90
  -5   0  -9  144.39    5.30
  -5   0  -9  156.18    6.70
  -5   0  -9  155.88    5.10
   5   0   9  149.39    5.40
   5   0   9  148.89    5.30
   5   0   9  155.38    5.00
   5   0   9  159.28   13.70
  -6   0  -9  103.89    3.30
  -6   0  -9  102.29    3.80
  -6   0  -9  108.59    3.40
  -6   0  -9  107.99    4.30
   6   0   9   98.19   10.00
   6   0   9  109.39    3.50
   7  -1  -9  140.19    4.80
   7  -1  -9  134.29    4.70
   7  -1  -9  141.29    4.90
  -7   1   9  131.89    4.40
   6  -1  -9   21.00    1.60
   6  -1  -9   20.70    1.60
   6  -1  -9   19.90    1.50
   6  -1  -9   20.40    1.60
  -6   1   9   22.20    1.40
   5  -1  -9   66.99    3.40
   5  -1  -9   67.79    2.40
   5  -1  -9   71.89    3.30
   5  -1  -9   72.59    3.40
   5  -1  -9   73.49    3.60
  -5   1   9   72.39    2.80
   4  -1  -9   26.10    2.00
   4  -1  -9   27.10    2.00
   4  -1  -9   31.00    2.00
   4  -1  -9   27.70    2.20
   4  -1  -9   27.00    1.90
  -4   1   9   29.20    1.60
   3  -1  -9  838.82   25.10
   3  -1  -9  834.12   24.80
   3  -1  -9  874.61   24.60
   3  -1  -9  829.02   24.60
   3  -1  -9  842.42   24.50
   3  -1  -9  811.12   26.90
   2  -1  -9  253.37    8.80
   2  -1  -9  233.08    9.10
   2  -1  -9  245.78    9.00
   2  -1  -9  258.97    8.50
   2  -1  -9  256.17    8.60
   1  -1  -9  150.38    7.20
   1  -1  -9  159.98    5.80
   1  -1  -9  150.48    5.70
   1  -1  -9  153.38    6.50
   1  -1  -9  163.48    5.90
   1  -1  -9  158.58    6.10
  -1   1   9  147.39    4.90
   0  -1  -9  149.39    5.10
   0  -1  -9  152.38    5.40
   0  -1  -9  155.48    5.70
   0  -1  -9  142.49    6.60
   0  -1  -9  156.88    4.80
   0  -1  -9  141.59    7.30
   0  -1  -9  148.89    5.80
   0  -1  -9  143.99    5.50
   0   1   9  142.79    5.00
  -1  -1  -9 2671.33   74.29
  -1  -1  -9 2679.33   74.69
  -1  -1  -9 2673.23   77.29
  -1  -1  -9 2547.75   73.89
  -1  -1  -9 2600.54   73.39
  -1  -1  -9 2862.31   74.59
  -1  -1  -9 2659.63   76.19
   1   1   9 2642.74   73.89
   1   1   9 2721.93   73.99
  -2  -1  -9  127.59    7.60
  -2  -1  -9  123.29    4.30
  -2  -1  -9  133.69    4.80
  -2  -1  -9  131.09    5.20
  -2  -1  -9  128.19    4.90
  -2  -1  -9  127.49    4.70
  -2  -1  -9  128.49    5.30
  -2  -1  -9  127.39    6.90
   2   1   9  120.99    4.40
   2   1   9  134.19    4.90
   2   1   9  129.19    4.70
  -3  -1  -9 2105.89   57.49
  -3  -1  -9 2075.79   57.39
  -3  -1  -9 2066.59   58.09
  -3  -1  -9 1921.61   56.99
  -3  -1  -9 2009.60   57.39
  -3  -1  -9 2039.10   58.59
   3   1   9 2155.88   57.99
   3   1   9 2088.59   57.69
   3   1   9 2042.30   57.19
   3   1   9 2142.19   73.19
  -4  -1  -9   84.99    4.00
  -4  -1  -9   86.59    3.70
  -4  -1  -9   85.39    4.10
  -4  -1  -9   86.09    3.20
   4   1   9   94.59    3.70
   4   1   9   89.29    3.40
   4   1   9   90.49   10.00
   4   1   9   86.59    3.70
  -5  -1  -9   70.99    2.70
  -5  -1  -9   75.99    3.40
  -5  -1  -9   77.09    3.30
  -5  -1  -9   74.49    2.60
   5   1   9   76.19    8.90
   5   1   9   66.89    3.10
   5   1   9   74.69    2.80
   5   1   9   72.89    2.90
   7  -2  -9   81.89    3.10
   7  -2  -9   77.49    3.00
   7  -2  -9   77.99    3.10
  -7   2   9   76.29    2.80
   6  -2  -9    7.60    1.00
   6  -2  -9    8.20    1.10
   6  -2  -9    8.60    0.60
   6  -2  -9    9.20    1.10
   6  -2  -9    8.10    1.10
  -6   2   9    8.70    1.00
   5  -2  -9  445.46   13.30
   5  -2  -9  410.96   13.40
   5  -2  -9  417.96   13.30
   5  -2  -9  427.96   13.40
   5  -2  -9  416.66   12.00
  -5   2   9  433.86   12.80
   4  -2  -9   99.39    4.10
   4  -2  -9   93.49    4.20
   4  -2  -9  101.29    3.90
   4  -2  -9   95.19    4.20
   4  -2  -9   93.19    4.30
   3  -2  -9  511.45   15.40
   3  -2  -9  508.35   15.90
   3  -2  -9  523.65   15.60
   3  -2  -9  484.15   15.40
   3  -2  -9  500.45   15.70
   2  -2  -9  596.54   18.30
   2  -2  -9  626.44   18.70
   2  -2  -9  614.64   18.20
   2  -2  -9  611.24   17.90
   2  -2  -9  599.24   17.40
   1  -2  -9 1246.28   34.90
   1  -2  -9 1217.18   35.90
   1  -2  -9 1262.57   37.70
   1  -2  -9 1265.37   35.80
   1  -2  -9 1286.07   36.00
   1  -2  -9 1285.97   42.80
   1  -2  -9 1263.87   35.30
   1  -2  -9 1286.17   36.20
  -1   2   9 1238.08   35.10
   0  -2  -9  162.48    6.10
   0  -2  -9  168.48    5.20
   0  -2  -9  168.78    6.10
   0  -2  -9  164.08    7.50
   0  -2  -9  171.58    6.00
   0  -2  -9  158.68    8.30
   0  -2  -9  168.98    5.60
   0   2   9  166.68    5.60
  -1  -2  -9   15.40    2.20
   1   2   9   19.20    1.40
   1   2   9   20.90    4.90
   1   2   9   17.20    1.40
  -2  -2  -9  478.55   13.90
  -2  -2  -9  450.95   13.80
  -2  -2  -9  443.06   13.40
  -2  -2  -9  457.45   14.30
   2   2   9  471.85   24.50
   2   2   9  476.15   14.10
   2   2   9  455.45   13.60
   2   2   9  462.15   14.00
  -3  -2  -9  266.87    8.20
  -3  -2  -9  251.87    7.90
  -3  -2  -9  258.67    8.10
  -3  -2  -9  263.37    8.60
   3   2   9  265.87    8.50
   3   2   9  268.67   17.50
   3   2   9  261.47    8.50
   3   2   9  249.58    8.60
  -4  -2  -9   22.20    1.40
  -4  -2  -9   21.00    1.20
  -4  -2  -9   20.90    1.10
  -4  -2  -9   20.90    1.10
  -4  -2  -9   20.40    1.20
   4   2   9   21.30    1.30
   4   2   9   24.50    1.50
   4   2   9   17.80    1.40
   4   2   9   20.10    5.10
  -5  -2  -9  524.05   15.60
  -5  -2  -9  574.74   15.50
   5   2   9  565.74   15.70
   5   2   9  537.85   15.70
   7  -3  -9   28.90    1.40
   7  -3  -9   28.00    1.50
   7  -3  -9   28.70    1.50
   7  -3  -9   29.20    1.40
   6  -3  -9   73.39    3.10
   6  -3  -9   72.69    3.10
   6  -3  -9   72.79    2.30
   6  -3  -9   71.29    3.10
   6  -3  -9   77.49    3.20
   5  -3  -9   45.80    1.70
   5  -3  -9   49.20    2.60
   5  -3  -9   49.30    2.70
   5  -3  -9   48.80    2.50
   5  -3  -9   44.80    2.50
   4  -3  -9  411.86   12.90
   4  -3  -9  405.46   12.90
   4  -3  -9  440.26   13.20
   4  -3  -9  409.06   12.90
   3  -3  -9   22.90    1.50
   3  -3  -9   21.90    1.40
   3  -3  -9   19.50    2.00
   3  -3  -9   19.30    1.80
   3  -3  -9   22.30    1.20
   3  -3  -9   19.60    2.10
   2  -3  -9 2171.88   60.79
   2  -3  -9 2196.28   60.89
   2  -3  -9 2139.49   59.99
   2  -3  -9 2255.37   60.89
   2  -3  -9 2190.88   61.19
   2  -3  -9 2171.78   60.29
   1  -3  -9   89.19    3.80
   1  -3  -9   90.19    3.90
   1  -3  -9   90.79    3.70
   1  -3  -9   89.29    3.30
   1  -3  -9   95.19    3.10
  -1   3   9   87.49    3.40
   0  -3  -9 1473.85   42.00
   0  -3  -9 1501.15   42.20
   0  -3  -9 1543.75   42.30
   0  -3  -9 1493.75   41.60
   0  -3  -9 1521.65   42.60
   0   3   9 1484.35   42.10
  -1  -3  -9  559.34   16.20
  -1  -3  -9  536.85   17.00
  -1  -3  -9  571.14   16.70
  -1  -3  -9  575.84   16.50
  -1  -3  -9  565.74   16.50
   1   3   9  583.64   16.80
   1   3   9  565.54   16.80
  -2  -3  -9   23.30    1.50
  -2  -3  -9   23.30    1.50
  -2  -3  -9   23.30    1.40
  -2  -3  -9   22.50    1.70
  -2  -3  -9   23.70    1.50
   2   3   9   22.70    1.50
   2   3   9   25.70    1.70
   2   3   9   26.70    1.70
  -3  -3  -9   34.50    1.70
  -3  -3  -9   33.80    1.50
  -3  -3  -9   36.40    1.60
  -3  -3  -9   34.30    1.60
  -3  -3  -9   33.90    1.80
   3   3   9   32.30    1.70
   3   3   9   31.90    1.90
   3   3   9   34.40    2.00
  -4  -3  -9   30.60    1.30
  -4  -3  -9   31.70    1.30
  -4  -3  -9   28.10    1.40
   4   3   9   31.20    1.70
   4   3   9   32.60    1.50
   6  -4  -9   87.09    3.20
   6  -4  -9   82.29    2.90
   6  -4  -9   83.39    3.30
   6  -4  -9   87.49    3.30
   5  -4  -9  187.28    5.40
   5  -4  -9  172.78    6.60
   5  -4  -9  184.48    6.10
   5  -4  -9  188.08    6.20
   4  -4  -9  257.07    8.00
   4  -4  -9  245.28    8.10
   4  -4  -9  256.57    7.50
   3  -4  -9   79.19    3.10
   3  -4  -9   82.19    2.90
   3  -4  -9   79.49    2.60
   3  -4  -9   83.79    3.10
   2  -4  -9  264.87    8.30
   2  -4  -9  276.17    8.40
   2  -4  -9  269.17    8.00
   2  -4  -9  263.07    7.70
   2  -4  -9  259.37    9.10
   1  -4  -9  392.66   11.80
   1  -4  -9  387.56   11.60
   1  -4  -9  383.06   11.30
   1  -4  -9  376.46   11.10
   0  -4  -9   78.09    3.00
   0  -4  -9   78.09    3.30
   0  -4  -9   79.29    3.00
   0  -4  -9   77.49    3.10
   0  -4  -9   78.89    2.80
   0   4   9   81.39    3.20
  -1  -4  -9  148.39    5.30
  -1  -4  -9  154.68    5.10
  -1  -4  -9  153.78    5.10
  -1  -4  -9  154.68    4.80
  -1  -4  -9  157.78    5.00
   1   4   9  149.59    5.40
   1   4   9  156.38    5.40
  -2  -4  -9  139.29    4.30
  -2  -4  -9  142.09    4.60
  -2  -4  -9  132.59    4.70
  -2  -4  -9  138.99    4.50
  -2  -4  -9  132.19    4.40
   2   4   9  140.49    8.20
   2   4   9  141.29    4.90
   2   4   9  140.99    4.90
  -3  -4  -9   92.29    3.00
  -3  -4  -9   94.49    3.00
  -3  -4  -9   92.99    3.10
  -3  -4  -9   94.19    3.00
   3   4   9   87.69    3.80
   3   4   9   91.89    3.40
   3   4   9   91.69    3.20
   6  -5  -9   99.99    3.30
   5  -5  -9   39.30    1.40
   4  -5  -9  566.84   15.20
   4  -5  -9  531.25   15.50
   3  -5  -9   50.19    1.70
   3  -5  -9   53.59    2.00
   3  -5  -9   49.80    1.80
   3  -5  -9   50.99    2.00
   2  -5  -9 1057.09   27.60
   2  -5  -9  980.20   27.40
   2  -5  -9  980.80   27.70
   2  -5  -9  967.30   27.30
   2  -5  -9  947.01   27.60
   1  -5  -9   43.30    1.60
   1  -5  -9   43.60    1.80
   1  -5  -9   48.20    1.90
   1  -5  -9   41.60    2.00
   1  -5  -9   40.80    1.80
  -1   5   9   37.80    2.10
   0  -5  -9  118.69    3.70
   0  -5  -9  120.09    4.10
   0  -5  -9  115.39    3.90
   0  -5  -9  117.89    3.80
   0   5   9  113.49    4.10
   0   5   9  112.79    4.20
  -1  -5  -9   13.20    1.00
  -1  -5  -9   13.00    0.90
  -1  -5  -9   12.00    1.00
  -1  -5  -9   12.70    1.20
  -1  -5  -9   13.10    0.80
   1   5   9   11.90    1.20
   1   5   9   10.90    1.30
  -2  -5  -9   31.40    1.20
  -2  -5  -9   31.00    1.30
  -2  -5  -9   31.00    1.20
   2   5   9   30.50    1.60
   2   5   9   29.50    1.40
   4  -6  -9   31.30    1.20
   4  -6  -9   31.70    1.10
   3  -6  -9  121.39    3.80
   3  -6  -9  122.59    3.60
   3  -6  -9  126.89    3.90
   3  -6  -9  126.99    3.70
   2  -6  -9   91.59    2.80
   2  -6  -9   94.29    3.10
   2  -6  -9   89.29    3.00
   2  -6  -9   93.79    2.90
   1  -6  -9  241.28    7.70
   1  -6  -9  242.18    7.00
   1  -6  -9  248.38    7.30
   1  -6  -9  245.08    7.10
   0  -6  -9   24.40    1.00
   0  -6  -9   25.30    1.10
   0  -6  -9   25.90    1.10
   0  -6  -9   25.10    1.00
  -1   9 -10  144.89    8.80
   1  -9  10  148.39    4.80
   1  -9  10  151.18    5.60
  -2   9 -10   48.00    5.00
   2  -9  10   48.70    2.40
   2  -9  10   44.50    2.00
  -3   9 -10   26.20    4.20
   3  -9  10   23.60    1.60
   3  -9  10   23.30    1.50
   1   8 -10   31.10    4.30
   1   8 -10   30.40    1.60
  -1  -8  10   31.30    1.60
  -1  -8  10   31.50    1.10
   0   8 -10   67.49    2.80
   0   8 -10   72.89    6.80
   0  -8  10   72.29    2.90
   0  -8  10   72.79    2.30
  -1   8 -10   57.89    2.50
  -1   8 -10   58.59    6.50
   1  -8  10   58.89    2.60
  -2   8 -10   41.10    5.60
   2  -8  10   40.10    2.00
   2  -8  10   41.50    1.70
   2  -8  10   44.80    2.70
  -3   8 -10   23.10    4.30
   3  -8  10   26.50    2.00
   3  -8  10   22.00    1.60
   4  -8  10   31.20    2.10
  -5   8 -10   29.90    3.50
   5  -8  10   34.80    2.00
  -3  -7  10    9.60    0.60
   2   7 -10  403.76   16.90
  -2  -7  10  392.96   11.90
   1   7 -10  112.49    9.00
   1   7 -10  117.79    4.50
  -1  -7  10  113.19    4.20
  -1  -7  10  111.99    3.70
   0   7 -10   24.60    1.80
   0  -7  10   27.20    1.30
   0  -7  10   27.40    1.70
   0  -7  10   26.10    1.50
  -1   7 -10  126.09    4.80
  -1   7 -10  129.59   10.80
   1  -7  10  131.59    4.30
   1  -7  10  140.29    5.20
   1  -7  10  132.19    4.40
  -2   7 -10   80.49    8.40
   2  -7  10   76.29    3.70
   2  -7  10   77.09    2.80
   3  -7  10   59.09    2.60
   3  -7  10   60.09    2.20
   4  -7  10  157.28    6.20
   4  -7  10  145.89    4.60
  -5   7 -10   82.19    5.70
   5  -7  10   92.59    4.10
   6  -7  10   63.59    2.90
   4   6 -10  106.19    3.70
  -4  -6  10  103.09    3.20
   3   6 -10  397.56   12.20
  -3  -6  10  413.76   11.50
  -3  -6  10  380.36   12.50
  -3  -6  10  396.26   11.90
   2   6 -10  162.38    6.00
   2   6 -10  156.38   10.70
  -2  -6  10  163.18    5.30
  -2  -6  10  159.48    5.10
  -2  -6  10  161.38    5.60
  -2  -6  10  155.48    5.50
   1   6 -10  977.50   36.80
   1   6 -10  956.70   27.90
  -1  -6  10  921.21   27.00
  -1  -6  10  931.61   27.10
  -1  -6  10  947.51   26.60
  -1  -6  10  921.41   26.80
   0   6 -10   94.89    4.20
   0   6 -10   89.29    9.20
   0  -6  10   98.79    3.50
   0  -6  10   96.39    3.80
   0  -6  10   94.69    3.70
   0  -6  10   92.89    3.80
  -1   6 -10   28.70    2.00
  -1   6 -10   32.70    5.90
   1  -6  10   27.70    1.50
   1  -6  10   28.10    1.90
   1  -6  10   28.80    1.70
   1  -6  10   27.00    1.80
  -2   6 -10  225.58   15.20
  -2   6 -10  223.68    7.50
   2  -6  10  219.88    7.50
   2  -6  10  231.08    7.40
   2  -6  10  230.18    7.30
   2  -6  10  228.58    7.10
  -3   6 -10  263.77   16.20
   3  -6  10  258.87    7.80
   3  -6  10  251.97    8.00
   4  -6  10  212.88   14.10
   4  -6  10  211.98    6.50
  -5   6 -10   75.79    5.70
   5  -6  10   88.29    4.20
   5  -6  10   87.29    2.80
  -6   6 -10   64.49    4.50
   6  -6  10   63.69    3.20
   4   5 -10   58.69    2.70
  -4  -5  10   57.19    2.10
  -4  -5  10   52.89    2.40
  -4  -5  10   57.49    2.30
  -4  -5  10   56.49    2.40
   3   5 -10  104.09    4.00
   3   5 -10  101.99    4.20
  -3  -5  10   96.49    4.10
  -3  -5  10   97.79    4.10
  -3  -5  10   96.89    3.50
   2   5 -10  154.38    5.40
   2   5 -10  157.28    6.20
   2   5 -10  166.78   11.70
  -2  -5  10  163.98    5.80
  -2  -5  10  171.28    5.40
  -2  -5  10  165.08    5.70
  -2  -5  10  157.68    5.70
   1   5 -10  361.56   19.40
   1   5 -10  354.66   11.60
   1   5 -10  359.86   11.30
  -1  -5  10  346.77   10.90
  -1  -5  10  350.66   11.00
  -1  -5  10  342.27   10.50
   0   5 -10  204.08    7.10
   0   5 -10  193.28   16.10
   0   5 -10  197.58    7.30
   0  -5  10  201.18    7.00
   0  -5  10  199.38    6.90
   0  -5  10  195.68    6.40
   0  -5  10  203.48    6.90
  -1   5 -10  791.52   23.50
  -1   5 -10  805.72   23.40
   1  -5  10  820.42   24.90
   1  -5  10  803.12   23.20
   1  -5  10  766.62   23.60
   1  -5  10  787.32   22.70
  -2   5 -10  156.78   12.80
  -2   5 -10  153.78    5.70
  -2   5 -10  156.28    5.70
   2  -5  10  155.68    5.60
   2  -5  10  152.48    5.70
   2  -5  10  162.48    5.20
   3  -5  10   16.60    1.10
   3  -5  10   17.90    1.30
   3  -5  10   14.30    1.50
   4  -5  10  311.37    9.20
   4  -5  10  314.57   19.20
   4  -5  10  300.77    9.40
  -5   5 -10  187.78    9.90
   5  -5  10  201.68   14.20
   5  -5  10  199.88    6.00
  -6   5 -10   25.40    3.80
   6  -5  10   24.70    1.00
   6  -5  10   24.70    4.60
   5   4 -10   10.90    1.00
   5   4 -10    9.50    0.90
  -5  -4  10   10.10    1.10
  -5  -4  10   10.20    0.70
  -5  -4  10    9.00    1.30
   4   4 -10  150.88    5.10
   4   4 -10  155.08    5.60
   4   4 -10  144.39    5.40
   4   4 -10  145.49    5.10
  -4  -4  10  148.09    5.20
  -4  -4  10  145.69    5.10
   3   4 -10  169.78    6.40
   3   4 -10  178.78    6.10
   3   4 -10  174.38    6.60
   3   4 -10  164.18    7.00
  -3  -4  10  176.28    6.00
  -3  -4  10  174.78    6.10
  -3  -4  10  183.68    6.10
   2   4 -10  115.89    4.50
   2   4 -10  110.09    9.80
   2   4 -10  109.79    4.90
   2   4 -10  114.69    4.80
   2   4 -10  122.79    4.50
  -2  -4  10  113.39    4.40
  -2  -4  10  113.19    4.40
  -2  -4  10  117.09    4.40
  -2  -4  10  107.89    4.00
   1   4 -10  106.39    6.30
   1   4 -10  120.29   10.60
   1   4 -10  115.09    6.10
  -1  -4  10  120.19    4.50
  -1  -4  10  115.79    4.40
  -1  -4  10  111.89    4.30
   0   4 -10  211.48   14.70
   0   4 -10  211.98    7.70
   0   4 -10  215.48    7.30
   0   4 -10  206.08    7.70
   0   4 -10  221.78    9.70
   0  -4  10  220.88    7.20
   0  -4  10  228.58    7.40
   0  -4  10  213.28    6.90
   0  -4  10  221.58    7.10
  -1   4 -10  247.78   16.40
  -1   4 -10  258.77    8.90
  -1   4 -10  255.27    8.90
   1  -4  10  260.67    8.40
   1  -4  10  263.47    8.10
   1  -4  10  275.17    8.60
  -2   4 -10   14.00    1.40
  -2   4 -10    9.40    1.30
  -2   4 -10    5.80    2.50
   2  -4  10    9.70    1.00
   2  -4  10    9.30    0.90
   2  -4  10   10.40    1.20
  -3   4 -10 1144.59   31.80
  -3   4 -10 1048.20   31.40
   3  -4  10 1119.19   31.50
   3  -4  10 1124.09   31.70
   3  -4  10 1100.09   31.10
  -4   4 -10  323.17   15.00
   4  -4  10  360.86   10.80
   4  -4  10  349.37   11.00
   4  -4  10  364.46   21.80
   4  -4  10  358.56   10.50
  -5   4 -10   28.30    3.50
   5  -4  10   32.80    1.50
   5  -4  10   30.90    7.30
   5  -4  10   31.90    1.70
  -6   4 -10    2.70    1.30
   6  -4  10    2.80    2.00
   6   3 -10   42.20    2.00
   6   3 -10   48.00    2.10
  -6  -3  10   46.10    1.90
  -6  -3  10   48.60    1.90
  -6  -3  10   47.70    1.90
   5   3 -10   86.99    3.30
   5   3 -10   90.49    4.20
   5   3 -10   89.39    3.90
   5   3 -10   85.89    3.70
  -5  -3  10   88.59    3.10
  -5  -3  10   90.49    3.40
  -5  -3  10   91.09    3.40
  -5  -3  10   90.69    3.50
   4   3 -10   32.80    2.20
   4   3 -10   27.70    2.10
   4   3 -10   26.20    1.80
  -4  -3  10   29.10    1.70
  -4  -3  10   27.20    1.70
  -4  -3  10   26.90    1.70
  -4  -3  10   27.70    1.40
   3   3 -10   17.30    1.60
   3   3 -10   19.30    1.80
   3   3 -10   19.20    1.80
   3   3 -10   20.20    1.50
  -3  -3  10   17.70    1.20
  -3  -3  10   19.40    1.40
  -3  -3  10   19.00    1.40
   2   3 -10  577.44   19.00
   2   3 -10  601.04   18.80
   2   3 -10  609.24   19.60
  -2  -3  10  587.44   17.30
  -2  -3  10  581.54   17.30
  -2  -3  10  573.54   17.30
   1   3 -10    9.80    3.10
   1   3 -10    3.70    1.10
   1   3 -10    7.40    3.50
   1   3 -10    2.30    0.80
   1   3 -10    3.50    1.00
   1   3 -10    4.10    0.80
  -1  -3  10    3.60    0.70
  -1  -3  10    4.50    0.80
  -1  -3  10    4.30    0.70
  -1  -3  10    6.00    0.90
   0   3 -10 1586.84   55.79
   0   3 -10 1605.14   44.30
   0   3 -10 1455.25   48.60
   0   3 -10 1616.74   44.90
   0   3 -10 1602.64   44.80
   0  -3  10 1535.95   43.60
   0  -3  10 1566.84   44.00
   0  -3  10 1574.44   44.10
  -1   3 -10  291.27   10.10
  -1   3 -10  294.57    9.80
  -1   3 -10  280.47    9.60
   1  -3  10  283.27    9.10
   1  -3  10  277.37    8.70
   1  -3  10  293.37    9.20
  -2   3 -10  130.19    5.10
  -2   3 -10  139.69    5.40
  -2   3 -10  122.19    6.60
   2  -3  10  135.09    4.60
   2  -3  10  140.19    5.10
   2  -3  10  145.59    5.00
  -3   3 -10  248.98    8.10
  -3   3 -10  239.08    7.80
  -3   3 -10  214.08   11.20
   3  -3  10  249.88    7.50
   3  -3  10  233.58    8.10
   3  -3  10  245.48    8.00
  -4   3 -10 1387.96   45.30
   4  -3  10 1457.75   40.70
   4  -3  10 1422.96   40.80
   4  -3  10 1480.05   56.19
   4  -3  10 1469.05   40.20
  -5   3 -10   92.39    5.90
   5  -3  10   84.99    3.70
   5  -3  10   95.99   10.20
   5  -3  10   93.69    3.50
   5  -3  10   93.09    3.30
  -6   3 -10   10.80    1.70
  -6   3 -10    8.60    0.90
   6  -3  10    9.20    3.20
   6  -3  10    9.80    0.80
   6   2 -10   68.69    2.60
   6   2 -10   72.19    2.90
   6   2 -10   64.29    2.70
  -6  -2  10   69.09    2.60
  -6  -2  10   72.69    2.40
  -6  -2  10   68.69    2.70
  -6  -2  10   65.49    2.60
   5   2 -10    2.20    0.60
   5   2 -10    3.60    0.80
   5   2 -10    1.90    0.60
   5   2 -10    0.90    0.70
  -5  -2  10    2.60    0.60
  -5  -2  10    2.60    0.50
  -5  -2  10    3.10    0.60
   4   2 -10  193.48    7.20
   4   2 -10  199.28    7.00
   4   2 -10  188.78    6.90
  -4  -2  10  190.88    6.50
   3   2 -10  862.51   25.30
   3   2 -10  883.61   25.40
   3   2 -10  866.31   25.00
   3   2 -10  838.12   25.50
  -3  -2  10  875.81   24.60
  -3  -2  10  829.12   24.50
  -3  -2  10  839.12   24.70
   2   2 -10  597.24   18.10
   2   2 -10  582.04   18.20
   2   2 -10  598.24   17.90
   2   2 -10  582.24   17.50
   2   2 -10  574.24   20.00
  -2  -2  10  581.44   17.20
  -2  -2  10  602.94   17.20
  -2  -2  10  570.34   17.20
   1   2 -10   45.80    2.40
   1   2 -10   45.30    2.80
   1   2 -10   52.19    4.80
   1   2 -10   46.30    2.80
   1   2 -10   45.40    2.60
  -1  -2  10   42.50    2.20
  -1  -2  10   47.60    2.30
   0   2 -10 1365.86   38.30
   0   2 -10 1351.36   38.40
   0   2 -10 1307.67   38.90
   0   2 -10 1408.56   38.90
   0   2 -10 1311.37   38.60
   0  -2  10 1298.77   37.70
   0  -2  10 1366.36   37.90
  -1   2 -10   51.79    2.80
  -1   2 -10   46.20    3.50
  -1   2 -10   49.99    2.90
   1  -2  10   47.00    2.30
   1  -2  10   50.19    2.40
   1  -2  10   47.30    2.20
  -2   2 -10   60.29    4.90
  -2   2 -10   69.49    3.40
  -2   2 -10   65.79    4.30
  -2   2 -10   61.89    3.10
   2  -2  10   65.09    2.90
   2  -2  10   63.69    2.60
   2  -2  10   73.59    3.10
  -3   2 -10   35.40    2.10
  -3   2 -10   41.10    4.00
  -3   2 -10   39.20    2.30
   3  -2  10   46.40    2.40
   3  -2  10   40.80    1.90
  -4   2 -10    4.40    0.80
  -4   2 -10    2.10    1.30
  -4   2 -10    2.80    0.80
   4  -2  10    3.60    0.70
   4  -2  10    3.90    0.60
   4  -2  10    4.10    0.80
   4  -2  10    2.30    2.10
  -5   2 -10   27.00    2.80
  -5   2 -10   27.80    1.60
  -5   2 -10   28.70    1.90
   5  -2  10   26.30    7.40
   5  -2  10   27.20    1.40
   5  -2  10   26.10    1.80
   5  -2  10   29.20    1.70
  -6   2 -10   94.49    3.20
  -6   2 -10   91.79    5.00
  -6   2 -10   89.29    3.30
   6  -2  10   95.49    9.50
   6  -2  10   89.79    3.10
   6   1 -10   30.80    2.00
   6   1 -10   33.80    1.70
   6   1 -10   36.30    2.00
  -6  -1  10   34.60    1.70
  -6  -1  10   34.10    1.50
   5   1 -10   85.69    3.40
   5   1 -10   86.89    3.70
   5   1 -10   81.09    3.80
   5   1 -10   79.39    3.40
  -5  -1  10   82.49    3.20
  -5  -1  10   82.29    3.20
   4   1 -10  512.45   16.00
   4   1 -10  505.75   15.50
   4   1 -10  516.45   15.80
   4   1 -10  512.55   15.60
  -4  -1  10  503.15   15.00
  -4  -1  10  507.25   15.00
   3   1 -10  412.96   13.00
   3   1 -10  415.76   13.30
   3   1 -10  419.36   13.30
   3   1 -10  418.86   13.60
  -3  -1  10  417.26   12.50
   2   1 -10 1900.51   53.19
   2   1 -10 1949.30   53.79
   2   1 -10 1974.40   53.69
   2   1 -10 1749.22   56.99
   2   1 -10 1972.80   54.09
  -2  -1  10 1818.72   52.69
  -2  -1  10 1921.41   52.69
   1   1 -10 1499.15   41.30
   1   1 -10 1419.06   40.70
   1   1 -10 1434.86   41.00
   1   1 -10 1472.05   41.90
   1   1 -10 1501.15   41.60
  -1  -1  10 1391.16   40.50
  -1  -1  10 1428.26   40.50
   0   1 -10  770.42   24.50
   0   1 -10  824.02   24.20
   0   1 -10  832.02   23.90
   0   1 -10  805.42   23.60
   0   1 -10  817.42   23.90
   0   1 -10  821.82   23.10
   0  -1  10  764.22   23.10
   0  -1  10  827.02   23.20
  -1   1 -10  594.64   18.20
  -1   1 -10  576.24   19.50
  -1   1 -10  614.04   18.50
  -1   1 -10  617.24   18.50
  -1   1 -10  586.84   19.40
  -1   1 -10  597.94   17.70
   1  -1  10  593.44   17.60
   1  -1  10  643.14   17.90
  -2   1 -10  133.79    6.70
  -2   1 -10  136.29    6.80
  -2   1 -10  134.69    4.90
  -2   1 -10  130.99    5.00
  -2   1 -10  129.49    5.50
  -2   1 -10  140.19    5.30
   2  -1  10  133.29    5.00
   2  -1  10  137.69    4.90
   2  -1  10  131.39    4.50
  -3   1 -10  390.56   14.30
  -3   1 -10  363.46   12.40
  -3   1 -10  384.16   11.60
  -3   1 -10  385.36   11.80
   3  -1  10  377.36   11.90
   3  -1  10  379.86   11.80
   3  -1  10  389.36   11.40
  -4   1 -10  449.86   14.10
  -4   1 -10  427.16   13.30
  -4   1 -10  441.56   15.80
  -4   1 -10  444.76   13.50
   4  -1  10  466.95   13.60
   4  -1  10  458.05   25.20
   4  -1  10  459.75   13.70
   4  -1  10  437.26   13.10
  -5   1 -10   31.70    1.90
  -5   1 -10   31.90    2.60
  -5   1 -10   33.80    1.70
   5  -1  10   31.80    1.70
   5  -1  10   32.80    1.50
   5  -1  10   30.20    1.90
   5  -1  10   32.60    5.80
  -6   1 -10  131.69    4.10
  -6   1 -10  138.69    5.00
  -6   1 -10  136.59    4.10
  -6   1 -10  128.39    4.20
   6  -1  10  131.89   11.00
   6  -1  10  133.79    4.20
   6   0 -10   48.40    2.20
   6   0 -10   44.80    2.30
   6   0 -10   44.50    2.40
  -6   0  10   44.20    2.00
  -6   0  10   45.30    2.00
   5   0 -10   62.49    3.00
   5   0 -10   63.09    2.80
   5   0 -10   64.99    3.20
   5   0 -10   60.79    3.20
  -5   0  10   67.89    2.70
  -5   0  10   66.09    2.70
   4   0 -10   77.19    3.50
   4   0 -10   74.69    3.80
   4   0 -10   76.49    3.60
   4   0 -10   82.09    3.50
  -4   0  10   74.49    3.00
  -4   0  10   73.09    3.20
   3   0 -10  694.83   20.60
   3   0 -10  668.63   20.80
   3   0 -10  687.33   20.40
   3   0 -10  700.03   20.30
  -3   0  10  656.83   19.50
   2   0 -10 1093.39   31.80
   2   0 -10 1132.39   32.30
   2   0 -10 1109.39   32.30
   2   0 -10 1123.59   32.70
  -2   0  10 1119.79   31.30
   1   0 -10  366.16   11.60
   1   0 -10  359.56   10.70
   1   0 -10  361.56   11.50
   1   0 -10  347.87   11.30
   1   0 -10  363.86   12.00
  -1   0  10  351.46   10.70
   0   0 -10 3508.15  100.99
   0   0 -10 3753.62  102.09
   0   0 -10 3815.62  101.89
   0   0 -10 3624.14  101.79
   0   0 -10 3817.02  101.59
   0   0  10 3522.95  100.99
   0   0  10 3671.13  101.09
  -1   0 -10  231.98    7.90
  -1   0 -10  241.08    8.30
  -1   0 -10  240.18    7.60
  -1   0 -10  235.98    7.10
  -1   0 -10  230.88    9.50
  -1   0 -10  232.58    8.20
   1   0  10  233.68    7.60
   1   0  10  229.78    7.70
  -2   0 -10  960.00   28.50
  -2   0 -10  990.90   27.90
  -2   0 -10  964.20   27.20
  -2   0 -10 1012.60   28.20
  -2   0 -10  971.90   27.80
  -2   0 -10  963.60   28.50
   2   0  10  970.10   28.00
   2   0  10  943.81   27.40
  -3   0 -10  145.49    5.20
  -3   0 -10  150.88    4.90
  -3   0 -10  149.19    5.90
  -3   0 -10  146.89    6.30
  -3   0 -10  144.99    5.30
   3   0  10  153.68    5.10
   3   0  10  155.88   13.60
   3   0  10  155.48    5.50
   3   0  10  155.18    5.50
  -4   0 -10   44.60    2.80
  -4   0 -10   44.60    2.10
  -4   0 -10   41.70    1.90
   4   0  10   44.50    7.50
   4   0  10   41.40    2.20
   4   0  10   43.10    2.00
   4   0  10   43.70    2.30
  -5   0 -10    6.90    0.80
  -5   0 -10   10.30    0.70
  -5   0 -10   10.10    1.20
   5   0  10    7.30    0.90
   5   0  10    9.70    3.20
   5   0  10    9.50    1.20
   5   0  10   10.10    0.80
   6  -1 -10  147.19    5.20
   6  -1 -10  148.79    5.30
   6  -1 -10  144.39    5.00
  -6   1  10  140.09    4.70
  -6   1  10  142.59    4.70
   5  -1 -10   46.50    2.70
   5  -1 -10   46.90    2.40
   5  -1 -10   46.20    2.30
   5  -1 -10   44.80    2.50
  -5   1  10   45.40    2.10
   4  -1 -10  441.76   14.10
   4  -1 -10  450.05   14.30
   4  -1 -10  455.55   13.90
   4  -1 -10  452.95   13.70
   4  -1 -10  460.55   13.60
  -4   1  10  434.56   13.10
   3  -1 -10 1619.04   44.90
   3  -1 -10 1565.14   44.50
   3  -1 -10 1548.15   44.40
   3  -1 -10 1580.94   45.20
   3  -1 -10 1571.34   44.30
  -3   1  10 1570.74   44.10
   2  -1 -10  215.38    9.70
   2  -1 -10  220.88    8.70
  -2   1  10  220.28    6.80
   1  -1 -10 3471.75   95.39
   1  -1 -10 3682.13   95.19
   1  -1 -10 3300.57   94.09
   1  -1 -10 3326.07   95.99
   1  -1 -10 3370.26   94.79
   1  -1 -10 3311.67   94.79
  -1   1  10 3515.95   94.19
   0  -1 -10   88.39    5.30
   0  -1 -10   79.09    4.20
   0  -1 -10   75.99    2.70
   0   1  10   77.59    3.10
   0   1  10   68.99    3.20
  -1  -1 -10 2319.67   62.89
  -1  -1 -10 2190.78   62.99
  -1  -1 -10 2157.38   62.29
  -1  -1 -10 2283.37   62.59
  -1  -1 -10 2201.78   61.79
   1   1  10 2318.17   62.49
  -2  -1 -10  170.38    5.40
  -2  -1 -10  168.58    5.80
  -2  -1 -10  168.98    5.90
  -2  -1 -10  167.68    6.40
   2   1  10  168.58    5.90
   2   1  10  173.08   14.00
   2   1  10  173.18    5.60
   2   1  10  180.48    6.10
  -3  -1 -10  111.19    4.90
   3   1  10   91.79    3.50
   3   1  10   97.09   10.10
   3   1  10   93.89    3.80
   3   1  10   92.99    3.90
  -4  -1 -10  128.89    4.60
  -4  -1 -10  128.09    4.10
  -4  -1 -10  123.79    4.10
  -4  -1 -10  131.09    4.30
   4   1  10  124.49    4.30
   4   1  10  121.79    4.50
   4   1  10  125.39    4.60
   4   1  10  131.89   11.40
  -5  -1 -10  138.59    4.30
  -5  -1 -10  142.59    4.20
  -5  -1 -10  148.69    4.30
   5   1  10  139.49    4.50
   5   1  10  119.39   10.90
   5   1  10  141.49    4.40
   6  -2 -10    6.30    0.90
   6  -2 -10    6.80    0.90
   6  -2 -10    4.90    0.80
   5  -2 -10   53.29    2.70
   5  -2 -10   48.00    2.40
   5  -2 -10   44.20    2.30
   5  -2 -10   44.70    2.30
   4  -2 -10  210.28    7.30
   4  -2 -10  203.98    6.60
   4  -2 -10  206.08    8.70
   4  -2 -10  196.98    7.10
   4  -2 -10  204.68    7.10
   3  -2 -10   58.09    2.80
   3  -2 -10   53.89    2.90
   3  -2 -10   52.89    3.10
   3  -2 -10   62.29    2.80
   3  -2 -10   53.69    2.70
   2  -2 -10  190.68    6.50
   2  -2 -10  184.78    5.80
   2  -2 -10  183.08    6.50
   2  -2 -10  181.28    6.80
   2  -2 -10  185.18    6.20
   1  -2 -10 1226.28   34.10
   1  -2 -10 1215.28   35.10
   1  -2 -10 1222.48   35.20
   1  -2 -10 1232.38   35.00
   1  -2 -10 1224.58   34.60
   1  -2 -10 1273.27   35.50
  -1   2  10 1260.57   34.70
   0  -2 -10  437.86   13.20
   0  -2 -10  453.75   13.70
   0  -2 -10  447.76   13.80
   0  -2 -10  451.15   13.90
   0  -2 -10  448.26   12.80
  -1  -2 -10  523.35   15.20
  -1  -2 -10  510.85   14.50
  -1  -2 -10  504.25   15.20
  -1  -2 -10  497.95   15.50
  -1  -2 -10  489.65   14.90
   1   2  10  531.15   26.00
   1   2  10  516.45   15.10
   1   2  10  485.05   15.10
  -2  -2 -10  471.35   16.40
  -2  -2 -10  482.15   14.00
  -2  -2 -10  513.25   15.20
  -2  -2 -10  460.45   14.20
   2   2  10  448.16   14.10
   2   2  10  483.75   24.90
   2   2  10  446.96   14.00
   2   2  10  438.16   13.60
  -3  -2 -10  109.49    3.90
  -3  -2 -10  110.99    4.20
  -3  -2 -10  110.19    3.70
  -3  -2 -10  107.89    3.80
   3   2  10  108.99    3.90
   3   2  10  114.79    4.30
   3   2  10  115.69   12.10
   3   2  10  114.79    4.20
  -4  -2 -10   90.69    3.10
  -4  -2 -10   88.09    2.90
  -4  -2 -10   88.09    2.90
  -4  -2 -10   84.89    2.90
   4   2  10   87.69    3.10
   4   2  10   83.29    3.30
   6  -3 -10   79.99    3.00
   6  -3 -10   86.19    3.10
   6  -3 -10   84.39    3.00
   5  -3 -10   48.70    3.00
   5  -3 -10   42.20    2.30
   5  -3 -10   46.50    2.40
   4  -3 -10  303.57    9.40
   4  -3 -10  292.57    9.10
   4  -3 -10  286.47    9.00
   4  -3 -10  289.97    9.20
   3  -3 -10    2.50    0.50
   3  -3 -10    2.90    0.80
   3  -3 -10    1.70    1.00
   3  -3 -10    2.30    0.60
   2  -3 -10  193.58    7.00
   2  -3 -10  166.68    5.70
   2  -3 -10  183.88    6.00
   2  -3 -10  177.68    5.80
   2  -3 -10  186.18    6.10
   1  -3 -10  386.76   11.40
   1  -3 -10  370.66   11.30
   1  -3 -10  384.36   11.90
   1  -3 -10  367.46   10.90
   1  -3 -10  345.27   11.20
   0  -3 -10   79.49    3.00
   0  -3 -10   81.29    3.30
   0  -3 -10   80.09    3.40
   0   3  10   82.69    3.30
  -1  -3 -10    0.50    0.30
  -1  -3 -10    1.80    0.60
  -1  -3 -10    0.10    0.30
  -1  -3 -10    0.80    0.40
   1   3  10    0.40    0.50
   1   3  10    0.70    0.60
  -2  -3 -10   43.30    1.90
  -2  -3 -10   42.70    2.10
  -2  -3 -10   44.50    1.70
  -2  -3 -10   45.60    2.00
   2   3  10   44.60    2.20
   2   3  10   48.00    2.10
   2   3  10   44.50    2.20
  -3  -3 -10   39.50    1.60
  -3  -3 -10   36.70    1.70
  -3  -3 -10   39.00    1.60
  -3  -3 -10   37.90    1.50
   3   3  10   36.20    1.70
   3   3  10   35.00    1.90
   3  -4 -10   45.30    2.30
   3  -4 -10   47.20    1.90
   2  -4 -10   54.09    1.80
   2  -4 -10   54.29    2.20
   2  -4 -10   53.69    2.20
   2  -4 -10   54.29    2.00
   1  -4 -10  212.28    6.20
   1  -4 -10  216.98    6.80
   1  -4 -10  207.88    6.60
   1  -4 -10  215.28    6.40
  -1   4  10  198.48    6.60
   0  -4 -10   43.40    1.80
   0  -4 -10   45.70    2.10
   0  -4 -10   43.00    1.60
   0  -4 -10   43.50    2.00
   0   4  10   42.30    2.10
   0   4  10   39.80    2.20
  -1  -4 -10   23.20    1.30
  -1  -4 -10   23.40    1.30
  -1  -4 -10   23.10    1.00
  -1  -4 -10   23.90    1.20
   1   4  10   20.10    1.70
   1   4  10   21.30    1.50
  -2  -4 -10    6.70    0.60
  -2  -4 -10    5.30    0.60
  -2  -4 -10    5.60    0.40
   2   4  10    7.60    0.80
   2   4  10    6.20    0.80
   3  -5 -10  192.28    5.50
   3  -5 -10  192.58    5.70
   2  -5 -10  113.39    3.60
   2  -5 -10  116.39    3.70
   2  -5 -10  117.29    3.50
   2  -5 -10  110.69    3.40
   1  -5 -10   46.60    1.60
   1  -5 -10   45.40    1.70
   1  -5 -10   47.90    1.90
   1  -5 -10   43.90    1.80
   0  -5 -10    0.50    0.20
   0  -5 -10    0.30    0.20
   0  -5 -10    1.00    0.30
   0  -5 -10    0.30    0.20
   0   5  10    0.90    0.60
   0   8 -11   25.50    3.90
   0   8 -11   27.10    1.30
   0  -8  11   25.50    1.10
   0  -8  11   24.90    1.30
  -1   8 -11    1.30    1.80
  -1   8 -11    0.80    0.60
   1  -8  11    0.80    0.40
   1  -8  11    1.30    0.30
  -2   8 -11   28.60    6.10
   2  -8  11   29.70    1.10
   2  -8  11   29.80    1.60
  -3   8 -11   25.30    2.20
   4  -8  11   37.20    2.10
   2   7 -11   91.89    3.40
  -2  -7  11   95.09    2.90
  -2  -7  11   86.49    3.20
   1   7 -11  156.88   10.20
   1   7 -11  156.58    5.30
  -1  -7  11  145.79    5.00
   0   7 -11   14.90    3.90
   0   7 -11   13.90    1.40
   0  -7  11   11.90    1.00
   0  -7  11   13.70    1.10
   0  -7  11   14.50    0.90
  -1   7 -11   25.70    4.80
   1  -7  11   23.10    1.80
   1  -7  11   25.40    1.50
   1  -7  11   26.00    1.20
  -2   7 -11  115.79    9.50
   2  -7  11  134.89    4.90
   2  -7  11  120.69    4.00
   3  -7  11   63.79    2.20
   4  -7  11   24.60    1.00
  -5   7 -11   91.99    5.20
   5  -7  11   85.69    3.90
   3   6 -11  638.64   17.80
  -3  -6  11  578.94   17.20
  -3  -6  11  608.94   17.10
  -3  -6  11  616.04   17.50
   2   6 -11   61.69    2.90
  -2  -6  11   64.69    2.70
  -2  -6  11   57.09    3.00
  -2  -6  11   63.69    2.50
  -2  -6  11   65.79    2.40
   1   6 -11   33.80    5.60
   1   6 -11   42.60    2.30
  -1  -6  11   39.70    2.10
  -1  -6  11   39.60    2.00
  -1  -6  11   40.60    2.00
  -1  -6  11   39.90    1.80
   0   6 -11   41.20    2.40
   0   6 -11   48.50    6.60
   0  -6  11   45.50    2.00
   0  -6  11   44.50    2.20
   0  -6  11   46.30    2.30
   0  -6  11   42.40    2.50
  -1   6 -11  493.85   15.30
  -1   6 -11  503.75   24.10
   1  -6  11  507.05   15.20
   1  -6  11  511.95   15.10
   1  -6  11  515.25   15.00
   1  -6  11  523.65   15.30
  -2   6 -11   85.89    3.50
  -2   6 -11   93.79    9.10
   2  -6  11   88.39    3.20
   2  -6  11   84.59    4.10
   2  -6  11   85.79    4.30
   3  -6  11  105.19    3.50
   3  -6  11  102.69    3.70
  -4   6 -11   98.79    6.40
   4  -6  11   99.49    9.20
   4  -6  11  103.19    3.30
  -5   6 -11  338.57   13.20
   5  -6  11  335.27   20.00
   5  -6  11  355.76    9.70
   4   5 -11  108.39    3.90
  -4  -5  11  115.09    3.50
  -4  -5  11  108.09    3.60
  -4  -5  11  109.19    3.80
   3   5 -11  244.18    7.90
   3   5 -11  238.08    7.40
  -3  -5  11  233.18    7.10
  -3  -5  11  226.78    7.50
  -3  -5  11  233.28    7.30
  -3  -5  11  236.48    7.50
   2   5 -11  168.38    6.30
   2   5 -11  174.38    6.00
  -2  -5  11  172.38    5.90
  -2  -5  11  171.28    5.50
  -2  -5  11  172.68    5.90
  -2  -5  11  168.98    6.40
   1   5 -11 1132.49   33.50
   1   5 -11 1124.69   33.90
   1   5 -11 1240.68   43.60
  -1  -5  11 1193.18   33.50
  -1  -5  11 1216.78   33.40
  -1  -5  11 1159.78   33.30
  -1  -5  11 1171.98   33.20
   0   5 -11   19.80    1.80
   0   5 -11   24.30    5.30
   0   5 -11   20.90    1.80
   0  -5  11   22.10    1.60
   0  -5  11   22.60    1.60
   0  -5  11   26.10    1.40
   0  -5  11   24.10    1.60
  -1   5 -11  137.89    5.20
  -1   5 -11  133.09   11.50
  -1   5 -11  133.69    5.30
   1  -5  11  142.09    4.70
   1  -5  11  135.79    5.00
   1  -5  11  146.19    5.20
  -2   5 -11  234.08    8.20
  -2   5 -11  247.48    8.00
   2  -5  11  248.18    7.90
   2  -5  11  246.58    8.10
   2  -5  11  248.98    7.60
   3  -5  11  109.39    4.00
   3  -5  11  105.09    4.20
   3  -5  11  110.09    3.80
  -4   5 -11  155.28    8.60
   4  -5  11  167.98    5.20
   4  -5  11  161.28    5.30
   4  -5  11  163.58   12.60
  -5   5 -11  465.35   16.80
   5  -5  11  462.15   23.50
   5  -5  11  465.45   13.20
  -6   5 -11   38.90    2.80
  -6   5 -11   38.10    1.80
   4   4 -11   56.99    2.60
   4   4 -11   59.59    2.70
   4   4 -11   56.19    2.30
  -4  -4  11   59.29    2.30
  -4  -4  11   58.49    2.40
  -4  -4  11   58.79    2.40
  -4  -4  11   56.79    2.50
   3   4 -11   19.20    1.70
   3   4 -11   24.90    1.80
   3   4 -11   20.30    1.40
  -3  -4  11   21.00    1.20
  -3  -4  11   21.90    1.40
  -3  -4  11   22.90    1.50
  -3  -4  11   24.00    2.20
   2   4 -11 1097.29   33.30
   2   4 -11 1177.78   33.30
   2   4 -11 1155.98   33.20
  -2  -4  11 1168.28   32.60
  -2  -4  11 1157.58   32.40
  -2  -4  11 1167.98   32.70
  -2  -4  11 1101.09   32.40
   1   4 -11 1490.65   43.90
   1   4 -11 1517.75   44.00
   1   4 -11 1534.75   43.40
  -1  -4  11 1615.44   43.30
  -1  -4  11 1505.65   42.90
  -1  -4  11 1553.04   43.30
  -1  -4  11 1568.84   43.50
   0   4 -11   37.20    2.40
   0   4 -11   33.90    2.30
   0  -4  11   40.90    2.10
   0  -4  11   36.30    1.80
   0  -4  11   38.40    2.20
  -1   4 -11 2587.84   71.69
  -1   4 -11 2518.35   71.69
   1  -4  11 2543.25   70.79
   1  -4  11 2555.94   71.19
   1  -4  11 2623.84   71.39
  -2   4 -11  107.99    4.60
  -2   4 -11  116.49    4.60
   2  -4  11  117.39    4.60
   2  -4  11  121.49    4.10
   2  -4  11  123.79    4.50
  -3   4 -11  227.58   11.30
  -3   4 -11  243.58    8.40
   3  -4  11  260.77    8.30
   3  -4  11  257.67    8.10
   3  -4  11  256.77    7.70
  -4   4 -11  187.28    9.50
   4  -4  11  198.48   15.80
   4  -4  11  189.68    6.70
   4  -4  11  199.88    6.10
  -5   4 -11  191.68    6.80
  -5   4 -11  200.08    8.90
   5  -4  11  201.28   13.90
   5  -4  11  197.28    6.00
  -6   4 -11   28.90    1.30
  -6   4 -11   26.30    1.40
  -6   4 -11   25.00    2.20
   6  -4  11   26.60    1.20
   6  -4  11   27.30    4.40
   5   3 -11   11.80    1.00
   5   3 -11   13.10    0.90
   5   3 -11   13.30    0.90
   5   3 -11   11.80    1.10
  -5  -3  11   11.10    0.90
  -5  -3  11   10.80    0.90
  -5  -3  11   10.60    1.00
  -5  -3  11   10.90    0.70
   4   3 -11   37.80    2.00
   4   3 -11   39.10    1.90
   4   3 -11   40.30    2.20
   4   3 -11   37.80    2.20
  -4  -3  11   35.90    1.60
  -4  -3  11   36.60    1.90
  -4  -3  11   38.80    1.90
  -4  -3  11   37.30    1.90
   3   3 -11   28.40    1.90
   3   3 -11   30.20    2.20
   3   3 -11   30.20    3.10
  -3  -3  11   29.50    1.70
  -3  -3  11   29.10    1.50
  -3  -3  11   30.30    1.80
  -3  -3  11   27.60    1.70
   2   3 -11  476.85   15.70
   2   3 -11  496.85   15.10
   2   3 -11  519.65   15.80
   2   3 -11  498.45   15.30
  -2  -3  11  514.85   15.10
  -2  -3  11  514.55   15.00
  -2  -3  11  512.85   15.00
  -2  -3  11  492.85   14.60
   1   3 -11  324.37   10.70
   1   3 -11  319.57   10.70
   1   3 -11  323.67   10.30
  -1  -3  11  321.27   10.00
  -1  -3  11  300.77    9.50
  -1  -3  11  316.07    9.90
   0   3 -11  571.64   17.50
   0   3 -11  600.04   17.50
   0   3 -11  581.24   17.90
   0   3 -11  584.24   18.00
   0  -3  11  568.44   16.80
   0  -3  11  598.74   17.40
  -1   3 -11  648.34   20.30
  -1   3 -11  649.64   20.10
   1  -3  11  668.03   19.80
   1  -3  11  714.03   19.90
   1  -3  11  679.43   19.30
  -2   3 -11   85.99    3.90
  -2   3 -11   86.19    3.70
  -2   3 -11   78.29    5.60
   2  -3  11   92.19    3.70
   2  -3  11   92.59    3.90
   2  -3  11   90.59    3.30
  -3   3 -11   32.90    3.60
  -3   3 -11   36.40    1.90
   3  -3  11   34.90    1.70
   3  -3  11   35.60    2.10
   3  -3  11   35.10    2.00
  -4   3 -11  480.25   15.00
  -4   3 -11  476.35   17.40
   4  -3  11  482.15   14.00
   4  -3  11  476.15   14.50
   4  -3  11  493.55   14.40
   4  -3  11  495.35   25.80
  -5   3 -11  135.59    4.50
  -5   3 -11  133.99    4.90
  -5   3 -11  137.39    6.40
   5  -3  11  118.29    4.60
   5  -3  11  136.19   11.40
   5  -3  11  137.09    4.30
  -6   3 -11    9.40    0.70
  -6   3 -11    9.50    1.20
   6  -3  11    9.40    0.60
   6  -3  11    9.80    2.90
   5   2 -11   93.79    3.80
   5   2 -11   97.09    3.50
   5   2 -11   94.29    4.20
   5   2 -11   91.89    3.40
  -5  -2  11   99.49    3.50
  -5  -2  11   96.59    3.40
  -5  -2  11   93.79    3.20
  -5  -2  11   91.99    3.40
   4   2 -11    6.10    1.00
   4   2 -11    6.60    0.90
   4   2 -11    5.80    1.00
   4   2 -11    4.80    0.90
  -4  -2  11    5.40    0.80
  -4  -2  11    6.30    0.90
  -4  -2  11    6.30    0.90
  -4  -2  11    4.20    0.70
   3   2 -11   34.70    2.40
   3   2 -11   36.70    2.00
   3   2 -11   34.40    2.30
   3   2 -11   37.20    2.30
  -3  -2  11   34.10    1.90
  -3  -2  11   34.80    1.90
  -3  -2  11   34.70    1.90
   2   2 -11  131.49    5.10
   2   2 -11  133.49    5.50
   2   2 -11  132.49    4.90
   2   2 -11  125.99    5.30
  -2  -2  11  131.79    4.70
   1   2 -11   67.59    3.20
   1   2 -11   63.79    2.80
   1   2 -11   64.89    3.50
   1   2 -11   60.39    3.30
  -1  -2  11   72.19    3.00
   0   2 -11  356.76   12.10
   0   2 -11  376.36   12.00
   0   2 -11  384.16   11.80
   0   2 -11  361.66   11.80
   0   2 -11  385.66   11.20
   0   2 -11  389.36   12.30
   0  -2  11  377.66   11.50
   0  -2  11  364.26   11.50
   0  -2  11  357.66   11.10
  -1   2 -11   15.00    1.50
  -1   2 -11   19.70    2.30
  -1   2 -11   21.60    1.40
  -1   2 -11   18.00    1.70
  -1   2 -11   15.50    1.60
   1  -2  11   14.20    1.10
  -2   2 -11  413.26   12.90
  -2   2 -11  401.16   13.30
  -2   2 -11  416.46   15.10
  -2   2 -11  426.16   13.20
   2  -2  11  422.76   12.40
   2  -2  11  413.46   12.80
   2  -2  11  440.36   13.30
  -3   2 -11  200.38    7.40
  -3   2 -11  205.58    8.90
  -3   2 -11  199.38    6.70
  -3   2 -11  196.88    6.70
   3  -2  11  205.38    6.90
   3  -2  11  212.98    7.10
   3  -2  11  206.18    6.50
  -4   2 -11   29.60    2.00
  -4   2 -11   29.60    1.70
  -4   2 -11   31.10    2.80
  -4   2 -11   32.30    1.50
   4  -2  11   27.50    1.80
   4  -2  11   38.10    7.30
   4  -2  11   31.20    2.70
   4  -2  11   28.30    1.50
  -5   2 -11  182.48    5.70
  -5   2 -11  177.98    6.40
  -5   2 -11  182.48    7.00
   5  -2  11  184.08    5.60
   5  -2  11  191.98   13.70
   5  -2  11  153.58    6.40
   6   1 -11  155.48    5.00
   6   1 -11  146.79    4.80
   6   1 -11  157.58    5.20
  -6  -1  11  150.28    5.10
   5   1 -11   13.80    1.10
   5   1 -11   13.40    1.20
   5   1 -11   15.80    1.20
   5   1 -11    9.70    1.20
  -5  -1  11   14.50    1.10
  -5  -1  11   13.20    1.10
  -5  -1  11   13.50    1.10
   4   1 -11   90.09    3.60
   4   1 -11   85.49    3.50
   4   1 -11   81.29    3.70
   4   1 -11   81.39    4.00
  -4  -1  11   88.29    3.40
  -4  -1  11   86.69    3.30
  -4  -1  11   88.29    3.30
   3   1 -11   95.59    4.50
   3   1 -11   97.39    4.00
   3   1 -11   93.59    4.20
   3   1 -11  101.99    4.30
  -3  -1  11  105.89    3.90
  -3  -1  11  103.89    3.80
   2   1 -11  152.38    5.80
   2   1 -11  158.38    6.20
   2   1 -11  147.39    5.30
   2   1 -11  150.78    5.80
  -2  -1  11  155.88    5.40
  -2  -1  11  145.89    5.20
   1   1 -11  549.15   16.00
   1   1 -11  529.55   16.30
   1   1 -11  534.15   16.50
   1   1 -11  522.45   15.70
   1   1 -11  531.95   16.80
  -1  -1  11  539.25   15.80
   0   1 -11  802.42   22.80
   0   1 -11  752.22   23.10
   0   1 -11  766.32   22.50
   0   1 -11  751.02   22.80
   0   1 -11  782.62   22.00
   0  -1  11  760.02   22.20
  -1   1 -11  281.27    9.40
  -1   1 -11  281.57    9.20
  -1   1 -11  283.67    8.80
  -1   1 -11  276.17    9.40
   1  -1  11  258.67    8.40
   1  -1  11  287.97    9.00
   1  -1  11  273.27    8.80
  -2   1 -11  376.06   11.70
  -2   1 -11  355.96   12.20
  -2   1 -11  375.36   12.20
  -2   1 -11  394.86   11.40
  -2   1 -11  369.36   11.50
  -2   1 -11  381.76   12.00
   2  -1  11  380.86   11.80
   2  -1  11  394.26   11.30
   2  -1  11  377.76   11.60
  -3   1 -11  198.18    6.00
  -3   1 -11  187.48    7.10
  -3   1 -11  191.68    6.50
   3  -1  11  197.38    6.80
   3  -1  11  198.98   15.40
   3  -1  11  202.98    6.90
   3  -1  11  195.08    6.60
  -4   1 -11  217.18    7.70
  -4   1 -11  218.38    7.40
  -4   1 -11  212.78    6.90
  -4   1 -11  216.08    6.50
  -4   1 -11  217.78    7.00
   4  -1  11  220.38    7.10
   4  -1  11  219.18    6.70
   4  -1  11  218.28    7.20
   4  -1  11  224.18   15.70
  -5   1 -11   28.30    1.20
  -5   1 -11   27.80    2.00
  -5   1 -11   27.50    1.30
  -5   1 -11   27.40    1.50
   5  -1  11   24.80    1.40
   5  -1  11   27.40    1.30
   5  -1  11   26.70    5.10
   6   0 -11   34.90    1.70
   6   0 -11   33.80    1.50
   6   0 -11   31.80    1.80
  -6   0  11   31.40    1.50
   5   0 -11   82.49    3.50
   5   0 -11   86.79    3.10
   5   0 -11   78.69    3.60
   5   0 -11   87.89    3.30
  -5   0  11   81.09    3.10
  -5   0  11   84.09    3.10
   4   0 -11  286.17    9.10
   4   0 -11  272.57    9.60
   4   0 -11  282.37    9.40
   4   0 -11  295.87    9.10
  -4   0  11  287.97    8.80
   3   0 -11  274.77    8.80
   3   0 -11  259.07    8.40
   3   0 -11  259.67    9.20
   3   0 -11  267.17    8.90
  -3   0  11  250.17    8.00
   2   0 -11  819.62   24.60
   2   0 -11  830.72   24.20
   2   0 -11  806.42   23.50
   2   0 -11  827.42   24.10
  -2   0  11  818.62   23.40
   1   0 -11  412.66   13.50
   1   0 -11  433.36   12.30
   1   0 -11  424.36   13.00
   1   0 -11  412.46   13.20
   1   0 -11  430.86   12.90
  -1   0  11  396.96   12.40
  -1   0  11  413.76   12.50
   0   0 -11  315.27   10.20
   0   0 -11  319.87   10.30
   0   0 -11  310.17   10.50
   0   0 -11  322.97    9.60
   0   0  11  304.17    9.70
   0   0  11  315.07    9.80
  -1   0 -11  290.57    9.30
  -1   0 -11  271.47    8.60
  -1   0 -11  272.57    8.90
  -1   0 -11  272.97    9.20
   1   0  11  263.27    8.70
   1   0  11  276.17    9.00
  -2   0 -11  262.17    8.50
  -2   0 -11  259.47    8.30
  -2   0 -11  243.58    8.70
  -2   0 -11  259.57    8.20
   2   0  11  256.17    8.30
   2   0  11  260.17    8.40
  -3   0 -11  266.67    7.90
  -3   0 -11  269.57    8.30
  -3   0 -11  250.97    8.80
  -3   0 -11  275.17    8.40
   3   0  11  275.37    8.70
   3   0  11  262.37    8.20
   3   0  11  277.77   20.50
   3   0  11  271.17    8.70
  -4   0 -11    8.10    0.90
  -4   0 -11    8.10    0.80
   4   0  11    9.50    1.10
   4   0  11    8.10    0.70
   4   0  11    8.40    3.00
   4   0  11    7.20    0.90
  -5   0 -11   16.70    0.80
  -5   0 -11   16.00    1.00
  -5   0 -11   17.70    0.90
   5   0  11   16.50    4.30
   5   0  11   16.20    0.90
   5   0  11   15.50    1.10
   6  -1 -11   12.10    1.00
   6  -1 -11   12.20    1.00
   6  -1 -11   13.90    0.90
   5  -1 -11  101.29    4.00
   5  -1 -11  102.89    3.90
   5  -1 -11   95.49    3.70
   4  -1 -11    1.70    0.60
   4  -1 -11    3.20    0.80
   4  -1 -11    0.50    0.70
   4  -1 -11    2.40    0.70
   3  -1 -11  659.23   19.60
   3  -1 -11  666.53   19.20
   3  -1 -11  656.23   20.00
   2  -1 -11  118.29    4.60
   2  -1 -11  113.29    4.60
   2  -1 -11  110.89    4.90
   2  -1 -11  127.69    4.40
  -2   1  11  116.59    4.10
   1  -1 -11 1789.92   50.79
   1  -1 -11 1817.02   50.29
   1  -1 -11 1833.12   49.70
   1  -1 -11 1814.32   50.49
   1  -1 -11 1791.52   50.29
  -1   1  11 1716.53   49.80
   0  -1 -11  406.06   12.70
   0  -1 -11  410.46   12.10
   0  -1 -11  407.36   12.60
   0  -1 -11  403.46   12.80
   0   1  11  413.46   12.30
   0   1  11  402.76   12.30
  -1  -1 -11  205.48    6.50
  -1  -1 -11  191.68    6.70
  -1  -1 -11  195.98    6.80
  -1  -1 -11  195.98    7.00
  -1  -1 -11  197.38    6.30
   1   1  11  199.38    6.70
   1   1  11  203.38    6.60
  -2  -1 -11   18.90    1.30
  -2  -1 -11   21.30    1.10
  -2  -1 -11   22.40    1.70
  -2  -1 -11   20.90    1.40
   2   1  11   22.90    4.70
   2   1  11   22.30    1.60
   2   1  11   21.10    1.30
   2   1  11   20.20    1.70
  -3  -1 -11  278.47    8.50
  -3  -1 -11  281.27    8.50
  -3  -1 -11  280.97    8.20
  -3  -1 -11  277.07    8.90
   3   1  11  284.27    8.90
   3   1  11  280.07   16.70
   3   1  11  278.97    8.80
   3   1  11  278.37    8.40
  -4  -1 -11   47.20    1.80
  -4  -1 -11   48.00    2.00
  -4  -1 -11   51.29    1.70
  -4  -1 -11   44.90    1.70
   4   1  11   47.30    2.10
   4   1  11   46.70    1.90
   4   1  11   40.90    7.20
   5  -2 -11   30.20    1.50
   5  -2 -11   28.90    1.80
   5  -2 -11   29.20    1.60
   4  -2 -11    8.40    1.00
   4  -2 -11   11.40    1.20
   4  -2 -11    9.20    1.20
   3  -2 -11  199.08    6.60
   3  -2 -11  207.38    6.90
   3  -2 -11  214.18    7.20
   2  -2 -11  239.78    8.20
   2  -2 -11  253.97    7.60
   2  -2 -11  247.88    9.20
   2  -2 -11  244.58    7.20
   2  -2 -11  227.98    7.80
   1  -2 -11   91.29    3.90
   1  -2 -11   93.59    3.30
   1  -2 -11   90.59    3.90
  -1   2  11   95.39    3.60
   0  -2 -11  449.66   13.30
   0  -2 -11  454.35   12.90
   0  -2 -11  442.96   12.50
   0   2  11  434.86   13.10
   0   2  11  421.76   13.10
  -1  -2 -11  245.08    7.10
  -1  -2 -11  247.98    7.80
  -1  -2 -11  248.08    8.00
  -1  -2 -11  241.28    7.50
   1   2  11  236.38    7.80
   1   2  11  239.68    7.80
  -2  -2 -11   78.89    3.00
  -2  -2 -11   78.69    2.90
  -2  -2 -11   77.29    3.20
  -2  -2 -11   78.29    2.60
   2   2  11   77.39    2.90
   2   2  11   81.39    3.30
   2   2  11   77.19    3.20
  -3  -2 -11  183.18    5.60
  -3  -2 -11  181.58    5.60
  -3  -2 -11  184.58    5.40
  -3  -2 -11  186.08    5.80
   3   2  11  181.88    6.00
   3   2  11  176.08    5.60
   5  -3 -11   10.50    0.90
   4  -3 -11  121.59    4.10
   4  -3 -11  118.99    4.20
   3  -3 -11  130.49    4.60
   2  -3 -11  273.97    8.00
   2  -3 -11  279.57    8.20
   2  -3 -11  258.47    8.40
   2  -3 -11  277.27    8.40
   1  -3 -11   28.50    1.30
   1  -3 -11   26.70    1.50
   1  -3 -11   27.20    1.30
   1  -3 -11   28.60    1.60
  -1   3  11   27.00    1.70
   0  -3 -11   37.30    1.60
   0  -3 -11   37.20    1.80
   0  -3 -11   37.00    1.80
   0  -3 -11   32.20    1.70
   0   3  11   33.10    1.80
  -1  -3 -11  128.39    4.20
  -1  -3 -11  133.99    4.60
  -1  -3 -11  130.09    4.00
  -1  -3 -11  133.59    4.40
   1   3  11  130.19    4.60
  -2  -3 -11   41.50    1.60
  -2  -3 -11   37.70    1.40
  -2  -3 -11   39.20    1.70
  -2  -3 -11   39.30    1.60
   2   3  11   36.00    1.70
   2   3  11   37.30    1.80
   3  -4 -11   50.09    1.70
   2  -4 -11   63.09    2.30
   2  -4 -11   65.29    2.30
   2  -4 -11   64.79    2.10
   1  -4 -11   28.30    1.20
   1  -4 -11   26.70    1.30
   1  -4 -11   27.90    1.10
   1  -4 -11   29.30    1.40
   0  -4 -11  108.89    3.20
   0  -4 -11  110.59    3.40
   0  -4 -11  107.89    3.50
   0  -4 -11  110.89    3.60
   0   4  11   94.69    3.70
  -1  -4 -11  242.28    7.00
  -1  -4 -11  252.97    7.10
  -1  -4 -11  249.97    7.10
  -1  -4 -11  244.88    7.20
   1   4  11  216.08    7.30
   1   7 -12  105.49    3.70
  -1  -7  12  109.99    3.40
   0   7 -12   44.30    2.00
   0  -7  12   39.80    1.90
   0  -7  12   46.50    1.70
   1  -7  12    7.30    0.60
   2  -7  12  171.68    5.20
   3  -7  12  178.78    5.30
  -4   7 -12   50.19    3.40
   2   6 -12   70.09    2.80
  -2  -6  12   62.39    2.60
  -2  -6  12   73.09    2.40
  -2  -6  12   67.09    2.50
   1   6 -12   69.09    3.20
  -1  -6  12   69.29    2.60
  -1  -6  12   71.59    2.50
  -1  -6  12   62.49    3.60
  -1  -6  12   64.69    2.60
   0   6 -12  212.38    7.10
   0  -6  12  214.58    6.70
   0  -6  12  208.88    7.00
   0  -6  12  224.38    6.60
   0  -6  12  213.88    6.80
  -1   6 -12   70.39    2.90
  -1   6 -12   74.29    3.00
   1  -6  12   67.09    3.10
   1  -6  12   74.39    2.60
   1  -6  12   71.39    2.80
  -2   6 -12  247.78    7.60
   2  -6  12  258.77    7.50
   2  -6  12  231.08    8.10
   2  -6  12  251.67    7.60
   3  -6  12   66.39    2.50
   3  -6  12   63.89    6.70
   3  -6  12   68.99    2.40
  -4   6 -12   28.10    2.80
   4  -6  12   31.20    1.20
   4  -6  12   30.00    5.80
   3   5 -12  222.08    6.90
  -3  -5  12  212.58    6.40
  -3  -5  12  201.78    6.60
  -3  -5  12  217.18    6.60
   2   5 -12   39.70    2.10
   2   5 -12   41.10    2.20
  -2  -5  12   41.90    1.70
  -2  -5  12   40.70    1.90
  -2  -5  12   39.60    2.00
  -2  -5  12   42.90    1.90
   1   5 -12  312.47   10.30
   1   5 -12  314.17   10.00
  -1  -5  12  331.17   10.10
  -1  -5  12  329.27    9.90
  -1  -5  12  324.97    9.60
  -1  -5  12  327.77    9.80
   0   5 -12   54.69    2.60
   0   5 -12   59.19    2.90
   0  -5  12   60.79    2.80
   0  -5  12   61.79    2.40
  -1   5 -12  263.57    8.60
  -1   5 -12  266.97    8.70
   1  -5  12  276.07    8.50
   1  -5  12  276.17    8.70
   1  -5  12  264.17    8.20
  -2   5 -12   48.20    2.30
   2  -5  12   46.90    2.00
   2  -5  12   48.60    2.20
   2  -5  12   46.90    2.40
  -3   5 -12   13.40    2.30
   3  -5  12   11.80    1.00
   3  -5  12   13.40    0.90
   3  -5  12   13.20    1.50
  -4   5 -12  107.29    5.70
   4  -5  12  103.09    3.40
   4  -5  12   99.29    3.50
   4  -5  12  102.79    9.70
  -5   5 -12  133.89    4.10
  -5   5 -12  128.59    4.40
  -5   5 -12  127.89    5.60
   5  -5  12  125.99    3.80
   5  -5  12  117.89   11.00
   4   4 -12   46.60    2.00
   4   4 -12   48.20    2.10
  -4  -4  12   42.80    2.10
  -4  -4  12   50.09    1.80
  -4  -4  12   47.20    1.90
   3   4 -12  332.27   10.10
   3   4 -12  346.17   10.70
   3   4 -12  332.97   10.50
  -3  -4  12  351.66   10.40
  -3  -4  12  333.47    9.90
  -3  -4  12  349.96   10.30
  -3  -4  12  336.57   10.20
   2   4 -12  292.67    9.20
   2   4 -12  313.07    9.80
   2   4 -12  290.97    9.80
  -2  -4  12  302.17    9.20
  -2  -4  12  300.97    9.00
  -2  -4  12  308.37    9.30
   1   4 -12  105.49    4.40
   1   4 -12   96.49    4.20
  -1  -4  12  101.49    3.60
  -1  -4  12  105.69    4.00
  -1  -4  12  106.89    4.10
   0   4 -12  459.75   14.40
   0   4 -12  456.75   14.50
   0  -4  12  441.26   13.20
   0  -4  12  454.45   13.80
   0  -4  12  456.25   13.60
  -1   4 -12  371.46   13.20
  -1   4 -12  411.76   11.80
  -1   4 -12  386.96   13.70
  -1   4 -12  408.96   12.50
   1  -4  12  408.96   12.40
   1  -4  12  409.16   12.20
  -2   4 -12   10.40    1.10
  -2   4 -12   10.80    1.20
  -2   4 -12   14.20    2.30
   2  -4  12   10.80    0.90
   2  -4  12   11.10    1.20
   2  -4  12   12.90    1.10
  -3   4 -12  106.49    6.00
   3  -4  12  110.19    4.20
   3  -4  12  113.39    3.80
   3  -4  12  113.09    4.10
  -4   4 -12  312.17   10.00
  -4   4 -12  318.27   11.70
   4  -4  12  315.57   18.00
   4  -4  12  317.47    9.20
   4  -4  12  311.27    9.40
  -5   4 -12  117.29    4.20
  -5   4 -12  123.09    5.10
  -5   4 -12  120.89    3.90
   5  -4  12  112.79    9.10
   5  -4  12  122.69    3.70
   4   3 -12   11.00    0.90
   4   3 -12   10.70    1.10
   4   3 -12    9.80    1.00
  -4  -3  12   10.70    0.90
  -4  -3  12    8.90    0.70
   3   3 -12   65.89    2.90
   3   3 -12   73.79    3.20
   3   3 -12   65.89    3.20
  -3  -3  12   69.49    2.90
  -3  -3  12   66.99    3.00
  -3  -3  12   69.89    2.80
   2   3 -12  159.48    5.70
   2   3 -12  160.68    6.10
   2   3 -12  160.48    6.00
  -2  -3  12  169.28    5.70
  -2  -3  12  159.38    5.20
  -2  -3  12  162.98    5.60
   1   3 -12  115.19    4.40
   1   3 -12  113.89    4.80
   1   3 -12  116.69    4.80
  -1  -3  12  115.59    4.00
  -1  -3  12  115.29    4.40
  -1  -3  12  120.69    4.40
   0   3 -12  603.24   18.60
   0   3 -12  595.54   18.40
   0  -3  12  620.74   18.20
   0  -3  12  617.54   18.00
   0  -3  12  620.84   18.10
  -1   3 -12  531.15   16.30
  -1   3 -12  544.85   17.00
  -1   3 -12  517.75   17.30
  -1   3 -12  535.35   16.40
   1  -3  12  541.15   15.90
   1  -3  12  560.44   16.20
   1  -3  12  527.55   16.10
  -2   3 -12  321.77   10.50
  -2   3 -12  399.26   13.50
  -2   3 -12  324.57   12.70
  -2   3 -12  334.27   10.30
   2  -3  12  337.87   10.70
   2  -3  12  340.27   10.10
   2  -3  12  332.57   10.50
  -3   3 -12  194.58    6.20
  -3   3 -12  188.78    6.90
  -3   3 -12  198.68    8.00
  -3   3 -12  199.98    6.40
   3  -3  12  200.88    6.80
   3  -3  12  198.28    6.10
   3  -3  12  188.58    7.30
  -4   3 -12  129.79    4.40
  -4   3 -12  122.09    4.80
  -4   3 -12  132.49    5.60
   4  -3  12  128.19    4.40
   4  -3  12  126.19   10.80
   4  -3  12  125.49    4.10
  -5   3 -12   33.70    1.50
  -5   3 -12   35.00    1.70
  -5   3 -12   34.40    1.90
   5  -3  12   34.80    1.40
   5  -3  12   33.20    4.90
   5   2 -12  136.89    4.40
   5   2 -12  134.79    4.40
  -5  -2  12  134.29    4.20
  -5  -2  12  138.89    4.40
   4   2 -12   83.79    3.60
   4   2 -12   82.39    3.10
   4   2 -12   81.59    3.30
  -4  -2  12   84.19    3.10
  -4  -2  12   84.59    3.20
  -4  -2  12   84.89    2.90
   3   2 -12   56.49    2.80
   3   2 -12   61.39    2.80
   3   2 -12   63.29    2.60
   3   2 -12   59.99    3.10
  -3  -2  12   61.09    2.60
   2   2 -12  387.76   13.80
   2   2 -12  369.46   12.70
  -2  -2  12  370.96   11.40
  -2  -2  12  376.86   11.40
   1   2 -12   87.89    3.90
   1   2 -12   88.09    3.70
   1   2 -12   84.79    4.00
  -1  -2  12   85.49    3.40
  -1  -2  12   86.59    3.50
  -1  -2  12   83.29    3.60
   0   2 -12   11.20    1.40
   0   2 -12   10.30    1.40
   0   2 -12    9.70    1.20
   0  -2  12    9.90    1.10
   0  -2  12   11.00    1.10
  -1   2 -12  133.39    5.40
  -1   2 -12  142.09    5.40
  -1   2 -12  142.69    4.90
  -1   2 -12  132.69    5.20
   1  -2  12  137.89    5.10
   1  -2  12  137.09    5.00
  -2   2 -12   14.10    2.00
  -2   2 -12   18.80    1.80
  -2   2 -12   20.50    1.30
  -2   2 -12   18.10    1.30
   2  -2  12   18.80    1.50
   2  -2  12   19.40    1.40
   2  -2  12   16.60    1.10
  -3   2 -12   20.80    1.60
  -3   2 -12   19.10    1.20
  -3   2 -12   16.70    1.50
  -3   2 -12   18.80    1.20
   3  -2  12   19.10    1.10
   3  -2  12   19.20    1.30
   3  -2  12   20.00    4.60
  -4   2 -12    7.10    0.70
  -4   2 -12    5.70    0.90
  -4   2 -12    6.70    0.90
   4  -2  12    8.20    0.80
   4  -2  12    7.20    2.70
   4  -2  12    6.50    0.60
  -5   2 -12   59.49    2.40
  -5   2 -12   59.39    2.20
   5  -2  12   61.29    6.50
   5  -2  12   60.89    2.10
   5   1 -12  185.18    5.70
   5   1 -12  181.88    5.90
   5   1 -12  183.68    6.10
  -5  -1  12  181.08    6.00
   4   1 -12  277.67    8.40
   4   1 -12  273.27    8.70
   4   1 -12  270.57    9.00
  -4  -1  12  268.47    8.30
   3   1 -12  176.48    6.20
   3   1 -12  179.98    6.60
   3   1 -12  184.58    5.90
   3   1 -12  176.98    6.20
  -3  -1  12  181.58    6.00
  -3  -1  12  168.68    5.80
   2   1 -12   54.09    2.40
   2   1 -12   60.39    3.10
   2   1 -12   49.80    3.40
  -2  -1  12   55.29    2.50
   1   1 -12  185.38    6.40
   1   1 -12  181.98    6.60
   1   1 -12  182.48    6.10
   1   1 -12  187.88    6.80
  -1  -1  12  181.48    6.10
  -1  -1  12  177.48    6.00
   0   1 -12  513.55   15.80
   0   1 -12  500.25   15.60
   0   1 -12  502.35   15.50
   0  -1  12  510.85   15.10
   0  -1  12  509.65   15.00
  -1   1 -12  135.09    5.00
  -1   1 -12  130.19    5.10
  -1   1 -12  121.29    5.90
   1  -1  12  132.89    4.90
   1  -1  12  131.99    4.40
   1  -1  12  134.19    4.80
  -2   1 -12  167.78    5.50
  -2   1 -12  160.38    5.50
  -2   1 -12  160.18    5.70
  -2   1 -12  159.88    5.90
   2  -1  12  163.98    5.70
   2  -1  12  160.98    5.70
   2  -1  12  159.38    5.20
  -3   1 -12   90.59    2.90
  -3   1 -12   85.19    3.20
  -3   1 -12   90.59    3.40
  -3   1 -12   88.69    3.80
   3  -1  12   93.19    3.60
   3  -1  12   95.59    9.60
   3  -1  12   95.99    3.20
   3  -1  12   94.49    3.70
  -4   1 -12   45.90    2.20
  -4   1 -12   46.60    1.90
  -4   1 -12   43.30    1.60
   4  -1  12   43.10    1.80
   4  -1  12   43.60    6.40
   4  -1  12   41.40    3.00
   5   0 -12  224.68    6.90
   5   0 -12  231.88    7.40
   5   0 -12  226.18    7.10
   4   0 -12  494.65   14.60
   4   0 -12  486.95   14.90
   4   0 -12  491.95   14.20
  -4   0  12  498.65   14.90
  -4   0  12  475.65   14.20
   3   0 -12  122.99    4.60
   3   0 -12  124.09    4.70
   3   0 -12  123.49    4.30
   3   0 -12  126.79    5.00
  -3   0  12  122.39    4.20
   2   0 -12  285.37    9.70
   2   0 -12  303.37    9.40
   2   0 -12  292.47    9.30
  -2   0  12  274.77    9.10
  -2   0  12  289.87    8.90
   1   0 -12  292.57   10.60
   1   0 -12  321.07   10.50
   1   0 -12  313.07    9.00
   1   0 -12  315.77    9.50
  -1   0  12  297.27    9.40
  -1   0  12  300.37    9.50
   0   0 -12   82.89    3.80
   0   0 -12   85.89    3.50
   0   0 -12   84.09    3.10
   0   0  12   76.99    3.80
   0   0  12   84.09    3.40
  -1   0 -12  319.77    9.60
  -1   0 -12  305.67   10.00
  -1   0 -12  313.17    9.90
  -1   0 -12  307.17   10.10
   1   0  12  329.47    9.90
   1   0  12  314.47   10.50
  -2   0 -12    6.70    0.80
  -2   0 -12    8.80    1.00
  -2   0 -12    8.10    0.80
  -2   0 -12    8.50    0.90
   2   0  12    6.70    0.70
   2   0  12    7.70    1.10
   2   0  12    6.30    2.80
   2   0  12    7.10    0.90
  -3   0 -12   22.80    1.50
  -3   0 -12   21.90    1.00
  -3   0 -12   21.60    1.20
  -3   0 -12   23.20    1.20
   3   0  12   22.60    1.20
   3   0  12   22.30    4.40
   3   0  12   21.60    1.40
   3   0  12   24.00    1.50
  -4   0 -12   46.50    1.50
  -4   0 -12   44.90    1.70
  -4   0 -12   43.10    1.90
  -4   0 -12   44.60    1.70
   4   0  12   46.30    1.70
   4   0  12   40.20    5.30
   4   0  12   43.30    1.90
   5  -1 -12  451.75   13.30
   5  -1 -12  452.85   13.20
   4  -1 -12  135.09    4.80
   4  -1 -12  140.19    4.30
   4  -1 -12  136.59    4.30
   4  -1 -12  115.59    5.50
   3  -1 -12  647.24   19.00
   3  -1 -12  668.63   18.90
   3  -1 -12  644.34   19.40
   2  -1 -12  249.28    7.80
   2  -1 -12  238.38    7.70
   2  -1 -12  238.38    8.10
  -2   1  12  230.98    7.40
   1  -1 -12  482.35   14.80
   1  -1 -12  493.35   14.60
   1  -1 -12  495.55   13.90
   1  -1 -12  502.95   14.40
  -1   1  12  466.05   14.30
   0  -1 -12  168.78    5.80
   0  -1 -12  177.18    5.90
   0  -1 -12  165.78    5.40
   0  -1 -12  170.08    5.90
   0   1  12  170.38    5.90
   0   1  12  165.08    5.70
  -1  -1 -12   47.90    2.00
  -1  -1 -12   43.80    2.30
  -1  -1 -12   46.20    2.20
   1   1  12   48.00    6.40
   1   1  12   48.80    2.30
   1   1  12   47.00    2.20
  -2  -1 -12   61.89    2.50
  -2  -1 -12   60.79    2.00
  -2  -1 -12   60.69    2.40
  -2  -1 -12   57.89    2.60
   2   1  12   65.99    2.40
   2   1  12   62.99    2.70
   2   1  12   60.69    2.60
   2   1  12   62.09    7.00
  -3  -1 -12   90.19    3.10
  -3  -1 -12   95.69    2.90
  -3  -1 -12   93.99    3.40
  -3  -1 -12  100.09    3.20
   3   1  12   91.79    3.20
   3   1  12   96.59    3.40
   4  -2 -12   76.29    2.80
   4  -2 -12   75.19    2.90
   3  -2 -12    6.00    0.70
   3  -2 -12    5.10    0.80
   2  -2 -12   72.29    3.80
   2  -2 -12   72.89    2.60
   2  -2 -12   75.19    2.90
   1  -2 -12  127.49    4.30
   1  -2 -12  128.99    4.50
   1  -2 -12  125.49    5.20
   0  -2 -12   50.39    1.90
   0  -2 -12   50.59    2.20
   0  -2 -12   50.49    2.20
   0   2  12   50.59    2.30
   0   2  12   44.80    2.20
  -1  -2 -12  126.09    4.40
  -1  -2 -12  124.19    4.20
   1   2  12  120.99    4.30
  -2  -2 -12  362.66   10.80
  -2  -2 -12  367.36   10.50
  -2  -2 -12  373.16   10.60
  -2  -2 -12  372.06   10.20
   2   2  12  353.86   10.50
   2   2  12  365.46   10.80
   3  -3 -12  183.28    5.40
   2  -3 -12   19.30    1.30
   2  -3 -12   18.00    1.00
   1  -3 -12   27.40    1.30
   1  -3 -12   26.10    1.10
   1  -3 -12   28.40    1.30
   0  -3 -12   27.30    1.30
   0  -3 -12   27.00    1.10
   0  -3 -12   27.60    1.30
  -1  -3 -12  118.89    3.90
  -1  -3 -12  121.99    3.70
   1   6 -13  450.15   12.90
  -1  -6  13  469.95   12.60
  -1  -6  13  411.66   13.00
   0   6 -13   17.20    1.20
   0  -6  13   19.20    1.00
   0  -6  13   18.80    1.10
  -1   6 -13  426.26   13.40
  -1   6 -13  416.96   12.70
   1  -6  13  415.26   12.10
   1  -6  13  427.76   12.00
  -2   6 -13  276.27    9.80
  -2   6 -13  284.67    8.60
   2  -6  13  295.27    8.20
   2  -6  13  276.27   15.30
  -3   6 -13   10.00    1.00
  -3   6 -13    9.70    1.40
  -3   6 -13   10.80    0.70
   3  -6  13   10.20    0.60
   2   5 -13  113.99    4.10
   2   5 -13  109.09    3.90
  -2  -5  13  116.69    3.80
  -2  -5  13  120.99    3.70
   1   5 -13  141.99    5.00
   1   5 -13  138.49    4.70
  -1  -5  13  145.19    4.70
  -1  -5  13  148.69    4.50
  -1  -5  13  141.89    4.90
   0   5 -13   59.99    2.40
   0  -5  13   58.99    2.20
   0  -5  13   56.59    2.60
   0  -5  13   57.89    2.40
  -1   5 -13  445.66   12.80
  -1   5 -13  437.76   12.90
  -1   5 -13  436.76   13.00
   1  -5  13  460.05   12.70
   1  -5  13  438.36   12.90
   1  -5  13  423.26   13.10
  -2   5 -13   26.60    1.60
  -2   5 -13   26.80    2.90
  -2   5 -13   27.50    1.30
  -2   5 -13   28.20    1.40
   2  -5  13   25.00    1.80
   2  -5  13   27.70    1.40
   2  -5  13   28.50    1.30
  -3   5 -13   36.20    2.40
  -3   5 -13   34.50    1.80
  -3   5 -13   34.00    1.50
   3  -5  13   35.20    4.90
   3  -5  13   34.60    1.40
   3  -5  13   32.90    1.60
   3   4 -13  209.98    6.80
   3   4 -13  220.88    6.80
  -3  -4  13  216.18    6.60
   2   4 -13   18.10    1.30
  -2  -4  13   19.30    1.50
  -2  -4  13   16.90    1.00
  -2  -4  13   18.20    1.20
   1   4 -13  818.92   23.70
   1   4 -13  814.92   23.80
  -1  -4  13  823.92   23.60
  -1  -4  13  832.82   23.60
  -1  -4  13  826.32   23.40
   0   4 -13   11.40    1.10
   0   4 -13   11.10    1.10
   0  -4  13   11.80    1.00
   0  -4  13   12.50    1.20
   0  -4  13   11.90    0.80
  -1   4 -13  252.47    8.20
  -1   4 -13  250.37    8.10
   1  -4  13  255.17    8.00
   1  -4  13  256.87    8.20
   1  -4  13  261.47    7.70
  -2   4 -13  205.48    6.00
  -2   4 -13  185.08    6.10
  -2   4 -13  186.58    6.50
   2  -4  13  195.48    6.00
   2  -4  13  197.88    6.50
   2  -4  13  192.68    6.20
  -3   4 -13    0.80    0.50
  -3   4 -13    1.40    0.40
   3  -4  13    2.50    0.60
   3  -4  13    0.70    1.20
   3  -4  13    1.00    0.50
  -4   4 -13  107.49    3.50
  -4   4 -13  110.79    3.90
   4  -4  13  108.89    3.40
   4  -4  13  102.99    8.40
   3   3 -13  166.38    5.50
   3   3 -13  162.68    5.50
   3   3 -13  162.28    5.20
  -3  -3  13  164.38    5.20
  -3  -3  13  158.28    5.30
   2   3 -13   78.49    3.30
   2   3 -13   75.99    3.30
  -2  -3  13   81.89    3.00
  -2  -3  13   77.99    2.80
  -2  -3  13   80.09    3.10
   1   3 -13   16.10    1.40
   1   3 -13   16.90    1.40
  -1  -3  13   17.40    1.30
  -1  -3  13   17.50    1.30
  -1  -3  13   17.10    1.20
   0   3 -13  170.68    5.50
   0   3 -13  161.48    5.90
   0   3 -13  164.78    5.90
   0  -3  13  164.48    5.30
   0  -3  13  174.58    6.10
   0  -3  13  165.28    5.60
  -1   3 -13  216.68    7.40
  -1   3 -13  227.08    7.30
  -1   3 -13  217.28    7.30
   1  -3  13  231.88    7.20
   1  -3  13  229.48    7.40
   1  -3  13  219.38    6.80
  -2   3 -13  196.08    6.10
  -2   3 -13  197.98    6.60
  -2   3 -13  187.08    6.20
   2  -3  13  192.88    6.30
   2  -3  13  193.58    6.00
   2  -3  13  188.88    6.40
  -3   3 -13   79.69    2.90
  -3   3 -13   80.59    2.90
   3  -3  13   80.09    2.80
   3  -3  13   76.19    8.00
   3  -3  13   81.09    3.00
  -4   3 -13  108.39    3.40
  -4   3 -13  103.89    3.70
   4  -3  13   90.49    3.70
   4  -3  13  106.79    3.30
   4  -3  13  107.79    8.60
   4   2 -13    3.70    0.70
   4   2 -13    4.90    0.90
   4   2 -13    3.70    0.50
   3   2 -13  197.58    6.50
   3   2 -13  191.68    7.30
   3   2 -13  200.38    7.00
  -3  -2  13  192.68    6.10
   2   2 -13   20.80    1.40
   2   2 -13   20.50    1.50
   2   2 -13   21.10    1.70
  -2  -2  13   23.70    1.40
  -2  -2  13   23.20    1.40
   1   2 -13   14.60    1.30
   1   2 -13   16.20    1.50
  -1  -2  13   19.10    1.20
  -1  -2  13   14.80    1.00
  -1  -2  13   16.60    1.30
   0   2 -13  106.89    4.40
   0   2 -13  114.39    4.00
   0   2 -13  108.19    4.30
   0  -2  13  112.59    3.80
   0  -2  13  108.59    4.00
  -1   2 -13   24.90    1.60
  -1   2 -13   22.00    1.20
  -1   2 -13   23.50    1.60
  -1   2 -13   23.10    1.50
   1  -2  13   22.10    1.40
   1  -2  13   21.10    1.20
   1  -2  13   25.90    1.60
  -2   2 -13    0.10    0.30
  -2   2 -13    0.10    0.40
  -2   2 -13   -0.20    0.30
   2  -2  13   -0.30    0.50
   2  -2  13    0.10    0.40
  -3   2 -13  126.69    4.10
  -3   2 -13  119.69    4.70
  -3   2 -13  118.79    3.90
   3  -2  13  127.49    4.30
   3  -2  13  124.59   10.10
   3  -2  13  119.29    4.30
   3  -2  13  122.79    4.10
   4   1 -13   62.69    2.70
   4   1 -13   64.49    2.50
   4   1 -13   63.79    2.40
   3   1 -13   85.49    3.30
   3   1 -13   79.39    3.20
   3   1 -13   81.79    3.40
  -3  -1  13   78.79    3.00
  -3  -1  13   81.59    3.00
   2   1 -13   17.80    1.30
   2   1 -13   15.00    1.20
   2   1 -13   15.60    1.40
  -2  -1  13   16.50    1.20
  -2  -1  13   16.70    1.20
   1   1 -13   20.60    1.70
   1   1 -13   24.20    1.60
  -1  -1  13   25.60    1.50
  -1  -1  13   31.60    1.70
   0   1 -13  182.08    5.50
   0   1 -13  177.38    6.20
   0   1 -13  176.08    5.80
   0   1 -13  171.68    6.00
   0  -1  13  180.08    6.00
   0  -1  13  170.48    5.80
  -1   1 -13   39.90    1.70
  -1   1 -13   39.00    2.00
  -1   1 -13   38.50    1.90
  -1   1 -13   36.20    2.00
   1  -1  13   37.10    1.90
   1  -1  13   36.90    1.70
   1  -1  13   37.40    2.00
  -2   1 -13    1.30    0.50
   2  -1  13    0.60    0.50
   2  -1  13    1.60    0.40
   2  -1  13    1.00    0.40
   2  -1  13    1.00    1.50
  -3   1 -13   40.20    2.00
  -3   1 -13   42.40    1.70
  -3   1 -13   43.10    1.70
   3  -1  13   44.40    1.90
   3  -1  13   42.70    5.50
   3  -1  13   43.30    1.70
   4   0 -13  156.78    5.10
   4   0 -13  161.48    5.30
   4   0 -13  158.88    4.80
   3   0 -13  260.87    8.60
   3   0 -13  279.67    8.30
   3   0 -13  282.37    8.80
   2   0 -13  182.78    6.20
   2   0 -13  185.88    5.90
  -2   0  13  171.58    5.60
  -2   0  13  172.38    5.70
   1   0 -13    9.30    0.90
   1   0 -13    8.10    1.00
   1   0 -13    7.70    0.90
  -1   0  13    8.40    1.00
  -1   0  13   10.00    1.10
   0   0 -13   36.80    2.00
   0   0 -13   38.30    2.50
   0   0 -13   38.10    1.50
   0   0 -13   37.30    1.90
   0   0  13   37.00    1.80
   0   0  13   35.00    1.90
  -1   0 -13    9.20    0.70
  -1   0 -13    8.80    0.80
  -1   0 -13    8.30    1.10
   1   0  13    8.70    4.00
   1   0  13    7.90    1.00
   1   0  13    8.30    0.90
  -2   0 -13    1.50    0.50
  -2   0 -13    2.30    0.40
  -2   0 -13    2.30    0.50
   2   0  13    2.30    0.50
   2   0  13    3.40    1.90
   2   0  13    1.70    0.60
   3  -1 -13  329.77    9.40
   3  -1 -13  310.57    9.70
   2  -1 -13  141.29    4.90
   2  -1 -13  142.89    4.70
   1  -1 -13   85.49    3.40
   1  -1 -13   94.39    3.60
   1  -1 -13   93.99    3.10
   0  -1 -13   26.40    1.50
   0  -1 -13   27.40    1.20
   0  -1 -13   27.70    1.40
   0   1  13   26.90    1.50
  -1  -1 -13  346.57    9.80
  -1  -1 -13  340.77   10.00
  -1  -1 -13  344.77   10.10
   1   1  13  326.27   10.10
   2  -2 -13   27.50    1.20
   2  -2 -13   22.10    1.20
   1  -2 -13  258.57    7.70
   1  -2 -13  259.57    7.60
   0  -2 -13  274.07    8.10
   0  -2 -13  280.57    8.10
   0  -2 -13  273.97    7.80
   0   5 -14   12.50    1.10
   0  -5  14   16.10    0.80
   0  -5  14   13.20    0.90
  -1   5 -14   27.30    1.20
   1  -5  14   28.00    1.30
   1  -5  14   28.40    1.20
   1   4 -14   65.09    2.60
   1   4 -14   62.59    2.50
  -1  -4  14   66.49    2.50
  -1  -4  14   64.49    2.30
   0   4 -14    7.20    0.80
   0   4 -14    7.90    0.80
   0  -4  14    9.10    0.60
   0  -4  14    9.20    0.80
  -1   4 -14  198.38    6.30
   1  -4  14  205.78    6.10
   1  -4  14  209.08    6.40
  -2   4 -14   41.90    1.60
  -2   4 -14   45.50    2.00
   2  -4  14   43.10    1.80
   2  -4  14   43.10    1.60
   2  -4  14   42.50    5.20
   2   3 -14   80.49    2.90
   2   3 -14   77.99    3.00
  -2  -3  14   77.69    2.80
  -2  -3  14   76.39    2.50
   1   3 -14   16.20    1.10
   1   3 -14   17.10    1.20
  -1  -3  14   16.40    1.40
  -1  -3  14   16.40    1.10
  -1  -3  14   16.20    1.00
   0   3 -14   48.40    2.20
   0   3 -14   47.20    2.20
   0  -3  14   49.40    2.30
   0  -3  14   52.29    2.30
   0  -3  14   50.99    1.90
  -1   3 -14   85.19    3.10
  -1   3 -14   82.39    3.10
   1  -3  14   83.19    3.20
   1  -3  14   84.09    2.80
   1  -3  14   83.99    3.10
  -2   3 -14   76.49    3.10
  -2   3 -14   85.19    2.60
  -2   3 -14   82.99    3.00
   2  -3  14   81.29    2.90
   2  -3  14   82.89    2.70
   2  -3  14   78.19    7.40
   2   2 -14  155.68    5.20
   2   2 -14  158.48    5.10
  -2  -2  14  150.08    4.90
   1   2 -14  141.59    4.80
   1   2 -14  143.79    4.90
  -1  -2  14  141.89    4.60
  -1  -2  14  135.49    4.80
  -1  -2  14  137.19    4.30
   0   2 -14   15.30    1.20
   0   2 -14   15.90    1.10
   0  -2  14   16.50    1.10
   0  -2  14   17.10    0.90
   0  -2  14   15.00    1.20
  -1   2 -14   79.69    2.90
  -1   2 -14   87.19    3.00
  -1   2 -14   81.69    3.10
  -1   2 -14   85.89    2.60
   1  -2  14   82.09    3.00
   1  -2  14   71.59    3.10
   1  -2  14   77.49    3.20
  -2   2 -14  111.89    3.50
  -2   2 -14  109.89    3.70
   2  -2  14  110.09    8.70
   2  -2  14  108.09    3.70
   2   1 -14  217.08    6.70
   2   1 -14  217.98    6.50
  -2  -1  14  191.58    6.50
   1   1 -14   13.90    1.00
   1   1 -14   12.10    1.10
  -1  -1  14   13.30    1.00
   0   1 -14  146.79    4.40
   0   1 -14  138.99    4.70
   0   1 -14  143.49    4.80
   0  -1  14  135.39    4.60
  -1   1 -14   54.59    2.10
  -1   1 -14   56.09    1.80
  -1   1 -14   55.29    2.10
   1  -1  14   52.79    1.90
   1  -1  14   54.79    2.20
   1  -1  14   51.79    5.80
   2   0 -14  110.69    3.60
   2   0 -14  112.39    3.80
   1   0 -14   63.39    2.40
   1   0 -14   64.89    2.50
   0   0 -14   30.60    1.40
   0   0 -14   29.30    1.20
   0   0  14   28.20    1.40
   0   0   0    0.00    0.00

_computing_structure_solution     'SHELXT 2018/2 (Sheldrick, 2018)'
;
_shelx_hkl_checksum              59980
_olex2_submission_special_instructions 'No special instructions were received'
loop_
_space_group_symop_operation_xyz
'x, y, z'
loop_
_atom_site_label
_atom_site_type_symbol
_atom_site_fract_x
_atom_site_fract_y
_atom_site_fract_z
_atom_site_U_iso_or_equiv
_atom_site_adp_type
_atom_site_occupancy
_atom_site_site_symmetry_order
_atom_site_calc_flag
_atom_site_refinement_flags_posn
_atom_site_refinement_flags_adp
_atom_site_refinement_flags_occupancy
_atom_site_disorder_assembly
_atom_site_disorder_group
O1 O 0.3583(3) 1.3502(2) 1.61152(14) 0.0442(4) Uani 1 1 d . . . . .
O2 O 0.2109(2) 0.77180(18) 1.02364(14) 0.0368(4) Uani 1 1 d . . . . .
O3 O 0.1076(2) 1.24951(18) 0.85101(12) 0.0347(3) Uani 1 1 d . . . . .
N1 N 0.2819(2) 0.9490(2) 1.20283(15) 0.0294(4) Uani 1 1 d . . . . .
C1 C 0.6736(3) 1.3687(3) 1.49464(19) 0.0353(5) Uani 1 1 d . . . . .
H1 H 0.689761 1.417995 1.574425 0.042 Uiso 1 1 calc R . . . .
C2 C 0.8219(3) 1.3774(3) 1.4326(2) 0.0388(5) Uani 1 1 d . . . . .
H2 H 0.939948 1.430708 1.469685 0.047 Uiso 1 1 calc R . . . .
C3 C 0.7991(3) 1.3084(3) 1.3159(2) 0.0355(5) Uani 1 1 d . . . . .
H3 H 0.901681 1.315418 1.272998 0.043 Uiso 1 1 calc R . . . .
C4 C 0.6273(3) 1.2292(3) 1.26147(19) 0.0295(4) Uani 1 1 d . . . . .
H4 H 0.612413 1.184070 1.181174 0.035 Uiso 1 1 calc R . . . .
C5 C 0.4760(3) 1.2155(2) 1.32410(17) 0.0242(4) Uani 1 1 d . . . . .
C6 C 0.4996(3) 1.2881(2) 1.44139(18) 0.0270(4) Uani 1 1 d . . . . .
C7 C 0.3414(3) 1.2821(3) 1.50936(17) 0.0301(4) Uani 1 1 d . . . . .
C8 C 0.1619(3) 1.1896(3) 1.44977(19) 0.0314(4) Uani 1 1 d . . . . .
H8 H 0.058379 1.184473 1.491494 0.038 Uiso 1 1 calc R . . . .
C9 C 0.1396(3) 1.1129(3) 1.33966(19) 0.0288(4) Uani 1 1 d . . . . .
H9 H 0.020417 1.049389 1.307580 0.035 Uiso 1 1 calc R . . . .
C10 C 0.2909(3) 1.1202(2) 1.26216(17) 0.0248(4) Uani 1 1 d . . . . .
C11 C 0.2322(3) 0.9075(2) 1.08884(18) 0.0279(4) Uani 1 1 d . . . . .
C12 C 0.2124(2) 1.0585(2) 1.06254(17) 0.0248(4) Uani 1 1 d . . . . .
C13 C 0.2502(2) 1.1848(2) 1.16162(16) 0.0234(4) Uani 1 1 d . . . . .
C14 C 0.2431(3) 1.3403(2) 1.15900(17) 0.0252(4) Uani 1 1 d . . . . .
H14 H 0.269050 1.427229 1.226778 0.030 Uiso 1 1 calc R . . . .
C15 C 0.1971(3) 1.3669(2) 1.05501(17) 0.0262(4) Uani 1 1 d . . . . .
H15 H 0.193533 1.473207 1.051349 0.031 Uiso 1 1 calc R . . . .
C16 C 0.1561(3) 1.2369(2) 0.95594(17) 0.0263(4) Uani 1 1 d . . . . .
C17 C 0.1646(3) 1.0812(2) 0.95914(17) 0.0265(4) Uani 1 1 d . . . . .
H17 H 0.138158 0.993167 0.891964 0.032 Uiso 1 1 calc R . . . .
C18 C 0.3206(4) 0.8363(3) 1.2627(2) 0.0417(6) Uani 1 1 d . . . . .
H18A H 0.233223 0.814905 1.319709 0.063 Uiso 1 1 calc GR . . . .
H18B H 0.442862 0.886356 1.300843 0.063 Uiso 1 1 calc GR . . . .
H18C H 0.312038 0.731559 1.207947 0.063 Uiso 1 1 calc GR . . . .
C19 C 0.0832(4) 1.4019(3) 0.8422(2) 0.0377(5) Uani 1 1 d . . . . .
H19A H 0.053262 1.395691 0.762100 0.057 Uiso 1 1 calc GR . . . .
H19B H 0.194906 1.493899 0.870774 0.057 Uiso 1 1 calc GR . . . .
H19C H -0.015220 1.420433 0.887723 0.057 Uiso 1 1 calc GR . . . .
O4 O 0.2654(2) 0.5965(2) 0.43969(13) 0.0413(4) Uani 1 1 d . . . . .
O5 O 0.6943(2) 1.22729(17) 0.98489(13) 0.0330(3) Uani 1 1 d . . . . .
O6 O 0.8124(2) 0.74690(18) 1.15264(13) 0.0351(4) Uani 1 1 d . . . . .
N2 N 0.5633(2) 1.03579(19) 0.81723(14) 0.0282(4) Uani 1 1 d . . . . .
C20 C 0.6448(3) 0.7352(3) 0.45478(19) 0.0356(5) Uani 1 1 d . . . . .
H20 H 0.586171 0.676699 0.381160 0.043 Uiso 1 1 calc R . . . .
C21 C 0.8301(3) 0.8056(3) 0.4679(2) 0.0402(5) Uani 1 1 d . . . . .
H21 H 0.898963 0.794962 0.403631 0.048 Uiso 1 1 calc R . . . .
C22 C 0.9157(3) 0.8918(3) 0.5753(2) 0.0385(5) Uani 1 1 d . . . . .
H22 H 1.043333 0.940291 0.584236 0.046 Uiso 1 1 calc R . . . .
C23 C 0.8175(3) 0.9078(3) 0.66892(19) 0.0327(5) Uani 1 1 d . . . . .
H23 H 0.877776 0.967508 0.741964 0.039 Uiso 1 1 calc R . . . .
C24 C 0.6296(3) 0.8369(2) 0.65749(17) 0.0251(4) Uani 1 1 d . . . . .
C25 C 0.5429(3) 0.7496(2) 0.54908(17) 0.0268(4) Uani 1 1 d . . . . .
C26 C 0.3432(3) 0.6731(2) 0.53390(17) 0.0294(4) Uani 1 1 d . . . . .
C27 C 0.2434(3) 0.6919(3) 0.63560(19) 0.0305(4) Uani 1 1 d . . . . .
H27 H 0.115773 0.643345 0.627696 0.037 Uiso 1 1 calc R . . . .
C28 C 0.3250(3) 0.7747(2) 0.73906(18) 0.0281(4) Uani 1 1 d . . . . .
H28 H 0.252107 0.781624 0.801636 0.034 Uiso 1 1 calc R . . . .
C29 C 0.5258(3) 0.8579(2) 0.76236(17) 0.0262(4) Uani 1 1 d . . . . .
C30 C 0.6471(3) 1.0852(2) 0.92470(17) 0.0264(4) Uani 1 1 d . . . . .
C31 C 0.6662(3) 0.9337(2) 0.95102(17) 0.0245(4) Uani 1 1 d . . . . .
C32 C 0.5955(3) 0.8004(2) 0.85756(16) 0.0246(4) Uani 1 1 d . . . . .
C33 C 0.5949(3) 0.6430(2) 0.86067(17) 0.0279(4) Uani 1 1 d . . . . .
H33 H 0.546332 0.551411 0.796763 0.033 Uiso 1 1 calc R . . . .
C34 C 0.6669(3) 0.6217(2) 0.95956(18) 0.0281(4) Uani 1 1 d . . . . .
H34 H 0.667429 0.514565 0.963497 0.034 Uiso 1 1 calc R . . . .
C35 C 0.7386(3) 0.7577(2) 1.05311(17) 0.0265(4) Uani 1 1 d . . . . .
C36 C 0.7397(3) 0.9155(2) 1.04927(17) 0.0263(4) Uani 1 1 d . . . . .
H36 H 0.789605 1.008133 1.112337 0.032 Uiso 1 1 calc R . . . .
C37 C 0.5230(3) 1.1488(3) 0.7577(2) 0.0360(5) Uani 1 1 d . . . . .
H37A H 0.564738 1.261858 0.806713 0.054 Uiso 1 1 calc GR . . . .
H37B H 0.392413 1.114861 0.739069 0.054 Uiso 1 1 calc GR . . . .
H37C H 0.584717 1.145690 0.687103 0.054 Uiso 1 1 calc GR . . . .
C38 C 0.8182(4) 0.5873(3) 1.1582(2) 0.0444(6) Uani 1 1 d . . . . .
H38A H 0.891470 0.549479 1.098972 0.067 Uiso 1 1 calc GR . . . .
H38B H 0.695330 0.508248 1.145921 0.067 Uiso 1 1 calc GR . . . .
H38C H 0.871679 0.594570 1.233486 0.067 Uiso 1 1 calc GR . . . .
loop_
_atom_site_aniso_label
_atom_site_aniso_U_11
_atom_site_aniso_U_22
_atom_site_aniso_U_33
_atom_site_aniso_U_23
_atom_site_aniso_U_13
_atom_site_aniso_U_12
O1 0.0611(11) 0.0473(10) 0.0246(8) 0.0031(7) 0.0040(7) 0.0222(9)
O2 0.0509(9) 0.0204(7) 0.0356(8) -0.0014(6) -0.0047(7) 0.0130(6)
O3 0.0530(9) 0.0299(8) 0.0228(7) 0.0049(6) -0.0043(6) 0.0169(7)
N1 0.0394(9) 0.0183(8) 0.0292(9) 0.0031(7) -0.0053(7) 0.0095(7)
C1 0.0413(12) 0.0285(10) 0.0317(11) -0.0001(9) -0.0106(9) 0.0108(9)
C2 0.0294(10) 0.0298(10) 0.0525(14) 0.0059(10) -0.0114(9) 0.0062(9)
C3 0.0287(10) 0.0316(11) 0.0503(14) 0.0140(10) 0.0059(9) 0.0124(9)
C4 0.0313(10) 0.0288(10) 0.0314(11) 0.0082(8) 0.0037(8) 0.0131(8)
C5 0.0292(9) 0.0190(8) 0.0263(10) 0.0062(7) 0.0003(8) 0.0099(7)
C6 0.0338(10) 0.0215(9) 0.0265(10) 0.0057(8) -0.0026(8) 0.0102(8)
C7 0.0446(12) 0.0260(10) 0.0230(11) 0.0064(8) 0.0017(8) 0.0156(9)
C8 0.0331(10) 0.0340(11) 0.0335(11) 0.0155(9) 0.0104(8) 0.0141(9)
C9 0.0265(9) 0.0272(10) 0.0331(11) 0.0112(8) -0.0001(8) 0.0063(8)
C10 0.0296(9) 0.0180(9) 0.0265(10) 0.0042(8) -0.0011(8) 0.0080(7)
C11 0.0304(9) 0.0232(10) 0.0284(11) 0.0036(8) -0.0005(8) 0.0080(8)
C12 0.0250(9) 0.0215(9) 0.0263(10) 0.0027(8) 0.0004(7) 0.0073(7)
C13 0.0234(8) 0.0235(9) 0.0226(10) 0.0040(8) -0.0012(7) 0.0078(7)
C14 0.0276(9) 0.0217(9) 0.0236(10) 0.0010(8) -0.0012(7) 0.0078(7)
C15 0.0306(10) 0.0208(9) 0.0275(10) 0.0043(8) -0.0006(8) 0.0097(8)
C16 0.0278(9) 0.0263(10) 0.0251(10) 0.0067(8) 0.0002(7) 0.0089(8)
C17 0.0297(9) 0.0231(9) 0.0232(10) -0.0007(8) -0.0010(7) 0.0085(8)
C18 0.0610(15) 0.0267(11) 0.0400(13) 0.0098(9) -0.0084(11) 0.0167(10)
C19 0.0541(13) 0.0322(11) 0.0316(11) 0.0122(9) -0.0024(9) 0.0175(10)
O4 0.0445(9) 0.0411(9) 0.0261(8) 0.0035(7) -0.0092(6) 0.0004(7)
O5 0.0479(8) 0.0186(7) 0.0285(8) 0.0000(6) -0.0025(6) 0.0097(6)
O6 0.0549(9) 0.0269(7) 0.0246(8) 0.0023(6) -0.0077(7) 0.0176(7)
N2 0.0410(10) 0.0179(8) 0.0254(9) 0.0021(7) -0.0042(7) 0.0113(7)
C20 0.0496(13) 0.0271(10) 0.0260(10) 0.0045(9) 0.0043(9) 0.0080(10)
C21 0.0483(13) 0.0360(12) 0.0367(13) 0.0117(10) 0.0156(10) 0.0122(10)
C22 0.0338(11) 0.0385(12) 0.0454(13) 0.0175(10) 0.0063(10) 0.0094(9)
C23 0.0331(11) 0.0317(10) 0.0311(11) 0.0083(9) -0.0022(8) 0.0071(9)
C24 0.0313(10) 0.0194(9) 0.0247(10) 0.0050(7) -0.0006(7) 0.0089(8)
C25 0.0361(10) 0.0198(9) 0.0237(10) 0.0058(7) -0.0008(8) 0.0076(8)
C26 0.0376(11) 0.0216(9) 0.0255(10) 0.0042(8) -0.0053(9) 0.0059(8)
C27 0.0274(9) 0.0271(10) 0.0345(11) 0.0062(9) -0.0029(8) 0.0063(8)
C28 0.0317(10) 0.0246(9) 0.0292(10) 0.0051(8) 0.0017(8) 0.0115(8)
C29 0.0327(10) 0.0200(9) 0.0244(10) 0.0023(8) -0.0013(8) 0.0089(8)
C30 0.0317(10) 0.0210(9) 0.0246(10) 0.0026(8) 0.0021(8) 0.0082(8)
C31 0.0273(9) 0.0211(9) 0.0236(10) 0.0027(8) 0.0016(7) 0.0076(7)
C32 0.0293(9) 0.0214(9) 0.0216(9) 0.0032(7) 0.0008(7) 0.0077(7)
C33 0.0360(10) 0.0196(9) 0.0239(10) -0.0016(7) -0.0030(8) 0.0082(8)
C34 0.0384(11) 0.0199(9) 0.0261(10) 0.0047(8) 0.0004(8) 0.0101(8)
C35 0.0325(10) 0.0253(10) 0.0212(9) 0.0041(8) -0.0009(8) 0.0101(8)
C36 0.0321(10) 0.0231(9) 0.0213(10) -0.0002(8) -0.0009(7) 0.0098(8)
C37 0.0514(13) 0.0274(10) 0.0319(11) 0.0083(9) -0.0031(9) 0.0160(9)
C38 0.0764(18) 0.0305(11) 0.0297(12) 0.0048(9) -0.0114(11) 0.0241(12)
loop_
_atom_type_symbol
_atom_type_description
_atom_type_scat_dispersion_real
_atom_type_scat_dispersion_imag
_atom_type_scat_source
C C 0.0181 0.0091 'International Tables Vol C Tables 4.2.6.8 and 6.1.1.4'
H H 0.0000 0.0000 'International Tables Vol C Tables 4.2.6.8 and 6.1.1.4'
N N 0.0311 0.0180 'International Tables Vol C Tables 4.2.6.8 and 6.1.1.4'
O O 0.0492 0.0322 'International Tables Vol C Tables 4.2.6.8 and 6.1.1.4'
loop_
_geom_angle_atom_site_label_1
_geom_angle_atom_site_label_2
_geom_angle_atom_site_label_3
_geom_angle
_geom_angle_site_symmetry_1
_geom_angle_site_symmetry_3
_geom_angle_publ_flag
C16 O3 C19 117.96(16) . . ?
C11 N1 C10 114.25(16) . . ?
C11 N1 C18 123.59(18) . . ?
C18 N1 C10 122.16(17) . . ?
C2 C1 H1 119.7 . . ?
C2 C1 C6 120.5(2) . . ?
C6 C1 H1 119.7 . . ?
C1 C2 H2 120.0 . . ?
C1 C2 C3 120.0(2) . . ?
C3 C2 H2 120.0 . . ?
C2 C3 H3 119.9 . . ?
C2 C3 C4 120.3(2) . . ?
C4 C3 H3 119.9 . . ?
C3 C4 H4 119.9 . . ?
C3 C4 C5 120.3(2) . . ?
C5 C4 H4 119.9 . . ?
C4 C5 C6 119.23(19) . . ?
C4 C5 C10 118.56(18) . . ?
C6 C5 C10 122.21(18) . . ?
C1 C6 C5 119.69(19) . . ?
C1 C6 C7 119.78(19) . . ?
C5 C6 C7 120.52(18) . . ?
O1 C7 C6 121.7(2) . . ?
O1 C7 C8 120.9(2) . . ?
C8 C7 C6 117.36(17) . . ?
C7 C8 H8 118.9 . . ?
C9 C8 C7 122.21(19) . . ?
C9 C8 H8 118.9 . . ?
C8 C9 H9 117.9 . . ?
C8 C9 C10 124.25(19) . . ?
C10 C9 H9 117.9 . . ?
N1 C10 C5 110.60(15) . . ?
N1 C10 C9 109.18(16) . . ?
N1 C10 C13 100.66(15) . . ?
C5 C10 C13 113.62(16) . . ?
C9 C10 C5 113.25(17) . . ?
C9 C10 C13 108.76(16) . . ?
O2 C11 N1 125.58(19) . . ?
O2 C11 C12 128.43(19) . . ?
N1 C11 C12 105.99(17) . . ?
C13 C12 C11 109.32(17) . . ?
C17 C12 C11 128.79(18) . . ?
C17 C12 C13 121.89(18) . . ?
C12 C13 C10 109.63(16) . . ?
C12 C13 C14 120.38(18) . . ?
C14 C13 C10 129.97(18) . . ?
C13 C14 H14 120.6 . . ?
C13 C14 C15 118.78(18) . . ?
C15 C14 H14 120.6 . . ?
C14 C15 H15 119.9 . . ?
C14 C15 C16 120.10(18) . . ?
C16 C15 H15 119.9 . . ?
O3 C16 C15 124.62(18) . . ?
O3 C16 C17 114.62(17) . . ?
C17 C16 C15 120.76(18) . . ?
C12 C17 C16 118.07(18) . . ?
C12 C17 H17 121.0 . . ?
C16 C17 H17 121.0 . . ?
N1 C18 H18A 109.5 . . ?
N1 C18 H18B 109.5 . . ?
N1 C18 H18C 109.5 . . ?
H18A C18 H18B 109.5 . . ?
H18A C18 H18C 109.5 . . ?
H18B C18 H18C 109.5 . . ?
O3 C19 H19A 109.5 . . ?
O3 C19 H19B 109.5 . . ?
O3 C19 H19C 109.5 . . ?
H19A C19 H19B 109.5 . . ?
H19A C19 H19C 109.5 . . ?
H19B C19 H19C 109.5 . . ?
C35 O6 C38 116.89(17) . . ?
C30 N2 C29 114.33(16) . . ?
C30 N2 C37 123.54(17) . . ?
C37 N2 C29 122.03(17) . . ?
C21 C20 H20 119.8 . . ?
C21 C20 C25 120.4(2) . . ?
C25 C20 H20 119.8 . . ?
C20 C21 H21 120.1 . . ?
C20 C21 C22 119.8(2) . . ?
C22 C21 H21 120.1 . . ?
C21 C22 H22 119.7 . . ?
C23 C22 C21 120.6(2) . . ?
C23 C22 H22 119.7 . . ?
C22 C23 H23 119.8 . . ?
C22 C23 C24 120.5(2) . . ?
C24 C23 H23 119.8 . . ?
C23 C24 C25 119.01(19) . . ?
C23 C24 C29 119.02(18) . . ?
C25 C24 C29 121.97(17) . . ?
C20 C25 C24 119.72(19) . . ?
C20 C25 C26 119.90(18) . . ?
C24 C25 C26 120.38(18) . . ?
O4 C26 C25 121.2(2) . . ?
O4 C26 C27 121.3(2) . . ?
C27 C26 C25 117.55(17) . . ?
C26 C27 H27 118.8 . . ?
C28 C27 C26 122.43(19) . . ?
C28 C27 H27 118.8 . . ?
C27 C28 H28 118.1 . . ?
C27 C28 C29 123.7(2) . . ?
C29 C28 H28 118.1 . . ?
N2 C29 C24 110.39(16) . . ?
N2 C29 C28 109.27(16) . . ?
N2 C29 C32 100.78(15) . . ?
C24 C29 C32 112.06(16) . . ?
C28 C29 C24 113.92(17) . . ?
C28 C29 C32 109.61(17) . . ?
O5 C30 N2 125.43(19) . . ?
O5 C30 C31 128.64(18) . . ?
N2 C30 C31 105.93(16) . . ?
C32 C31 C30 108.98(16) . . ?
C36 C31 C30 129.25(18) . . ?
C36 C31 C32 121.77(18) . . ?
C31 C32 C29 109.93(16) . . ?
C33 C32 C29 129.54(18) . . ?
C33 C32 C31 120.53(18) . . ?
C32 C33 H33 120.7 . . ?
C32 C33 C34 118.61(18) . . ?
C34 C33 H33 120.7 . . ?
C33 C34 H34 119.9 . . ?
C33 C34 C35 120.19(18) . . ?
C35 C34 H34 119.9 . . ?
O6 C35 C34 123.60(18) . . ?
O6 C35 C36 115.45(17) . . ?
C36 C35 C34 120.95(18) . . ?
C31 C36 C35 117.95(18) . . ?
C31 C36 H36 121.0 . . ?
C35 C36 H36 121.0 . . ?
N2 C37 H37A 109.5 . . ?
N2 C37 H37B 109.5 . . ?
N2 C37 H37C 109.5 . . ?
H37A C37 H37B 109.5 . . ?
H37A C37 H37C 109.5 . . ?
H37B C37 H37C 109.5 . . ?
O6 C38 H38A 109.5 . . ?
O6 C38 H38B 109.5 . . ?
O6 C38 H38C 109.5 . . ?
H38A C38 H38B 109.5 . . ?
H38A C38 H38C 109.5 . . ?
H38B C38 H38C 109.5 . . ?
loop_
_geom_bond_atom_site_label_1
_geom_bond_atom_site_label_2
_geom_bond_distance
_geom_bond_site_symmetry_2
_geom_bond_publ_flag
O1 C7 1.226(3) . ?
O2 C11 1.223(3) . ?
O3 C16 1.360(3) . ?
O3 C19 1.431(3) . ?
N1 C10 1.480(2) . ?
N1 C11 1.362(3) . ?
N1 C18 1.450(3) . ?
C1 H1 0.9500 . ?
C1 C2 1.375(4) . ?
C1 C6 1.396(3) . ?
C2 H2 0.9500 . ?
C2 C3 1.385(4) . ?
C3 H3 0.9500 . ?
C3 C4 1.386(3) . ?
C4 H4 0.9500 . ?
C4 C5 1.395(3) . ?
C5 C6 1.397(3) . ?
C5 C10 1.517(3) . ?
C6 C7 1.481(3) . ?
C7 C8 1.469(3) . ?
C8 H8 0.9500 . ?
C8 C9 1.326(3) . ?
C9 H9 0.9500 . ?
C9 C10 1.506(3) . ?
C10 C13 1.525(3) . ?
C11 C12 1.480(3) . ?
C12 C13 1.385(3) . ?
C12 C17 1.377(3) . ?
C13 C14 1.386(3) . ?
C14 H14 0.9500 . ?
C14 C15 1.395(3) . ?
C15 H15 0.9500 . ?
C15 C16 1.401(3) . ?
C16 C17 1.393(3) . ?
C17 H17 0.9500 . ?
C18 H18A 0.9800 . ?
C18 H18B 0.9800 . ?
C18 H18C 0.9800 . ?
C19 H19A 0.9800 . ?
C19 H19B 0.9800 . ?
C19 H19C 0.9800 . ?
O4 C26 1.225(3) . ?
O5 C30 1.225(2) . ?
O6 C35 1.367(2) . ?
O6 C38 1.427(3) . ?
N2 C29 1.476(2) . ?
N2 C30 1.363(3) . ?
N2 C37 1.455(3) . ?
C20 H20 0.9500 . ?
C20 C21 1.379(3) . ?
C20 C25 1.397(3) . ?
C21 H21 0.9500 . ?
C21 C22 1.387(3) . ?
C22 H22 0.9500 . ?
C22 C23 1.373(3) . ?
C23 H23 0.9500 . ?
C23 C24 1.398(3) . ?
C24 C25 1.401(3) . ?
C24 C29 1.513(3) . ?
C25 C26 1.487(3) . ?
C26 C27 1.462(3) . ?
C27 H27 0.9500 . ?
C27 C28 1.334(3) . ?
C28 H28 0.9500 . ?
C28 C29 1.506(3) . ?
C29 C32 1.519(3) . ?
C30 C31 1.483(3) . ?
C31 C32 1.386(3) . ?
C31 C36 1.380(3) . ?
C32 C33 1.384(3) . ?
C33 H33 0.9500 . ?
C33 C34 1.394(3) . ?
C34 H34 0.9500 . ?
C34 C35 1.400(3) . ?
C35 C36 1.388(3) . ?
C36 H36 0.9500 . ?
C37 H37A 0.9800 . ?
C37 H37B 0.9800 . ?
C37 H37C 0.9800 . ?
C38 H38A 0.9800 . ?
C38 H38B 0.9800 . ?
C38 H38C 0.9800 . ?
