#------------------------------------------------------------------------------
#$Date: 2021-09-03 23:23:23 +0300 (Fri, 03 Sep 2021) $
#$Revision: 268428 $
#$URL: file:///home/coder/svn-repositories/cod/cif/4/51/90/4519003.cif $
#------------------------------------------------------------------------------
#
# This file is available in the Crystallography Open Database (COD),
# http://www.crystallography.net/
#
# All data on this site have been placed in the public domain by the
# contributors.
#
data_4519003
loop_
_publ_author_name
'Bhattacharya, Anwesha'
'Thirupathi, Annaram'
'Natarajan, Pradeep'
'Peruncheralathan, Saravanan'
_publ_section_title
;
 Chemoselective Ullmann Reaction of \a-Trisubstituted Thioamides:
 Synthesis of Novel 2-Iminobenzothiolanes.
;
_journal_issue                   32
_journal_name_full               'ACS omega'
_journal_page_first              21169
_journal_page_last               21180
_journal_paper_doi               10.1021/acsomega.1c03410
_journal_volume                  6
_journal_year                    2021
_chemical_formula_moiety         'C16 H14 N2 O S'
_chemical_formula_sum            'C16 H14 N2 O S'
_chemical_formula_weight         282.37
_space_group_crystal_system      triclinic
_space_group_IT_number           2
_space_group_name_Hall           '-P 1'
_space_group_name_H-M_alt        'P -1'
_symmetry_Int_Tables_number      2
_atom_sites_solution_primary     direct
_audit_creation_date             2021-02-17
_audit_creation_method
;
Olex2 1.2
(compiled 2017.08.10 svn.r3458 for OlexSys, GUI svn.r5381)
;
_cell_angle_alpha                96.180(2)
_cell_angle_beta                 92.803(2)
_cell_angle_gamma                108.433(3)
_cell_formula_units_Z            2
_cell_length_a                   6.4476(2)
_cell_length_b                   9.4727(3)
_cell_length_c                   12.1525(3)
_cell_measurement_reflns_used    9680
_cell_measurement_temperature    150.00(10)
_cell_measurement_theta_max      75.2110
_cell_measurement_theta_min      3.6850
_cell_volume                     697.34(4)
_computing_cell_refinement       'CrysAlisPro 1.171.40.84a (Rigaku OD, 2020)'
_computing_data_collection       'CrysAlisPro 1.171.40.84a (Rigaku OD, 2020)'
_computing_data_reduction        'CrysAlisPro 1.171.40.84a (Rigaku OD, 2020)'
_computing_molecular_graphics    'Olex2 (Dolomanov et al., 2009)'
_computing_publication_material  'Olex2 (Dolomanov et al., 2009)'
_computing_structure_refinement  'olex2.refine (Bourhis et al., 2015)'
_computing_structure_solution    'SIR2004 (Burla et al., 2007)'
_diffrn_ambient_environment      N~2~
_diffrn_ambient_temperature      150.00(10)
_diffrn_detector                 'Image Plate'
_diffrn_detector_area_resol_mean 5.8140
_diffrn_detector_type            'Rigaku IP'
_diffrn_measured_fraction_theta_full 0.9816
_diffrn_measured_fraction_theta_max 0.9809
_diffrn_measurement_details
;
List of Runs (angles in degrees, time in seconds):

  # Type    Start    End  Width  t~exp~   \w     \q     \k     \f   Frames
--------------------------------------------------------------------------
  1  \w    -86.00  -6.00   0.50    0.38    --  -38.50 125.00 139.00  160
  2  \w   -102.00 -16.00   0.50    0.38    --  -38.50 146.00 -54.00  172
  3  \w     38.00 114.00   0.50    0.38    --   49.56-146.00-105.00  152
  4  \w     97.00 168.00   0.50    1.48    --  102.63 125.00 139.00  142
  5  \w     86.00 166.00   0.50    1.48    --  102.63 146.00 -54.00  160
  6  \w     38.00 112.00   0.50    1.48    --  102.63-125.00  61.00  148
  7  \w    -50.00  24.00   0.50    0.38    --  -38.50  57.00 -30.00  148
  8  \w    -42.00  28.00   0.50    0.38    --  -38.50  38.00 -90.00  140
  9  \w    -44.00  31.00   0.50    0.38    --  -38.50  19.00-120.00  150
 10  \w   -101.00 -27.00   0.50    0.38    --  -38.50 -57.00-120.00  148
 11  \w     28.00 101.00   0.50    0.38    --   49.56-125.00  61.00  146
 12  \w     38.00 107.00   0.50    1.48    --  102.63 -45.00   0.00  138
 13  \w     40.00 116.00   0.50    1.48    --  102.63 -61.00-150.00  152
 14  \w     98.00 167.00   0.50    1.48    --  102.63  45.00  60.00  138
 15  \w     35.00 106.00   0.50    1.48    --  102.63 -30.00 -90.00  142
 16  \w     90.00 165.00   0.50    1.48    --  102.63  61.00 -30.00  150
 17  \w     38.00 126.00   0.50    1.48    --  102.63 -77.00  30.00  176
 18  \w     98.00 167.00   0.50    1.48    --  102.63  45.00 -60.00  138
 19  \w     40.00 116.00   0.50    1.48    --  102.63 -61.00 -90.00  152
 20  \w     35.00 106.00   0.50    1.48    --  102.63 -30.00  30.00  142
 21  \w     90.00 165.00   0.50    1.48    --  102.63  61.00  30.00  150
 22  \w     97.00 168.00   0.50    1.48    --  102.63 125.00 -90.00  142
 23  \w     38.00 112.00   0.50    1.48    --  102.63-125.00 -30.00  148
 24  \w     90.00 165.00   0.50    1.48    --  102.63  61.00 -90.00  150
 25  \w     34.00 107.00   0.50    1.48    --  102.63 -94.00-150.00  146
 26  \w     38.00 112.00   0.50    1.48    --  102.63-125.00 150.00  148
 27  \w     35.00 106.00   0.50    1.48    --  102.63 -30.00 120.00  142
 28  \w     97.00 168.00   0.50    1.48    --  102.63 125.00 150.00  142
 29  \w     38.00 107.00   0.50    1.48    --  102.63 -45.00-180.00  138
 30  \w     39.00 128.00   0.50    1.48    --  102.63-146.00-105.00  178
 31  \w     38.00 107.00   0.50    0.38    --   49.56  57.00 150.00  138
;
_diffrn_measurement_device       'four-circle diffractometer'
_diffrn_measurement_device_type  'Rigaku R-AXIS SPIDER IP'
_diffrn_measurement_method       '\w scans'
_diffrn_orient_matrix_type
'CrysAlisPro convention (1999,Acta A55,543-557)'
_diffrn_orient_matrix_UB_11      0.0232630000
_diffrn_orient_matrix_UB_12      0.1677653000
_diffrn_orient_matrix_UB_13      0.0219745000
_diffrn_orient_matrix_UB_21      -0.0372642000
_diffrn_orient_matrix_UB_22      0.0033208000
_diffrn_orient_matrix_UB_23      -0.1257520000
_diffrn_orient_matrix_UB_31      -0.2489905000
_diffrn_orient_matrix_UB_32      -0.0416560000
_diffrn_orient_matrix_UB_33      0.0094432000
_diffrn_radiation_monochromator  graphite
_diffrn_radiation_probe          x-ray
_diffrn_radiation_type           'Cu K\a'
_diffrn_radiation_wavelength     1.54184
_diffrn_reflns_av_R_equivalents  0.0461
_diffrn_reflns_av_unetI/netI     0.0422
_diffrn_reflns_limit_h_max       6
_diffrn_reflns_limit_h_min       -8
_diffrn_reflns_limit_k_max       11
_diffrn_reflns_limit_k_min       -11
_diffrn_reflns_limit_l_max       15
_diffrn_reflns_limit_l_min       -15
_diffrn_reflns_number            10340
_diffrn_reflns_theta_full        75.4136
_diffrn_reflns_theta_max         75.41
_diffrn_reflns_theta_min         3.67
_diffrn_source                   'sealed X-ray tube'
_diffrn_source_target            Mo
_diffrn_source_type              'SuperNova (Cu) X-ray Source'
_exptl_absorpt_coefficient_mu    2.027
_exptl_absorpt_correction_T_max  1.00000
_exptl_absorpt_correction_T_min  0.74888
_exptl_absorpt_correction_type   multi-scan
_exptl_absorpt_process_details
;
CrysAlisPro 1.171.40.84a (Rigaku Oxford Diffraction, 2020)
Empirical absorption correction using spherical harmonics,
implemented in SCALE3 ABSPACK scaling algorithm.
;
_exptl_crystal_colour            clear
_exptl_crystal_colour_lustre     clear
_exptl_crystal_density_diffrn    1.3447
_exptl_crystal_description       needle
_exptl_crystal_F_000             297.4742
_exptl_crystal_preparation       'Slow diffusion method'
_exptl_crystal_recrystallization_method 'Sloww diffusion method'
_exptl_crystal_size_max          0.3
_exptl_crystal_size_mid          0.2
_exptl_crystal_size_min          0.2
_refine_diff_density_max         0.4761
_refine_diff_density_min         -0.5019
_refine_diff_density_rms         0.1819
_refine_ls_d_res_high            0.7966
_refine_ls_d_res_low             12.0351
_refine_ls_extinction_expression Fc^*^=kFc[1+0.001xFc^2^\l^3^/sin(2\q)]^-1/4^
_refine_ls_goodness_of_fit_ref   1.0423
_refine_ls_hydrogen_treatment    constr
_refine_ls_matrix_type           full
_refine_ls_number_constraints    25
_refine_ls_number_parameters     183
_refine_ls_number_reflns         2827
_refine_ls_number_restraints     0
_refine_ls_restrained_S_all      1.0423
_refine_ls_R_factor_all          0.0421
_refine_ls_R_factor_gt           0.0385
_refine_ls_shift/su_max          0.0002
_refine_ls_shift/su_mean         0.0000
_refine_ls_structure_factor_coef Fsqd
_refine_ls_weighting_details
'w=1/[\s^2^(Fo^2^)+(0.0614P)^2^+0.3139P] where P=(Fo^2^+2Fc^2^)/3'
_refine_ls_weighting_scheme      calc
_refine_ls_wR_factor_gt          0.1051
_refine_ls_wR_factor_ref         0.1054
_reflns_Friedel_coverage         0.0
_reflns_limit_h_max              8
_reflns_limit_h_min              -8
_reflns_limit_k_max              11
_reflns_limit_k_min              -11
_reflns_limit_l_max              15
_reflns_limit_l_min              0
_reflns_number_gt                2787
_reflns_number_total             2827
_reflns_threshold_expression     I>=2u(I)
_iucr_refine_instructions_details
;
TITL peru-aw-126_a.res in P-1
REM Old TITL PERU-AW-126 in P-1
REM SHELXT solution in P-1
REM R1 0.102, Rweak 0.008, Alpha 0.050, Orientation as input
REM Formula found by SHELXT: C13 N18 N18 S
CELL 1.54184 6.4476 9.4727 12.1525 96.18 92.803 108.433
ZERR 2 0.0002 0.0003 0.0003 0.002 0.002 0.003
LATT 1
SFAC C H N O S
UNIT 32 24 2 4 2

L.S. 4
PLAN  1
SIZE 0.2 0.3 0.2
TEMP -123.15(10)
CONF 
fmap 2
MORE -1
BOND $H
ACTA 
EXTI 0.008794
WGHT 0.061398 0.313938
FVAR 0.801846
REM <olex2.extras>
REM <HklSrc "%.\\PERU-AW-126.hkl">
REM </olex2.extras>

S9    5     0.53089  0.66201  0.13451  11.00000  0.02360  0.03467  0.01736 =
 0.00355  0.00097  0.00745 
O19   4     0.71700  0.98598  0.41539  11.00000  0.03574  0.02556  0.03010 =
 0.00217  0.01061  0.00856 
N10   3     0.36163  0.53316  0.31581  11.00000  0.02799  0.02352  0.02154 =
 0.00233  0.00239  0.00597 
N18   3     0.48568  0.79628  0.49050  11.00000  0.03333  0.02619  0.03083 =
 0.00117  0.01391  0.00754 
AFIX 93
H18a  2     0.43779  0.85749  0.53401  11.00000 -1.20000 
H18b  2     0.43333  0.69884  0.49233  11.00000 -1.20000 
AFIX 0
C3    1     0.88097  0.80864  0.27377  11.00000  0.02483  0.02391  0.02002 =
 0.00305  0.00419  0.01028 
C8    1     0.80661  0.77734  0.16153  11.00000  0.02403  0.02670  0.02090 =
 0.00380  0.00311  0.01051 
C2    1     0.71483  0.73368  0.35059  11.00000  0.02327  0.02415  0.01767 =
 0.00193  0.00232  0.00762 
C1    1     0.51431  0.62892  0.27563  11.00000  0.02525  0.02273  0.01910 =
 0.00090  0.00162  0.00962 
C17   1     0.63797  0.85129  0.42161  11.00000  0.02404  0.02674  0.01709 =
 0.00005  0.00040  0.00759 
C11   1     0.16613  0.44200  0.25175  11.00000  0.02620  0.02363  0.01971 =
 -0.00005  0.00536  0.00508 
C12   1     0.05000  0.49890  0.17822  11.00000  0.02653  0.02364  0.02887 =
 0.00278  0.00416  0.00626 
AFIX 43
H12   2     0.10743  0.60050  0.16506  11.00000 -1.20000 
AFIX 0
C7    1     0.94342  0.83239  0.08016  11.00000  0.03108  0.03383  0.02087 =
 0.00683  0.00585  0.01201 
AFIX 43
H7    2     0.89124  0.80979  0.00374  11.00000 -1.20000 
AFIX 0
C16   1     0.08064  0.29265  0.27031  11.00000  0.03569  0.02684  0.02244 =
 0.00522  0.00445  0.00578 
AFIX 43
H16   2     0.15902  0.25310  0.32024  11.00000 -1.20000 
AFIX 0
C14   1    -0.23487  0.25931  0.14397  11.00000  0.02683  0.03288  0.02995 =
 -0.00311  0.00358  0.00124 
AFIX 43
H14   2    -0.37297  0.19753  0.10814  11.00000 -1.20000 
AFIX 0
C4    1     1.09561  0.89814  0.30580  11.00000  0.02541  0.02896  0.02325 =
 0.00102  0.00156  0.00798 
AFIX 43
H4    2     1.14772  0.92086  0.38222  11.00000 -1.20000 
AFIX 0
C20   1     0.80739  0.64335  0.42642  11.00000  0.02919  0.03592  0.02124 =
 0.00803  0.00257  0.01308 
AFIX 137
H20a  2     0.85608  0.57015  0.38065  11.00000 -1.50000 
H20b  2     0.93207  0.71185  0.47528  11.00000 -1.50000 
H20c  2     0.69288  0.59063  0.47152  11.00000 -1.50000 
AFIX 0
C6    1     1.15834  0.92126  0.11357  11.00000  0.03043  0.03294  0.02873 =
 0.00864  0.01135  0.01006 
AFIX 43
H6    2     1.25459  0.95979  0.05927  11.00000 -1.20000 
AFIX 0
C15   1    -0.11894  0.20163  0.21591  11.00000  0.03955  0.02455  0.03097 =
 0.00325  0.00730  0.00066 
AFIX 43
H15   2    -0.17606  0.09960  0.22806  11.00000 -1.20000 
AFIX 0
C5    1     1.23459  0.95462  0.22532  11.00000  0.02502  0.03151  0.03235 =
 0.00333  0.00526  0.00707 
AFIX 43
H5    2     1.38184  1.01610  0.24691  11.00000 -1.20000 
AFIX 0
C13   1    -0.14911  0.40744  0.12428  11.00000  0.02636  0.03408  0.02888 =
 0.00110  0.00259  0.00980 
AFIX 43
H13   2    -0.22717  0.44626  0.07366  11.00000 -1.20000 
AFIX 0
HKLF 4

END
Q1 1 0.833333 0.8 0.225 11 0.05 0.48
Q2 1 1.166667 0.966667 0.175 11 0.05 0.46
Q3 1 -0.166667 0.266667 0.2 11 0.05 0.45
Q4 1 0.666667 0.8 0.375 11 0.05 0.44
Q5 1 0.5 0.666667 0.225 11 0.05 0.43

  REM The information below was added by Olex2.
  REM
  REM R1 = 0.0385 for 2787 Fo > 4sig(Fo) and 0.0421 for all 2827 data
  REM 183 parameters refined using 0 restraints
  REM Highest difference peak 0.4761, deepest hole -0.5019
  REM Mean Shift 0.0000, Max Shift 0.0002.

  REM +++ Tabular Listing of Refinement Information +++
  REM R1_all = 0.0421
  REM R1_gt = 0.0385
  REM wR_ref = 0.1054
  REM GOOF = 1.0423
  REM Shift_max = 0.0002
  REM Shift_mean = 0.0000
  REM Reflections_all = 2827
  REM Reflections_gt = 2787
  REM Parameters = 183
  REM Hole = -0.5019
  REM Peak = 0.4761
  REM Flack = n/a

  
;
_cod_data_source_file            ao1c03410_si_003.cif
_cod_data_source_block           PERU-AW-126
_cod_database_code               4519003
_chemical_oxdiff_formula         'C34 H26 N2 O2 S2 '
_diffrn_oxdiff_digest_frames
;
01c173412983e03366fedadbc873a52d230461692dc
;
_diffrn_oxdiff_digest_hkl
;
0148c6cbc59c88ad36608c219bd28697d4380f
;
_reflns_odcompleteness_completeness 99.96
_reflns_odcompleteness_iscentric 1
_reflns_odcompleteness_theta     66.97
_olex2_refinement_description
;
1. Fixed Uiso
 At 1.2 times of:
  All C(H) groups, All N(H,H) groups
 At 1.5 times of:
  All C(H,H,H) groups
2.a Aromatic/amide H refined with riding coordinates:
 C12(H12), C7(H7), C16(H16), C14(H14), C4(H4), C6(H6), C15(H15), C5(H5),
 C13(H13)
2.b X=CH2 refined with riding coordinates:
 N18(H18a,H18b)
2.c Idealised Me refined as rotating group:
 C20(H20a,H20b,H20c)
;
_iucr_refine_fcf_details
;
data_PERU-AW-126
_computing_structure_refinement   'olex2.refine (Bourhis et al., 2015)'
_shelx_refln_list_code            4
loop_
  _space_group_symop_id
  _space_group_symop_operation_xyz
  1  x,y,z
  2  -x,-y,-z

_space_group_crystal_system       triclinic
_space_group_IT_number            2
_space_group_name_H-M_alt         'P -1'
_space_group_name_Hall            '-P 1'
_symmetry_space_group_name_H-M    'P -1'
_symmetry_space_group_name_Hall   '-P 1'
_symmetry_Int_Tables_number       2
_cell_length_a                    6.4476(2)
_cell_length_b                    9.4727(3)
_cell_length_c                    12.1525(3)
_cell_angle_alpha                 96.180(2)
_cell_angle_beta                  92.803(2)
_cell_angle_gamma                 108.433(3)
_cell_volume                      697.34(4)
loop_
  _refln_index_h
  _refln_index_k
  _refln_index_l
  _refln_F_squared_calc
  _refln_F_squared_meas
  _refln_F_squared_sigma
  _refln_F_squared_weight
  _refln_observed_status
-8 4 1 59.636 43.362 1.229 4.711 o
-8 5 1 1.010 1.042 0.171 394.479 o
-7 -2 1 5.155 7.885 0.731 54.121 o
-7 -2 2 33.505 54.996 2.006 6.057 o
-7 -2 3 46.152 64.452 2.146 4.456 o
-7 -1 1 15.838 22.148 1.462 15.527 o
-7 -1 2 39.164 62.897 2.566 4.693 o
-7 -1 3 221.726 244.337 76.296 0.023 o
-7 -1 4 5.128 5.647 1.345 38.959 o
-7 -1 5 0.808 1.322 0.249 373.939 o
-7 -1 6 80.982 71.684 1.742 2.770 o
-7 0 1 25.935 38.056 2.784 6.788 o
-7 0 2 10.784 11.799 2.349 14.723 o
-7 0 3 4.253 4.422 1.151 50.765 o
-7 0 4 12.390 12.178 0.747 27.912 o
-7 0 5 68.056 67.805 1.401 3.425 o
-7 0 6 15.516 13.438 0.762 23.006 o
-7 0 7 8.557 7.574 0.482 45.414 o
-7 1 1 13.042 14.843 4.557 5.416 o
-7 1 2 19.701 23.823 0.784 15.662 o
-7 1 3 6.726 8.988 0.529 49.124 o
-7 1 4 55.032 57.420 1.392 4.469 o
-7 1 5 37.391 36.211 1.047 7.805 o
-7 1 6 2.023 2.597 0.420 156.697 o
-7 1 7 45.302 37.452 1.353 6.311 o
-7 1 8 1.137 1.275 0.218 328.920 o
-7 2 1 13.681 17.868 3.181 8.881 o
-7 2 2 159.041 184.602 7.917 0.631 o
-7 2 3 13.087 15.103 0.691 25.314 o
-7 2 4 3.427 3.992 0.354 106.520 o
-7 2 5 14.646 15.398 1.027 21.240 o
-7 2 6 126.070 123.321 3.204 1.284 o
-7 2 7 54.433 48.588 1.664 4.707 o
-7 2 8 3.316 1.913 0.280 139.037 o
-7 3 1 604.750 612.558 69.328 0.022 o
-7 3 2 0.685 1.484 0.334 336.885 o
-7 3 3 49.672 55.473 1.501 4.895 o
-7 3 4 15.049 16.473 1.213 19.229 o
-7 3 5 0.551 0.998 0.188 542.869 o
-7 3 6 68.424 73.426 2.271 3.053 o
-7 3 7 6.850 6.237 0.544 54.716 o
-7 3 8 109.437 86.973 2.037 1.851 o
-7 4 1 43.626 47.484 1.929 5.486 o
-7 4 2 34.556 39.863 1.695 7.245 o
-7 4 3 58.102 61.544 1.983 3.900 o
-7 4 4 18.401 20.158 0.946 16.982 o
-7 4 5 15.158 15.008 0.631 23.242 o
-7 4 6 111.166 89.013 10.817 0.733 o
-7 4 7 40.577 37.188 1.213 7.072 o
-7 5 1 4.834 5.519 0.682 64.829 o
-7 5 2 124.268 134.300 18.928 0.303 o
-7 5 3 83.984 92.688 1.859 2.357 o
-7 5 4 68.806 62.300 1.352 3.532 o
-7 5 5 59.339 55.272 1.127 4.339 o
-7 5 6 58.702 50.921 1.540 4.379 o
-7 6 1 38.006 37.206 0.887 7.747 o
-7 6 2 145.732 164.422 7.924 0.706 o
-7 6 3 44.324 41.402 1.499 6.080 o
-7 6 4 17.086 15.320 0.894 19.912 o
-7 6 5 132.432 123.274 2.893 1.244 o
-7 6 6 20.821 17.528 0.793 16.830 o
-7 7 1 25.734 25.466 1.219 11.608 o
-7 7 2 0.237 0.342 0.106 1440.810 o
-7 7 3 33.650 32.824 0.857 9.051 o
-7 7 4 68.036 60.740 7.294 1.549 o
-7 7 5 0.549 0.513 0.156 719.110 o
-7 8 1 2.083 2.146 0.311 180.237 o
-7 8 2 38.784 34.609 0.830 7.881 o
-6 -4 1 1.129 1.182 0.239 330.495 o
-6 -4 2 133.676 104.942 2.325 1.362 o
-6 -4 3 36.335 35.087 0.918 8.213 o
-6 -4 4 25.330 25.506 0.770 12.688 o
-6 -4 5 25.570 10.980 0.700 16.206 o
-6 -4 6 212.444 207.557 3.935 0.560 o
-6 -3 1 181.129 181.920 3.632 0.718 o
-6 -3 2 42.939 42.896 1.078 6.462 o
-6 -3 3 3.556 3.646 0.478 99.423 o
-6 -3 4 20.070 21.837 1.221 14.552 o
-6 -3 5 12.866 14.738 0.715 25.673 o
-6 -3 6 30.483 27.296 1.198 10.010 o
-6 -3 7 13.173 11.229 0.669 28.060 o
-6 -3 8 7.956 7.652 0.451 48.064 o
-6 -2 1 10.575 9.974 0.633 34.325 o
-6 -2 2 14.379 13.120 0.561 25.680 o
-6 -2 3 73.163 78.574 1.375 2.992 o
-6 -2 4 20.448 22.156 0.663 16.027 o
-6 -2 5 10.403 9.596 0.755 33.700 o
-6 -2 6 62.508 60.120 4.355 2.647 o
-6 -2 7 11.802 12.437 1.151 24.729 o
-6 -2 8 29.850 25.310 4.339 4.536 o
-6 -2 9 67.103 61.917 1.509 3.585 o
-6 -1 1 53.709 57.511 2.401 4.052 o
-6 -1 2 105.725 111.227 2.189 1.697 o
-6 -1 3 36.282 39.891 1.540 7.176 o
-6 -1 4 43.642 46.966 1.077 6.129 o
-6 -1 5 54.013 62.974 7.738 1.550 o
-6 -1 6 404.790 417.263 32.529 0.077 o
-6 -1 7 2.169 3.016 0.267 161.494 o
-6 -1 8 2.013 2.346 0.215 191.126 o
-6 -1 9 53.793 48.410 3.150 3.828 o
-6 0 1 195.629 213.181 3.834 0.604 o
-6 0 2 56.008 60.824 1.732 4.151 o
-6 0 3 98.381 112.261 6.470 1.221 o
-6 0 4 16.943 20.399 0.870 18.182 o
-6 0 5 158.456 191.397 5.537 0.726 o
-6 0 6 13.435 15.023 1.439 19.402 o
-6 0 7 4.562 4.559 0.406 83.248 o
-6 0 8 84.583 85.551 4.378 1.911 o
-6 0 9 77.845 79.388 3.585 2.302 o
-6 0 10 22.496 20.810 0.855 14.789 o
-6 1 1 39.008 37.604 1.286 7.207 o
-6 1 2 70.387 76.697 1.404 3.132 o
-6 1 3 8.246 9.542 0.532 42.376 o
-6 1 4 21.694 25.946 0.865 13.925 o
-6 1 5 203.412 217.456 3.419 0.581 o
-6 1 6 0.103 0.209 0.123 2382.530 o
-6 1 7 182.130 186.607 3.958 0.696 o
-6 1 8 26.778 26.956 0.853 11.752 o
-6 1 9 0.198 0.896 0.241 718.636 o
-6 1 10 71.240 69.770 3.010 2.782 o
-6 2 1 12.793 14.840 0.405 27.462 o
-6 2 2 18.126 19.805 0.578 18.555 o
-6 2 3 28.404 32.897 0.953 10.207 o
-6 2 4 314.591 327.810 6.453 0.265 o
-6 2 5 74.285 72.924 1.522 3.029 o
-6 2 6 25.142 26.214 0.948 12.284 o
-6 2 7 65.453 70.614 2.244 3.234 o
-6 2 8 22.973 22.972 1.342 12.678 o
-6 2 9 11.863 13.349 0.571 29.172 o
-6 2 10 14.414 14.042 0.848 23.346 o
-6 3 1 36.547 38.052 0.629 8.109 o
-6 3 2 29.359 29.864 0.810 10.556 o
-6 3 3 359.659 391.419 7.818 0.201 o
-6 3 4 129.047 140.642 1.783 1.251 o
-6 3 5 110.053 104.443 1.840 1.712 o
-6 3 6 46.086 43.892 1.100 6.011 o
-6 3 7 0.775 1.235 0.224 404.497 o
-6 3 8 7.579 9.976 0.502 44.328 o
-6 3 9 27.710 28.913 0.771 11.250 o
-6 3 10 12.368 9.912 0.454 32.182 o
-6 4 1 1.275 1.322 0.190 311.605 o
-6 4 2 39.487 40.918 1.293 6.892 o
-6 4 3 411.692 456.896 5.480 0.164 o
-6 4 4 201.768 212.297 3.468 0.593 o
-6 4 5 7.784 7.749 0.347 50.021 o
-6 4 6 13.281 13.551 0.488 27.294 o
-6 4 7 163.523 168.256 2.524 0.867 o
-6 4 8 98.201 95.440 2.065 1.979 o
-6 4 9 89.406 91.444 1.462 2.286 o
-6 4 10 49.380 48.013 1.478 5.250 o
-6 5 1 3.764 4.506 0.320 98.069 o
-6 5 2 88.716 98.766 8.463 1.053 o
-6 5 3 124.590 137.573 1.959 1.304 o
-6 5 4 40.293 42.216 0.858 7.008 o
-6 5 5 36.236 33.553 0.883 8.411 o
-6 5 6 77.839 87.471 2.846 2.392 o
-6 5 7 45.228 43.378 1.804 5.633 o
-6 5 8 109.422 120.412 3.142 1.490 o
-6 5 9 186.439 177.741 3.935 0.697 o
-6 6 1 58.963 63.085 1.465 4.007 o
-6 6 2 99.332 106.360 12.948 0.585 o
-6 6 3 4.557 5.069 0.395 80.893 o
-6 6 4 58.605 57.522 1.487 4.191 o
-6 6 5 52.834 54.077 1.308 4.790 o
-6 6 6 1.035 1.369 0.389 270.351 o
-6 6 7 0.449 0.669 0.280 573.125 o
-6 6 8 38.981 40.220 1.524 6.790 o
-6 6 9 58.064 59.320 1.633 4.112 o
-6 7 1 49.211 51.889 1.334 5.171 o
-6 7 2 35.662 40.598 1.466 7.300 o
-6 7 3 114.128 117.752 2.845 1.477 o
-6 7 4 64.437 62.497 1.190 3.792 o
-6 7 5 14.646 12.790 0.422 26.202 o
-6 7 6 13.578 11.898 0.855 25.557 o
-6 7 7 53.102 48.075 1.649 4.838 o
-6 7 8 42.193 38.898 1.244 6.701 o
-6 8 1 0.557 0.569 0.133 715.369 o
-6 8 2 81.693 80.293 1.135 2.700 o
-6 8 3 2.651 3.799 0.207 135.409 o
-6 8 4 0.535 0.346 0.097 880.574 o
-6 8 5 4.558 3.704 0.358 90.676 o
-6 8 6 1.289 1.664 0.280 263.238 o
-6 9 1 15.242 13.913 0.554 24.136 o
-6 9 2 7.254 8.325 0.281 51.912 o
-6 9 3 8.970 8.932 0.331 43.266 o
-6 9 4 11.283 9.021 0.560 34.553 o
-6 10 1 7.477 6.000 0.313 56.361 o
-5 -6 1 53.270 47.157 3.795 3.454 o
-5 -6 2 37.861 36.755 0.825 7.858 o
-5 -6 3 20.009 19.566 0.583 17.300 o
-5 -6 4 34.043 32.257 1.680 7.952 o
-5 -6 5 23.145 23.485 0.964 13.580 o
-5 -6 6 10.087 10.592 0.560 35.496 o
-5 -5 1 108.554 113.157 2.488 1.614 o
-5 -5 2 89.043 89.108 2.042 2.248 o
-5 -5 3 1.297 2.230 0.285 233.997 o
-5 -5 4 42.137 46.268 1.430 6.106 o
-5 -5 5 21.758 23.586 0.730 14.775 o
-5 -5 6 9.402 12.971 0.855 31.134 o
-5 -5 7 8.459 7.154 0.560 45.356 o
-5 -5 8 4.771 3.422 0.311 91.534 o
-5 -4 1 147.906 153.612 2.233 1.021 o
-5 -4 2 38.951 37.012 0.991 7.524 o
-5 -4 3 9.940 8.745 0.574 38.030 o
-5 -4 4 1.267 2.061 0.669 148.870 o
-5 -4 5 158.620 165.428 3.346 0.876 o
-5 -4 6 20.570 21.508 1.039 15.030 o
-5 -4 7 4.486 4.555 0.362 85.915 o
-5 -4 8 39.222 45.444 4.028 3.916 o
-5 -4 9 8.902 10.792 0.423 39.692 o
-5 -3 1 118.503 125.635 1.565 1.461 o
-5 -3 2 24.312 25.433 0.700 13.237 o
-5 -3 3 29.557 30.440 1.555 9.207 o
-5 -3 4 688.118 680.510 8.520 0.068 o
-5 -3 5 313.749 324.328 9.390 0.246 o
-5 -3 6 0.393 1.040 0.200 599.790 o
-5 -3 7 189.061 163.866 2.781 0.744 o
-5 -3 8 75.649 81.714 3.884 2.242 o
-5 -3 9 35.510 35.745 0.982 8.248 o
-5 -3 10 16.079 14.838 0.793 21.551 o
-5 -2 1 2.780 5.713 0.357 102.545 o
-5 -2 2 47.422 50.759 0.973 5.565 o
-5 -2 3 0.439 0.748 0.183 680.998 o
-5 -2 4 1.327 1.505 0.216 285.218 o
-5 -2 5 193.467 192.749 3.409 0.655 o
-5 -2 6 54.460 49.119 1.570 4.734 o
-5 -2 7 108.919 107.251 4.295 1.442 o
-5 -2 8 127.692 136.404 4.277 1.129 o
-5 -2 9 0.993 1.090 0.163 395.806 o
-5 -2 10 40.055 35.860 1.182 7.278 o
-5 -1 1 90.043 99.312 1.318 2.191 o
-5 -1 2 1.696 2.310 0.203 214.161 o
-5 -1 3 77.673 81.177 1.342 2.791 o
-5 -1 4 282.114 293.265 8.033 0.302 o
-5 -1 5 2.559 2.588 0.305 150.883 o
-5 -1 6 65.014 61.244 1.693 3.651 o
-5 -1 7 7.155 8.228 0.430 50.599 o
-5 -1 8 3.260 3.764 0.295 115.483 o
-5 -1 9 71.671 67.065 2.002 3.130 o
-5 -1 10 1.321 2.187 0.229 245.764 o
-5 -1 11 15.616 16.348 0.519 22.510 o
-5 -1 12 35.582 29.706 1.027 8.788 o
-5 0 1 18.527 17.363 0.459 19.521 o
-5 0 2 15.640 13.477 0.493 24.192 o
-5 0 3 161.511 165.850 2.916 0.873 o
-5 0 4 113.024 119.410 2.837 1.481 o
-5 0 5 447.268 449.861 8.777 0.143 o
-5 0 6 99.544 104.664 3.073 1.746 o
-5 0 7 5.357 5.284 0.323 73.981 o
-5 0 8 72.647 73.228 2.744 2.768 o
-5 0 9 13.362 14.409 0.539 26.302 o
-5 0 10 71.602 63.389 2.272 3.123 o
-5 0 11 7.522 7.755 0.369 50.911 o
-5 0 12 114.004 103.242 2.442 1.611 o
-5 1 1 388.754 390.164 4.606 0.195 o
-5 1 2 97.640 114.487 3.128 1.693 o
-5 1 3 354.183 377.984 4.505 0.222 o
-5 1 4 358.353 345.956 6.231 0.224 o
-5 1 5 2.813 2.592 0.223 148.749 o
-5 1 6 80.049 86.375 1.328 2.632 o
-5 1 7 9.128 10.406 0.453 39.308 o
-5 1 8 164.666 153.657 3.387 0.873 o
-5 1 9 6.010 4.309 0.319 72.571 o
-5 1 10 0.584 0.644 0.193 611.172 o
-5 1 11 21.466 17.779 0.533 17.050 o
-5 1 12 226.848 213.415 3.039 0.525 o
-5 2 1 34.142 37.661 0.673 8.588 o
-5 2 2 508.362 533.857 9.020 0.112 o
-5 2 3 183.931 187.014 3.554 0.699 o
-5 2 4 31.657 32.725 1.389 8.803 o
-5 2 5 449.920 455.425 3.613 0.151 o
-5 2 6 17.587 17.594 0.496 20.114 o
-5 2 7 462.817 480.244 6.217 0.138 o
-5 2 8 4.791 6.260 0.401 72.496 o
-5 2 9 223.467 232.675 5.257 0.477 o
-5 2 10 27.306 25.849 0.981 11.533 o
-5 2 11 59.832 58.978 1.485 4.071 o
-5 2 12 2.382 2.464 0.191 171.222 o
-5 3 1 152.938 156.865 2.532 0.965 o
-5 3 2 15.446 14.055 0.439 24.291 o
-5 3 3 24.331 26.169 1.385 11.531 o
-5 3 4 180.821 184.526 2.715 0.736 o
-5 3 5 2.116 2.530 0.181 183.611 o
-5 3 6 243.378 245.406 4.405 0.435 o
-5 3 7 3.497 3.691 0.330 109.419 o
-5 3 8 274.616 261.332 20.017 0.183 o
-5 3 9 8.262 9.796 0.686 39.684 o
-5 3 10 30.791 31.580 1.135 9.506 o
-5 3 11 2.534 1.630 0.200 183.545 o
-5 3 12 2.252 1.704 0.210 196.506 o
-5 4 1 107.154 111.861 2.584 1.634 o
-5 4 2 0.621 1.389 0.168 455.019 o
-5 4 3 344.579 356.369 5.944 0.231 o
-5 4 4 7.944 8.618 0.430 46.482 o
-5 4 5 2.449 1.810 0.186 184.613 o
-5 4 6 35.204 32.905 0.943 8.625 o
-5 4 7 139.558 135.542 4.230 1.046 o
-5 4 8 108.306 115.377 2.127 1.633 o
-5 4 9 5.568 4.666 0.314 75.107 o
-5 4 10 334.051 335.336 3.984 0.257 o
-5 4 11 0.799 1.025 0.233 420.344 o
-5 5 1 5.049 5.956 0.318 73.830 o
-5 5 2 327.551 317.691 3.376 0.274 o
-5 5 3 133.999 137.172 3.418 1.135 o
-5 5 4 0.158 0.567 0.129 1275.370 o
-5 5 5 72.193 77.176 1.240 3.080 o
-5 5 6 82.850 76.880 1.705 2.635 o
-5 5 7 3.462 3.157 0.426 109.059 o
-5 5 8 116.100 132.350 3.251 1.336 o
-5 5 9 186.895 211.659 5.024 0.606 o
-5 5 10 49.191 43.960 1.181 5.629 o
-5 5 11 146.515 130.569 2.940 1.089 o
-5 6 1 36.404 37.461 0.863 8.027 o
-5 6 2 1.030 0.667 0.153 446.874 o
-5 6 3 0.212 0.265 0.109 1656.280 o
-5 6 4 57.419 53.633 0.936 4.589 o
-5 6 5 13.785 14.411 0.497 25.934 o
-5 6 6 81.913 84.510 2.191 2.464 o
-5 6 7 12.906 16.873 0.714 24.303 o
-5 6 8 86.876 95.280 2.136 2.213 o
-5 6 9 0.235 0.378 0.153 1240.410 o
-5 6 10 0.431 0.281 0.115 1046.140 o
-5 7 1 58.203 61.978 1.591 4.040 o
-5 7 2 10.576 9.857 0.431 36.385 o
-5 7 3 17.595 20.369 0.842 17.846 o
-5 7 4 13.886 12.737 0.455 27.172 o
-5 7 5 196.788 181.070 6.703 0.573 o
-5 7 6 0.125 0.504 0.206 1148.860 o
-5 7 7 10.575 12.377 0.553 32.546 o
-5 7 8 4.749 5.584 0.335 78.118 o
-5 7 9 2.494 2.409 0.214 165.472 o
-5 8 1 0.175 0.341 0.180 1331.440 o
-5 8 2 168.236 190.853 2.207 0.790 o
-5 8 3 1.350 1.608 0.184 283.368 o
-5 8 4 62.686 58.339 1.334 3.969 o
-5 8 5 4.300 3.711 0.222 99.559 o
-5 8 6 44.826 46.006 1.419 5.832 o
-5 8 7 41.687 41.449 0.878 6.851 o
-5 8 8 0.142 0.202 0.099 2297.800 o
-5 9 1 145.571 165.065 4.095 0.920 o
-5 9 2 117.688 134.465 1.607 1.415 o
-5 9 3 64.685 64.852 1.361 3.673 o
-5 9 4 109.275 88.672 5.094 1.429 o
-5 9 5 5.726 7.281 0.435 60.727 o
-5 9 6 25.622 25.564 1.135 11.823 o
-5 10 1 246.686 249.922 2.813 0.440 o
-5 10 2 94.564 85.651 1.763 2.197 o
-5 10 3 94.232 66.706 8.212 1.149 o
-5 11 1 55.783 47.997 1.338 4.785 o
-4 -7 1 39.560 38.420 0.970 7.331 o
-4 -7 2 80.185 79.893 1.990 2.618 o
-4 -7 3 16.655 13.675 2.240 12.847 o
-4 -7 4 20.508 21.991 0.710 15.923 o
-4 -7 5 26.604 27.862 1.172 11.062 o
-4 -7 6 12.534 11.043 0.700 28.969 o
-4 -7 7 1.002 1.338 0.218 347.081 o
-4 -6 1 8.919 9.311 0.466 41.423 o
-4 -6 2 19.330 17.882 0.921 17.212 o
-4 -6 3 62.319 59.437 1.743 3.822 o
-4 -6 4 61.609 61.205 1.856 3.771 o
-4 -6 5 74.190 74.701 2.464 2.775 o
-4 -6 6 0.539 1.091 0.184 530.647 o
-4 -6 7 24.267 25.155 0.663 13.379 o
-4 -6 8 29.933 28.349 0.646 10.806 o
-4 -6 9 88.792 88.140 2.115 2.255 o
-4 -5 1 110.079 102.222 2.218 1.697 o
-4 -5 2 184.566 197.653 3.964 0.666 o
-4 -5 3 200.445 203.441 3.288 0.614 o
-4 -5 4 242.689 234.960 6.479 0.417 o
-4 -5 5 246.256 255.810 7.794 0.373 o
-4 -5 6 111.022 110.899 1.522 1.669 o
-4 -5 7 41.148 44.080 1.071 6.623 o
-4 -5 8 62.109 72.545 1.355 3.609 o
-4 -5 9 0.025 0.400 0.171 1824.360 o
-4 -5 10 103.624 96.834 2.395 1.828 o
-4 -4 1 106.692 112.339 2.306 1.664 o
-4 -4 2 387.528 388.673 7.499 0.187 o
-4 -4 3 131.081 121.393 2.087 1.314 o
-4 -4 4 131.564 127.490 2.308 1.267 o
-4 -4 5 5.898 5.726 0.340 67.126 o
-4 -4 6 111.555 109.401 1.721 1.659 o
-4 -4 7 43.366 49.732 1.651 5.623 o
-4 -4 8 90.452 91.745 2.177 2.166 o
-4 -4 9 6.403 8.278 0.520 52.370 o
-4 -4 10 69.644 65.870 1.528 3.366 o
-4 -4 11 13.569 18.720 0.785 22.152 o
-4 -3 1 0.599 1.316 0.166 475.525 o
-4 -3 2 171.736 177.258 1.987 0.811 o
-4 -3 3 195.587 188.192 2.583 0.671 o
-4 -3 4 44.184 42.951 0.776 6.467 o
-4 -3 5 17.550 14.080 0.488 21.801 o
-4 -3 6 179.816 171.083 3.344 0.755 o
-4 -3 7 116.871 106.704 2.476 1.545 o
-4 -3 8 1.777 0.848 0.218 270.100 o
-4 -3 9 18.959 17.969 0.811 17.848 o
-4 -3 10 2.832 3.053 0.289 135.713 o
-4 -3 11 29.933 34.445 1.034 9.512 o
-4 -3 12 11.686 12.175 0.506 30.963 o
-4 -2 1 2.538 4.183 0.380 121.331 o
-4 -2 2 29.036 27.255 0.572 11.335 o
-4 -2 3 210.166 216.129 3.794 0.556 o
-4 -2 4 705.602 703.793 12.499 0.062 o
-4 -2 5 96.665 85.674 1.581 2.169 o
-4 -2 6 268.429 268.421 3.485 0.379 o
-4 -2 7 60.395 68.570 1.769 3.674 o
-4 -2 8 105.448 109.580 2.397 1.695 o
-4 -2 9 13.806 8.048 0.431 31.344 o
-4 -2 10 26.467 29.382 1.890 9.284 o
-4 -2 11 161.490 165.139 3.795 0.844 o
-4 -2 12 31.355 29.419 0.845 10.027 o
-4 -2 13 13.617 10.996 0.560 28.314 o
-4 -1 1 495.376 512.923 5.015 0.123 o
-4 -1 2 388.368 401.515 4.426 0.193 o
-4 -1 3 318.781 301.194 3.258 0.292 o
-4 -1 4 73.501 91.247 1.837 2.678 o
-4 -1 5 218.578 211.419 2.738 0.554 o
-4 -1 6 108.029 101.695 2.027 1.751 o
-4 -1 7 136.134 132.960 3.247 1.146 o
-4 -1 8 1.744 5.059 0.369 131.405 o
-4 -1 9 13.084 9.487 0.481 31.029 o
-4 -1 10 114.032 111.793 2.447 1.551 o
-4 -1 11 189.662 179.659 3.375 0.695 o
-4 -1 12 14.893 14.239 0.469 24.736 o
-4 -1 13 161.187 154.258 2.313 0.927 o
-4 0 1 239.717 239.051 3.885 0.455 o
-4 0 2 622.484 661.074 14.153 0.073 o
-4 0 3 389.181 405.133 5.861 0.187 o
-4 0 4 233.971 237.455 4.087 0.467 o
-4 0 5 207.589 218.175 2.073 0.585 o
-4 0 6 49.237 48.758 0.874 5.524 o
-4 0 7 63.833 68.914 1.477 3.582 o
-4 0 8 636.199 609.396 12.821 0.076 o
-4 0 9 0.620 0.483 0.202 627.120 o
-4 0 10 21.914 22.968 0.888 14.457 o
-4 0 11 22.994 22.870 0.809 14.165 o
-4 0 12 13.716 15.031 0.500 25.597 o
-4 0 13 46.077 40.447 1.007 6.267 o
-4 1 1 269.502 267.122 4.641 0.369 o
-4 1 2 76.458 75.394 1.969 2.812 o
-4 1 3 12.780 13.332 0.317 29.036 o
-4 1 4 299.180 296.930 2.549 0.320 o
-4 1 5 0.719 3.044 0.566 174.779 o
-4 1 6 3.881 3.547 0.260 106.901 o
-4 1 7 391.840 389.694 8.327 0.181 o
-4 1 8 139.210 149.198 2.101 1.109 o
-4 1 9 221.037 225.300 2.848 0.527 o
-4 1 10 4.360 4.308 0.451 85.174 o
-4 1 11 32.630 33.628 1.280 8.673 o
-4 1 12 19.830 22.829 0.910 15.493 o
-4 1 13 4.830 4.314 0.223 87.511 o
-4 2 1 499.739 517.317 4.912 0.122 o
-4 2 2 108.553 108.821 1.327 1.736 o
-4 2 3 166.206 156.279 1.428 0.910 o
-4 2 4 88.766 99.298 1.035 2.245 o
-4 2 5 284.993 270.261 5.442 0.338 o
-4 2 6 6.475 7.536 0.450 55.302 o
-4 2 7 542.784 566.759 6.621 0.103 o
-4 2 8 590.191 595.220 5.569 0.091 o
-4 2 9 92.732 99.080 2.857 1.941 o
-4 2 10 66.394 74.277 1.700 3.281 o
-4 2 11 5.837 5.539 0.426 66.208 o
-4 2 12 0.279 0.180 0.117 1528.160 o
-4 2 13 11.598 9.873 0.624 32.379 o
-4 3 1 275.764 258.345 2.164 0.383 o
-4 3 2 157.333 149.304 1.951 0.979 o
-4 3 3 34.809 38.144 0.603 8.451 o
-4 3 4 273.397 256.899 2.318 0.387 o
-4 3 5 125.348 133.653 2.195 1.305 o
-4 3 6 451.657 462.612 6.755 0.144 o
-4 3 7 2.885 4.037 0.296 120.872 o
-4 3 8 89.822 91.998 1.991 2.204 o
-4 3 9 456.833 464.372 4.997 0.145 o
-4 3 10 9.592 9.774 0.509 38.312 o
-4 3 11 188.098 195.314 2.840 0.681 o
-4 3 12 43.828 41.935 1.421 6.168 o
-4 3 13 89.622 87.875 2.209 2.224 o
-4 4 1 41.974 37.469 0.722 7.189 o
-4 4 2 14.107 9.819 0.390 29.437 o
-4 4 3 23.553 28.213 0.576 13.171 o
-4 4 4 20.304 19.048 0.606 17.218 o
-4 4 5 113.113 103.536 2.910 1.576 o
-4 4 6 4.742 3.479 0.308 91.674 o
-4 4 7 3.996 4.284 0.350 94.860 o
-4 4 8 25.359 25.660 0.983 12.232 o
-4 4 9 3.326 3.092 0.351 117.930 o
-4 4 10 31.016 29.790 0.967 9.909 o
-4 4 11 5.943 5.895 0.326 66.444 o
-4 4 12 91.195 85.052 1.937 2.261 o
-4 5 1 604.132 597.489 14.591 0.079 o
-4 5 2 12.227 9.127 0.338 34.014 o
-4 5 3 8.005 9.809 0.354 44.904 o
-4 5 4 97.253 97.017 2.055 1.983 o
-4 5 5 6.160 5.651 0.308 66.083 o
-4 5 6 272.734 277.894 3.991 0.361 o
-4 5 7 28.398 34.343 2.139 7.930 o
-4 5 8 39.130 41.730 1.522 6.672 o
-4 5 9 0.282 0.404 0.190 1013.860 o
-4 5 10 12.287 11.177 0.550 30.458 o
-4 5 11 127.181 141.334 2.056 1.254 o
-4 5 12 22.007 13.485 0.700 17.674 o
-4 6 1 492.656 504.123 6.553 0.124 o
-4 6 2 53.039 51.803 0.876 5.030 o
-4 6 3 19.649 18.713 0.509 18.022 o
-4 6 4 136.825 153.529 4.805 0.967 o
-4 6 5 197.840 178.700 3.930 0.653 o
-4 6 6 57.383 68.255 1.666 3.879 o
-4 6 7 14.233 15.623 0.749 23.292 o
-4 6 8 30.886 34.282 1.068 9.264 o
-4 6 9 79.898 81.868 1.609 2.665 o
-4 6 10 215.525 229.109 13.492 0.322 o
-4 6 11 24.296 21.529 5.856 3.193 o
-4 7 1 108.383 109.997 7.434 1.039 o
-4 7 2 99.295 93.306 2.146 1.969 o
-4 7 3 75.642 84.636 2.236 2.632 o
-4 7 4 26.337 23.532 0.803 12.620 o
-4 7 5 46.312 47.805 1.783 5.337 o
-4 7 6 23.376 21.634 1.431 12.495 o
-4 7 7 136.815 153.447 4.168 1.007 o
-4 7 8 319.178 330.716 4.944 0.269 o
-4 7 9 9.814 8.414 0.762 36.279 o
-4 7 10 104.360 76.148 2.146 2.039 o
-4 8 1 68.215 68.993 2.481 3.077 o
-4 8 2 183.123 205.679 5.149 0.624 o
-4 8 3 59.090 61.488 1.681 3.968 o
-4 8 4 0.149 0.248 0.117 1963.430 o
-4 8 5 6.516 5.316 0.440 61.850 o
-4 8 6 9.789 7.246 0.435 42.294 o
-4 8 7 206.858 206.107 3.503 0.586 o
-4 8 8 3.931 4.923 0.396 89.236 o
-4 8 9 61.094 56.970 3.196 3.289 o
-4 9 1 30.261 28.469 0.937 10.326 o
-4 9 2 111.574 107.223 4.015 1.447 o
-4 9 3 0.003 0.035 0.109 8626.190 o
-4 9 4 3.114 2.842 0.228 134.646 o
-4 9 5 2.930 3.940 0.390 114.500 o
-4 9 6 13.205 14.153 0.671 25.908 o
-4 9 7 0.424 0.894 0.226 594.815 o
-4 9 8 7.252 6.747 0.591 50.492 o
-4 10 1 31.133 35.462 0.951 9.217 o
-4 10 2 187.648 197.897 3.694 0.660 o
-4 10 3 5.331 5.266 0.268 75.597 o
-4 10 4 53.306 55.419 1.384 4.670 o
-4 10 5 21.033 21.377 0.693 15.841 o
-4 10 6 12.980 14.386 1.493 19.553 o
-4 11 1 60.917 59.060 2.154 3.742 o
-4 11 2 7.781 5.754 1.291 34.125 o
-4 11 3 15.672 14.076 0.653 23.079 o
-3 -9 2 1.489 2.525 1.003 87.459 o
-3 -9 3 73.477 64.589 3.165 2.740 o
-3 -8 1 2.107 2.673 0.231 175.696 o
-3 -8 2 3.484 2.753 0.233 125.508 o
-3 -8 3 216.454 222.913 3.264 0.538 o
-3 -8 4 19.880 20.710 0.540 17.111 o
-3 -8 5 20.604 20.258 0.476 16.925 o
-3 -8 6 112.881 106.566 2.395 1.607 o
-3 -8 7 24.285 21.471 0.512 14.459 o
-3 -7 1 0.378 0.940 0.227 605.550 o
-3 -7 2 141.142 135.183 3.062 1.106 o
-3 -7 3 25.596 28.133 1.214 11.239 o
-3 -7 4 24.158 26.387 0.793 12.934 o
-3 -7 5 12.849 11.833 0.474 29.411 o
-3 -7 6 28.384 30.009 0.880 10.722 o
-3 -7 7 2.964 2.963 0.257 135.488 o
-3 -7 8 3.755 4.277 0.233 103.610 o
-3 -7 10 49.758 44.109 1.306 5.496 o
-3 -6 1 1.507 2.531 0.318 200.788 o
-3 -6 2 26.587 24.608 0.717 12.467 o
-3 -6 3 72.923 71.260 1.571 3.104 o
-3 -6 4 12.567 14.051 0.687 26.743 o
-3 -6 5 192.513 183.913 3.751 0.667 o
-3 -6 6 58.986 55.349 1.260 4.317 o
-3 -6 7 3.694 3.781 0.322 105.281 o
-3 -6 8 3.058 4.075 0.379 111.251 o
-3 -6 9 28.204 31.891 1.009 10.314 o
-3 -6 10 5.416 6.797 0.423 64.747 o
-3 -6 11 0.478 0.767 0.153 680.561 o
-3 -5 1 356.808 360.919 6.858 0.217 o
-3 -5 2 27.828 27.856 0.915 11.161 o
-3 -5 3 193.779 192.073 6.667 0.567 o
-3 -5 4 750.166 754.991 8.857 0.057 o
-3 -5 5 0.709 0.754 0.195 521.859 o
-3 -5 6 47.696 42.603 0.937 5.988 o
-3 -5 7 68.201 75.202 1.573 3.216 o
-3 -5 8 4.802 4.907 0.352 80.591 o
-3 -5 9 0.839 1.954 0.303 292.249 o
-3 -5 10 4.885 6.642 0.489 67.397 o
-3 -5 11 19.494 17.733 0.709 17.914 o
-3 -5 12 10.434 8.862 0.412 38.199 o
-3 -4 1 506.229 494.402 7.293 0.120 o
-3 -4 2 332.160 316.018 5.579 0.260 o
-3 -4 3 696.023 675.947 6.177 0.068 o
-3 -4 4 211.444 221.794 2.777 0.560 o
-3 -4 5 266.870 257.189 4.803 0.379 o
-3 -4 6 381.196 366.416 10.366 0.184 o
-3 -4 7 2.373 2.089 0.224 177.709 o
-3 -4 8 0.993 2.304 0.275 261.937 o
-3 -4 9 64.087 60.452 3.243 3.089 o
-3 -4 10 235.241 238.231 5.459 0.444 o
-3 -4 11 0.446 0.981 0.373 414.221 o
-3 -4 12 3.787 5.104 0.379 90.702 o
-3 -4 13 123.597 111.541 5.591 1.137 o
-3 -3 1 142.332 130.646 1.855 1.171 o
-3 -3 2 180.718 160.021 2.264 0.803 o
-3 -3 3 204.524 197.984 3.041 0.614 o
-3 -3 4 325.586 330.319 6.852 0.252 o
-3 -3 5 103.536 88.995 1.170 2.020 o
-3 -3 6 31.064 31.847 0.806 9.835 o
-3 -3 7 122.566 118.556 2.423 1.404 o
-3 -3 8 17.822 14.611 0.798 20.060 o
-3 -3 9 345.607 313.463 10.903 0.216 o
-3 -3 10 14.136 10.401 0.750 26.635 o
-3 -3 11 21.643 21.854 0.975 14.614 o
-3 -3 12 200.874 189.585 8.663 0.492 o
-3 -3 13 6.949 7.839 0.346 53.810 o
-3 -2 1 0.681 0.152 0.069 849.603 o
-3 -2 2 89.981 85.873 3.417 2.019 o
-3 -2 3 420.134 435.176 6.350 0.163 o
-3 -2 4 6.453 7.558 0.259 58.514 o
-3 -2 5 14.308 15.642 0.421 24.779 o
-3 -2 6 435.538 415.719 3.808 0.166 o
-3 -2 7 360.178 350.318 4.396 0.228 o
-3 -2 8 8.450 11.990 0.445 39.056 o
-3 -2 9 287.941 262.012 3.094 0.356 o
-3 -2 10 2.529 1.787 0.237 176.041 o
-3 -2 11 34.195 40.933 1.212 7.785 o
-3 -2 12 28.340 26.484 0.829 11.352 o
-3 -2 13 153.124 151.209 2.044 0.998 o
-3 -2 14 34.487 25.888 4.363 4.262 o
-3 -1 1 70.796 78.858 2.365 2.846 o
-3 -1 2 300.339 319.348 6.949 0.279 o
-3 -1 3 177.421 166.176 3.612 0.769 o
-3 -1 4 73.492 78.687 1.820 2.890 o
-3 -1 5 2.028 1.863 0.164 210.963 o
-3 -1 6 1055.050 1100.920 17.072 0.028 o
-3 -1 7 37.511 43.866 0.709 7.394 o
-3 -1 8 316.077 298.173 5.570 0.284 o
-3 -1 9 298.894 279.201 6.943 0.302 o
-3 -1 10 4.024 7.250 0.440 73.692 o
-3 -1 11 4.604 5.024 0.362 81.805 o
-3 -1 12 4.239 3.047 0.283 103.966 o
-3 -1 13 103.805 105.325 1.473 1.837 o
-3 -1 14 26.875 22.936 0.715 12.681 o
-3 0 1 144.901 157.370 3.929 0.955 o
-3 0 2 93.719 80.203 2.674 2.141 o
-3 0 3 1048.940 1117.410 14.486 0.029 o
-3 0 4 0.719 1.064 0.206 454.328 o
-3 0 5 92.706 77.905 1.460 2.375 o
-3 0 6 10.911 12.210 0.465 32.720 o
-3 0 7 6.858 7.493 0.327 55.461 o
-3 0 8 358.359 357.509 4.826 0.225 o
-3 0 9 31.134 32.430 0.871 9.670 o
-3 0 10 4.123 3.270 0.319 102.369 o
-3 0 11 14.555 15.043 0.739 23.315 o
-3 0 12 182.542 191.503 2.787 0.712 o
-3 0 13 150.578 157.856 3.569 0.936 o
-3 0 14 16.848 13.813 0.411 22.919 o
-3 1 1 0.415 1.185 0.216 538.480 o
-3 1 2 355.098 364.722 7.411 0.214 o
-3 1 3 15.357 12.453 0.732 23.907 o
-3 1 4 30.529 21.667 0.844 11.400 o
-3 1 5 16.016 20.950 0.665 19.476 o
-3 1 6 283.186 307.419 4.704 0.322 o
-3 1 7 632.840 642.076 8.793 0.077 o
-3 1 8 143.351 147.202 2.300 1.077 o
-3 1 9 159.201 158.739 3.218 0.896 o
-3 1 10 42.375 42.812 1.140 6.498 o
-3 1 11 18.848 22.698 0.972 15.864 o
-3 1 12 1.760 2.745 0.263 188.204 o
-3 1 13 9.626 8.914 0.429 40.269 o
-3 1 14 126.483 117.446 2.520 1.360 o
-3 2 1 2.873 1.735 0.357 149.348 o
-3 2 2 27.281 25.555 1.547 10.358 o
-3 2 3 111.042 99.747 2.597 1.664 o
-3 2 4 113.226 95.578 3.233 1.592 o
-3 2 5 107.938 113.308 1.928 1.669 o
-3 2 6 4.618 3.286 0.225 97.749 o
-3 2 7 2.748 3.444 0.278 133.337 o
-3 2 8 10.494 9.594 0.486 36.438 o
-3 2 9 296.489 308.625 3.890 0.310 o
-3 2 10 158.837 169.832 2.427 0.892 o
-3 2 11 12.127 12.237 0.665 28.943 o
-3 2 12 25.661 26.456 0.736 12.438 o
-3 2 13 48.450 55.870 1.478 4.991 o
-3 2 14 3.908 4.417 0.236 99.742 o
-3 3 1 151.788 132.295 2.947 1.042 o
-3 3 2 119.426 116.818 3.546 1.357 o
-3 3 3 33.609 34.469 1.527 8.060 o
-3 3 4 381.806 362.155 6.291 0.203 o
-3 3 5 1458.440 1450.780 11.069 0.016 o
-3 3 6 3.406 3.351 0.297 116.743 o
-3 3 7 1248.680 1281.630 34.607 0.018 o
-3 3 8 51.861 53.129 1.618 4.754 o
-3 3 9 106.750 113.372 1.982 1.683 o
-3 3 10 23.024 28.824 1.027 12.413 o
-3 3 11 0.235 0.482 0.191 1022.450 o
-3 3 12 100.192 108.168 1.924 1.838 o
-3 3 13 55.936 54.373 1.085 4.626 o
-3 4 1 33.491 34.656 1.848 7.589 o
-3 4 2 682.611 675.823 9.088 0.068 o
-3 4 3 53.715 44.594 1.322 5.102 o
-3 4 4 334.596 302.087 2.956 0.276 o
-3 4 5 129.857 132.670 2.351 1.256 o
-3 4 6 111.385 108.281 2.040 1.647 o
-3 4 7 440.988 467.709 9.379 0.141 o
-3 4 8 389.046 411.482 7.242 0.181 o
-3 4 9 59.404 61.085 1.335 4.083 o
-3 4 10 341.671 339.035 3.985 0.249 o
-3 4 11 258.204 265.625 3.055 0.402 o
-3 4 12 37.639 39.138 1.193 7.388 o
-3 4 13 2.484 2.924 0.373 140.705 o
-3 5 1 36.330 30.126 0.846 8.774 o
-3 5 2 22.776 23.317 0.612 14.578 o
-3 5 3 158.366 148.025 1.740 0.981 o
-3 5 4 60.816 61.239 1.671 3.881 o
-3 5 5 1.213 2.607 0.333 215.139 o
-3 5 6 357.184 332.662 5.382 0.233 o
-3 5 7 38.948 43.392 1.309 6.782 o
-3 5 8 35.428 43.465 1.362 7.229 o
-3 5 9 297.573 307.727 5.292 0.301 o
-3 5 10 125.132 134.722 2.346 1.293 o
-3 5 11 34.327 31.492 1.067 8.817 o
-3 5 12 71.055 66.709 2.628 2.966 o
-3 6 1 614.391 630.473 5.675 0.083 o
-3 6 2 154.303 155.086 2.322 0.969 o
-3 6 3 86.440 93.504 1.498 2.331 o
-3 6 4 39.648 43.715 0.953 6.933 o
-3 6 5 5.763 3.528 0.259 80.289 o
-3 6 6 186.553 212.946 3.921 0.632 o
-3 6 7 11.400 16.003 0.885 25.479 o
-3 6 8 125.079 118.475 5.031 1.155 o
-3 6 9 57.508 59.211 2.520 3.740 o
-3 6 10 32.038 32.999 2.232 7.308 o
-3 6 11 49.652 49.026 1.463 5.189 o
-3 6 12 30.074 25.880 0.995 10.653 o
-3 7 1 58.825 59.657 1.158 4.218 o
-3 7 2 124.417 133.180 2.634 1.291 o
-3 7 3 228.023 237.761 2.743 0.495 o
-3 7 4 4.499 3.202 0.264 98.994 o
-3 7 5 0.394 0.120 0.121 1267.420 o
-3 7 6 0.116 0.362 0.252 1107.550 o
-3 7 7 17.557 17.991 0.990 18.072 o
-3 7 8 41.092 39.472 1.418 6.661 o
-3 7 9 12.365 12.194 1.011 25.560 o
-3 7 10 0.372 0.964 0.198 636.341 o
-3 7 11 19.768 18.291 0.824 17.153 o
-3 8 1 358.910 362.471 4.120 0.225 o
-3 8 2 38.162 43.744 1.122 7.022 o
-3 8 3 197.652 184.125 9.372 0.482 o
-3 8 4 8.417 8.909 0.536 42.797 o
-3 8 5 85.629 81.884 3.762 2.067 o
-3 8 6 141.445 153.435 3.129 1.032 o
-3 8 7 62.055 58.938 1.672 3.876 o
-3 8 8 29.924 26.497 0.984 10.625 o
-3 8 9 19.519 18.166 0.995 16.709 o
-3 9 1 0.787 0.513 0.176 554.919 o
-3 9 2 82.133 86.539 2.145 2.439 o
-3 9 3 17.267 18.636 0.738 19.127 o
-3 9 4 51.961 49.452 1.524 4.942 o
-3 9 5 51.948 56.418 1.594 4.637 o
-3 9 6 0.534 0.537 0.198 669.801 o
-3 9 7 0.893 1.137 0.209 395.037 o
-3 9 8 10.395 8.646 0.539 37.354 o
-3 10 1 44.692 45.949 1.277 5.945 o
-3 10 2 23.620 26.410 0.793 13.148 o
-3 10 3 10.136 11.143 0.415 36.013 o
-3 10 4 45.642 48.180 1.264 5.731 o
-3 10 5 115.394 111.673 1.996 1.568 o
-3 10 6 0.091 0.179 0.099 2933.270 o
-3 11 1 17.830 20.649 0.495 18.684 o
-3 11 2 0.326 0.233 0.064 1437.450 o
-3 11 3 92.652 81.141 6.400 1.415 o
-3 11 4 2.080 2.162 0.264 186.404 o
-2 -10 2 37.702 32.635 0.835 8.257 o
-2 -9 1 0.576 0.790 0.208 562.300 o
-2 -9 2 5.219 4.982 0.402 74.392 o
-2 -9 3 1.884 2.248 0.263 195.467 o
-2 -9 4 2.338 1.835 0.242 184.068 o
-2 -9 5 0.065 0.077 0.112 4063.120 o
-2 -9 6 4.233 5.851 0.351 81.686 o
-2 -9 7 3.108 2.654 0.231 137.489 o
-2 -9 8 47.964 37.623 1.120 6.144 o
-2 -8 1 35.690 38.339 1.192 7.773 o
-2 -8 2 45.543 44.795 1.548 5.729 o
-2 -8 3 9.629 8.564 0.644 38.212 o
-2 -8 4 11.342 12.043 1.353 23.364 o
-2 -8 5 10.221 11.063 0.831 31.675 o
-2 -8 6 4.982 7.063 0.622 60.902 o
-2 -8 7 0.605 0.485 0.135 708.750 o
-2 -8 8 15.627 14.602 0.632 22.946 o
-2 -8 9 2.690 3.771 0.239 132.871 o
-2 -8 10 6.776 6.557 0.318 58.726 o
-2 -7 1 39.537 39.608 1.144 7.106 o
-2 -7 2 109.987 102.475 2.758 1.643 o
-2 -7 3 181.026 188.698 2.992 0.720 o
-2 -7 4 18.922 20.324 0.695 17.465 o
-2 -7 5 786.181 778.756 8.270 0.053 o
-2 -7 6 2.464 3.658 0.347 132.908 o
-2 -7 7 26.160 23.372 0.967 12.392 o
-2 -7 8 0.729 0.931 0.247 444.804 o
-2 -7 9 25.059 29.378 0.990 11.677 o
-2 -7 10 1.119 0.832 0.149 401.519 o
-2 -7 11 9.178 7.424 0.374 44.764 o
-2 -6 1 262.486 260.512 4.153 0.390 o
-2 -6 2 26.187 25.359 0.824 12.295 o
-2 -6 3 20.488 26.633 1.037 13.859 o
-2 -6 4 683.129 709.057 16.496 0.061 o
-2 -6 5 232.948 221.151 4.516 0.481 o
-2 -6 6 125.929 129.960 2.057 1.325 o
-2 -6 7 0.253 0.299 0.164 1253.960 o
-2 -6 8 428.316 429.184 6.038 0.162 o
-2 -6 9 9.118 8.790 0.483 41.416 o
-2 -6 10 2.223 2.289 0.220 180.597 o
-2 -6 11 85.357 81.242 1.866 2.471 o
-2 -6 12 135.997 135.618 2.122 1.195 o
-2 -5 1 10.847 10.513 0.766 31.765 o
-2 -5 2 120.697 119.826 2.246 1.431 o
-2 -5 3 133.347 128.084 2.336 1.245 o
-2 -5 4 72.326 62.482 1.518 3.325 o
-2 -5 5 169.105 151.386 2.473 0.884 o
-2 -5 6 1.251 1.711 0.216 281.699 o
-2 -5 7 388.441 378.441 5.658 0.196 o
-2 -5 8 0.995 1.615 0.282 301.868 o
-2 -5 9 36.605 32.889 1.003 8.291 o
-2 -5 10 106.826 101.893 1.835 1.786 o
-2 -5 11 42.847 47.678 1.113 6.159 o
-2 -5 12 46.850 46.426 1.187 5.740 o
-2 -5 13 21.714 21.168 3.437 6.864 o
-2 -4 1 29.400 28.481 0.683 10.905 o
-2 -4 2 114.527 126.580 1.619 1.503 o
-2 -4 3 10.188 12.541 0.563 33.090 o
-2 -4 4 82.322 86.039 1.281 2.574 o
-2 -4 5 180.833 176.425 2.336 0.762 o
-2 -4 6 356.170 342.689 4.038 0.235 o
-2 -4 7 175.308 175.407 3.404 0.764 o
-2 -4 8 171.995 152.819 4.471 0.795 o
-2 -4 9 69.777 70.855 1.306 3.300 o
-2 -4 10 24.769 26.786 0.903 12.406 o
-2 -4 11 0.844 0.529 0.157 538.813 o
-2 -4 12 233.808 255.526 3.590 0.453 o
-2 -4 13 73.568 65.061 5.257 2.030 o
-2 -3 1 1130.900 1181.770 39.932 0.020 o
-2 -3 2 8.748 10.921 0.747 36.042 o
-2 -3 3 47.352 52.703 1.450 5.238 o
-2 -3 4 212.718 200.977 4.024 0.567 o
-2 -3 5 553.426 536.990 10.127 0.099 o
-2 -3 6 0.602 0.653 0.151 638.649 o
-2 -3 7 612.748 609.468 8.134 0.084 o
-2 -3 8 242.856 230.464 5.429 0.437 o
-2 -3 9 2.935 1.872 0.210 158.588 o
-2 -3 10 1.833 1.578 0.318 210.922 o
-2 -3 11 7.879 9.491 0.420 45.202 o
-2 -3 12 570.173 585.082 6.669 0.095 o
-2 -3 13 34.944 39.082 1.529 7.453 o
-2 -3 14 0.807 0.662 0.154 528.417 o
-2 -2 1 257.537 277.545 5.640 0.369 o
-2 -2 2 305.597 324.691 5.874 0.279 o
-2 -2 3 206.906 188.018 4.666 0.590 o
-2 -2 4 577.220 700.570 12.554 0.078 o
-2 -2 5 191.403 225.842 6.683 0.529 o
-2 -2 6 1.202 2.800 0.350 205.557 o
-2 -2 7 191.383 170.204 4.438 0.678 o
-2 -2 8 78.084 82.968 1.296 2.753 o
-2 -2 9 229.256 218.442 2.517 0.518 o
-2 -2 10 15.554 16.047 0.581 22.485 o
-2 -2 11 72.536 78.801 1.470 2.994 o
-2 -2 12 7.902 8.779 0.438 46.224 o
-2 -2 13 26.010 27.139 0.724 12.200 o
-2 -2 14 86.922 82.116 2.870 2.233 o
-2 -1 1 71.371 70.773 1.037 3.281 o
-2 -1 2 1300.480 1340.100 47.911 0.015 o
-2 -1 3 375.825 422.846 4.324 0.194 o
-2 -1 4 42.913 54.989 1.323 5.626 o
-2 -1 5 5.444 13.224 0.646 43.798 o
-2 -1 6 352.885 363.712 5.796 0.223 o
-2 -1 7 19.446 21.317 0.820 16.425 o
-2 -1 8 52.346 43.160 0.787 5.524 o
-2 -1 9 90.373 87.470 1.358 2.323 o
-2 -1 10 152.653 157.371 2.772 0.957 o
-2 -1 11 49.944 52.951 1.157 5.144 o
-2 -1 12 12.498 12.985 0.536 28.662 o
-2 -1 13 96.877 110.900 1.915 1.874 o
-2 -1 14 29.564 29.038 0.778 10.657 o
-2 0 1 514.458 524.947 10.709 0.108 o
-2 0 2 28.409 30.315 1.573 9.442 o
-2 0 3 79.898 81.631 1.444 2.695 o
-2 0 4 40.606 50.136 1.034 6.329 o
-2 0 5 1093.180 1091.410 13.438 0.028 o
-2 0 6 62.562 59.449 1.997 3.712 o
-2 0 7 24.821 25.564 1.098 12.187 o
-2 0 8 353.169 349.470 4.928 0.232 o
-2 0 9 36.334 36.301 0.866 8.144 o
-2 0 10 43.139 46.222 1.249 6.123 o
-2 0 11 0.684 0.775 0.211 515.215 o
-2 0 12 32.569 36.385 1.882 7.547 o
-2 0 13 0.093 0.229 0.141 2205.890 o
-2 0 14 1.123 0.883 0.177 384.428 o
-2 1 1 11.485 14.744 0.451 29.392 o
-2 1 2 615.174 598.311 9.017 0.083 o
-2 1 3 3017.540 3039.690 33.696 0.004 o
-2 1 4 1685.180 1659.560 20.596 0.012 o
-2 1 5 1078.380 1114.150 14.590 0.028 o
-2 1 6 1003.350 1182.800 24.247 0.027 o
-2 1 7 214.731 197.463 5.865 0.527 o
-2 1 8 6.463 4.091 0.328 69.402 o
-2 1 9 168.256 167.322 2.252 0.850 o
-2 1 10 235.574 237.012 4.590 0.457 o
-2 1 11 755.427 796.975 7.451 0.055 o
-2 1 12 1.384 1.609 0.269 258.974 o
-2 1 13 11.619 12.631 0.532 30.481 o
-2 1 14 98.337 94.120 1.594 2.039 o
-2 2 1 486.945 464.040 6.590 0.132 o
-2 2 2 259.118 224.047 4.261 0.427 o
-2 2 3 97.213 85.192 3.374 1.900 o
-2 2 4 1103.040 1112.920 16.230 0.027 o
-2 2 5 476.894 452.836 14.270 0.118 o
-2 2 6 2123.160 1886.360 22.423 0.008 o
-2 2 7 44.672 43.608 1.561 5.872 o
-2 2 8 44.333 48.500 0.980 6.013 o
-2 2 9 601.571 611.535 5.347 0.087 o
-2 2 10 657.910 641.395 16.261 0.067 o
-2 2 11 89.346 82.417 1.837 2.354 o
-2 2 12 3.855 4.653 0.554 83.781 o
-2 2 13 192.624 196.782 3.507 0.648 o
-2 2 14 67.325 59.183 1.469 3.653 o
-2 3 1 1705.730 1600.910 19.572 0.012 o
-2 3 2 224.818 232.282 4.219 0.491 o
-2 3 3 157.408 149.588 9.207 0.623 o
-2 3 4 492.136 540.520 6.984 0.118 o
-2 3 5 123.982 115.968 2.873 1.370 o
-2 3 6 2.538 1.804 0.227 176.317 o
-2 3 7 12.275 10.171 0.513 31.689 o
-2 3 8 216.305 215.047 4.012 0.537 o
-2 3 9 104.649 100.651 3.150 1.689 o
-2 3 10 440.238 447.980 8.461 0.147 o
-2 3 11 20.071 19.446 1.038 15.849 o
-2 3 12 37.988 45.579 1.983 6.106 o
-2 3 13 1.486 2.198 0.246 227.573 o
-2 3 14 1.476 1.027 0.249 287.634 o
-2 4 1 522.671 511.625 11.369 0.107 o
-2 4 2 1020.590 979.773 13.457 0.032 o
-2 4 3 0.755 1.559 0.389 292.998 o
-2 4 4 150.202 138.435 2.646 1.044 o
-2 4 5 9.970 11.869 0.484 34.983 o
-2 4 6 31.746 28.285 0.832 10.090 o
-2 4 7 259.514 259.543 7.116 0.361 o
-2 4 8 12.620 12.730 0.749 27.148 o
-2 4 9 78.711 82.816 1.789 2.656 o
-2 4 10 97.046 89.022 2.294 2.037 o
-2 4 11 31.043 32.856 1.306 9.047 o
-2 4 12 3.986 4.492 0.433 89.565 o
-2 4 13 102.589 92.215 2.706 1.848 o
-2 5 1 2305.710 2519.420 80.674 0.005 o
-2 5 2 694.800 679.397 12.448 0.064 o
-2 5 3 38.007 44.237 1.065 7.053 o
-2 5 4 42.172 39.775 1.213 6.670 o
-2 5 5 0.488 0.759 0.210 614.473 o
-2 5 6 359.857 354.806 7.069 0.216 o
-2 5 7 6.735 7.729 0.678 48.666 o
-2 5 8 2.287 2.004 0.331 170.880 o
-2 5 9 95.954 91.809 2.761 1.964 o
-2 5 10 4.492 5.304 0.824 61.716 o
-2 5 11 45.361 40.693 2.932 4.715 o
-2 5 12 2.251 2.206 0.739 110.127 o
-2 5 13 89.410 67.145 9.246 1.021 o
-2 6 1 179.941 184.023 3.471 0.723 o
-2 6 2 42.967 43.346 1.189 6.357 o
-2 6 3 100.290 102.622 2.500 1.824 o
-2 6 4 506.745 524.038 12.987 0.106 o
-2 6 5 323.585 309.272 5.102 0.274 o
-2 6 6 24.766 28.090 1.143 11.668 o
-2 6 7 59.676 66.863 2.986 3.249 o
-2 6 8 211.066 203.513 5.801 0.530 o
-2 6 9 13.354 15.977 1.011 22.309 o
-2 6 10 96.436 99.019 3.282 1.811 o
-2 6 11 6.287 5.065 0.428 64.606 o
-2 6 12 0.506 0.488 0.149 774.970 o
-2 7 1 43.927 44.032 1.426 6.033 o
-2 7 2 115.158 115.478 4.986 1.255 o
-2 7 3 269.690 251.716 4.748 0.380 o
-2 7 4 14.838 16.502 0.689 22.495 o
-2 7 5 21.408 20.588 1.008 14.942 o
-2 7 6 15.937 20.035 0.877 19.030 o
-2 7 7 19.832 16.926 0.977 16.972 o
-2 7 8 44.467 46.802 1.301 5.907 o
-2 7 9 27.964 28.166 0.889 11.111 o
-2 7 10 4.565 5.314 0.321 81.941 o
-2 7 11 0.254 0.228 0.097 1608.530 o
-2 8 1 33.874 32.542 1.519 8.198 o
-2 8 2 207.969 209.432 6.076 0.524 o
-2 8 3 0.158 0.649 0.296 738.750 o
-2 8 4 115.689 114.373 1.837 1.556 o
-2 8 5 0.659 0.512 0.194 604.816 o
-2 8 6 9.989 10.830 0.598 35.051 o
-2 8 7 8.196 7.380 0.583 45.517 o
-2 8 8 0.674 1.018 0.191 487.436 o
-2 8 9 145.786 134.945 2.469 1.099 o
-2 8 10 16.488 10.358 0.622 24.435 o
-2 9 1 42.460 43.369 1.456 6.216 o
-2 9 2 93.727 92.590 2.170 2.086 o
-2 9 3 42.831 43.589 1.148 6.386 o
-2 9 4 6.483 7.110 0.428 56.861 o
-2 9 5 75.329 82.139 2.215 2.684 o
-2 9 6 2.874 4.363 0.275 118.575 o
-2 9 7 62.959 58.312 2.232 3.625 o
-2 9 8 71.436 74.779 1.750 3.053 o
-2 10 1 35.830 34.314 1.129 8.172 o
-2 10 2 7.758 7.379 0.409 50.125 o
-2 10 3 0.961 0.941 0.224 394.497 o
-2 10 4 122.301 126.307 3.344 1.296 o
-2 10 5 9.216 8.616 0.669 38.916 o
-2 11 1 9.916 9.729 0.362 38.848 o
-2 11 2 40.714 33.426 0.803 7.668 o
-2 11 3 8.228 9.161 0.591 42.204 o
-2 11 4 25.095 25.647 0.918 12.468 o
-1 -10 1 6.278 5.992 0.417 61.736 o
-1 -10 2 3.534 2.795 0.197 125.461 o
-1 -10 3 155.057 153.667 4.145 0.895 o
-1 -10 4 8.577 8.779 0.351 44.726 o
-1 -10 5 43.150 47.918 1.158 6.082 o
-1 -10 6 21.169 20.025 2.667 9.134 o
-1 -10 7 3.531 4.148 0.381 101.740 o
-1 -9 1 0.077 0.312 0.211 1493.160 o
-1 -9 2 130.618 127.056 2.881 1.244 o
-1 -9 3 112.472 109.979 1.777 1.637 o
-1 -9 4 533.833 561.705 16.749 0.089 o
-1 -9 5 3.148 2.179 0.260 141.700 o
-1 -9 6 29.416 22.948 0.632 11.862 o
-1 -9 7 20.451 20.836 0.786 16.079 o
-1 -9 8 6.705 7.190 0.423 55.510 o
-1 -9 9 14.503 12.060 1.516 19.098 o
-1 -8 1 3.571 4.437 0.500 91.907 o
-1 -8 2 1.821 2.971 0.312 172.676 o
-1 -8 3 507.546 527.748 7.607 0.115 o
-1 -8 4 4.545 3.170 0.355 94.760 o
-1 -8 5 55.709 60.672 1.314 4.340 o
-1 -8 6 260.880 245.638 4.003 0.407 o
-1 -8 7 33.968 36.966 3.282 5.292 o
-1 -8 8 16.225 18.348 0.626 20.546 o
-1 -8 9 81.303 79.403 1.700 2.644 o
-1 -8 10 136.399 130.884 2.422 1.199 o
-1 -8 11 7.507 5.182 1.361 33.721 o
-1 -7 1 62.136 63.271 1.356 3.853 o
-1 -7 2 16.437 15.014 0.592 22.060 o
-1 -7 3 41.933 37.423 1.046 6.992 o
-1 -7 4 1.638 0.950 0.190 287.191 o
-1 -7 5 199.005 200.834 3.789 0.614 o
-1 -7 6 0.772 0.799 0.188 493.170 o
-1 -7 7 12.246 11.831 0.731 28.535 o
-1 -7 8 180.107 181.110 2.661 0.748 o
-1 -7 9 51.790 54.286 1.221 4.902 o
-1 -7 10 1.752 2.959 0.271 181.862 o
-1 -7 11 9.156 9.717 0.401 40.753 o
-1 -7 12 94.765 91.643 5.654 1.476 o
-1 -6 1 42.918 44.545 1.282 6.225 o
-1 -6 2 43.548 46.722 1.100 6.141 o
-1 -6 3 9.962 9.630 0.493 37.685 o
-1 -6 4 384.608 381.347 8.522 0.187 o
-1 -6 5 1.277 2.180 0.389 212.447 o
-1 -6 6 31.818 30.802 0.725 9.862 o
-1 -6 7 259.613 266.576 8.005 0.344 o
-1 -6 8 130.477 135.891 3.702 1.151 o
-1 -6 9 58.974 61.550 1.901 3.886 o
-1 -6 10 7.393 8.827 0.403 48.656 o
-1 -6 11 419.576 430.310 6.804 0.163 o
-1 -6 12 0.545 1.027 0.296 448.972 o
-1 -5 1 42.563 41.807 1.706 6.080 o
-1 -5 2 173.352 182.730 3.255 0.761 o
-1 -5 3 316.287 310.546 3.592 0.288 o
-1 -5 4 23.308 23.638 0.665 14.144 o
-1 -5 5 80.978 80.495 1.278 2.702 o
-1 -5 6 124.735 126.964 3.244 1.276 o
-1 -5 7 255.100 243.598 5.908 0.396 o
-1 -5 8 224.307 215.300 5.039 0.499 o
-1 -5 9 116.261 123.179 2.503 1.446 o
-1 -5 10 127.848 129.495 3.165 1.240 o
-1 -5 11 344.596 341.063 4.118 0.245 o
-1 -5 12 24.451 26.564 0.766 12.832 o
-1 -5 13 145.798 139.571 1.628 1.110 o
-1 -4 1 369.382 334.305 8.928 0.207 o
-1 -4 2 1.912 5.794 0.465 110.608 o
-1 -4 3 246.721 280.884 4.953 0.391 o
-1 -4 4 111.603 153.513 2.893 1.301 o
-1 -4 5 56.878 71.361 1.189 3.969 o
-1 -4 6 304.404 296.416 3.670 0.309 o
-1 -4 7 9.025 8.366 0.485 42.376 o
-1 -4 8 351.025 322.393 3.583 0.249 o
-1 -4 9 7.276 8.322 0.397 50.340 o
-1 -4 10 84.981 84.420 1.663 2.469 o
-1 -4 11 4.506 5.852 0.313 79.898 o
-1 -4 12 0.505 0.679 0.154 691.462 o
-1 -4 13 95.657 102.654 1.669 2.000 o
-1 -4 14 17.224 15.676 0.894 19.653 o
-1 -3 1 618.104 627.086 12.277 0.077 o
-1 -3 2 696.145 759.325 22.819 0.052 o
-1 -3 3 54.177 54.417 2.297 4.175 o
-1 -3 4 143.342 127.033 3.143 1.117 o
-1 -3 5 2.549 2.199 0.327 156.200 o
-1 -3 6 184.133 190.542 3.291 0.697 o
-1 -3 7 429.566 407.965 4.761 0.169 o
-1 -3 8 59.380 53.175 1.092 4.418 o
-1 -3 9 83.809 73.932 1.244 2.721 o
-1 -3 10 1.032 1.519 0.186 336.155 o
-1 -3 11 5.652 6.994 0.461 61.523 o
-1 -3 12 42.906 48.107 1.196 6.076 o
-1 -3 13 16.824 18.940 0.580 19.931 o
-1 -3 14 41.753 38.945 9.690 1.235 o
-1 -2 1 6.365 7.620 0.412 56.404 o
-1 -2 2 38.067 38.359 1.046 7.513 o
-1 -2 3 1760.350 1893.290 22.081 0.010 o
-1 -2 4 618.332 639.842 10.865 0.078 o
-1 -2 5 7.353 9.223 0.554 45.715 o
-1 -2 6 1325.990 1468.670 25.200 0.017 o
-1 -2 7 163.666 147.068 2.017 0.943 o
-1 -2 8 1.760 2.538 0.235 198.021 o
-1 -2 9 4.191 3.560 0.271 100.857 o
-1 -2 10 10.541 9.440 0.493 36.444 o
-1 -2 11 249.088 265.703 4.415 0.406 o
-1 -2 12 21.950 21.647 0.815 14.960 o
-1 -2 13 13.360 13.655 0.941 24.076 o
-1 -2 14 83.664 88.376 2.107 2.381 o
-1 -1 1 3086.120 3041.020 26.506 0.004 o
-1 -1 2 397.519 405.558 7.096 0.179 o
-1 -1 3 9.578 10.563 0.468 37.703 o
-1 -1 4 192.013 207.413 4.059 0.620 o
-1 -1 5 1998.690 2114.170 59.592 0.007 o
-1 -1 6 63.336 65.984 2.437 3.349 o
-1 -1 7 136.522 112.763 5.257 1.070 o
-1 -1 8 5.921 5.555 0.402 66.147 o
-1 -1 9 1270.970 1250.140 11.032 0.021 o
-1 -1 10 481.342 493.068 5.367 0.131 o
-1 -1 11 6.589 6.494 0.469 57.147 o
-1 -1 12 480.739 513.384 6.909 0.125 o
-1 -1 13 21.283 23.300 0.809 14.894 o
-1 -1 14 87.654 88.884 1.936 2.301 o
-1 -1 15 40.751 26.387 0.759 8.332 o
-1 0 1 65.662 55.084 0.832 4.013 o
-1 0 2 948.655 884.438 7.615 0.039 o
-1 0 3 1631.030 1754.850 27.672 0.012 o
-1 0 4 2168.660 2175.600 21.602 0.007 o
-1 0 5 508.841 582.792 9.106 0.105 o
-1 0 6 146.972 153.100 9.192 0.649 o
-1 0 7 50.195 40.762 1.368 5.582 o
-1 0 8 799.795 787.471 17.606 0.047 o
-1 0 9 7.729 7.155 0.404 50.828 o
-1 0 10 0.086 0.350 0.137 1898.820 o
-1 0 11 749.246 778.006 12.180 0.055 o
-1 0 12 8.988 12.514 0.651 34.843 o
-1 0 13 94.899 100.400 2.280 1.969 o
-1 0 14 5.117 6.187 0.390 70.322 o
-1 0 15 351.491 307.532 43.284 0.058 o
-1 1 1 1607.050 1518.820 14.247 0.014 o
-1 1 2 6.792 9.025 0.424 50.538 o
-1 1 3 1539.090 1450.660 13.408 0.015 o
-1 1 4 81.680 78.665 1.783 2.630 o
-1 1 5 313.816 372.962 38.751 0.069 o
-1 1 6 85.887 82.718 2.759 2.273 o
-1 1 7 344.932 340.009 12.805 0.195 o
-1 1 8 207.792 195.884 2.593 0.614 o
-1 1 9 117.495 114.468 3.452 1.400 o
-1 1 10 174.604 176.650 3.904 0.750 o
-1 1 11 23.989 25.311 0.957 12.874 o
-1 1 12 12.090 10.960 0.613 30.521 o
-1 1 13 0.514 0.202 0.192 838.946 o
-1 1 14 368.632 395.345 7.854 0.194 o
-1 2 1 8173.440 8037.290 136.074 0.001 o
-1 2 2 4974.020 5161.450 93.723 0.001 o
-1 2 3 1603.590 1719.330 84.314 0.008 o
-1 2 4 47.425 53.224 1.487 5.187 o
-1 2 5 834.078 796.898 11.594 0.047 o
-1 2 6 196.984 209.511 5.232 0.574 o
-1 2 7 1.514 2.363 0.260 216.671 o
-1 2 8 107.116 101.427 1.741 1.793 o
-1 2 9 210.751 205.920 2.932 0.583 o
-1 2 10 11.511 11.756 0.697 30.113 o
-1 2 11 25.459 23.491 0.826 12.930 o
-1 2 12 22.361 25.471 1.192 12.878 o
-1 2 13 164.096 172.021 3.276 0.831 o
-1 2 14 1.162 1.104 0.208 342.698 o
-1 3 1 2306.670 2123.530 89.361 0.005 o
-1 3 2 2172.810 2078.210 64.063 0.006 o
-1 3 3 99.372 102.324 3.779 1.665 o
-1 3 4 800.051 744.407 10.374 0.053 o
-1 3 5 578.524 525.996 97.409 0.013 o
-1 3 6 1.843 1.710 0.209 224.828 o
-1 3 7 51.763 52.551 1.666 4.759 o
-1 3 8 362.192 351.154 4.178 0.227 o
-1 3 9 6.549 6.834 0.427 57.296 o
-1 3 10 5.173 6.873 0.660 59.063 o
-1 3 11 20.517 22.389 1.158 14.434 o
-1 3 12 116.602 115.728 4.573 1.286 o
-1 3 13 9.095 10.120 0.684 37.031 o
-1 3 14 0.234 0.482 0.187 1036.370 o
-1 4 1 34.992 42.993 7.800 1.788 o
-1 4 2 510.693 538.761 59.498 0.030 o
-1 4 3 503.621 444.244 10.654 0.122 o
-1 4 4 141.389 131.587 7.948 0.782 o
-1 4 5 523.299 514.484 12.125 0.105 o
-1 4 6 154.655 161.486 2.871 0.928 o
-1 4 7 315.609 292.464 6.315 0.282 o
-1 4 8 91.319 95.315 3.933 1.813 o
-1 4 9 153.262 146.607 3.686 0.949 o
-1 4 10 1.340 1.350 0.428 228.106 o
-1 4 11 7.068 6.411 0.449 55.168 o
-1 4 12 36.262 37.204 1.303 7.654 o
-1 4 13 1.815 2.142 0.365 185.574 o
-1 5 1 38.273 58.821 5.654 2.592 o
-1 5 2 105.159 93.267 6.439 1.247 o
-1 5 3 81.045 80.233 1.937 2.597 o
-1 5 4 149.891 143.063 2.873 1.020 o
-1 5 5 45.251 41.302 1.400 6.056 o
-1 5 6 8.430 7.061 0.456 47.271 o
-1 5 7 67.486 64.329 1.526 3.503 o
-1 5 8 57.412 54.835 2.817 3.695 o
-1 5 9 326.491 330.202 6.989 0.251 o
-1 5 10 12.597 10.567 0.582 30.211 o
-1 5 11 13.702 12.442 0.752 25.831 o
-1 5 12 9.718 9.263 0.563 38.061 o
-1 5 13 44.829 41.838 1.369 6.097 o
-1 6 1 70.746 62.649 1.650 3.358 o
-1 6 2 79.120 92.848 2.817 2.301 o
-1 6 3 17.038 17.074 0.581 20.554 o
-1 6 4 142.867 124.474 3.351 1.119 o
-1 6 5 32.301 34.786 1.247 8.667 o
-1 6 6 28.875 27.210 0.939 10.901 o
-1 6 7 4.390 4.615 0.415 84.578 o
-1 6 8 338.543 334.305 3.872 0.254 o
-1 6 9 19.409 22.405 0.860 16.003 o
-1 6 10 0.441 0.627 0.168 745.627 o
-1 6 11 32.629 33.099 0.932 9.169 o
-1 6 12 94.030 87.440 2.286 2.118 o
-1 7 1 1.827 2.087 0.255 205.287 o
-1 7 2 10.173 9.583 0.521 36.911 o
-1 7 3 428.226 425.156 5.738 0.163 o
-1 7 4 0.342 0.633 0.249 695.800 o
-1 7 5 25.720 25.158 1.049 12.051 o
-1 7 6 0.799 1.013 0.232 422.896 o
-1 7 7 145.897 149.646 2.939 1.022 o
-1 7 8 240.303 244.169 4.299 0.444 o
-1 7 9 31.697 32.674 0.952 9.409 o
-1 7 10 227.513 234.935 15.017 0.281 o
-1 7 11 48.954 47.499 1.524 5.284 o
-1 8 1 90.911 87.656 3.702 1.929 o
-1 8 2 400.139 387.942 7.582 0.180 o
-1 8 3 0.379 1.666 0.529 260.290 o
-1 8 4 1.578 1.751 0.310 225.088 o
-1 8 5 39.502 38.758 2.177 6.098 o
-1 8 6 36.261 39.791 2.512 5.974 o
-1 8 7 0.150 0.600 0.262 853.148 o
-1 8 8 92.445 88.298 2.590 2.096 o
-1 8 9 29.307 29.345 2.286 7.893 o
-1 9 1 257.611 243.130 46.566 0.056 o
-1 9 2 0.859 1.626 0.302 312.738 o
-1 9 3 25.721 26.983 0.895 12.041 o
-1 9 4 20.914 21.526 0.895 15.309 o
-1 9 5 100.299 92.461 2.156 1.956 o
-1 9 6 10.793 10.530 0.484 34.639 o
-1 9 7 3.865 3.380 0.247 109.359 o
-1 9 8 130.058 116.499 1.885 1.362 o
-1 10 1 7.269 7.520 0.505 50.414 o
-1 10 2 234.346 234.886 3.583 0.475 o
-1 10 3 33.085 32.568 0.770 9.293 o
-1 10 4 27.269 24.745 1.135 11.415 o
-1 10 5 7.419 5.308 0.995 42.667 o
-1 11 1 1.808 3.293 0.218 176.398 o
-1 11 2 74.302 66.941 1.851 3.069 o
-1 11 3 2.933 3.282 0.327 126.904 o
0 -11 1 5.709 6.473 0.340 65.725 o
0 -11 2 25.132 16.479 1.848 11.373 o
0 -11 3 169.927 149.608 1.728 0.902 o
0 -11 4 0.042 0.435 0.092 2220.670 o
0 -11 5 70.474 56.647 4.798 2.323 o
0 -10 1 1.293 1.985 0.253 253.126 o
0 -10 2 44.710 45.952 1.091 6.056 o
0 -10 3 11.968 10.284 0.516 32.152 o
0 -10 4 263.250 266.300 4.120 0.384 o
0 -10 5 12.724 12.800 0.616 27.927 o
0 -10 6 10.228 11.281 0.515 34.794 o
0 -10 7 16.459 16.015 0.594 21.538 o
0 -10 8 60.227 60.618 2.940 3.375 o
0 -9 1 77.804 74.080 1.694 2.846 o
0 -9 2 33.238 35.716 0.998 8.683 o
0 -9 3 46.861 53.649 1.217 5.365 o
0 -9 4 0.425 0.903 0.247 567.532 o
0 -9 5 20.686 21.456 0.904 15.422 o
0 -9 6 9.116 9.703 0.478 40.095 o
0 -9 7 108.265 116.170 9.099 0.851 o
0 -9 8 7.799 9.341 0.404 45.981 o
0 -9 9 17.955 20.335 0.550 18.564 o
0 -9 10 86.942 64.803 10.148 0.919 o
0 -8 1 35.838 38.947 2.416 6.189 o
0 -8 2 214.297 207.463 4.667 0.541 o
0 -8 3 27.384 33.159 1.136 10.159 o
0 -8 4 20.199 15.246 0.630 18.557 o
0 -8 5 32.172 37.497 0.972 8.747 o
0 -8 6 291.725 298.642 3.231 0.325 o
0 -8 7 50.957 51.299 2.846 4.106 o
0 -8 8 0.036 0.116 0.157 3147.420 o
0 -8 9 47.976 47.823 1.491 5.379 o
0 -8 10 18.448 20.569 0.617 17.934 o
0 -8 11 37.307 40.407 1.400 7.139 o
0 -7 1 323.125 350.852 5.946 0.251 o
0 -7 2 26.292 20.215 0.853 13.202 o
0 -7 3 13.339 13.853 0.560 26.600 o
0 -7 4 28.231 27.625 1.001 10.928 o
0 -7 5 96.382 87.227 3.340 1.903 o
0 -7 6 3.109 2.896 0.223 134.360 o
0 -7 7 0.048 0.340 0.141 2122.630 o
0 -7 8 45.234 44.949 1.408 5.852 o
0 -7 9 5.230 5.794 0.325 72.755 o
0 -7 10 109.534 114.590 1.893 1.638 o
0 -7 11 14.309 15.009 0.620 24.271 o
0 -7 12 201.869 190.410 20.102 0.227 o
0 -7 13 10.601 10.032 0.560 34.953 o
0 -6 1 191.025 247.497 5.358 0.535 o
0 -6 2 0.071 0.356 0.157 1815.900 o
0 -6 3 30.779 27.255 0.770 10.574 o
0 -6 4 9.262 14.170 0.506 33.815 o
0 -6 5 54.190 57.978 1.070 4.627 o
0 -6 6 0.809 0.395 0.109 621.685 o
0 -6 7 455.561 438.325 5.284 0.150 o
0 -6 8 249.652 251.645 10.200 0.333 o
0 -6 9 131.734 135.555 1.895 1.245 o
0 -6 10 86.298 92.012 1.457 2.358 o
0 -6 11 2.494 3.407 0.278 141.566 o
0 -6 12 6.076 7.123 0.458 58.540 o
0 -6 13 8.215 6.711 0.372 50.095 o
0 -5 1 32.523 36.665 1.861 7.564 o
0 -5 2 777.764 844.231 13.422 0.049 o
0 -5 3 1.230 0.335 0.143 441.026 o
0 -5 4 41.069 37.681 0.778 7.281 o
0 -5 5 120.738 134.522 2.515 1.330 o
0 -5 6 1038.160 1042.510 8.420 0.031 o
0 -5 7 306.778 319.179 9.092 0.256 o
0 -5 8 302.962 309.987 3.275 0.305 o
0 -5 9 14.291 14.132 0.807 23.701 o
0 -5 10 50.216 57.187 1.271 4.891 o
0 -5 11 21.398 21.423 0.729 15.533 o
0 -5 12 20.205 22.232 0.733 15.966 o
0 -5 13 111.504 118.019 5.280 1.242 o
0 -5 14 8.854 9.596 0.591 39.639 o
0 -4 1 718.677 661.691 11.976 0.063 o
0 -4 2 981.650 975.198 13.742 0.034 o
0 -4 3 78.022 81.211 2.302 2.597 o
0 -4 4 426.697 442.353 8.160 0.154 o
0 -4 5 670.921 798.106 29.924 0.046 o
0 -4 6 267.366 275.592 4.387 0.368 o
0 -4 7 0.391 0.877 0.144 712.998 o
0 -4 8 0.885 1.616 0.261 326.693 o
0 -4 9 333.278 340.373 3.458 0.257 o
0 -4 10 542.386 557.112 10.044 0.099 o
0 -4 11 0.609 0.999 0.253 467.986 o
0 -4 12 210.038 230.052 7.714 0.458 o
0 -4 13 157.270 172.278 2.841 0.881 o
0 -4 14 2.215 2.411 0.327 165.633 o
0 -3 1 433.009 457.413 19.335 0.112 o
0 -3 2 70.996 73.216 3.382 2.614 o
0 -3 3 76.603 69.695 3.857 2.363 o
0 -3 4 735.627 692.451 33.991 0.042 o
0 -3 5 0.492 0.691 0.221 619.236 o
0 -3 6 1.142 1.301 0.292 299.368 o
0 -3 7 714.286 710.631 6.076 0.064 o
0 -3 8 191.781 180.885 3.603 0.679 o
0 -3 9 359.089 393.075 4.293 0.214 o
0 -3 10 467.785 488.567 4.904 0.136 o
0 -3 11 342.226 339.061 5.125 0.244 o
0 -3 12 62.883 65.457 2.084 3.516 o
0 -3 13 2.645 2.490 0.263 153.456 o
0 -3 14 61.185 63.886 1.452 3.861 o
0 -3 15 74.040 77.035 1.944 2.872 o
0 -2 1 223.103 237.941 7.909 0.422 o
0 -2 2 35.562 36.760 1.267 7.849 o
0 -2 3 421.051 449.904 18.640 0.118 o
0 -2 4 169.713 168.143 8.088 0.616 o
0 -2 5 2.237 2.153 0.342 168.202 o
0 -2 6 412.476 359.140 5.327 0.189 o
0 -2 7 13.966 17.119 0.756 22.729 o
0 -2 8 122.908 132.666 3.850 1.219 o
0 -2 9 392.005 363.389 8.668 0.187 o
0 -2 10 392.626 393.274 6.264 0.187 o
0 -2 11 3.475 1.692 0.256 139.307 o
0 -2 12 1.646 2.167 0.272 212.089 o
0 -2 13 78.092 92.132 2.807 2.337 o
0 -2 14 342.175 395.870 5.692 0.220 o
0 -2 15 13.006 12.816 0.495 28.237 o
0 -1 1 3103.680 3329.210 97.347 0.003 o
0 -1 2 1025.210 1084.070 12.774 0.030 o
0 -1 3 955.064 1032.770 32.599 0.028 o
0 -1 4 57.994 61.484 1.127 4.222 o
0 -1 5 707.129 699.036 13.936 0.061 o
0 -1 6 2.892 6.217 1.135 53.537 o
0 -1 7 247.882 283.036 5.682 0.379 o
0 -1 8 266.883 254.309 11.903 0.288 o
0 -1 9 0.671 1.361 0.191 432.762 o
0 -1 10 72.012 72.256 2.127 2.984 o
0 -1 11 10.207 7.955 0.582 38.271 o
0 -1 12 32.328 38.494 1.929 7.353 o
0 -1 13 49.277 57.702 2.302 4.376 o
0 -1 14 45.657 45.422 1.259 5.879 o
0 -1 15 191.138 194.725 4.044 0.645 o
0 0 1 2.648 2.771 0.170 154.922 o
0 0 2 2390.680 2541.150 40.112 0.006 o
0 0 3 1869.230 1980.820 32.273 0.009 o
0 0 4 461.307 462.396 31.316 0.072 o
0 0 5 734.535 753.688 64.149 0.022 o
0 0 6 51.903 65.891 2.133 4.058 o
0 0 7 1165.390 1275.190 17.733 0.023 o
0 0 8 201.074 209.829 3.036 0.606 o
0 0 9 0.197 0.277 0.149 1503.430 o
0 0 10 18.009 15.010 0.771 19.853 o
0 0 11 273.604 292.073 4.926 0.343 o
0 0 12 3.262 3.385 0.443 109.467 o
0 0 13 65.555 69.008 2.108 3.308 o
0 0 14 180.232 204.489 4.814 0.646 o
0 0 15 39.924 25.647 1.042 8.309 o
0 1 0 62.310 56.188 1.249 4.081 o
0 1 1 719.198 695.070 11.851 0.061 o
0 1 2 241.113 255.650 18.329 0.218 o
0 1 3 1790.890 1840.800 89.345 0.007 o
0 1 4 93.724 99.231 2.509 1.972 o
0 1 5 25.616 24.308 0.984 12.383 o
0 1 6 1575.190 1842.240 37.296 0.011 o
0 1 7 119.165 110.482 6.461 1.079 o
0 1 8 0.167 0.457 0.110 1465.630 o
0 1 9 32.465 29.079 0.858 9.771 o
0 1 10 212.798 217.037 3.228 0.556 o
0 1 11 19.224 15.944 3.173 8.206 o
0 1 12 5.148 6.370 0.595 62.975 o
0 1 13 6.723 8.466 0.622 48.412 o
0 1 14 6.488 7.552 0.879 45.039 o
0 2 0 469.735 431.428 21.207 0.101 o
0 2 1 13.429 14.091 1.089 22.596 o
0 2 2 84.545 58.200 2.442 2.714 o
0 2 3 327.654 297.181 5.301 0.275 o
0 2 4 221.204 232.964 10.281 0.380 o
0 2 5 1050.100 1032.280 32.257 0.025 o
0 2 6 111.602 168.833 3.905 1.156 o
0 2 7 62.227 68.932 1.743 3.582 o
0 2 8 327.567 308.426 6.580 0.262 o
0 2 9 9.498 11.143 0.827 33.069 o
0 2 10 3.190 3.151 0.308 123.420 o
0 2 11 8.123 8.595 0.568 43.859 o
0 2 12 46.000 60.486 1.902 4.758 o
0 2 13 169.758 184.534 3.375 0.769 o
0 2 14 86.040 84.039 1.698 2.440 o
0 3 0 6.519 5.540 0.495 59.769 o
0 3 1 630.788 679.079 23.656 0.060 o
0 3 2 4.262 4.147 0.571 81.128 o
0 3 3 88.219 87.117 8.585 1.070 o
0 3 4 447.268 478.010 9.970 0.135 o
0 3 5 44.382 57.540 3.935 3.508 o
0 3 6 250.470 237.022 9.963 0.345 o
0 3 7 423.583 402.424 5.695 0.171 o
0 3 8 494.712 481.167 7.248 0.125 o
0 3 9 24.819 27.405 1.312 11.367 o
0 3 10 2.319 4.421 0.522 111.188 o
0 3 11 23.330 23.043 1.548 11.897 o
0 3 12 213.476 230.515 4.007 0.525 o
0 3 13 82.466 87.338 1.967 2.450 o
0 3 14 84.654 79.554 2.131 2.468 o
0 4 0 39.298 60.200 12.124 0.823 o
0 4 1 67.490 63.598 3.367 2.868 o
0 4 2 127.602 117.905 7.147 0.940 o
0 4 3 85.561 79.617 18.337 0.359 o
0 4 4 28.523 37.019 1.141 9.391 o
0 4 5 14.260 19.387 0.712 21.518 o
0 4 6 79.139 93.414 1.790 2.487 o
0 4 7 626.058 605.250 7.121 0.083 o
0 4 8 88.380 91.672 1.689 2.282 o
0 4 9 33.729 39.701 1.026 8.168 o
0 4 10 276.433 279.831 7.061 0.326 o
0 4 11 53.590 52.865 1.672 4.608 o
0 4 12 12.530 13.320 0.554 28.232 o
0 4 13 35.606 32.268 1.128 8.410 o
0 5 0 77.059 80.884 3.249 2.393 o
0 5 1 432.069 459.527 8.212 0.148 o
0 5 2 65.053 63.718 3.023 3.089 o
0 5 3 270.828 284.819 6.453 0.337 o
0 5 4 246.391 266.675 2.970 0.423 o
0 5 5 18.468 16.893 0.593 19.377 o
0 5 6 40.145 38.077 1.020 7.229 o
0 5 7 60.023 57.778 1.502 4.089 o
0 5 8 116.210 116.603 1.920 1.529 o
0 5 9 132.758 139.709 2.454 1.190 o
0 5 10 1.072 0.972 0.202 376.101 o
0 5 11 16.017 15.492 0.847 21.018 o
0 5 12 22.956 22.809 0.808 14.199 o
0 6 0 221.230 241.478 3.372 0.500 o
0 6 1 106.415 117.936 3.283 1.529 o
0 6 2 143.926 169.829 4.687 0.885 o
0 6 3 164.132 174.590 2.150 0.855 o
0 6 4 125.961 128.108 2.548 1.307 o
0 6 5 203.364 210.006 3.522 0.590 o
0 6 6 165.493 162.010 2.457 0.875 o
0 6 7 1.383 1.183 0.222 297.409 o
0 6 8 47.927 48.299 1.151 5.554 o
0 6 9 33.594 32.795 1.075 8.824 o
0 6 10 36.435 39.995 1.057 7.637 o
0 6 11 65.175 66.446 2.489 3.243 o
0 7 0 133.373 153.596 4.284 1.023 o
0 7 1 0.015 0.197 0.229 1826.840 o
0 7 2 227.366 259.293 7.327 0.408 o
0 7 3 633.135 671.872 5.383 0.077 o
0 7 4 5.491 6.274 0.304 68.953 o
0 7 5 0.322 0.665 0.178 822.429 o
0 7 6 357.993 371.516 5.435 0.218 o
0 7 7 34.106 36.359 1.031 8.410 o
0 7 8 1.175 1.290 0.168 336.433 o
0 7 9 17.289 19.268 0.869 18.344 o
0 7 10 28.142 28.326 0.885 11.039 o
0 8 0 7.257 8.183 0.595 47.366 o
0 8 1 273.427 303.491 4.831 0.336 o
0 8 2 72.358 82.542 2.696 2.647 o
0 8 3 1.541 1.509 0.216 260.253 o
0 8 4 135.063 144.607 2.840 1.129 o
0 8 5 346.768 369.666 5.603 0.226 o
0 8 6 476.001 492.242 8.197 0.128 o
0 8 7 12.547 12.741 0.533 28.803 o
0 8 8 239.834 235.029 3.661 0.462 o
0 8 9 82.774 79.939 1.506 2.622 o
0 9 0 22.694 25.020 1.105 13.077 o
0 9 1 75.567 85.487 2.310 2.605 o
0 9 2 21.208 21.719 0.907 15.067 o
0 9 3 15.070 16.723 0.707 22.058 o
0 9 4 37.450 42.964 1.355 6.978 o
0 9 5 0.090 0.269 0.210 1529.740 o
0 9 6 13.414 14.017 0.479 26.812 o
0 9 7 17.338 15.800 1.796 14.565 o
0 10 0 0.895 1.612 0.242 332.453 o
0 10 1 13.470 13.384 0.640 26.267 o
0 10 2 17.162 16.586 1.042 18.600 o
0 10 3 13.126 9.853 1.210 24.097 o
0 10 4 3.222 3.444 0.268 121.541 o
0 10 5 26.011 12.645 0.638 15.627 o
0 11 0 21.679 19.996 0.388 16.485 o
1 -11 0 2.931 2.367 0.171 151.833 o
1 -11 1 0.114 0.205 0.090 2604.040 o
1 -11 2 12.825 16.714 1.298 20.300 o
1 -11 3 9.834 10.028 0.335 38.862 o
1 -11 4 0.256 0.605 0.211 861.517 o
1 -11 5 46.060 38.003 0.771 6.547 o
1 -11 6 8.288 4.542 0.529 52.118 o
1 -10 0 201.083 210.674 5.700 0.549 o
1 -10 1 77.053 80.495 1.568 2.786 o
1 -10 2 0.286 0.219 0.162 1274.450 o
1 -10 3 17.570 16.201 0.632 20.285 o
1 -10 4 106.557 109.564 1.645 1.742 o
1 -10 5 0.142 0.262 0.092 2121.440 o
1 -10 6 7.263 8.516 0.302 51.190 o
1 -10 7 41.472 36.588 1.597 6.628 o
1 -10 8 8.074 7.676 0.431 47.828 o
1 -9 0 21.014 8114.120 7764.390 0.000 o
1 -9 1 17.641 12.939 1.851 14.767 o
1 -9 2 37.942 38.463 1.719 6.839 o
1 -9 3 86.546 79.473 1.937 2.451 o
1 -9 4 2.064 1.316 0.215 221.989 o
1 -9 5 38.647 37.788 1.835 6.655 o
1 -9 6 124.641 124.931 2.333 1.351 o
1 -9 7 8.437 9.556 0.406 43.272 o
1 -9 8 2.049 2.430 0.607 130.486 o
1 -9 9 5.376 5.867 0.385 69.634 o
1 -9 10 28.956 27.062 1.073 10.673 o
1 -9 11 2.785 3.515 0.311 128.893 o
1 -8 0 0.014 0.281 0.156 2470.730 o
1 -8 1 33.704 36.482 1.155 8.339 o
1 -8 2 51.490 49.438 1.357 5.068 o
1 -8 3 22.425 23.508 0.646 14.640 o
1 -8 4 90.597 92.611 1.385 2.251 o
1 -8 5 37.260 42.247 1.504 6.908 o
1 -8 6 143.258 135.930 14.286 0.432 o
1 -8 7 67.984 64.666 2.994 2.979 o
1 -8 8 6.925 7.565 1.688 26.413 o
1 -8 9 2.708 2.786 0.306 142.252 o
1 -8 10 46.942 47.606 0.980 5.775 o
1 -8 11 102.450 105.219 6.283 1.243 o
1 -8 12 86.129 93.334 2.209 2.242 o
1 -7 0 142.996 160.832 2.854 1.007 o
1 -7 1 203.521 194.321 2.669 0.630 o
1 -7 2 4.183 4.615 0.382 88.585 o
1 -7 3 42.233 43.008 0.857 6.680 o
1 -7 4 44.422 44.899 1.028 6.187 o
1 -7 5 963.353 964.500 11.132 0.036 o
1 -7 6 136.838 152.640 2.648 1.092 o
1 -7 7 292.459 289.835 4.741 0.321 o
1 -7 8 248.800 258.339 3.874 0.418 o
1 -7 9 40.358 46.119 1.296 6.431 o
1 -7 10 98.867 112.968 4.448 1.504 o
1 -7 11 3.279 4.266 0.362 106.227 o
1 -7 12 133.475 142.782 2.296 1.177 o
1 -7 13 20.368 22.739 0.887 15.301 o
1 -6 0 261.202 252.347 12.221 0.289 o
1 -6 1 23.687 27.773 1.214 11.919 o
1 -6 2 9.592 11.272 0.770 33.460 o
1 -6 3 398.527 380.991 9.324 0.176 o
1 -6 4 1.338 2.453 0.285 221.731 o
1 -6 5 319.424 302.443 7.107 0.268 o
1 -6 6 9.058 9.266 0.515 40.487 o
1 -6 7 148.704 149.906 3.001 0.999 o
1 -6 8 431.746 410.767 14.591 0.136 o
1 -6 9 264.731 281.834 3.631 0.373 o
1 -6 10 141.157 144.883 2.634 1.089 o
1 -6 11 407.602 418.662 5.784 0.174 o
1 -6 12 58.893 62.073 2.053 3.812 o
1 -6 13 0.037 0.245 0.218 1727.360 o
1 -5 0 311.938 312.105 9.005 0.255 o
1 -5 1 492.128 536.880 9.177 0.115 o
1 -5 2 385.575 340.468 22.770 0.121 o
1 -5 3 20.122 24.812 1.682 12.224 o
1 -5 4 0.701 0.250 0.135 725.615 o
1 -5 5 499.837 467.789 10.010 0.121 o
1 -5 6 31.850 35.130 0.993 9.046 o
1 -5 7 4.515 3.935 0.418 87.080 o
1 -5 8 11.367 10.253 0.569 32.960 o
1 -5 9 298.038 283.844 5.803 0.310 o
1 -5 10 262.574 268.696 6.004 0.364 o
1 -5 11 5.001 4.931 0.362 78.051 o
1 -5 12 13.965 13.500 0.531 26.135 o
1 -5 13 174.870 182.606 2.865 0.764 o
1 -5 14 20.432 21.572 0.933 15.434 o
1 -4 0 28.675 22.210 1.804 9.801 o
1 -4 1 160.610 158.858 3.705 0.869 o
1 -4 2 144.257 112.268 3.198 1.168 o
1 -4 3 0.029 -0.006 0.179 3660.380 o
1 -4 4 70.277 52.403 2.266 3.409 o
1 -4 5 237.437 239.309 5.597 0.436 o
1 -4 6 1.443 2.572 0.239 217.756 o
1 -4 7 59.561 49.335 2.018 4.153 o
1 -4 8 287.688 261.254 3.635 0.354 o
1 -4 9 120.897 108.635 2.137 1.505 o
1 -4 10 165.841 158.047 2.718 0.877 o
1 -4 11 58.189 63.049 2.041 3.829 o
1 -4 12 56.333 60.314 1.884 4.080 o
1 -4 13 177.713 187.893 3.035 0.735 o
1 -4 14 10.248 9.798 0.684 34.670 o
1 -3 0 3073.880 3150.350 44.085 0.004 o
1 -3 1 1915.730 1657.950 57.422 0.008 o
1 -3 2 629.874 603.640 9.798 0.080 o
1 -3 3 504.360 453.457 22.420 0.090 o
1 -3 4 523.447 454.199 23.166 0.085 o
1 -3 5 67.092 60.145 2.081 3.445 o
1 -3 6 486.045 475.165 23.509 0.088 o
1 -3 7 81.360 68.639 2.843 2.549 o
1 -3 8 2.948 5.911 0.433 94.139 o
1 -3 9 1.550 2.540 0.370 188.309 o
1 -3 10 178.451 168.417 7.942 0.597 o
1 -3 11 24.471 26.023 1.043 12.358 o
1 -3 12 105.265 100.876 2.183 1.789 o
1 -3 13 1.259 2.037 0.302 241.870 o
1 -3 14 71.196 75.910 1.550 3.085 o
1 -2 0 64.994 69.774 6.416 1.771 o
1 -2 1 6648.500 7614.800 117.768 0.001 o
1 -2 2 632.700 633.674 40.570 0.042 o
1 -2 3 82.179 57.142 2.271 2.853 o
1 -2 4 2326.560 2255.350 146.083 0.003 o
1 -2 5 490.267 508.165 61.754 0.028 o
1 -2 6 2384.430 2593.950 44.466 0.005 o
1 -2 7 73.284 85.965 5.389 1.835 o
1 -2 8 1.907 0.783 0.210 261.193 o
1 -2 9 610.413 596.856 10.533 0.083 o
1 -2 10 21.249 20.517 1.921 11.675 o
1 -2 11 8.093 9.394 1.664 24.382 o
1 -2 12 40.041 42.967 1.545 6.456 o
1 -2 13 58.358 66.581 1.686 3.864 o
1 -2 14 2.747 3.064 0.302 137.074 o
1 -1 0 1393.560 1173.660 19.535 0.019 o
1 -1 1 625.455 567.775 22.047 0.068 o
1 -1 2 776.714 691.086 28.493 0.044 o
1 -1 3 341.543 321.763 3.608 0.258 o
1 -1 4 689.645 583.744 7.776 0.074 o
1 -1 5 353.564 322.405 17.287 0.164 o
1 -1 6 161.781 143.556 4.821 0.853 o
1 -1 7 135.280 158.766 5.094 0.942 o
1 -1 8 248.722 238.004 12.549 0.303 o
1 -1 9 54.895 58.339 1.420 4.435 o
1 -1 10 0.037 0.615 0.178 1341.580 o
1 -1 11 7.477 9.073 0.689 43.176 o
1 -1 12 18.095 22.346 1.376 14.755 o
1 -1 13 12.335 15.037 0.529 27.376 o
1 -1 14 9.214 8.252 0.476 42.053 o
1 0 0 94.113 86.876 1.031 2.266 o
1 0 1 1823.800 1610.220 31.276 0.011 o
1 0 2 970.947 899.657 11.607 0.037 o
1 0 3 3607.510 3479.360 24.174 0.003 o
1 0 4 376.458 320.658 4.592 0.226 o
1 0 5 10.099 2.468 0.330 51.736 o
1 0 6 383.129 396.947 8.865 0.182 o
1 0 7 240.227 197.944 3.039 0.511 o
1 0 8 2.529 1.925 0.217 174.795 o
1 0 9 4.494 4.496 0.315 87.906 o
1 0 10 96.576 109.983 3.664 1.668 o
1 0 11 76.167 92.589 1.916 2.563 o
1 0 12 77.183 83.047 2.473 2.556 o
1 0 13 13.895 16.752 0.695 23.341 o
1 0 14 179.110 203.902 4.650 0.655 o
1 1 0 29.000 22.314 0.772 11.918 o
1 1 1 153.753 156.613 7.022 0.742 o
1 1 2 2179.310 2080.720 24.784 0.007 o
1 1 3 11.144 9.241 0.411 35.903 o
1 1 4 0.015 0.332 0.107 2825.180 o
1 1 5 105.735 111.931 2.081 1.701 o
1 1 6 675.120 678.570 63.885 0.023 o
1 1 7 75.873 68.012 2.237 2.892 o
1 1 8 58.928 52.935 2.030 4.077 o
1 1 9 174.997 179.652 5.416 0.690 o
1 1 10 36.416 36.658 2.257 6.466 o
1 1 11 445.974 437.413 6.034 0.152 o
1 1 12 109.880 109.688 2.462 1.622 o
1 1 13 625.559 579.754 48.121 0.036 o
1 1 14 86.238 84.842 2.489 2.292 o
1 2 0 524.809 481.551 8.434 0.115 o
1 2 1 1.690 3.020 0.568 138.208 o
1 2 2 142.245 132.396 2.814 1.122 o
1 2 3 156.166 114.592 17.786 0.319 o
1 2 4 189.828 209.003 3.887 0.629 o
1 2 5 10.172 5.291 0.504 43.435 o
1 2 6 283.963 277.847 5.388 0.334 o
1 2 7 265.739 278.565 3.935 0.372 o
1 2 8 680.418 683.975 7.518 0.069 o
1 2 9 86.471 79.382 1.498 2.521 o
1 2 10 9.401 12.157 0.502 35.827 o
1 2 11 0.358 0.701 0.173 779.450 o
1 2 12 27.623 23.735 1.078 11.585 o
1 2 13 82.545 85.405 2.768 2.318 o
1 3 0 129.579 103.701 4.425 1.238 o
1 3 1 469.186 529.825 27.560 0.077 o
1 3 2 95.462 101.123 3.624 1.756 o
1 3 3 1201.900 1286.830 18.326 0.022 o
1 3 4 38.200 31.463 1.769 7.231 o
1 3 5 210.167 230.049 7.232 0.469 o
1 3 6 20.267 23.665 0.887 15.110 o
1 3 7 77.020 71.440 1.389 2.979 o
1 3 8 84.040 76.660 1.554 2.626 o
1 3 9 1.487 1.153 0.225 284.835 o
1 3 10 185.575 197.041 3.046 0.684 o
1 3 11 32.616 33.435 0.957 9.105 o
1 3 12 1.818 3.594 0.403 148.262 o
1 3 13 1.027 0.513 0.233 428.012 o
1 4 0 212.629 219.857 7.147 0.476 o
1 4 1 126.293 169.163 9.993 0.638 o
1 4 2 901.686 1020.020 15.395 0.036 o
1 4 3 275.511 279.811 7.150 0.327 o
1 4 4 0.119 0.499 0.130 1482.410 o
1 4 5 7.962 8.899 0.428 45.898 o
1 4 6 37.740 37.693 0.987 7.671 o
1 4 7 303.164 308.817 5.385 0.293 o
1 4 8 1.218 1.273 0.246 306.984 o
1 4 9 158.012 162.412 3.172 0.894 o
1 4 10 55.549 58.347 1.294 4.438 o
1 4 11 27.628 30.077 0.798 11.056 o
1 4 12 1.293 0.906 0.160 352.082 o
1 5 0 104.034 110.950 1.721 1.766 o
1 5 1 1364.990 1445.230 28.558 0.016 o
1 5 2 151.605 150.931 4.500 0.905 o
1 5 3 4.131 4.659 0.230 94.569 o
1 5 4 523.628 511.011 6.081 0.115 o
1 5 5 66.291 60.473 1.602 3.634 o
1 5 6 401.293 416.441 5.150 0.180 o
1 5 7 2.179 3.086 0.350 150.829 o
1 5 8 166.911 171.354 3.018 0.826 o
1 5 9 174.963 187.231 4.091 0.720 o
1 5 10 30.910 33.821 0.882 9.542 o
1 5 11 40.290 40.310 0.814 7.177 o
1 5 12 48.228 46.799 1.509 5.393 o
1 6 0 244.915 284.923 7.308 0.361 o
1 6 1 19.795 27.937 0.645 14.850 o
1 6 2 144.061 152.279 1.995 1.062 o
1 6 3 71.872 73.767 2.426 2.878 o
1 6 4 262.610 267.619 6.075 0.364 o
1 6 5 505.481 502.300 10.651 0.113 o
1 6 6 85.100 90.312 2.511 2.250 o
1 6 7 795.725 787.990 19.900 0.046 o
1 6 8 2.011 2.353 0.285 182.285 o
1 6 9 50.911 55.023 1.145 4.976 o
1 6 10 17.300 17.625 0.524 20.268 o
1 7 0 0.257 0.092 0.199 1353.690 o
1 7 1 50.829 55.683 1.597 4.747 o
1 7 2 60.760 57.390 1.453 4.074 o
1 7 3 82.083 82.259 1.336 2.631 o
1 7 4 47.879 47.089 1.227 5.579 o
1 7 5 27.769 25.089 0.900 11.653 o
1 7 6 127.691 127.190 4.265 1.167 o
1 7 7 59.205 69.174 3.134 3.156 o
1 7 8 5.124 6.344 0.506 66.183 o
1 7 9 21.847 23.378 0.803 14.609 o
1 8 0 30.075 28.978 1.597 9.173 o
1 8 1 249.159 255.120 3.521 0.424 o
1 8 2 113.497 130.355 2.423 1.442 o
1 8 3 71.661 68.608 1.578 3.208 o
1 8 4 85.266 84.994 1.598 2.462 o
1 8 5 4.668 4.969 0.355 81.638 o
1 8 6 48.234 54.226 2.387 4.502 o
1 8 7 2.553 2.924 0.420 133.650 o
1 8 8 4.193 4.915 0.435 84.241 o
1 9 0 146.894 135.585 16.494 0.354 o
1 9 1 50.544 54.390 1.258 4.985 o
1 9 2 1.479 1.296 0.195 284.141 o
1 9 3 92.101 87.987 1.444 2.264 o
1 9 4 4.286 4.383 0.336 90.644 o
1 9 5 3.156 2.737 0.404 121.838 o
1 9 6 27.647 20.219 0.871 12.624 o
1 10 0 37.090 39.306 0.846 7.755 o
1 10 1 8.263 8.419 0.352 46.573 o
1 10 2 132.969 117.323 3.943 1.190 o
1 10 3 67.966 63.830 1.695 3.445 o
2 -11 0 3.097 4.026 0.684 88.198 o
2 -11 1 46.484 46.436 1.361 5.675 o
2 -11 2 4.856 6.014 0.332 75.030 o
2 -11 3 9.864 12.605 0.599 33.363 o
2 -11 4 2.904 3.897 0.285 122.768 o
2 -11 5 48.117 54.843 1.423 5.091 o
2 -11 6 3.497 3.484 0.467 102.548 o
2 -11 7 7.998 5.210 0.451 53.419 o
2 -10 0 0.300 0.929 0.213 675.289 o
2 -10 1 4.445 4.935 0.388 83.139 o
2 -10 2 0.440 0.751 0.146 722.432 o
2 -10 3 14.481 13.666 0.459 25.673 o
2 -10 4 10.396 12.744 0.506 32.922 o
2 -10 5 121.200 118.896 1.754 1.460 o
2 -10 6 30.494 31.304 0.813 10.044 o
2 -10 7 136.459 146.815 2.417 1.129 o
2 -10 8 1.778 1.040 0.381 219.680 o
2 -10 9 2.358 1.975 0.249 178.623 o
2 -9 0 12.986 15.046 1.011 23.173 o
2 -9 1 24.865 27.148 1.094 11.903 o
2 -9 2 96.424 97.898 2.451 1.942 o
2 -9 3 13.832 15.322 0.612 24.703 o
2 -9 4 315.438 335.010 7.784 0.252 o
2 -9 5 17.326 20.515 0.720 18.435 o
2 -9 6 357.682 375.966 7.388 0.209 o
2 -9 7 20.841 21.742 1.306 13.908 o
2 -9 8 6.669 6.431 2.069 21.421 o
2 -9 9 54.630 56.550 1.229 4.591 o
2 -9 10 0.779 1.188 0.159 441.434 o
2 -9 11 262.486 261.759 4.728 0.383 o
2 -8 0 66.002 65.947 2.068 3.369 o
2 -8 1 263.600 256.446 5.519 0.377 o
2 -8 2 50.457 56.718 1.452 4.808 o
2 -8 3 9.194 8.571 0.730 38.127 o
2 -8 4 64.171 68.671 2.153 3.360 o
2 -8 5 61.792 63.970 2.442 3.459 o
2 -8 6 105.068 105.761 3.313 1.625 o
2 -8 7 157.149 162.017 4.075 0.864 o
2 -8 8 17.681 20.911 0.812 17.714 o
2 -8 9 131.440 133.013 2.369 1.238 o
2 -8 10 119.048 124.087 5.296 1.154 o
2 -8 11 58.693 62.649 1.274 4.097 o
2 -8 12 115.019 98.758 5.366 1.286 o
2 -7 0 15.440 12.851 0.656 24.016 o
2 -7 1 20.497 17.119 1.051 16.219 o
2 -7 2 0.831 1.890 0.204 333.266 o
2 -7 3 173.662 170.021 2.768 0.802 o
2 -7 4 138.028 130.969 3.429 1.127 o
2 -7 5 141.795 145.347 5.064 0.945 o
2 -7 6 17.571 16.024 0.992 18.759 o
2 -7 7 6.418 7.322 1.260 36.072 o
2 -7 8 129.145 138.034 3.671 1.155 o
2 -7 9 13.781 14.760 0.995 22.607 o
2 -7 10 22.272 22.148 1.213 13.524 o
2 -7 11 252.498 273.051 5.584 0.381 o
2 -7 12 3.853 3.391 0.389 102.267 o
2 -6 0 332.595 312.142 3.494 0.271 o
2 -6 1 440.113 421.765 4.377 0.161 o
2 -6 2 12.059 13.246 0.575 28.903 o
2 -6 3 512.827 478.247 6.110 0.122 o
2 -6 4 225.598 213.876 3.161 0.527 o
2 -6 5 2.629 1.616 0.312 166.734 o
2 -6 6 415.619 393.372 8.313 0.169 o
2 -6 7 57.426 61.144 2.947 3.480 o
2 -6 8 3.978 2.572 0.308 112.224 o
2 -6 9 150.207 139.241 4.643 0.939 o
2 -6 10 58.489 62.619 2.061 3.816 o
2 -6 11 12.043 13.540 0.654 28.134 o
2 -6 12 12.438 10.790 0.517 30.777 o
2 -6 13 17.265 14.048 2.714 10.380 o
2 -5 0 4.066 4.387 0.713 74.057 o
2 -5 1 1381.610 1466.870 21.137 0.017 o
2 -5 2 415.229 406.124 10.918 0.157 o
2 -5 3 55.068 43.898 1.069 5.128 o
2 -5 4 282.100 273.893 5.770 0.336 o
2 -5 5 582.567 592.253 20.452 0.074 o
2 -5 6 55.425 58.315 1.512 4.362 o
2 -5 7 166.946 145.266 3.639 0.874 o
2 -5 8 53.319 50.296 1.415 4.853 o
2 -5 9 75.044 65.855 1.423 3.159 o
2 -5 10 1.691 3.206 0.346 168.537 o
2 -5 11 7.029 6.799 0.638 50.328 o
2 -5 12 0.367 0.304 0.138 1088.000 o
2 -5 13 91.393 86.186 7.294 1.249 o
2 -5 14 39.438 34.979 1.104 7.514 o
2 -4 0 2574.650 2643.460 31.803 0.005 o
2 -4 1 15.294 10.899 0.927 23.554 o
2 -4 2 59.798 71.594 2.256 3.452 o
2 -4 3 227.171 259.157 5.200 0.443 o
2 -4 4 821.411 807.668 36.900 0.034 o
2 -4 5 1319.320 1352.460 14.157 0.019 o
2 -4 6 1.368 2.377 0.286 222.130 o
2 -4 7 219.765 215.163 3.083 0.542 o
2 -4 8 331.908 279.240 4.637 0.283 o
2 -4 9 37.817 35.664 0.931 7.879 o
2 -4 10 43.449 33.448 0.894 7.168 o
2 -4 11 63.785 63.504 2.271 3.449 o
2 -4 12 3.025 4.495 0.544 96.435 o
2 -4 13 0.135 0.165 0.120 2332.820 o
2 -4 14 1.077 1.695 0.264 291.222 o
2 -3 0 793.601 801.252 40.322 0.033 o
2 -3 1 225.286 255.274 4.579 0.460 o
2 -3 2 567.528 511.123 9.892 0.099 o
2 -3 3 629.348 647.229 57.834 0.028 o
2 -3 4 771.741 734.448 8.517 0.056 o
2 -3 5 31.634 32.407 1.446 8.752 o
2 -3 6 255.564 231.094 3.045 0.439 o
2 -3 7 82.176 76.847 2.404 2.518 o
2 -3 8 75.765 67.099 1.476 3.094 o
2 -3 9 24.101 23.124 0.753 13.726 o
2 -3 10 49.316 55.757 1.563 4.880 o
2 -3 11 41.136 44.603 1.092 6.576 o
2 -3 12 74.739 74.844 2.046 2.862 o
2 -3 13 57.397 65.525 1.528 4.005 o
2 -3 14 29.829 28.552 2.768 6.921 o
2 -2 0 1328.630 1155.240 12.655 0.021 o
2 -2 1 2212.980 1923.820 42.891 0.007 o
2 -2 2 88.639 59.677 6.315 1.582 o
2 -2 3 16.877 23.060 1.148 16.189 o
2 -2 4 147.136 146.157 7.823 0.740 o
2 -2 5 538.812 519.075 29.372 0.066 o
2 -2 6 42.429 72.717 1.825 4.616 o
2 -2 7 74.737 69.064 1.196 3.148 o
2 -2 8 75.028 80.450 1.855 2.800 o
2 -2 9 92.453 87.228 1.623 2.245 o
2 -2 10 9.654 12.441 0.551 34.454 o
2 -2 11 249.681 236.645 4.755 0.427 o
2 -2 12 63.159 62.209 1.365 3.824 o
2 -2 13 69.341 73.466 1.345 3.254 o
2 -2 14 58.079 39.367 3.064 3.897 o
2 -1 0 848.836 759.876 14.978 0.046 o
2 -1 1 950.277 857.804 9.521 0.039 o
2 -1 2 0.843 1.651 0.221 346.265 o
2 -1 3 35.892 36.428 1.163 7.933 o
2 -1 4 348.394 285.363 27.327 0.111 o
2 -1 5 3.883 7.108 0.902 56.633 o
2 -1 6 724.126 685.189 26.013 0.050 o
2 -1 7 65.074 62.282 2.045 3.502 o
2 -1 8 159.079 149.385 2.232 0.959 o
2 -1 9 118.805 110.427 3.048 1.446 o
2 -1 10 230.126 224.120 2.989 0.504 o
2 -1 11 31.036 29.570 0.973 9.925 o
2 -1 12 529.550 534.269 9.775 0.105 o
2 -1 13 84.174 81.603 2.232 2.434 o
2 -1 14 5.473 3.375 0.373 80.911 o
2 0 0 0.857 1.879 0.243 316.895 o
2 0 1 43.621 55.236 1.488 5.443 o
2 0 2 52.593 44.293 1.396 5.176 o
2 0 3 395.804 349.826 4.692 0.203 o
2 0 4 182.595 199.274 3.681 0.677 o
2 0 5 688.248 637.570 12.380 0.068 o
2 0 6 315.585 257.778 10.366 0.262 o
2 0 7 170.817 162.860 3.873 0.800 o
2 0 8 13.350 10.713 0.471 29.528 o
2 0 9 189.399 189.616 3.749 0.668 o
2 0 10 0.881 0.523 0.170 515.924 o
2 0 11 1.444 2.408 0.312 210.155 o
2 0 12 134.845 139.977 3.344 1.122 o
2 0 13 0.160 0.529 0.187 1124.230 o
2 0 14 59.239 39.147 1.555 4.757 o
2 1 0 449.798 468.731 7.167 0.142 o
2 1 1 25.211 20.478 1.703 11.225 o
2 1 2 2824.070 3011.280 37.819 0.004 o
2 1 3 51.878 66.265 2.813 3.688 o
2 1 4 94.258 109.167 2.917 1.817 o
2 1 5 33.182 24.468 2.170 7.894 o
2 1 6 27.233 26.308 0.827 11.752 o
2 1 7 290.080 267.143 3.710 0.346 o
2 1 8 24.181 22.838 0.757 13.746 o
2 1 9 971.663 952.277 23.509 0.032 o
2 1 10 24.312 23.102 0.828 13.481 o
2 1 11 25.207 25.354 0.954 12.405 o
2 1 12 99.436 102.827 3.624 1.684 o
2 1 13 26.177 32.888 1.446 9.923 o
2 2 0 97.594 84.937 2.326 2.064 o
2 2 1 1380.180 1528.970 19.504 0.016 o
2 2 2 1958.430 2144.870 26.762 0.008 o
2 2 3 283.015 330.565 6.328 0.296 o
2 2 4 289.765 308.633 7.846 0.288 o
2 2 5 318.434 317.619 3.555 0.282 o
2 2 6 163.734 148.561 3.278 0.897 o
2 2 7 79.335 80.491 1.462 2.728 o
2 2 8 657.840 664.027 9.361 0.072 o
2 2 9 83.453 88.213 1.626 2.464 o
2 2 10 6.298 7.448 0.622 52.586 o
2 2 11 19.332 21.848 0.825 16.319 o
2 2 12 81.284 73.608 1.893 2.700 o
2 2 13 26.679 25.344 1.555 10.527 o
2 3 0 121.914 124.359 2.604 1.366 o
2 3 1 144.953 150.848 4.249 0.958 o
2 3 2 431.423 440.469 10.865 0.144 o
2 3 3 129.235 113.744 1.809 1.391 o
2 3 4 200.798 196.084 2.227 0.642 o
2 3 5 375.265 357.101 4.428 0.215 o
2 3 6 85.554 81.766 1.239 2.546 o
2 3 7 634.181 627.471 5.253 0.081 o
2 3 8 279.168 266.341 7.512 0.326 o
2 3 9 18.230 18.191 0.707 18.671 o
2 3 10 66.085 70.310 2.538 3.113 o
2 3 11 74.430 72.319 1.333 3.071 o
2 3 12 14.553 13.749 0.887 23.093 o
2 4 0 23.161 19.509 0.470 15.627 o
2 4 1 20.001 24.928 0.539 15.758 o
2 4 2 143.950 132.489 1.525 1.159 o
2 4 3 29.580 26.938 0.569 11.213 o
2 4 4 63.533 64.394 1.015 3.830 o
2 4 5 610.468 596.670 6.406 0.086 o
2 4 6 173.478 169.795 2.289 0.815 o
2 4 7 1.354 1.893 0.259 250.104 o
2 4 8 47.068 47.650 1.390 5.537 o
2 4 9 7.034 7.243 0.449 53.190 o
2 4 10 157.651 163.209 3.328 0.888 o
2 4 11 54.280 47.393 1.812 4.682 o
2 5 0 173.886 165.465 4.233 0.767 o
2 5 1 0.921 1.697 0.219 329.451 o
2 5 2 107.287 111.006 2.330 1.662 o
2 5 3 0.681 2.083 0.170 353.817 o
2 5 4 26.631 29.322 0.648 11.703 o
2 5 5 1.345 0.613 0.229 346.342 o
2 5 6 2.915 3.545 0.309 125.318 o
2 5 7 186.041 190.808 4.056 0.670 o
2 5 8 6.797 8.047 0.548 50.511 o
2 5 9 9.406 14.059 0.545 33.293 o
2 5 10 0.153 0.228 0.094 2148.260 o
2 5 11 63.928 60.424 1.695 3.727 o
2 6 0 513.841 509.558 7.586 0.115 o
2 6 1 281.456 270.674 4.217 0.352 o
2 6 2 404.939 392.973 6.606 0.180 o
2 6 3 404.308 391.626 15.100 0.146 o
2 6 4 69.363 69.759 1.526 3.293 o
2 6 5 16.254 15.731 0.979 19.982 o
2 6 6 12.808 17.202 2.636 11.434 o
2 6 7 3.666 3.697 0.365 104.232 o
2 6 8 48.673 49.626 1.654 5.135 o
2 6 9 9.652 10.473 0.507 37.249 o
2 7 0 365.757 358.915 5.300 0.218 o
2 7 1 3.927 4.403 0.393 93.006 o
2 7 2 401.800 413.357 6.072 0.178 o
2 7 3 52.090 58.514 1.456 4.614 o
2 7 4 35.446 35.082 0.893 8.407 o
2 7 5 6.158 6.019 0.555 58.905 o
2 7 6 69.216 66.736 1.749 3.308 o
2 7 7 19.831 19.519 1.135 15.586 o
2 7 8 59.544 57.873 1.773 4.011 o
2 8 0 6.871 7.512 0.778 46.212 o
2 8 1 126.954 141.137 4.285 1.115 o
2 8 2 2.318 3.159 0.336 146.175 o
2 8 3 11.971 12.193 0.428 30.918 o
2 8 4 26.622 27.807 1.376 10.625 o
2 8 5 26.194 25.769 1.446 10.872 o
2 8 6 0.082 0.183 0.104 2954.960 o
2 9 0 4.604 3.456 0.274 95.044 o
2 9 1 0.062 0.150 0.118 3268.950 o
2 9 2 20.406 16.821 0.662 17.744 o
2 9 3 30.023 27.809 1.104 10.221 o
3 -11 0 52.705 53.888 2.100 4.399 o
3 -11 1 13.185 16.047 0.638 24.912 o
3 -11 2 0.900 0.707 0.144 488.325 o
3 -11 3 10.614 11.357 0.708 32.025 o
3 -11 4 2.822 1.597 0.175 172.152 o
3 -11 5 39.498 32.353 0.689 8.053 o
3 -11 6 52.052 48.727 1.020 5.201 o
3 -10 0 1.133 0.749 0.166 402.110 o
3 -10 1 0.226 0.376 0.140 1309.790 o
3 -10 2 0.082 0.153 0.120 2926.880 o
3 -10 3 1.515 1.958 0.220 240.246 o
3 -10 4 15.752 16.207 0.543 22.351 o
3 -10 5 35.428 40.470 1.516 7.287 o
3 -10 6 18.206 17.575 1.275 16.416 o
3 -10 7 78.109 80.615 2.107 2.646 o
3 -10 8 0.190 0.268 0.104 1767.890 o
3 -10 9 65.905 62.617 1.555 3.614 o
3 -9 0 121.096 135.872 2.754 1.303 o
3 -9 1 1.123 2.469 0.542 175.201 o
3 -9 2 143.154 160.406 3.378 0.984 o
3 -9 3 1.691 1.567 0.317 221.912 o
3 -9 4 1.821 1.931 0.305 202.296 o
3 -9 5 29.550 27.961 0.994 10.508 o
3 -9 6 8.611 11.161 2.372 15.613 o
3 -9 7 44.655 45.945 1.342 5.906 o
3 -9 8 0.493 0.424 0.113 864.945 o
3 -9 9 169.816 173.789 11.564 0.468 o
3 -9 10 46.026 47.737 3.367 4.084 o
3 -8 0 239.882 236.711 2.498 0.471 o
3 -8 1 572.347 596.958 7.890 0.092 o
3 -8 2 312.277 336.589 3.792 0.278 o
3 -8 3 373.478 379.073 8.373 0.194 o
3 -8 4 326.112 333.688 12.652 0.208 o
3 -8 5 89.671 91.429 2.055 2.205 o
3 -8 6 54.688 59.518 1.423 4.407 o
3 -8 7 0.557 0.505 0.443 379.940 o
3 -8 8 77.710 80.807 1.710 2.734 o
3 -8 9 19.072 20.081 0.720 17.368 o
3 -8 10 11.722 16.541 0.621 26.620 o
3 -8 11 5.731 6.533 0.330 65.554 o
3 -7 0 1067.580 1053.740 17.393 0.028 o
3 -7 1 27.088 25.779 0.861 11.834 o
3 -7 2 75.291 76.459 1.548 2.921 o
3 -7 3 4.219 3.231 0.305 101.735 o
3 -7 4 202.237 200.230 3.420 0.611 o
3 -7 5 294.619 315.178 7.766 0.280 o
3 -7 6 31.305 29.285 1.341 9.328 o
3 -7 7 178.798 187.261 10.172 0.490 o
3 -7 8 24.831 22.292 0.869 13.344 o
3 -7 9 18.878 21.867 0.673 17.050 o
3 -7 10 1.163 2.218 0.397 217.445 o
3 -7 11 14.027 17.695 0.637 22.981 o
3 -7 12 7.877 6.983 0.467 49.575 o
3 -6 0 20.697 22.240 0.733 15.686 o
3 -6 1 750.955 748.767 7.523 0.058 o
3 -6 2 1.397 1.664 0.220 266.487 o
3 -6 3 126.802 111.112 1.754 1.439 o
3 -6 4 133.104 135.426 2.263 1.216 o
3 -6 5 59.920 51.992 2.528 3.797 o
3 -6 6 372.420 356.183 5.353 0.214 o
3 -6 7 62.931 51.574 1.944 3.925 o
3 -6 8 1.586 1.957 0.275 223.778 o
3 -6 9 119.246 106.024 1.727 1.572 o
3 -6 10 47.200 51.367 1.070 5.513 o
3 -6 11 3.100 1.866 0.342 141.101 o
3 -6 12 1.625 2.240 0.327 201.074 o
3 -6 13 1.185 1.955 0.653 157.234 o
3 -5 0 576.272 615.631 13.058 0.084 o
3 -5 1 3.665 7.558 0.387 77.474 o
3 -5 2 55.010 70.377 3.388 3.171 o
3 -5 3 140.133 121.250 2.834 1.186 o
3 -5 4 77.056 68.514 1.409 3.029 o
3 -5 5 272.729 287.175 7.197 0.325 o
3 -5 6 5.613 3.819 0.436 75.005 o
3 -5 7 4.700 1.526 0.252 110.969 o
3 -5 8 71.140 66.112 1.600 3.277 o
3 -5 9 48.536 44.501 1.022 5.751 o
3 -5 10 118.667 114.943 5.568 1.164 o
3 -5 11 0.519 0.771 0.179 625.744 o
3 -5 12 8.970 7.333 0.452 44.760 o
3 -5 13 86.151 76.578 11.050 0.801 o
3 -4 0 983.616 904.461 16.603 0.035 o
3 -4 1 142.160 118.874 3.053 1.166 o
3 -4 2 93.970 87.483 9.480 0.927 o
3 -4 3 306.404 303.553 8.290 0.270 o
3 -4 4 21.282 16.891 0.537 17.455 o
3 -4 5 1.209 0.765 0.142 390.222 o
3 -4 6 0.254 1.336 0.253 539.757 o
3 -4 7 32.744 31.060 1.493 8.590 o
3 -4 8 25.556 27.090 1.594 10.498 o
3 -4 9 36.923 32.423 5.047 3.375 o
3 -4 10 81.661 63.531 11.105 0.827 o
3 -4 11 23.706 23.359 0.949 13.407 o
3 -4 12 239.763 213.693 2.986 0.493 o
3 -4 13 56.778 50.699 2.395 4.075 o
3 -3 0 561.756 486.345 9.845 0.103 o
3 -3 1 147.662 138.017 3.863 1.004 o
3 -3 2 421.051 366.603 9.798 0.167 o
3 -3 3 1.323 0.899 0.367 272.874 o
3 -3 4 644.395 624.517 11.432 0.075 o
3 -3 5 25.837 25.818 1.750 10.192 o
3 -3 6 6.491 6.430 1.097 41.125 o
3 -3 7 538.972 494.659 18.298 0.091 o
3 -3 8 2.931 3.725 0.404 115.729 o
3 -3 9 23.741 24.456 2.784 7.995 o
3 -3 10 40.245 36.304 4.783 3.418 o
3 -3 11 244.857 240.789 15.226 0.262 o
3 -3 12 3.249 4.228 0.271 112.111 o
3 -3 13 45.167 34.493 3.585 4.299 o
3 -2 0 258.983 242.600 3.433 0.418 o
3 -2 1 374.648 317.974 4.860 0.228 o
3 -2 2 58.588 59.300 2.314 3.783 o
3 -2 3 643.708 631.501 10.122 0.076 o
3 -2 4 259.547 218.102 6.074 0.408 o
3 -2 5 6.501 5.685 0.375 62.201 o
3 -2 6 122.556 116.851 2.210 1.428 o
3 -2 7 18.717 22.223 0.856 16.475 o
3 -2 8 467.457 486.440 9.425 0.129 o
3 -2 9 27.614 31.915 1.618 9.351 o
3 -2 10 35.411 37.674 2.616 6.030 o
3 -2 11 0.554 0.816 0.254 521.573 o
3 -2 12 89.024 92.412 1.711 2.254 o
3 -2 13 61.709 60.420 4.510 2.596 o
3 -1 0 534.470 456.573 8.379 0.116 o
3 -1 1 963.163 949.841 15.369 0.035 o
3 -1 2 330.672 345.290 11.474 0.211 o
3 -1 3 325.567 333.259 6.356 0.254 o
3 -1 4 228.785 202.374 2.515 0.541 o
3 -1 5 25.797 21.938 1.314 11.935 o
3 -1 6 886.359 874.120 13.492 0.041 o
3 -1 7 790.274 756.414 9.170 0.053 o
3 -1 8 462.362 450.609 6.412 0.143 o
3 -1 9 0.251 0.939 0.217 702.275 o
3 -1 10 216.041 219.791 3.958 0.533 o
3 -1 11 27.844 27.721 0.902 11.197 o
3 -1 12 4.614 8.408 0.476 63.328 o
3 -1 13 51.248 42.818 1.586 5.250 o
3 0 0 1575.410 1669.390 21.602 0.013 o
3 0 1 538.231 626.743 9.902 0.094 o
3 0 2 1019.780 1220.960 31.709 0.024 o
3 0 3 776.647 786.679 12.141 0.052 o
3 0 4 2.529 2.072 0.241 168.953 o
3 0 5 498.462 442.513 10.799 0.123 o
3 0 6 0.984 1.839 0.276 290.136 o
3 0 7 717.396 687.877 7.823 0.064 o
3 0 8 835.234 792.311 59.304 0.022 o
3 0 9 51.908 55.738 1.906 4.500 o
3 0 10 128.437 135.512 4.596 1.101 o
3 0 11 116.831 125.316 1.930 1.464 o
3 0 12 32.953 32.670 0.970 9.101 o
3 0 13 19.477 15.569 0.653 18.906 o
3 1 0 0.062 0.690 0.560 349.642 o
3 1 1 326.846 303.697 6.197 0.267 o
3 1 2 8.804 8.621 0.487 42.657 o
3 1 3 119.577 103.332 3.050 1.480 o
3 1 4 0.715 1.948 0.199 350.777 o
3 1 5 482.461 476.718 6.523 0.131 o
3 1 6 321.790 303.148 5.301 0.278 o
3 1 7 27.632 26.381 0.693 11.804 o
3 1 8 233.975 243.353 3.426 0.468 o
3 1 9 49.531 50.285 1.194 5.284 o
3 1 10 28.280 32.469 0.956 10.293 o
3 1 11 61.853 66.266 1.277 3.808 o
3 1 12 42.608 42.030 0.992 6.616 o
3 2 0 512.422 481.766 8.812 0.118 o
3 2 1 0.913 0.888 0.110 466.320 o
3 2 2 14.682 18.993 0.472 22.272 o
3 2 3 118.753 113.236 2.354 1.487 o
3 2 4 146.258 142.912 1.897 1.085 o
3 2 5 95.140 104.301 2.347 1.919 o
3 2 6 202.871 219.789 3.871 0.571 o
3 2 7 125.389 119.650 3.188 1.311 o
3 2 8 63.103 69.349 1.234 3.670 o
3 2 9 5.073 7.008 0.389 67.382 o
3 2 10 11.690 11.692 0.509 31.384 o
3 2 11 217.929 241.808 10.957 0.364 o
3 2 12 31.956 34.862 4.238 4.307 o
3 3 0 90.448 89.723 1.440 2.284 o
3 3 1 57.419 66.908 1.254 4.051 o
3 3 2 200.132 194.191 2.769 0.640 o
3 3 3 10.118 7.684 0.270 41.999 o
3 3 4 130.973 142.494 2.755 1.178 o
3 3 5 181.670 180.522 6.095 0.640 o
3 3 6 56.958 47.335 1.319 4.727 o
3 3 7 12.371 12.224 0.468 29.934 o
3 3 8 0.762 0.732 0.276 443.931 o
3 3 9 0.154 0.167 0.163 1825.380 o
3 3 10 47.802 58.384 1.233 5.060 o
3 3 11 39.000 32.055 1.369 7.554 o
3 4 0 54.761 55.064 1.118 4.678 o
3 4 1 881.610 870.091 13.269 0.042 o
3 4 2 162.846 156.402 4.006 0.851 o
3 4 3 5.589 6.654 0.330 66.169 o
3 4 4 13.165 12.716 0.505 28.007 o
3 4 5 31.863 33.758 0.929 9.270 o
3 4 6 77.373 66.340 1.865 2.962 o
3 4 7 183.557 197.105 6.688 0.588 o
3 4 8 71.953 66.861 2.022 3.117 o
3 4 9 45.833 44.639 3.212 4.310 o
3 4 10 64.621 60.022 4.044 2.726 o
3 5 0 0.447 0.552 0.195 733.222 o
3 5 1 696.125 681.822 7.042 0.067 o
3 5 2 71.987 79.532 1.627 2.970 o
3 5 3 54.185 45.355 0.815 5.234 o
3 5 4 36.293 41.012 0.930 7.682 o
3 5 5 36.365 36.366 1.136 7.884 o
3 5 6 137.727 132.956 2.561 1.171 o
3 5 7 14.634 15.345 0.958 21.725 o
3 5 8 15.994 15.273 1.042 20.020 o
3 5 9 80.535 82.043 2.209 2.533 o
3 6 0 6.815 6.952 0.680 49.937 o
3 6 1 16.076 18.259 0.634 20.690 o
3 6 2 133.035 119.704 3.166 1.237 o
3 6 3 0.432 0.688 0.168 728.465 o
3 6 4 12.109 14.223 0.542 28.263 o
3 6 5 0.072 0.120 0.187 2231.930 o
3 6 6 42.446 43.493 1.340 6.302 o
3 6 7 1.704 1.493 0.358 214.299 o
3 7 0 49.188 50.018 1.493 5.170 o
3 7 1 109.183 107.675 2.629 1.630 o
3 7 2 1.513 2.962 0.226 201.297 o
3 7 3 34.670 35.594 1.682 7.571 o
3 7 4 4.290 4.084 0.443 87.781 o
3 7 5 48.549 42.937 6.322 2.220 o
3 7 6 19.963 23.003 1.027 15.001 o
3 8 0 11.178 10.396 0.559 33.297 o
3 8 1 0.381 0.586 0.129 881.135 o
3 8 2 27.563 16.596 0.590 13.936 o
3 8 3 11.244 7.403 0.467 37.495 o
4 -11 0 3.469 4.062 0.250 110.333 o
4 -11 1 8.137 8.832 0.283 46.943 o
4 -11 2 107.864 103.536 1.335 1.791 o
4 -11 3 4.680 3.945 0.239 91.532 o
4 -11 4 0.088 0.176 0.078 3245.130 o
4 -11 5 47.358 38.490 2.870 4.711 o
4 -10 0 169.819 196.457 4.192 0.719 o
4 -10 1 412.646 443.997 12.417 0.145 o
4 -10 2 29.440 31.372 1.085 9.940 o
4 -10 3 62.164 67.229 2.003 3.538 o
4 -10 4 37.211 39.956 0.810 7.704 o
4 -10 5 73.934 70.980 1.827 3.013 o
4 -10 6 1.966 2.309 0.233 192.751 o
4 -10 7 11.836 11.094 0.370 32.581 o
4 -10 8 62.345 60.315 1.509 3.877 o
4 -9 0 4.983 3.762 0.316 86.344 o
4 -9 1 38.328 38.773 1.525 6.979 o
4 -9 2 3.440 3.646 0.310 112.149 o
4 -9 3 83.560 88.980 2.885 2.228 o
4 -9 4 129.581 130.216 2.185 1.279 o
4 -9 5 74.790 79.932 4.401 2.131 o
4 -9 6 46.206 49.288 1.375 5.550 o
4 -9 7 28.774 22.983 1.935 9.368 o
4 -9 8 0.338 1.264 0.159 607.324 o
4 -9 9 15.941 13.474 0.441 24.037 o
4 -8 0 745.904 783.281 8.506 0.056 o
4 -8 1 17.172 18.974 0.916 18.329 o
4 -8 2 63.224 71.835 1.561 3.517 o
4 -8 3 42.436 43.170 1.127 6.477 o
4 -8 4 187.852 180.024 4.387 0.675 o
4 -8 5 67.382 73.047 1.349 3.348 o
4 -8 6 32.711 33.728 1.195 8.760 o
4 -8 7 103.091 98.418 2.090 1.857 o
4 -8 8 37.401 36.425 1.001 7.826 o
4 -8 9 22.310 26.157 0.631 14.085 o
4 -8 10 0.952 0.966 0.113 440.586 o
4 -7 0 93.433 106.968 5.353 1.460 o
4 -7 1 9.350 12.653 0.588 34.543 o
4 -7 2 49.942 51.335 2.254 4.576 o
4 -7 3 193.819 204.885 2.710 0.645 o
4 -7 4 37.200 38.962 1.186 7.478 o
4 -7 5 11.738 12.794 0.777 28.178 o
4 -7 6 35.081 46.654 1.454 6.956 o
4 -7 7 20.699 18.483 0.589 17.187 o
4 -7 8 41.282 41.220 0.944 6.884 o
4 -7 9 40.728 37.383 0.835 7.323 o
4 -7 10 19.605 18.513 0.649 17.752 o
4 -7 11 0.324 0.628 0.121 936.502 o
4 -6 0 37.806 38.057 1.013 7.608 o
4 -6 1 120.164 125.443 1.975 1.420 o
4 -6 2 14.156 14.034 0.615 25.084 o
4 -6 3 56.305 52.006 1.141 4.668 o
4 -6 4 1.514 1.206 0.172 290.416 o
4 -6 5 0.488 0.779 0.208 611.352 o
4 -6 6 45.819 52.435 3.212 4.092 o
4 -6 7 1.200 1.852 0.236 274.504 o
4 -6 8 49.344 48.748 1.168 5.386 o
4 -6 9 0.157 1.840 0.754 175.174 o
4 -6 10 53.633 58.381 1.341 4.554 o
4 -6 11 123.594 109.248 2.450 1.445 o
4 -6 12 2.598 1.353 0.249 182.256 o
4 -5 0 151.251 140.772 3.516 0.989 o
4 -5 1 1.983 2.683 0.210 183.929 o
4 -5 2 317.431 301.737 3.613 0.291 o
4 -5 3 1.959 1.463 0.199 226.933 o
4 -5 4 0.522 0.225 0.098 974.236 o
4 -5 5 174.888 181.537 2.836 0.767 o
4 -5 6 180.566 176.591 2.679 0.756 o
4 -5 7 79.475 68.718 1.759 2.868 o
4 -5 8 90.989 90.324 1.945 2.202 o
4 -5 9 22.859 25.402 3.515 6.364 o
4 -5 10 15.420 16.485 0.686 21.928 o
4 -5 11 6.770 6.111 0.318 60.144 o
4 -5 12 85.814 70.742 2.395 2.504 o
4 -4 0 18.745 25.035 0.587 16.361 o
4 -4 1 243.246 229.249 2.398 0.472 o
4 -4 2 63.507 65.247 1.100 3.789 o
4 -4 3 73.701 66.699 0.991 3.275 o
4 -4 4 7.296 7.092 0.280 54.813 o
4 -4 5 232.592 215.481 6.931 0.445 o
4 -4 6 4.269 4.977 0.502 80.020 o
4 -4 7 112.041 107.107 2.271 1.626 o
4 -4 8 104.526 104.909 2.057 1.780 o
4 -4 9 0.683 1.293 0.213 427.293 o
4 -4 10 40.718 39.738 5.070 3.132 o
4 -4 11 65.231 68.125 2.093 3.347 o
4 -4 12 56.446 59.044 1.277 4.358 o
4 -3 0 577.477 555.141 7.323 0.096 o
4 -3 1 3.479 2.642 0.176 129.824 o
4 -3 2 676.245 637.640 7.159 0.073 o
4 -3 3 170.147 163.772 3.461 0.815 o
4 -3 4 164.677 146.364 3.469 0.891 o
4 -3 5 5.249 6.866 0.546 62.233 o
4 -3 6 81.113 82.771 2.364 2.474 o
4 -3 7 941.674 944.807 16.230 0.036 o
4 -3 8 30.342 28.957 1.056 10.062 o
4 -3 9 44.841 49.878 1.561 5.535 o
4 -3 10 18.327 20.025 1.244 15.805 o
4 -3 11 51.904 55.789 1.524 4.698 o
4 -3 12 13.544 14.793 0.507 25.951 o
4 -2 0 128.058 128.893 1.503 1.333 o
4 -2 1 582.192 583.585 6.495 0.093 o
4 -2 2 144.253 149.688 3.668 0.998 o
4 -2 3 4.251 2.231 0.343 108.214 o
4 -2 4 3.772 5.191 0.526 83.168 o
4 -2 5 84.951 94.245 2.797 2.156 o
4 -2 6 2001.720 2070.870 65.479 0.007 o
4 -2 7 156.140 161.794 2.979 0.914 o
4 -2 8 342.546 379.880 5.201 0.227 o
4 -2 9 181.719 207.416 4.837 0.635 o
4 -2 10 83.061 87.995 2.667 2.296 o
4 -2 11 0.900 1.057 0.365 319.928 o
4 -2 12 2.128 2.094 0.212 192.080 o
4 -1 0 9.059 9.075 0.261 43.267 o
4 -1 1 46.471 33.494 0.604 6.874 o
4 -1 2 19.276 18.593 0.411 18.557 o
4 -1 3 608.442 614.278 7.626 0.084 o
4 -1 4 47.581 39.688 0.757 6.254 o
4 -1 5 0.946 1.382 0.212 355.873 o
4 -1 6 85.828 92.316 1.715 2.334 o
4 -1 7 366.208 380.970 5.801 0.208 o
4 -1 8 19.842 20.313 0.680 16.910 o
4 -1 9 79.559 86.053 2.119 2.521 o
4 -1 10 39.219 43.632 1.498 6.561 o
4 -1 11 16.503 20.810 1.151 17.073 o
4 -1 12 72.621 64.857 1.897 3.165 o
4 0 0 29.428 21.235 0.389 12.432 o
4 0 1 72.498 70.695 0.961 3.245 o
4 0 2 37.310 38.615 0.739 7.851 o
4 0 3 234.970 221.416 4.131 0.482 o
4 0 4 11.707 13.492 0.408 30.328 o
4 0 5 253.504 256.023 4.897 0.401 o
4 0 6 478.766 459.942 14.081 0.117 o
4 0 7 20.313 19.308 0.754 16.716 o
4 0 8 16.554 16.915 0.631 20.878 o
4 0 9 61.162 63.699 1.832 3.738 o
4 0 10 119.117 139.712 2.900 1.294 o
4 0 11 29.178 32.743 1.095 9.818 o
4 0 12 2.265 3.997 0.451 123.836 o
4 1 0 0.414 0.545 0.107 895.581 o
4 1 1 386.877 391.626 5.191 0.194 o
4 1 2 142.503 144.492 1.904 1.108 o
4 1 3 64.562 66.050 1.008 3.730 o
4 1 4 99.686 92.035 1.316 2.057 o
4 1 5 8.565 8.870 0.452 43.471 o
4 1 6 11.143 9.424 0.396 35.794 o
4 1 7 3.441 4.871 0.289 101.692 o
4 1 8 1.694 2.543 0.240 201.309 o
4 1 9 89.048 96.148 2.851 2.041 o
4 1 10 22.828 23.520 0.789 14.137 o
4 1 11 37.151 40.576 1.136 7.403 o
4 2 0 458.001 435.942 5.404 0.149 o
4 2 1 177.021 170.973 2.307 0.794 o
4 2 2 24.610 21.384 0.735 13.924 o
4 2 3 37.037 32.130 1.326 7.927 o
4 2 4 59.923 57.706 1.397 4.135 o
4 2 5 327.759 292.735 7.403 0.263 o
4 2 6 9.998 8.456 0.459 39.548 o
4 2 7 63.797 51.866 1.339 4.095 o
4 2 8 126.812 130.475 1.910 1.320 o
4 2 9 13.083 14.496 0.723 25.498 o
4 2 10 32.084 34.699 1.074 8.945 o
4 3 0 654.844 682.669 7.089 0.073 o
4 3 1 78.626 66.310 1.128 3.059 o
4 3 2 182.165 166.946 2.634 0.772 o
4 3 3 0.577 2.627 0.302 282.845 o
4 3 4 40.814 51.364 1.337 6.035 o
4 3 5 11.508 5.780 0.559 37.967 o
4 3 6 6.715 6.694 0.498 55.263 o
4 3 7 170.783 158.544 6.551 0.697 o
4 3 8 21.263 21.365 0.666 15.780 o
4 3 9 1.912 1.736 0.185 221.704 o
4 4 0 23.667 23.070 1.190 12.844 o
4 4 1 76.325 74.879 1.442 2.932 o
4 4 2 15.853 20.303 0.793 19.361 o
4 4 3 1.695 0.430 0.160 323.243 o
4 4 4 76.945 77.256 2.440 2.656 o
4 4 5 2.289 2.814 0.544 127.637 o
4 4 6 31.619 34.489 3.080 5.883 o
4 4 7 7.598 11.455 0.520 41.547 o
4 4 8 8.468 9.288 0.801 37.967 o
4 5 0 55.456 56.416 1.617 4.379 o
4 5 1 31.703 38.384 1.347 8.299 o
4 5 2 33.801 39.547 1.691 7.387 o
4 5 3 11.576 14.412 0.771 27.264 o
4 5 4 53.943 57.480 1.065 4.666 o
4 5 5 74.163 72.479 1.827 2.976 o
4 5 6 22.936 26.954 1.369 11.906 o
4 6 0 54.876 53.377 1.501 4.578 o
4 6 1 56.852 58.568 3.322 3.361 o
4 6 2 10.765 11.523 0.642 32.222 o
4 6 3 33.762 32.273 0.821 9.123 o
4 6 4 58.711 57.376 2.037 3.958 o
4 6 5 3.659 3.531 0.435 101.495 o
4 6 6 3.123 3.608 0.358 116.246 o
4 7 0 6.859 6.223 0.630 52.633 o
4 7 1 123.493 126.481 3.080 1.304 o
4 7 2 32.772 28.438 0.613 10.027 o
4 7 3 39.296 30.220 1.058 7.986 o
5 -11 0 39.056 35.414 1.135 7.512 o
5 -11 1 0.368 0.178 0.061 1399.840 o
5 -11 2 3.339 3.868 0.264 114.341 o
5 -11 3 12.475 6.830 1.866 19.287 o
5 -10 0 76.718 67.916 1.596 3.017 o
5 -10 1 6.416 4.245 0.397 67.501 o
5 -10 2 11.980 13.631 0.515 29.114 o
5 -10 3 0.366 0.615 0.130 879.835 o
5 -10 4 165.363 165.187 7.998 0.637 o
5 -10 5 44.222 39.556 0.879 6.632 o
5 -10 6 75.234 57.098 8.291 1.285 o
5 -9 0 4.263 5.037 0.398 84.278 o
5 -9 1 30.726 36.401 1.351 8.676 o
5 -9 2 5.226 5.727 0.315 73.341 o
5 -9 3 52.358 58.890 1.167 4.697 o
5 -9 4 0.256 0.609 0.160 971.373 o
5 -9 5 46.895 46.946 2.416 4.833 o
5 -9 6 0.224 0.495 0.114 1245.030 o
5 -9 7 42.675 41.303 0.852 6.739 o
5 -9 8 3.103 3.149 0.208 131.728 o
5 -8 0 24.960 26.380 0.721 12.746 o
5 -8 1 10.116 12.689 0.546 33.234 o
5 -8 2 11.166 12.188 0.482 32.111 o
5 -8 3 1.675 2.070 0.215 222.976 o
5 -8 4 11.332 12.623 0.541 30.945 o
5 -8 5 3.400 4.344 0.254 108.747 o
5 -8 6 20.857 21.247 0.744 15.846 o
5 -8 7 1.456 2.230 0.201 236.607 o
5 -8 8 9.889 15.071 1.229 24.620 o
5 -8 9 53.743 51.187 0.994 4.957 o
5 -7 0 31.874 38.093 1.060 8.650 o
5 -7 1 26.176 28.112 0.740 11.943 o
5 -7 2 2.328 2.675 0.241 164.513 o
5 -7 3 30.041 33.701 0.798 9.868 o
5 -7 4 96.985 91.256 1.570 2.101 o
5 -7 5 30.483 30.369 0.833 10.147 o
5 -7 6 125.112 116.885 4.804 1.183 o
5 -7 7 31.943 33.027 1.929 7.838 o
5 -7 8 13.641 20.383 0.764 21.381 o
5 -7 9 0.465 0.519 0.194 732.838 o
5 -7 10 27.899 26.644 0.687 11.675 o
5 -6 0 62.688 60.314 1.869 3.733 o
5 -6 1 8.128 8.770 0.478 44.859 o
5 -6 2 82.438 86.208 1.591 2.526 o
5 -6 3 102.663 112.233 2.043 1.751 o
5 -6 4 47.494 45.646 1.527 5.506 o
5 -6 5 6.539 6.808 0.607 53.343 o
5 -6 6 232.591 229.882 3.986 0.479 o
5 -6 7 72.044 63.373 6.882 1.601 o
5 -6 8 0.162 0.457 0.131 1408.090 o
5 -6 9 62.908 64.934 2.037 3.544 o
5 -6 10 4.979 4.834 0.323 79.970 o
5 -5 0 106.636 110.359 1.536 1.741 o
5 -5 1 315.298 317.890 4.139 0.283 o
5 -5 2 260.011 278.345 3.576 0.384 o
5 -5 3 160.779 174.851 3.147 0.845 o
5 -5 4 61.827 59.467 1.381 3.972 o
5 -5 5 201.140 220.321 4.499 0.563 o
5 -5 6 288.593 300.673 6.672 0.304 o
5 -5 7 12.753 15.501 0.770 24.962 o
5 -5 8 130.865 146.079 6.431 0.908 o
5 -5 9 58.327 63.405 1.532 4.012 o
5 -5 10 10.330 11.904 0.549 33.588 o
5 -5 11 19.900 18.183 2.846 8.954 o
5 -4 0 132.525 137.733 2.346 1.207 o
5 -4 1 128.286 125.294 1.564 1.348 o
5 -4 2 305.733 326.790 6.984 0.270 o
5 -4 3 0.567 0.591 0.117 713.410 o
5 -4 4 46.265 45.074 0.742 6.096 o
5 -4 5 435.035 464.733 8.869 0.145 o
5 -4 6 31.228 30.774 0.982 9.712 o
5 -4 7 409.013 416.201 25.235 0.099 o
5 -4 8 165.471 168.890 2.547 0.853 o
5 -4 9 78.828 95.287 2.045 2.428 o
5 -4 10 17.098 20.216 0.748 18.615 o
5 -4 11 22.025 19.505 0.616 15.992 o
5 -3 0 4.737 4.186 0.203 90.053 o
5 -3 1 211.786 226.991 4.774 0.520 o
5 -3 2 245.754 239.795 4.916 0.430 o
5 -3 3 2.853 2.993 0.185 142.897 o
5 -3 4 87.565 97.671 3.117 2.009 o
5 -3 5 179.908 179.171 3.131 0.742 o
5 -3 6 49.185 58.042 1.338 4.910 o
5 -3 7 15.730 16.248 0.713 21.613 o
5 -3 8 142.830 149.126 3.163 1.036 o
5 -3 9 30.945 38.750 1.138 8.680 o
5 -3 10 66.362 73.558 1.926 3.235 o
5 -3 11 4.827 4.203 0.285 86.533 o
5 -2 0 24.642 26.411 0.541 13.141 o
5 -2 1 50.040 44.927 1.014 5.577 o
5 -2 2 696.678 748.329 11.102 0.061 o
5 -2 3 5.792 7.611 0.283 62.189 o
5 -2 4 403.437 423.812 6.254 0.174 o
5 -2 5 177.330 187.662 2.835 0.742 o
5 -2 6 10.439 11.992 0.656 32.263 o
5 -2 7 192.892 199.373 2.913 0.654 o
5 -2 8 1.010 1.089 0.230 365.014 o
5 -2 9 131.427 134.436 2.890 1.202 o
5 -2 10 3.123 2.923 0.296 128.847 o
5 -2 11 70.931 66.988 10.001 0.995 o
5 -1 0 38.079 41.817 0.845 7.384 o
5 -1 1 332.189 339.254 2.947 0.260 o
5 -1 2 0.226 0.289 0.100 1592.080 o
5 -1 3 0.328 0.664 0.170 830.335 o
5 -1 4 56.968 47.267 1.232 4.765 o
5 -1 5 244.894 239.113 3.156 0.452 o
5 -1 6 0.557 0.498 0.142 734.430 o
5 -1 7 1.774 1.582 0.222 233.521 o
5 -1 8 116.298 124.229 3.187 1.383 o
5 -1 9 38.867 33.120 0.989 7.869 o
5 -1 10 100.051 91.344 2.473 1.932 o
5 0 0 226.374 228.676 3.794 0.498 o
5 0 1 92.239 87.330 1.981 2.203 o
5 0 2 142.850 138.509 1.597 1.140 o
5 0 3 42.452 44.839 1.341 6.220 o
5 0 4 48.302 49.254 1.277 5.405 o
5 0 5 0.885 1.442 0.267 338.808 o
5 0 6 137.467 133.659 3.316 1.128 o
5 0 7 40.839 41.449 1.106 6.818 o
5 0 8 28.337 27.767 0.731 11.287 o
5 0 9 103.193 101.375 4.580 1.502 o
5 0 10 10.113 13.002 0.887 29.515 o
5 1 0 98.785 90.357 1.172 2.106 o
5 1 1 200.052 197.566 2.577 0.637 o
5 1 2 2.559 0.810 0.162 210.910 o
5 1 3 10.230 6.988 0.440 41.251 o
5 1 4 5.066 4.153 0.412 79.720 o
5 1 5 86.789 90.369 1.857 2.315 o
5 1 6 97.934 86.162 5.410 1.515 o
5 1 7 0.836 1.810 0.185 345.612 o
5 1 8 3.324 2.479 0.253 132.335 o
5 1 9 170.649 157.122 4.650 0.784 o
5 2 0 326.955 343.059 3.190 0.263 o
5 2 1 11.397 17.986 0.594 26.236 o
5 2 2 94.795 78.781 1.338 2.323 o
5 2 3 45.620 51.423 1.414 5.480 o
5 2 4 0.643 2.667 0.245 290.477 o
5 2 5 28.687 30.324 1.305 9.890 o
5 2 6 5.806 5.259 0.395 68.351 o
5 2 7 2.141 2.139 0.299 179.190 o
5 2 8 118.551 105.883 9.324 0.810 o
5 3 0 84.500 89.465 1.724 2.405 o
5 3 1 11.170 8.850 0.381 36.545 o
5 3 2 16.943 20.487 0.642 19.003 o
5 3 3 234.999 239.151 8.441 0.392 o
5 3 4 31.428 31.527 1.069 9.456 o
5 3 5 2.602 1.520 0.301 171.518 o
5 3 6 69.305 66.995 2.761 2.978 o
5 3 7 157.668 161.662 8.267 0.653 o
5 4 0 16.978 19.042 0.841 18.774 o
5 4 1 4.568 5.821 0.423 75.904 o
5 4 2 272.604 289.299 10.665 0.283 o
5 4 3 0.026 0.391 0.155 1980.720 o
5 4 4 18.076 21.899 1.478 14.425 o
5 4 5 28.460 28.758 1.260 10.235 o
5 4 6 36.231 32.522 1.244 8.133 o
5 5 0 22.881 26.169 2.737 8.115 o
5 5 1 117.602 128.133 2.027 1.432 o
5 5 2 5.128 6.486 0.438 67.662 o
5 5 3 104.699 95.761 2.675 1.786 o
5 5 4 19.276 19.162 0.964 16.675 o
5 6 0 26.451 28.678 0.988 11.340 o
5 6 1 21.201 24.885 0.949 14.178 o
6 -10 0 11.217 11.002 0.638 31.890 o
6 -10 1 1.369 0.723 0.086 372.403 o
6 -10 2 0.036 0.103 0.061 6306.300 o
6 -10 3 2.739 1.471 0.177 179.080 o
6 -9 0 0.214 0.449 0.095 1380.810 o
6 -9 1 3.890 5.294 0.213 93.905 o
6 -9 2 8.169 9.031 0.358 45.695 o
6 -9 3 99.943 98.070 2.972 1.807 o
6 -9 4 4.761 3.749 0.258 91.201 o
6 -9 5 20.253 12.252 0.607 19.771 o
6 -9 6 16.965 12.551 0.575 22.865 o
6 -8 0 2.300 1.836 0.168 193.955 o
6 -8 1 118.682 127.948 1.536 1.446 o
6 -8 2 38.148 40.592 0.963 7.387 o
6 -8 3 13.347 13.025 0.424 27.912 o
6 -8 4 24.958 26.262 1.155 11.886 o
6 -8 5 66.481 61.213 2.807 3.170 o
6 -8 6 78.415 69.517 1.249 2.986 o
6 -8 7 9.320 6.610 0.435 45.007 o
6 -7 0 205.127 218.795 9.406 0.436 o
6 -7 1 2.245 2.670 0.200 172.031 o
6 -7 2 106.982 110.924 2.243 1.676 o
6 -7 3 1.700 3.161 0.212 186.088 o
6 -7 4 18.601 19.884 1.068 16.450 o
6 -7 5 136.866 149.352 5.918 0.904 o
6 -7 6 4.691 6.285 0.465 71.212 o
6 -7 7 258.034 266.348 5.133 0.383 o
6 -7 8 10.761 7.808 0.435 38.538 o
6 -6 0 2.239 2.489 0.261 170.554 o
6 -6 1 166.344 183.437 2.448 0.813 o
6 -6 2 70.046 75.555 1.500 3.149 o
6 -6 3 0.354 0.446 0.120 1026.390 o
6 -6 4 0.077 0.164 0.180 2130.650 o
6 -6 5 65.775 73.007 2.800 2.982 o
6 -6 6 337.649 378.150 19.535 0.146 o
6 -6 7 0.852 1.088 0.209 411.372 o
6 -6 8 124.248 109.587 2.457 1.435 o
6 -5 0 23.330 27.075 0.697 13.311 o
6 -5 1 147.621 159.025 2.074 1.009 o
6 -5 2 5.750 6.763 0.302 65.111 o
6 -5 3 53.679 56.267 1.197 4.685 o
6 -5 4 21.783 23.046 0.663 15.049 o
6 -5 5 148.506 174.194 2.978 0.923 o
6 -5 6 47.718 51.072 2.434 4.611 o
6 -5 7 88.814 101.280 4.028 1.788 o
6 -5 8 107.748 118.042 6.112 1.173 o
6 -4 0 388.982 421.312 7.922 0.176 o
6 -4 1 213.542 227.920 2.658 0.546 o
6 -4 2 36.061 36.137 0.636 8.381 o
6 -4 3 145.216 151.057 1.831 1.063 o
6 -4 4 135.624 130.364 2.438 1.207 o
6 -4 5 56.725 55.699 3.724 3.202 o
6 -4 6 0.904 1.504 0.221 348.838 o
6 -4 7 8.794 11.938 0.583 36.756 o
6 -4 8 80.124 88.332 3.608 2.149 o
6 -4 9 2.780 2.784 0.342 136.820 o
6 -3 0 3.195 3.379 0.235 124.791 o
6 -3 1 20.318 24.341 0.657 15.498 o
6 -3 2 11.430 12.201 0.538 31.180 o
6 -3 3 188.104 195.373 5.041 0.628 o
6 -3 4 80.885 70.272 1.379 2.862 o
6 -3 5 2.647 2.780 0.320 143.112 o
6 -3 6 27.955 28.136 1.524 9.908 o
6 -3 7 115.370 112.775 2.051 1.557 o
6 -3 8 0.011 0.152 0.120 4284.410 o
6 -3 9 2.552 2.715 0.731 101.196 o
6 -2 0 170.213 177.113 3.962 0.766 o
6 -2 1 130.429 137.713 2.001 1.243 o
6 -2 2 24.355 22.468 0.658 13.943 o
6 -2 3 38.300 40.666 2.543 5.694 o
6 -2 4 0.499 0.595 0.176 701.772 o
6 -2 5 104.365 103.235 5.304 1.374 o
6 -2 6 15.313 12.931 0.701 23.866 o
6 -2 7 5.784 5.430 0.366 68.580 o
6 -2 8 39.172 39.093 2.131 6.170 o
6 -2 9 42.558 18.586 0.902 8.626 o
6 -1 0 182.981 188.069 2.974 0.714 o
6 -1 1 7.673 11.841 0.561 40.206 o
6 -1 2 229.835 224.127 4.464 0.485 o
6 -1 3 4.787 3.485 0.363 88.856 o
6 -1 4 128.317 147.312 7.341 0.848 o
6 -1 5 4.577 5.372 0.834 60.522 o
6 -1 6 10.206 7.389 0.473 40.356 o
6 -1 7 25.224 24.404 3.010 7.251 o
6 -1 8 172.127 165.719 3.422 0.802 o
6 0 0 38.465 46.223 1.585 6.412 o
6 0 1 168.122 177.275 2.621 0.815 o
6 0 2 4.245 7.557 0.407 71.418 o
6 0 3 4.906 7.345 0.445 65.881 o
6 0 4 22.514 22.577 0.802 14.480 o
6 0 5 14.778 15.745 0.810 22.295 o
6 0 6 19.649 19.165 1.081 15.999 o
6 0 7 62.730 57.026 1.341 4.003 o
6 0 8 17.045 13.632 1.314 18.174 o
6 1 0 19.865 19.758 1.724 13.061 o
6 1 1 236.196 251.364 3.082 0.458 o
6 1 2 111.211 114.587 2.021 1.605 o
6 1 3 13.680 12.500 0.597 26.857 o
6 1 4 68.917 72.925 1.614 3.224 o
6 1 5 142.812 137.928 3.818 1.041 o
6 1 6 24.142 22.487 1.369 12.260 o
6 1 7 9.401 10.675 1.999 18.740 o
6 2 0 87.189 88.825 1.890 2.320 o
6 2 1 55.425 51.222 2.592 4.022 o
6 2 2 0.469 0.244 0.173 905.437 o
6 2 3 55.010 59.189 1.490 4.370 o
6 2 4 57.191 51.479 2.434 4.008 o
6 2 5 0.056 2.291 1.501 55.648 o
6 2 6 7.061 6.789 1.999 21.911 o
6 3 0 0.100 1.150 0.840 164.595 o
6 3 1 15.205 12.469 0.951 22.639 o
6 3 2 78.949 81.731 2.104 2.604 o
6 3 3 71.286 75.594 1.843 3.021 o
6 3 4 5.312 5.381 0.529 67.652 o
6 4 0 3.797 4.020 0.404 97.178 o
6 4 1 15.424 16.173 2.185 13.131 o
7 -8 0 85.785 68.851 1.440 2.711 o
7 -8 1 33.151 27.346 0.612 10.072 o
7 -8 2 26.708 20.775 0.453 13.575 o
7 -8 3 13.044 8.169 0.341 33.267 o
7 -7 0 72.038 68.520 1.443 3.224 o
7 -7 1 0.915 0.966 0.118 450.055 o
7 -7 2 2.661 2.775 0.200 152.523 o
7 -7 3 58.917 52.464 0.989 4.507 o
7 -7 4 6.182 6.175 0.513 59.417 o
7 -7 5 1.469 0.949 0.202 307.209 o
7 -6 0 22.982 23.984 0.570 14.389 o
7 -6 1 30.065 28.922 0.581 10.747 o
7 -6 2 75.612 78.252 1.183 2.938 o
7 -6 3 11.480 13.156 0.561 30.059 o
7 -6 4 0.403 0.887 0.280 543.412 o
7 -6 5 1.924 1.882 0.296 199.058 o
7 -6 6 29.304 31.480 1.042 10.025 o
7 -5 0 2.076 2.276 0.192 191.848 o
7 -5 1 67.782 69.199 1.851 3.288 o
7 -5 2 10.264 11.255 0.422 35.518 o
7 -5 3 0.246 0.304 0.142 1346.570 o
7 -5 5 12.860 13.018 0.762 26.501 o
7 -5 6 12.425 11.152 0.622 29.693 o
7 -4 0 79.521 80.978 4.114 2.108 o
7 -4 1 255.578 252.790 7.862 0.361 o
7 -4 2 5.287 5.560 0.379 71.848 o
7 -4 3 22.588 21.779 1.291 13.220 o
7 -4 4 19.923 15.569 0.887 17.721 o
7 -4 5 3.939 3.888 0.451 93.442 o
7 -4 6 17.238 16.797 0.809 19.588 o
7 -3 0 35.962 35.373 1.494 7.629 o
7 -3 1 117.654 123.136 2.355 1.440 o
7 -3 2 23.793 26.373 0.750 13.167 o
7 -3 3 7.125 7.860 0.390 52.231 o
7 -3 4 0.033 0.296 0.280 1199.030 o
7 -3 5 9.682 8.891 1.431 26.127 o
7 -3 6 89.375 81.047 2.037 2.340 o
7 -2 0 29.594 36.982 2.209 7.413 o
7 -2 1 28.313 35.243 1.015 9.837 o
7 -2 2 10.130 9.307 0.430 38.263 o
7 -2 3 12.688 10.009 0.425 31.641 o
7 -2 4 15.735 17.995 1.104 18.796 o
7 -2 5 57.306 52.834 1.217 4.536 o
7 -2 6 13.205 11.772 0.467 28.910 o
7 -1 0 171.652 162.644 2.927 0.827 o
7 -1 1 43.231 38.370 1.384 6.485 o
7 -1 2 13.879 16.160 0.887 22.535 o
7 -1 3 69.621 72.415 2.069 3.086 o
7 -1 4 124.110 118.733 2.800 1.359 o
7 0 0 48.208 58.400 10.545 1.015 o
7 0 1 32.314 41.263 5.226 3.237 o
7 0 2 42.359 34.001 6.493 2.306 o
7 0 3 51.012 42.424 1.672 5.234 o
7 0 4 1.762 1.383 0.529 173.654 o
7 1 0 53.894 35.446 1.540 5.374 o
7 1 1 85.247 87.889 36.083 0.103 o
7 1 2 4.637 3.717 0.467 84.640 o
7 1 3 0.012 0.249 0.202 2009.690 o
7 2 0 86.390 120.055 3.157 1.823 o
8 -5 0 193.232 118.328 2.426 0.843 o
8 -4 0 35.178 23.252 0.824 9.860 o
8 -4 1 0.204 0.031 0.093 2549.290 o
;
_olex2_submission_original_sample_id Peru_AW_126
_olex2_submission_special_instructions 'No special instructions were received'
_oxdiff_exptl_absorpt_empirical_details
;
Empirical correction (ABSPACK) includes:
- Absorption correction using spherical harmonics
- Frame scaling
;
_oxdiff_exptl_absorpt_empirical_full_max 1.725
_oxdiff_exptl_absorpt_empirical_full_min 0.610
loop_
_space_group_symop_id
_space_group_symop_operation_xyz
1 x,y,z
2 -x,-y,-z
loop_
_atom_site_label
_atom_site_type_symbol
_atom_site_fract_x
_atom_site_fract_y
_atom_site_fract_z
_atom_site_U_iso_or_equiv
_atom_site_adp_type
_atom_site_occupancy
_atom_site_refinement_flags_posn
S9 S 0.53089(6) 0.66201(4) 0.13451(3) 0.02569(15) Uani 1.000000 .
O19 O 0.71700(19) 0.98598(12) 0.41539(9) 0.0306(3) Uani 1.000000 .
N10 N 0.3616(2) 0.53316(14) 0.31581(10) 0.0250(3) Uani 1.000000 .
N18 N 0.4857(2) 0.79628(15) 0.49050(11) 0.0304(3) Uani 1.000000 .
H18a H 0.4378(2) 0.85749(15) 0.53401(11) 0.0365(4) Uiso 1.000000 R
H18b H 0.4333(2) 0.69884(15) 0.49233(11) 0.0365(4) Uiso 1.000000 R
C3 C 0.8810(2) 0.80864(16) 0.27377(11) 0.0223(3) Uani 1.000000 .
C8 C 0.8066(2) 0.77734(16) 0.16153(12) 0.0232(3) Uani 1.000000 .
C2 C 0.7148(2) 0.73368(16) 0.35059(11) 0.0218(3) Uani 1.000000 .
C1 C 0.5143(2) 0.62892(15) 0.27563(11) 0.0221(3) Uani 1.000000 .
C17 C 0.6380(2) 0.85129(16) 0.42161(11) 0.0230(3) Uani 1.000000 .
C11 C 0.1661(2) 0.44200(16) 0.25175(12) 0.0240(3) Uani 1.000000 .
C12 C 0.0500(2) 0.49890(17) 0.17822(13) 0.0268(3) Uani 1.000000 .
H12 H 0.1074(2) 0.60050(17) 0.16506(13) 0.0321(4) Uiso 1.000000 R
C7 C 0.9434(3) 0.83239(18) 0.08016(12) 0.0279(3) Uani 1.000000 .
H7 H 0.8912(3) 0.80979(18) 0.00374(12) 0.0334(4) Uiso 1.000000 R
C16 C 0.0806(3) 0.29265(17) 0.27031(12) 0.0291(3) Uani 1.000000 .
H16 H 0.1590(3) 0.25310(17) 0.32024(12) 0.0350(4) Uiso 1.000000 R
C14 C -0.2349(3) 0.25931(19) 0.14397(14) 0.0324(4) Uani 1.000000 .
H14 H -0.3730(3) 0.19753(19) 0.10814(14) 0.0389(4) Uiso 1.000000 R
C4 C 1.0956(2) 0.89814(17) 0.30580(13) 0.0263(3) Uani 1.000000 .
H4 H 1.1477(2) 0.92086(17) 0.38222(13) 0.0315(4) Uiso 1.000000 R
C20 C 0.8074(3) 0.64335(18) 0.42642(12) 0.0278(3) Uani 1.000000 .
H20a H 0.8561(19) 0.5701(9) 0.38065(13) 0.0418(5) Uiso 1.000000 GR
H20b H 0.9321(13) 0.7119(2) 0.4753(7) 0.0418(5) Uiso 1.000000 GR
H20c H 0.6929(6) 0.5906(11) 0.4715(7) 0.0418(5) Uiso 1.000000 GR
C6 C 1.1583(3) 0.92126(18) 0.11357(13) 0.0301(3) Uani 1.000000 .
H6 H 1.2546(3) 0.95979(18) 0.05927(13) 0.0361(4) Uiso 1.000000 R
C15 C -0.1189(3) 0.20163(18) 0.21591(14) 0.0339(4) Uani 1.000000 .
H15 H -0.1761(3) 0.09960(18) 0.22806(14) 0.0407(4) Uiso 1.000000 R
C5 C 1.2346(3) 0.95462(18) 0.22532(14) 0.0301(3) Uani 1.000000 .
H5 H 1.3818(3) 1.01610(18) 0.24691(14) 0.0361(4) Uiso 1.000000 R
C13 C -0.1491(3) 0.40744(18) 0.12428(13) 0.0300(3) Uani 1.000000 .
H13 H -0.2272(3) 0.44626(18) 0.07366(13) 0.0360(4) Uiso 1.000000 R
loop_
_atom_site_aniso_label
_atom_site_aniso_U_11
_atom_site_aniso_U_22
_atom_site_aniso_U_33
_atom_site_aniso_U_12
_atom_site_aniso_U_13
_atom_site_aniso_U_23
S9 0.0236(2) 0.0347(2) 0.0174(2) 0.00745(15) 0.00097(13) 0.00355(14)
O19 0.0357(6) 0.0256(5) 0.0301(6) 0.0086(4) 0.0106(4) 0.0022(4)
N10 0.0280(6) 0.0235(6) 0.0215(6) 0.0060(5) 0.0024(5) 0.0023(5)
N18 0.0333(7) 0.0262(6) 0.0308(7) 0.0075(5) 0.0139(5) 0.0012(5)
C3 0.0248(7) 0.0239(7) 0.0200(7) 0.0103(5) 0.0042(5) 0.0031(5)
C8 0.0240(7) 0.0267(7) 0.0209(7) 0.0105(6) 0.0031(5) 0.0038(5)
C2 0.0233(7) 0.0242(7) 0.0177(6) 0.0076(5) 0.0023(5) 0.0019(5)
C1 0.0253(7) 0.0227(6) 0.0191(6) 0.0096(5) 0.0016(5) 0.0009(5)
C17 0.0240(7) 0.0267(7) 0.0171(6) 0.0076(6) 0.0004(5) 0.0000(5)
C11 0.0262(7) 0.0236(7) 0.0197(7) 0.0051(6) 0.0054(5) -0.0000(5)
C12 0.0265(7) 0.0236(7) 0.0289(7) 0.0063(6) 0.0042(6) 0.0028(6)
C7 0.0311(8) 0.0338(8) 0.0209(7) 0.0120(6) 0.0059(6) 0.0068(6)
C16 0.0357(8) 0.0268(7) 0.0224(7) 0.0058(6) 0.0044(6) 0.0052(6)
C14 0.0268(8) 0.0329(8) 0.0299(8) 0.0012(6) 0.0036(6) -0.0031(6)
C4 0.0254(7) 0.0290(7) 0.0232(7) 0.0080(6) 0.0016(5) 0.0010(6)
C20 0.0292(8) 0.0359(8) 0.0212(7) 0.0131(6) 0.0026(6) 0.0080(6)
C6 0.0304(8) 0.0329(8) 0.0287(8) 0.0101(6) 0.0113(6) 0.0086(6)
C15 0.0395(9) 0.0246(7) 0.0310(8) 0.0007(6) 0.0073(7) 0.0032(6)
C5 0.0250(7) 0.0315(8) 0.0323(8) 0.0071(6) 0.0053(6) 0.0033(6)
C13 0.0264(8) 0.0341(8) 0.0289(8) 0.0098(6) 0.0026(6) 0.0011(6)
loop_
_atom_type_symbol
_atom_type_scat_dispersion_real
_atom_type_scat_dispersion_imag
_atom_type_scat_Cromer_Mann_a1
_atom_type_scat_Cromer_Mann_a2
_atom_type_scat_Cromer_Mann_a3
_atom_type_scat_Cromer_Mann_a4
_atom_type_scat_Cromer_Mann_b1
_atom_type_scat_Cromer_Mann_b2
_atom_type_scat_Cromer_Mann_b3
_atom_type_scat_Cromer_Mann_b4
_atom_type_scat_Cromer_Mann_c
_atom_type_scat_source
_atom_type_scat_dispersion_source
H 0.00000 0.00000 0.49300 0.32291 0.14019 0.04081 10.51090 26.12570 3.14236
57.79970 0.0030380000826
'International Tables Volume C Table 6.1.1.4 (pp. 500-502)'
'Henke, Gullikson and Davis, At. Data and Nucl. Data Tables, 1993, 54, 2'
C 0.01920 0.00962 2.31000 1.02000 1.58860 0.86500 20.84390 10.20750 0.56870
51.65120 0.215599998832
'International Tables Volume C Table 6.1.1.4 (pp. 500-502)'
'Henke, Gullikson and Davis, At. Data and Nucl. Data Tables, 1993, 54, 2'
S 0.33537 0.55136 6.90530 5.20340 1.43790 1.58630 1.46790 22.21510 0.25360
56.17200 0.866900026798
'International Tables Volume C Table 6.1.1.4 (pp. 500-502)'
'Henke, Gullikson and Davis, At. Data and Nucl. Data Tables, 1993, 54, 2'
O 0.05239 0.03377 3.04850 2.28680 1.54630 0.86700 13.27710 5.70110 0.32390
32.90890 0.250800013542
'International Tables Volume C Table 6.1.1.4 (pp. 500-502)'
'Henke, Gullikson and Davis, At. Data and Nucl. Data Tables, 1993, 54, 2'
N 0.03256 0.01839 12.21260 3.13220 2.01250 1.16630 0.00570 9.89330 28.99750
0.58260 -11.5290002823
'International Tables Volume C Table 6.1.1.4 (pp. 500-502)'
'Henke, Gullikson and Davis, At. Data and Nucl. Data Tables, 1993, 54, 2'
loop_
_geom_angle_atom_site_label_1
_geom_angle_atom_site_label_2
_geom_angle_atom_site_label_3
_geom_angle
_geom_angle_site_symmetry_1
_geom_angle_site_symmetry_3
_geom_angle_publ_flag
C1 S9 C8 91.73(7) . . ?
C11 N10 C1 122.86(13) . . ?
H18b N18 H18a 120.0 . . ?
C17 N18 H18a 120.0 . . ?
C17 N18 H18b 120.0 . . ?
C2 C3 C8 114.78(12) . . ?
C4 C3 C8 119.48(13) . . ?
C4 C3 C2 125.69(13) . . ?
C3 C8 S9 113.95(11) . . ?
C7 C8 S9 124.46(12) . . ?
C7 C8 C3 121.59(14) . . ?
C1 C2 C3 106.35(11) . . ?
C17 C2 C3 110.79(11) . . ?
C17 C2 C1 107.46(11) . . ?
C20 C2 C3 111.41(12) . . ?
C20 C2 C1 110.37(12) . . ?
C20 C2 C17 110.31(11) . . ?
N10 C1 S9 127.34(11) . . ?
C2 C1 S9 111.86(10) . . ?
C2 C1 N10 120.81(13) . . ?
N18 C17 O19 122.93(13) . . ?
C2 C17 O19 121.30(13) . . ?
C2 C17 N18 115.75(12) . . ?
C12 C11 N10 122.52(13) . . ?
C16 C11 N10 117.79(13) . . ?
C16 C11 C12 119.51(14) . . ?
H12 C12 C11 119.96(8) . . ?
C13 C12 C11 120.08(14) . . ?
C13 C12 H12 119.96(9) . . ?
H7 C7 C8 120.89(9) . . ?
C6 C7 C8 118.22(14) . . ?
C6 C7 H7 120.89(9) . . ?
H16 C16 C11 119.96(9) . . ?
C15 C16 C11 120.08(15) . . ?
C15 C16 H16 119.96(10) . . ?
C15 C14 H14 120.03(9) . . ?
C13 C14 H14 120.03(10) . . ?
C13 C14 C15 119.94(15) . . ?
H4 C4 C3 120.18(9) . . ?
C5 C4 C3 119.64(14) . . ?
C5 C4 H4 120.18(9) . . ?
H20a C20 C2 109.5 . . ?
H20b C20 C2 109.5 . . ?
H20b C20 H20a 109.5 . . ?
H20c C20 C2 109.5 . . ?
H20c C20 H20a 109.5 . . ?
H20c C20 H20b 109.5 . . ?
H6 C6 C7 119.54(9) . . ?
C5 C6 C7 120.91(14) . . ?
C5 C6 H6 119.54(9) . . ?
C14 C15 C16 120.14(15) . . ?
H15 C15 C16 119.93(10) . . ?
H15 C15 C14 119.93(9) . . ?
C6 C5 C4 120.15(14) . . ?
H5 C5 C4 119.92(9) . . ?
H5 C5 C6 119.92(9) . . ?
C14 C13 C12 120.23(15) . . ?
H13 C13 C12 119.89(9) . . ?
H13 C13 C14 119.89(10) . . ?
loop_
_geom_bond_atom_site_label_1
_geom_bond_atom_site_label_2
_geom_bond_distance
_geom_bond_site_symmetry_2
_geom_bond_publ_flag
S9 C8 1.7604(15) . ?
S9 C1 1.7786(14) . ?
O19 C17 1.2274(18) . ?
N10 C1 1.2680(19) . ?
N10 C11 1.4183(19) . ?
N18 H18a 0.8800 . ?
N18 H18b 0.8800 . ?
N18 C17 1.3368(19) . ?
C3 C8 1.392(2) . ?
C3 C2 1.5109(19) . ?
C3 C4 1.386(2) . ?
C8 C7 1.390(2) . ?
C2 C1 1.5378(19) . ?
C2 C17 1.5542(19) . ?
C2 C20 1.5416(19) . ?
C11 C12 1.394(2) . ?
C11 C16 1.394(2) . ?
C12 H12 0.9500 . ?
C12 C13 1.386(2) . ?
C7 H7 0.9500 . ?
C7 C6 1.388(2) . ?
C16 H16 0.9500 . ?
C16 C15 1.389(2) . ?
C14 H14 0.9500 . ?
C14 C15 1.385(3) . ?
C14 C13 1.388(2) . ?
C4 H4 0.9500 . ?
C4 C5 1.393(2) . ?
C20 H20a 0.9800 . ?
C20 H20b 0.9800 . ?
C20 H20c 0.9800 . ?
C6 H6 0.9500 . ?
C6 C5 1.389(2) . ?
C15 H15 0.9500 . ?
C5 H5 0.9500 . ?
C13 H13 0.9500 . ?
loop_
_refln_index_h
_refln_index_k
_refln_index_l
_refln_F_squared_meas
_refln_F_squared_sigma
0 0 1 1.76 0.16
0 0 -1 1.8 0.15
0 0 2 1633.85 25.79
0 0 3 1273.58 20.75
0 0 4 275.39 6.01
0 0 -4 315.66 5.89
0 0 5 439.54 9.27
0 0 -5 522.03 9.21
0 0 -6 43.43 1.91
0 0 6 41.17 1.97
0 0 7 821.81 16.19
0 0 7 817.99 16.06
0 0 8 135.15 3.08
0 0 8 134.91 4.56
0 0 8 134.68 3.03
0 0 -9 0.19 0.21
0 0 9 0.19 0.17
0 0 9 0.16 0.14
0 0 -10 10.32 0.84
0 0 10 9.32 0.72
0 0 -10 9.06 1.18
0 0 11 189.86 4.35
0 0 -11 185.4 4.62
0 0 12 2.05 0.38
0 0 -12 2.32 0.43
0 0 -13 45.55 1.79
0 0 13 41.66 1.58
0 0 -13 46.23 1.74
0 0 14 134.5 2.93
0 0 -14 128.31 2.93
0 0 15 16.49 0.67
0 -1 -14 5.47 0.49
0 -1 -14 4.34 0.4
0 -1 -13 5.9 0.62
0 1 13 5.1 0.5
0 -1 -12 4.46 0.6
0 1 12 3.23 0.53
0 -1 -12 4.49 0.57
0 1 11 8.06 0.86
0 -1 -11 12.14 0.98
0 -1 -10 139.58 3.81
0 -1 -10 138.7 3.47
0 1 10 140.38 3.53
0 -1 -9 17.36 1.47
0 1 9 21.04 1.95
0 1 9 17.63 1
0 -1 -9 20.13 1.16
0 -1 -9 17.95 1
0 1 9 19.17 1.03
0 -1 -8 0.65 0.3
0 1 8 0.31 0.33
0 1 8 0.13 0.14
0 -1 -8 0.13 0.14
0 -1 -8 0.27 0.15
0 1 8 0.51 0.17
0 1 7 80.7 3.41
0 -1 -7 68.79 2.05
0 1 7 75.68 3.19
0 1 7 60.32 1.76
0 -1 -7 85.31 2.91
0 1 6 1208.49 22.05
0 1 6 1160.53 21.58
0 -1 -5 15.94 0.97
0 1 5 15.92 1.24
0 1 5 14.92 1.13
0 1 4 63.62 2.36
0 1 4 63.96 2.21
0 -1 -3 1235.52 18.94
0 1 3 1120.63 19.85
0 1 2 176.34 3.71
0 -1 -2 152.77 3.4
0 -1 -1 446.9 7.62
0 1 0 34.44 0.93
0 -1 0 36.08 1.07
0 -1 0 37.8 0.96
0 -1 1 2201.6 33.34
0 1 -1 2076.42 33.18
0 -1 2 692.14 11.65
0 1 -2 701.76 11.58
0 -1 3 642.37 11.46
0 1 -3 684.29 11.44
0 -1 4 40.6 1.64
0 -1 4 38.97 0.94
0 1 -4 40.07 1.58
0 -1 5 449.45 8.96
0 -1 6 3.24 0.56
0 1 -6 4.7 0.65
0 1 -7 189.66 5.1
0 -1 7 180.75 4.64
0 -1 7 175.39 5.03
0 -1 8 147.12 3.3
0 -1 8 183.71 4.84
0 -1 8 160.63 3.42
0 1 -8 193.71 5.47
0 -1 8 156.65 3.4
0 -1 9 0.77 0.21
0 -1 9 0.9 0.25
0 -1 9 0.89 0.21
0 1 -9 1.05 0.45
0 -1 10 44.4 1.58
0 1 -10 47.98 2.9
0 -1 10 46.71 1.68
0 -1 10 52.1 3.52
0 -1 11 5.51 0.58
0 -1 11 4.79 0.49
0 -1 12 24.75 1.24
0 -1 13 37.1 1.48
0 1 -14 29.08 1.14
0 -1 14 29.33 1.15
0 1 -15 125.2 2.6
0 -2 -14 53.53 1.47
0 -2 -14 54.64 1.63
0 -2 -13 117.67 3.11
0 -2 -13 119.56 3.03
0 -2 -12 39.32 1.76
0 -2 -12 38.48 1.7
0 -2 -11 5.48 0.68
0 -2 -11 5.12 0.55
0 -2 -11 6.12 0.7
0 -2 -10 1.93 0.41
0 -2 -10 2.22 0.47
0 -2 -10 2.22 0.38
0 2 10 1.76 0.35
0 -2 -9 7.38 0.62
0 2 9 10.23 1.58
0 2 9 5.73 0.59
0 -2 -9 8.67 0.79
0 -2 -9 7.22 0.65
0 2 9 6.31 0.6
0 -2 -8 195.23 4.24
0 -2 -8 225.11 5.51
0 2 8 216.72 7.19
0 2 8 186.24 4.31
0 -2 -8 192.3 4.53
0 -2 -8 195.04 4.35
0 2 8 195.39 4.24
0 2 7 49.54 2.7
0 -2 -7 42.24 1.46
0 2 7 43.8 1.54
0 2 7 49.63 3.01
0 -2 -7 47.19 1.69
0 -2 -7 43.07 1.54
0 2 7 42.36 1.47
0 2 6 110.63 4.28
0 -2 -6 107.43 3.1
0 2 5 685.27 13.04
0 2 5 643.79 12.15
0 -2 -4 144.43 3.27
0 2 4 157.65 4.14
0 -2 -3 191.49 4.65
0 2 3 190.59 5.01
0 -2 -2 37.42 1.57
0 -2 -1 9.06 0.7
0 -2 0 290.52 5.75
0 -2 0 263.25 5.68
0 -2 1 145.08 3.6
0 2 -1 142.31 3.5
0 -2 1 163.87 3.67
0 2 -1 158.75 3.38
0 2 -2 24.09 1.11
0 -2 2 23.08 1.2
0 2 -3 300.54 6.03
0 -2 3 276.57 6.14
0 2 -4 112.9 3.23
0 -2 4 102.5 3.33
0 2 -5 1.93 0.42
0 -2 5 1.19 0.38
0 -2 5 1.19 0.23
0 -2 6 235.76 6.27
0 2 -6 228.91 3.97
0 -2 7 10.07 0.63
0 2 -7 12.22 1.25
0 -2 7 10.32 0.57
0 -2 7 12.13 1.38
0 -2 7 11.91 0.61
0 -2 8 83.35 2.16
0 -2 8 87.78 2.34
0 -2 8 78.04 2.1
0 -2 8 85.56 2.16
0 -2 8 96.82 4.38
0 2 -8 95.04 3.91
0 2 -9 252.6 7.38
0 -2 9 241.65 4.77
0 -2 9 223.56 4.68
0 -2 9 215.44 7.77
0 -2 9 233.16 4.72
0 2 -10 258.21 7.93
0 -2 10 263.84 5.21
0 -2 10 240.67 5.11
0 -2 10 254.59 5.18
0 -2 10 242.84 8.61
0 -2 11 0.98 0.28
0 2 -11 1.41 0.35
0 -2 11 0.93 0.25
0 -2 12 1.48 0.31
0 -2 12 1.26 0.27
0 2 -12 1.47 0.34
0 -2 13 60.95 1.94
0 2 -13 57.34 1.98
0 2 -14 258.21 4.92
0 -2 14 250.89 4.82
0 2 -15 8.27 0.45
0 -2 15 8.21 0.45
0 -3 -14 51.15 1.37
0 -3 -13 56.51 1.75
0 -3 -13 55.76 1.83
0 -3 -12 146.03 3.59
0 -3 -12 150.46 3.7
0 -3 -11 15.95 1.12
0 -3 -11 13.96 0.91
0 -3 -10 2.61 0.49
0 -3 -10 3.02 0.46
0 -3 -9 16.94 1.18
0 3 9 20.45 2.49
0 -3 -9 17.55 1.08
0 -3 -8 311.89 6.73
0 -3 -8 307.01 6.46
0 -3 -7 253.4 5.33
0 -3 -7 253.43 5.62
0 -3 -7 263.94 5.48
0 3 7 268.26 7.57
0 -3 -6 123.19 3.21
0 -3 -6 158.13 3.63
0 -3 -6 149.47 3.45
0 -3 -6 165.33 3.74
0 3 6 185.48 6.36
0 3 6 154.45 5.05
0 3 5 42.69 2.76
0 -3 -5 33.83 1.51
0 3 5 38.87 2.2
0 -3 -4 307.34 6.41
0 -3 -3 51.37 2.28
0 3 3 62.41 2.95
0 -3 -2 2.79 0.48
0 3 2 2.47 0.57
0 -3 -1 422.32 8.65
0 3 1 452.74 9.51
0 -3 0 3.18 0.5
0 -3 0 3.9 0.54
0 3 0 3.6 0.64
0 -3 1 321.92 6.61
0 3 -1 309.72 6.64
0 -3 1 278.33 6.37
0 3 -1 267.18 5.9
0 -3 2 48.94 2.12
0 3 -2 42.85 1.83
0 -3 2 50.21 2.16
0 3 -3 42.52 1.92
0 -3 3 47.48 2.19
0 3 -4 465.37 9.28
0 -3 4 421.66 9.55
0 3 -5 0.47 0.28
0 -3 5 0.36 0.19
0 -3 5 0.56 0.33
0 3 -6 0.83 0.38
0 -3 6 0.5 0.34
0 -3 6 1.06 0.28
0 -3 7 458.63 8.02
0 3 -7 453.14 10.61
0 -3 7 450.11 7.79
0 -3 7 458.16 11.18
0 -3 7 463.23 7.76
0 -3 8 108.39 2.85
0 -3 8 120.54 2.76
0 -3 8 115.21 5.12
0 -3 8 119.11 2.78
0 -3 9 262.14 5.36
0 -3 9 250.55 5.07
0 3 -9 255.09 7.93
0 -3 9 243.31 8.32
0 -3 9 248.5 5.06
0 -3 10 320.2 6.13
0 3 -10 324.19 9.47
0 -3 10 310.99 6.19
0 -3 10 311.64 10.07
0 -3 10 307.47 6.1
0 -3 11 216.41 4.66
0 -3 11 219.57 4.66
0 -3 12 40.78 1.53
0 -3 12 43.46 1.62
0 3 -13 1.47 0.3
0 -3 13 1.82 0.29
0 -3 13 1.45 0.29
0 3 -14 40.18 1.31
0 -3 14 41.96 1.33
0 -3 15 49.53 1.25
0 -4 -13 19.98 0.87
0 -4 -13 21.43 0.85
0 -4 -12 8.11 0.51
0 -4 -12 9.05 0.72
0 -4 -12 8.87 0.69
0 -4 -11 35.64 1.42
0 -4 -11 31.75 1.37
0 -4 -11 34.66 1.63
0 -4 -10 175.68 4.28
0 -4 -10 184.76 4.69
0 -4 -9 25.5 1.5
0 4 9 22.66 2.78
0 -4 -9 25.09 1.49
0 -4 -9 26.58 1.39
0 -4 -9 25.48 1.15
0 -4 -8 61.54 2.36
0 -4 -8 60.39 2.37
0 -4 -8 59.11 2.18
0 -4 -8 55.98 1.89
0 -4 -7 390.2 8.05
0 -4 -7 389.19 7.77
0 -4 -7 388.07 7.98
0 -4 -6 60.65 2.07
0 -4 -6 61.91 2.23
0 4 6 55.77 3.1
0 -4 -6 59.56 2.15
0 -4 -5 13.8 0.92
0 -4 -5 12.17 0.81
0 4 5 12.08 1.32
0 -4 -5 11.68 0.82
0 -4 -4 22.78 1.79
0 -4 -4 24.62 1.18
0 -4 -4 23.43 1.1
0 4 3 65.68 3.69
0 -4 -3 42.1 2.34
0 4 2 81.49 4.04
0 -4 -2 72.3 2.99
0 4 1 38.21 2.67
0 -4 -1 42.54 2.21
0 4 0 47.21 2.57
0 -4 0 31.62 1.92
0 4 -1 433.17 9.6
0 -4 1 417.77 9.39
0 -4 2 626.5 12.49
0 -4 2 627.52 12.5
0 4 -3 50.36 2.37
0 -4 3 55.23 2.71
0 -4 3 51.39 2.65
0 4 -4 280.05 7.12
0 -4 4 289.43 7.76
0 -4 5 490.7 11.52
0 -4 5 529.18 10.11
0 -4 6 173.04 3.69
0 4 -6 166.64 5.69
0 -4 6 179.93 3.56
0 -4 6 181.91 6.31
0 -4 6 183.24 4.87
0 -4 7 0.65 0.16
0 -4 7 0.52 0.2
0 4 -7 0.41 0.34
0 -4 7 0.53 0.16
0 -4 7 0.65 0.47
0 -4 8 0.86 0.24
0 4 -8 0.6 0.4
0 -4 8 1.54 0.26
0 -4 8 0.65 0.48
0 -4 8 0.87 0.22
0 -4 9 210.94 4.55
0 -4 9 219.84 4.78
0 -4 9 219.84 4.6
0 -4 9 219.84 8.26
0 -4 9 224.15 4.55
0 -4 10 365.27 6.86
0 -4 10 330.48 7.02
0 -4 10 364.83 6.96
0 4 -10 353.14 10.41
0 -4 10 337.41 11.14
0 -4 10 377.57 6.89
0 -4 11 0.5 0.23
0 -4 11 0.77 0.23
0 4 -12 153.03 3.65
0 -4 12 143.11 3.42
0 -4 13 109.35 2.53
0 4 -13 112.27 2.64
0 4 -14 1.55 0.21
0 -5 -12 14.45 0.73
0 -5 -12 14.88 0.74
0 -5 -11 10.76 0.69
0 -5 -11 10.4 0.78
0 -5 -11 8.89 0.61
0 -5 -10 0.65 0.25
0 -5 -10 0.59 0.29
0 -5 -10 0.89 0.28
0 -5 -10 0.4 0.23
0 -5 -9 94.05 2.82
0 -5 -9 91.6 3.02
0 -5 -9 86.74 2.33
0 -5 -9 87.98 2.97
0 5 8 75.44 5.06
0 -5 -8 76.51 2.59
0 -5 -8 79.49 2.82
0 -5 -8 73 2.22
0 -5 -8 71.46 2.68
0 5 7 34.02 3.58
0 -5 -7 37.13 1.84
0 -5 -7 39.92 1.76
0 -5 -7 34.61 1.47
0 -5 -7 38.35 1.85
0 5 6 18.62 1.87
0 -5 -6 24.97 1.42
0 5 6 24.75 3
0 -5 -6 25.74 1.46
0 -5 -6 24.28 1.34
0 -5 -6 25.2 1.23
0 -5 -5 10.77 0.87
0 -5 -5 11.87 0.81
0 -5 -5 9.49 1.11
0 -5 -5 10.47 0.83
0 -5 -5 10.93 0.9
0 5 5 10.62 1.37
0 -5 -4 163.21 5.69
0 -5 -4 171.48 4.1
0 -5 -4 178.81 4.23
0 -5 -4 168.67 4.04
0 -5 -4 171.18 3.87
0 -5 -3 163.01 5.63
0 -5 -3 178.55 4.14
0 5 3 169.98 7.25
0 -5 -3 180.44 4.14
0 -5 -3 194.05 4.33
0 -5 -3 182.47 3.99
0 -5 -3 202.16 5.75
0 -5 -2 36.48 2.33
0 -5 -2 40.22 1.51
0 -5 -2 46.08 1.65
0 -5 -2 40.51 1.45
0 5 2 32.34 2.85
0 -5 -1 288.59 7.82
0 -5 -1 299.15 5.84
0 -5 0 51.56 2.77
0 5 0 52.58 3.18
0 -5 1 20.99 1.78
0 -5 1 24.2 1.89
0 5 -1 25.44 1.92
0 -5 2 550.73 12.42
0 -5 2 535.19 12
0 5 -3 0.09 0.18
0 -5 3 0.27 0.25
0 -5 3 0.11 0.22
0 -5 3 0.35 0.14
0 -5 4 23.89 1.01
0 5 -4 24.92 1.92
0 -5 4 24.39 2.07
0 -5 4 25.08 0.91
0 -5 4 24.43 2.13
0 -5 4 23.25 0.96
0 -5 5 80.53 2.15
0 -5 5 81.46 2.23
0 -5 5 86.63 4.22
0 5 -5 87.04 3.96
0 -5 5 92.82 2.15
0 -5 5 91.96 4.42
0 -5 5 90.74 3.6
0 -5 6 676.57 11.36
0 -5 6 649.93 11.47
0 5 -6 695.16 15.18
0 -5 6 669.96 11.28
0 -5 6 681.15 15.74
0 -5 6 660.36 13.59
0 -5 7 212.92 4.45
0 5 -7 193.5 6.94
0 -5 7 219.31 7.93
0 -5 7 198.23 4.04
0 -5 8 194.4 4.31
0 -5 8 198.39 4.42
0 5 -8 203.07 7.29
0 -5 8 196.32 4.21
0 -5 8 192.04 7.81
0 -5 8 207.71 4.13
0 -5 9 7.82 0.65
0 -5 9 9.69 0.76
0 5 -9 7.14 1.33
0 -5 9 9.82 0.72
0 -5 9 7.27 1.49
0 -5 9 9.68 0.66
0 -5 10 36.35 1.46
0 -5 10 36.27 1.4
0 -5 10 37.61 1.39
0 -5 11 13.62 0.85
0 -5 11 13.66 0.79
0 -5 11 14.02 0.8
0 -5 12 13.94 0.81
0 5 -12 14.66 0.84
0 -5 12 14.29 0.8
0 5 -13 72.54 1.92
0 -5 13 79.33 2.04
0 -5 14 6.17 0.38
0 -6 -11 41.05 1.32
0 -6 -11 44.25 1.31
0 -6 -10 25.95 1.21
0 -6 -10 26.43 1.25
0 -6 -10 24.94 1.09
0 -6 -9 20.16 1.19
0 -6 -9 21.55 1.15
0 -6 -9 21.5 1.26
0 -6 -8 30.64 1.26
0 -6 -8 31.39 1.65
0 -6 -8 31.75 1.53
0 -6 -8 30.62 1.58
0 6 7 0.79 0.7
0 -6 -7 0.74 0.31
0 -6 -7 0.86 0.31
0 -6 -7 0.67 0.31
0 -6 -7 0.76 0.25
0 -6 -6 109.94 3.42
0 -6 -6 101.79 3.15
0 -6 -6 102.23 2.89
0 -6 -6 103.53 3.25
0 6 5 131.26 5.54
0 -6 -5 135.32 3.77
0 -6 -5 138.46 3.89
0 -6 -5 142.09 3.77
0 -6 -5 126.94 3.4
0 -6 -4 77.15 4.02
0 -6 -4 73.51 2.57
0 6 4 87.23 5.41
0 -6 -4 82.21 2.25
0 -6 -4 82.94 2.78
0 -6 -4 87.41 2.7
0 -6 -4 85.75 2.54
0 -6 -3 113.08 4.86
0 -6 -3 108.97 3.13
0 6 3 120.51 6.12
0 -6 -3 112.14 4.57
0 -6 -3 116.02 3.31
0 -6 -3 110.81 3.14
0 -6 -3 110.88 2.99
0 -6 -2 105.45 2.98
0 -6 -2 110.11 4.55
0 6 2 123.18 5.98
0 -6 -2 108.2 3.01
0 -6 -2 115.66 3.15
0 -6 -2 94.87 4.34
0 -6 -1 71.56 3.72
0 -6 -1 80.36 3.76
0 6 1 68.94 4.16
0 -6 -1 79.23 2.44
0 -6 -1 70.16 2.31
0 -6 -1 79.39 2.31
0 -6 0 160.4 5.59
0 -6 0 153.59 3.71
0 -6 0 155.14 3.54
0 6 0 153.82 5.95
0 -6 1 155.78 3.56
0 -6 1 162.67 3.74
0 -6 2 0.17 0.28
0 -6 2 0.49 0.18
0 -6 2 0.11 0.12
0 -6 2 0.13 0.08
0 -6 2 0.7 0.48
0 -6 3 17.3 0.93
0 -6 3 17.06 0.76
0 -6 3 18.85 0.94
0 -6 3 15.01 1.76
0 -6 3 17.95 1.93
0 -6 4 10.1 0.67
0 -6 4 8.32 0.64
0 -6 4 7.94 1.33
0 -6 4 9 0.57
0 -6 4 9.63 1.27
0 -6 4 8.9 1.38
0 -6 5 36.99 1.39
0 -6 5 36.56 1.44
0 6 -5 33.33 2.57
0 -6 5 36.09 2.91
0 -6 5 38.66 1.31
0 -6 5 37.7 3.03
0 -6 5 39.01 2.57
0 -6 6 0.22 0.29
0 -6 6 0.37 0.16
0 -6 6 0.15 0.19
0 6 -6 0.14 0.29
0 -6 6 0.29 0.13
0 -6 6 0.26 0.15
0 -6 6 0.26 0.35
0 -6 7 279.64 5.81
0 6 -7 276.93 8.98
0 -6 7 282.47 9.72
0 -6 7 285.22 5.42
0 -6 8 160 3.85
0 -6 8 140.81 6.86
0 6 -8 154.3 6.5
0 -6 8 139.54 6.74
0 -6 8 174.84 3.58
0 -6 9 86.35 2.44
0 -6 9 88.11 2.58
0 -6 9 86.5 2.45
0 -6 9 87.67 2.3
0 -6 10 61.03 1.93
0 -6 10 58.67 2
0 -6 10 56.95 1.81
0 -6 10 59.95 1.78
0 -6 11 2.42 0.31
0 -6 11 2.25 0.3
0 -6 11 1.77 0.32
0 -6 12 4.81 0.45
0 6 -12 4.39 0.39
0 -6 13 4.27 0.32
0 -6 13 4.37 0.36
0 -7 -10 18.45 0.79
0 -7 -10 17.95 0.82
0 -7 -9 12.82 0.78
0 -7 -9 11.9 0.8
0 -7 -8 1.06 0.3
0 -7 -8 0.94 0.27
0 -7 -8 0.99 0.28
0 -7 -8 0.77 0.27
0 -7 -8 0.53 0.17
0 -7 -7 26.85 1.37
0 -7 -7 22.27 1.25
0 -7 -7 23.5 1.29
0 -7 -7 22.94 1.35
0 -7 -7 21.89 1.04
0 -7 -6 229.44 5.49
0 -7 -6 247.89 5.76
0 -7 -6 242.2 5.54
0 -7 -6 236.44 5.12
0 7 5 0.44 0.7
0 -7 -5 0.44 0.27
0 -7 -5 0.59 0.28
0 -7 -5 0.3 0.26
0 -7 -5 0.36 0.27
0 -7 -5 0.45 0.23
0 7 4 3.75 1.23
0 -7 -4 5.03 0.63
0 -7 -4 3.58 0.53
0 -7 -4 4.15 0.57
0 -7 -4 4.34 0.53
0 -7 -4 3.44 0.55
0 -7 -4 4 0.58
0 -7 -4 3.92 0.44
0 -7 -4 3.43 0.85
0 -7 -3 424.99 11.39
0 -7 -3 437.19 8.13
0 7 3 410.09 12.9
0 -7 -3 433.32 8.49
0 -7 -3 440.29 8.68
0 -7 -3 430.87 8.72
0 -7 -3 430.72 8.35
0 -7 -2 170.23 6.34
0 7 2 177.79 7.51
0 -7 -2 161.32 4.18
0 -7 -1 0.07 0.33
0 -7 -1 0.21 0.33
0 7 1 -0.09 0.45
0 -7 -1 0.21 0.21
0 -7 0 100.23 2.84
0 -7 0 91.31 4.74
0 -7 0 101.52 4.85
0 -7 1 218.31 4.87
0 -7 1 221.84 7.6
0 -7 1 236.51 5.15
0 -7 1 221.04 7.89
0 -7 2 12.41 0.87
0 -7 2 13.19 1.68
0 -7 2 12.1 1.67
0 -7 2 13.71 0.88
0 -7 3 8.8 0.71
0 -7 3 8.53 0.55
0 -7 3 8.48 1.44
0 -7 3 9.67 0.72
0 -7 4 18.82 1.05
0 -7 4 20.39 2.07
0 -7 4 15.72 0.8
0 -7 4 16.57 2.03
0 -7 4 18.28 2.13
0 -7 4 18.96 1.01
0 -7 5 60.58 2.01
0 -7 5 62.83 3.66
0 -7 5 55.46 1.69
0 -7 5 50.93 3.71
0 -7 5 51.63 1.84
0 -7 6 2.03 0.37
0 -7 6 1.14 0.52
0 -7 6 1.92 0.3
0 -7 6 2.2 0.83
0 -7 6 1.88 0.25
0 -7 6 1.78 0.33
0 -7 7 0.18 0.13
0 -7 7 0.25 0.17
0 -7 7 0.24 0.19
0 -7 8 29.62 1.1
0 -7 8 29.84 1.25
0 -7 8 26.72 1.28
0 -7 9 3.93 0.44
0 -7 9 3.74 0.47
0 -7 9 3.86 0.37
0 -7 9 3.31 0.41
0 -7 10 75.32 2.2
0 -7 10 74.91 2.02
0 -7 10 71.39 1.84
0 -7 11 9.65 0.52
0 -7 11 9.65 0.62
0 -7 12 110.13 2.28
0 -7 12 135.98 2.66
0 -7 13 6.45 0.36
0 -8 -9 51.46 1.35
0 -8 -9 51.33 1.39
0 -8 -8 152.39 3.29
0 -8 -8 149.75 3.37
0 -8 -7 8.66 0.66
0 -8 -7 8.15 0.5
0 -8 -7 7.73 0.67
0 -8 -6 321.26 6.12
0 -8 -6 310.72 6.62
0 -8 -5 236.09 5.34
0 -8 -5 238.99 4.88
0 -8 -4 96.89 2.81
0 -8 -4 91.19 2.88
0 -8 -4 90.93 2.56
0 -8 -3 0.62 0.33
0 -8 -3 0.82 0.36
0 -8 -3 1.09 0.35
0 -8 -3 0.84 0.29
0 -8 -3 0.7 0.47
0 -8 -3 1.41 0.31
0 -8 -2 51.05 2.11
0 -8 -2 58.45 2.47
0 -8 -2 52.17 1.89
0 -8 -2 49.36 3.47
0 -8 -1 197.92 4.59
0 -8 -1 199.08 4.82
0 -8 -1 188.69 4.5
0 -8 0 5.6 0.64
0 -8 0 4.24 1.04
0 -8 0 5.17 0.6
0 -8 0 5.44 1.2
0 -8 1 26.35 1.34
0 -8 1 20.03 2.24
0 -8 1 26.03 1.31
0 -8 1 21.59 2.29
0 -8 2 125.64 3.43
0 -8 2 130.58 6.09
0 -8 2 140.38 3.48
0 -8 2 136.63 6.17
0 -8 3 20.94 1.16
0 -8 3 21.28 2.31
0 -8 3 20.58 2.31
0 -8 3 21.86 1.15
0 -8 4 8.77 0.56
0 -8 4 10.66 0.79
0 -8 4 10.69 0.83
0 -8 4 9.83 0.77
0 -8 5 23.11 0.98
0 -8 5 23.55 1.17
0 -8 5 22.01 2.3
0 -8 5 24.62 1.25
0 -8 5 26.19 1.26
0 -8 6 188.46 4.28
0 -8 6 193.78 3.96
0 -8 6 195.04 4.24
0 -8 6 190.37 4.16
0 -8 7 34.6 1.27
0 -8 7 30.94 1.35
0 -8 8 0.07 0.13
0 -8 8 0.08 0.16
0 -8 9 32.68 1.19
0 -8 9 29.93 1.15
0 -8 9 29.43 1.22
0 -8 10 13.06 0.68
0 -8 10 13.1 0.65
0 -8 10 13.57 0.74
0 -8 11 25.98 0.9
0 -9 -7 11.25 0.52
0 -9 -7 8.94 0.49
0 -9 -6 9.05 0.63
0 -9 -6 9.14 0.55
0 -9 -6 8.9 0.46
0 -9 -5 0.02 0.17
0 -9 -5 0.49 0.18
0 -9 -5 0.07 0.12
0 -9 -4 27.01 1.32
0 -9 -4 28.08 1.16
0 -9 -3 9.95 0.65
0 -9 -3 11.49 0.87
0 -9 -3 11.14 0.75
0 -9 -2 15.02 0.89
0 -9 -2 13.36 1.09
0 -9 -2 13.15 0.9
0 -9 -1 56.44 1.94
0 -9 -1 53.47 1.9
0 -9 0 16.67 1.01
0 -9 0 15.47 1
0 -9 1 47.1 1.87
0 -9 1 49.9 1.84
0 -9 1 45.81 1.78
0 -9 2 22.64 1.58
0 -9 2 22.76 1.26
0 -9 2 23.23 1.2
0 -9 2 23.06 1.19
0 -9 3 33.88 1.95
0 -9 3 36.29 1.57
0 -9 3 33.65 1.44
0 -9 3 34.05 1.44
0 -9 4 0.16 0.32
0 -9 4 0.4 0.23
0 -9 4 0.95 0.27
0 -9 4 0.71 0.26
0 -9 5 14.86 0.88
0 -9 5 14 0.88
0 -9 5 12.6 0.79
0 -9 6 7.06 0.58
0 -9 6 6.41 0.55
0 -9 6 5.92 0.42
0 -9 6 5.42 0.66
0 -9 7 81.07 2.13
0 -9 7 69.37 1.8
0 -9 8 5.92 0.41
0 -9 8 5.84 0.48
0 -9 8 6.26 0.47
0 -9 9 12.6 0.57
0 -9 9 13.3 0.61
0 -9 9 13.42 0.67
0 -9 10 34.61 0.98
0 -9 10 47.66 1.06
0 -10 -5 8.13 0.41
0 -10 -4 2.11 0.26
0 -10 -4 2.29 0.23
0 10 3 5.48 0.32
0 -10 -3 5.11 0.33
0 -10 -3 8.27 0.5
0 -10 -3 7.71 0.52
0 -10 -2 11.4 0.67
0 -10 -2 10.06 0.57
0 -10 -1 8.88 0.6
0 -10 -1 8.24 0.6
0 -10 -1 7.8 0.57
0 -10 -1 10.01 0.82
0 -10 0 1.08 0.25
0 -10 0 0.87 0.33
0 -10 0 1.08 0.25
0 -10 1 1.55 0.3
0 -10 1 1.38 0.27
0 -10 1 0.54 0.32
0 -10 1 1.29 0.27
0 -10 2 29.83 1.27
0 -10 2 29.73 1.19
0 -10 2 29.1 1.19
0 -10 3 6.16 0.56
0 -10 3 6.09 0.52
0 -10 3 7.49 0.79
0 -10 3 7.06 0.56
0 -10 4 170.29 3.69
0 -10 4 166.43 3.55
0 -10 4 176.74 3.61
0 -10 5 8.5 0.56
0 -10 5 7.94 0.56
0 -10 6 7.48 0.49
0 -10 6 7.05 0.45
0 -10 7 10.43 0.55
0 -10 7 10.17 0.53
0 -10 8 40.97 1.01
0 -10 8 37.19 0.91
0 -11 0 12.96 0.67
0 11 0 13.32 0.53
0 -11 0 11.93 0.54
0 -11 0 13.33 0.55
0 -11 0 12.68 0.53
0 -11 1 4.36 0.32
0 -11 1 3.97 0.3
0 -11 2 5.15 0.5
0 -11 2 11.68 0.57
0 -11 2 12.24 0.54
0 -11 2 12.97 0.58
0 11 -2 6.28 0.45
0 -11 2 11.67 0.52
0 -11 3 97.09 1.89
0 -11 3 95.86 1.88
0 -11 3 95.54 2.01
0 -11 4 0.26 0.11
0 11 -4 0.38 0.11
0 -11 4 0.35 0.1
0 -11 4 0.06 0.13
0 11 -5 40.07 1.19
0 -11 5 33.9 0.91
-1 11 -6 2.92 0.34
-1 11 -5 24.26 0.77
-1 11 -5 23.34 1.01
1 -11 5 25.27 0.81
1 -11 4 0.02 0.17
1 -11 4 0.28 0.13
-1 11 -4 0.69 0.17
-1 11 -4 0.55 0.26
1 -11 3 5.73 0.45
-1 11 -3 6.63 0.46
1 -11 3 6.74 0.4
1 -11 3 6.51 0.42
1 -11 2 10.72 0.63
-1 11 -2 12.32 0.64
1 -11 2 11.78 0.55
-1 11 -2 7.81 0.62
1 -11 2 6.38 0.64
1 -11 2 12.01 0.61
1 -11 1 0.01 0.1
-1 11 -1 0.05 0.12
1 -11 1 0.12 0.12
-1 11 -1 0.46 0.21
1 -11 1 0.17 0.09
-1 11 0 1.45 0.22
1 -11 0 1.51 0.23
1 -11 0 1.71 0.21
1 -11 0 1.35 0.22
-1 11 1 2.19 0.24
1 -11 -1 2.11 0.24
1 -11 -1 2.04 0.25
1 -11 -2 43.04 1.19
1 -11 -3 2.11 0.21
1 -10 8 4.95 0.31
1 -10 8 5.36 0.35
-1 10 -8 4.2 0.4
1 -10 7 21.9 0.77
1 -10 7 24.43 0.9
-1 10 -7 25.35 1.19
1 -10 6 5.39 0.36
-1 10 -6 5.65 0.44
1 -10 6 5.51 0.44
1 -10 6 4.46 0.53
1 -10 6 5.94 0.45
1 -10 5 0.17 0.15
1 -10 5 0.18 0.16
1 -10 5 0.15 0.09
1 -10 5 0.14 0.23
1 -10 5 0.2 0.13
1 -10 4 72.06 1.99
1 -10 4 67.92 2.56
1 -10 4 71.32 1.97
1 -10 4 69.24 2.08
1 -10 3 10.38 0.68
1 -10 3 10.31 0.68
1 -10 3 10.59 0.76
1 -10 2 0.28 0.19
1 -10 2 0.16 0.16
1 -10 2 -0.03 0.2
1 -10 1 51.46 1.75
1 -10 1 50.46 1.67
1 -10 1 53.53 1.83
1 -10 0 139.18 3.28
1 -10 0 131.85 3.14
1 -10 -1 4.93 0.49
-1 10 1 3.27 0.43
1 -10 -1 5.44 0.69
1 -10 -1 5.4 0.54
1 -10 -1 5.25 0.51
1 -10 -2 147.33 3.33
1 -10 -2 146.23 3.79
1 -10 -2 157.7 3.48
1 -10 -2 151.82 3.34
1 -10 -3 21.91 0.94
1 -10 -3 21.89 0.97
-1 10 3 20.85 0.81
1 -10 -3 19.52 0.8
1 -10 -4 15.91 0.73
1 -10 -5 4.08 0.34
1 -10 -5 2.8 0.27
1 -9 11 2.26 0.2
1 -9 10 17.4 0.69
1 -9 9 3.86 0.35
1 -9 9 3.68 0.35
1 -9 8 1.88 0.26
1 -9 8 1.1 0.24
1 -9 7 6.57 0.49
1 -9 7 6.12 0.53
1 -9 7 5.87 0.38
1 -9 6 78.99 2.2
1 -9 6 81.45 2.05
1 -9 5 25.59 1.11
1 -9 5 23.23 0.96
1 -9 4 0.53 0.27
1 -9 4 0.97 0.21
1 -9 4 0.9 0.25
1 -9 3 52.15 1.93
1 -9 3 50.32 1.63
1 -9 2 26.13 1.25
1 -9 2 23.92 0.91
1 -9 1 9.32 0.76
1 -9 1 6.94 0.77
1 -9 0 14.66 1.03
1 -9 0 9999 25.79
1 -9 -1 181.07 3.96
1 -9 -1 121.19 3.86
1 -9 -2 0.65 0.34
1 -9 -2 1.16 0.34
1 -9 -2 1.25 0.33
1 -9 -3 16.59 1.05
1 -9 -3 18.32 1.05
1 -9 -3 17.12 0.91
-1 9 4 13.48 0.7
1 -9 -4 13.3 0.71
1 -9 -4 15.38 0.99
1 -9 -5 58.94 1.89
1 -9 -5 60.03 2.04
1 -9 -6 6.25 0.5
1 -9 -6 7.13 0.53
1 -9 -6 6.97 0.6
1 -9 -7 2.01 0.27
1 -9 -7 2.32 0.26
1 -9 -7 2.15 0.3
1 -9 -8 75.38 1.68
1 -9 -8 74.38 1.75
1 -8 12 60.01 1.42
1 -8 11 72.05 1.74
1 -8 11 63.97 1.5
1 -8 10 31.25 1.14
1 -8 10 30.83 1.01
1 -8 10 29.64 1.14
1 -8 9 1.74 0.25
1 -8 9 1.87 0.32
1 -8 8 5.56 0.44
1 -8 8 3.39 0.5
1 -8 7 43.65 1.47
1 -8 7 39.8 1.3
1 -8 6 94.87 2.37
1 -8 6 76.5 2.57
1 -8 5 29.06 1.15
1 -8 5 25.49 1.17
-1 8 -5 26.63 1.16
1 -8 4 58.43 1.97
-1 8 -4 59 1.85
1 -8 4 59.28 1.93
1 -8 4 61.11 1.81
1 -8 4 60.36 3.66
1 -8 4 58.89 3.96
1 -8 3 14.8 0.93
1 -8 3 15.81 0.95
-1 8 -3 15.18 0.86
1 -8 3 14.9 0.79
1 -8 3 16.08 1.87
1 -8 3 13.22 1.83
1 -8 2 29.48 1.15
1 -8 2 35.42 1.47
-1 8 -2 31.9 1.29
1 -8 2 30.73 1.39
1 -8 2 33.4 2.88
1 -8 1 20.77 0.91
1 -8 1 26.01 1.27
-1 8 -1 24.11 1.11
1 -8 1 22.91 2.37
1 -8 1 24.44 1.24
1 -8 0 0.1 0.18
1 -8 0 0.39 0.21
1 -8 0 -0.08 0.29
1 -8 0 0.24 0.17
1 -8 -1 56.77 3.57
1 -8 -1 61.7 2.18
1 -8 -1 48.37 3.32
1 -8 -1 53.61 2.02
1 -8 -2 255.99 8.1
1 -8 -2 246.24 5.54
1 -8 -3 0.74 0.26
1 -8 -3 1.42 0.36
1 -8 -4 1.14 0.25
1 -8 -4 1.1 0.33
1 -8 -5 24.92 1.4
1 -8 -6 23.78 1.34
1 -8 -6 27.01 1.27
1 -8 -7 0.81 0.32
1 -8 -7 0.3 0.2
1 -8 -7 0.18 0.23
1 -8 -8 54.82 1.86
1 -8 -8 58.15 1.61
1 -8 -9 17.3 0.83
1 -8 -9 20.24 0.84
1 -7 13 14.62 0.57
1 -7 12 90.68 2.03
1 -7 12 93.03 2.15
1 -7 11 2.92 0.32
1 -7 11 2.51 0.34
1 -7 10 75.64 2.08
1 -7 10 69.92 1.9
1 -7 9 29.78 1.22
1 -7 9 29.54 1.14
1 -7 8 163.73 3.6
1 -7 8 168.22 3.45
1 -7 7 181.27 7.56
1 -7 7 182.75 4.18
1 -7 7 190.6 3.88
1 -7 6 98.04 2.67
1 -7 6 88.01 5.08
1 -7 6 102.78 2.55
-1 7 -6 97.94 4.62
1 -7 6 93.75 4.19
1 -7 6 94.76 4.96
1 -7 5 616.66 10.98
1 -7 5 593.61 15.55
1 -7 5 648.66 10.75
1 -7 5 627.23 10.8
-1 7 -5 606.54 10.82
1 -7 5 603.32 15.01
1 -7 4 26.19 1.22
1 -7 4 30.01 2.76
1 -7 4 31.97 1.17
-1 7 -4 27.42 1.18
1 -7 4 28.72 1.21
1 -7 4 29.22 2.52
1 -7 3 27.82 1.08
1 -7 3 28.27 1.21
-1 7 -3 26.89 1.15
1 -7 3 27.31 2.37
1 -7 3 29.2 2.58
1 -7 3 27.35 1.22
-1 7 -2 2.58 0.35
1 -7 2 2.87 0.39
1 -7 2 3.88 0.93
1 -7 2 3.27 0.41
-1 7 -1 121.84 3.02
1 -7 1 128.95 3.21
1 -7 1 122.03 5.32
1 -7 1 125.25 3.2
1 -7 0 105.54 2.84
1 -7 0 98.45 4.79
1 -7 0 102.91 2.78
1 -7 -1 1.58 0.33
1 -7 -1 1.53 0.63
-1 7 1 1.24 0.27
1 -7 -1 1.15 0.29
1 -7 -2 6.59 0.67
1 -7 -2 6.65 1.14
1 -7 -2 6.29 0.62
-1 7 2 5.57 0.55
1 -7 -3 273.17 5.95
1 -7 -3 283.18 8.29
1 -7 -3 268.62 5.71
-1 7 4 0.54 0.47
1 -7 -4 0.48 0.28
-1 7 4 0.48 0.23
-1 7 4 -0.1 0.59
-1 7 5 13.07 1.81
-1 7 5 18.91 2.4
1 -7 -5 16.16 1.17
1 -7 -5 15.83 1.1
-1 7 5 16.72 1.06
1 -7 -6 0.98 0.35
1 -7 -6 0.59 0.32
-1 7 6 0.68 0.3
1 -7 -6 0.44 0.25
1 -7 -7 92.43 3.03
1 -7 -7 98.26 2.88
-1 7 7 93.11 2.74
1 -7 -7 100.37 2.82
1 -7 -8 157.82 4.13
-1 7 8 156.31 3.72
1 -7 -9 21.13 1.15
1 -7 -9 20.07 0.89
-1 7 9 20.16 0.94
1 -7 -9 23.34 1.15
1 -7 -10 140.72 3.33
1 -7 -10 160.03 3.31
1 -7 -11 30.54 0.98
1 -6 13 0.31 0.12
1 -6 13 0.03 0.1
1 -6 12 39.91 1.32
1 -6 11 270.49 5.31
1 -6 11 267.91 5.21
1 -6 10 91.85 2.41
1 -6 10 94.39 2.38
1 -6 9 179.16 3.95
1 -6 9 185.18 3.89
1 -6 9 178.57 4.33
1 -6 8 260.48 5.52
1 -6 8 228.98 8.93
1 -6 8 272.1 5.3
1 -6 8 279.03 5.23
1 -6 8 231.96 8.73
1 -6 7 99.17 2.5
1 -6 7 90.62 5.11
1 -6 7 95.81 2.61
1 -6 7 92.14 4.92
-1 6 -6 5.68 0.52
1 -6 6 5.37 0.51
1 -6 6 7.12 1.33
1 -6 6 6.01 0.5
-1 6 -6 7.41 1.15
1 -6 6 6.87 1.27
1 -6 5 199.47 4.24
1 -6 5 187.21 7.08
1 -6 5 187.33 6.84
1 -6 4 1.99 0.3
1 -6 4 1.72 0.26
1 -6 4 0.86 0.2
-1 6 -4 1.92 0.28
1 -6 4 1.5 0.61
1 -6 4 0.81 0.43
1 -6 3 259.6 7.93
-1 6 -3 237.7 4.73
1 -6 3 251.86 4.8
1 -6 3 262.25 7.46
1 -6 3 231.1 4.78
1 -6 2 9.14 0.61
-1 6 -2 6.33 0.49
1 -6 2 5.88 0.98
1 -6 2 7 1.14
1 -6 2 6.72 0.53
1 -6 1 18.59 0.93
1 -6 1 20.09 1.84
1 -6 1 18.49 0.91
-1 6 -1 16.05 0.82
1 -6 0 174.2 3.73
1 -6 0 149.39 5.51
-1 6 0 143.71 3.41
1 -6 0 173.34 3.67
1 -6 -1 41.89 1.58
1 -6 -1 39.43 2.63
1 -6 -1 42.16 1.52
-1 6 1 37.27 1.41
1 -6 -2 57.64 3.13
1 -6 -2 52.32 1.91
1 -6 -2 62.33 2.06
-1 6 2 59.01 1.88
1 -6 -2 63.25 1.99
-1 6 2 67.69 3.99
1 -6 -3 9.98 1.29
1 -6 -3 11.24 0.82
1 -6 -3 11.86 0.87
-1 6 3 10.97 0.77
1 -6 -3 10.35 0.76
-1 6 3 10.75 1.72
1 -6 -4 83.12 2.66
1 -6 -4 79.36 2.51
1 -6 -4 74.65 3.8
1 -6 -5 21.71 1.23
1 -6 -5 23.12 1.36
-1 6 5 23.62 2.25
-1 6 5 20.54 2.53
-1 6 6 15.87 1.89
-1 6 6 17.09 2.32
1 -6 -6 18.08 1.11
1 -6 -6 17.96 1.25
1 -6 -6 17.11 1.1
-1 6 7 3.65 1.11
1 -6 -7 3.16 0.46
1 -6 -7 2.57 0.45
1 -6 -7 2.98 0.53
1 -6 -8 215.48 5.03
1 -6 -8 218.83 4.8
1 -6 -8 208.19 4.84
1 -6 -8 217.33 5.29
1 -6 -9 14.5 0.97
1 -6 -9 14.09 0.85
1 -6 -9 14.79 1.1
1 -6 -10 0.42 0.2
1 -6 -10 0.41 0.15
1 -6 -10 0.37 0.25
1 -6 -11 22.62 0.96
-1 6 11 20.17 0.85
1 -6 -11 21.19 1.03
1 -6 -12 56.22 1.47
1 -5 14 13.87 0.6
1 -5 13 117.3 2.58
1 -5 13 117.52 2.63
-1 5 -12 8.07 0.56
1 -5 12 8.72 0.6
1 -5 12 9.29 0.62
-1 5 -11 3.27 0.41
1 -5 11 2.88 0.39
1 -5 11 3.35 0.41
1 -5 10 172.76 3.86
1 -5 9 185.86 3.97
-1 5 -9 188.78 7.16
1 -5 9 176.31 4.17
1 -5 8 6.82 0.55
-1 5 -8 6.04 1.18
1 -5 8 6.37 0.59
1 -5 8 6.93 1.33
1 -5 7 2.64 0.34
1 -5 7 1.59 0.65
1 -5 7 2.62 0.36
-1 5 -6 21.29 0.98
1 -5 6 22.12 1
-1 5 -6 24.43 2.12
1 -5 6 22.52 0.94
1 -5 6 22.07 2.11
-1 5 -6 26.96 1.88
1 -5 5 297.31 5.54
1 -5 5 308.51 5.48
1 -5 5 306.25 8.58
-1 5 -5 327.78 8.5
-1 5 -5 280.1 5.5
1 -5 4 0.39 0.35
1 -5 4 0.21 0.26
-1 5 -4 -0.05 0.19
-1 5 -4 0.19 0.11
1 -5 3 16.47 1.51
1 -5 3 15.37 1.55
1 -5 2 204.6 5.97
1 -5 2 233.88 6.53
1 -5 1 347.96 8.17
1 -5 1 342.12 8.53
1 -5 0 200.67 5.79
1 -5 -1 34.79 2.16
-1 5 1 42.06 2.81
1 -5 -2 63.22 2.96
-1 5 2 54.94 3.43
1 -5 -3 49.16 1.7
1 -5 -3 53.86 1.82
1 -5 -3 52.17 2.66
1 -5 -4 92.32 2.59
1 -5 -4 96.62 2.7
1 -5 -4 86.08 3.77
-1 5 4 90.06 2.39
-1 5 5 30.63 2.88
-1 5 5 24.97 1.12
1 -5 -5 27.15 1.36
1 -5 -5 26.23 1.26
-1 5 5 28.98 2.31
-1 5 6 4.97 1.28
1 -5 -6 4.14 0.51
1 -5 -6 5.23 0.62
-1 5 6 4.1 0.93
1 -5 -6 4.39 0.54
1 -5 -7 44.1 1.95
1 -5 -7 39.46 1.69
-1 5 7 40.15 2.97
1 -5 -7 41.36 1.79
-1 5 8 31.21 2.95
1 -5 -8 37.82 1.84
-1 5 8 29.99 2.65
1 -5 -8 35.93 1.7
1 -5 -9 215.11 5.11
1 -5 -9 203.58 4.64
1 -5 -9 219.84 5.28
1 -5 -10 7.4 0.72
1 -5 -10 6.24 0.54
1 -5 -10 7.05 0.75
1 -5 -11 8.27 0.69
1 -5 -11 9.12 0.77
1 -5 -11 7.34 0.47
1 -5 -12 6.32 0.54
1 -5 -12 6.46 0.5
1 -5 -12 5.29 0.41
1 -5 -13 26.9 0.88
1 -4 14 6.3 0.44
1 -4 13 121.75 2.79
-1 4 -13 119.89 2.73
1 -4 12 40.11 1.43
1 -4 12 36.28 1.35
-1 4 -12 40.09 1.49
1 -4 11 39.04 1.49
1 -4 11 39.4 1.48
-1 4 -11 43.47 1.65
-1 4 -10 97.31 4.84
1 -4 10 103.53 2.66
1 -4 10 100.92 2.64
1 -4 9 63.93 2.14
-1 4 -9 73.5 4.06
1 -4 9 71.57 2.01
1 -4 9 70.3 4.26
1 -4 9 71.84 2.05
1 -4 8 174.56 3.87
1 -4 8 162.91 3.54
1 -4 8 163.85 6.42
1 -4 8 168.39 3.57
1 -4 7 30.94 1.13
-1 4 -7 36.58 2.54
1 -4 7 30.69 1.23
1 -4 7 34.04 2.54
1 -4 6 1.36 0.24
1 -4 6 1.79 0.24
1 -4 6 1.54 0.54
-1 4 -6 2.03 0.48
-1 4 -5 151.13 5.05
1 -4 5 156.59 5.13
-1 4 -4 34.19 2.06
1 -4 4 33.18 2.06
-1 4 -3 0.04 0.18
1 -4 3 -0.04 0.15
1 -4 2 72 3.03
1 -4 2 72.34 2.8
1 -4 1 102.94 3.49
1 -4 1 101.43 3.26
1 -4 0 14.28 1.16
1 -4 -1 31.63 1.73
-1 4 1 21.6 1.76
1 -4 -2 312.07 7.43
-1 4 2 388.58 9.19
1 -4 -3 285.63 6.85
1 -4 -4 88.26 3.42
-1 4 4 78.04 4.31
-1 4 5 329.25 6.07
-1 4 5 324.33 9.91
1 -4 -5 349.84 6.55
1 -4 -5 302.61 6.18
-1 4 5 353.52 8.83
1 -4 -6 100.85 2.77
1 -4 -6 107.26 2.98
-1 4 6 103.39 4.45
1 -4 -7 184.11 4.4
1 -4 -7 192.23 4.64
1 -4 -8 59.35 2.21
-1 4 8 69.42 4.27
1 -4 -8 58.65 2.3
-1 4 8 66.1 3.83
1 -4 -9 91.77 3.08
1 -4 -9 96.51 3
1 -4 -10 1.18 0.38
1 -4 -10 0.63 0.28
1 -4 -11 4.26 0.59
1 -4 -11 3.9 0.41
1 -4 -11 4.37 0.56
1 -4 -12 23.29 1.18
1 -4 -12 24.53 1.19
1 -4 -13 1.62 0.27
1 -4 -13 1.15 0.22
1 -3 14 49.41 1.44
-1 3 -14 48.24 1.38
1 -3 13 1.3 0.27
-1 3 -13 1.32 0.28
1 -3 12 64.96 1.91
-1 3 -12 64.74 2.07
-1 3 -11 16.56 1.02
1 -3 11 16.86 0.89
-1 3 -10 115.95 5.02
1 -3 10 92.07 5.03
1 -3 10 100.39 2.7
-1 3 -10 123.61 3.15
1 -3 10 104.32 2.66
-1 3 -9 2.48 0.72
1 -3 9 1.47 0.26
1 -3 9 2.14 0.74
1 -3 9 1.5 0.28
1 -3 8 3.23 0.41
-1 3 -8 3.7 0.8
1 -3 8 3.11 0.81
1 -3 8 4.37 0.41
1 -3 7 41.74 1.44
-1 3 -7 51.74 2.84
1 -3 7 41.38 1.28
1 -3 7 47.85 2.85
1 -3 7 45.94 1.33
1 -3 6 323.53 8.14
-1 3 -6 293.3 6.38
1 -3 5 37.68 2.13
-1 3 -5 39.29 1.72
-1 3 -4 306.71 6.95
1 -3 4 276.92 6.7
-1 3 -3 305.92 6.65
1 -3 3 277.09 6.35
-1 3 -2 394.49 7.91
1 -3 2 381.89 7.69
1 -3 1 1102.67 18.35
1 -3 1 1028.83 17.84
1 -3 0 1996.46 32.94
1 -3 0 2053.15 32.55
-1 3 1 1303.34 23.71
1 -3 -1 1418.25 22.85
-1 3 2 1379.03 23.76
1 -3 -2 1296.65 22.14
1 -3 -3 65.79 2.43
-1 3 4 480.82 8.96
-1 3 4 475.86 9.99
-1 3 5 388.07 8.55
-1 3 5 262.81 8.65
-1 3 6 1.12 0.25
-1 3 6 0.8 0.44
-1 3 6 0.83 0.21
1 -3 -6 1.44 0.27
-1 3 7 30.68 2.69
-1 3 7 36.02 1.48
-1 3 7 34.31 2.51
-1 3 7 32.23 1.38
1 -3 -8 242.14 6.25
1 -3 -8 226.02 5.06
-1 3 8 219.99 7.86
-1 3 8 223.77 5.03
-1 3 8 222.12 4.94
-1 3 8 217.79 7.38
-1 3 9 4.62 1
-1 3 9 4.77 0.59
1 -3 -9 4.19 0.56
-1 3 9 3.84 0.52
1 -3 -9 4.76 0.63
1 -3 -10 4.11 0.6
1 -3 -10 4.69 0.6
1 -3 -11 15 1.09
1 -3 -11 13.82 1.02
1 -3 -12 77.4 2.52
1 -3 -12 71.52 2.38
1 -3 -13 6.06 0.56
1 -3 -13 6.94 0.59
1 -3 -14 0.31 0.12
1 -2 14 2.14 0.28
-1 2 -14 1.78 0.27
1 -2 13 43.08 1.49
-1 2 -13 42.5 1.58
-1 2 -12 25.67 1.21
1 -2 12 27.76 1.22
-1 2 -12 29.75 1.41
1 -2 11 5.1 0.52
-1 2 -11 7.24 0.7
1 -2 10 11.15 1.64
1 -2 10 13.62 0.83
-1 2 -9 398.1 9.9
1 -2 9 357.77 10.4
1 -2 9 375.17 6.9
-1 2 -9 400.01 7.52
1 -2 9 381.2 7.03
1 -2 8 0.72 0.17
1 -2 8 0.35 0.14
-1 2 -8 0.3 0.29
-1 2 -7 60.66 2.86
1 -2 7 53.73 1.44
-1 2 -6 1667.8 28.59
-1 2 -5 370.45 7.43
-1 2 -5 291.04 5.95
-1 2 -4 1540.79 24.18
-1 2 -4 1352.94 23.45
-1 2 -3 36.74 1.46
-1 2 -2 433.26 7.72
1 -2 2 381.09 7.31
1 -2 1 4895.99 75.72
1 -2 0 40.08 1.39
1 -2 0 48.33 1.3
1 -2 -1 5252.9 80.27
-1 2 1 5077.92 80.95
1 -2 -2 3377.49 51.96
-1 2 2 3256.97 52.19
-1 2 3 1160.08 18.12
-1 2 3 1051.66 17.12
-1 2 4 35.69 1.85
-1 2 4 34.25 1.99
-1 2 4 33.37 1.35
-1 2 5 512.71 10.78
-1 2 5 512.06 10.32
-1 2 6 135.5 4.67
-1 2 6 133.84 4.85
-1 2 7 1.05 0.24
-1 2 7 1.55 0.63
1 -2 -7 2.22 0.34
-1 2 7 1.23 0.49
-1 2 7 1.34 0.27
-1 2 8 66.66 2.11
-1 2 8 62.87 3.55
1 -2 -8 68.02 2.16
-1 2 8 63.4 3.47
-1 2 8 62.43 2.05
1 -2 -9 129.37 3.5
-1 2 9 134.2 3.5
-1 2 9 128.54 5.31
-1 2 9 135.07 3.48
-1 2 10 7.95 0.74
-1 2 10 8.09 0.74
1 -2 -10 6.58 0.69
-1 2 11 14.9 1.02
1 -2 -11 14.97 1.06
-1 2 11 14.42 1.01
1 -2 -11 16.33 1.18
1 -2 -12 16.05 1.06
1 -2 -12 16.72 1.11
1 -2 -13 108.63 2.94
1 -2 -13 112.61 3.02
1 -2 -14 0.78 0.2
-1 2 14 0.64 0.18
1 -1 14 5.27 0.41
-1 1 -14 5.35 0.46
-1 1 -13 10.49 0.79
1 -1 13 9.71 0.67
-1 1 -13 8.78 0.62
-1 1 -13 9.92 0.67
-1 1 -12 15.36 1.03
-1 1 -12 15.38 0.96
-1 1 -12 12.62 0.84
-1 1 -11 6.11 0.67
-1 1 -11 5.6 0.59
-1 1 -10 0.38 0.22
-1 1 -10 0.36 0.2
1 -1 10 0.44 0.18
-1 1 -9 39.93 1.64
1 -1 9 40.73 2.59
1 -1 9 36.94 1.35
-1 1 -9 36.22 2.3
-1 1 -9 35.88 1.29
-1 1 -8 166.27 3.7
1 -1 8 143.54 3.18
-1 1 -8 141.31 3.13
-1 1 -8 174.48 5.12
-1 1 -7 104.26 2.51
-1 1 -7 97.71 3.44
-1 1 -6 92.3 3.1
1 -1 5 197.2 3.89
-1 1 -5 219.43 4.5
1 -1 4 373.26 6.95
-1 1 -4 366.22 6.91
-1 1 -4 385.37 6.72
-1 1 -3 206.9 3.84
-1 1 -3 210.33 4.21
-1 1 -3 203.59 4.03
-1 1 -2 426.72 7.01
-1 1 -2 463.36 7.59
-1 1 -1 350.35 6.57
-1 1 -1 378.7 6.58
-1 1 0 754.61 12.56
-1 1 1 986.39 15.57
1 -1 -1 977.1 14.96
-1 1 1 996.99 15.59
-1 1 1 943.94 15.6
-1 1 2 5.37 0.52
-1 1 2 5.94 0.48
-1 1 2 5.96 0.43
-1 1 3 942.59 15.61
-1 1 3 920.04 14.72
-1 1 3 936.23 14.53
-1 1 4 51.58 2.17
-1 1 4 50.18 1.35
-1 1 5 212.07 5.09
-1 1 5 261.9 5.05
-1 1 6 53.86 2.66
-1 1 6 52.63 2.38
-1 1 7 236.42 6.12
-1 1 7 206.01 4.28
1 -1 -7 241.8 5.92
-1 1 7 229.98 6.55
-1 1 7 201.25 4.27
-1 1 8 126.76 3.08
-1 1 8 128.31 3.03
-1 1 8 122.69 4.84
-1 1 8 123.83 3.12
-1 1 9 72.77 2.26
-1 1 9 67.52 2.08
1 -1 -9 82.06 2.48
1 -1 -9 83.03 3.59
-1 1 9 73.66 3.85
-1 1 9 68.68 2.24
1 -1 -10 110.36 4.45
1 -1 -10 119.66 3.29
-1 1 10 115.48 3.15
-1 1 10 107.39 3.05
1 -1 -11 16.82 1.11
-1 1 11 15.81 1.05
-1 1 11 16.22 1.04
1 -1 -12 6.95 0.71
-1 1 12 6.99 0.68
-1 1 12 7.18 0.66
-1 1 13 0.12 0.17
1 -1 -13 0.14 0.18
1 -1 -14 254.19 5.05
-1 0 -14 131.1 2.99
-1 0 -13 11.84 0.84
1 0 13 11.17 0.69
-1 0 -13 10.97 0.71
-1 0 -13 9.34 0.65
-1 0 -12 55.16 2.07
-1 0 -12 51.98 1.8
-1 0 -11 57.29 2.2
-1 0 -11 61.75 2.17
-1 0 -11 59.35 2.04
-1 0 -10 75.46 2.59
1 0 10 68.76 2.11
-1 0 -10 75 2.35
-1 0 -10 65.38 2.07
-1 0 -9 2.91 0.37
1 0 9 3.05 0.81
-1 0 -9 3.98 0.53
-1 0 -9 2.9 0.42
1 0 9 2.14 0.31
-1 0 -8 1.84 0.35
-1 0 -8 0.89 0.33
-1 0 -8 1.15 0.23
1 0 8 0.99 0.5
1 0 8 1.13 0.22
1 0 7 129.4 4.7
1 0 7 123.83 2.75
-1 0 -7 129.99 2.84
-1 0 -6 255.22 5.7
1 0 5 1.53 0.3
-1 0 -5 1.64 0.3
1 0 4 205.84 4.35
-1 0 -4 206.45 4.02
1 0 3 2192.42 34.63
-1 0 -3 2261.84 34.66
-1 0 -3 2271.86 34.66
-1 0 -3 2206.29 34.96
-1 0 -3 2250.49 34.87
1 0 2 556.06 9.15
-1 0 -2 565.12 9.21
-1 0 -2 571.06 9.59
-1 0 -2 598.48 9.84
-1 0 -2 572.9 9.71
-1 0 -2 609.9 9.97
1 0 1 1030.03 16.03
-1 0 -1 1100.26 16.6
1 0 1 1010.19 15.95
-1 0 -1 960.15 16.81
-1 0 -1 1065.9 16.71
1 0 0 53 1.2
1 0 0 56.11 1.35
1 0 0 57.84 1.36
-1 0 0 55.91 1.17
-1 0 0 57.34 1.6
-1 0 1 35.04 1.16
-1 0 1 35.45 1.12
-1 0 1 34 1.22
-1 0 1 36.31 1.3
-1 0 1 36.29 1.2
-1 0 2 571.08 10.04
-1 0 2 564.19 9.53
-1 0 2 569.6 9.86
-1 0 2 570.07 9.76
-1 0 3 1118.89 17.91
-1 0 3 1086.58 18.88
-1 0 3 1176.38 17.43
-1 0 3 1162.37 18.1
-1 0 3 1083.65 18.13
-1 0 4 1418.46 22.04
-1 0 4 1414.74 23.66
-1 0 4 1339.84 22.27
-1 0 4 1431.42 22.22
-1 0 4 1387.07 22.29
-1 0 5 369.38 6.83
1 0 -5 381.09 7.59
-1 0 6 90.91 3.5
-1 0 6 102.73 2.81
-1 0 7 27.01 1.05
-1 0 7 24.24 0.98
-1 0 7 29.18 2.03
-1 0 7 26.56 1.02
1 0 -8 544.57 11.17
-1 0 8 498.75 8.89
-1 0 8 495.57 8.81
-1 0 8 536.11 11.84
-1 0 8 479.47 8.84
1 0 -9 4.9 0.88
-1 0 9 4.53 0.5
-1 0 9 4.56 0.48
-1 0 9 4.49 0.93
-1 0 9 4.64 0.5
1 0 -10 0.29 0.3
-1 0 10 0.18 0.16
1 0 -10 0.22 0.21
-1 0 10 0.5 0.24
-1 0 10 0.08 0.29
-1 0 10 0.12 0.19
-1 0 11 494.67 9.23
-1 0 11 489.2 9.41
1 0 -11 516.87 9.61
-1 0 12 8.02 0.69
-1 0 12 7.78 0.72
1 0 -12 8.36 0.77
-1 0 13 63.75 1.98
1 0 -13 65.5 2.18
1 0 -14 4.08 0.45
-1 0 14 3.48 0.4
1 0 -14 4.4 0.46
1 0 -15 222.94 3.75
-1 0 15 167.28 3.57
-1 -1 -14 54.55 1.6
-1 -1 -13 401.89 6.85
-1 -1 -13 340.01 6.68
-1 -1 -12 70.52 2.2
-1 -1 -12 70.53 2.28
-1 -1 -11 271.98 5.87
-1 -1 -11 293.07 6.18
1 1 11 277.32 5.66
-1 -1 -11 283.11 5.72
1 1 10 27.9 2.5
-1 -1 -10 22.16 1.22
-1 -1 -10 26.32 1.4
1 1 10 19.25 1.13
-1 -1 -10 25.27 1.2
1 1 9 118.86 5.24
-1 -1 -9 127.99 3.41
-1 -1 -9 119.47 3.15
1 1 9 105.33 2.81
-1 -1 -9 110.66 2.9
-1 -1 -8 35.45 1.47
-1 -1 -8 32.84 1.3
-1 -1 -7 46.32 1.59
1 1 7 44.71 2.78
-1 -1 -7 41.2 1.4
1 1 6 484.74 10.42
-1 -1 -6 402.59 7.92
-1 -1 -5 70.85 1.8
-1 -1 -5 73.3 2
-1 -1 -4 0.24 0.14
-1 -1 -4 0.18 0.13
-1 -1 -4 0.22 0.1
-1 -1 -3 6.21 0.56
-1 -1 -3 5.86 0.3
-1 -1 -2 1321.73 21.88
-1 -1 -2 1353.6 21.94
-1 -1 -1 95.66 2.64
-1 -1 -1 104.69 2.46
1 1 0 15.3 0.79
-1 -1 0 13.75 0.82
-1 -1 0 13.79 0.83
1 1 -1 1960.29 30.55
-1 -1 1 1953.59 31.18
-1 -1 1 2008.17 30.85
1 1 -1 1896.8 30.53
1 1 -2 252.9 4.71
-1 -1 2 270.77 5.12
-1 -1 2 259.27 5.27
1 1 -3 6.83 0.58
-1 -1 3 5.91 0.54
-1 -1 3 7.69 0.63
-1 -1 3 6.77 0.69
1 1 -4 140.53 3.55
-1 -1 4 135.21 3.19
-1 -1 4 126.47 3.19
-1 -1 4 131.19 3.87
1 1 -5 1398.9 22.75
-1 -1 5 1322.27 21.4
-1 -1 6 42.9 2.34
1 1 -6 42.03 2.11
-1 -1 7 79.07 1.96
-1 -1 7 62.52 1.87
-1 -1 7 68.83 1.87
-1 -1 7 70.21 1.84
-1 -1 7 83.19 3.57
1 1 -7 84.65 3.32
-1 -1 8 3.39 0.38
-1 -1 8 3.73 0.82
-1 -1 8 3.71 0.39
-1 -1 9 788.38 13.38
-1 -1 9 817.27 13.6
-1 -1 9 802.52 13.58
-1 -1 9 808.7 17
-1 -1 10 320.66 6.35
-1 -1 10 315.74 6.36
-1 -1 10 310.73 10.02
-1 -1 10 317.09 6.39
-1 -1 11 4.01 0.51
-1 -1 11 4.45 0.55
-1 -1 11 4.08 0.51
-1 -1 12 320.91 6.45
-1 -1 12 335.25 6.72
1 1 -12 334.59 6.82
-1 -1 13 14.53 0.83
-1 -1 13 15.24 0.93
1 1 -13 15.28 0.96
-1 -1 14 58.11 1.75
1 1 -14 56.13 1.77
-1 -1 15 16.71 0.7
1 1 -15 17.2 0.68
-1 -2 -13 56.97 1.85
-1 -2 -13 53.41 1.53
-1 -2 -12 15.77 1.07
-1 -2 -12 14.87 0.91
-1 -2 -11 0.27 0.22
-1 -2 -11 0.59 0.26
-1 -2 -11 0.38 0.17
-1 -2 -11 0.66 0.3
-1 -2 -10 7.47 0.68
-1 -2 -10 7.46 0.77
-1 -2 -10 8.43 0.76
1 2 10 7.84 1.46
-1 -2 -10 8.3 0.71
-1 -2 -10 7.2 0.8
-1 -2 -9 51.32 1.87
-1 -2 -9 52.04 2.09
-1 -2 -9 51.43 1.96
1 2 9 47.85 3.49
-1 -2 -9 50.25 2.13
-1 -2 -8 440.2 8.19
-1 -2 -8 429.41 8.55
-1 -2 -8 448.86 8.39
-1 -2 -7 171.08 3.88
-1 -2 -7 185.86 4.27
-1 -2 -7 178.9 4.09
-1 -2 -7 181.65 4.34
-1 -2 -6 183.38 4.17
-1 -2 -6 171.26 3.94
-1 -2 -6 181.22 3.85
1 2 5 3.54 0.57
-1 -2 -5 3.22 0.45
1 2 5 3.65 0.81
-1 -2 -4 132.95 3.51
-1 -2 -4 135.82 3.56
-1 -2 -3 64.1 1.17
-1 -2 -3 49.09 1.14
-1 -2 -3 84.76 2.8
-1 -2 -3 108.29 2.87
-1 -2 -3 105.16 2.8
1 2 3 115.76 3.58
-1 -2 -2 86.67 2.6
-1 -2 -2 83.62 2.52
-1 -2 -1 1.83 0.18
-1 -2 -1 2.56 0.5
1 2 0 296.65 5.49
-1 -2 0 305.69 6.5
-1 -2 0 321.2 6.58
1 2 0 318.71 6.43
1 2 -1 4.66 0.43
-1 -2 1 4.38 0.57
-1 -2 1 5.51 0.64
1 2 -1 5.18 0.55
-1 -2 2 24.88 1.44
1 2 -2 24.18 1.15
-1 -2 2 22.49 1.26
1 2 -2 26.45 1.13
-1 -2 3 1233.68 20.01
-1 -2 3 1186.96 20.07
-1 -2 3 1230.82 20.66
-1 -2 4 417.13 8.38
-1 -2 4 397.18 8.25
-1 -2 4 421.08 9.14
-1 -2 5 5.52 0.62
-1 -2 5 5.91 0.66
1 2 -5 6.26 0.77
-1 -2 5 6.26 0.88
-1 -2 6 912.76 15.91
-1 -2 6 954.74 18.27
1 2 -6 971.05 17.61
-1 -2 7 94.65 2.35
-1 -2 7 95.67 2.32
1 2 -7 99.48 3.92
-1 -2 7 91.7 2.22
1 2 -8 1.64 0.53
-1 -2 8 1.46 0.27
-1 -2 8 1.56 0.26
-1 -2 8 1.86 0.29
-1 -2 9 1.91 0.32
-1 -2 9 2.15 0.35
-1 -2 9 2.76 0.37
-1 -2 9 2.29 0.36
-1 -2 10 6.07 0.59
-1 -2 10 5.96 0.59
-1 -2 10 6.08 0.54
1 2 -10 6.4 1.13
-1 -2 11 168.12 3.98
-1 -2 11 173.56 4.05
-1 -2 12 13.35 0.85
1 2 -12 14.53 0.99
-1 -2 12 14 0.9
-1 -2 13 8.25 0.61
1 2 -13 9.46 0.74
1 2 -14 55.45 1.73
-1 -2 14 58.16 1.75
-1 -3 -13 0.33 0.15
-1 -3 -12 1.77 0.3
-1 -3 -12 2.76 0.37
-1 -3 -12 2.42 0.41
-1 -3 -11 22.55 1.24
-1 -3 -11 19.52 1.12
-1 -3 -11 22.71 1.36
-1 -3 -11 21.52 1.03
-1 -3 -10 123.3 3.56
-1 -3 -10 125.55 3.5
-1 -3 -10 123.77 3.75
-1 -3 -10 132.81 3.4
-1 -3 -9 1.18 0.33
-1 -3 -9 0.71 0.3
1 3 9 0.1 0.44
-1 -3 -9 0.83 0.29
-1 -3 -9 0.64 0.31
-1 -3 -8 47.37 1.84
-1 -3 -8 49.63 1.95
-1 -3 -8 50.44 2.1
-1 -3 -8 50.14 2.15
-1 -3 -7 42.47 1.67
-1 -3 -7 47.91 1.96
-1 -3 -7 46.52 1.82
1 3 7 47.14 3.51
-1 -3 -7 47.21 1.99
-1 -3 -6 14.41 1
-1 -3 -6 15.97 1.03
-1 -3 -6 15.23 0.94
-1 -3 -5 133.82 3.26
-1 -3 -5 146.85 3.58
-1 -3 -5 139.07 3.38
-1 -3 -5 162.47 3.7
-1 -3 -5 143.05 3.09
-1 -3 -5 155.33 4.32
1 3 5 176.81 6.14
-1 -3 -4 20.15 1.42
1 3 4 20.37 1.9
-1 -3 -3 802.89 15.38
-1 -3 -3 835.4 15.27
1 3 3 844.86 16.48
-1 -3 -2 62.95 2.62
1 3 2 67.61 3.04
-1 -3 -1 323.47 7.47
1 3 1 358.91 8.11
-1 -3 0 63.94 2.6
1 3 0 69.63 2.82
-1 -3 1 399.09 8.61
-1 -3 1 390.65 8.33
1 3 -1 420.04 8.74
-1 -3 2 523.49 10.13
1 3 -2 441.79 9.17
-1 -3 2 467.69 10.28
-1 -3 2 478.87 9.99
1 3 -2 523.36 9.6
-1 -3 3 34.23 1.88
-1 -3 3 37.7 2.01
1 3 -3 31.33 1.64
-1 -3 3 38.09 2.19
-1 -3 4 81.92 3.04
1 3 -4 78.06 2.93
-1 -3 4 86.39 3.64
-1 -3 5 1.36 0.39
-1 -3 5 1.31 0.39
-1 -3 5 1.2 0.46
1 3 -5 1.75 0.46
-1 -3 6 120.74 2.72
-1 -3 6 121.79 5.06
1 3 -6 127.66 4.51
-1 -3 7 258.57 5.14
-1 -3 7 255.35 5.07
1 3 -7 268.56 7.49
-1 -3 7 257.28 8.21
-1 -3 7 270.95 4.97
-1 -3 8 32.46 1.32
1 3 -8 35.14 2.51
-1 -3 8 35.89 1.36
-1 -3 8 34.01 2.83
-1 -3 8 33.94 1.26
-1 -3 9 47.3 1.7
-1 -3 9 49.49 1.81
1 3 -9 46.97 3.09
-1 -3 9 45.02 1.68
-1 -3 9 46.7 3.52
-1 -3 9 48.66 1.64
-1 -3 10 0.69 0.28
-1 -3 10 1.11 0.28
-1 -3 10 0.86 0.24
-1 -3 10 1.24 0.3
-1 -3 10 0.93 0.25
-1 -3 11 4.15 0.5
-1 -3 11 5.08 0.53
-1 -3 11 4.2 0.51
-1 -3 12 30.29 1.28
-1 -3 12 32.57 1.38
-1 -3 12 29.96 1.34
-1 -3 13 11.61 0.69
-1 -3 13 12.94 0.78
-1 -3 13 12.61 0.8
-1 -3 13 11.68 0.73
-1 -3 14 31.35 1.07
-1 -3 14 18.89 0.82
-1 -4 -12 0.5 0.16
-1 -4 -12 0.56 0.17
-1 -4 -12 0.72 0.22
-1 -4 -11 21 1.06
-1 -4 -11 18.42 1.02
-1 -4 -11 19.07 1.14
-1 -4 -11 18.85 0.92
-1 -4 -10 37.29 1.69
-1 -4 -10 35.57 1.6
-1 -4 -10 37.76 1.8
-1 -4 -10 39.26 1.59
-1 -4 -9 101.54 3.39
-1 -4 -9 103.73 3.28
-1 -4 -9 109.07 3.24
1 4 9 98.52 6.01
-1 -4 -8 0.87 0.33
-1 -4 -8 0.72 0.3
1 4 8 0.81 0.8
-1 -4 -8 0.51 0.31
-1 -4 -8 1.2 0.36
-1 -4 -7 201.93 5.07
-1 -4 -7 195.51 4.74
-1 -4 -6 23.02 1.28
-1 -4 -6 24.86 1.08
-1 -4 -6 24.61 1.39
-1 -4 -6 24.15 1.42
-1 -4 -5 6.23 0.68
1 4 5 6.04 1.31
-1 -4 -5 7.42 0.96
-1 -4 -5 5.46 0.59
-1 -4 -5 6.43 0.67
-1 -4 -5 5.44 0.49
-1 -4 -5 4.78 0.46
1 4 4 0.37 0.43
-1 -4 -4 0.31 0.27
-1 -4 -4 0.16 0.17
-1 -4 -4 0.34 0.2
-1 -4 -4 0.26 0.18
-1 -4 -4 0.51 0.17
1 4 3 185.52 6.64
-1 -4 -3 192.41 5.61
-1 -4 -3 195.5 5.75
-1 -4 -3 187.18 4.18
-1 -4 -3 182.64 4
-1 -4 -3 164.66 3.59
-1 -4 -3 160.05 5.46
-1 -4 -2 660.44 13.45
1 4 2 650.29 14.62
-1 -4 -1 103.1 3.91
1 4 1 115.95 4.67
-1 -4 0 137.24 4.65
1 4 0 146.43 5.33
1 4 -1 207.86 6.27
-1 -4 1 227.2 6.49
-1 -4 1 209.93 6.06
1 4 -2 4.49 0.71
-1 -4 2 3.23 0.69
-1 -4 2 3.48 0.68
-1 -4 2 3.66 0.71
1 4 -2 3.62 0.58
-1 -4 3 178.56 5.85
1 4 -3 180.12 5.09
-1 -4 3 183.07 5.7
-1 -4 4 101.03 2.37
1 4 -4 93.94 3.64
-1 -4 4 93.01 3.96
-1 -4 4 97.52 4.32
-1 -4 4 103.34 3.88
-1 -4 5 45.54 1.46
-1 -4 5 45.58 2.79
1 4 -5 43.04 2.53
-1 -4 5 45.37 1.35
-1 -4 5 47.37 3.06
-1 -4 5 50.21 2.68
-1 -4 5 46.3 2.48
-1 -4 6 186.88 3.67
-1 -4 6 182.79 3.95
-1 -4 6 199.7 6.66
1 4 -6 190.37 6.14
-1 -4 6 195.08 3.89
-1 -4 6 185.78 6.94
-1 -4 6 200.92 5.73
-1 -4 7 4.58 0.47
1 4 -7 5.06 0.96
-1 -4 7 5.2 0.48
-1 -4 7 4.44 1.06
-1 -4 7 6.26 0.46
-1 -4 8 205.69 4.52
-1 -4 8 204.63 4.49
1 4 -8 215.52 7.28
-1 -4 8 206.28 8.06
-1 -4 8 208.38 4.24
-1 -4 9 5.54 0.56
-1 -4 9 5.31 0.57
1 4 -9 4.2 1
-1 -4 9 6.04 0.58
-1 -4 9 4.35 1.16
-1 -4 9 5.03 0.48
-1 -4 10 53.84 1.89
-1 -4 10 55.71 1.79
-1 -4 10 53.06 1.88
-1 -4 11 3.55 0.42
-1 -4 11 4.06 0.48
-1 -4 11 4.01 0.48
-1 -4 11 3.5 0.42
-1 -4 11 3.76 0.46
-1 -4 12 0.55 0.22
-1 -4 12 0.31 0.17
-1 -4 12 0.41 0.19
-1 -4 12 0.52 0.23
-1 -4 13 63.9 1.84
1 4 -13 66.8 1.91
-1 -4 13 67.25 1.83
1 4 -14 9.46 0.53
-1 -4 14 10.61 0.52
-1 -5 -12 30.09 0.97
-1 -5 -11 25.39 1.02
-1 -5 -11 26.42 1.05
-1 -5 -11 25.86 0.98
-1 -5 -11 26.04 1.16
-1 -5 -10 21.29 1.13
-1 -5 -10 20.87 1.09
-1 -5 -10 22.83 1.11
-1 -5 -10 21.94 1.22
-1 -5 -9 124.19 3.57
-1 -5 -9 122.18 3.34
-1 -5 -9 114.83 3.35
-1 -5 -8 109.92 3.44
-1 -5 -8 109.27 3.38
-1 -5 -8 111.23 3.27
-1 -5 -7 1.87 0.45
-1 -5 -7 2.09 0.45
-1 -5 -7 1.91 0.45
-1 -5 -7 2.05 0.45
1 5 6 272.86 10.79
-1 -5 -6 256.88 6.13
-1 -5 -6 269.42 5.93
-1 -5 -6 273.05 5.4
1 5 5 36.77 3.54
-1 -5 -5 41.6 1.91
-1 -5 -5 38.79 1.74
-1 -5 -5 40.85 1.54
-1 -5 -5 35.47 1.45
-1 -5 -4 318.23 6.77
1 5 4 328.53 11.19
-1 -5 -4 351.11 7.08
-1 -5 -4 323.59 6.17
-1 -5 -4 332.81 8.9
-1 -5 -4 345.54 6.84
-1 -5 -4 320.89 6.29
-1 -5 -4 312.58 6.32
-1 -5 -3 2.2 0.67
1 5 3 2.57 0.95
-1 -5 -3 4.41 0.56
-1 -5 -3 2.25 0.65
-1 -5 -3 2.76 0.36
-1 -5 -3 2.48 0.7
-1 -5 -3 2.89 0.43
-1 -5 -3 3.17 0.49
-1 -5 -3 3.29 0.46
-1 -5 -3 2.76 0.39
-1 -5 -3 2.8 0.37
-1 -5 -2 119.66 3.28
1 5 2 75.42 4.73
-1 -5 -2 93.06 2.78
-1 -5 -2 93.54 4.14
-1 -5 -2 93.12 2.52
-1 -5 -2 101.51 4.48
-1 -5 -2 106.08 2.76
-1 -5 -2 88.17 2.39
-1 -5 -2 99.37 2.84
-1 -5 -2 90.59 2.49
-1 -5 -1 981.15 15.67
-1 -5 -1 815.45 15.23
-1 -5 -1 963.85 15.7
-1 -5 -1 871.9 15.08
-1 -5 -1 903.46 15.41
-1 -5 -1 941.68 15.32
-1 -5 -1 974.98 18.59
-1 -5 -1 976.23 15.31
-1 -5 0 74.71 3.64
1 5 0 70.56 3.97
-1 -5 0 70.64 2.2
-1 -5 0 70.18 2.09
-1 -5 0 72.09 2.03
1 5 -1 27.96 2.17
-1 -5 1 23.23 1.94
-1 -5 1 28.25 1.24
-1 -5 1 25.38 2.05
-1 -5 2 122.18 2.83
-1 -5 2 112.38 2.85
-1 -5 2 112.47 4.85
-1 -5 2 122.67 4.77
-1 -5 2 116.56 4.71
-1 -5 3 197.57 4.21
1 5 -3 189.98 5.77
-1 -5 3 200.45 6.87
-1 -5 3 199.84 6.61
-1 -5 3 206.02 4.19
-1 -5 4 16.31 0.86
-1 -5 4 15.39 0.85
1 5 -4 12.98 1.39
-1 -5 4 13.51 1.61
-1 -5 4 14.17 0.68
-1 -5 4 15.16 1.79
-1 -5 4 17.27 1.7
-1 -5 4 15.9 0.88
-1 -5 5 56.32 3.25
-1 -5 5 54.7 1.76
-1 -5 5 51.96 3
-1 -5 5 48.3 1.68
1 5 -5 46.7 2.87
-1 -5 5 51.2 3.28
-1 -5 5 51.1 1.56
-1 -5 5 50.14 3.46
-1 -5 5 53.62 1.73
-1 -5 6 78.06 2.25
-1 -5 6 87.21 2.38
-1 -5 6 74.49 4.16
1 5 -6 71.08 3.82
-1 -5 6 83.32 2.19
-1 -5 6 79.55 4.56
-1 -5 6 86.78 3.86
-1 -5 7 146.24 3.63
-1 -5 7 138.09 6.15
1 5 -7 153.56 6.05
-1 -5 7 165.56 3.61
-1 -5 7 162.36 6.94
-1 -5 7 160.93 3.32
-1 -5 8 138.43 3.43
-1 -5 8 136.84 3.44
1 5 -8 133.98 5.8
-1 -5 8 124.86 5.96
-1 -5 8 152.82 3.46
-1 -5 8 119.73 6.17
-1 -5 8 135.57 3.07
-1 -5 9 77.87 2.42
-1 -5 9 82.19 2.17
-1 -5 9 76.69 2.36
-1 -5 10 81.06 2.36
-1 -5 10 85.13 2.23
-1 -5 11 222.21 4.59
-1 -5 11 213.9 4.51
-1 -5 11 221.82 4.66
-1 -5 12 17.86 0.92
-1 -5 12 16.75 0.81
-1 -5 12 16.74 0.84
-1 -5 13 89.26 2.18
1 5 -13 88.25 2.17
-1 -5 13 88.14 2.01
-1 -5 13 92.92 2.03
-1 -6 -10 10.79 0.65
-1 -6 -10 10.96 0.66
-1 -6 -10 12.09 0.67
-1 -6 -10 11.46 0.72
-1 -6 -9 35.6 1.44
-1 -6 -9 36.1 1.49
-1 -6 -9 33.84 1.42
-1 -6 -9 36.06 1.55
-1 -6 -8 1.22 0.36
-1 -6 -8 1.29 0.34
-1 -6 -8 1.65 0.38
-1 -6 -8 1.82 0.39
-1 -6 -7 518.85 10.02
-1 -6 -7 493.26 10.23
1 6 6 63.65 4.88
-1 -6 -6 63.41 2.33
-1 -6 -6 56.38 2.35
-1 -6 -6 57.92 2.26
-1 -6 -6 54.68 1.78
-1 -6 -5 328.62 7.21
-1 -6 -5 332.9 6.99
-1 -6 -5 309.51 6.34
-1 -6 -4 167.01 4.34
1 6 4 134.55 7.39
-1 -6 -4 176.45 4.57
-1 -6 -4 176.5 3.86
-1 -6 -4 173.46 6.26
-1 -6 -4 197.37 4.55
-1 -6 -4 160.72 4.41
-1 -6 -4 172.07 4.38
-1 -6 -4 162.08 3.91
-1 -6 -3 35.26 1.84
1 6 3 39.29 3.71
-1 -6 -3 49.19 2.05
-1 -6 -3 53.04 1.99
-1 -6 -3 45.12 1.72
-1 -6 -3 51.85 2.11
-1 -6 -3 48.05 1.96
-1 -6 -3 51.44 3.27
-1 -6 -3 48.09 1.71
-1 -6 -2 94.27 4.61
-1 -6 -2 97.72 4.8
-1 -6 -2 99.18 2.79
1 6 2 103.51 5.71
-1 -6 -2 95.53 2.88
-1 -6 -2 99.64 3.08
-1 -6 -2 97.3 2.75
-1 -6 -1 18.6 2.04
-1 -6 -1 17.84 1.93
-1 -6 -1 18.25 1.06
-1 -6 -1 21.08 1.41
1 6 1 17.22 2.15
-1 -6 -1 15.92 0.97
-1 -6 -1 16.91 1.06
-1 -6 -1 19.75 1.18
-1 -6 -1 17.27 0.99
-1 -6 0 169.05 6.45
-1 -6 0 185.42 6.73
1 6 0 164.63 6.64
-1 -6 0 193.38 4.49
-1 -6 0 185.06 4.16
1 6 -1 30.65 2.38
-1 -6 1 26.66 1.32
-1 -6 1 28.1 2.46
-1 -6 1 30.66 1.44
-1 -6 1 26.95 2.4
-1 -6 2 30.26 1.35
-1 -6 2 27.84 2.4
-1 -6 2 30.97 1.39
-1 -6 2 27.54 2.43
-1 -6 2 30.25 1.3
-1 -6 3 6.15 0.6
-1 -6 3 5.9 0.56
-1 -6 3 6.81 1.28
-1 -6 3 6.51 1.19
-1 -6 3 6.32 0.61
-1 -6 4 226.73 5.14
-1 -6 4 252.73 8
-1 -6 4 267 8.28
-1 -6 4 269.35 6.1
-1 -6 4 239.13 5.06
-1 -6 4 227.1 4.56
-1 -6 4 274.02 8.53
-1 -6 4 235.54 8.36
-1 -6 4 250.07 5.1
-1 -6 5 1.63 0.67
-1 -6 5 2.2 0.36
-1 -6 5 2.58 0.78
-1 -6 5 3.37 0.58
-1 -6 5 0.67 0.25
1 6 -5 0.89 0.46
-1 -6 5 0.68 0.18
-1 -6 5 0.7 0.53
-1 -6 5 1.28 0.63
-1 -6 5 0.85 0.25
-1 -6 6 20.65 1.08
-1 -6 6 17.53 1.02
-1 -6 6 18.52 1.06
-1 -6 6 20.12 2.27
1 6 -6 19.72 2.03
-1 -6 6 21.88 0.99
-1 -6 6 19.43 2.33
-1 -6 6 19.54 1.97
-1 -6 7 181.03 3.9
1 6 -7 156.82 6.38
-1 -6 7 165.12 6.99
-1 -6 7 152.41 7.03
-1 -6 7 173.39 4.03
-1 -6 8 84.87 2.52
-1 -6 8 89.63 2.46
-1 -6 9 36.92 1.52
-1 -6 9 40.16 1.6
-1 -6 9 41.52 1.56
-1 -6 10 5.99 0.59
-1 -6 10 5.52 0.53
-1 -6 10 5.46 0.53
-1 -6 10 5.74 0.45
-1 -6 11 286.14 5.45
-1 -6 11 269.71 5.2
-1 -6 11 274.54 5.18
-1 -6 12 0.66 0.19
-1 -7 -9 15.15 0.73
-1 -7 -9 14.91 0.73
-1 -7 -8 4.2 0.46
-1 -7 -8 3.95 0.46
-1 -7 -7 42.44 1.69
-1 -7 -7 46.47 1.75
-1 -7 -6 88.19 2.69
-1 -7 -6 76.08 2.61
-1 -7 -6 85.41 2.62
-1 -7 -6 78.52 2.07
-1 -7 -5 17.28 1.14
-1 -7 -5 16.87 1.18
-1 -7 -5 16.68 1.11
-1 -7 -5 14.56 0.85
-1 -7 -4 32.33 1.29
-1 -7 -4 30.75 1.54
1 7 4 32.8 3.25
-1 -7 -4 24.88 1.55
-1 -7 -4 31.77 1.58
-1 -7 -4 30.62 1.61
-1 -7 -4 29.03 1.31
-1 -7 -3 53.57 3.53
-1 -7 -3 55.8 1.91
1 7 3 49.66 3.98
-1 -7 -3 50.58 2.08
-1 -7 -3 50.74 2.08
-1 -7 -3 53.97 2.24
-1 -7 -3 53.11 1.9
-1 -7 -2 33.77 2.86
-1 -7 -2 35.93 2.95
-1 -7 -2 38.45 1.6
-1 -7 -2 42.49 2.14
1 7 2 34.51 3.24
-1 -7 -2 32.46 1.63
-1 -7 -2 38 1.8
-1 -7 -2 36.3 1.55
-1 -7 -1 28.6 2.58
-1 -7 -1 34.65 2.97
-1 -7 -1 33.56 2.88
-1 -7 -1 35.3 1.58
1 7 1 38.3 3.24
-1 -7 -1 42.6 2.16
-1 -7 -1 35.65 1.71
-1 -7 -1 34.62 1.52
-1 -7 0 0.16 0.36
-1 -7 0 0.12 0.18
-1 -7 0 -0.07 0.21
-1 -7 1 40.68 1.76
-1 -7 1 39.41 3.24
-1 -7 1 37.32 3.08
-1 -7 1 41.71 3.16
-1 -7 1 41.03 1.67
-1 -7 1 41.3 1.73
-1 -7 2 10.36 0.85
-1 -7 2 9.34 1.59
-1 -7 2 8.9 1.5
-1 -7 2 9.32 1.04
-1 -7 2 8.93 1.49
-1 -7 2 9.58 0.76
-1 -7 2 9.72 0.8
-1 -7 3 24.47 1.31
-1 -7 3 22.7 2.46
-1 -7 3 22.54 2.35
-1 -7 3 25.11 1.25
-1 -7 3 23.3 1.25
-1 -7 4 0.4 0.43
-1 -7 4 0.67 0.51
-1 -7 4 0.48 0.25
-1 -7 4 0.69 0.25
-1 -7 4 0.21 0.34
-1 -7 4 1.3 0.62
-1 -7 4 0.78 0.26
-1 -7 5 117.67 5.51
-1 -7 5 135.31 3.47
-1 -7 5 129.15 5.87
-1 -7 5 131.59 3.36
-1 -7 5 123.54 2.91
-1 -7 5 123.7 6.12
-1 -7 5 116.34 5.66
-1 -7 5 136.77 3.37
-1 -7 6 0.66 0.26
-1 -7 6 0.69 0.24
-1 -7 6 0.06 0.34
-1 -7 6 0.52 0.19
-1 -7 7 8.01 0.6
-1 -7 7 7.07 0.65
-1 -7 8 116.3 2.85
-1 -7 8 113.63 3
-1 -7 8 119.38 3.05
-1 -7 9 34.38 1.3
-1 -7 9 34.25 1.36
-1 -7 9 36.19 1.43
-1 -7 10 2.08 0.3
-1 -7 10 1.93 0.33
-1 -7 10 1.69 0.28
-1 -7 11 6.13 0.45
-1 -7 11 6.56 0.46
-1 -7 11 6.06 0.43
-1 -7 12 62.67 1.47
-1 -7 12 55.4 1.34
-1 -8 -8 3.16 0.28
-1 -8 -7 1.88 0.27
-1 -8 -6 33.24 1.38
-1 -8 -6 36.31 1.36
-1 -8 -5 3.11 0.46
-1 -8 -5 3.56 0.46
-1 -8 -5 3.03 0.32
-1 -8 -4 54.8 1.91
-1 -8 -4 53.6 1.7
-1 -8 -4 58.78 2.12
-1 -8 -4 52.86 1.6
-1 -8 -3 44.78 1.6
-1 -8 -3 43.98 1.93
-1 -8 -3 40.18 1.79
-1 -8 -3 46.41 1.65
-1 -8 -2 85.17 2.98
-1 -8 -2 84.31 2.46
-1 -8 -2 82 2.73
-1 -8 -1 163.91 4.78
-1 -8 -1 167.47 3.99
-1 -8 -1 156.42 6.67
-1 -8 -1 163.24 3.89
-1 -8 0 18.6 2.21
-1 -8 0 18.64 1.16
-1 -8 1 3.99 0.72
-1 -8 1 2.56 0.45
-1 -8 1 1.8 0.78
-1 -8 1 3.15 0.46
-1 -8 1 2.42 0.44
-1 -8 2 1.71 0.53
-1 -8 2 1.63 0.73
-1 -8 2 1.91 0.4
-1 -8 2 1.6 0.36
-1 -8 2 2.39 0.43
-1 -8 3 345.91 7.96
-1 -8 3 332.67 10.63
-1 -8 3 322.09 6.86
-1 -8 3 355.18 6.84
-1 -8 3 336.74 6.78
-1 -8 4 0.73 0.41
-1 -8 4 2.14 0.4
-1 -8 4 1.81 0.74
-1 -8 4 2.64 0.43
-1 -8 4 2.08 0.4
-1 -8 5 41.33 2.3
-1 -8 5 39.88 1.56
-1 -8 5 37.35 1.58
-1 -8 5 38.52 1.58
-1 -8 6 158.81 3.62
-1 -8 6 157.03 3.66
-1 -8 7 26.26 1.18
-1 -8 7 22.04 0.9
-1 -8 8 12.26 0.63
-1 -8 8 11.46 0.74
-1 -8 8 11.45 0.74
-1 -8 9 48.97 1.39
-1 -8 9 52.04 1.55
-1 -8 9 52.62 1.62
-1 -8 10 81.06 1.85
-1 -8 10 85.58 2.08
-1 -8 10 86.24 2
-1 -8 11 4.19 0.27
-1 -8 11 2.44 0.21
-1 -9 -6 13 0.56
-1 -9 -5 1.76 0.26
-1 -9 -4 2.86 0.27
-1 -9 -4 2.74 0.36
-1 -9 -3 57.62 1.76
-1 -9 -3 54.74 1.5
-1 -9 -3 57.63 1.56
-1 -9 -2 0.68 0.21
-1 -9 -2 1 0.33
-1 -9 -2 0.74 0.23
-1 -9 -2 1 0.28
-1 -9 -1 35.52 1.41
-1 -9 -1 34.31 1.45
-1 -9 -1 35.02 1.35
-1 -9 0 74.37 2.82
-1 -9 0 95.58 2.59
-1 -9 1 0.27 0.34
-1 -9 1 0.3 0.22
-1 -9 1 0.07 0.2
-1 -9 2 83.58 2.53
-1 -9 2 76.87 3.01
-1 -9 2 82.84 2.42
-1 -9 3 70.9 2.79
-1 -9 3 69.84 2.22
-1 -9 3 74.17 2.18
-1 -9 3 67.87 2.11
-1 -9 4 333.01 7.58
-1 -9 4 368.92 6.87
-1 -9 4 347.39 6.92
-1 -9 4 386.09 6.9
-1 -9 5 1.35 0.28
-1 -9 5 1.31 0.28
-1 -9 5 1.55 0.31
-1 -9 6 14.88 0.78
-1 -9 6 14.64 0.97
-1 -9 6 14.96 0.81
-1 -9 6 14.53 0.74
-1 -9 7 12.93 0.7
-1 -9 7 13.87 0.73
-1 -9 8 4.84 0.38
-1 -9 8 4.37 0.39
-1 -9 9 8.65 0.44
-1 -9 9 6.7 0.42
-1 -10 -3 41.04 1.09
-1 -10 -2 73.11 1.53
-1 -10 -2 78.18 1.72
-1 -10 -1 5.33 0.39
-1 -10 -1 5.41 0.37
-1 -10 -1 5.51 0.42
-1 -10 0 27.08 1.21
-1 -10 0 25.14 0.99
-1 -10 0 25.6 0.94
-1 -10 0 23.77 0.95
-1 -10 1 4 0.39
-1 -10 1 3.71 0.37
-1 -10 2 2.41 0.42
-1 -10 2 1.51 0.26
-1 -10 2 1.63 0.25
-1 -10 2 1.94 0.29
-1 -10 2 1.76 0.27
-1 -10 3 101.36 2.33
-1 -10 3 96.03 2.36
-1 -10 4 5.12 0.4
-1 -10 4 6.12 0.44
-1 -10 4 5.89 0.57
-1 -10 4 5.55 0.44
-1 -10 5 30.15 0.91
-1 -10 5 29.93 0.96
-1 -10 5 32.43 1
-1 -10 6 14.54 0.6
-1 -10 6 11.11 0.54
-1 -10 7 2.9 0.23
-1 -10 7 2.41 0.22
-2 11 -7 3.35 0.29
-2 11 -6 2.24 0.3
-2 11 -5 36.39 1.34
2 -11 5 34.56 1.03
-2 11 -4 2.62 0.41
-2 11 -4 2.3 0.28
2 -11 4 2.65 0.3
-2 11 -3 8.09 0.54
2 -11 3 8.12 0.55
2 -11 2 3.79 0.33
-2 11 -2 3.88 0.39
2 -11 2 3.96 0.4
2 -11 1 30.64 1.02
2 -11 1 28.89 1.1
2 -11 0 2.29 0.28
2 -11 0 3.17 0.46
2 -11 -1 6.48 0.45
-2 11 1 5.85 0.43
2 -11 -1 6.49 0.45
2 -11 -1 6.16 0.56
-2 11 2 21.85 0.73
2 -11 -2 21.12 0.73
2 -11 -3 5.89 0.38
2 -11 -4 16.49 0.59
2 -10 9 1.27 0.16
2 -10 8 0.84 0.16
-2 10 -8 0.35 0.17
2 -10 7 94.53 2
-2 10 -7 94.19 2.47
2 -10 6 20.45 0.8
2 -10 6 19.88 0.69
2 -10 5 78.1 1.9
-2 10 -5 77.46 2.13
2 -10 5 74.33 1.72
-2 10 -4 7.68 0.63
-2 10 -4 8.36 0.57
2 -10 4 8.37 0.51
-2 10 -3 9.81 0.73
-2 10 -3 8.93 0.6
2 -10 3 8.44 0.58
2 -10 3 8.36 0.51
2 -10 2 0.57 0.15
-2 10 -2 0.43 0.17
2 -10 2 0.41 0.17
2 -10 1 2.92 0.28
-2 10 -1 3.41 0.39
2 -10 1 3.72 0.43
-2 10 -1 2.48 0.5
-2 10 0 0.64 0.2
2 -10 0 0.55 0.23
-2 10 0 0.59 0.33
2 -10 -1 22.35 1.08
-2 10 1 21.82 0.98
-2 10 2 5.2 0.48
-2 10 2 4.35 0.41
2 -10 -2 4.74 0.49
-2 10 3 0.41 0.15
2 -10 -3 0.87 0.19
2 -10 -3 0.26 0.2
2 -10 -3 0.8 0.24
2 -10 -4 81.21 2.15
2 -10 -5 5.54 0.43
2 -9 11 168.3 3.04
2 -9 10 0.83 0.14
2 -9 10 0.67 0.15
2 -9 9 36.69 1.08
2 -9 9 35.97 1.16
-2 9 -8 2.32 0.39
2 -9 8 4.98 0.39
-2 9 -7 12.81 1.01
2 -9 7 14.49 0.71
2 -9 6 241.73 4.75
2 -9 5 13.96 0.77
-2 9 -5 12.59 0.84
-2 9 -5 12.82 0.8
-2 9 -4 210.13 4.52
2 -9 4 220.14 4.39
-2 9 -3 9.56 0.71
2 -9 3 10.04 0.7
2 -9 3 9.92 0.64
2 -9 2 66.48 2.05
-2 9 -2 63.03 2.02
2 -9 2 59.88 1.79
-2 9 -1 17.68 0.99
2 -9 1 17.22 1
2 -9 0 10.35 0.79
-2 9 0 9.05 0.71
2 -9 -1 28.3 1.36
-2 9 1 27.5 1.29
2 -9 -2 59.01 2.02
-2 9 2 60 1.93
-2 9 3 27.42 1.2
2 -9 -3 29.53 1.4
-2 9 3 27.38 1.26
-2 9 4 4.22 0.41
2 -9 -4 5.11 0.57
-2 9 4 4.59 0.49
2 -9 -5 55.85 1.87
-2 9 5 52.73 1.72
2 -9 -5 49.89 1.76
2 -9 -6 3.24 0.37
2 -9 -6 2.88 0.38
-2 9 6 2.66 0.33
2 -9 -6 2.41 0.34
-2 9 7 38.79 1.18
2 -9 -7 35.92 1.25
2 -9 -8 49.24 1.31
2 -9 -8 46.99 1.24
2 -8 12 59.81 1.41
2 -8 12 66.71 1.39
2 -8 11 40.08 1.19
2 -8 11 40.46 1.13
2 -8 10 76.18 1.99
2 -8 10 82.99 1.96
2 -8 9 85.07 2.19
2 -8 9 85.94 2.12
2 -8 8 13.84 0.77
2 -8 8 13.09 0.71
2 -8 7 104.17 2.62
-2 8 -6 68 2.13
-2 8 -5 41.13 1.57
2 -8 4 45.15 1.55
-2 8 -4 43 3.31
2 -8 4 37.42 3.12
-2 8 -4 44.86 1.65
-2 8 -3 5.59 1.27
2 -8 3 4.69 1.09
-2 8 -3 5.68 0.57
-2 8 -2 38.85 3.21
2 -8 2 34.6 2.84
2 -8 2 36.39 1.45
-2 8 -2 36.49 1.49
-2 8 -1 166.49 6.93
2 -8 1 174.45 6.67
-2 8 -1 161 3.81
-2 8 0 44.39 3.42
2 -8 0 39.28 2.93
2 -8 0 44.66 1.71
-2 8 0 40.56 1.64
-2 8 1 19.87 2.28
2 -8 -1 22.63 1.22
-2 8 1 19.54 1.11
-2 8 2 127.35 5.87
2 -8 -2 140.58 3.61
-2 8 2 131.31 3.45
2 -8 -3 0.24 0.21
-2 8 3 0.62 0.24
-2 8 4 75.56 2.44
2 -8 -4 74.61 2.48
-2 8 4 71.08 2.12
2 -8 -4 73.55 2.47
2 -8 -5 0.27 0.21
2 -8 -5 0.28 0.22
-2 8 5 0.44 0.22
2 -8 -6 6.84 0.68
-2 8 6 6.82 0.65
2 -8 -6 7.22 0.67
2 -8 -7 4.34 0.52
-2 8 7 5.09 0.52
2 -8 -8 0.59 0.23
2 -8 -8 0.63 0.21
-2 8 8 0.72 0.2
2 -8 -9 87.41 2.23
2 -8 -9 86.09 2.26
2 -8 -10 6.66 0.4
2 -7 12 2.18 0.25
2 -7 11 175.56 3.59
2 -7 10 14.24 0.78
2 -7 9 9.49 0.64
2 -7 8 88.75 2.36
2 -7 7 4.91 0.48
2 -7 7 3.29 1.04
2 -7 6 10.52 0.7
-2 7 -6 10.87 0.77
2 -7 6 8.61 1.54
-2 7 -6 8.36 1.35
2 -7 5 87.83 2.38
-2 7 -5 99.11 2.58
-2 7 -5 99.01 4.77
2 -7 5 87.73 4.86
-2 7 -4 85.11 2.37
2 -7 4 80.7 4.55
-2 7 -3 108.62 2.55
2 -7 3 107.96 5.13
-2 7 -3 110.57 2.84
-2 7 -2 1.86 0.74
-2 7 -2 1.24 0.22
2 -7 2 0.81 0.45
-2 7 -2 1.09 0.25
2 -7 2 1.3 0.26
-2 7 -1 14.02 1.81
2 -7 1 11.8 1.5
2 -7 1 10.63 0.73
-2 7 -1 10.51 0.74
-2 7 0 9.14 1.47
2 -7 0 9.18 1.33
2 -7 0 8.27 0.66
-2 7 0 7.78 0.66
-2 7 1 31.62 2.67
2 -7 -1 29.91 2.35
-2 7 1 27.34 1.31
2 -7 -1 27.84 1.29
-2 7 2 81.33 4.3
2 -7 -2 71.84 3.64
-2 7 2 66.86 2.32
2 -7 -2 79.58 2.4
-2 7 3 160.19 6.46
-2 7 3 156.34 4.01
2 -7 -3 167.64 4.03
-2 7 4 10.35 0.7
-2 7 4 10.19 0.84
2 -7 -4 11.42 0.88
-2 7 4 12.86 1.74
2 -7 -4 9.92 0.83
2 -7 -5 14.1 0.99
-2 7 5 11.75 0.94
-2 7 5 12.01 1.75
2 -7 -5 14.15 1.03
-2 7 6 12.64 0.96
2 -7 -6 13.22 0.97
2 -7 -6 12.77 1
-2 7 7 10.57 0.86
2 -7 -7 11.22 0.92
2 -7 -8 31 1.39
-2 7 8 30.81 1.43
2 -7 -8 28.17 1.46
-2 7 9 18.08 0.99
2 -7 -9 18.27 0.94
2 -7 -9 17.94 1.05
-2 7 10 3.32 0.36
2 -7 -10 3.3 0.32
2 -7 -10 3.7 0.41
-2 7 11 0.16 0.08
2 -7 -11 0.13 0.1
2 -6 13 10.81 0.52
-2 6 -13 7.32 0.42
2 -6 12 6.74 0.46
2 -6 12 7.14 0.48
2 -6 11 8.38 0.58
2 -6 11 9.04 0.61
2 -6 10 38.93 1.4
2 -6 10 41.58 1.44
2 -6 9 92.5 2.4
2 -6 9 86.53 2.33
2 -6 8 1.46 0.28
-2 6 -8 1.81 0.28
2 -6 7 39.91 1.4
2 -6 7 36.12 3.08
2 -6 6 250.82 4.97
-2 6 -6 243.22 7.44
-2 6 -6 264.32 5.24
2 -6 6 239.09 8.5
-2 6 -5 1.2 0.25
2 -6 5 0.87 0.52
-2 6 -5 0.73 0.44
-2 6 -4 137.39 3.19
-2 6 -4 139.42 3.01
2 -6 4 131.2 5.47
-2 6 -3 300.15 5.87
-2 6 -3 312.19 5.7
2 -6 3 312.12 8.76
-2 6 -2 8.58 0.62
-2 6 -2 8.13 0.53
-2 6 -2 9.86 1.39
2 -6 2 9.03 1.26
-2 6 -1 265.26 5.1
2 -6 1 274.95 7.76
2 -6 1 272.08 5.25
-2 6 -1 274.74 5.35
-2 6 0 196.83 4.03
2 -6 0 198.09 6.19
-2 6 0 205.71 4.3
2 -6 0 201.09 4.21
-2 6 1 116.19 2.92
2 -6 -1 117.79 4.47
-2 6 1 125.13 5.15
-2 6 2 27.59 1.27
2 -6 -2 28.84 1.26
2 -6 -2 25.53 1.91
-2 6 2 28.53 2.31
-2 6 3 65.32 2.17
2 -6 -3 65.65 3.2
-2 6 3 68.13 3.6
2 -6 -4 349.46 6.88
-2 6 4 321.08 6.56
-2 6 4 343.98 9.69
2 -6 -5 199.25 4.78
-2 6 5 198.49 4.51
2 -6 -6 17.84 1.18
-2 6 6 18.48 1.06
-2 6 6 17.08 2.03
2 -6 -7 42.99 1.92
2 -6 -8 130.85 3.73
2 -6 -9 10.85 0.81
2 -6 -9 9.55 0.85
2 -6 -10 65.5 1.95
2 -6 -10 61.28 2.15
-2 6 11 3.11 0.37
2 -6 -11 2.94 0.29
2 -6 -11 3.96 0.44
2 -6 -12 0.13 0.09
-2 6 12 0.43 0.12
2 -6 -12 0.42 0.13
2 -5 14 22.49 0.71
2 -5 13 59.89 1.55
-2 5 -13 50.51 1.49
2 -5 12 0.23 0.15
2 -5 12 0.17 0.11
2 -5 11 4.79 0.46
2 -5 11 3.97 0.41
2 -5 10 2.03 0.32
2 -5 10 2.09 0.31
-2 5 -9 41.3 1.42
2 -5 9 41.42 1.48
2 -5 9 44.26 1.48
-2 5 -8 33.23 1.22
2 -5 8 31.41 1.21
2 -5 7 93.4 2.34
-2 5 -6 38.3 1.39
-2 5 -6 39.52 2.39
2 -5 6 36.2 1.25
-2 5 -5 397.59 9.41
-2 5 -5 371.29 6.84
-2 5 -4 172.19 3.67
-2 5 -4 179.61 3.55
2 -5 3 28.67 2.09
-2 5 -3 26.95 1.05
-2 5 -3 29.21 1.01
2 -5 2 261.12 7.02
-2 5 -1 957.05 18.67
2 -5 1 929.87 17.97
-2 5 0 3.3 0.77
2 -5 0 2.47 0.57
-2 5 1 1672.33 29.1
2 -5 -1 1568.59 27.87
-2 5 2 438.25 7.56
2 -5 -2 420.56 9.23
-2 5 2 453.09 10.31
-2 5 3 27.48 1.14
-2 5 3 29.78 2.22
2 -5 -3 29.46 1.86
-2 5 3 27.74 1.12
-2 5 3 31.27 2.15
-2 5 4 27.47 1.16
-2 5 4 26.72 2.27
2 -5 -4 26.98 1.24
-2 5 4 25.89 1.13
-2 5 4 22.54 0.95
2 -5 -5 0.54 0.22
-2 5 5 0.39 0.33
-2 5 5 0.5 0.2
-2 5 6 221.55 7.59
-2 5 6 230.64 4.79
2 -5 -7 5.41 0.64
-2 5 7 3.62 1.01
-2 5 7 4.91 0.53
2 -5 -8 1.3 0.35
-2 5 8 1.26 0.6
-2 5 8 1.29 0.3
2 -5 -9 56.9 2.28
-2 5 9 60.45 1.92
2 -5 -10 3.41 0.53
2 -5 -11 24.58 1.07
2 -5 -11 28.35 1.35
2 -5 -12 1.09 0.17
2 -5 -12 2.04 0.32
-2 5 13 37.28 1.07
2 -5 -13 49.17 1.24
2 -4 14 1.09 0.17
-2 4 -13 0.08 0.13
-2 4 -13 0.13 0.14
2 -4 13 0.11 0.13
2 -4 12 2.89 0.35
2 -4 11 40.83 1.46
2 -4 10 21.31 1.03
-2 4 -10 21.45 0.97
2 -4 10 21.74 0.99
2 -4 9 23.98 1.04
-2 4 -9 23.17 1
2 -4 9 21.68 0.97
2 -4 8 185.86 3.81
-2 4 -8 178.25 3.75
2 -4 8 174.5 3.69
2 -4 7 135.25 2.99
2 -4 7 137.29 5.28
-2 4 -7 141.77 3.06
2 -4 6 1.51 0.49
-2 4 -6 1.58 0.46
2 -4 6 1.52 0.22
-2 4 -5 858.09 16.54
2 -4 5 860.33 16.75
-2 4 -5 884.58 14.36
2 -4 4 495.82 10.55
-2 4 -4 543.27 11.16
2 -4 3 166.56 4.49
-2 4 -3 166.71 5.01
2 -4 2 46.74 1.91
2 -4 2 45.03 2.23
-2 4 -1 6.57 0.88
2 -4 1 7.34 0.81
2 -4 0 1712.83 28.45
-2 4 0 1685.29 29.41
2 -4 -1 322.35 7.03
-2 4 1 336.97 7.92
2 -4 -2 637.16 11.82
-2 4 2 621.42 12.7
2 -4 -3 1.02 0.32
-2 4 3 0.98 0.4
-2 4 3 0.94 15.93
-2 4 4 87.55 3.84
-2 4 4 90.58 3.53
-2 4 4 88.85 2.25
-2 4 5 8.81 1.22
-2 4 5 7.8 0.65
2 -4 -5 7.8 0.64
-2 4 5 7.32 1.16
-2 4 5 6.5 0.54
-2 4 5 8.85 0.89
-2 4 6 18.49 1.82
-2 4 6 16.4 1.01
2 -4 -6 19.08 1.09
-2 4 6 19.25 1.95
-2 4 6 18.54 0.95
-2 4 7 157.28 4.06
-2 4 7 164.86 3.8
-2 4 7 180.98 6.74
2 -4 -7 172.86 4.21
-2 4 8 7.94 0.66
2 -4 -8 8.53 0.81
-2 4 8 8.18 1.42
2 -4 -9 53.38 2.02
-2 4 9 52.42 1.82
2 -4 -9 54.25 2.19
2 -4 -10 60.66 2.32
-2 4 10 55.68 1.99
2 -4 -10 55.96 2.07
2 -4 -11 21.81 1.27
2 -4 -11 20.56 1.12
2 -4 -12 2.71 0.36
2 -4 -12 3.12 0.44
2 -4 -13 59.29 1.74
2 -3 14 20.1 0.68
-2 3 -14 16.54 0.63
2 -3 13 42.7 1.36
-2 3 -13 41.49 1.42
-2 3 -12 51.04 1.7
-2 3 -12 48.05 1.73
2 -3 12 45.53 1.53
-2 3 -11 28.29 1.13
2 -3 11 28.09 1.19
-2 3 -11 29.93 1.36
-2 3 -10 34.98 1.29
-2 3 -10 36.99 1.52
-2 3 -9 14.94 0.81
2 -3 9 14.78 0.8
-2 3 -9 14.89 0.92
-2 3 -8 39.37 2.6
-2 3 -8 42.5 1.42
2 -3 8 40.58 2.83
2 -3 8 43.96 1.4
-2 3 -8 44.84 1.59
2 -3 7 48.51 2.86
-2 3 -7 50.84 1.5
-2 3 -7 45.18 2.66
2 -3 6 144.94 2.89
2 -3 6 150.17 4.88
-2 3 -6 150.19 4.14
-2 3 -6 154.78 4.95
2 -3 5 21.59 1.53
-2 3 -5 19.04 1.35
-2 3 -5 22.23 1.62
2 -3 4 467.34 9.43
-2 3 -4 476.57 9.74
-2 3 -4 472.91 9.3
2 -3 3 380.47 7.85
-2 3 -3 454.84 8.94
2 -3 2 328.63 6.36
2 -3 1 168.6 3.37
-2 3 -1 158.65 4.6
2 -3 1 161.59 4.03
-2 3 0 485.83 10.31
2 -3 0 537.68 9.5
2 -3 -1 1024.3 17.2
-2 3 1 1035.03 18.46
2 -3 -2 150.18 3.48
-2 3 2 148.04 4.33
-2 3 3 102.36 3.59
-2 3 3 90.52 3.23
-2 3 4 349.88 8.43
-2 3 4 348.13 7.7
-2 3 4 345.19 7.32
-2 3 5 75.82 3.52
-2 3 5 71.58 2.5
-2 3 5 78.16 3.26
-2 3 6 0.87 0.21
-2 3 6 1.66 0.59
-2 3 6 1.36 0.28
-2 3 6 1.14 0.27
-2 3 7 6.53 0.55
-2 3 7 6.27 0.61
-2 3 7 8.23 1.29
-2 3 7 6.32 0.62
-2 3 8 136.75 3.33
-2 3 8 142.17 3.62
2 -3 -8 143.32 3.5
-2 3 8 143.38 5.92
-2 3 8 128.06 3.55
2 -3 -9 62.61 2.17
-2 3 9 69.64 2.11
2 -3 -9 61.37 3.17
-2 3 9 65.48 2.31
-2 3 9 55.6 3.65
2 -3 -10 282.63 6.09
-2 3 10 293.51 6.25
2 -3 -11 12.18 0.97
2 -3 -11 12.78 0.92
-2 3 12 30.6 1.4
2 -3 -12 28.05 1.32
2 -3 -13 1.54 0.3
-2 3 13 1.52 0.28
2 -3 -13 1.19 0.25
2 -3 -14 0.66 0.16
-2 2 -14 22.92 1.01
-2 2 -14 26.86 0.88
-2 2 -13 47.45 1.53
2 -2 13 47.19 1.43
-2 2 -13 47.07 1.54
-2 2 -12 39.43 1.57
-2 2 -12 39.32 1.56
2 -2 12 41.01 1.44
-2 2 -11 152.31 4.52
-2 2 -11 152.02 4.15
-2 2 -10 8.13 0.62
2 -2 10 6.88 1.18
2 -2 10 7.77 0.59
-2 2 -10 8.52 0.75
-2 2 -9 55.89 2
2 -2 9 54.18 1.7
-2 2 -9 58.13 1.76
-2 2 -8 51.34 1.79
-2 2 -8 52.03 1.6
-2 2 -7 43.79 1.53
-2 2 -7 46.88 2.42
-2 2 -7 44.52 1.4
2 -2 7 43.98 1.31
-2 2 -6 48.27 2.32
-2 2 -6 46.21 1.36
-2 2 -5 314.59 7.14
-2 2 -5 352.36 7.45
-2 2 -4 99.33 3.13
-2 2 -4 89.27 2.78
-2 2 -3 14.02 1.07
-2 2 -3 15.49 1.02
-2 2 -2 36.74 0.82
-2 2 -2 32.36 0.77
2 -2 2 49.78 1.4
-2 2 -2 47.45 1.84
2 -2 1 1191.31 18.89
-2 2 -1 1191.04 19.35
-2 2 -1 1291.34 20.9
-2 2 -1 1282.07 20.52
-2 2 0 768.76 12.66
-2 2 0 744.29 13.54
-2 2 0 727.34 13.16
2 -2 0 729.34 12.18
-2 2 1 287.39 6.14
2 -2 -1 309.95 5.21
-2 2 1 295.43 6.58
-2 2 1 294.49 6.29
-2 2 2 141.47 4
-2 2 2 146.26 3.76
-2 2 3 52.71 2.36
-2 2 3 51.67 2.18
-2 2 3 58.81 2.11
-2 2 4 704.63 13.37
-2 2 4 725.5 12.94
-2 2 5 302.43 7.79
-2 2 5 284.08 5.98
-2 2 6 1209.95 20.27
-2 2 6 1215.8 20.51
-2 2 7 28.91 1.18
-2 2 7 29.15 1.24
-2 2 7 29.96 2.36
-2 2 7 24.99 1.24
2 -2 -8 33.55 2.19
-2 2 8 30.55 1.28
-2 2 8 30.55 1.38
2 -2 -8 31.82 1.37
-2 2 8 28.4 2.42
-2 2 8 31.73 1.46
2 -2 -9 404.97 9.76
-2 2 9 389.55 7.43
-2 2 9 392.99 7.75
2 -2 -9 402.38 7.69
-2 2 9 398.18 11.14
-2 2 9 376.87 7.78
2 -2 -10 384.1 10.04
-2 2 10 429.39 7.83
2 -2 -10 429.33 8.21
-2 2 10 435.86 8.27
-2 2 10 355.62 10.78
-2 2 10 377.29 11.22
-2 2 10 414.09 8.32
-2 2 11 52.1 2.03
-2 2 11 53.44 2.09
2 -2 -11 53.43 2.02
2 -2 -12 3.8 0.54
-2 2 12 2.63 0.43
2 -2 -12 2.65 0.41
2 -2 -13 127.12 3.14
2 -2 -13 125.88 3.24
-2 2 14 35.96 1.23
-2 2 14 38.74 1.11
2 -2 -14 39.28 1.31
-2 1 -14 2.17 0.24
-2 1 -13 51.07 1.63
-2 1 -13 53.94 1.72
-2 1 -12 337.29 6.61
-2 1 -12 349.86 6.8
-2 1 -11 19 1.18
-2 1 -11 18.89 0.98
-2 1 -11 19.18 1.12
2 -1 10 143.22 5.69
-2 1 -10 141.59 3.74
-2 1 -10 143.5 3.28
-2 1 -10 147.45 3.64
-2 1 -9 73.04 2.11
2 -1 9 69.12 1.97
-2 1 -8 97.44 2.77
2 -1 8 94.88 2.31
-2 1 -8 96.24 2.44
-2 1 -7 38.54 1.51
-2 1 -7 41.17 1.35
-2 1 -6 421.07 8.75
-2 1 -6 454.52 7.7
-2 1 -5 4.57 0.58
-2 1 -4 198.52 4.33
-2 1 -4 163.38 4.54
-2 1 -3 22.83 1.2
-2 1 -3 23.13 1.28
-2 1 -3 24.56 1.44
-2 1 -2 1.08 0.27
-2 1 -2 0.68 0.25
-2 1 -2 1.01 0.28
-2 1 -2 1.53 0.38
-2 1 -1 564.52 10.19
-2 1 -1 558.87 10.33
-2 1 -1 541.69 10.4
-2 1 -1 539.29 10.51
-2 1 0 497.86 9.06
-2 1 0 478.6 9.2
-2 1 1 8.95 0.83
-2 1 1 8.45 0.77
-2 1 1 9.9 0.83
-2 1 1 9.04 0.74
-2 1 1 10.9 0.76
-2 1 1 9.43 0.34
-2 1 2 397.07 8.01
-2 1 2 372.76 7.74
-2 1 2 384.4 6.78
-2 1 3 1989.02 32.02
-2 1 3 1936.62 32.28
-2 1 3 1915.49 31.7
-2 1 3 2023.46 31.43
-2 1 3 1898.11 32.44
-2 1 4 1074.64 18.43
-2 1 4 1037.55 18.73
-2 1 4 1086.12 18.13
-2 1 5 724.34 14.39
-2 1 5 710.33 12.37
-2 1 6 760.49 15.59
-2 1 7 123.07 2.99
-2 1 7 132.82 5.13
2 -1 -7 140.14 4.45
-2 1 7 117.02 2.9
-2 1 7 131.8 3.04
-2 1 8 2.86 0.37
-2 1 8 2.43 0.71
-2 1 8 2.63 0.4
-2 1 8 2.4 0.38
2 -1 -9 108.54 4.44
-2 1 9 109.77 2.85
-2 1 9 105 2.92
-2 1 9 114.54 5.18
-2 1 9 102.41 4.81
-2 1 9 106.7 3.08
-2 1 10 155.97 3.65
2 -1 -10 145.93 5.51
-2 1 10 152.2 3.82
2 -1 -10 164.9 3.98
-2 1 10 141.87 6.06
-2 1 10 140.93 6.13
-2 1 10 146.5 3.94
2 -1 -11 521.32 9.69
-2 1 11 502.66 9.21
-2 1 11 516.33 9.65
-2 1 11 509.92 9.81
-2 1 12 1.13 0.31
-2 1 12 0.78 0.3
2 -1 -12 1.14 0.29
2 -1 -13 7.7 0.7
-2 1 13 7.65 0.64
2 -1 -13 8.4 0.67
-2 1 13 8.76 0.74
-2 1 14 62.48 1.81
2 -1 -14 60.02 1.73
2 -1 -14 59.02 1.79
-2 0 -14 25.17 1
-2 0 -13 0.38 0.17
-2 0 -13 0.3 0.17
-2 0 -12 91.96 2.41
-2 0 -12 87.66 2.57
-2 0 -11 1.59 0.36
-2 0 -11 1.29 0.3
-2 0 -11 1.84 0.41
-2 0 -10 0.32 0.22
-2 0 -10 0.39 0.26
-2 0 -10 0.27 0.2
2 0 10 0.6 0.5
-2 0 -10 0.26 0.23
-2 0 -9 118.19 3.02
-2 0 -9 128.5 3.38
-2 0 -9 114.93 3.16
2 0 9 124.29 5.47
-2 0 -9 126.35 3.54
-2 0 -8 6.43 0.55
-2 0 -8 7.85 0.7
-2 0 -8 6.72 0.61
2 0 8 7.55 1.27
-2 0 -8 6.49 0.67
-2 0 -7 101.88 2.87
-2 0 -7 106.86 2.56
-2 0 -6 158.31 3.74
-2 0 -6 171.64 3.47
-2 0 -5 409.93 7.96
-2 0 -4 129.53 3.19
-2 0 -4 126.36 3.53
-2 0 -3 224.44 4.96
-2 0 -3 220.25 5.33
-2 0 -3 230.11 5.42
-2 0 -2 27.07 1.34
-2 0 -2 27.75 1.53
-2 0 -2 31.91 1.69
-2 0 -2 27.83 1.46
-2 0 -1 35.18 1.54
-2 0 -1 34.57 1.64
-2 0 -1 37.06 1.83
-2 0 0 1.27 0.28
-2 0 0 1.19 0.32
-2 0 0 1.22 0.35
-2 0 0 1.13 0.31
-2 0 1 319.55 7.02
-2 0 1 320.23 7.14
-2 0 1 362.47 7.45
-2 0 1 323.88 6.74
-2 0 1 340.93 6.65
-2 0 1 352.64 6.33
-2 0 2 21.64 1.32
-2 0 2 21.37 1.36
-2 0 2 18.06 0.58
-2 0 2 21.04 1.07
-2 0 3 51.62 2.23
-2 0 3 50.1 2.13
-2 0 3 51.66 2.07
-2 0 3 53.31 1.95
-2 0 3 55.01 2.03
-2 0 4 31.97 1.63
-2 0 4 32.34 1.69
-2 0 4 31.81 1.57
-2 0 4 32.2 1.43
-2 0 4 32.09 1.85
-2 0 4 33.05 1.69
-2 0 5 674.4 12.52
-2 0 5 731.07 14.12
-2 0 5 701.14 13.61
-2 0 5 704.33 12.23
-2 0 6 37.29 2.38
-2 0 6 37.57 2.23
2 0 -6 39.45 2.09
-2 0 7 19.95 0.93
2 0 -7 14.88 1.39
-2 0 7 16.12 0.86
-2 0 7 14.02 0.83
-2 0 7 19.12 1.8
-2 0 7 16.64 1.61
-2 0 7 15.02 0.84
-2 0 8 232.86 4.69
2 0 -8 236.26 6.74
-2 0 8 218.65 4.69
-2 0 8 209.32 4.71
-2 0 8 229.93 7.49
-2 0 8 232.08 7.36
-2 0 8 225.25 4.79
-2 0 9 24.13 1.15
-2 0 9 22.36 1.18
-2 0 9 22.84 1.19
-2 0 9 27.01 2.43
-2 0 9 24.12 2.29
-2 0 9 22.63 1.21
-2 0 10 29.53 1.4
-2 0 10 25.6 2.45
-2 0 10 28.9 2.63
-2 0 10 31.23 1.35
2 0 -10 29.33 2.35
-2 0 11 0.48 0.27
2 0 -11 0.75 0.28
-2 0 11 0.34 0.19
-2 0 12 22.21 1.18
2 0 -12 24.63 1.27
-2 0 13 0.42 0.22
-2 0 13 -0.02 0.17
2 0 -13 0.1 0.15
-2 0 13 0.16 0.21
-2 0 14 0.81 0.23
2 0 -14 0.4 0.18
2 0 -14 0.51 0.19
-2 -1 -13 21.97 0.97
-2 -1 -13 20.11 1.04
-2 -1 -12 68.6 2.26
-2 -1 -12 63.94 2.04
-2 -1 -11 16.23 0.95
-2 -1 -11 14.59 0.88
-2 -1 -11 17.3 1.07
-2 -1 -11 17.77 1.19
-2 -1 -10 17.13 1.21
2 1 10 15.88 1.98
-2 -1 -10 13.83 0.95
-2 -1 -10 14.34 1.01
-2 -1 -10 14.37 0.94
-2 -1 -9 585.61 10.86
-2 -1 -9 637.39 11.67
2 1 9 577.69 14.86
-2 -1 -9 561.32 11.01
-2 -1 -9 638.15 11.31
-2 -1 -9 651.87 11.03
-2 -1 -8 16.75 0.97
-2 -1 -8 13.26 1.01
2 1 8 15.68 1.92
-2 -1 -8 14.95 0.9
-2 -1 -8 13.05 0.92
-2 -1 -8 14.54 0.97
-2 -1 -7 176.47 3.98
-2 -1 -7 167 4.22
-2 -1 -7 171.11 3.78
-2 -1 -6 15.55 0.98
-2 -1 -6 15.03 0.88
-2 -1 -6 18.59 0.79
-2 -1 -6 17.06 0.94
-2 -1 -6 17.16 0.84
-2 -1 -5 17.67 1.2
-2 -1 -5 14.88 0.73
-2 -1 -4 70.56 2.72
-2 -1 -4 69.85 2.59
-2 -1 -3 38.44 1.89
-2 -1 -3 43.69 2.1
-2 -1 -3 45.03 1.79
-2 -1 -2 1889.76 32.19
-2 -1 -2 1928.75 32.41
-2 -1 -2 1985.55 31.63
-2 -1 -1 12.3 0.85
-2 -1 -1 14.49 1.14
-2 -1 0 298.34 5.84
-2 -1 0 291.86 6.84
-2 -1 0 316.83 6.94
-2 -1 0 311.11 6.43
2 1 0 293.03 5.24
2 1 -1 44.01 1.61
-2 -1 1 46.59 1.54
-2 -1 1 45.36 1.85
-2 -1 1 39.6 2
-2 -1 1 49.46 2.24
-2 -1 1 45.79 2.1
2 1 -1 46.14 1.43
-2 -1 1 46.11 1.86
-2 -1 2 919.01 14.45
-2 -1 2 903.47 15.4
-2 -1 2 816.9 15.69
2 1 -2 792.16 14.45
-2 -1 3 269.83 6.36
-2 -1 3 265.32 6.34
-2 -1 3 276.73 6.36
-2 -1 3 280.63 5.83
-2 -1 3 266.28 5.53
-2 -1 4 36.83 2.01
-2 -1 4 33.06 1.97
-2 -1 4 35.68 1.8
-2 -1 4 35.88 1.9
2 1 -4 31.61 1.62
-2 -1 4 38.4 1.66
-2 -1 5 8.24 1.05
-2 -1 5 8.57 1.03
-2 -1 5 8.95 0.91
-2 -1 5 7.85 0.81
2 1 -5 8.91 0.91
-2 -1 6 229.44 4.57
-2 -1 6 240.14 6.81
-2 -1 6 244.31 7.01
-2 -1 6 229.19 5.44
-2 -1 7 16.95 0.87
-2 -1 7 11.88 0.71
-2 -1 7 13.66 0.8
2 1 -7 16.06 1.46
-2 -1 7 12.69 0.77
-2 -1 7 13.27 1.53
-2 -1 7 14.74 1.58
-2 -1 7 12.5 0.73
-2 -1 8 27.78 1.23
-2 -1 8 27.99 1.22
-2 -1 8 26.79 1.23
-2 -1 8 27.62 1.22
2 1 -8 29.59 2.16
-2 -1 8 29.2 2.43
-2 -1 8 28.65 2.41
-2 -1 8 27.27 1.21
-2 -1 9 54.71 1.92
-2 -1 9 54.97 1.96
-2 -1 9 57.04 1.9
2 1 -9 59.88 3.33
-2 -1 9 55.01 3.52
-2 -1 9 53.16 3.6
-2 -1 9 58.04 1.98
-2 -1 10 100.99 2.84
-2 -1 10 99.15 2.89
-2 -1 10 97.4 2.71
-2 -1 10 107.52 2.98
-2 -1 11 35.61 1.42
-2 -1 11 32.82 1.48
-2 -1 11 34.72 1.55
-2 -1 11 32.72 1.51
-2 -1 12 8.25 0.61
2 1 -12 9.4 0.78
-2 -1 12 7.98 0.71
-2 -1 12 7.85 0.69
2 1 -13 70.66 2.15
-2 -1 13 73.39 2.17
-2 -1 13 69.9 2.08
-2 -1 14 17.81 0.81
-2 -1 14 18.72 0.91
2 1 -14 19.57 0.89
-2 -2 -13 15.36 0.67
-2 -2 -13 17.36 0.76
-2 -2 -12 46.72 1.63
-2 -2 -12 48.07 1.83
-2 -2 -11 14.22 0.83
-2 -2 -11 13.77 0.93
-2 -2 -11 14.11 1.03
-2 -2 -10 5.61 0.63
-2 -2 -10 5.47 0.59
-2 -2 -10 4.37 0.53
-2 -2 -10 3.94 0.46
-2 -2 -9 55.58 2.02
-2 -2 -9 54.91 2.1
-2 -2 -9 57.68 2.17
-2 -2 -9 58.65 2.08
-2 -2 -8 417.78 8
-2 -2 -8 438.56 8.27
2 2 8 410.87 11.99
-2 -2 -8 431.79 8.19
-2 -2 -7 55.35 2
-2 -2 -7 50.85 1.58
-2 -2 -7 51.35 1.92
-2 -2 -7 50.14 1.77
-2 -2 -6 90.66 2.91
-2 -2 -6 92.52 2.52
-2 -2 -6 96.04 2.77
-2 -2 -6 104.7 2.41
-2 -2 -6 95.44 2.71
-2 -2 -6 86.16 2.64
2 2 6 104.66 4.87
-2 -2 -5 205.16 4.67
-2 -2 -5 204.69 4.49
-2 -2 -5 200.95 3.98
-2 -2 -5 208.27 5.52
2 2 4 229.94 6.72
-2 -2 -4 215.81 4.54
-2 -2 -4 193.8 4.22
-2 -2 -4 187.29 3.79
-2 -2 -4 189.83 4.05
-2 -2 -4 204.69 5.59
-2 -2 -4 191.46 3.9
-2 -2 -3 215.93 5.81
-2 -2 -3 209.17 5.7
-2 -2 -2 1383.68 24.42
-2 -2 -2 1374.47 24.25
-2 -2 -1 972.81 18.18
-2 -2 -1 992.18 17.32
2 2 0 53.52 2.27
-2 -2 0 58.79 2.17
-2 -2 0 52.66 2.55
-2 -2 0 51.47 2.54
2 2 -1 161.14 4.28
2 2 -1 178.36 3.85
-2 -2 1 185.64 5.23
-2 -2 1 171.12 5.17
-2 -2 1 180.93 4.96
-2 -2 1 192.7 4.54
2 2 -2 210.22 4.68
-2 -2 2 196.71 5.6
-2 -2 2 199.85 5.74
-2 -2 2 217.33 5.67
-2 -2 2 215.54 5.03
2 2 -3 114.94 3.39
-2 -2 3 127.65 3.69
-2 -2 3 126.15 4.14
-2 -2 3 111.77 4.01
-2 -2 3 123.8 4.17
2 2 -4 449.89 9.26
-2 -2 4 427.17 9.26
-2 -2 4 465.48 9.95
-2 -2 4 435.4 9.68
-2 -2 4 477.26 10.42
2 2 -5 155.47 4.59
-2 -2 5 134 5.07
-2 -2 5 139.63 4.58
-2 -2 5 147.93 4.51
-2 -2 6 1.3 0.24
-2 -2 6 2 0.27
-2 -2 6 2.46 0.32
2 2 -6 1.37 0.44
-2 -2 6 1.58 0.25
-2 -2 6 0.66 0.44
-2 -2 6 2.51 0.53
-2 -2 7 112.37 2.8
2 2 -7 116.83 4.49
-2 -2 7 104 4.91
-2 -2 7 105.43 2.62
-2 -2 8 54.44 1.82
-2 -2 8 55.54 1.8
2 2 -8 54.67 3.11
-2 -2 8 52.53 1.82
-2 -2 8 49.8 3.47
-2 -2 8 51.32 1.71
-2 -2 9 140.94 3.51
-2 -2 9 137.92 3.57
-2 -2 9 142.81 3.48
-2 -2 9 138.84 6.28
-2 -2 9 138.5 3.48
2 2 -9 145.2 5.62
2 2 -10 9.35 1.42
-2 -2 10 10.29 0.77
-2 -2 10 10.69 0.82
-2 -2 10 9.83 0.79
-2 -2 10 9.42 1.64
-2 -2 10 10.91 0.81
-2 -2 11 53.59 2.13
-2 -2 11 46.73 1.84
-2 -2 11 51.3 1.77
-2 -2 11 50 1.86
-2 -2 11 51.96 1.88
-2 -2 12 6.09 0.66
-2 -2 12 5.43 0.49
-2 -2 12 5.57 0.57
-2 -2 12 5.64 0.57
-2 -2 13 17.41 0.89
-2 -2 13 17.1 0.9
-2 -2 13 18.89 1.02
2 2 -13 16.51 0.93
-2 -2 14 54.49 1.44
2 2 -14 50.8 1.51
-2 -3 -12 8.84 0.57
-2 -3 -11 48.33 1.7
-2 -3 -11 45.65 1.44
-2 -3 -11 46.01 1.37
-2 -3 -10 41.82 1.64
-2 -3 -10 47.46 1.85
-2 -3 -10 46.49 1.67
-2 -3 -9 11.06 1.03
-2 -3 -9 11.48 0.87
-2 -3 -9 11.62 0.9
-2 -3 -9 12.16 0.96
2 3 9 13.18 2
-2 -3 -8 158.01 4.58
-2 -3 -8 166.54 4.12
-2 -3 -8 186.2 4.41
-2 -3 -8 158.32 4.23
-2 -3 -8 180.92 4.46
2 3 8 180.55 7.6
-2 -3 -7 391.08 8.35
-2 -3 -7 398.66 7.74
-2 -3 -7 408.05 8.04
-2 -3 -7 410.11 8.01
-2 -3 -7 402.4 7.28
2 3 7 416.74 12.21
-2 -3 -6 52.08 2.2
-2 -3 -6 54.8 1.9
-2 -3 -6 54.29 2.08
-2 -3 -6 48.24 1.97
-2 -3 -6 52.79 2
-2 -3 -6 52.62 1.68
2 3 5 220.17 7.88
-2 -3 -5 227.24 5.16
-2 -3 -5 235.12 4.68
-2 -3 -5 228.57 6.45
2 3 4 126.01 5.35
-2 -3 -4 125.36 3.45
-2 -3 -4 126.52 3.02
-2 -3 -4 116.78 3.23
-2 -3 -4 131.14 2.9
-2 -3 -4 132.78 3.23
-2 -3 -4 124.07 3.24
-2 -3 -4 120.06 4.54
2 3 3 73.2 3.72
-2 -3 -3 77.87 2.39
-2 -3 -3 68.96 1.94
-2 -3 -3 72.52 2.23
-2 -3 -3 74.04 2.2
-2 -3 -3 68.15 1.86
-2 -3 -3 74.55 2.13
-2 -3 -3 79.05 3.54
-2 -3 -3 79.93 3.51
-2 -3 -2 297.23 7.84
-2 -3 -2 304.82 7.76
-2 -3 -2 305.82 5.83
-2 -3 -2 280.84 5.57
2 3 2 249.69 7.47
-2 -3 -2 268.75 5.12
-2 -3 -2 272.01 7.05
2 3 1 101.89 3.95
-2 -3 -1 98.47 3.95
-2 -3 -1 91.78 3.4
2 3 0 81.1 3.32
-2 -3 0 78.63 3.51
-2 -3 0 75.65 3.52
-2 -3 0 83.01 3.1
2 3 -1 809.04 14.86
-2 -3 1 714.78 15.29
-2 -3 1 707.33 15.41
-2 -3 1 790.95 14.71
-2 -3 2 7.18 1.03
-2 -3 2 7.3 1.02
-2 -3 2 7.31 1.01
-2 -3 2 6.48 0.83
2 3 -3 34.25 1.79
-2 -3 3 34.13 1.99
-2 -3 3 36.97 2.39
-2 -3 3 32.46 2.18
-2 -3 3 31.31 2.23
-2 -3 4 136.52 2.93
-2 -3 4 117.89 2.9
2 3 -4 123.23 4.08
-2 -3 4 134.28 4.48
-2 -3 4 135.74 5.12
-2 -3 4 134.83 4.73
-2 -3 4 126.67 4.74
-2 -3 5 330.38 6.17
-2 -3 5 324.78 6.3
2 3 -5 343.48 8.33
-2 -3 5 362.93 8.67
-2 -3 5 332.94 6.16
-2 -3 5 361.44 9.52
-2 -3 5 382.91 8.83
-2 -3 5 362.11 8.79
-2 -3 6 0.52 0.17
-2 -3 6 0.68 0.2
2 3 -6 0.2 0.24
-2 -3 6 0.59 0.21
-2 -3 6 0.28 0.15
-2 -3 6 0.16 0.28
-2 -3 6 0.07 0.24
-2 -3 6 0.97 0.41
-2 -3 7 417.8 7.4
-2 -3 7 390.39 7.19
2 3 -7 399.16 9.96
-2 -3 7 375.5 7.47
-2 -3 7 401.98 7.31
-2 -3 7 383.74 11.14
-2 -3 7 371.5 6.94
-2 -3 8 153.7 3.61
-2 -3 8 157.35 3.58
-2 -3 8 126.07 5.37
2 3 -8 144.78 5.6
-2 -3 8 128.67 3.61
-2 -3 8 156.83 3.62
-2 -3 8 145.22 6.52
-2 -3 8 150.74 3.38
-2 -3 9 1.29 0.31
-2 -3 9 1.97 0.36
2 3 -9 0.7 0.47
-2 -3 9 1.2 0.3
-2 -3 9 0.81 0.28
-2 -3 9 0.86 0.56
-2 -3 9 0.98 0.25
-2 -3 10 0.49 0.23
-2 -3 10 0.55 0.22
-2 -3 10 1.21 0.3
-2 -3 10 1.35 0.29
-2 -3 10 1.82 0.38
-2 -3 10 0.6 0.25
-2 -3 11 6.32 0.58
-2 -3 11 5.79 0.6
-2 -3 11 6.07 0.57
-2 -3 11 5.92 0.64
-2 -3 11 6.37 0.64
-2 -3 12 387.57 6.94
-2 -3 12 384.32 7.21
-2 -3 12 357.8 7.21
-2 -3 12 376.95 7.04
-2 -3 12 371.98 7.09
2 3 -13 22.84 1.06
-2 -3 13 26.24 1.02
-2 -3 13 25.9 1.04
2 3 -14 0.41 0.14
-2 -3 14 0.44 0.14
-2 -4 -11 31.85 1.2
-2 -4 -11 29.52 0.96
-2 -4 -10 102.92 2.7
-2 -4 -10 107.2 2.92
-2 -4 -9 4.75 0.55
-2 -4 -9 4.32 0.57
-2 -4 -9 4.97 0.57
-2 -4 -9 4.5 0.63
-2 -4 -8 28.11 1.47
-2 -4 -8 31.3 1.59
-2 -4 -8 33.04 1.6
-2 -4 -8 30.04 1.68
2 4 7 1.21 0.83
-2 -4 -7 0.84 0.34
-2 -4 -7 1.3 0.35
-2 -4 -7 1.39 0.39
-2 -4 -7 1.28 0.3
-2 -4 -6 110.34 3.54
-2 -4 -6 99.55 3.18
-2 -4 -6 109.97 2.84
-2 -4 -6 112.36 3.29
2 4 6 110.59 6.02
-2 -4 -6 112.72 3.33
-2 -4 -5 378.27 8.09
-2 -4 -5 383.65 7.8
-2 -4 -5 372.36 7.76
-2 -4 -5 390.58 7.24
2 4 5 401.22 12.02
2 4 4 43.61 3.41
-2 -4 -4 42.51 1.92
-2 -4 -4 40.62 2.73
-2 -4 -4 43.41 1.85
-2 -4 -4 39.71 1.75
-2 -4 -4 40.39 1.49
-2 -4 -4 42.42 1.75
-2 -4 -4 40.55 1.47
2 4 3 15.35 1.94
-2 -4 -3 20.49 1.24
-2 -4 -3 17.7 1.15
-2 -4 -3 18.71 1.86
-2 -4 -3 17.33 1.75
-2 -4 -3 17.44 1.09
-2 -4 -3 18.16 1.08
-2 -4 -3 16.71 1.01
-2 -4 -3 16.06 0.88
-2 -4 -3 16.09 0.88
-2 -4 -2 83.52 2.33
-2 -4 -2 89.04 3.89
-2 -4 -2 94.91 2.93
2 4 2 86.11 4.38
-2 -4 -2 88.28 2.72
-2 -4 -2 82.44 3.97
-2 -4 -2 90.25 4.26
-2 -4 -2 83.99 2.52
-2 -4 -2 85.89 2.55
-2 -4 -2 82.86 2.18
-2 -4 -2 85.93 2.44
-2 -4 -2 78.21 2.13
-2 -4 -1 16.59 1.52
-2 -4 -1 12.74 1.01
2 4 1 15.64 1.75
-2 -4 -1 17.29 1.05
-2 -4 -1 16.28 0.96
-2 -4 -1 15.3 0.79
-2 -4 -1 15.86 0.88
-2 -4 -1 19.06 1.03
-2 -4 -1 15.08 1.69
-2 -4 -1 14.96 1.63
-2 -4 -1 15.66 0.88
-2 -4 0 10.84 1.23
-2 -4 0 12.54 1.49
-2 -4 0 13.04 1.56
2 4 0 12.6 1.48
-2 -4 0 12.54 0.78
-2 -4 0 12.53 0.73
-2 -4 0 12.33 0.81
-2 -4 0 12.42 0.7
-2 -4 0 13.22 0.73
-2 -4 1 19.12 1.65
-2 -4 1 19.56 1.24
-2 -4 1 15.18 0.89
-2 -4 1 16.49 1.76
-2 -4 1 18.16 1.81
-2 -4 1 19.72 0.94
-2 -4 1 18.35 0.81
-2 -4 1 19 0.89
-2 -4 2 81.87 3.58
-2 -4 2 85.63 2.22
-2 -4 2 78.66 2.73
-2 -4 2 79.97 4.01
-2 -4 2 81.91 3.97
-2 -4 2 73.18 2.22
-2 -4 2 81.76 1.98
-2 -4 2 85.44 2.22
-2 -4 3 8.34 0.59
-2 -4 3 8.32 1.28
-2 -4 3 9.43 1.18
-2 -4 3 7.16 0.6
-2 -4 3 8.21 1.23
-2 -4 4 53.8 3.16
-2 -4 4 55.09 1.82
-2 -4 4 53.05 3.23
-2 -4 4 56.07 1.73
2 4 -4 50.42 2.66
-2 -4 4 58.31 3.12
-2 -4 4 56.13 3.47
-2 -4 4 56.59 1.78
-2 -4 5 117.05 2.83
-2 -4 5 115.66 2.95
2 4 -5 105.13 4.3
-2 -4 5 115.41 4.79
-2 -4 5 107.18 2.66
-2 -4 5 113 2.87
-2 -4 5 120.55 5.41
-2 -4 5 112.04 4.7
-2 -4 5 120.34 5
-2 -4 6 225.55 4.72
-2 -4 6 220.45 4.62
2 4 -6 205.91 6.73
-2 -4 6 218.36 7.11
-2 -4 6 225.67 4.57
-2 -4 6 225.65 8.04
-2 -4 6 208.2 6.71
-2 -4 7 118.32 2.91
-2 -4 7 108.92 4.87
-2 -4 7 107.37 5.54
-2 -4 7 114.77 2.9
-2 -4 7 107.69 2.84
-2 -4 8 94.61 2.68
2 4 -8 88.33 4.48
-2 -4 8 102.69 2.75
-2 -4 8 91.6 5.24
-2 -4 8 102.34 2.79
-2 -4 9 46.71 1.74
-2 -4 9 46.92 1.75
-2 -4 9 43.35 1.7
-2 -4 9 45.26 1.55
-2 -4 10 18.5 1.06
-2 -4 10 15.01 0.92
-2 -4 10 18.43 1.05
-2 -4 10 16.55 0.99
-2 -4 10 17.66 0.91
-2 -4 11 0.59 0.2
-2 -4 11 0.22 0.18
-2 -4 11 0.12 0.18
-2 -4 11 0.45 0.17
-2 -4 12 169.32 3.66
-2 -4 12 161.72 3.43
-2 -4 12 162.1 3.55
-2 -4 13 44.86 1.31
2 4 -13 38.1 1.34
-2 -5 -11 38.85 1.09
-2 -5 -10 0.13 0.14
-2 -5 -10 0.2 0.1
-2 -5 -10 0.17 0.12
-2 -5 -10 0.06 0.14
-2 -5 -9 8.57 0.64
-2 -5 -9 9.11 0.71
-2 -5 -9 9.66 0.71
-2 -5 -9 8.82 0.76
-2 -5 -8 5.01 0.57
-2 -5 -8 5.44 0.62
-2 -5 -8 5.07 0.65
-2 -5 -7 114.77 3.38
-2 -5 -7 125.07 3.03
-2 -5 -7 124.57 3.51
-2 -5 -7 130.51 3.56
-2 -5 -7 116.62 3.66
-2 -5 -6 2.27 0.45
-2 -5 -6 2.31 0.45
-2 -5 -6 2.34 0.41
2 5 6 2.42 1.08
-2 -5 -6 2.08 0.46
-2 -5 -6 2.33 0.5
2 5 5 0.6 0.64
-2 -5 -5 0.33 0.26
-2 -5 -5 0.49 0.28
-2 -5 -5 0.29 0.25
-2 -5 -4 16.1 1.09
2 5 4 19.35 2.57
-2 -5 -4 19.29 1.33
-2 -5 -4 19.88 1.24
-2 -5 -4 19.36 1
-2 -5 -4 17.69 1.18
-2 -5 -4 19.24 1.05
-2 -5 -4 19.78 1.22
-2 -5 -4 19.58 1.97
-2 -5 -3 1.75 0.33
-2 -5 -3 1.44 0.62
-2 -5 -3 2.27 0.44
2 5 3 0.96 0.76
-2 -5 -3 0.96 0.31
-2 -5 -3 1.2 0.36
-2 -5 -3 1.35 0.34
-2 -5 -3 1 0.32
-2 -5 -3 0.84 0.22
-2 -5 -3 1.38 0.35
-2 -5 -2 72.35 3.78
-2 -5 -2 71.99 2.26
-2 -5 -2 74.84 4.18
-2 -5 -2 70.54 3.96
2 5 2 77.02 4.92
-2 -5 -2 84.56 2.91
-2 -5 -2 70.29 2.41
-2 -5 -2 73.88 2.36
-2 -5 -2 59.64 2.04
-2 -5 -2 77.26 2.53
-2 -5 -2 65.21 2.03
-2 -5 -1 0.35 0.35
-2 -5 -1 1.18 0.61
-2 -5 -1 1.55 0.32
-2 -5 -1 1.38 0.63
-2 -5 -1 1.39 0.42
2 5 1 1.74 0.84
-2 -5 -1 1.66 0.34
-2 -5 -1 0.65 0.23
-2 -5 -1 0.88 0.29
-2 -5 -1 0.62 0.2
-2 -5 0 102.89 4.98
-2 -5 0 84.69 4.62
-2 -5 0 108.27 2.77
-2 -5 0 101.23 2.84
-2 -5 0 105.69 2.67
-2 -5 0 108.38 2.83
-2 -5 0 120.33 3.16
-2 -5 0 97.65 4.31
-2 -5 1 7.49 2.43
-2 -5 1 4.6 0.69
-2 -5 1 5.35 1.11
-2 -5 1 7.12 1.27
-2 -5 1 5.92 0.6
-2 -5 1 6.22 0.56
-2 -5 1 9.16 0.67
-2 -5 2 71.57 2.34
-2 -5 2 71.69 4.2
-2 -5 2 76.44 4.21
-2 -5 2 84.42 3.04
-2 -5 2 73.94 3.87
-2 -5 2 79.25 2.26
-2 -5 2 77.69 2.29
-2 -5 3 83.64 4.07
-2 -5 3 83.38 2.53
-2 -5 3 79.7 4.46
-2 -5 3 81.71 2.38
-2 -5 4 39.28 1.61
-2 -5 4 42.58 3.06
-2 -5 4 42.68 3.14
-2 -5 4 39.84 1.52
-2 -5 4 33.59 1.84
-2 -5 4 40.71 2.81
-2 -5 4 43.65 1.59
-2 -5 5 93.21 4.78
-2 -5 5 93.42 4.63
-2 -5 5 102.47 2.83
-2 -5 5 104.92 2.73
-2 -5 5 90.99 2.39
-2 -5 5 93.44 5.04
-2 -5 5 94.79 2.74
-2 -5 5 92.67 4.5
-2 -5 5 99.6 2.73
-2 -5 6 1.17 0.25
-2 -5 6 1.21 0.29
-2 -5 6 1.06 0.27
-2 -5 6 0.73 0.5
-2 -5 6 1.18 0.55
-2 -5 6 1 0.59
-2 -5 7 245.26 5.1
-2 -5 7 241.28 5.19
-2 -5 8 0.9 0.25
-2 -5 8 0.76 0.27
-2 -5 8 1.39 0.31
-2 -5 9 21.75 1.11
-2 -5 9 20.86 1.11
-2 -5 9 20.79 1.13
-2 -5 10 65.45 2.04
-2 -5 10 66.72 2.06
-2 -5 10 64.36 2.03
-2 -5 11 31.49 1.27
-2 -5 11 31.17 1.25
-2 -5 11 29.35 1.2
-2 -5 12 29.52 1.1
-2 -5 12 30.15 1.06
2 5 -13 11.18 0.58
-2 -5 13 15.6 0.62
-2 -6 -9 6.67 0.5
-2 -6 -9 6.78 0.43
-2 -6 -8 32.43 1.34
-2 -6 -8 29.77 1.22
-2 -6 -8 33.76 1.37
-2 -6 -7 2.43 0.4
-2 -6 -7 2.3 0.4
-2 -6 -7 2.4 0.42
-2 -6 -6 9.41 0.81
-2 -6 -6 12.8 0.97
-2 -6 -5 9.94 0.88
-2 -6 -5 10.29 0.9
-2 -6 -4 48.87 1.67
-2 -6 -4 43.97 1.89
2 6 4 36.92 3.65
-2 -6 -4 45.81 1.97
-2 -6 -4 45.44 1.96
-2 -6 -4 44.86 1.72
-2 -6 -4 46.93 1.94
-2 -6 -4 40.55 1.46
-2 -6 -3 268.98 5.35
-2 -6 -3 270.81 8.68
-2 -6 -3 300.66 6.28
2 6 3 213.88 9.23
-2 -6 -3 203.73 5.67
-2 -6 -3 218.61 5.21
-2 -6 -3 269.58 5.86
-2 -6 -3 260.93 5.64
-2 -6 -3 235.8 5.02
-2 -6 -2 220.72 7.74
-2 -6 -2 262.86 5.51
-2 -6 -2 261.47 8.8
-2 -6 -2 248.51 8.55
-2 -6 -2 264.74 6.31
2 6 2 251.71 9.46
-2 -6 -2 261.47 5.67
-2 -6 -2 236.65 5.22
-2 -6 -2 261.6 5.62
-2 -6 -2 272.53 5.87
-2 -6 -2 226.67 5.09
-2 -6 -1 161.64 6.88
-2 -6 -1 181.38 7.32
-2 -6 -1 172.4 4.3
-2 -6 -1 180.7 4.34
-2 -6 -1 165.87 6.39
-2 -6 -1 174.21 4.1
-2 -6 0 324.88 6.74
-2 -6 0 328.67 9.54
-2 -6 0 332.89 10.52
-2 -6 1 166.89 6.97
-2 -6 1 161.8 4.17
-2 -6 1 160.1 7
-2 -6 1 164.29 4.9
-2 -6 1 156.69 6.1
-2 -6 1 182.96 4.05
-2 -6 1 164.9 4.08
-2 -6 2 15.13 1.99
-2 -6 2 16.11 1.08
-2 -6 2 15.14 2.03
-2 -6 2 16.33 1.86
-2 -6 2 16.58 1.01
-2 -6 2 16.74 1.03
-2 -6 3 15.52 1.85
-2 -6 3 17.38 1.11
-2 -6 3 15.92 2.12
-2 -6 3 17.61 1.04
-2 -6 4 426.6 12.37
-2 -6 4 432.01 12.62
-2 -6 4 501.74 9.95
-2 -6 4 439.63 8.76
-2 -6 4 414.55 11.66
-2 -6 4 453.59 8.62
-2 -6 4 478.82 8.63
-2 -6 5 126.29 4.12
-2 -6 5 154.93 3.77
-2 -6 5 144.1 3.55
-2 -6 5 145.12 6.34
-2 -6 5 132.57 5.98
-2 -6 5 136.19 5.75
-2 -6 5 142.88 3.65
-2 -6 6 84.06 2.53
-2 -6 6 87.93 2.52
-2 -6 6 83.71 2.48
-2 -6 6 79.42 2.18
-2 -6 7 0.22 0.14
-2 -6 7 0.16 0.16
-2 -6 8 273.17 5.51
-2 -6 8 278.63 5.47
-2 -6 9 5.75 0.51
-2 -6 9 5.36 0.54
-2 -6 9 5.83 0.57
-2 -6 10 1.39 0.26
-2 -6 10 1.67 0.31
-2 -6 10 1.49 0.29
-2 -6 10 1.35 0.28
-2 -6 11 53.4 1.54
-2 -6 11 51 1.55
-2 -6 12 86.85 1.96
-2 -6 12 87.52 1.9
-2 -7 -8 37.21 1.14
-2 -7 -7 12.55 0.73
-2 -7 -6 42.62 1.58
-2 -7 -6 43.2 1.6
-2 -7 -5 3.86 0.51
-2 -7 -5 3.88 0.5
-2 -7 -4 21.03 1.2
-2 -7 -4 22.33 1.15
-2 -7 -4 22.3 1.27
-2 -7 -4 23.85 1.02
-2 -7 -3 38.73 1.48
-2 -7 -3 37.67 1.73
-2 -7 -3 36.02 1.69
-2 -7 -2 263.33 5.91
-2 -7 -2 267.63 5.2
-2 -7 -1 3.03 0.97
-2 -7 -1 1.81 0.45
-2 -7 -1 2.94 0.47
-2 -7 -1 3.25 0.44
-2 -7 0 235.36 5.03
-2 -7 0 223.27 8.58
-2 -7 0 228.4 5.2
-2 -7 1 22.89 2.6
-2 -7 1 25.14 1.38
-2 -7 1 26.61 1.29
-2 -7 1 25.1 1.32
-2 -7 2 65.86 4.44
-2 -7 2 62.47 2.81
-2 -7 2 62.24 2.34
-2 -7 2 71.08 2.32
-2 -7 3 121.26 4.07
-2 -7 3 118.85 3.38
-2 -7 3 115.93 5.96
-2 -7 3 125.05 3.26
-2 -7 4 12.93 1.91
-2 -7 4 12.92 0.94
-2 -7 4 14.36 0.93
-2 -7 4 12.6 0.94
-2 -7 4 12.32 0.87
-2 -7 5 500.18 9.24
-2 -7 5 507.29 9.14
-2 -7 5 494.32 9.25
-2 -7 6 2.35 0.39
-2 -7 6 2.5 0.4
-2 -7 6 2.21 0.37
-2 -7 7 15.39 0.9
-2 -7 7 14.68 0.86
-2 -7 8 0.5 0.22
-2 -7 8 0.7 0.23
-2 -7 9 19.23 0.91
-2 -7 9 18.55 0.89
-2 -7 10 0.64 0.18
-2 -7 10 0.47 0.16
-2 -7 10 0.49 0.16
-2 -7 11 4.89 0.34
-2 -7 11 4.65 0.34
-2 -8 -6 0.07 0.09
-2 -8 -6 0.17 0.1
-2 -8 -5 17.47 0.79
-2 -8 -5 15.61 0.77
-2 -8 -4 18.72 0.89
-2 -8 -4 16.95 0.89
-2 -8 -3 7.9 0.58
-2 -8 -3 8.1 0.55
-2 -8 -3 7.46 0.62
-2 -8 -3 7.81 0.48
-2 -8 -2 2.23 0.34
-2 -8 -2 1.87 0.28
-2 -8 -1 88.42 2.52
-2 -8 -1 93.93 3.04
-2 -8 0 4.83 0.5
-2 -8 1 23.25 1.26
-2 -8 1 25.46 1.19
-2 -8 1 25.29 1.65
-2 -8 2 27.95 1.38
-2 -8 2 30.4 1.31
-2 -8 2 27.03 1.74
-2 -8 3 6.61 0.85
-2 -8 3 5.37 0.58
-2 -8 3 4.99 0.57
-2 -8 4 6.63 0.83
-2 -8 4 8.37 0.7
-2 -8 5 5.72 0.7
-2 -8 5 7.28 0.62
-2 -8 5 7.82 0.65
-2 -8 6 4.95 0.48
-2 -8 6 4.15 0.43
-2 -8 7 0.21 0.14
-2 -8 7 0.47 0.18
-2 -8 7 0.29 0.14
-2 -8 8 9.67 0.59
-2 -8 8 9.12 0.56
-2 -8 9 2.55 0.28
-2 -8 9 2.49 0.27
-2 -8 9 2.25 0.25
-2 -8 10 4.02 0.28
-2 -8 10 4.42 0.3
-2 -9 -3 17.88 0.71
-2 -9 -2 9.51 0.51
-2 -9 -2 11.65 0.61
-2 -9 -2 11.49 0.55
-2 -9 -2 10.68 0.6
-2 -9 -1 0.06 0.12
-2 -9 -1 0.13 0.17
-2 -9 -1 0.11 0.12
-2 -9 0 1.55 0.34
-2 -9 0 2.31 0.32
-2 -9 0 2.62 0.34
-2 -9 0 2.16 0.26
-2 -9 1 0.47 0.18
-2 -9 1 0.55 0.2
-2 -9 2 3.49 0.4
-2 -9 2 3.33 0.4
-2 -9 2 2.52 0.44
-2 -9 3 1.4 0.27
-2 -9 3 1.84 0.39
-2 -9 3 1.23 0.26
-2 -9 4 1.28 0.25
-2 -9 4 1.31 0.25
-2 -9 4 0.75 0.27
-2 -9 5 0.06 0.12
-2 -9 5 0.02 0.16
-2 -9 5 0.06 0.11
-2 -9 6 3.83 0.33
-2 -9 6 3.7 0.31
-2 -9 7 1.66 0.21
-2 -9 7 1.75 0.21
-2 -9 8 24.19 0.72
-2 -10 2 21.24 0.71
-2 -10 2 20.63 0.82
-3 11 -6 31.83 1.07
3 -11 6 31.02 0.83
-3 11 -5 19.28 0.71
3 -11 5 21.87 0.76
3 -11 5 21.78 0.68
-3 11 -5 20.08 0.76
-3 11 -5 20.66 0.94
-3 11 -4 0.73 0.26
-3 11 -4 1.32 0.22
3 -11 4 0.76 0.11
-3 11 -4 1.06 0.22
3 -11 4 1.26 0.16
-3 11 -3 6.8 0.49
-3 11 -3 7.71 0.47
-3 11 -2 0.56 0.19
-3 11 -2 0.6 0.16
3 -11 2 0.48 0.11
-3 11 -2 0.09 0.18
-3 11 -1 10 0.54
-3 11 -1 10.72 0.63
-3 11 0 36.05 1.07
3 -11 0 33.35 0.99
-3 11 1 12.1 0.66
-3 11 1 13.6 0.61
3 -11 -1 13.5 0.62
-3 11 1 13.69 0.66
3 -11 -2 0.08 0.14
-3 11 2 0.1 0.09
3 -11 -2 0.25 0.1
-3 11 2 0.01 0.09
-3 11 2 0.18 0.09
3 -11 -2 0.3 0.12
3 -11 -3 56.48 1.35
-3 11 3 48.25 1.19
3 -11 -4 1.39 0.17
3 -10 9 40.26 1
3 -10 8 0.13 0.09
3 -10 8 0.22 0.1
-3 10 -7 50.15 1.62
3 -10 7 52.86 1.3
-3 10 -6 11.3 0.82
3 -10 5 25.33 0.97
-3 10 -5 27.28 1.36
3 -10 4 10.3 0.6
-3 10 -4 10.49 0.71
-3 10 -4 9.98 0.88
-3 10 -4 10.75 0.68
3 -10 3 1.39 0.24
-3 10 -3 1.28 0.3
-3 10 -3 1.11 0.26
-3 10 -3 1.13 0.38
-3 10 -2 0.09 0.19
3 -10 2 0.02 0.1
-3 10 -2 0.23 0.16
-3 10 -1 0.23 0.21
-3 10 -1 0.27 0.17
3 -10 1 0.27 0.14
-3 10 -1 0.16 0.26
-3 10 0 0.63 0.26
-3 10 0 0.54 0.19
3 -10 0 0.49 0.19
-3 10 0 0.26 0.24
-3 10 1 31.35 1.28
3 -10 -1 28.67 1.17
-3 10 1 28.74 1.19
3 -10 -2 16.2 0.87
-3 10 2 17.22 0.89
-3 10 2 17.5 0.89
3 -10 -3 7.49 0.57
-3 10 3 6.87 0.54
-3 10 3 6.9 0.51
-3 10 3 7.4 0.52
3 -10 -4 30.9 1.17
-3 10 4 31.05 1.13
3 -10 -5 70.68 1.84
-3 10 5 72.83 1.79
-3 10 6 0.15 0.09
3 -10 -6 0.08 0.09
3 -9 10 28.35 0.89
3 -9 10 32.68 0.88
3 -9 9 103.87 2.35
3 -9 9 118.74 2.37
-3 9 -8 0.07 0.17
-3 9 -8 0.32 0.13
3 -9 8 0.27 0.14
3 -9 8 0.4 0.15
-3 9 -7 29.78 1.1
-3 9 -7 29.15 1.39
-3 9 -6 5.1 0.67
3 -9 6 8.15 0.58
3 -9 5 18.59 0.91
-3 9 -5 16.54 0.95
-3 9 -5 18.64 0.99
-3 9 -4 0.97 0.3
-3 9 -4 1.39 0.3
-3 9 -4 1.35 0.52
-3 9 -3 1.16 0.31
-3 9 -3 0.85 0.27
-3 9 -2 98.85 2.91
-3 9 -2 102.64 2.47
-3 9 -2 107.57 2.86
-3 9 -1 1.28 0.35
-3 9 -1 2.11 0.38
-3 9 -1 0.94 0.44
-3 9 0 93.55 2.71
3 -9 0 86.15 2.45
-3 9 0 82.91 2.54
-3 9 0 86.94 2.91
-3 9 1 0.32 0.25
-3 9 1 0.42 0.23
3 -9 -1 0.16 0.18
-3 9 1 0.5 0.29
3 -9 -2 56.41 1.95
-3 9 2 54.85 1.95
3 -9 -3 11.85 0.85
-3 9 3 11.61 0.84
-3 9 3 12.39 0.78
3 -9 -4 34.35 1.45
-3 9 4 33 1.41
-3 9 4 31.9 1.25
-3 9 4 28.87 1.15
3 -9 -5 36.31 1.47
-3 9 5 36.24 1.43
3 -9 -6 0.27 0.18
-3 9 6 0.42 0.18
3 -9 -7 0.63 0.19
-3 9 7 0.81 0.19
3 -9 -8 5.94 0.39
-3 9 8 5.93 0.38
3 -9 -8 4.84 0.34
3 -8 11 4.25 0.3
3 -8 11 4.15 0.3
3 -8 10 10.45 0.56
3 -8 10 10.82 0.57
3 -8 9 12.53 0.67
-3 8 -9 13.24 0.64
3 -8 8 52.59 1.57
3 -8 8 51.33 1.54
3 -8 7 0.59 0.2
-3 8 -7 0.02 0.23
3 -8 6 39.35 1.41
-3 8 -6 35.78 1.83
-3 8 -6 38.58 1.53
3 -8 5 57.62 1.81
-3 8 -5 57.19 1.94
-3 8 -5 61.63 1.98
-3 8 -4 206.05 4.63
-3 8 -4 222.32 4.6
-3 8 -3 255.76 9.09
-3 8 -3 234.55 5.31
-3 8 -3 237.05 5.2
-3 8 -3 253.14 4.94
-3 8 -2 220.25 4.93
-3 8 -2 214.15 4.78
-3 8 -2 216.5 4.44
-3 8 -2 214.33 5.54
-3 8 -1 398.49 7.52
-3 8 -1 372.75 11.58
-3 8 -1 382.87 7.36
-3 8 -1 375.36 6.94
-3 8 0 148.04 4.28
3 -8 0 147.37 3.62
-3 8 0 158.28 3.84
-3 8 0 151.86 3.84
-3 8 0 150.49 6.77
-3 8 0 156.58 3.5
-3 8 0 146.14 6.01
-3 8 1 224.06 5.43
-3 8 1 237.85 8.71
3 -8 -1 231.56 5.06
-3 8 1 232.66 5.19
-3 8 1 243.18 4.85
-3 8 1 223.32 7.94
-3 8 2 29.19 1.37
-3 8 2 24.63 2.6
-3 8 2 29.33 1.44
3 -8 -2 27.56 1.35
-3 8 2 27.24 1.4
-3 8 3 97.63 2.82
-3 8 3 105 4.85
-3 8 3 129.56 3.14
-3 8 3 131.77 3.43
3 -8 -3 119.94 3.24
-3 8 4 5.84 0.54
-3 8 4 5.77 0.66
3 -8 -4 5.54 0.61
-3 8 5 57.5 2.08
3 -8 -5 57.85 2.08
-3 8 5 50.03 1.55
-3 8 5 48.56 1.58
-3 8 6 97.5 2.85
3 -8 -6 99.77 2.84
-3 8 7 36.84 1.51
3 -8 -7 38.92 1.53
-3 8 8 16.94 0.9
3 -8 -8 17.13 0.89
-3 8 9 11.68 0.64
3 -7 12 4.49 0.3
3 -7 11 11.72 0.6
3 -7 11 11.06 0.56
3 -7 10 1.69 0.26
3 -7 10 1.18 0.21
3 -7 9 14.82 0.78
-3 7 -9 13.66 0.73
3 -7 9 13.73 0.74
-3 7 -8 14.57 0.8
3 -7 8 14.1 0.78
-3 7 -7 127.92 3.51
3 -7 7 114.84 2.86
3 -7 6 17.29 0.9
-3 7 -6 20.78 1.08
-3 7 -6 18.66 1.28
-3 7 -5 192.66 4.28
-3 7 -5 205.12 7.37
-3 7 -5 211.37 4.39
-3 7 -4 130.62 5.91
-3 7 -4 124.13 3.24
-3 7 -4 122.73 3.2
-3 7 -4 135.22 3.05
-3 7 -4 131.75 3.96
-3 7 -3 2.04 0.37
-3 7 -3 2.27 0.84
-3 7 -3 1.94 0.35
-3 7 -3 2.18 0.33
-3 7 -2 47.69 1.78
-3 7 -2 48.82 1.75
-3 7 -2 50.64 1.65
-3 7 -1 15.93 0.98
-3 7 -1 17.37 0.93
-3 7 -1 16.27 0.97
-3 7 0 689.01 11.85
-3 7 0 713.39 16.63
-3 7 0 672.56 11.77
-3 7 0 652.36 11.46
-3 7 1 38.13 1.83
3 -7 -1 37.7 1.52
-3 7 1 39.63 1.63
-3 7 1 42.26 3.26
-3 7 1 37.06 1.45
-3 7 1 38.7 2.83
-3 7 2 91.83 4.85
-3 7 2 89.08 2.57
-3 7 2 83.38 2.66
3 -7 -2 88.02 2.59
-3 7 2 79.49 2.39
-3 7 2 87.92 4.53
-3 7 3 153.87 6.32
-3 7 3 139.09 3.56
-3 7 3 155.31 3.99
3 -7 -3 160.5 3.89
-3 7 3 156.49 3.7
-3 7 3 151.62 6.31
-3 7 3 153.39 3.64
-3 7 4 1.47 0.29
-3 7 4 1.92 0.41
3 -7 -4 2.1 0.4
-3 7 4 2.85 0.41
-3 7 4 1.8 0.73
-3 7 4 1.85 0.61
-3 7 5 -0.05 0.13
-3 7 5 0.08 0.13
3 -7 -5 0.2 0.2
-3 7 5 0.15 0.21
3 -7 -6 0.18 0.22
-3 7 6 0.29 0.24
-3 7 7 11.26 0.9
3 -7 -7 11.86 0.9
-3 7 8 25.74 1.32
3 -7 -8 25.04 1.26
-3 7 9 7.84 0.65
3 -7 -10 0.67 0.18
-3 7 10 0.56 0.18
-3 7 11 11.76 0.53
-3 6 -13 0.77 0.13
3 -6 13 1.61 0.16
3 -6 12 1.44 0.21
3 -6 11 1.2 0.22
3 -6 10 32.95 1.17
-3 6 -10 32.07 1.17
3 -6 10 34.12 1.24
3 -6 9 68.67 1.89
-3 6 -9 65.9 1.93
3 -6 9 69.83 1.95
3 -6 8 1.35 0.25
-3 6 -8 1.15 0.25
3 -6 7 33.16 1.25
3 -6 6 232.01 4.78
-3 6 -6 225.69 4.96
-3 6 -5 28.21 1.56
-3 6 -5 31.08 2.31
-3 6 -5 36.03 1.32
-3 6 -5 34.52 1.36
-3 6 -4 86.58 2.39
-3 6 -4 84.26 2.36
-3 6 -4 89.94 2.27
-3 6 -3 69.72 2.13
-3 6 -3 75.64 4.13
-3 6 -3 73.71 2.12
-3 6 -3 71.54 1.99
-3 6 -3 68.45 2.56
-3 6 -2 1.36 0.29
-3 6 -2 0.99 0.24
-3 6 -2 0.89 0.22
-3 6 -1 473.08 8.73
-3 6 -1 499.1 12.45
-3 6 -1 484.71 8.59
-3 6 -1 477.22 8.67
-3 6 0 13.74 0.85
-3 6 0 14.64 1.78
-3 6 0 14.02 0.86
-3 6 0 14.96 0.83
-3 6 1 406 8.06
-3 6 1 412.56 11.21
-3 6 1 400.7 7.7
3 -6 -1 402.96 7.52
-3 6 1 408.37 7.62
-3 6 2 101.62 4.56
-3 6 2 106.94 2.9
-3 6 2 102.39 4.9
-3 6 2 93.71 2.6
-3 6 2 98.04 2.69
-3 6 2 99.17 2.83
-3 6 3 61.23 3.61
-3 6 3 59.3 3.31
-3 6 3 60.84 2.01
-3 6 3 67.63 2.04
-3 6 3 58.45 2.11
-3 6 3 56.09 1.96
-3 6 3 57.39 1.87
-3 6 3 58.32 3.58
-3 6 4 29.15 1.21
-3 6 4 27.87 1.44
-3 6 4 27.97 1.34
-3 6 4 27.72 2.5
-3 6 4 25.02 2.05
-3 6 4 28.41 1.36
-3 6 5 2.01 0.3
-3 6 5 2.12 0.38
-3 6 5 2.11 0.6
-3 6 5 2.21 0.39
-3 6 5 1.95 0.32
-3 6 5 3.56 0.54
-3 6 6 136.9 3.57
-3 6 6 136.93 3.56
-3 6 7 10.76 0.82
-3 6 7 9.81 0.79
3 -6 -8 72.67 2.5
-3 6 8 79.14 2.4
3 -6 -9 38.07 1.62
-3 6 10 22.66 1.13
3 -6 -10 19.79 1.05
-3 6 11 33.65 1.22
3 -6 -11 29.95 1.07
3 -6 -11 31.23 1.14
-3 6 12 16.64 0.64
3 -5 13 55.35 1.27
-3 5 -13 41.14 1.26
3 -5 12 4.8 0.38
-3 5 -12 4.59 0.45
3 -5 11 0.59 0.18
-3 5 -11 0.41 0.15
3 -5 10 77.45 2.08
-3 5 -10 70.29 2
3 -5 9 28.95 1.15
3 -5 9 28.19 1.09
-3 5 -9 28.74 1.18
3 -5 8 41.9 1.39
-3 5 -8 43.22 1.53
3 -5 7 1.04 0.22
-3 5 -7 0.9 0.24
3 -5 6 2.5 0.31
-3 5 -6 2.23 0.66
-3 5 -5 174.56 6.14
-3 5 -5 181.86 3.84
-3 5 -5 191.41 4
-3 5 -4 45.53 1.85
-3 5 -4 41.12 1.45
-3 5 -4 42.67 2.79
-3 5 -4 42.15 2.56
-3 5 -4 43.23 1.38
-3 5 -4 47.69 1.51
-3 5 -3 73.94 2.06
-3 5 -3 78.58 2.01
-3 5 -3 81.05 2.08
-3 5 -2 40.05 1.45
-3 5 -2 50.59 1.96
-3 5 -2 48.12 1.48
-3 5 -2 43.57 1.46
-3 5 -1 4.87 0.46
-3 5 -1 5.8 1.07
-3 5 -1 4.66 0.43
-3 5 -1 4.86 0.44
-3 5 0 385.5 7.16
-3 5 0 436.13 7.8
-3 5 0 364.44 7.1
-3 5 0 391.69 10.21
-3 5 0 387.77 7.15
-3 5 0 414.26 9.1
-3 5 1 18.74 0.97
-3 5 1 19.7 0.91
-3 5 1 19.74 1.66
-3 5 1 18.6 0.94
-3 5 1 22.71 2.04
-3 5 2 13.45 1.58
-3 5 2 15.03 0.82
-3 5 2 16.6 0.92
-3 5 2 14.89 0.81
-3 5 2 14.09 0.84
-3 5 2 14.4 1.5
-3 5 3 91.07 2.4
-3 5 3 100.62 4.44
-3 5 3 92.31 2.48
-3 5 3 97.34 2.63
-3 5 3 96.69 4.02
-3 5 3 97.66 2.55
-3 5 3 95.77 4.26
-3 5 4 36.48 2.34
-3 5 4 37.19 1.49
-3 5 4 42.59 2.96
-3 5 4 41.56 1.62
-3 5 4 39.64 1.37
-3 5 5 1.87 0.36
-3 5 5 1.07 0.43
-3 5 5 1.77 0.34
-3 5 6 212.25 4.95
-3 5 6 215.43 4.84
3 -5 -7 25.44 1.38
-3 5 7 27.35 1.43
-3 5 7 28.12 2.71
-3 5 7 30.5 1.42
-3 5 8 27.76 1.43
3 -5 -8 26.12 1.41
-3 5 8 29.65 1.38
3 -5 -9 191.54 4.73
-3 5 9 196.37 4.59
-3 5 9 204.49 4.47
3 -5 -10 88.07 2.68
-3 5 10 83.42 2.44
-3 5 10 88.37 2.39
3 -5 -11 20.95 1.06
-3 5 11 19.71 0.9
3 -5 -12 44.54 1.34
-3 5 12 41.16 1.32
-3 4 -13 30.85 1.07
3 -4 13 33.93 0.98
-3 4 -12 136.26 2.71
3 -4 12 138.52 2.72
-3 4 -11 14.4 0.76
3 -4 11 15.62 0.78
3 -4 10 32.61 1.48
-3 4 -10 46.89 1.52
3 -4 9 17.4 0.99
-3 4 -9 23.89 1.09
3 -4 8 16.46 0.83
-3 4 -8 18.51 0.94
-3 4 -7 19.97 0.96
3 -4 6 0.92 0.18
-3 4 -6 0.64 0.38
-3 4 -5 0.86 0.24
-3 4 -5 0.46 0.34
-3 4 -5 0.36 0.13
-3 4 -5 0.39 0.14
-3 4 -4 11.74 1.23
-3 4 -4 11.86 0.8
-3 4 -4 10.18 1.29
-3 4 -4 10.33 0.59
-3 4 -4 10.67 0.61
-3 4 -3 200.91 6.07
-3 4 -3 190.25 5.47
-3 4 -2 52.35 1.84
-3 4 -2 64.54 2.98
-3 4 -1 73.49 2.57
-3 4 -1 81.53 3.68
-3 4 -1 76.72 3.31
-3 4 0 590.71 11.2
-3 4 0 569.36 12.66
-3 4 1 24.38 1.64
-3 4 1 19.6 1.76
-3 4 1 22.02 1.68
-3 4 2 437.51 9.99
-3 4 2 433.53 10.42
-3 4 2 432.43 9.97
-3 4 3 29.31 2.13
-3 4 3 28.2 1.21
-3 4 3 30.37 2.19
-3 4 3 27.91 1.92
-3 4 4 193.44 6.14
-3 4 4 189.62 3.88
-3 4 4 191.42 4.17
-3 4 4 200.18 4.36
-3 4 4 187.05 3.94
-3 4 4 196.72 5.7
-3 4 4 202.99 4.18
-3 4 5 84.15 2.55
-3 4 5 83.44 2.44
-3 4 5 89.57 2.43
-3 4 5 82.11 3.32
-3 4 6 68.21 2.28
-3 4 6 68.56 2.17
-3 4 6 72.28 2.38
-3 4 7 306.51 6.19
3 -4 -7 294.45 6.31
-3 4 8 272.8 5.57
-3 4 8 261 8.91
-3 4 8 256.61 5.8
-3 4 9 40.71 1.78
-3 4 9 39.61 1.61
-3 4 9 37.82 1.74
3 -4 -9 38.85 1.75
-3 4 10 226.8 5.08
-3 4 10 217.26 4.71
3 -4 -10 214.45 5.04
-3 4 10 213.31 4.96
-3 4 11 167.7 3.96
-3 4 11 169.98 3.69
-3 4 11 175.8 4
3 -4 -11 169.59 4.1
3 -4 -12 25.65 1.15
-3 4 12 24.76 1.03
3 -4 -13 1.88 0.24
-3 3 -13 24.34 0.95
-3 3 -13 19.73 0.91
-3 3 -12 2.61 0.31
3 -3 12 2.92 0.31
-3 3 -12 2.68 0.38
-3 3 -12 2.53 0.44
-3 3 -11 165.44 3.7
-3 3 -11 145.86 3.19
3 -3 10 20.11 1.05
-3 3 -10 26.26 1.14
3 -3 9 13.89 0.85
-3 3 -9 17.47 0.93
3 -3 8 2.17 0.29
-3 3 -8 2.69 0.37
-3 3 -7 306.04 5.94
-3 3 -7 329.57 6.04
-3 3 -6 4.84 0.44
-3 3 -6 3.43 0.37
-3 3 -5 18.37 1.62
-3 3 -5 16.12 0.79
-3 3 -4 409.23 9.55
-3 3 -4 394.53 8.95
-3 3 -3 0.51 0.35
-3 3 -3 0.64 0.32
-3 3 -2 235.71 6.3
-3 3 -1 84.51 3.6
-3 3 -1 92.02 2.45
-3 3 -1 85.71 3.38
-3 3 0 306.01 8.09
-3 3 0 318.67 7.8
-3 3 1 85.5 3.59
-3 3 1 86.65 3.05
-3 3 1 82.77 3.27
-3 3 2 76.86 3.39
-3 3 2 73.6 3.08
-3 3 3 22.9 1.79
-3 3 3 22.82 1.77
-3 3 3 20.98 1.57
-3 3 4 227.15 4.47
-3 3 4 237.55 6.19
-3 3 4 239.61 6.74
-3 3 5 920.59 15.93
-3 3 5 928.66 17.3
-3 3 5 945.1 15.61
-3 3 5 914.03 15.57
-3 3 5 952.65 15.37
-3 3 6 2.25 0.32
-3 3 6 2.21 0.39
-3 3 6 2.24 0.35
-3 3 6 1.29 0.58
-3 3 7 861.74 14.62
-3 3 7 801.22 14.01
-3 3 7 778.1 14.16
-3 3 7 871.74 18.67
-3 3 8 33.81 2.85
-3 3 8 35.23 1.72
-3 3 8 33.43 1.47
-3 3 9 73.53 2.63
3 -3 -9 71.89 3.63
-3 3 9 72.97 2.33
-3 3 9 73.7 2.53
-3 3 9 69.85 4.28
-3 3 10 17.78 1.02
-3 3 10 18.84 1.2
-3 3 10 19.25 1.25
-3 3 11 0.55 0.25
-3 3 11 0.37 0.18
3 -3 -11 0.09 0.17
-3 3 12 69.12 2.17
3 -3 -12 67.67 2.14
-3 3 12 71.68 2.12
-3 3 13 35.03 1.17
3 -3 -13 36.35 1.27
-3 3 13 33.56 1.19
-3 2 -13 42.06 1.32
-3 2 -13 36.26 1.1
-3 2 -12 60.56 1.9
-3 2 -12 58.63 1.7
-3 2 -12 59.15 2.22
-3 2 -11 0.58 0.26
-3 2 -11 0.48 0.21
-3 2 -10 27.57 1.39
-3 2 -10 21.38 1.08
3 -2 10 25.17 2.34
-3 2 -9 20.52 1.04
-3 2 -8 312.76 6.06
-3 2 -7 14.12 0.75
-3 2 -7 14.48 0.81
-3 2 -6 75.87 2.02
-3 2 -6 74.39 2
-3 2 -5 3.49 0.36
-3 2 -5 3.72 0.36
-3 2 -5 4.02 0.75
-3 2 -4 136.85 4.18
-3 2 -4 144.66 4.92
-3 2 -3 405.22 8.86
-3 2 -3 406.97 9.59
-3 2 -2 37.83 2.07
-3 2 -2 38.44 2.14
-3 2 -1 195.77 5.41
-3 2 -1 203.14 3.73
-3 2 -1 216.08 5.72
-3 2 -1 204.48 5.99
-3 2 0 152.84 4.59
-3 2 0 157.5 3.66
-3 2 0 158.8 4.79
-3 2 0 153.58 5.03
-3 2 1 1.59 0.45
-3 2 1 1.15 0.32
-3 2 1 0.65 0.34
-3 2 2 18.23 1.32
-3 2 2 15.85 1.34
-3 2 2 14.59 1.4
-3 2 3 62.77 2.72
-3 2 3 65.01 2.91
-3 2 3 64.84 3.08
-3 2 4 59.97 2.58
-3 2 4 66.85 3.12
-3 2 4 57.95 2
-3 2 4 65.47 3.12
-3 2 5 74.77 1.93
-3 2 5 72.11 2.79
-3 2 5 72.12 2.02
-3 2 5 78.72 2.34
-3 2 5 69.48 1.94
-3 2 5 68.85 2.6
-3 2 6 2.47 0.33
-3 2 6 2.01 0.43
-3 2 6 2.05 0.32
-3 2 6 2.28 0.4
-3 2 6 1.85 0.32
-3 2 6 1.76 0.46
-3 2 6 2.03 0.63
-3 2 7 2.52 0.34
-3 2 7 2.35 0.37
-3 2 7 2.2 0.44
-3 2 7 1.73 0.35
-3 2 7 1.76 0.69
-3 2 8 6.88 0.75
-3 2 8 6.52 0.62
3 -2 -8 6.3 1.02
-3 2 8 5.49 1.15
-3 2 8 5.63 0.49
3 -2 -9 202.79 4.55
-3 2 9 200.87 4.56
-3 2 9 192.17 4.66
-3 2 9 195.26 7.57
-3 2 10 107.92 2.95
-3 2 10 109.2 3.19
3 -2 -10 107.45 2.97
-3 2 10 113.09 3.45
-3 2 11 8.26 0.78
-3 2 11 8.39 0.83
3 -2 -11 7.18 0.65
-3 2 12 15.9 0.83
-3 2 12 18.31 1.12
3 -2 -12 16.16 0.9
-3 2 12 17.64 1.04
3 -2 -12 17.85 1.06
-3 2 13 35.91 1.31
3 -2 -13 37.9 1.39
-3 2 13 33.88 1.34
3 -2 -14 2.71 0.27
-3 2 14 2.8 0.25
-3 2 14 3 0.27
-3 1 -13 27.53 1.02
-3 1 -12 5.53 0.47
-3 1 -12 5.47 0.64
-3 1 -12 5.2 0.52
-3 1 -11 17.01 0.93
-3 1 -11 18.11 1.03
-3 1 -11 18.51 1.07
-3 1 -10 139.76 3.45
-3 1 -10 143.13 3.77
-3 1 -9 0.39 0.21
-3 1 -9 1.11 0.32
-3 1 -9 0.42 0.25
3 -1 9 0.56 0.57
-3 1 -8 291.68 5.65
-3 1 -8 287.46 6.03
-3 1 -7 482.33 8.23
-3 1 -7 490.5 8.45
-3 1 -6 553.32 9.62
-3 1 -6 570.67 9.74
-3 1 -5 13.7 0.71
-3 1 -5 15.39 1.34
-3 1 -4 126.47 2.82
-3 1 -4 129.96 4.23
-3 1 -4 141.38 4.7
-3 1 -4 129.69 2.75
-3 1 -4 129.44 3.96
-3 1 -3 216.07 5.99
-3 1 -3 212.68 5.59
-3 1 -2 231.18 6.07
-3 1 -2 239.52 6.5
-3 1 -2 211.46 5.93
-3 1 -2 208.13 5.56
-3 1 -1 586.91 12.44
-3 1 -1 629.22 12.95
-3 1 -1 626.57 12.43
-3 1 -1 600.42 11.91
-3 1 0 304.9 7.48
-3 1 0 283.65 7.35
-3 1 0 291.95 6.92
-3 1 1 1.03 0.36
-3 1 1 0.97 0.36
-3 1 1 0.52 0.3
-3 1 1 0.8 0.39
-3 1 1 0.62 0.23
-3 1 2 239.9 6.58
-3 1 2 230.37 5.64
-3 1 3 7.32 0.86
-3 1 3 7.27 0.94
-3 1 3 7.01 0.97
-3 1 3 7.11 0.89
-3 1 3 9.4 0.68
-3 1 4 16.2 1.24
-3 1 4 13.89 1.36
-3 1 4 13.25 1.01
-3 1 4 12.24 1.2
-3 1 4 13.88 1.37
-3 1 5 13.3 0.71
-3 1 5 12.72 1.08
-3 1 5 14.72 0.92
-3 1 5 12.75 1.13
-3 1 5 13.26 1.22
-3 1 6 196.65 4.15
-3 1 6 192.96 4.03
-3 1 6 204.53 4.93
-3 1 6 204.48 4.22
-3 1 6 213.48 4.72
-3 1 6 190.3 6.5
-3 1 6 189.66 5.64
-3 1 6 184.22 4.21
-3 1 7 420.8 7.67
-3 1 7 400.6 7.34
-3 1 7 410.05 7.64
3 -1 -7 422.7 9.82
-3 1 7 426.86 8.28
-3 1 7 437.49 11.11
-3 1 7 387.43 7.73
-3 1 8 89.95 2.35
-3 1 8 95.83 3.1
-3 1 8 91.68 2.77
-3 1 8 97.7 4.91
-3 1 8 100.17 2.73
3 -1 -8 97.06 4.18
-3 1 9 106.28 2.91
3 -1 -9 103.74 4.53
-3 1 9 95.44 2.85
-3 1 9 110.11 3.41
-3 1 9 99.56 5.15
-3 1 9 97.37 3.01
-3 1 10 27.74 1.59
-3 1 10 28.98 1.34
-3 1 10 28.23 1.41
-3 1 10 24.82 1.37
-3 1 11 13.32 0.86
-3 1 11 13.74 1
-3 1 11 15.02 1.13
3 -1 -11 16.37 0.99
-3 1 12 1.48 0.28
-3 1 12 2.07 0.39
-3 1 12 1.82 0.41
3 -1 -12 1.8 0.32
3 -1 -13 6.48 0.58
-3 1 13 5.12 0.5
-3 1 13 5.35 0.58
3 -1 -13 5.9 0.49
-3 1 14 77.16 1.86
-3 1 14 73.92 1.79
-3 0 -13 10.37 0.56
-3 0 -13 9.53 0.62
-3 0 -12 21.03 1
-3 0 -12 19.2 0.89
-3 0 -12 22.88 1.24
-3 0 -12 21.62 0.93
-3 0 -11 81.28 2.44
-3 0 -11 84.26 2.93
-3 0 -11 77.79 2.42
-3 0 -11 80 2.27
-3 0 -10 90.27 2.7
-3 0 -10 84.36 2.45
-3 0 -9 34.8 1.7
-3 0 -9 37.35 1.66
-3 0 -9 34.23 1.47
3 0 9 40.17 3.16
-3 0 -8 543.37 9.4
-3 0 -8 467.11 9.73
-3 0 -7 444.36 7.94
-3 0 -7 434.11 8.01
3 0 7 428.54 11.8
-3 0 -7 453.14 7.71
-3 0 -6 0.99 0.24
-3 0 -6 1.62 0.31
-3 0 -6 1.38 0.3
-3 0 -6 0.78 0.21
-3 0 -5 303.65 5.38
-3 0 -5 272.7 5.79
-3 0 -5 259.98 5.54
-3 0 -5 291.33 5.67
-3 0 -5 291.65 7.08
-3 0 -4 1.07 0.2
-3 0 -4 1.29 0.36
-3 0 -4 2 0.27
-3 0 -4 1.19 0.24
-3 0 -4 0.88 0.38
-3 0 -4 0.82 0.35
-3 0 -3 488.38 11.06
-3 0 -3 512.45 11.19
-3 0 -3 514.85 10.49
-3 0 -2 813.52 15.4
-3 0 -2 735.47 15.37
-3 0 -2 826.26 15.87
-3 0 -2 763.06 14.59
-3 0 -1 407.23 9.33
-3 0 -1 399.18 8.71
-3 0 0 1078.17 19.97
-3 0 0 1068.78 19.33
-3 0 1 106.35 4.07
-3 0 1 102.02 3.8
-3 0 1 96.47 3.41
-3 0 2 49.92 2.66
-3 0 2 57.3 2.9
-3 0 2 48.54 1.87
-3 0 2 53.07 2.34
-3 0 3 705.21 13.77
-3 0 3 723.3 14.6
-3 0 3 743.65 14.67
-3 0 3 737.58 14.46
-3 0 3 687.73 13.17
-3 0 4 0.69 0.33
-3 0 4 0.47 0.24
-3 0 4 0.86 0.38
-3 0 4 0.8 0.37
-3 0 4 0.57 0.31
-3 0 4 0.88 0.42
-3 0 5 47.36 1.49
-3 0 5 48.08 1.56
3 0 -5 49.07 2.42
-3 0 5 50.47 2.24
-3 0 5 56.18 1.91
-3 0 5 53.86 2.66
-3 0 5 50.72 2.62
-3 0 5 46.85 2.49
-3 0 6 8.87 0.62
-3 0 6 7.31 0.57
3 0 -6 9.87 1.14
-3 0 6 7.66 0.59
-3 0 6 8.41 0.74
-3 0 6 7.58 1.2
-3 0 6 8.09 1.09
-3 0 6 6.36 0.55
-3 0 7 4.2 0.49
-3 0 7 5.77 0.51
3 0 -7 4.05 0.8
-3 0 7 4.74 0.5
-3 0 7 4.66 0.58
-3 0 7 4.52 0.96
-3 0 7 4.52 0.9
-3 0 7 4.89 0.52
-3 0 8 220.87 4.6
-3 0 8 228.91 5.47
-3 0 8 238.81 5.13
-3 0 8 230.35 7.9
-3 0 8 211.41 7.3
-3 0 8 233.99 5
3 0 -8 241.11 7.17
3 0 -9 20.08 1.95
-3 0 9 21.43 1.16
-3 0 9 20.58 1.15
-3 0 9 20.74 1.36
-3 0 9 21.15 2.28
-3 0 9 20.79 1.2
-3 0 10 2.14 0.48
-3 0 10 2.27 0.39
-3 0 10 1.85 0.39
-3 0 10 2.12 0.4
-3 0 11 11.32 0.97
-3 0 11 9.82 0.74
-3 0 11 8.41 0.75
-3 0 11 9.44 0.78
-3 0 12 121.02 2.96
-3 0 12 126.37 3.23
3 0 -12 122.31 3.14
-3 0 13 95.75 2.26
-3 0 13 100.14 2.55
-3 0 13 107.76 2.78
3 0 -13 104.03 2.53
-3 0 14 9.26 0.54
3 0 -14 8.64 0.48
-3 0 14 9.41 0.53
3 0 -14 8.2 0.52
-3 -1 -12 26.78 1.02
-3 -1 -12 26.4 1.21
-3 -1 -12 27.8 1.11
-3 -1 -11 43.47 1.52
-3 -1 -11 41.25 1.61
-3 -1 -11 42.84 1.88
-3 -1 -11 42.76 1.62
-3 -1 -10 20.87 1.11
-3 -1 -10 21.5 1.21
-3 -1 -10 20.29 1.23
-3 -1 -10 20.76 1.43
-3 -1 -9 30.8 1.64
-3 -1 -9 32.13 1.46
-3 -1 -9 31.64 1.34
-3 -1 -9 35.38 1.62
3 1 9 30.13 2.82
-3 -1 -8 153.41 3.76
-3 -1 -8 154.33 3.74
-3 -1 -8 160.62 3.43
-3 -1 -7 17.19 1.19
-3 -1 -7 16.97 0.99
-3 -1 -7 17.63 0.89
-3 -1 -7 16.34 1.06
3 1 7 18.54 2.17
-3 -1 -7 15.97 1.03
-3 -1 -6 191.77 4.48
-3 -1 -6 202.38 4.48
-3 -1 -6 191.06 4.03
-3 -1 -5 295.55 7.63
3 1 5 339.71 9.5
-3 -1 -5 309.13 6.42
-3 -1 -5 323.95 6.92
-3 -1 -5 291.28 5.75
-3 -1 -5 297.89 6.21
-3 -1 -5 306.25 6.07
-3 -1 -5 306.07 5.73
-3 -1 -4 1 0.21
-3 -1 -4 0.91 0.4
-3 -1 -4 1.98 0.32
-3 -1 -4 1.75 0.38
-3 -1 -4 1.37 0.23
-3 -1 -4 1.03 0.26
-3 -1 -4 1.05 0.24
-3 -1 -4 0.91 0.2
-3 -1 -3 74.23 2.4
-3 -1 -3 63.94 2.02
-3 -1 -3 63.66 1.73
-3 -1 -3 69.88 3.36
-3 -1 -3 70.99 3.23
-3 -1 -3 61.06 1.67
-3 -1 -3 73.62 2.89
-3 -1 -2 5.56 0.41
-3 -1 -2 4.79 0.86
-3 -1 -2 5.07 0.86
-3 -1 -2 6.31 0.8
-3 -1 -1 194.67 5.93
-3 -1 -1 195.75 5.38
-3 -1 0 0.92 0.41
-3 -1 0 0.2 0.21
-3 -1 1 51.48 2.77
-3 -1 1 49.96 2.82
-3 -1 1 50.64 2.38
-3 -1 2 202.18 5.51
-3 -1 2 196.49 6.03
-3 -1 2 199.52 6.34
-3 -1 2 218.49 5.43
-3 -1 3 110.68 3.7
3 1 -3 101.03 3.23
-3 -1 3 113.67 3.77
-3 -1 3 107.57 4.17
-3 -1 3 100.82 4.24
-3 -1 4 55.66 1.65
-3 -1 4 47.83 1.59
-3 -1 4 53.86 2.45
3 1 -4 47.67 2.24
-3 -1 4 49.5 1.7
-3 -1 4 52.55 2.64
-3 -1 4 45.98 2.74
-3 -1 4 47.51 2.66
-3 -1 5 1.76 0.26
-3 -1 5 0.96 0.24
3 1 -5 1.44 0.45
-3 -1 5 1.26 0.29
-3 -1 5 0.68 0.2
-3 -1 5 1 0.42
-3 -1 5 0.79 0.4
-3 -1 5 1.19 0.47
-3 -1 6 718.2 12.06
-3 -1 6 697.85 12.11
3 1 -6 716.7 14.47
-3 -1 6 730.32 12.67
-3 -1 6 660.31 12.07
-3 -1 6 669.99 15.1
-3 -1 6 758.98 14.27
-3 -1 7 29.32 1.27
-3 -1 7 27.68 1.13
-3 -1 7 28.31 1.22
3 1 -7 28.52 2.15
-3 -1 7 31.41 1.34
-3 -1 7 27.16 1.46
-3 -1 7 28.12 1.3
-3 -1 7 27.44 2.36
-3 -1 7 25.44 1.18
-3 -1 8 188.54 4.12
-3 -1 8 190.53 4.8
3 1 -8 200.66 6.54
-3 -1 8 203.57 4.47
-3 -1 8 173.95 6.85
-3 -1 8 186.59 4.29
-3 -1 9 182.6 4.23
-3 -1 9 182.99 4.74
3 1 -9 169.72 6.32
-3 -1 9 195.51 4.31
-3 -1 9 166.6 6.85
-3 -1 9 164.89 4.14
-3 -1 10 4.46 0.52
-3 -1 10 5.21 0.6
-3 -1 10 4.49 0.53
-3 -1 10 4.49 0.64
-3 -1 11 3.71 0.46
-3 -1 11 3.2 0.47
-3 -1 11 2.61 0.41
-3 -1 11 3.38 0.55
-3 -1 12 2.67 0.45
3 1 -12 1.67 0.32
-3 -1 12 1.87 0.36
-3 -1 12 1.79 0.3
-3 -1 13 70.62 2.07
3 1 -13 68.32 1.91
-3 -1 13 65.51 1.9
-3 -1 13 66.87 1.73
-3 -1 14 15.07 0.66
-3 -1 14 14.43 0.64
-3 -2 -12 25.12 0.92
-3 -2 -12 19.67 0.82
-3 -2 -11 162.4 3.53
-3 -2 -11 148.31 3.43
-3 -2 -10 6.75 0.5
-3 -2 -10 8.23 0.73
-3 -2 -10 8.08 0.74
-3 -2 -10 7.63 0.78
-3 -2 -9 3.74 0.45
-3 -2 -9 4.73 0.55
-3 -2 -9 5.18 0.61
-3 -2 -9 4.25 0.58
-3 -2 -9 4.95 0.7
-3 -2 -8 40.96 1.98
-3 -2 -8 48.81 2.29
-3 -2 -8 44.08 1.77
-3 -2 -8 45.19 1.52
3 2 8 45.41 3.58
-3 -2 -8 43.94 1.79
-3 -2 -7 66.71 2.67
-3 -2 -7 80.95 3.04
-3 -2 -7 75.78 2.57
-3 -2 -7 81.67 2.23
-3 -2 -7 78.37 2.61
3 2 7 71 4.5
-3 -2 -6 128.78 3.86
-3 -2 -6 147.03 4.28
-3 -2 -6 142.7 3.51
-3 -2 -6 136.37 3.73
-3 -2 -6 151.06 3.35
-3 -2 -6 140.29 3.67
3 2 6 133.99 6.19
3 2 5 72.86 4.21
-3 -2 -5 63.58 2.39
-3 -2 -5 76.83 2.77
-3 -2 -5 64.74 2.03
-3 -2 -5 62.9 2.28
-3 -2 -5 69.93 2
-3 -2 -5 63.82 2.16
-3 -2 -5 66.76 3.25
-3 -2 -4 84.22 3.97
-3 -2 -4 93.02 2.88
-3 -2 -4 98.87 3.1
-3 -2 -4 89.03 2.64
3 2 4 90.29 4.49
-3 -2 -4 90.73 2.39
-3 -2 -4 90.08 2.37
-3 -2 -4 97.54 2.6
-3 -2 -4 89.69 2.4
-3 -2 -3 72.55 3.54
-3 -2 -3 74.63 3.74
-3 -2 -3 60.62 2.2
3 2 3 78.19 3.88
-3 -2 -3 79.67 2.46
-3 -2 -3 82.94 2.63
-3 -2 -3 65.97 1.9
-3 -2 -3 72.73 1.95
-3 -2 -3 73.54 2.09
-3 -2 -3 73.92 2.11
3 2 2 13.34 1.46
-3 -2 -2 10.03 0.82
-3 -2 -2 12.46 0.89
-3 -2 -2 14.2 0.91
-3 -2 -2 11.17 1.36
-3 -2 -2 12.2 1.48
-3 -2 -2 12.49 0.84
-3 -2 -2 13.09 0.69
-3 -2 -2 11.44 0.74
-3 -2 -2 11.64 0.59
-3 -2 -1 0.33 0.32
-3 -2 -1 0.53 0.18
-3 -2 -1 0.51 0.19
-3 -2 -1 0.85 0.31
3 2 1 0.37 0.28
-3 -2 -1 0.71 0.2
-3 -2 -1 0.66 0.15
-3 -2 -1 0.48 0.16
3 2 0 288.58 7.35
-3 -2 0 312.94 5.87
-3 -2 0 313.43 5.4
-3 -2 0 296.99 5.82
-3 -2 0 333.9 8.52
-3 -2 0 320.82 8.83
-3 -2 1 0.09 0.18
-3 -2 1 0.19 0.14
-3 -2 1 0.04 0.09
-3 -2 1 0.07 0.08
-3 -2 1 0.07 0.14
-3 -2 1 0.17 0.27
-3 -2 1 0.15 0.12
-3 -2 1 0.06 0.25
-3 -2 2 67.1 2.25
-3 -2 2 50.51 1.65
-3 -2 2 51.16 1.64
-3 -2 2 55.93 1.78
-3 -2 2 49.97 1.97
-3 -2 2 62.07 3.3
-3 -2 2 59.42 3.33
-3 -2 3 303.51 6.13
-3 -2 3 284.67 5.5
-3 -2 3 278.59 5.37
-3 -2 3 274.29 5.42
-3 -2 3 261.78 5.29
-3 -2 3 286.4 7.63
-3 -2 3 250.12 5.42
-3 -2 3 300.17 5.1
-3 -2 3 283.29 7.96
-3 -2 3 270.78 8.22
-3 -2 4 4.99 0.49
-3 -2 4 6.31 0.53
3 2 -4 5.08 0.74
-3 -2 4 4.58 0.48
-3 -2 4 4.57 0.43
-3 -2 4 3.45 0.41
-3 -2 4 4.94 0.37
-3 -2 4 5.5 0.93
-3 -2 4 4.47 0.88
-3 -2 4 4.78 0.93
-3 -2 5 9.97 0.67
-3 -2 5 10.18 0.59
-3 -2 5 10.17 0.72
3 2 -5 9.49 1.1
-3 -2 5 9.77 0.73
-3 -2 5 9.47 0.65
-3 -2 5 11.79 1.45
-3 -2 5 10.6 1.32
-3 -2 5 11.11 1.4
-3 -2 6 277.95 5.4
-3 -2 6 266.02 5.47
-3 -2 6 257.06 5.08
3 2 -6 261.15 7.36
-3 -2 6 276.58 5.73
-3 -2 6 260.22 5.36
-3 -2 6 266.41 8.25
-3 -2 6 273.57 7.52
-3 -2 7 234.26 4.63
-3 -2 7 212.5 4.78
-3 -2 7 233.57 4.97
3 2 -7 225.93 6.99
-3 -2 7 216.54 5.12
-3 -2 7 220.21 4.87
-3 -2 7 218.28 7.68
-3 -2 7 233.59 4.87
-3 -2 8 7.17 0.75
-3 -2 8 7.66 0.69
3 2 -8 6.92 1.15
-3 -2 8 8.76 0.73
-3 -2 8 8.42 1.45
-3 -2 8 7.69 0.62
-3 -2 8 7.29 0.62
-3 -2 9 170.22 4.03
-3 -2 9 162.17 3.94
-3 -2 9 173.32 4.11
-3 -2 9 168.24 3.85
-3 -2 10 1.22 0.34
-3 -2 10 1.23 0.31
-3 -2 10 0.91 0.3
-3 -2 10 1.19 0.28
-3 -2 11 26.21 1.38
-3 -2 11 27.2 1.24
-3 -2 11 28.27 1.3
-3 -2 11 23.86 1.12
-3 -2 12 17.61 0.88
-3 -2 12 16.51 0.91
-3 -2 12 16.86 0.99
-3 -2 13 97.95 2.17
-3 -2 13 99.02 2.35
-3 -2 13 94.52 2.32
-3 -2 14 19.32 0.68
3 2 -14 13.71 0.6
-3 -3 -11 20.61 0.88
-3 -3 -10 38.11 1.46
-3 -3 -10 36.48 1.19
-3 -3 -10 38.6 1.55
-3 -3 -9 0.08 0.16
-3 -3 -9 0.19 0.22
-3 -3 -9 0.07 0.18
-3 -3 -8 0.66 0.27
-3 -3 -8 0.98 0.32
-3 -3 -8 -0.05 0.22
-3 -3 -8 0.48 0.22
-3 -3 -7 7.79 0.85
-3 -3 -7 7.79 0.85
-3 -3 -7 8.9 0.83
-3 -3 -7 6.7 0.63
-3 -3 -7 8.44 0.81
-3 -3 -7 7.96 0.65
3 3 7 7.29 1.54
-3 -3 -6 30.25 1.68
-3 -3 -6 34.13 1.79
-3 -3 -6 28.63 1.38
-3 -3 -6 30.56 1.58
-3 -3 -6 24.53 1.28
-3 -3 -6 32.55 1.34
-3 -3 -6 33.57 1.59
3 3 6 29.45 2.93
-3 -3 -5 119.85 3.61
-3 -3 -5 106.72 3.53
-3 -3 -5 116.66 3.06
-3 -3 -5 125.94 2.99
-3 -3 -5 123.3 3.31
-3 -3 -5 94.74 2.93
3 3 5 131.11 6.11
-3 -3 -4 96.15 4.44
3 3 4 85.07 4.72
-3 -3 -4 103.36 2.94
-3 -3 -4 85.14 2.92
-3 -3 -4 96.39 3.09
-3 -3 -4 90.2 2.52
-3 -3 -4 85.43 2.82
-3 -3 -4 95.18 2.77
-3 -3 -4 93.38 2.48
-3 -3 -4 79.81 2.54
-3 -3 -4 94.42 2.55
-3 -3 -3 4.42 0.94
-3 -3 -3 5.16 1.04
-3 -3 -3 5.06 0.61
3 3 3 3.49 0.9
-3 -3 -3 5 0.61
-3 -3 -3 5.11 0.63
-3 -3 -3 4.85 0.48
-3 -3 -3 4.45 0.58
-3 -3 -3 4.51 0.5
-3 -3 -3 5.31 0.52
-3 -3 -3 4.55 0.51
-3 -3 -3 5.94 0.56
-3 -3 -2 122.06 5.15
-3 -3 -2 132.59 5.54
3 3 2 118.06 5.12
-3 -3 -2 120.54 3.37
-3 -3 -2 126.6 3.47
-3 -3 -2 118.61 2.83
-3 -3 -2 132.6 3.47
-3 -3 -2 132.75 3.12
-3 -3 -2 114.75 2.82
-3 -3 -2 126.22 3.13
-3 -3 -2 130.04 3.21
-3 -3 -1 48.76 2.05
3 3 1 41.55 2.72
-3 -3 -1 39.1 1.61
-3 -3 -1 41.55 3.03
-3 -3 -1 41.58 2.92
-3 -3 -1 42.04 1.48
-3 -3 -1 42.04 1.41
-3 -3 -1 46.82 1.65
-3 -3 -1 42.29 1.64
-3 -3 0 55.54 1.63
-3 -3 0 61.96 3.69
-3 -3 0 62.87 3.6
-3 -3 0 57.84 1.96
-3 -3 0 56.8 1.57
-3 -3 0 59.19 1.66
-3 -3 0 55.96 2.65
-3 -3 1 78.74 2.39
-3 -3 1 83.35 3.18
-3 -3 1 78.53 2.81
-3 -3 1 82.03 2.15
-3 -3 1 90.28 2.48
-3 -3 1 85.29 4.43
-3 -3 1 88.41 4.34
-3 -3 1 88.44 2.43
-3 -3 1 79.59 2.05
-3 -3 1 89.11 2.08
-3 -3 1 81.81 2.13
-3 -3 2 102.03 2.79
-3 -3 2 98.71 3.47
-3 -3 2 93.62 3.14
-3 -3 2 105.16 2.47
-3 -3 2 111.65 5.06
-3 -3 2 99.15 4.68
-3 -3 2 103.96 2.68
-3 -3 2 102.54 2.46
-3 -3 2 110.36 2.34
-3 -3 2 97.18 2.52
-3 -3 3 125.9 2.96
-3 -3 3 128.73 3.06
-3 -3 3 129.87 3.24
-3 -3 3 132.83 3.07
-3 -3 3 116.73 2.81
-3 -3 3 132.47 5.63
-3 -3 3 139.15 5.29
-3 -3 3 124.45 3.23
-3 -3 4 233.9 5.33
-3 -3 4 196.77 4.35
-3 -3 4 238.86 4.58
-3 -3 4 209.34 4.23
-3 -3 4 209.11 4.62
-3 -3 4 207.46 7.05
-3 -3 4 194.3 7.16
-3 -3 4 208.07 7.05
-3 -3 4 197.47 4.56
-3 -3 5 54.76 2.19
-3 -3 5 57.31 1.9
-3 -3 5 52.73 1.7
-3 -3 5 59.73 1.74
-3 -3 5 59.08 1.99
-3 -3 5 57.61 3.38
-3 -3 5 62.92 3.68
-3 -3 5 57.74 1.93
-3 -3 5 56.09 3.49
-3 -3 6 22.91 1.13
-3 -3 6 20.03 0.96
-3 -3 6 21.2 1.13
-3 -3 6 20.54 1.11
-3 -3 6 18.28 0.98
-3 -3 6 21.28 1.97
-3 -3 6 18.26 2.05
-3 -3 7 81.16 2.4
-3 -3 7 77.06 2.18
3 3 -7 72.1 3.71
-3 -3 7 68.42 2.32
-3 -3 7 76.46 2.3
-3 -3 7 80 2.37
-3 -3 7 71.22 4.3
-3 -3 8 7.96 0.73
-3 -3 8 8.52 0.72
-3 -3 8 9.58 0.78
3 3 -8 8.26 1.29
-3 -3 8 6.79 1.36
-3 -3 8 11.03 0.78
-3 -3 8 10.32 0.72
-3 -3 9 192.41 4.32
-3 -3 9 219.51 4.7
-3 -3 9 185.79 4.57
-3 -3 9 207.26 4.61
-3 -3 10 6.4 0.62
-3 -3 10 7.68 0.67
-3 -3 10 5.92 0.61
-3 -3 11 14.68 0.87
-3 -3 11 14.74 0.9
-3 -3 11 12.71 0.83
-3 -3 12 127.48 2.96
-3 -3 12 116.34 2.82
-3 -3 13 5.28 0.36
-3 -3 13 5.02 0.4
3 3 -13 4.73 0.4
-3 -4 -10 41.59 1.31
-3 -4 -10 36.39 1.05
-3 -4 -9 26.32 1.28
-3 -4 -9 30.45 1.18
-3 -4 -8 44.5 1.7
-3 -4 -8 41.9 1.4
-3 -4 -7 123.02 2.88
-3 -4 -7 131.62 3.42
3 4 6 44.4 3.78
-3 -4 -6 44.36 1.85
-3 -4 -6 41.02 1.56
-3 -4 -5 21.71 1.35
-3 -4 -5 22.54 1.29
-3 -4 -5 22.7 1.15
-3 -4 -5 19.37 1.15
3 4 5 23.48 2.69
-3 -4 -4 6.85 1.23
-3 -4 -4 9.48 0.82
3 4 4 8.26 1.6
-3 -4 -4 7.52 0.78
-3 -4 -4 8.6 0.77
-3 -4 -4 8.72 0.71
-3 -4 -4 6.14 0.65
-3 -4 -4 8.68 0.68
-3 -4 -3 3.49 0.93
-3 -4 -3 4.32 0.61
3 4 3 3.6 1.05
-3 -4 -3 4.41 0.61
-3 -4 -3 4.98 0.54
-3 -4 -3 3.94 0.51
-3 -4 -3 3.68 0.51
-3 -4 -3 4.57 0.52
-3 -4 -2 99.87 4.91
-3 -4 -2 107.58 5.26
3 4 2 90.9 4.91
-3 -4 -2 119.02 3.52
-3 -4 -2 103.01 3.07
-3 -4 -2 95.92 2.74
-3 -4 -2 88.99 2.78
-3 -4 -2 100.59 2.87
-3 -4 -1 579.92 10.3
-3 -4 -1 581.28 14.45
-3 -4 -1 570.12 14.18
-3 -4 -1 528.14 10.95
-3 -4 -1 587.3 10.48
-3 -4 -1 562.23 9.8
-3 -4 -1 571.05 9.94
-3 -4 -1 505.46 9.57
-3 -4 0 36.07 1.35
-3 -4 0 32.6 2.9
-3 -4 0 35.54 2.93
-3 -4 0 33.24 1.52
-3 -4 0 37.41 1.36
-3 -4 0 33.54 2.25
-3 -4 1 296.44 6.49
-3 -4 1 294.23 7.93
-3 -4 1 345.9 7.52
-3 -4 1 307.35 6.16
-3 -4 1 322.02 9.95
-3 -4 1 307.73 9.98
-3 -4 1 320.17 6.39
-3 -4 1 334.44 6.01
-3 -4 1 320.46 6.13
-3 -4 2 182.7 4.58
-3 -4 2 198.24 5.36
-3 -4 2 206.94 4.33
-3 -4 2 187.52 7.51
-3 -4 2 217.63 7.77
-3 -4 2 202.51 4.45
-3 -4 2 204.71 4.15
-3 -4 2 217.61 4.43
-3 -4 3 431.07 9.13
-3 -4 3 445.07 12.25
-3 -4 3 435.77 8.37
-3 -4 3 445.69 8.37
-3 -4 3 421.33 7.86
-3 -4 4 142.13 6.3
-3 -4 4 151.74 6.27
-3 -4 4 146.12 6.14
-3 -4 4 142.22 3.7
-3 -4 4 144.2 3.71
-3 -4 4 137.81 3.32
-3 -4 5 182.28 4.67
-3 -4 5 167.03 4.04
-3 -4 5 150.81 3.58
-3 -4 5 179.07 6.63
-3 -4 5 164.07 6.7
-3 -4 5 163.7 6.68
-3 -4 5 162.21 3.98
-3 -4 6 262.58 5.17
-3 -4 6 206.74 4.67
-3 -4 6 244.94 4.86
-3 -4 6 234.33 5.17
-3 -4 6 231.84 7.62
-3 -4 6 216.37 8.15
-3 -4 7 1.28 0.31
-3 -4 7 1.71 0.31
-3 -4 7 1.26 0.3
-3 -4 7 1.29 0.28
-3 -4 7 0.71 0.52
-3 -4 8 1.54 0.31
-3 -4 8 1.29 0.3
-3 -4 8 1.59 0.31
-3 -4 9 36.85 1.45
-3 -4 9 41.02 1.58
-3 -4 10 156.66 3.63
-3 -4 10 149.64 3.57
-3 -4 11 0.42 0.19
-3 -4 11 0.9 0.27
-3 -4 12 3.38 0.34
-3 -4 12 3.17 0.35
-3 -4 13 68.37 1.34
-3 -4 13 75.56 1.51
-3 -5 -9 52.75 1.42
-3 -5 -8 9.82 0.67
-3 -5 -7 10.01 0.76
-3 -5 -7 8.78 0.61
-3 -5 -7 11.25 0.82
-3 -5 -6 84.7 2.3
-3 -5 -6 83 2.53
-3 -5 -6 89.2 2.72
-3 -5 -5 21.97 1.16
-3 -5 -5 24.69 1.3
-3 -5 -5 23.69 1.36
-3 -5 -4 25.41 1.34
3 5 4 24.61 2.94
-3 -5 -4 26.44 1.47
-3 -5 -4 25.56 1.33
-3 -5 -4 26.53 1.28
-3 -5 -4 23.48 1.3
-3 -5 -4 29.97 1.27
-3 -5 -3 29.83 1.62
-3 -5 -3 28 1.26
-3 -5 -3 33.76 1.65
-3 -5 -3 28.53 1.35
-3 -5 -3 28.04 1.31
-3 -5 -3 29.15 1.41
-3 -5 -3 28.06 1.43
-3 -5 -3 29 2.65
-3 -5 -2 46.75 3.43
-3 -5 -2 50.84 3.68
-3 -5 -2 50.16 2.09
-3 -5 -2 52.65 1.93
-3 -5 -2 51.76 1.97
-3 -5 -1 438.82 8.49
-3 -5 -1 416.82 9.13
-3 -5 -1 436.9 12.63
-3 -5 -1 417.36 12.13
-3 -5 -1 450.01 8.53
-3 -5 -1 434.35 8.12
-3 -5 -1 455.85 8.03
-3 -5 0 0.26 0.2
-3 -5 0 0.99 0.66
-3 -5 0 0.23 0.22
-3 -5 0 0.37 0.19
-3 -5 1 223.25 5.3
-3 -5 1 250 6.25
-3 -5 1 234.91 5
-3 -5 1 202.4 8.3
-3 -5 1 220.42 8.4
-3 -5 1 239.04 5.1
-3 -5 1 238.75 4.8
-3 -5 1 223.3 4.89
-3 -5 2 16.28 2.19
-3 -5 2 14.6 2.01
-3 -5 2 16.81 1.13
-3 -5 2 18.65 1.03
-3 -5 2 18.09 1.15
-3 -5 2 18.84 1.03
-3 -5 3 107.26 3.83
-3 -5 3 109.19 5.63
-3 -5 3 121.35 6.1
-3 -5 3 118.16 3.41
-3 -5 3 136.74 3.51
-3 -5 3 129.74 3.14
-3 -5 4 474.22 13.61
-3 -5 4 475.45 13.22
-3 -5 4 471.56 9.36
-3 -5 4 493.83 9.38
-3 -5 4 498.92 8.99
-3 -5 5 -0.08 0.46
-3 -5 5 0.81 0.28
-3 -5 5 0.97 0.57
-3 -5 5 0.44 0.21
-3 -5 5 0.52 0.27
-3 -5 5 0.26 0.32
-3 -5 6 24.68 1.16
-3 -5 6 28.34 1.38
-3 -5 6 28.97 1.34
-3 -5 6 27.47 1.7
-3 -5 6 27.97 1.31
-3 -5 7 47.82 1.78
-3 -5 7 46.92 1.78
-3 -5 7 50.04 1.7
-3 -5 8 3.22 0.42
-3 -5 8 3.59 0.42
-3 -5 8 2.7 0.35
-3 -5 9 1.44 0.31
-3 -5 9 1.1 0.25
-3 -5 10 4.06 0.44
-3 -5 10 4.47 0.45
-3 -5 11 11.47 0.64
-3 -5 11 11.33 0.65
-3 -5 12 5.89 0.37
-3 -5 12 5.48 0.38
-3 -6 -7 0.96 0.23
-3 -6 -6 27.57 1.18
-3 -6 -6 28.4 1.26
-3 -6 -5 0.03 0.15
-3 -6 -5 0.14 0.2
-3 -6 -4 8.12 0.66
-3 -6 -4 9.28 0.79
-3 -6 -4 9.62 0.74
-3 -6 -4 9.51 0.63
-3 -6 -3 0.63 0.2
-3 -6 -3 0.51 0.27
-3 -6 -3 0.39 0.22
-3 -6 -3 -0.15 0.36
-3 -6 -3 0.59 0.23
-3 -6 -2 78.09 2.82
-3 -6 -2 72.64 2.35
-3 -6 -2 80.15 2.36
-3 -6 -1 12.69 1.9
-3 -6 -1 11.33 0.83
-3 -6 -1 12.06 0.9
-3 -6 -1 12.15 0.92
-3 -6 -1 11.4 0.73
-3 -6 0 2.43 0.52
-3 -6 0 4.26 1.14
-3 -6 0 4.1 0.46
-3 -6 0 6.08 0.59
-3 -6 0 4.33 0.56
-3 -6 1 2.02 0.51
-3 -6 1 1.39 0.3
-3 -6 1 1.46 0.37
-3 -6 1 0.8 0.58
-3 -6 1 2.05 0.36
-3 -6 2 13.7 2.03
-3 -6 2 15.15 1.31
-3 -6 2 15.57 1.08
-3 -6 2 16.13 0.97
-3 -6 2 16.74 1.1
-3 -6 2 15.73 0.94
-3 -6 3 44.2 1.91
-3 -6 3 48.23 3.78
-3 -6 3 46.56 1.9
-3 -6 3 45.93 1.67
-3 -6 4 8.23 0.77
-3 -6 4 7.8 1.52
-3 -6 4 10.04 0.82
-3 -6 4 9.05 0.68
-3 -6 5 118.93 3.2
-3 -6 5 113.54 2.89
-3 -6 5 123.09 3.26
-3 -6 6 35.65 1.52
-3 -6 6 33.28 1.32
-3 -6 6 33.59 1.84
-3 -6 6 38.13 1.49
-3 -6 6 36.78 1.51
-3 -6 7 2.58 0.38
-3 -6 7 2.33 0.36
-3 -6 7 2.39 0.34
-3 -6 8 2.62 0.34
-3 -6 8 2.62 0.35
-3 -6 9 20.45 0.96
-3 -6 9 20.55 0.88
-3 -6 10 4.49 0.39
-3 -6 10 4.25 0.38
-3 -6 11 0.55 0.15
-3 -6 11 0.44 0.13
-3 -7 -6 14.79 0.66
-3 -7 -5 32 1.13
-3 -7 -5 23.87 0.9
-3 -7 -4 2.94 0.37
-3 -7 -4 2.37 0.3
-3 -7 -3 25.41 1.13
-3 -7 -3 21.25 0.99
-3 -7 -3 19.65 0.82
-3 -7 -3 25.49 1.02
-3 -7 -3 23.7 1.1
-3 -7 -2 1.92 0.32
-3 -7 -2 1.75 0.3
-3 -7 -2 1.58 0.28
-3 -7 -2 2.12 0.35
-3 -7 -2 2.34 0.43
-3 -7 -1 72.02 2.1
-3 -7 -1 67.35 2.04
-3 -7 -1 66.12 2.07
-3 -7 -1 65.26 2.5
-3 -7 -1 74.38 2.27
-3 -7 0 32.5 1.41
-3 -7 0 31.86 1.31
-3 -7 1 0.71 0.21
-3 -7 1 0.41 0.31
-3 -7 1 0.62 0.27
-3 -7 2 92.79 2.69
-3 -7 2 86.95 2.38
-3 -7 2 82.03 3.08
-3 -7 2 84.07 2.67
-3 -7 3 18.95 1.09
-3 -7 3 18.72 0.95
-3 -7 3 16.27 1.05
-3 -7 4 18.47 1.05
-3 -7 4 16.05 0.87
-3 -7 4 16.51 1.22
-3 -7 4 16.92 1.03
-3 -7 5 6.7 0.53
-3 -7 5 7.91 0.66
-3 -7 5 8.14 0.62
-3 -7 5 7.88 0.66
-3 -7 6 19.01 0.87
-3 -7 6 20.5 1
-3 -7 6 20.08 0.95
-3 -7 6 17.65 0.91
-3 -7 7 1.82 0.29
-3 -7 7 1.93 0.27
-3 -7 7 1.96 0.3
-3 -7 8 2.43 0.27
-3 -7 8 2.67 0.28
-3 -7 8 2.9 0.32
-3 -7 8 3.11 0.35
-3 -7 10 28.36 0.84
-3 -8 -3 4.76 0.3
-3 -8 -2 10.45 0.48
-3 -8 -2 11.02 0.62
-3 -8 -1 0.31 0.13
-3 -8 -1 0.37 0.14
-3 -8 -1 0.18 0.17
-3 -8 -1 0.68 0.2
-3 -8 0 6.47 0.5
-3 -8 0 7.01 0.47
-3 -8 0 5.42 0.58
-3 -8 0 7.37 0.57
-3 -8 1 1.72 0.29
-3 -8 1 1.75 0.25
-3 -8 1 1.46 0.36
-3 -8 1 1.83 0.32
-3 -8 2 1.85 0.31
-3 -8 2 1.69 0.24
-3 -8 2 1.75 0.38
-3 -8 2 1.83 0.32
-3 -8 3 142.43 3.23
-3 -8 3 147.31 3
-3 -8 3 139.3 3.25
-3 -8 4 13.23 0.64
-3 -8 4 13.86 0.76
-3 -8 4 12.38 0.63
-3 -8 4 14.15 0.79
-3 -8 5 12.29 0.59
-3 -8 5 12.97 0.71
-3 -8 5 14.15 0.73
-3 -8 5 13.56 0.86
-3 -8 5 12.65 0.62
-3 -8 6 67.47 1.56
-3 -8 6 72.27 1.71
-3 -8 6 64.51 1.5
-3 -8 6 70.38 1.6
-3 -8 7 13.65 0.57
-3 -8 7 13.58 0.57
-3 -8 7 14.17 0.57
-3 -9 2 2.33 0.28
-3 -9 2 1.04 0.17
-3 -9 3 43.28 1.16
-3 -9 3 39.21 1.27
-4 11 -5 27.23 0.91
4 -11 5 23.54 0.59
-4 11 -4 0.14 0.14
-4 11 -4 0.07 0.09
4 -11 4 0.15 0.09
-4 11 -4 0.1 0.1
-4 11 -3 2.46 0.3
4 -11 3 2.72 0.24
-4 11 -3 2.33 0.27
-4 11 -2 66.92 1.86
4 -11 2 65.92 1.5
-4 11 -2 68.78 1.78
-4 11 -2 64.78 1.8
-4 11 -1 5.12 0.43
4 -11 1 5.39 0.32
-4 11 -1 5.94 0.45
-4 11 -1 5.69 0.46
-4 11 -1 6.34 0.43
4 -11 0 2.59 0.2
-4 11 0 2.65 0.27
-4 11 1 36.55 1.1
-4 11 1 39.32 1.11
-4 11 2 4.46 0.29
-4 11 2 2.8 0.25
-4 11 3 9.05 0.42
4 -10 8 38.78 0.97
4 -10 7 7.06 0.4
-4 10 -7 7.22 0.47
-4 10 -7 7.14 0.38
4 -10 6 1.44 0.21
-4 10 -6 1.29 0.2
-4 10 -6 1.88 0.31
-4 10 -5 43.39 1.36
-4 10 -5 46.96 1.46
-4 10 -5 47.05 1.68
4 -10 4 24.19 0.93
-4 10 -4 26.28 1.13
-4 10 -4 26.95 1.06
-4 10 -4 25.67 1.08
-4 10 -3 40.33 1.5
-4 10 -3 43.44 1.62
-4 10 -3 45.58 1.49
-4 10 -2 18.47 1.05
-4 10 -2 21.4 0.97
-4 10 -2 20.2 1.03
-4 10 -1 259.48 5.87
-4 10 -1 280.5 5.82
-4 10 -1 308.29 5.61
-4 10 -1 287 5.73
-4 10 0 123.69 2.85
-4 10 0 129.08 2.99
-4 10 1 23.22 1.07
-4 10 1 22.91 1.03
-4 10 1 22.23 1.08
-4 10 2 129.53 2.96
-4 10 2 124.78 3.01
-4 10 3 3.52 0.33
-4 10 3 3.01 0.33
4 -10 -3 3.32 0.34
-4 10 3 3.71 0.39
4 -10 -4 36.47 1.16
-4 10 4 34.69 1.2
4 -10 -5 13.73 0.62
-4 10 5 13.76 0.64
4 -10 -6 8.3 0.41
-4 10 6 10.22 0.46
4 -9 9 9.31 0.44
-4 9 -9 8.15 0.38
4 -9 9 8.62 0.42
4 -9 8 1 0.17
-4 9 -8 0.65 0.16
4 -9 8 0.73 0.16
-4 9 -7 17.33 0.76
4 -9 7 16.19 0.72
-4 9 -7 11.57 0.64
-4 9 -7 13.33 0.8
4 -9 6 32.07 1.13
-4 9 -6 31.07 1.42
-4 9 -5 44.39 1.58
-4 9 -5 58.43 2.11
4 -9 5 52.39 1.58
-4 9 -5 44.65 1.65
-4 9 -5 57.91 1.76
-4 9 -4 82.64 2.46
4 -9 4 82.38 2.28
-4 9 -4 86.52 2.59
-4 9 -3 55.05 2.32
-4 9 -3 58.76 2.03
-4 9 -2 2.86 0.56
-4 9 -2 2.36 0.33
-4 9 -2 2.14 0.38
-4 9 -2 2.19 0.41
-4 9 -1 27.05 1.34
-4 9 -1 23.18 1.05
-4 9 -1 25.22 1.23
-4 9 0 2.54 0.44
-4 9 0 2.58 0.35
-4 9 0 1.86 0.45
-4 9 0 2.43 0.41
-4 9 1 18.92 1.12
-4 9 1 17.24 0.88
-4 9 1 19.18 1.08
-4 9 2 73.45 2.29
-4 9 2 74.93 2.23
-4 9 2 61.23 1.99
-4 9 2 67.25 1.92
4 -9 -2 61.74 1.99
-4 9 2 76.47 2.3
-4 9 3 0.02 0.2
4 -9 -3 -0.03 0.15
-4 9 3 0.19 0.15
-4 9 3 -0.08 0.14
-4 9 3 0.02 0.16
-4 9 4 1.76 0.26
-4 9 4 1.64 0.27
4 -9 -4 2.19 0.33
-4 9 4 1.74 0.34
4 -9 -5 2.59 0.35
-4 9 5 2.47 0.36
4 -9 -6 9.39 0.62
-4 9 6 8.81 0.6
4 -9 -7 0.71 0.17
-4 9 7 0.42 0.14
4 -9 -8 3.95 0.29
-4 9 8 4.71 0.31
4 -8 10 0.55 0.13
-4 8 -10 0.68 0.13
4 -8 10 0.62 0.12
4 -8 9 16.5 0.71
-4 8 -9 17.01 0.72
4 -8 9 16.93 0.68
4 -8 8 24.75 0.94
-4 8 -8 22.58 0.94
4 -8 8 22.86 0.9
4 -8 7 64.17 1.76
-4 8 -7 61.99 2.08
-4 8 -6 21.35 1.26
4 -8 6 21.88 0.97
-4 8 -5 44.98 1.65
4 -8 5 47.33 1.58
-4 8 -5 49.96 2.08
-4 8 -5 46.4 1.74
-4 8 -4 111.98 3.5
-4 8 -4 121.14 3.16
-4 8 -4 112.94 3.2
-4 8 -3 24.35 2.41
-4 8 -3 27.26 1.36
-4 8 -3 28.85 1.22
-4 8 -3 27.78 1.3
-4 8 -2 45.72 1.85
-4 8 -2 46.08 1.62
-4 8 -2 46.73 1.77
-4 8 -1 11.73 0.91
-4 8 -1 13.49 0.92
-4 8 -1 11.46 0.78
-4 8 0 496.43 9.65
-4 8 0 503.74 9.26
-4 8 0 510.29 9.52
-4 8 1 42.47 3.22
-4 8 1 39.73 1.79
-4 8 1 45.48 1.68
-4 8 1 47.77 1.86
-4 8 2 141.7 3.51
-4 8 2 139.38 3.47
-4 8 2 130.68 3.26
4 -8 -2 122.18 3.21
-4 8 2 127.36 3.43
-4 8 3 40.51 1.65
-4 8 3 33.93 2.69
-4 8 3 41.52 1.59
-4 8 3 34.17 1.41
-4 8 3 41.83 1.59
4 -8 -3 40.54 1.62
-4 8 3 40.84 1.73
-4 8 4 0.11 0.19
4 -8 -4 0.17 0.18
-4 8 4 0.19 0.16
-4 8 4 0.15 0.16
-4 8 4 0.17 0.16
4 -8 -5 3.52 0.47
-4 8 5 4.21 0.53
-4 8 5 4.18 0.45
-4 8 5 2.63 0.33
-4 8 5 3.03 0.34
-4 8 6 5.01 0.54
4 -8 -6 4.2 0.49
-4 8 6 4.74 0.44
-4 8 7 132.87 3.2
4 -8 -7 132.17 3.17
4 -8 -8 3.18 0.36
-4 8 8 3.15 0.36
4 -8 -9 34.57 1.08
-4 8 9 38.68 1.14
4 -7 11 0.36 0.11
-4 7 -11 0.44 0.11
4 -7 10 11.71 0.59
-4 7 -10 12.09 0.59
4 -7 9 24.32 0.94
-4 7 -9 24.92 0.99
4 -7 9 23.04 0.87
4 -7 8 27.2 1.06
-4 7 -8 26.05 1.1
4 -7 8 26.23 1
-4 7 -7 12.35 0.77
4 -7 7 11.61 0.68
-4 7 -7 11.34 0.74
-4 7 -7 12.41 0.88
4 -7 6 30.69 1.2
-4 7 -6 28.86 1.49
-4 7 -5 6.41 0.75
-4 7 -5 8.71 0.68
-4 7 -5 9.09 0.69
-4 7 -5 7.93 0.69
-4 7 -4 24.11 1.29
-4 7 -4 20.71 2.13
-4 7 -4 26.26 1.52
-4 7 -4 20.54 2.39
-4 7 -4 26.16 1.27
-4 7 -4 25.37 1.11
-4 7 -4 25.7 1.21
-4 7 -3 121.81 5.55
-4 7 -3 134.93 3.9
-4 7 -3 127.04 3.4
-4 7 -3 132.42 6.32
-4 7 -3 132.71 3.19
-4 7 -3 135.63 3.34
-4 7 -2 27.51 2.56
-4 7 -2 28.48 1.62
-4 7 -2 35 1.54
-4 7 -2 34.27 1.38
-4 7 -2 34.22 1.44
-4 7 -1 8.55 0.77
-4 7 -1 7.92 1.56
-4 7 -1 8.19 0.7
-4 7 -1 8.01 0.66
-4 7 -1 7.19 1.32
-4 7 0 65.04 2.27
-4 7 0 64.61 4.37
-4 7 0 78.71 2.73
-4 7 0 70.04 2.19
-4 7 0 53.46 3.63
-4 7 1 63.07 4.35
-4 7 1 72.63 2.33
-4 7 2 55.53 3.63
-4 7 2 61.36 2.16
-4 7 2 63.56 2.13
-4 7 2 58.92 4.1
-4 7 2 58.94 2.07
-4 7 2 53 3.46
-4 7 3 45.64 3.35
-4 7 3 57.71 2.05
-4 7 3 50.02 3.31
-4 7 3 51.14 1.85
-4 7 3 57.35 1.95
-4 7 3 53.96 1.98
4 -7 -3 55.93 1.98
-4 7 4 14.41 0.88
-4 7 4 13.83 1.64
-4 7 4 15.64 1.01
-4 7 4 15.83 0.95
-4 7 5 32.16 1.48
-4 7 5 28.43 1.21
-4 7 5 31.87 1.23
-4 7 6 13.91 0.92
-4 7 7 98.66 2.68
4 -7 -8 215.07 4.62
-4 7 8 210.4 4.38
4 -7 -9 5.41 0.49
4 -7 -10 48.96 1.38
-4 6 -12 0.87 0.16
4 -6 11 68.66 1.64
-4 6 -11 71.81 1.67
4 -6 10 37.19 1.2
-4 6 -10 37.9 1.24
4 -6 9 0.69 0.19
-4 6 -9 1.66 0.29
-4 6 -8 31.52 1.2
-4 6 -8 32.95 1.27
4 -6 8 29.94 1.07
-4 6 -7 1.05 0.28
4 -6 7 1.27 0.23
-4 6 -7 1.19 0.29
4 -6 6 35.26 1.26
-4 6 -6 31.13 1.53
-4 6 -5 0.62 0.2
-4 6 -5 0.39 0.18
-4 6 -4 0.9 0.28
-4 6 -4 0.53 0.22
-4 6 -4 0.5 0.49
-4 6 -4 0.54 0.41
-4 6 -4 0.94 0.22
-4 6 -4 0.91 0.24
-4 6 -3 33.33 1.52
-4 6 -3 37.26 3.1
-4 6 -3 33.72 1.46
-4 6 -3 31.63 2.6
-4 6 -3 31.28 1.3
-4 6 -3 35.1 1.38
-4 6 -2 8.83 0.72
-4 6 -2 7.49 0.8
-4 6 -2 8.09 1.32
-4 6 -2 9.37 0.69
-4 6 -2 9.97 0.71
-4 6 -1 80.33 2.47
-4 6 -1 78.92 4.66
-4 6 -1 73.42 4.14
-4 6 -1 81.83 2.38
-4 6 -1 82.36 2.39
-4 6 0 24.03 1.25
-4 6 0 26.31 2.63
-4 6 0 24.87 2.33
-4 6 0 24.5 1.22
-4 6 0 24.32 1.18
-4 6 1 326.88 10.34
-4 6 1 326.99 6.54
-4 6 1 320.12 6.51
-4 6 2 32.87 2.57
-4 6 2 32.89 1.51
-4 6 2 32.55 1.43
-4 6 2 37.04 3.09
-4 6 2 30.31 1.45
-4 6 2 32.17 2.61
-4 6 2 35.18 1.45
-4 6 2 32.76 1.49
-4 6 2 35.39 1.54
-4 6 3 13.02 1.7
-4 6 3 12.33 0.87
-4 6 3 14.1 1.91
-4 6 3 11.56 0.8
-4 6 3 10.93 0.78
-4 6 3 12.28 1.58
-4 6 3 12.61 0.88
-4 6 3 11.68 0.88
-4 6 3 12.41 0.91
-4 6 4 89.54 4.81
-4 6 4 103.3 2.77
-4 6 4 103.98 2.69
-4 6 4 84.78 2.45
-4 6 4 90.38 4.33
-4 6 4 100.85 2.96
-4 6 4 108.26 3.06
-4 6 5 107.46 2.75
-4 6 5 121.71 3.25
-4 6 5 120.49 3.42
-4 6 5 118.91 3.29
-4 6 5 118.55 5.73
-4 6 5 108.51 2.81
-4 6 6 41.64 1.81
-4 6 6 46.15 1.93
-4 6 6 43.92 1.81
-4 6 7 10.18 0.83
-4 6 7 10.59 0.89
-4 6 7 9.43 0.79
-4 6 8 21.93 1.18
-4 6 8 21.95 1.23
-4 6 8 22.23 1.16
-4 6 9 51.11 1.75
-4 6 9 52.07 1.86
-4 6 9 54.59 1.77
-4 6 10 138.79 3.12
-4 6 10 156.14 3.37
-4 6 11 17.51 0.71
4 -6 -11 9.98 0.55
-4 5 -12 47.22 1.34
-4 5 -12 44.14 1.14
-4 5 -11 4.15 0.43
-4 5 -11 3.86 0.35
4 -5 11 3.86 0.31
-4 5 -10 10.61 0.65
4 -5 10 10.59 0.6
-4 5 -9 18.59 0.93
4 -5 9 14.07 0.81
-4 5 -8 57.12 1.81
-4 5 -8 58.92 1.73
-4 5 -7 45.19 1.62
-4 5 -7 43.18 1.58
-4 5 -6 115.44 2.9
-4 5 -6 112.29 3.09
-4 5 -6 112.65 2.97
-4 5 -5 111.82 5.26
-4 5 -5 118.09 2.7
-4 5 -5 116.56 2.8
-4 5 -4 0.14 0.13
-4 5 -4 -0.02 0.2
-4 5 -4 0.37 0.34
-4 5 -4 0.26 0.18
-4 5 -4 0.08 0.12
-4 5 -4 0.18 0.14
-4 5 -4 0.08 0.39
-4 5 -3 0.89 0.46
-4 5 -3 0.88 0.23
-4 5 -3 1.24 0.61
-4 5 -3 0.77 0.25
-4 5 -3 1.04 0.23
-4 5 -2 190.84 4.59
-4 5 -2 185.97 4.25
-4 5 -2 192.94 6.66
-4 5 -2 204.19 4.1
-4 5 -2 193.22 4.43
-4 5 -1 1.75 0.29
-4 5 -1 1.13 0.34
-4 5 -1 1.66 0.63
-4 5 -1 2.15 0.37
-4 5 -1 1.17 0.26
-4 5 -1 1.64 0.69
-4 5 -1 2.24 0.36
-4 5 0 89.27 4.71
-4 5 0 81.39 2.47
-4 5 0 94.54 2.44
-4 5 0 81.66 4.2
-4 5 0 97.59 2.58
-4 5 0 90.5 2.66
-4 5 1 335.14 9.24
-4 5 1 389.2 11.25
-4 5 1 352.27 10.16
-4 5 1 385.45 7.29
-4 5 1 394.89 7.61
-4 5 1 412.05 7.52
-4 5 2 5.62 1
-4 5 2 5.99 0.59
-4 5 2 6.52 1.26
-4 5 2 6.23 0.57
-4 5 2 4.64 0.53
-4 5 2 5.57 1.07
-4 5 2 5.95 0.54
-4 5 2 5.97 0.6
-4 5 2 6.3 0.58
-4 5 3 8.34 1.32
-4 5 3 6.27 0.59
-4 5 3 6.3 1.25
-4 5 3 5.5 0.53
-4 5 3 6.62 0.59
-4 5 3 6.24 1.09
-4 5 3 6.05 0.57
-4 5 3 6.64 0.66
-4 5 3 6.36 0.62
-4 5 4 70.27 3.98
-4 5 4 62.93 2
-4 5 4 61.36 1.91
-4 5 4 55.97 1.83
-4 5 4 63.66 3.44
-4 5 4 63.09 2.25
-4 5 4 67.17 2.23
-4 5 5 3.75 0.52
-4 5 5 4.22 0.52
-4 5 5 2.81 0.7
-4 5 5 3.57 0.4
-4 5 5 3.76 0.53
-4 5 5 3.1 0.39
-4 5 5 4.78 1.1
-4 5 6 187.18 4.49
-4 5 6 174.67 4.43
-4 5 6 177.61 7.17
-4 5 6 174.47 4.3
-4 5 7 20.62 1.26
-4 5 7 23.37 1.26
-4 5 8 26.26 1.41
-4 5 8 27.34 1.36
-4 5 9 0.21 0.23
-4 5 9 0.4 0.22
-4 5 9 0.18 0.19
-4 5 10 6.77 0.61
-4 5 10 7.22 0.63
-4 5 10 7.52 0.6
-4 5 11 93.56 2.27
-4 5 11 91.06 2.29
-4 5 11 88.14 2.15
4 -5 -12 8.67 0.45
-4 4 -12 37.37 1.22
-4 4 -12 38.44 1.11
-4 4 -11 46.1 1.57
-4 4 -11 44.29 1.37
-4 4 -11 40.88 1.48
-4 4 -10 28.14 1.13
-4 4 -10 21.62 1.22
-4 4 -9 0.93 0.26
4 -4 9 0.94 0.2
-4 4 -9 0.48 0.27
-4 4 -8 70.24 2.07
-4 4 -8 65.52 1.87
-4 4 -8 66.56 2.5
-4 4 -7 68.82 2.07
-4 4 -7 68.91 2.06
-4 4 -6 3.55 0.43
-4 4 -6 2.38 0.44
-4 4 -6 3.4 0.45
-4 4 -5 125.83 3.37
-4 4 -5 120.58 3.5
-4 4 -5 144.33 5.84
-4 4 -5 137.77 3.2
-4 4 -5 143.16 3.06
-4 4 -5 156.48 3.47
-4 4 -4 4.83 0.49
-4 4 -4 4.65 0.54
-4 4 -4 3.44 0.46
-4 4 -4 3.94 0.83
-4 4 -4 4.65 0.42
-4 4 -4 4.87 0.42
-4 4 -4 4.23 1.04
-4 4 -4 4.79 0.46
-4 4 -3 41.88 1.57
-4 4 -3 44.34 3.17
-4 4 -3 42.86 1.51
-4 4 -3 44.01 1.73
-4 4 -3 39.06 2.63
-4 4 -3 42.82 1.4
-4 4 -3 43.64 1.37
-4 4 -2 40.24 1.55
-4 4 -2 42.22 1.53
-4 4 -2 42.74 2.75
-4 4 -2 41.96 1.44
-4 4 -2 42.78 1.36
-4 4 -1 151.27 3.54
-4 4 -1 144.84 5.93
-4 4 -1 143.96 3.41
-4 4 -1 149.63 3.71
-4 4 -1 152.67 5.52
-4 4 -1 150.53 3.36
-4 4 -1 141.47 3.12
-4 4 0 16.1 0.93
-4 4 0 15.98 1.87
-4 4 0 15.62 0.88
-4 4 0 15.07 0.95
-4 4 0 16.1 1.68
-4 4 0 17.77 0.92
-4 4 0 15.79 0.78
-4 4 1 28.53 1.26
-4 4 1 24.29 2.29
-4 4 1 21.98 1.06
-4 4 1 24.24 2.08
-4 4 1 23.65 0.98
-4 4 1 23.21 1.68
-4 4 1 22.64 1.13
-4 4 1 24.25 1.03
-4 4 2 5.61 0.54
-4 4 2 7.8 0.56
-4 4 2 5.73 1.16
-4 4 2 5.68 0.52
-4 4 2 6.14 0.53
-4 4 2 7.5 1.06
-4 4 2 6.02 0.56
-4 4 2 6.06 0.5
-4 4 3 18.03 1.78
-4 4 3 17.93 0.97
-4 4 3 19.19 1.81
-4 4 3 20.42 0.99
-4 4 3 17.78 0.95
-4 4 3 16.93 1.96
-4 4 3 16.73 0.9
-4 4 3 17.55 1.03
-4 4 3 18.26 0.98
-4 4 4 13.68 0.81
-4 4 4 13.05 1.62
-4 4 4 9.45 0.66
-4 4 4 12.03 1.41
-4 4 4 13.35 0.84
-4 4 4 10.83 1.58
-4 4 4 12.32 0.74
-4 4 4 13.71 0.94
-4 4 4 11.63 0.81
-4 4 5 64.79 3.2
-4 4 5 62.8 1.85
-4 4 5 70.42 2.3
-4 4 5 70.56 2.39
-4 4 5 63.32 1.9
-4 4 5 75.03 4.15
-4 4 6 2.75 0.44
-4 4 6 2.12 0.4
-4 4 6 1.81 0.38
-4 4 6 2.13 0.42
-4 4 6 2.47 0.8
-4 4 7 3.08 0.47
-4 4 7 2.7 0.47
-4 4 7 2.54 0.45
-4 4 7 2.72 0.48
-4 4 7 2.53 0.85
-4 4 8 15.98 1.12
-4 4 8 16.55 1.05
-4 4 8 16.93 1.12
-4 4 9 2.07 0.41
-4 4 9 1.7 0.36
-4 4 9 2.2 0.41
-4 4 10 18.81 1.13
-4 4 10 18.99 1.02
-4 4 10 19.64 1.09
-4 4 11 3.92 0.4
-4 4 11 3.82 0.44
-4 4 11 4.01 0.44
-4 4 11 3.4 0.4
-4 4 12 57.52 1.57
-4 4 12 54.31 1.45
-4 4 12 52.61 1.39
-4 3 -12 9.89 0.59
-4 3 -12 9.05 0.58
-4 3 -12 9.56 0.53
-4 3 -11 35.06 1.54
-4 3 -11 36.4 1.27
-4 3 -10 13.89 1.05
-4 3 -10 12.29 0.75
-4 3 -9 32.72 1.53
-4 3 -9 31.56 1.33
-4 3 -8 19.22 1.02
-4 3 -8 18.11 0.91
-4 3 -7 596.76 10.93
-4 3 -7 617.63 10.83
-4 3 -6 51.5 1.71
-4 3 -6 56.1 1.81
-4 3 -6 51.37 2.23
-4 3 -5 3.58 0.92
-4 3 -5 4.85 0.62
-4 3 -5 4.31 0.48
-4 3 -4 91.73 2.6
-4 3 -4 82.85 2.76
-4 3 -4 87.47 4.58
-4 3 -4 89.06 3.83
-4 3 -4 99.42 2.41
-4 3 -4 95.74 2.21
-4 3 -4 100.09 2.58
-4 3 -3 112.22 2.7
-4 3 -3 115.58 5.08
-4 3 -3 102.06 2.55
-4 3 -3 105.65 2.8
-4 3 -3 90.4 3.13
-4 3 -3 92.49 2.83
-4 3 -3 109.37 4.34
-4 3 -3 103.01 2.47
-4 3 -3 109.02 2.42
-4 3 -3 113.48 2.73
-4 3 -2 430.13 11
-4 3 -2 401.14 7.28
-4 3 -2 412.24 7.61
-4 3 -2 440.11 8.18
-4 3 -2 404.44 9.97
-4 3 -2 412.28 7.16
-4 3 -2 396.21 7.06
-4 3 -2 395.54 7.35
-4 3 -1 1.32 0.63
-4 3 -1 1.36 0.26
-4 3 -1 2.48 0.37
-4 3 -1 1.72 0.31
-4 3 -1 1.69 0.59
-4 3 -1 1.67 0.29
-4 3 -1 1.51 0.25
-4 3 -1 1.66 0.29
-4 3 0 357.07 10.03
-4 3 0 333.74 6.55
-4 3 0 394.32 6.92
-4 3 0 347.54 7.71
-4 3 0 349.64 6.6
-4 3 0 371.46 9.18
-4 3 0 364.69 6.58
-4 3 0 357.56 6.58
-4 3 0 337.39 6.65
-4 3 1 168.24 6.32
-4 3 1 161.67 3.48
-4 3 1 165.09 3.29
-4 3 1 158.36 5.49
-4 3 1 165.13 3.52
-4 3 1 167.87 3.56
-4 3 1 171.57 3.63
-4 3 1 169.17 4.57
-4 3 2 96.13 4.74
-4 3 2 99.49 2.42
-4 3 2 97.55 2.49
-4 3 2 98.35 2.3
-4 3 2 87.61 2.28
-4 3 2 92.97 2.25
-4 3 2 89.59 2.45
-4 3 2 101.35 2.55
-4 3 2 99.5 2.48
-4 3 2 99.41 3.74
-4 3 3 26.57 2.37
-4 3 3 22.48 0.99
-4 3 3 24.3 1.06
-4 3 3 26.33 1.13
-4 3 3 25.61 2
-4 3 3 24.33 1.03
-4 3 3 25.08 1.19
-4 3 3 24.42 1.16
-4 3 3 24.21 1.07
-4 3 3 24.7 1.92
-4 3 4 160.67 6.19
-4 3 4 165.76 3.55
-4 3 4 162.56 3.55
-4 3 4 159.16 3.58
-4 3 4 172.68 3.68
-4 3 4 159.92 5.37
-4 3 4 164.77 3.71
-4 3 4 177.8 4.11
-4 3 4 162.12 3.6
-4 3 4 169.6 5.97
-4 3 4 160.32 3.67
-4 3 5 85.22 2.4
-4 3 5 89.99 2.38
-4 3 5 78.21 3.51
-4 3 5 86.98 2.49
-4 3 5 91.51 2.74
-4 3 5 84.68 2.21
-4 3 5 90.51 4.41
-4 3 5 81.01 2.14
-4 3 6 291.64 5.94
-4 3 6 302.1 5.79
-4 3 6 307.63 6.48
-4 3 6 288 6.29
-4 3 7 2.4 0.43
-4 3 7 2.95 0.42
-4 3 7 3.28 0.52
-4 3 7 2.31 0.81
-4 3 7 2.11 0.43
-4 3 7 2.21 0.41
-4 3 8 62.51 2.4
-4 3 8 55.79 2.06
-4 3 8 58.34 2.27
-4 3 8 60.49 2.19
-4 3 9 303.04 6.64
-4 3 9 294.39 6.19
-4 3 9 303.74 6.55
-4 3 9 293.74 6.35
-4 3 10 5.82 0.66
-4 3 10 6.25 0.6
-4 3 10 6.26 0.69
-4 3 10 6.77 0.68
-4 3 11 128.07 3.27
-4 3 11 124.49 3
-4 3 11 124.33 3.24
-4 3 12 27.76 1
-4 3 12 29.43 1.14
-4 3 12 25.96 1.11
-4 3 12 24.9 0.95
-4 3 13 56.5 1.42
-4 2 -12 1.4 0.22
-4 2 -12 1.13 0.25
-4 2 -12 1.44 0.24
-4 2 -11 0.96 0.3
-4 2 -11 0.49 0.19
-4 2 -10 58.72 2.38
-4 2 -10 55.29 1.79
-4 2 -9 130.74 3.4
-4 2 -9 136.96 4.08
-4 2 -8 243.03 5.05
-4 2 -8 235.13 4.82
-4 2 -8 254.18 5.44
-4 2 -8 247.15 6.22
-4 2 -7 103.66 2.75
-4 2 -7 104.37 2.67
-4 2 -6 1285.59 23.2
-4 2 -6 1369.79 21.88
-4 2 -5 57.36 1.78
-4 2 -5 65.95 2.55
-4 2 -5 57.81 3.29
-4 2 -5 61.68 1.87
-4 2 -4 1.45 0.41
-4 2 -4 4.97 0.64
-4 2 -4 3.44 0.36
-4 2 -4 2.6 0.64
-4 2 -4 3.29 0.4
-4 2 -4 3.21 0.85
-4 2 -3 0.7 0.19
-4 2 -3 0.93 0.57
-4 2 -3 2.82 0.46
-4 2 -3 0.81 0.23
-4 2 -3 0.93 0.29
-4 2 -3 1.18 0.22
-4 2 -3 1.16 0.45
-4 2 -3 2.96 0.35
-4 2 -3 1.18 0.24
-4 2 -3 0.88 0.22
-4 2 -2 92.47 2.52
-4 2 -2 120.4 2.92
-4 2 -2 109.57 2.92
-4 2 -2 90.78 3.83
-4 2 -2 87.21 2.14
-4 2 -2 88.44 2.34
-4 2 -2 102.26 2.42
-4 2 -2 87.34 2.36
-4 2 -2 95.34 2.51
-4 2 -2 94.09 4.14
-4 2 -2 102.88 4.75
-4 2 -2 90.55 2.32
-4 2 -1 387.55 9.74
-4 2 -1 357.83 10.16
-4 2 -1 371.5 6.82
-4 2 -1 403.56 7.15
-4 2 -1 355.83 7.19
-4 2 -1 362.2 9.1
-4 2 -1 368.88 6.85
-4 2 -1 368.75 6.86
-4 2 -1 372.38 6.92
-4 2 -1 390.66 6.84
-4 2 0 81.36 3.84
-4 2 0 84.51 4.26
-4 2 0 78.79 2.13
-4 2 0 92.13 2.51
-4 2 0 88.04 2.35
-4 2 0 81.23 2.33
-4 2 0 79.56 3.55
-4 2 0 84.86 2.22
-4 2 0 82.23 2.25
-4 2 0 76.43 2.17
-4 2 0 80.78 2.27
-4 2 0 83.55 2.09
-4 2 1 361.08 6.65
-4 2 1 315.52 5.99
-4 2 1 349.26 6.34
-4 2 1 328.97 8.47
-4 2 1 333.7 6.34
-4 2 1 325.35 6.21
-4 2 1 328.16 7.21
-4 2 1 325.67 6.3
-4 2 1 334.78 8.8
-4 2 1 341.28 9.63
-4 2 1 319.19 6.13
-4 2 2 67.47 3.46
-4 2 2 72.91 3.99
-4 2 2 68.41 1.92
-4 2 2 72.94 2.07
-4 2 2 69.59 2.18
-4 2 2 67.17 1.9
-4 2 2 74.77 2.05
-4 2 2 71.72 2.14
-4 2 2 63.87 1.94
-4 2 2 72.8 2.01
-4 2 2 72.6 3.06
-4 2 2 67.27 2.02
-4 2 3 102.72 4.73
-4 2 3 99.66 2.46
-4 2 3 105.56 2.55
-4 2 3 97.29 2.8
-4 2 3 98.58 4.05
-4 2 3 101.94 2.81
-4 2 3 96.85 2.65
-4 2 3 99.56 2.52
-4 2 3 102.9 4.08
-4 2 3 100.65 2.61
-4 2 4 64.59 3.63
-4 2 4 61.31 1.73
-4 2 4 63.07 1.76
-4 2 4 64.95 1.88
-4 2 4 63.06 1.86
-4 2 4 63.16 3.08
-4 2 4 71.02 2.23
-4 2 4 61.23 2.01
-4 2 4 63.82 1.8
-4 2 4 63.87 3.36
-4 2 5 148.75 3.44
-4 2 5 172.12 3.77
-4 2 5 182.83 3.85
-4 2 5 180.35 3.94
-4 2 5 157.25 5.21
-4 2 5 190.56 4.4
-4 2 5 173.92 3.55
-4 2 5 185.4 6.45
-4 2 5 175.43 3.6
-4 2 6 4.71 0.51
-4 2 6 4.07 0.71
-4 2 6 5.48 0.66
-4 2 6 5.12 0.52
-4 2 6 3.77 0.95
-4 2 7 359.7 6.87
4 -2 -7 365.03 9.45
-4 2 7 360.96 7.14
-4 2 7 383.86 7.78
-4 2 7 348.95 7.03
-4 2 7 377.83 10.82
-4 2 8 392.28 7.14
-4 2 8 378 8.1
-4 2 8 379.81 7.54
-4 2 8 377.83 7.49
-4 2 8 384.55 11.38
-4 2 9 61.73 2.15
-4 2 9 67.42 2.29
-4 2 9 61.6 2.46
-4 2 10 47.78 1.78
-4 2 10 47.99 1.87
-4 2 10 47.44 2.06
-4 2 11 3.46 0.52
-4 2 11 3.26 0.41
-4 2 11 4.04 0.52
-4 2 12 0.18 0.18
-4 2 12 0.01 0.13
4 -2 -12 0.16 0.14
-4 2 12 0.14 0.17
-4 2 13 6.95 0.46
-4 2 13 6.77 0.46
-4 2 13 5.67 0.34
-4 1 -12 41.7 1.22
-4 1 -11 13.38 0.74
-4 1 -10 27.95 1.21
-4 1 -10 28.23 1.59
-4 1 -9 54.56 1.99
-4 1 -9 55.99 1.87
-4 1 -8 12.42 0.83
-4 1 -8 12.79 0.76
-4 1 -8 14.14 0.97
4 -1 8 14.76 1.96
-4 1 -8 12.49 1.17
-4 1 -7 248.32 4.87
-4 1 -7 240.86 5.28
-4 1 -6 58.39 1.86
-4 1 -6 60.79 2.05
-4 1 -6 59.1 1.84
-4 1 -5 0.73 0.22
-4 1 -5 1.04 0.25
-4 1 -5 0.88 0.24
-4 1 -4 26.35 1.14
-4 1 -4 20.95 1.21
-4 1 -4 25.83 1.05
-4 1 -4 25.33 1.83
-4 1 -4 24.92 2.03
-4 1 -4 27.72 2.26
-4 1 -4 25.29 1.16
-4 1 -4 24.64 1.11
-4 1 -4 28.11 1.14
-4 1 -3 400.95 9.99
-4 1 -3 441.28 10.87
-4 1 -3 405.83 7.04
-4 1 -3 367 6.91
-4 1 -3 375.09 9.15
-4 1 -3 424.95 7.61
-4 1 -3 383.67 7.17
-4 1 -3 380.47 7.26
-4 1 -3 394.82 7.05
-4 1 -3 392.26 7.3
-4 1 -3 395.9 7.17
-4 1 -2 11.04 0.59
-4 1 -2 11.93 1.3
-4 1 -2 12.09 0.82
-4 1 -2 12.21 0.74
-4 1 -2 14.01 0.83
-4 1 -2 12.72 0.73
-4 1 -2 11.3 0.75
-4 1 -2 10.63 0.66
-4 1 -2 11.38 1.42
-4 1 -2 14.35 1.7
-4 1 -2 11.87 0.67
-4 1 -1 21.31 0.94
-4 1 -1 22.32 1.78
-4 1 -1 22.54 1.03
-4 1 -1 21.56 1.02
-4 1 -1 20.73 0.99
-4 1 -1 19.81 0.94
-4 1 -1 22.84 0.94
-4 1 0 5.64 0.98
-4 1 0 6.6 1.1
-4 1 0 5.76 1.1
-4 1 0 5.45 0.46
-4 1 0 5.75 0.58
-4 1 0 5.95 0.53
-4 1 0 5.44 0.89
-4 1 0 6.43 0.54
-4 1 0 5.96 0.53
-4 1 0 5.31 0.47
-4 1 0 6.35 0.55
-4 1 0 5.67 0.43
-4 1 1 164.19 3.95
-4 1 1 188.69 3.79
-4 1 1 159.1 3.57
-4 1 1 175.82 5.61
-4 1 1 172.31 3.81
-4 1 1 190.73 6.03
-4 1 1 159.58 5.92
-4 1 1 190.65 6.63
-4 1 1 170.95 3.6
-4 1 1 169.26 3.64
-4 1 1 163.08 3.79
-4 1 2 51.78 1.83
-4 1 2 50.95 1.6
-4 1 2 47.55 1.57
-4 1 2 46.06 1.68
-4 1 2 46.34 1.64
-4 1 2 42.91 2.83
-4 1 2 53.36 3.33
-4 1 3 7.91 1.17
-4 1 3 8.8 1.34
-4 1 3 9.7 0.6
-4 1 3 7.88 0.67
-4 1 3 9.79 0.63
-4 1 3 7.68 0.55
-4 1 3 8.38 1.1
-4 1 3 8.87 0.71
-4 1 3 8.19 0.61
-4 1 3 7.71 0.61
-4 1 3 7.58 1.04
-4 1 3 8.82 0.59
-4 1 4 194.51 6.3
-4 1 4 207.98 6.95
-4 1 4 197.56 3.9
-4 1 4 188.6 4.33
-4 1 4 201.17 3.98
-4 1 4 189.39 4.12
-4 1 4 188.54 4.04
-4 1 4 187.65 5.76
-4 1 4 193.56 4.49
-4 1 4 180.54 4.18
-4 1 4 183.6 4.11
-4 1 4 188.33 6.19
-4 1 4 187.06 3.89
-4 1 5 0.83 0.24
-4 1 5 2.36 0.37
-4 1 5 0.78 0.23
-4 1 5 3.57 0.72
-4 1 5 0.84 0.3
-4 1 5 2.68 0.31
-4 1 5 0.66 0.38
-4 1 5 0.96 0.45
-4 1 5 2.77 0.31
-4 1 6 2.07 0.36
4 -1 -6 2 0.6
-4 1 6 2.95 0.6
-4 1 6 2.51 0.4
-4 1 6 2.41 0.44
-4 1 6 1.97 0.33
-4 1 6 2.24 0.74
-4 1 7 253.69 5.14
4 -1 -7 248.99 7.49
-4 1 7 224.69 5.22
-4 1 7 257.25 5.89
-4 1 7 253.63 5.24
-4 1 7 282.05 8.9
-4 1 8 95.31 2.56
-4 1 8 99.61 2.86
-4 1 8 90.4 3.13
-4 1 8 96.84 2.75
-4 1 8 96.85 5.08
-4 1 9 139.15 4.09
-4 1 9 145.96 3.67
-4 1 9 145.3 3.32
-4 1 9 147.6 3.69
-4 1 10 2.52 0.41
-4 1 10 3.32 0.48
-4 1 10 2.34 0.49
-4 1 11 21.49 1.08
-4 1 11 21.8 1.27
-4 1 12 14.72 0.77
-4 1 12 14.62 0.9
-4 1 13 2.74 0.32
-4 1 13 2.93 0.31
4 -1 -13 2.49 0.27
-4 1 13 2.91 0.26
-4 0 -12 2.57 0.29
-4 0 -11 21.1 1.11
-4 0 -11 21.02 0.91
-4 0 -10 86.2 2.5
-4 0 -10 93.16 2.97
-4 0 -10 90.78 2.41
-4 0 -9 38.34 1.29
-4 0 -9 43.25 1.7
-4 0 -9 39.89 2.02
-4 0 -9 43.14 1.61
-4 0 -8 11.67 0.86
-4 0 -8 11.05 1.1
-4 0 -8 10.6 0.69
-4 0 -8 10.07 0.82
4 0 8 11.96 1.78
-4 0 -7 11.25 0.87
-4 0 -7 10.07 1.06
-4 0 -7 12.98 0.85
-4 0 -7 13.65 0.82
-4 0 -7 12.81 0.92
4 0 7 11.62 1.77
4 0 6 330.31 10.07
-4 0 -6 248.53 5.96
-4 0 -6 326.22 7.23
-4 0 -6 311 5.87
-4 0 -6 274.58 5.95
-4 0 -6 302.18 6.09
-4 0 -6 295.8 5.72
-4 0 -5 177.34 3.71
-4 0 -5 171.64 4.76
-4 0 -5 165.12 3.67
-4 0 -5 157.6 3.94
-4 0 -5 151.05 3.76
-4 0 -5 163.21 5.56
-4 0 -4 8.43 0.65
-4 0 -4 7.56 1.16
-4 0 -4 8.79 0.72
-4 0 -4 8.93 0.61
-4 0 -4 8.36 0.71
-4 0 -4 8.26 0.64
-4 0 -4 9.42 0.65
-4 0 -3 141.84 5.51
-4 0 -3 133.13 5.26
-4 0 -3 155.7 3.63
-4 0 -3 124.4 3.07
-4 0 -3 165.59 4.17
-4 0 -3 132.84 3.01
-4 0 -3 147.65 4.82
-4 0 -3 137.57 3.49
-4 0 -3 147.57 3.41
-4 0 -3 140.76 3.03
-4 0 -3 144.05 3.21
-4 0 -2 27.8 1.34
-4 0 -2 26.1 1.1
-4 0 -2 26.18 1.4
-4 0 -2 21.58 0.87
-4 0 -2 22.77 1.78
-4 0 -2 26.02 1.22
-4 0 -2 24.5 1.17
-4 0 -2 24.74 1
-4 0 -2 26.02 2.26
-4 0 -2 24.28 2.12
-4 0 -1 46.99 2.99
-4 0 -1 48.64 1.48
-4 0 -1 46.91 1.57
-4 0 -1 47.09 1.85
-4 0 -1 40.8 1.76
-4 0 -1 42.03 1.4
-4 0 -1 48.03 2.66
-4 0 -1 44.67 1.65
-4 0 -1 44.17 1.66
-4 0 -1 45.7 1.47
-4 0 -1 46.17 1.42
-4 0 0 14.22 1.64
-4 0 0 12.98 1.62
-4 0 0 14.79 1.72
-4 0 0 13.39 0.72
-4 0 0 14.85 0.82
-4 0 0 14.1 0.97
-4 0 0 14.8 0.79
-4 0 0 14 0.93
-4 0 0 14.19 1.43
-4 0 0 12.98 0.83
-4 0 0 13.64 0.86
-4 0 0 11.88 0.69
-4 0 0 13.28 0.67
-4 0 1 165.48 5.94
-4 0 1 162 5.98
-4 0 1 176.27 6.29
-4 0 1 152.1 3.29
-4 0 1 147.22 3.85
-4 0 1 168.57 3.49
-4 0 1 164.75 3.74
-4 0 1 146.96 3.4
-4 0 1 156.01 5.2
-4 0 1 152.09 3.53
-4 0 1 147.2 3.57
-4 0 1 147.13 3.28
-4 0 1 141.58 3.04
-4 0 2 380.73 8.03
-4 0 2 454.54 7.95
-4 0 2 415.55 7.75
-4 0 2 442.81 10.1
-4 0 2 427.07 7.82
-4 0 2 417.74 10.93
-4 0 2 482.88 11.58
-4 0 2 400.67 7.84
-4 0 3 253.86 5.54
-4 0 3 268.07 5.34
-4 0 3 248.07 7.06
-4 0 3 240.06 4.95
-4 0 3 248.77 5.3
-4 0 3 266.23 4.99
-4 0 3 257.31 7.97
-4 0 3 258.69 7.88
-4 0 3 279.44 5.05
-4 0 3 285.11 8.37
-4 0 4 147.67 5.8
-4 0 4 150.05 5.61
-4 0 4 167.83 3.88
-4 0 4 166.3 3.68
-4 0 4 155.35 3.6
-4 0 4 158.04 5.11
-4 0 4 148.01 3.42
-4 0 4 135.03 3.71
-4 0 4 141.66 3.41
-4 0 4 145.01 3.54
-4 0 4 158.64 3.27
-4 0 5 134.33 3.22
-4 0 5 142.44 3.51
-4 0 5 143.53 4.77
4 0 -5 137.85 4.79
-4 0 5 142.31 3.43
-4 0 5 140.56 3.78
-4 0 5 140.22 5.39
-4 0 5 141.52 3.04
-4 0 6 30.8 1.37
4 0 -6 31.06 2.19
-4 0 6 34.19 1.43
-4 0 6 32.02 1.61
-4 0 6 28.58 1.25
-4 0 6 31.55 1.05
-4 0 7 44.83 2
4 0 -7 42.3 2.74
-4 0 7 43.72 1.65
-4 0 7 45.23 1.67
-4 0 8 379.69 8.29
4 0 -8 368.67 10.23
-4 0 8 397.57 7.55
-4 0 8 407.9 7.78
-4 0 9 0.22 0.22
-4 0 9 0.51 0.25
-4 0 9 0.23 0.21
-4 0 10 14.48 0.94
-4 0 10 15.04 0.95
-4 0 10 14.78 1.1
-4 0 11 15.34 0.89
-4 0 11 15.27 1.03
4 0 -11 13.7 0.82
-4 0 12 9.56 0.71
4 0 -12 9.14 0.58
-4 0 12 9.95 0.62
-4 0 12 10.08 0.69
-4 0 13 26.43 1
-4 0 13 25.69 0.85
-4 -1 -11 25.49 1.07
-4 -1 -11 26.59 1
-4 -1 -10 14.31 0.79
-4 -1 -10 15.32 0.87
-4 -1 -10 16.07 1.02
-4 -1 -9 58.66 1.64
-4 -1 -9 65.37 2.11
-4 -1 -9 59.97 1.99
-4 -1 -9 65.96 2.47
-4 -1 -8 1.86 0.37
-4 -1 -8 1.75 0.48
-4 -1 -8 1.67 0.31
-4 -1 -8 1.62 0.35
-4 -1 -8 1.37 0.29
-4 -1 -7 3.57 0.63
-4 -1 -7 2.55 0.45
-4 -1 -7 3.18 0.44
-4 -1 -7 2.76 0.43
-4 -1 -7 2.99 0.41
-4 -1 -7 3.73 0.5
4 1 7 3.67 1.06
-4 -1 -6 7.43 0.91
-4 -1 -6 5.75 0.67
-4 -1 -6 5.73 0.56
-4 -1 -6 5.71 0.64
-4 -1 -6 5.54 0.6
-4 -1 -6 6.56 0.58
4 1 6 6.27 1.32
-4 -1 -5 7.05 0.85
-4 -1 -5 4.63 0.59
-4 -1 -5 6.62 0.58
-4 -1 -5 5.17 0.6
-4 -1 -5 5.67 0.54
-4 -1 -5 5.34 0.57
4 1 5 4.98 1.16
-4 -1 -4 59.77 3.49
-4 -1 -4 61.37 2.09
4 1 4 58.49 3.72
-4 -1 -4 65.96 2.59
-4 -1 -4 54.1 2.11
-4 -1 -4 56.23 1.8
-4 -1 -4 61.52 2.19
-4 -1 -4 60.64 1.87
-4 -1 -4 56.2 1.92
-4 -1 -4 59.49 1.93
-4 -1 -3 43.19 2.96
-4 -1 -3 43.92 3.06
-4 -1 -3 45.64 1.81
4 1 3 39.88 2.9
-4 -1 -3 47.89 2.07
-4 -1 -3 40.16 1.41
-4 -1 -3 39.99 1.71
-4 -1 -3 42.55 1.64
-4 -1 -3 42.36 1.34
-4 -1 -3 41.36 1.47
-4 -1 -2 93.85 2.89
-4 -1 -2 97.57 3.02
-4 -1 -2 92.42 2.66
-4 -1 -2 91.87 2.25
-4 -1 -2 84.67 4.37
-4 -1 -2 93.12 4.64
-4 -1 -1 280.78 8.39
-4 -1 -1 232.3 5.59
-4 -1 -1 268.53 5.71
-4 -1 -1 246.01 4.94
-4 -1 -1 260.74 7.25
-4 -1 -1 248.14 5.37
-4 -1 -1 254.96 5.03
-4 -1 -1 252.24 5.4
-4 -1 -1 240.63 4.78
-4 -1 -1 253.56 4.85
-4 -1 0 0.14 0.33
-4 -1 0 0.76 0.25
-4 -1 0 0.68 0.46
-4 -1 0 0.01 0.12
-4 -1 0 0.29 0.2
-4 -1 0 0.68 0.4
-4 -1 0 0.54 0.22
-4 -1 0 0.31 0.21
-4 -1 0 0.27 0.15
-4 -1 0 0.42 0.16
-4 -1 1 337.64 9.97
-4 -1 1 320.08 9.5
-4 -1 1 330.98 7.06
-4 -1 1 344.04 6.63
-4 -1 1 316.2 6.33
-4 -1 1 352.84 8.7
-4 -1 1 332.94 6.53
-4 -1 1 325.77 6.35
-4 -1 1 319.99 5.88
-4 -1 1 340.32 6.1
-4 -1 1 314.78 6.56
-4 -1 2 255.81 5.9
-4 -1 2 261.11 5.36
-4 -1 2 256.71 5.31
-4 -1 2 276.21 7.41
-4 -1 2 261.95 5.34
-4 -1 2 263.05 5.36
-4 -1 2 251.49 8.29
-4 -1 2 268.3 8.45
-4 -1 2 236.01 5.38
-4 -1 3 183.93 4.72
-4 -1 3 201.86 4.33
-4 -1 3 204.71 6.13
-4 -1 3 185.17 3.99
-4 -1 3 193.62 4.39
-4 -1 3 194.37 4.32
-4 -1 3 189.72 7.15
-4 -1 3 204.14 7.12
-4 -1 3 187.68 4.39
-4 -1 3 197.88 3.94
-4 -1 4 66.61 2.36
-4 -1 4 53.84 1.66
-4 -1 4 62.15 2.02
-4 -1 4 58.92 2.03
-4 -1 4 54.91 1.81
-4 -1 4 58.96 2.08
-4 -1 4 60.12 3.62
-4 -1 4 52.93 3.48
-4 -1 4 54.57 1.96
-4 -1 4 62.26 1.69
-4 -1 5 137.54 3.24
-4 -1 5 130.97 3.47
-4 -1 5 141.91 3.43
-4 -1 5 132.67 3.69
-4 -1 5 129.86 5.6
-4 -1 5 138.88 5.5
-4 -1 5 128.84 3.39
-4 -1 5 141.27 3
-4 -1 6 61.32 2.31
-4 -1 6 69.33 2.18
-4 -1 6 64.55 2.01
-4 -1 6 65.57 2.19
-4 -1 7 80.87 2.79
-4 -1 7 89.4 2.58
-4 -1 7 85.16 2.47
-4 -1 8 2.63 0.48
-4 -1 8 3.97 0.52
-4 -1 8 3.26 0.44
-4 -1 8 2.99 0.47
-4 -1 9 5.34 0.67
-4 -1 9 6.2 0.63
-4 -1 9 6.36 0.56
-4 -1 9 6.24 0.63
-4 -1 10 72.04 2.24
-4 -1 10 71.72 2.21
-4 -1 11 115.9 2.96
-4 -1 11 115.06 3.19
-4 -1 12 8.81 0.64
4 1 -12 8.67 0.57
-4 -1 12 9.39 0.59
-4 -1 12 9.71 0.62
-4 -1 13 98.42 2.15
-4 -1 13 99.87 2.06
-4 -2 -10 22.86 1.03
-4 -2 -10 21.84 0.93
-4 -2 -9 8.25 0.52
-4 -2 -9 9.23 0.54
-4 -2 -9 10.25 0.72
-4 -2 -9 10.45 0.83
-4 -2 -8 83.3 2.36
-4 -2 -8 86.53 2.42
-4 -2 -8 86.22 2.55
-4 -2 -8 83.56 2.16
-4 -2 -8 87.11 2.83
-4 -2 -8 76.52 2.5
-4 -2 -7 37.03 1.58
-4 -2 -7 32.09 1.4
-4 -2 -7 33.77 1.32
-4 -2 -7 34.61 1.54
-4 -2 -7 32.51 1.75
-4 -2 -7 29.26 1.52
-4 -2 -6 7.48 0.83
-4 -2 -6 4.83 0.62
-4 -2 -6 5.49 0.57
-4 -2 -6 5.14 0.62
-4 -2 -6 5.66 0.56
-4 -2 -6 4.61 0.56
4 2 6 4.43 1.15
-4 -2 -5 204.91 5.18
-4 -2 -5 170.37 4.68
-4 -2 -5 180.74 4.19
-4 -2 -5 184.76 4.63
-4 -2 -5 189.16 4.42
-4 -2 -5 203.6 4.26
4 2 5 168.4 7.24
-4 -2 -4 38.72 2.86
-4 -2 -4 36.83 1.9
-4 -2 -4 41.74 1.7
4 2 4 30.59 2.79
-4 -2 -4 34.11 1.4
-4 -2 -4 38.28 1.47
-4 -2 -4 35.7 1.52
-4 -2 -4 37.5 1.5
-4 -2 -3 22.91 2.3
-4 -2 -3 21.1 1.27
4 2 3 14.15 1.84
-4 -2 -3 20.72 1.36
-4 -2 -3 18.73 0.96
-4 -2 -3 20.73 1.04
-4 -2 -3 18.85 1.02
-4 -2 -3 25.63 1.25
-4 -2 -2 13.83 1.06
-4 -2 -2 13.93 1.09
-4 -2 -2 13.32 0.98
-4 -2 -2 14.3 0.97
-4 -2 -2 12.63 1.76
-4 -2 -2 13.52 1.78
-4 -2 -1 115.27 5.61
-4 -2 -1 109.13 5.23
-4 -2 -1 112.02 3.23
-4 -2 -1 105.49 2.77
-4 -2 -1 122.77 3.61
-4 -2 -1 105.11 3.09
-4 -2 -1 115.57 2.75
-4 -2 -1 109.35 2.68
-4 -2 -1 102.42 2.55
-4 -2 -1 109.49 3.12
-4 -2 0 278.88 9.44
-4 -2 0 287.84 9.13
-4 -2 0 306.83 6.12
-4 -2 0 275.32 5.67
-4 -2 0 250.42 6.36
-4 -2 0 281.51 5.98
-4 -2 0 279.85 5.5
-4 -2 0 293.82 5.38
-4 -2 0 274.35 5.32
-4 -2 0 267.53 5.94
-4 -2 1 1.65 0.7
-4 -2 1 2.12 0.76
-4 -2 1 2.81 0.43
-4 -2 1 2.08 0.36
-4 -2 1 4.48 0.66
-4 -2 1 4.31 0.52
-4 -2 1 2.51 0.37
-4 -2 1 2.28 0.31
-4 -2 1 2.02 0.4
-4 -2 1 2.36 0.31
-4 -2 2 15.84 2.04
-4 -2 2 17.79 2.06
-4 -2 2 17.31 1.27
-4 -2 2 18.4 1.04
-4 -2 2 16.19 1
-4 -2 2 15.48 0.99
-4 -2 2 20.02 1.03
-4 -2 2 17.47 0.77
-4 -2 2 18.31 0.86
-4 -2 2 16.25 1.06
-4 -2 3 133.3 4.04
-4 -2 3 144.88 3.47
-4 -2 3 134.42 3.19
-4 -2 3 141.59 3.46
-4 -2 3 135.61 3.44
-4 -2 3 131.47 6.13
-4 -2 3 152.17 6.22
-4 -2 3 147.38 3.14
-4 -2 3 128.09 3.57
-4 -2 4 476.21 9.27
-4 -2 4 432.2 8.01
-4 -2 4 513.03 8.64
-4 -2 4 440.76 8.55
-4 -2 4 417.42 8.15
-4 -2 4 438.61 8.47
-4 -2 4 472.77 12.55
-4 -2 4 454.61 12.13
-4 -2 4 435.56 8.53
-4 -2 5 50.97 2.17
-4 -2 5 52.83 1.76
-4 -2 5 57.67 2.06
-4 -2 5 57.05 1.92
-4 -2 5 53.11 1.99
-4 -2 5 56.58 3.63
-4 -2 5 51.58 3.53
-4 -2 5 58.7 2.02
-4 -2 6 178.01 4.26
-4 -2 6 171.53 4.29
-4 -2 6 171.24 3.95
-4 -2 6 165.85 6.24
-4 -2 7 40.65 1.8
-4 -2 7 46.98 1.8
-4 -2 7 44.86 1.67
-4 -2 7 43.31 1.73
-4 -2 8 69.54 2.16
-4 -2 8 71.38 2.2
-4 -2 9 4.84 0.58
-4 -2 9 4.92 0.56
-4 -2 9 5.03 0.5
-4 -2 9 5.87 0.59
-4 -2 10 20.1 1.04
-4 -2 10 17.67 0.98
-4 -2 11 103.7 2.62
-4 -2 11 108.58 2.64
-4 -2 12 17.78 0.78
4 2 -12 19.83 0.84
-4 -2 12 19.17 0.81
-4 -2 13 7.07 0.36
-4 -3 -9 1.07 0.22
-4 -3 -9 1.09 0.18
-4 -3 -9 1.2 0.23
-4 -3 -8 14.34 0.75
-4 -3 -8 12.12 0.78
-4 -3 -8 14.47 0.8
-4 -3 -8 13.75 0.87
-4 -3 -7 95.51 2.74
-4 -3 -7 94.89 2.46
-4 -3 -7 107.89 2.88
-4 -3 -7 111.69 3.08
-4 -3 -6 3.59 0.48
-4 -3 -6 5.14 0.55
-4 -3 -6 4.5 0.57
-4 -3 -6 3.83 0.56
-4 -3 -5 4.67 0.62
-4 -3 -5 3.56 0.48
-4 -3 -5 3.34 0.46
4 3 5 2.71 0.93
-4 -3 -4 35.97 1.57
4 3 4 31.27 2.92
-4 -3 -4 36.13 1.74
-4 -3 -4 31.17 1.61
-4 -3 -4 31.96 1.37
-4 -3 -4 29.91 1.39
-4 -3 -4 33.92 1.42
-4 -3 -3 1.74 0.4
-4 -3 -3 1.43 0.32
-4 -3 -3 1.22 0.63
-4 -3 -3 1.46 0.39
-4 -3 -3 1.28 0.29
-4 -3 -3 2.88 0.5
-4 -3 -2 110.89 3.23
-4 -3 -2 100.11 2.73
-4 -3 -2 106.79 5.52
-4 -3 -2 104.48 5.29
-4 -3 -2 106.17 3.21
-4 -3 -2 114.7 3.17
-4 -3 -1 40.1 1.58
-4 -3 -1 43.28 1.78
-4 -3 -1 41.5 3.44
-4 -3 -1 43.91 3.39
-4 -3 -1 42.4 1.84
-4 -3 -1 43.75 1.53
-4 -3 -1 43.66 1.85
-4 -3 0 426.23 8.12
-4 -3 0 450.03 12.44
-4 -3 0 445.95 8.42
-4 -3 0 439.68 7.68
-4 -3 1 0.87 0.27
-4 -3 1 1.33 0.36
-4 -3 1 0.55 0.27
-4 -3 1 0.79 0.6
-4 -3 1 0.38 0.43
-4 -3 1 0.73 0.28
-4 -3 1 1.01 0.25
-4 -3 1 0.86 0.25
-4 -3 2 114.28 5.69
-4 -3 2 107.65 5.74
-4 -3 2 115.13 3.01
-4 -3 2 117.02 3.21
-4 -3 2 108.95 3.69
-4 -3 2 118.62 3.18
-4 -3 2 110.09 2.78
-4 -3 2 117.42 2.63
-4 -3 2 109.29 3.28
-4 -3 3 133.28 4.03
-4 -3 3 121.1 3.14
-4 -3 3 118.59 3.15
-4 -3 3 117.56 2.98
-4 -3 3 112.33 5.88
-4 -3 3 119.86 5.78
-4 -3 3 121.44 3.43
-4 -3 4 24.3 1.57
-4 -3 4 28.33 1.2
-4 -3 4 30.01 1.46
-4 -3 4 26.79 1.24
-4 -3 4 27.54 1.29
-4 -3 4 26.5 1.22
-4 -3 4 26.12 2.71
-4 -3 4 28.83 2.71
-4 -3 4 29.17 1.47
-4 -3 5 9.3 0.69
-4 -3 5 8.41 0.78
-4 -3 5 8.94 0.71
-4 -3 5 8.84 0.7
-4 -3 5 9.73 1.62
-4 -3 5 8.76 1.51
-4 -3 5 9.62 0.8
-4 -3 6 105.48 2.94
-4 -3 6 112.82 3.18
-4 -3 6 111.78 2.9
-4 -3 7 63.18 2.14
-4 -3 7 71.24 2.28
-4 -3 7 71.37 2.18
-4 -3 7 68.4 2.27
-4 -3 8 0.29 0.19
-4 -3 8 0.76 0.26
-4 -3 8 0.67 0.24
-4 -3 9 9.77 0.71
-4 -3 9 12.87 0.85
-4 -3 9 12.02 0.74
-4 -3 9 11.6 0.79
-4 -3 10 1.71 0.28
-4 -3 10 2.32 0.38
-4 -3 10 1.95 0.33
-4 -3 11 21.61 0.93
-4 -3 11 22.68 0.95
-4 -3 12 7.88 0.47
-4 -3 12 7.78 0.45
-4 -4 -8 5.46 0.41
-4 -4 -8 6.49 0.45
-4 -4 -7 6.72 0.57
-4 -4 -7 7.77 0.57
-4 -4 -7 7.54 0.6
-4 -4 -6 24.09 1.08
-4 -4 -6 20.13 1.02
-4 -4 -5 1.51 0.3
-4 -4 -5 2.21 0.42
-4 -4 -4 46.56 1.97
-4 -4 -4 52.87 1.88
-4 -4 -4 44.42 1.68
-4 -4 -4 50.37 1.76
-4 -4 -4 53.1 1.73
-4 -4 -3 0.41 0.28
-4 -4 -3 0.29 0.25
-4 -4 -3 0.25 0.17
-4 -4 -3 0.21 0.18
-4 -4 -2 12.14 0.8
-4 -4 -2 12.97 1
-4 -4 -2 14.42 1
-4 -4 -2 12.7 1.87
-4 -4 -1 46.77 3.7
-4 -4 -1 44.06 1.72
-4 -4 -1 46.34 2.26
-4 -4 -1 48.2 1.99
-4 -4 -1 51.72 1.73
-4 -4 -1 49.69 1.99
-4 -4 0 13.94 1
-4 -4 0 15.47 0.89
-4 -4 1 71.43 4.53
-4 -4 1 65.35 4.54
-4 -4 1 70.15 2.4
-4 -4 1 68.21 2.87
-4 -4 1 72.31 2.42
-4 -4 1 79.51 2.12
-4 -4 1 67.94 2.5
-4 -4 2 242.85 8.95
-4 -4 2 226.51 9.04
-4 -4 2 254.78 5.58
-4 -4 2 262.46 6.48
-4 -4 2 260.33 5.46
-4 -4 2 252.92 4.87
-4 -4 2 228.56 5.6
-4 -4 3 78.35 2.15
-4 -4 3 76.23 4.87
-4 -4 3 81.06 2.68
-4 -4 3 75.25 2.52
-4 -4 4 75.83 3.14
-4 -4 4 84.11 2.32
-4 -4 4 84.4 2.69
-4 -4 4 77.96 4.87
-4 -4 4 81.85 2.71
-4 -4 5 3.47 0.66
-4 -4 5 3.45 0.42
-4 -4 5 3.97 0.47
-4 -4 5 3.58 0.51
-4 -4 5 3.23 0.99
-4 -4 5 3.96 0.53
-4 -4 6 70.26 2.33
-4 -4 6 69.93 2.1
-4 -4 6 68.92 2.22
-4 -4 6 72.21 2.22
-4 -4 7 33.9 1.42
-4 -4 7 32.19 1.33
-4 -4 7 29.61 1.39
-4 -4 8 58.47 1.92
-4 -4 8 61.89 1.9
-4 -4 8 56.47 1.85
-4 -4 9 5.25 0.5
-4 -4 9 5.38 0.45
-4 -4 10 42.97 1.41
-4 -4 10 41.75 1.37
-4 -4 11 11.51 0.6
-4 -4 11 12.52 0.6
-4 -5 -6 17.33 0.88
-4 -5 -5 45.55 1.5
-4 -5 -5 47.9 1.71
-4 -5 -4 36.51 1.31
-4 -5 -4 36.6 1.41
-4 -5 -4 38.36 1.26
-4 -5 -4 35.76 1.55
-4 -5 -3 8.8 0.76
-4 -5 -3 8.89 0.77
-4 -5 -3 11 0.8
-4 -5 -3 8.41 0.65
-4 -5 -2 30.16 1.56
-4 -5 -2 25.03 1.32
-4 -5 -2 21.47 1.02
-4 -5 -2 25.74 1.24
-4 -5 -2 26.9 1.3
-4 -5 -1 26.32 1.58
-4 -5 -1 22.14 1.11
-4 -5 -1 25.34 1.2
-4 -5 -1 25.84 1.34
-4 -5 0 35.65 1.41
-4 -5 0 36.99 1.54
-4 -5 1 60.9 2.66
-4 -5 1 67.4 2.25
-4 -5 1 65.02 1.93
-4 -5 1 68.4 2.41
-4 -5 2 128.88 3.33
-4 -5 2 124.45 3.96
-4 -5 3 133.56 3.47
-4 -5 3 130.01 3.54
-4 -5 3 127.94 4.05
-4 -5 4 164.43 3.95
-4 -5 4 157.56 3.95
-4 -5 4 137.1 4.24
-4 -5 4 148.28 3.37
-4 -5 4 146.02 3.41
-4 -5 5 180.41 4.11
-4 -5 5 156.96 3.95
-4 -5 5 175.83 4.69
-4 -5 5 156.72 3.56
-4 -5 5 156.92 3.64
-4 -5 6 71.46 2.27
-4 -5 6 71.13 2.17
-4 -5 6 70.03 2.41
-4 -5 6 70.32 2.03
-4 -5 6 73.3 2.12
-4 -5 7 28.9 1.2
-4 -5 7 28.92 1.16
-4 -5 7 27.04 1.22
-4 -5 8 46.02 1.54
-4 -5 8 46.97 1.48
-4 -5 8 46.89 1.51
-4 -5 9 0.14 0.16
-4 -5 9 0.17 0.12
-4 -5 9 0.52 0.18
-4 -5 10 62.26 1.54
-4 -6 -6 2.32 0.23
-4 -6 -5 2.27 0.28
-4 -6 -4 36.89 1.31
-4 -6 -3 20.81 0.85
-4 -6 -3 21.32 0.92
-4 -6 -3 19.96 0.99
-4 -6 -2 7.98 0.6
-4 -6 -2 6.41 0.63
-4 -6 -2 7.59 0.63
-4 -6 -1 33.24 1.27
-4 -6 -1 40.12 1.54
-4 -6 -1 43.82 1.83
-4 -6 -1 35.9 1.42
-4 -6 0 33.41 1.35
-4 -6 0 35.22 1.38
-4 -6 1 5.91 0.57
-4 -6 1 6.07 0.63
-4 -6 1 5.93 0.74
-4 -6 1 6.02 0.52
-4 -6 2 11.28 0.8
-4 -6 2 11.75 0.88
-4 -6 3 39.15 1.58
-4 -6 3 37.22 1.59
-4 -6 4 41.6 1.58
-4 -6 4 38.3 1.56
-4 -6 4 37.59 1.78
-4 -6 5 46.11 1.42
-4 -6 5 52.47 1.76
-4 -6 5 51.72 1.73
-4 -6 5 44.11 1.84
-4 -6 5 46.16 1.4
-4 -6 6 0.68 0.23
-4 -6 6 1.15 0.21
-4 -6 6 0.24 0.21
-4 -6 6 0.63 0.2
-4 -6 6 0.52 0.16
-4 -6 7 16.19 0.73
-4 -6 7 15.44 0.69
-4 -6 7 17.07 0.81
-4 -6 8 18.32 0.74
-4 -6 8 17.42 0.69
-4 -6 8 18.97 0.73
-4 -6 9 56.67 1.36
-4 -7 -3 19.43 0.68
-4 -7 -2 18.49 0.66
-4 -7 -2 17.62 0.68
-4 -7 -2 18.73 0.71
-4 -7 -1 79.2 1.95
-4 -7 -1 83.16 1.86
-4 -7 0 3.65 0.34
-4 -7 0 4.46 0.43
-4 -7 1 25.4 1
-4 -7 1 24.49 1.21
-4 -7 1 24.04 1.06
-4 -7 2 53.71 1.6
-4 -7 2 49.41 1.84
-4 -7 2 50.24 1.66
-4 -7 3 7.11 0.66
-4 -7 3 9.99 0.66
-4 -7 4 13.68 0.74
-4 -7 4 14.16 0.88
-4 -7 4 14.59 0.77
-4 -7 5 18.48 0.82
-4 -7 5 16.12 0.85
-4 -7 5 18.75 0.8
-4 -7 6 7.1 0.45
-4 -7 7 0.86 0.14
-5 11 -3 5.42 0.29
-5 11 -3 3.02 0.25
-5 11 -2 2.35 0.24
-5 11 -2 2.61 0.24
-5 11 -1 0.13 0.08
5 -11 1 0.11 0.06
-5 11 -1 0.09 0.09
-5 11 -1 0.13 0.11
-5 11 0 22.77 0.73
-5 11 1 30.86 0.86
5 -10 6 43.14 0.96
-5 10 -6 19.93 0.85
-5 10 -6 44.73 1.02
5 -10 6 44.14 0.97
-5 10 -6 22.06 0.78
5 -10 5 25.71 0.78
-5 10 -5 25.12 0.82
-5 10 -4 123.92 2.72
-5 10 -4 112.09 2.32
5 -10 4 108.32 2.24
-5 10 -4 94.58 2.25
-5 10 -4 92.12 2.29
-5 10 -3 0.47 0.21
-5 10 -3 0.33 0.17
5 -10 3 0.32 0.13
-5 10 -3 0.51 0.19
-5 10 -2 9.04 0.64
5 -10 2 8.22 0.5
-5 10 -2 9.24 0.61
-5 10 -1 2.45 0.36
-5 10 -1 2.96 0.36
-5 10 0 40.52 1.4
-5 10 0 44.48 1.23
-5 10 0 43.03 1.48
-5 10 0 46.18 1.47
-5 10 1 162.56 3.3
-5 10 1 162.18 3.23
-5 10 1 157.95 2.91
-5 10 2 52.34 1.51
-5 10 2 55.51 1.5
-5 10 2 56.71 1.34
-5 10 3 47.84 1.16
-5 10 3 37.28 1.09
5 -9 8 1.95 0.18
-5 9 -8 2.11 0.2
5 -9 7 25.43 0.78
5 -9 7 27.59 0.83
-5 9 -7 26.72 0.88
-5 9 -6 0.3 0.18
-5 9 -6 0.3 0.14
5 -9 6 0.39 0.13
-5 9 -6 0.27 0.15
-5 9 -5 27.84 1.03
-5 9 -5 35.07 1.38
-5 9 -5 34.1 1.16
5 -9 5 31.93 1.04
-5 9 -5 27.05 1.15
-5 9 -5 25.37 1.03
-5 9 -4 0.61 0.26
-5 9 -4 0.76 0.22
-5 9 -4 0.27 0.16
5 -9 4 0.25 0.15
-5 9 -4 0.21 0.17
-5 9 -3 36.04 1.42
-5 9 -3 38.03 1.64
-5 9 -3 40.1 1.39
-5 9 -3 36.89 1.49
-5 9 -2 3.49 0.48
-5 9 -2 3.57 0.46
-5 9 -2 3.66 0.52
-5 9 -2 3.82 0.4
-5 9 -2 3.77 0.43
-5 9 -1 22.07 1.15
-5 9 -1 24.78 1.1
-5 9 -1 24.58 1.03
-5 9 -1 21.27 1.17
-5 9 0 3.42 0.49
-5 9 0 4.12 0.5
-5 9 0 2.38 0.41
-5 9 0 3.46 0.43
-5 9 0 2.82 0.36
-5 9 1 110.04 2.8
-5 9 1 100.82 2.54
-5 9 1 108.08 2.74
-5 9 2 88.8 2.41
-5 9 2 89.21 2.36
-5 9 2 82.24 2.22
-5 9 2 86.12 2.22
-5 9 2 86.21 2.36
-5 9 3 43.23 1.51
-5 9 3 39.88 1.4
-5 9 3 42.06 1.39
-5 9 4 53.57 1.52
-5 9 4 60.12 1.53
-5 9 5 5.01 0.43
-5 9 5 4.45 0.34
5 -9 -6 15.76 0.64
-5 9 6 17.22 0.72
-5 8 -9 33.23 0.93
5 -8 9 32.62 0.88
-5 8 -8 10.54 0.55
5 -8 8 8.96 0.47
-5 8 -7 1.57 0.25
-5 8 -7 1.3 0.23
5 -8 7 1.43 0.2
5 -8 6 14.34 0.68
-5 8 -6 13.88 0.86
-5 8 -6 12.53 0.75
-5 8 -5 2.95 0.38
5 -8 5 2.97 0.33
-5 8 -5 2.6 0.36
-5 8 -5 3.18 0.47
-5 8 -5 2.34 0.33
-5 8 -4 7.59 0.75
-5 8 -4 7.35 0.63
-5 8 -4 9.16 0.65
-5 8 -4 8.04 0.67
-5 8 -3 1.2 0.38
-5 8 -3 1.12 0.3
-5 8 -3 1.54 0.29
-5 8 -3 1.47 0.28
-5 8 -3 1.07 0.32
-5 8 -2 8.28 0.76
-5 8 -2 7.63 0.7
-5 8 -2 7.8 0.81
-5 8 -2 8.14 0.63
-5 8 -2 7.37 0.62
-5 8 -1 7.95 0.74
-5 8 -1 8.55 0.68
-5 8 -1 7.88 0.64
-5 8 -1 8.24 0.77
-5 8 0 17.65 1.12
-5 8 0 15.46 1.07
-5 8 0 17.58 1.07
-5 8 0 17.25 1
-5 8 0 16.75 0.95
-5 8 1 0.21 0.19
-5 8 1 0.07 0.17
-5 8 1 0.48 0.28
-5 8 2 122.13 3.25
-5 8 2 125.94 3.21
-5 8 2 124.79 3.17
-5 8 2 119.86 3.1
-5 8 2 120.83 3.14
-5 8 3 0.69 0.24
-5 8 3 0.77 0.25
-5 8 3 1.39 0.28
-5 8 3 1.05 0.27
-5 8 3 1.11 0.29
-5 8 4 39.48 1.5
-5 8 4 37.15 1.43
-5 8 4 36.2 1.3
5 -8 -5 2.36 0.33
-5 8 5 2.77 0.38
-5 8 5 2.87 0.37
-5 8 5 1.96 0.25
-5 8 5 2.28 0.26
5 -8 -6 27.65 1.11
-5 8 6 30.58 1.2
-5 8 6 30.52 1.14
5 -8 -7 25.86 0.99
-5 8 7 27.62 1.02
-5 8 7 26.49 0.93
-5 8 8 0.19 0.09
5 -8 -8 0.07 0.09
-5 7 -10 17.52 0.62
-5 7 -10 16.71 0.63
5 -7 9 0.23 0.1
-5 7 -9 0.48 0.15
-5 7 -8 12.09 0.61
5 -7 8 13.66 0.63
-5 7 -8 13.62 0.71
-5 7 -7 20 0.93
-5 7 -7 22.48 0.99
-5 7 -6 82.51 2.19
5 -7 6 69.95 1.86
-5 7 -6 69.66 2.27
-5 7 -6 78.5 2.23
-5 7 -5 20.2 1.21
5 -7 5 19.79 0.89
-5 7 -5 21.43 1.12
-5 7 -5 18.01 0.98
-5 7 -5 18.53 0.96
-5 7 -4 58.93 2.06
-5 7 -4 58.19 1.97
-5 7 -4 57.18 2.24
-5 7 -4 59.87 1.86
-5 7 -3 21.72 1.22
-5 7 -3 21.76 1.33
-5 7 -3 21.08 1.16
-5 7 -3 22.1 1.05
-5 7 -3 21.6 1.05
-5 7 -2 1.65 0.31
-5 7 -2 2.04 0.45
-5 7 -2 1.14 0.61
-5 7 -2 1.76 0.39
-5 7 -2 1.64 0.31
-5 7 -2 1.86 0.39
-5 7 -1 19 1.2
-5 7 -1 18.05 1.11
-5 7 -1 18.58 1.23
-5 7 -1 15.29 1.98
-5 7 -1 17.27 1
-5 7 -1 18.44 1
-5 7 0 24.75 1.36
-5 7 0 25.14 1.32
-5 7 0 25.52 1.45
-5 7 0 22.46 1.21
-5 7 0 25.75 1.23
-5 7 0 20.57 2.28
-5 7 1 40.03 1.74
-5 7 1 37.62 1.6
-5 7 1 41.78 1.63
-5 7 2 6.91 0.69
-5 7 2 6.33 0.64
-5 7 2 7.05 0.68
-5 7 2 5.24 1.14
-5 7 2 5.43 0.59
-5 7 2 6.31 0.61
-5 7 3 14.72 0.96
-5 7 3 12.92 0.86
-5 7 3 11.75 0.81
-5 7 3 10.75 1.56
-5 7 3 14.37 0.96
-5 7 3 12.6 0.87
-5 7 4 7.89 0.65
-5 7 4 7.76 0.57
-5 7 4 8.56 0.75
-5 7 4 7.94 0.62
-5 7 4 9.09 0.73
-5 7 5 110.95 2.65
5 -7 -5 113.25 2.97
-5 7 5 126.63 3.15
-5 7 5 105.32 2.65
-5 7 5 129.57 3.23
-5 7 6 0.23 0.17
5 -7 -6 0.44 0.21
-5 7 7 8.29 0.63
5 -7 -7 7.49 0.6
-5 7 7 8.09 0.62
-5 7 8 3.77 0.39
5 -7 -8 3.3 0.37
-5 7 8 3.68 0.36
-5 7 9 1.52 0.19
-5 7 9 1.58 0.2
-5 6 -10 3.21 0.31
-5 6 -10 3.02 0.28
-5 6 -9 41.75 1.31
-5 6 -8 0.27 0.19
5 -6 8 0.28 0.12
-5 6 -8 0.33 0.15
-5 6 -7 45.21 1.53
5 -6 7 36.36 1.36
-5 6 -6 152.83 3.46
-5 6 -6 142.31 3.61
-5 6 -6 147.45 3.54
-5 6 -5 4.52 0.59
-5 6 -5 4.26 0.52
-5 6 -4 28.25 1.34
-5 6 -4 27.61 1.3
-5 6 -4 26.43 1.44
-5 6 -4 31 1.23
-5 6 -4 31.76 1.25
-5 6 -3 68.9 2.34
-5 6 -3 68.54 2.25
-5 6 -3 74.8 2.6
-5 6 -3 73.74 2.12
-5 6 -3 74.2 2.08
-5 6 -2 52.3 4.1
-5 6 -2 56.18 2.05
-5 6 -2 52.8 2.17
-5 6 -2 58.54 2.14
-5 6 -2 54.82 1.77
-5 6 -1 5.58 1.41
-5 6 -1 5.76 0.62
-5 6 -1 6.58 0.73
-5 6 -1 3.11 0.93
-5 6 -1 5.33 0.51
-5 6 -1 5.8 0.66
-5 6 0 34.71 3.36
-5 6 0 36.68 1.61
-5 6 0 37.77 1.47
-5 6 0 35.3 2.96
-5 6 0 39.02 1.58
-5 6 0 44 1.81
-5 6 1 24.85 1.36
-5 6 1 22.98 1.31
-5 6 1 23.43 2.77
-5 6 1 26.21 1.33
-5 6 1 24.8 1.26
-5 6 1 22.03 1.12
-5 6 2 0.2 0.18
-5 6 2 0.11 0.2
-5 6 2 0.68 0.27
-5 6 2 0.72 0.64
-5 6 2 0.31 0.39
-5 6 2 0.75 0.27
-5 6 2 0.59 0.27
-5 6 3 0.26 0.19
-5 6 3 0.27 0.2
-5 6 3 0.04 0.15
-5 6 3 0.15 0.3
-5 6 3 0.3 0.22
-5 6 3 0.13 0.18
-5 6 3 0.11 0.15
-5 6 4 33.6 1.43
-5 6 4 34.56 1.4
-5 6 4 32.49 1.35
-5 6 4 36.55 1.56
-5 6 4 34.13 1.63
-5 6 4 35.93 1.53
-5 6 5 8.34 0.61
-5 6 5 9.7 0.78
-5 6 5 10.06 0.78
-5 6 5 9.18 0.65
-5 6 5 9.45 0.83
-5 6 6 53.33 2.06
-5 6 6 55.19 1.93
-5 6 7 11.15 0.84
-5 6 7 10.73 0.76
-5 6 7 10.7 0.79
-5 6 8 61.54 2
-5 6 8 61.01 1.89
-5 6 9 0.27 0.15
-5 6 9 0.22 0.13
-5 6 10 0.19 0.1
5 -6 -10 0.17 0.11
-5 5 -11 9.79 0.47
-5 5 -11 13.45 0.53
-5 5 -10 7.89 0.52
-5 5 -10 7.44 0.48
-5 5 -9 40.66 1.44
-5 5 -9 40.86 1.35
-5 5 -8 98.19 2.46
-5 5 -8 89.92 2.28
-5 5 -7 9.93 0.71
-5 5 -7 10 0.69
-5 5 -6 193.32 4.29
-5 5 -5 144.04 3.4
-5 5 -5 135.08 3.62
-5 5 -5 144.97 3.55
-5 5 -4 35.07 1.49
-5 5 -4 35.97 3.26
-5 5 -4 35.15 1.45
-5 5 -4 40.36 1.76
-5 5 -4 40.59 1.51
-5 5 -4 39.27 1.37
-5 5 -4 39.43 1.62
-5 5 -3 105.8 3.01
-5 5 -3 113.89 5.96
-5 5 -3 104.22 2.91
-5 5 -3 119.41 3.35
-5 5 -3 117.79 2.8
-5 5 -3 110.47 2.63
-5 5 -3 116.52 3.1
-5 5 -2 178.69 4.29
-5 5 -2 191.6 7.98
-5 5 -2 175.85 4.16
-5 5 -2 187.17 4.52
-5 5 -2 179.17 3.94
-5 5 -2 172.55 3.69
-5 5 -1 212.48 4.81
-5 5 -1 204.05 8.39
-5 5 -1 202.44 4.66
-5 5 -1 212.57 5
-5 5 -1 187.63 7.21
-5 5 -1 206.87 4.48
-5 5 -1 196.56 4.14
-5 5 0 73.69 2.4
-5 5 0 70.13 4.72
-5 5 0 70.38 2.31
-5 5 0 71.61 2.5
-5 5 0 73.07 2.24
-5 5 0 67.36 1.96
-5 5 1 4.45 0.59
-5 5 1 3.68 0.41
-5 5 1 3.24 0.92
-5 5 1 3.48 1.13
-5 5 1 3.83 0.52
-5 5 1 3.8 0.52
-5 5 1 3.78 0.42
-5 5 2 210.98 4.86
-5 5 2 197.41 7.34
-5 5 2 198.08 4.41
-5 5 2 212.22 8.48
-5 5 2 205.23 4.64
-5 5 2 203.82 4.4
-5 5 3 83.09 2.52
-5 5 3 85.11 5.1
-5 5 3 94.46 2.64
-5 5 3 75.72 4.21
-5 5 3 87.94 2.52
-5 5 3 85.01 2.46
-5 5 3 95.5 2.73
-5 5 4 0.81 0.25
-5 5 4 0.22 0.2
-5 5 4 0.21 0.19
-5 5 4 0.32 0.36
-5 5 4 0.24 0.18
-5 5 4 0.58 0.27
-5 5 4 0.29 0.2
-5 5 5 50.9 1.84
-5 5 5 50.8 1.88
-5 5 5 49.76 1.63
-5 5 5 47.76 1.98
-5 5 5 48.71 1.66
-5 5 6 47.99 1.85
-5 5 6 50.92 1.85
-5 5 6 49.27 2.01
-5 5 7 1.99 0.35
-5 5 7 2.09 0.44
-5 5 8 87.05 2.43
-5 5 8 82.87 2.53
-5 5 9 139.17 3.15
-5 5 9 132.71 3.22
-5 5 10 28.58 1.05
-5 5 10 27.91 1.1
-5 5 11 83.95 1.89
-5 4 -11 12.43 0.56
-5 4 -11 12.65 0.56
-5 4 -10 12.91 0.69
-5 4 -10 13.08 0.67
-5 4 -9 62.5 1.73
-5 4 -9 59.87 1.8
-5 4 -8 105.49 3.05
-5 4 -8 108.37 2.62
-5 4 -8 111.48 2.89
-5 4 -7 281.6 5.39
-5 4 -7 249.15 5.82
-5 4 -6 20.43 1.08
-5 4 -6 18.45 1.19
-5 4 -6 20.11 1.03
-5 4 -5 291.01 6.41
-5 4 -5 293.91 5.74
-5 4 -5 310.31 6.01
-5 4 -4 27.15 1.24
-5 4 -4 28.43 1.4
-5 4 -4 27.9 1.44
-5 4 -4 28.86 2.79
-5 4 -4 28.42 1.24
-5 4 -4 30.34 1.25
-5 4 -4 28.51 1.09
-5 4 -4 32.15 1.42
-5 4 -3 0.41 0.23
-5 4 -3 0.59 0.27
-5 4 -3 0.66 0.27
-5 4 -3 0.37 0.22
-5 4 -3 0.47 0.37
-5 4 -3 0.24 0.17
-5 4 -3 0.28 0.16
-5 4 -3 0.35 0.2
-5 4 -3 0.1 0.51
-5 4 -2 228.18 8.6
-5 4 -2 218.81 4.64
-5 4 -2 222.56 4.99
-5 4 -2 207.24 4.62
-5 4 -2 193.95 7.02
-5 4 -2 188.2 4.19
-5 4 -2 206.53 4.3
-5 4 -2 221.42 4.75
-5 4 -1 77.16 2.46
-5 4 -1 76.41 2.35
-5 4 -1 83.01 2.67
-5 4 -1 79.24 2.31
-5 4 -1 82.6 2.27
-5 4 -1 82.62 2.28
-5 4 -1 82.38 2.39
-5 4 0 88.14 2.65
-5 4 0 89.89 5.29
-5 4 0 86.76 2.56
-5 4 0 100.01 2.91
-5 4 0 89.75 2.45
-5 4 0 74.23 4.24
-5 4 0 87.42 2.45
-5 4 0 90.06 2.49
-5 4 0 83.32 2.42
-5 4 1 80.25 4.92
-5 4 1 69.69 2.23
-5 4 1 69.29 2.07
-5 4 1 72.94 2.16
-5 4 1 60.93 3.77
-5 4 1 69.7 2.21
-5 4 1 76.21 2.29
-5 4 1 75.38 2.36
-5 4 2 1.14 0.24
-5 4 2 0.91 0.28
-5 4 2 0.78 0.26
-5 4 2 1.56 0.8
-5 4 2 0.78 0.25
-5 4 2 0.6 0.19
-5 4 3 252.54 9.06
-5 4 3 240.91 4.94
-5 4 3 221.91 7.46
-5 4 3 209.67 4.72
-5 4 3 220.96 4.88
-5 4 3 234.75 5.08
-5 4 3 229.55 5.15
-5 4 3 233.94 5.02
-5 4 4 6.17 0.57
-5 4 4 4.6 0.5
-5 4 4 3.9 0.9
-5 4 4 5.24 0.55
-5 4 4 5.92 0.63
-5 4 4 6.2 0.66
-5 4 4 5.73 0.56
-5 4 5 0.85 0.26
-5 4 5 0.99 0.32
-5 4 5 1.28 0.27
-5 4 5 1.55 0.62
-5 4 5 1.21 0.26
-5 4 5 1.1 0.31
-5 4 5 1.44 0.52
-5 4 6 23.07 1.23
-5 4 6 22.74 1.28
-5 4 6 21.47 1.09
-5 4 6 19.77 0.89
-5 4 6 20.29 0.89
-5 4 7 90.21 2.88
-5 4 7 84.77 2.46
-5 4 8 76.41 2.32
-5 4 8 72.16 2.44
-5 4 8 73.65 2.35
-5 4 9 3.24 0.44
-5 4 9 3.19 0.46
-5 4 9 2.64 0.33
-5 4 9 3.11 0.43
-5 4 10 212.55 4.36
-5 4 10 218.59 4.57
-5 4 10 215.87 4.39
-5 4 11 0.81 0.19
-5 4 11 0.51 0.15
-5 3 -11 2.54 0.25
-5 3 -11 2.87 0.27
-5 3 -10 46.09 1.45
-5 3 -10 45.65 1.59
-5 3 -10 49.7 1.46
-5 3 -9 24.04 1.09
-5 3 -9 24.02 1.29
-5 3 -9 26.25 1.07
-5 3 -8 99.81 3.08
-5 3 -8 92.41 2.34
-5 3 -8 97.11 2.63
-5 3 -7 9.99 0.93
-5 3 -7 10.07 0.76
-5 3 -7 11.02 0.73
-5 3 -6 40.44 1.92
-5 3 -6 35.2 1.47
-5 3 -6 36.96 1.46
-5 3 -6 37.68 1.45
-5 3 -5 116.08 3.58
-5 3 -5 111.05 2.93
-5 3 -5 118.71 3.02
-5 3 -4 63.34 2.14
-5 3 -4 67.71 2.49
-5 3 -4 67 2.1
-5 3 -4 65.44 1.93
-5 3 -4 55.21 1.85
-5 3 -4 72.24 4.35
-5 3 -4 57.76 1.85
-5 3 -3 1.57 0.3
-5 3 -3 1.8 0.81
-5 3 -3 2.17 0.37
-5 3 -3 1.7 0.37
-5 3 -3 1.44 0.37
-5 3 -3 2.38 0.32
-5 3 -3 1.92 0.64
-5 3 -3 2.15 0.27
-5 3 -3 1.5 0.31
-5 3 -2 173.5 7.19
-5 3 -2 158.94 3.62
-5 3 -2 157.95 3.86
-5 3 -2 162.8 4.59
-5 3 -2 165 4.04
-5 3 -2 152.34 5.89
-5 3 -2 143.11 3.24
-5 3 -2 164.53 3.65
-5 3 -2 139.53 3.19
-5 3 -2 144.56 3.61
-5 3 -1 150.65 3.58
-5 3 -1 149.59 3.5
-5 3 -1 153.03 3.75
-5 3 -1 155.6 3.78
-5 3 -1 129.08 5.48
-5 3 -1 132.09 3.01
-5 3 -1 146.83 3.42
-5 3 -1 134.84 3.17
-5 3 -1 156.28 3.52
-5 3 0 2.22 0.38
-5 3 0 2.37 0.38
-5 3 0 2.48 0.96
-5 3 0 2.96 0.46
-5 3 0 1.89 0.62
-5 3 0 3.14 0.43
-5 3 0 2.75 0.34
-5 3 0 2.24 0.73
-5 3 0 2.6 0.41
-5 3 0 2.57 0.35
-5 3 0 3.2 0.4
-5 3 1 97.12 2.75
-5 3 1 110.41 5.71
-5 3 1 97.54 2.7
-5 3 1 99.64 2.52
-5 3 1 108.14 2.82
-5 3 1 91.18 4.5
-5 3 1 104.3 2.83
-5 3 1 98.43 2.66
-5 3 1 101.65 2.53
-5 3 2 10.83 1.76
-5 3 2 9.47 0.76
-5 3 2 7.35 0.93
-5 3 2 8.88 0.66
-5 3 2 10.76 0.79
-5 3 2 8.33 0.59
-5 3 2 9.21 0.76
-5 3 2 8.82 0.7
-5 3 2 8.75 0.58
-5 3 3 17.89 2.22
-5 3 3 16.22 0.92
-5 3 3 16.9 0.98
-5 3 3 4.54 0.77
-5 3 3 15.93 0.91
-5 3 3 28.48 1.53
-5 3 3 18.07 1.1
-5 3 3 16.89 0.97
-5 3 3 16.29 1
-5 3 3 15.37 0.87
-5 3 3 15.72 1.78
-5 3 4 125.81 5.95
-5 3 4 116.85 2.93
-5 3 4 111.1 2.89
-5 3 4 113.98 3
-5 3 4 122.08 5.03
-5 3 4 123.59 3.38
-5 3 4 123.35 3.32
-5 3 4 121.33 3.03
-5 3 5 1.51 0.27
-5 3 5 1.73 0.3
-5 3 5 1.74 0.37
-5 3 5 1.42 0.31
-5 3 5 1.68 0.59
-5 3 5 1.55 0.38
-5 3 5 1.72 0.37
-5 3 5 1.51 0.61
-5 3 5 1.73 0.3
-5 3 6 155.85 3.33
-5 3 6 151.13 3.63
-5 3 6 163.95 3.75
-5 3 6 163.05 4.21
-5 3 6 166.53 3.91
-5 3 6 164.57 4.17
-5 3 6 144.77 3.27
-5 3 7 2.9 0.46
-5 3 7 2.01 0.42
-5 3 7 2.11 0.37
-5 3 7 2.46 0.47
-5 3 8 155.86 3.85
-5 3 8 181.6 4.39
-5 3 9 6.42 0.6
-5 3 9 6.15 0.65
-5 3 10 19.96 0.99
-5 3 10 20.7 1.08
-5 3 11 0.99 0.22
-5 3 11 0.88 0.22
-5 3 11 1.23 0.23
-5 3 12 1.23 0.18
-5 3 12 0.96 0.16
-5 2 -11 35.82 1.18
-5 2 -11 48.68 1.21
-5 2 -10 2.06 0.28
-5 2 -10 1.69 0.26
-5 2 -9 88.9 2.77
-5 2 -9 83.25 2.02
-5 2 -9 88.67 2.33
-5 2 -8 0.58 0.31
-5 2 -8 0.9 0.26
-5 2 -8 0.59 0.22
-5 2 -7 126.03 3.82
-5 2 -7 126.42 2.99
-5 2 -7 131.36 3.09
-5 2 -6 7.42 0.64
-5 2 -6 7.07 0.61
-5 2 -6 8.57 0.65
-5 2 -5 124.5 3.78
-5 2 -5 117.84 2.88
-5 2 -5 121.15 3.01
-5 2 -4 278.63 6.25
-5 2 -4 268.38 5
-5 2 -4 259.4 5.13
-5 2 -4 282.75 5.25
-5 2 -4 279.1 8.73
-5 2 -3 5.03 0.49
-5 2 -3 4.45 1.13
-5 2 -3 4.51 0.53
-5 2 -3 4.66 0.69
-5 2 -3 4.31 0.64
-5 2 -3 5.72 0.48
-5 2 -3 4.48 0.92
-5 2 -3 4.93 0.52
-5 2 -3 4.64 0.48
-5 2 -3 4.86 0.52
-5 2 -2 542.92 13.99
-5 2 -2 481.82 8.58
-5 2 -2 484.82 8.86
-5 2 -2 513.2 10.14
-5 2 -2 499.16 9.55
-5 2 -2 420.99 8.13
-5 2 -2 478.22 11.68
-5 2 -2 480.13 8.8
-5 2 -2 509.35 8.75
-5 2 -2 450.17 8.59
-5 2 -2 472.31 8.62
-5 2 -1 30.74 1.28
-5 2 -1 25.91 1.28
-5 2 -1 30.06 1.51
-5 2 -1 25.52 2.24
-5 2 -1 29.84 1.33
-5 2 -1 29.28 1.3
-5 2 -1 28.43 1.2
-5 2 0 15.17 2.1
-5 2 0 16.52 0.94
-5 2 0 18.25 1.06
-5 2 0 16.62 1.24
-5 2 0 17.92 1.11
-5 2 0 15.42 1.75
-5 2 0 16.53 1.01
-5 2 0 17.29 0.88
-5 2 0 17.48 1.08
-5 2 0 16.14 0.96
-5 2 1 24.69 1.28
-5 2 1 23.78 1.16
-5 2 1 23.46 2.57
-5 2 1 23.26 1.14
-5 2 1 27.02 1.28
-5 2 1 27.3 1.5
-5 2 1 24 1.08
-5 2 1 23.87 1.28
-5 2 1 20.48 2.03
-5 2 1 25.56 1.29
-5 2 1 21.35 1
-5 2 1 24.43 1.02
-5 2 2 361.67 11.1
-5 2 2 359.17 7.47
-5 2 2 333.81 6.48
-5 2 2 367.15 6.89
-5 2 2 342.51 6.9
-5 2 2 330.86 6.5
-5 2 2 324.62 6.07
-5 2 3 134.55 6.22
-5 2 3 122.84 2.99
-5 2 3 122.65 3.06
-5 2 3 106.65 3.44
-5 2 3 120.39 3.03
-5 2 3 133.78 3.32
-5 2 3 110.67 2.83
-5 2 3 117.76 5
-5 2 3 123.37 3.37
-5 2 3 108.99 2.99
-5 2 3 126.71 3.08
-5 2 4 21.17 2.3
-5 2 4 19.83 0.98
-5 2 4 12.42 1.15
-5 2 4 21.18 1.04
-5 2 4 30.14 1.47
-5 2 4 23.59 1.12
-5 2 4 20.3 1.91
-5 2 4 19.93 1.23
-5 2 4 18.53 1.08
-5 2 4 20.35 1.02
-5 2 5 289.73 5.61
-5 2 5 291.56 5.93
-5 2 5 288.32 5.95
-5 2 5 291.02 8.13
-5 2 5 298.41 6.49
-5 2 5 299.99 6.22
-5 2 5 291.56 5.58
-5 2 6 10.81 0.75
-5 2 6 11.9 0.84
-5 2 6 11.31 0.83
-5 2 6 11.9 1
-5 2 6 11.5 0.9
-5 2 6 10.12 1.54
-5 2 6 11.14 0.63
-5 2 7 313.87 6.17
-5 2 7 315.74 6.41
-5 2 7 304.2 6.55
-5 2 7 293.68 6.11
-5 2 7 317.02 6.85
-5 2 8 4.61 0.5
-5 2 8 4.02 0.55
-5 2 8 3.8 0.47
-5 2 8 3.39 0.56
-5 2 9 146.31 3.77
-5 2 9 153.07 3.96
-5 2 10 18.65 0.96
-5 2 10 15.7 0.95
-5 2 10 16.02 0.89
-5 2 10 15.8 1
-5 2 11 35.79 1.37
-5 2 11 38.38 1.3
-5 2 11 39.38 1.38
-5 2 12 1.62 0.23
-5 2 12 1.58 0.21
-5 2 12 1.56 0.2
-5 1 -10 58.73 1.59
-5 1 -9 21.09 0.83
-5 1 -9 21.58 0.99
-5 1 -8 77.28 2.04
-5 1 -8 77.94 2.76
-5 1 -8 84.04 2.27
-5 1 -7 1.26 0.43
-5 1 -7 0.82 0.26
-5 1 -7 0.88 0.25
-5 1 -7 1.19 0.28
5 -1 6 0.09 0.46
-5 1 -6 0.33 0.31
-5 1 -6 0.28 0.19
-5 1 -6 0.46 0.19
-5 1 -6 0.44 0.2
-5 1 -6 0.19 0.2
-5 1 -5 150.71 4.2
-5 1 -5 156.47 3.41
-5 1 -5 153.03 3.16
-5 1 -4 30.63 1.22
-5 1 -4 31.44 1.42
-5 1 -4 28.65 1.53
-5 1 -3 0.23 0.18
-5 1 -3 0.02 0.22
-5 1 -3 0.18 0.22
-5 1 -3 0.79 0.43
-5 1 -3 0.28 0.15
-5 1 -3 0.96 0.28
-5 1 -3 0.65 0.2
-5 1 -3 0.63 0.25
-5 1 -2 0.05 0.17
-5 1 -2 0.12 0.19
-5 1 -2 0.31 0.41
-5 1 -2 0.17 0.48
-5 1 -2 0.34 0.26
-5 1 -2 0.16 0.23
-5 1 -2 0.28 0.19
-5 1 -2 0.02 0.18
-5 1 -2 0.17 0.16
-5 1 -2 0.29 0.18
-5 1 -2 0.3 0.35
-5 1 -1 221.06 4.57
-5 1 -1 222.83 4.8
-5 1 -1 203.94 6.88
-5 1 -1 221.09 4.93
-5 1 -1 217.03 4.72
-5 1 -1 219.97 4.6
-5 1 -1 213.36 4.47
-5 1 0 20.49 2.24
-5 1 0 27.4 2.69
-5 1 0 27.87 1.2
-5 1 0 27.3 1.5
-5 1 0 29.47 1.32
-5 1 0 26.59 1.12
-5 1 0 22.31 2.06
-5 1 0 29.64 1.37
-5 1 0 26.44 1.3
-5 1 0 26.21 1.37
-5 1 0 25.98 1.18
-5 1 0 25.81 1.09
-5 1 1 244.01 8.38
-5 1 1 275.07 9.17
-5 1 1 250.95 5.11
-5 1 1 269.73 5.34
-5 1 1 256.22 5.78
-5 1 1 249.42 5.1
-5 1 1 228.39 7.56
-5 1 1 252.65 5.42
-5 1 1 237.39 5.45
-5 1 1 251.32 5.19
-5 1 1 242.85 4.8
-5 1 2 80.49 2.64
-5 1 2 70.1 2.17
-5 1 2 70.56 2.36
-5 1 2 79.45 4.61
-5 1 2 72.78 2.41
-5 1 3 252.54 5.75
-5 1 3 239.73 5.14
-5 1 3 235.69 5.37
-5 1 3 245.27 5
-5 1 3 240.47 5.33
-5 1 3 234.43 8.31
-5 1 3 266.46 8.93
-5 1 3 255.84 5
-5 1 3 227.22 4.77
-5 1 3 241.73 7.54
-5 1 4 220.74 7.8
-5 1 4 236.83 5.27
-5 1 4 210.88 4.62
-5 1 4 210.87 6.76
-5 1 4 229.5 5.28
-5 1 4 202.31 4.64
-5 1 4 228.76 4.56
-5 1 4 234.5 5.02
-5 1 5 0.79 0.37
-5 1 5 2.39 0.43
-5 1 5 1.77 0.57
-5 1 5 1.87 0.34
-5 1 5 1.74 0.42
-5 1 5 1.24 0.3
-5 1 5 1.62 0.28
-5 1 6 55.18 1.95
-5 1 6 56.63 1.97
-5 1 6 53.37 2.21
-5 1 6 54.34 2
-5 1 6 56.83 1.59
-5 1 7 7.54 0.67
-5 1 7 6.49 0.64
-5 1 7 6.99 0.77
-5 1 7 6.4 0.65
-5 1 7 6.15 0.57
-5 1 8 103.91 2.69
-5 1 8 103.72 2.85
-5 1 8 95.71 2.86
-5 1 8 94.55 2.66
-5 1 8 94.39 3.09
-5 1 9 2.78 0.37
-5 1 9 2.64 0.41
-5 1 9 3.2 0.43
-5 1 9 2.3 0.44
-5 1 10 0.63 0.22
-5 1 10 0.22 0.18
-5 1 10 0.65 0.22
-5 1 10 0.2 0.22
-5 1 11 11.68 0.67
-5 1 11 10.76 0.66
-5 1 11 11.71 0.67
-5 1 11 11.57 0.75
-5 1 12 135.46 2.82
-5 1 12 138.8 2.71
-5 0 -10 8.36 0.57
-5 0 -9 71.74 1.84
-5 0 -9 69.67 2.2
-5 0 -9 62.3 1.56
-5 0 -9 58.71 1.71
-5 0 -8 18.55 0.93
-5 0 -8 17.64 0.83
-5 0 -8 16.83 0.9
-5 0 -8 18.77 1.21
-5 0 -7 27.13 1.09
-5 0 -7 27.21 1.18
-5 0 -7 27.82 1.15
-5 0 -7 23.21 1.13
-5 0 -7 28.11 1.6
-5 0 -6 82.04 2.39
-5 0 -6 83.13 2.33
-5 0 -6 89.88 2.4
-5 0 -6 90.06 3.15
-5 0 -5 0.58 0.36
-5 0 -5 0.97 0.25
-5 0 -5 0.88 0.27
-5 0 -5 1.73 0.33
-5 0 -5 0.28 0.26
5 0 5 0.51 0.5
5 0 4 26.81 2.57
-5 0 -4 34.95 1.6
-5 0 -4 30.4 1.76
-5 0 -4 29.53 1.22
-5 0 -4 31.27 1.51
-5 0 -4 31.64 1.35
-5 0 -4 33.77 1.41
-5 0 -3 32.72 1.6
-5 0 -3 30.05 1.71
-5 0 -3 25.65 1.09
-5 0 -3 29.23 1.45
-5 0 -3 28.79 1.13
-5 0 -3 30.26 1.41
-5 0 -3 24.21 2.36
-5 0 -2 83.99 4.75
-5 0 -2 92.7 2.93
-5 0 -2 94.01 3.12
-5 0 -2 87.04 4.06
-5 0 -2 88.91 2.75
-5 0 -2 87.39 2.72
-5 0 -2 88.14 2.32
-5 0 -2 87.63 2.42
-5 0 -1 59.78 2.3
-5 0 -1 55.39 1.77
-5 0 -1 53.67 3.16
-5 0 -1 56.5 1.78
-5 0 -1 50.63 3.69
-5 0 0 138.05 6.37
-5 0 0 159.61 4.17
-5 0 0 155.2 3.98
-5 0 0 136.01 3.36
-5 0 0 144.94 5.52
-5 0 0 145.72 3.26
-5 0 0 142.57 3.84
-5 0 0 150.05 3.42
-5 0 1 11.36 1.74
-5 0 1 11 0.96
-5 0 1 12.78 0.95
-5 0 1 10.71 0.78
-5 0 1 10.77 1.41
-5 0 1 11.55 0.89
-5 0 1 10.33 0.63
-5 0 1 10.72 0.89
-5 0 1 11.67 0.75
-5 0 2 8.59 0.86
-5 0 2 9.2 1.3
-5 0 2 8.54 0.79
-5 0 2 8.28 0.7
-5 0 2 7.6 1.44
-5 0 2 9.43 0.81
-5 0 2 8.62 0.65
-5 0 3 112.54 3.33
-5 0 3 100.71 4.48
-5 0 3 111.47 3.08
-5 0 3 105.1 2.93
-5 0 3 99.59 5.31
-5 0 3 100.99 3.03
-5 0 3 107.89 2.69
-5 0 4 82.72 2.73
-5 0 4 73.73 3.7
-5 0 4 74.13 2.21
-5 0 4 67.51 4.22
-5 0 4 75.58 2.49
-5 0 4 79.15 2.16
-5 0 5 283.04 5.99
-5 0 5 274.94 5.8
-5 0 5 306.74 6.34
-5 0 5 299.22 5.49
-5 0 5 280.79 5.96
-5 0 6 67.85 2.22
-5 0 6 71.77 2.24
-5 0 6 61.45 2.38
-5 0 6 61.83 2.02
-5 0 6 70.71 1.8
-5 0 7 3.63 0.49
-5 0 7 3.69 0.49
-5 0 7 2.87 0.51
-5 0 7 3.08 0.42
-5 0 7 3.57 0.43
-5 0 8 51.14 1.71
-5 0 8 51.53 1.83
-5 0 8 41.73 1.64
-5 0 8 44.98 1.62
-5 0 8 45.4 1.94
-5 0 9 9.83 0.65
-5 0 9 9.77 0.83
-5 0 9 8.71 0.67
-5 0 9 8.79 0.66
-5 0 10 43.22 1.29
-5 0 10 37.26 1.38
-5 0 10 42.68 1.46
-5 0 10 38.52 1.59
-5 0 11 4.88 0.39
-5 0 11 4.62 0.4
-5 0 11 5.5 0.45
-5 0 12 66.38 1.57
-5 -1 -9 98.64 1.96
-5 -1 -9 104.62 2.48
-5 -1 -8 1.69 0.28
-5 -1 -8 1.48 0.24
-5 -1 -8 1.66 0.36
-5 -1 -7 1.62 0.4
-5 -1 -7 1.31 0.27
-5 -1 -7 1.17 0.24
-5 -1 -7 0.99 0.23
-5 -1 -7 0.83 0.26
-5 -1 -6 58.87 1.93
-5 -1 -6 49.74 1.69
-5 -1 -6 45.21 1.64
-5 -1 -6 61.9 1.84
-5 -1 -6 64.36 2.45
-5 -1 -5 56.52 2.04
-5 -1 -5 58.92 1.85
-5 -1 -5 58.85 2.43
-5 -1 -4 3.25 0.49
-5 -1 -4 1.98 0.49
-5 -1 -4 2.73 0.37
-5 -1 -4 1.84 0.38
-5 -1 -4 2.11 0.39
-5 -1 -4 3.5 0.44
-5 -1 -3 4.39 0.65
-5 -1 -3 2.89 0.88
-5 -1 -3 4.42 0.6
-5 -1 -3 4.4 0.53
-5 -1 -3 5.21 0.63
-5 -1 -2 0.16 0.26
-5 -1 -2 0.56 0.31
-5 -1 -2 0.57 0.26
-5 -1 -2 0.86 0.54
-5 -1 -2 0.72 0.24
-5 -1 -2 0.45 0.18
-5 -1 -1 125.19 6.16
-5 -1 -1 118.13 5.8
-5 -1 -1 130.73 3.73
-5 -1 -1 123.02 3
-5 -1 -1 137.57 3.88
-5 -1 -1 123.78 3.52
-5 -1 -1 128.65 3.07
-5 -1 -1 120.95 3.47
-5 -1 -1 129.27 3
-5 -1 0 51.81 3.88
-5 -1 0 55.9 3.89
-5 -1 0 58.89 2.23
-5 -1 0 55.47 1.89
-5 -1 0 55.34 2.35
-5 -1 0 58.17 2.19
-5 -1 0 60.37 1.98
-5 -1 0 60.63 1.8
-5 -1 0 56.4 2.21
-5 -1 0 59.47 1.81
-5 -1 1 57.99 4.13
-5 -1 1 58.7 4.03
-5 -1 1 66.14 2.32
-5 -1 1 64.03 2.13
-5 -1 1 65.9 2.58
-5 -1 1 65.56 2.3
-5 -1 1 63.8 2.13
-5 -1 1 59.8 1.77
-5 -1 1 62.91 2.35
-5 -1 1 67 1.95
-5 -1 2 2 0.49
-5 -1 2 1.48 0.36
-5 -1 2 1.29 0.35
-5 -1 2 1.29 0.34
-5 -1 2 1.18 0.38
-5 -1 2 1.39 0.71
-5 -1 2 1.41 0.36
-5 -1 2 1.71 0.75
-5 -1 2 1.63 0.29
-5 -1 3 53.95 2.27
-5 -1 3 52.49 1.99
-5 -1 3 53.1 1.97
-5 -1 3 52.25 1.98
-5 -1 3 46.11 3.66
-5 -1 3 51.44 3.73
-5 -1 3 51.23 2.05
-5 -1 4 205.5 4.89
-5 -1 4 211.35 4.71
-5 -1 4 176.71 4.01
-5 -1 4 180.92 4.45
-5 -1 4 169.34 7.22
-5 -1 4 181.47 4.48
-5 -1 4 185.52 3.94
-5 -1 5 1.34 0.34
-5 -1 5 1.87 0.4
-5 -1 5 1.18 0.42
-5 -1 5 2.01 0.38
-5 -1 6 41.57 1.68
-5 -1 6 38.99 1.55
-5 -1 6 37.34 1.71
-5 -1 7 4.84 0.6
-5 -1 7 5.79 0.58
-5 -1 7 5.75 0.58
-5 -1 7 4.79 0.48
-5 -1 8 2.36 0.42
-5 -1 8 2.96 0.42
-5 -1 8 2.09 0.36
-5 -1 8 2.27 0.34
-5 -1 9 39.92 1.65
-5 -1 9 43.37 1.48
-5 -1 9 45.13 1.47
-5 -1 10 1.36 0.28
-5 -1 10 1.54 0.24
-5 -1 10 1.27 0.25
-5 -1 11 10.59 0.6
-5 -1 11 10.15 0.54
-5 -1 11 10.85 0.6
-5 -1 12 19.1 0.66
-5 -2 -8 60.97 1.82
-5 -2 -8 72.96 1.65
-5 -2 -7 1.47 0.25
-5 -2 -7 1.21 0.3
-5 -2 -6 3.71 0.44
-5 -2 -6 2.77 0.45
-5 -2 -6 3.49 0.43
-5 -2 -5 19.99 1.14
-5 -2 -5 18.88 1.24
-5 -2 -4 2.06 0.37
-5 -2 -4 1.43 0.36
-5 -2 -4 1.89 0.32
-5 -2 -4 1.64 0.35
-5 -2 -4 1.24 0.37
-5 -2 -3 32.42 1.6
-5 -2 -3 32.93 1.46
-5 -2 -3 33.92 1.69
-5 -2 -2 50.62 3.67
-5 -2 -2 50.07 2.1
-5 -2 -2 54.21 2.19
-5 -2 -2 47.82 2.03
-5 -2 -2 49.96 1.71
-5 -2 -2 51.5 1.97
-5 -2 -1 13.43 1.97
-5 -2 -1 11.69 0.94
-5 -2 -1 10.99 0.73
-5 -2 -1 13.97 1.13
-5 -2 -1 10.66 0.9
-5 -2 -1 11.29 0.75
-5 -2 -1 11.17 0.92
-5 -2 0 223.02 5.11
-5 -2 0 225.91 4.8
-5 -2 0 222.85 5.62
-5 -2 0 220.5 5.14
-5 -2 0 220 4.51
-5 -2 0 210.03 5.18
-5 -2 1 3.9 1.1
-5 -2 1 3.52 0.54
-5 -2 1 2.54 0.42
-5 -2 1 5 0.74
-5 -2 1 4.47 0.59
-5 -2 1 2.97 0.41
-5 -2 1 3.81 0.41
-5 -2 1 4.05 0.59
-5 -2 2 33.02 1.84
-5 -2 2 34.1 1.58
-5 -2 2 33.27 1.4
-5 -2 2 33.21 1.57
-5 -2 2 31.72 1.5
-5 -2 2 28.8 2.97
-5 -2 2 31.24 1.61
-5 -2 3 0.79 0.3
-5 -2 3 0.27 0.3
-5 -2 3 0.35 0.21
-5 -2 3 0.53 0.26
-5 -2 3 0.48 0.46
-5 -2 3 0.52 0.36
-5 -2 4 0.83 0.21
-5 -2 4 1.15 0.31
-5 -2 4 1.32 0.35
-5 -2 4 0.92 0.58
-5 -2 4 0.59 0.36
-5 -2 5 129.84 3.43
-5 -2 5 120.49 3.03
-5 -2 5 119.65 3.24
-5 -2 5 120.73 3.64
-5 -2 5 129.02 3.37
-5 -2 6 33.78 1.49
-5 -2 6 30.98 1.32
-5 -2 6 30.1 1.4
-5 -2 7 62.47 2.11
-5 -2 7 75.83 2.18
-5 -2 7 71.58 2.2
-5 -2 7 65.81 1.9
-5 -2 8 79.71 2.38
-5 -2 8 95 2.48
-5 -2 8 89.68 2.4
-5 -2 8 85.92 2.22
-5 -2 9 0.55 0.21
-5 -2 9 0.85 0.23
-5 -2 9 0.52 0.18
-5 -2 9 0.87 0.23
-5 -2 10 21.24 0.88
-5 -2 10 23.24 0.87
-5 -2 10 24.28 0.82
-5 -3 -7 109.22 2.31
-5 -3 -7 98.59 2.21
-5 -3 -6 44.98 1.48
-5 -3 -6 41.43 1.32
-5 -3 -5 1.1 0.29
-5 -3 -5 0.85 0.26
-5 -3 -4 18.94 1.05
-5 -3 -4 19.05 1
-5 -3 -4 22.34 1.04
-5 -3 -4 20.41 0.92
-5 -3 -3 140.16 3.83
-5 -3 -3 166.27 3.88
-5 -3 -3 158.84 3.65
-5 -3 -3 147.35 3.71
-5 -3 -2 12.96 0.89
-5 -3 -2 12.57 0.99
-5 -3 -2 13.38 1
-5 -3 -2 13.93 0.85
-5 -3 -2 12.77 0.91
-5 -3 -1 4.88 0.59
-5 -3 -1 5.59 0.5
-5 -3 -1 6.02 0.75
-5 -3 -1 5.06 0.62
-5 -3 -1 6.74 0.59
-5 -3 -1 5.55 0.63
-5 -3 0 60.63 2.19
-5 -3 0 55.15 1.73
-5 -3 0 58.81 2.02
-5 -3 0 56.61 1.91
-5 -3 1 78.41 4.92
-5 -3 1 76.91 2.42
-5 -3 1 80.59 2.48
-5 -3 1 82.74 3.03
-5 -3 1 84.53 2.64
-5 -3 1 82.16 2.12
-5 -3 1 78.23 2.69
-5 -3 2 16.44 1.28
-5 -3 2 17.51 0.87
-5 -3 2 14.99 0.97
-5 -3 2 16.76 1.05
-5 -3 2 14.68 2.12
-5 -3 2 15.83 1.11
-5 -3 3 21.83 1.19
-5 -3 3 20.73 1.19
-5 -3 3 20.17 0.96
-5 -3 3 17.55 1.17
-5 -3 3 15.61 1.26
-5 -3 4 427.04 7.83
-5 -3 4 444.31 9.02
-5 -3 4 443.51 8.56
-5 -3 5 227.35 4.83
-5 -3 5 190.93 4.19
-5 -3 5 198.19 4.24
-5 -3 5 215.06 5.1
-5 -3 5 215.61 4.74
-5 -3 6 0.83 0.3
-5 -3 6 0.52 0.22
-5 -3 6 0.77 0.3
-5 -3 6 0.62 0.24
-5 -3 7 105.57 2.57
-5 -3 7 105.16 2.49
-5 -3 8 47.36 1.41
-5 -3 8 56.75 1.67
-5 -3 8 49.77 1.43
-5 -3 8 57.68 1.68
-5 -3 9 23.09 0.93
-5 -3 9 22.89 0.86
-5 -3 10 9.54 0.51
-5 -4 -6 20.91 0.8
-5 -4 -5 18.49 0.81
-5 -4 -4 14.93 0.78
-5 -4 -4 13.03 0.81
-5 -4 -3 0.19 0.18
-5 -4 -3 0.27 0.18
-5 -4 -3 0.29 0.16
-5 -4 -2 197.19 4.37
-5 -4 -2 179.1 4.22
-5 -4 -2 169.56 3.78
-5 -4 -2 198.98 4.16
-5 -4 -1 2.87 0.33
-5 -4 -1 4.23 0.59
-5 -4 -1 3.61 0.48
-5 -4 -1 4.9 0.56
-5 -4 -1 3.81 0.49
-5 -4 0 13.54 0.92
-5 -4 0 11.38 0.74
-5 -4 0 12.11 0.76
-5 -4 1 96.52 2.63
-5 -4 1 101.54 3.28
-5 -4 1 98.92 2.76
-5 -4 1 99.04 2.93
-5 -4 2 24.69 1.21
-5 -4 2 23.89 1.3
-5 -4 2 22.28 1.42
-5 -4 2 23.82 1.2
-5 -4 3 5.6 0.62
-5 -4 3 5.76 0.73
-5 -4 3 5.55 0.59
-5 -4 4 1.8 0.43
-5 -4 4 0.94 0.28
-5 -4 5 109.81 2.86
-5 -4 5 101.81 2.79
-5 -4 5 107.49 3.02
-5 -4 6 15.27 0.88
-5 -4 6 13.36 0.76
-5 -4 6 15.09 0.87
-5 -4 6 12.37 0.65
-5 -4 7 2.78 0.3
-5 -4 7 3.13 0.37
-5 -4 8 26.71 0.94
-5 -4 8 31.89 1.06
-5 -4 9 7.04 0.39
-5 -4 9 6.84 0.38
-5 -5 -4 12.32 0.62
-5 -5 -3 61.57 1.72
-5 -5 -2 4 0.42
-5 -5 -2 4.3 0.38
-5 -5 -1 84.54 2.24
-5 -5 -1 80.74 2.19
-5 -5 -1 81.8 2.35
-5 -5 0 18.79 0.91
-5 -5 0 15.27 0.73
-5 -5 1 77.93 2.1
-5 -5 1 70.63 1.97
-5 -5 1 71.19 2.35
-5 -5 1 70.54 2.19
-5 -5 2 58.08 1.8
-5 -5 2 56.37 1.92
-5 -5 3 1.53 0.31
-5 -5 3 1.2 0.35
-5 -5 3 1.48 0.3
-5 -5 4 29.23 1.37
-5 -5 4 30.16 1.24
-5 -5 5 14.85 0.8
-5 -5 5 14.65 0.84
-5 -5 5 15.89 0.8
-5 -5 6 8.34 0.55
-5 -5 7 4.6 0.36
-5 -5 8 2.2 0.2
-5 -6 -1 16 0.61
-5 -6 0 17.75 0.81
-5 -6 0 19.02 0.77
-5 -6 1 28.36 0.84
-5 -6 1 33.24 1.11
-5 -6 2 23.63 0.82
-5 -6 2 23.26 1.01
-5 -6 2 23.96 0.96
-5 -6 3 13.12 0.61
-5 -6 3 12.43 0.71
-5 -6 3 12.06 0.64
-5 -6 4 19.54 0.87
-5 -6 4 21.7 0.82
-5 -6 5 15.1 0.62
-5 -6 6 6.81 0.36
-6 10 -3 0.7 0.16
6 -10 3 1.15 0.13
-6 10 -3 0.66 0.14
-6 10 -3 1 0.15
-6 10 -2 0.1 0.09
-6 10 -2 0.08 0.08
6 -10 2 0.05 0.07
-6 10 -2 0.04 0.08
-6 10 -1 0.46 0.14
-6 10 -1 0.52 0.13
-6 10 -1 0.39 0.11
6 -10 1 0.47 0.11
-6 10 -1 0.49 0.14
-6 10 0 6.65 0.41
-6 10 0 7.47 0.42
-6 10 1 4.05 0.29
-6 10 1 3.66 0.28
-6 9 -6 8.07 0.37
-6 9 -5 7.46 0.47
-6 9 -5 8.24 0.46
-6 9 -4 2.1 0.3
-6 9 -4 2.67 0.25
6 -9 4 2.78 0.23
-6 9 -4 1.91 0.24
-6 9 -4 2.19 0.27
-6 9 -3 54.67 1.78
-6 9 -3 71.49 1.63
-6 9 -3 58.68 1.64
6 -9 3 65.26 1.53
-6 9 -3 62.56 1.72
-6 9 -3 61.31 1.68
-6 9 -2 6.18 0.41
-6 9 -2 5.68 0.52
-6 9 -2 5.86 0.47
-6 9 -2 5.31 0.46
-6 9 -1 3.63 0.31
-6 9 -1 3.06 0.35
-6 9 -1 3.46 0.38
-6 9 -1 3.41 0.3
-6 9 -1 3.63 0.33
-6 9 -1 2.99 0.37
-6 9 0 0.36 0.19
-6 9 0 0.23 0.16
-6 9 0 0.27 0.13
-6 9 0 0.33 0.18
-6 9 0 0.32 0.13
-6 9 0 0.24 0.14
-6 9 1 8.18 0.53
-6 9 1 10.06 0.55
-6 9 1 9.05 0.5
-6 9 1 8.46 0.47
-6 9 2 5.64 0.44
-6 9 2 5.9 0.43
-6 9 2 4.6 0.33
-6 9 2 5.55 0.4
-6 9 2 5.33 0.37
-6 9 3 5.51 0.36
-6 9 3 6.17 0.4
-6 9 3 5.6 0.35
-6 9 4 5.8 0.36
-6 8 -7 4.25 0.28
6 -8 6 44.3 1.06
-6 8 -6 45.22 1.23
-6 8 -5 41.02 1.19
-6 8 -5 37.41 1.23
-6 8 -4 17.32 0.93
-6 8 -4 19.96 0.82
-6 8 -4 15.01 0.74
6 -8 4 16.41 0.67
-6 8 -4 14.23 0.76
-6 8 -4 18.33 0.88
-6 8 -3 8.63 0.61
-6 8 -3 8.73 0.71
-6 8 -3 8.8 0.55
-6 8 -3 7.65 0.6
-6 8 -3 7.95 0.61
-6 8 -2 24.63 1.16
-6 8 -2 24.42 1.12
-6 8 -2 25.28 1.29
-6 8 -2 26.65 1.01
-6 8 -2 29.17 1.07
-6 8 -2 25.38 0.94
-6 8 -1 81.24 2.03
-6 8 -1 81.6 2.26
-6 8 -1 83.48 2.35
-6 8 -1 82.35 2.05
-6 8 -1 83.04 2.44
-6 8 0 1.04 0.31
-6 8 0 1.19 0.21
-6 8 0 1.05 0.25
-6 8 0 1.39 0.31
-6 8 0 1.33 0.26
-6 8 0 0.94 0.3
-6 8 1 0.29 0.14
-6 8 1 0.27 0.16
-6 8 1 0.39 0.19
-6 8 1 0.6 0.23
-6 8 2 52.88 1.69
-6 8 2 50.35 1.58
-6 8 2 54.16 1.64
-6 8 2 49.47 1.46
-6 8 2 51.7 1.63
-6 8 3 2.19 0.3
-6 8 3 2.12 0.26
-6 8 3 2.71 0.34
-6 8 3 2.63 0.32
-6 8 3 2.61 0.29
-6 8 4 0.24 0.12
-6 8 4 0.29 0.12
-6 8 4 0.2 0.12
-6 8 4 0.15 0.14
-6 8 5 2.66 0.3
-6 8 5 2.2 0.22
-6 8 6 1.07 0.18
-6 7 -8 5.02 0.28
-6 7 -7 171.25 3.3
-6 7 -6 4.57 0.4
-6 7 -6 4.12 0.39
-6 7 -6 3.38 0.36
-6 7 -5 99.55 2.28
-6 7 -5 91.94 2.36
-6 7 -4 11.53 0.7
-6 7 -4 11.91 0.84
-6 7 -4 14.43 0.75
-6 7 -4 14.45 0.85
-6 7 -4 11.36 0.72
-6 7 -3 1.92 0.34
-6 7 -3 2.1 0.34
-6 7 -3 2.16 0.42
-6 7 -3 1.81 0.29
-6 7 -3 2.32 0.31
-6 7 -3 1.84 0.34
-6 7 -2 73.21 2.28
-6 7 -2 79.11 2.49
-6 7 -2 71.45 2.18
-6 7 -2 70.47 1.93
-6 7 -2 73.07 1.99
-6 7 -2 64.38 1.76
-6 7 -1 1.91 0.42
-6 7 -1 1.5 0.26
-6 7 -1 1.72 0.25
-6 7 -1 1.6 0.32
-6 7 -1 1.81 0.39
-6 7 -1 1.94 0.36
-6 7 0 132.4 2.97
-6 7 0 129.63 3.23
-6 7 0 157.25 3.7
-6 7 0 146.68 3.52
-6 7 1 35.63 1.52
-6 7 1 35.53 1.52
-6 7 1 33.77 1.36
-6 7 1 31.49 1.14
-6 7 1 31.5 1.39
-6 7 2 27.65 1.27
-6 7 2 27.28 1.22
-6 7 2 29.03 1.27
-6 7 2 24.23 0.99
-6 7 2 22.7 0.95
-6 7 2 27.82 1.24
-6 7 3 80.23 2.23
-6 7 3 71.5 2.02
-6 7 3 80.58 2.29
-6 7 3 76.18 2.14
-6 7 3 71.49 1.92
-6 7 4 41.23 1.35
-6 7 4 39.87 1.36
-6 7 4 39.49 1.27
-6 7 5 8.72 0.47
-6 7 5 8.08 0.48
-6 7 5 7.83 0.46
-6 7 6 7.65 0.55
-6 7 7 30.91 1.06
-6 7 8 25.01 0.8
-6 6 -8 70.46 1.58
-6 6 -7 0.64 0.19
-6 6 -7 0.75 0.19
-6 6 -6 255.15 4.73
-6 6 -6 230.03 4.69
-6 6 -5 45.26 1.45
-6 6 -5 48.86 1.61
-6 6 -4 0.56 0.27
-6 6 -4 -0.07 0.15
-6 6 -4 0.15 0.2
-6 6 -4 -0.02 0.17
-6 6 -3 0.37 0.23
-6 6 -3 0.32 0.28
-6 6 -3 0.39 0.18
-6 6 -3 0.39 0.22
-6 6 -3 0.1 0.13
-6 6 -3 0.27 0.2
-6 6 -2 49.82 1.86
-6 6 -2 51.77 1.82
-6 6 -2 44.39 1.49
-6 6 -2 48.67 1.6
-6 6 -2 49.51 1.8
-6 6 -1 118.94 3.23
-6 6 -1 115.72 3.09
-6 6 -1 120.21 3.37
-6 6 -1 122.39 2.92
-6 6 -1 112.14 3
-6 6 0 1.45 0.31
-6 6 0 1.65 0.32
-6 6 0 1.88 0.39
-6 6 0 1.44 0.34
-6 6 1 40.74 1.69
-6 6 1 40.94 1.59
-6 6 1 39.99 1.62
-6 6 2 77.86 2.32
-6 6 2 61.21 1.79
-6 6 3 3.09 0.43
-6 6 3 3.28 0.45
-6 6 3 3.4 0.44
-6 6 4 34.9 1.32
-6 6 4 37.93 1.4
-6 6 4 38.01 1.29
-6 6 5 34.79 1.21
-6 6 5 34.75 1.17
-6 6 6 0.88 0.25
-6 6 7 0.43 0.18
-6 6 8 25.86 0.98
-6 6 9 38.14 1.05
-6 5 -8 79.93 1.86
-6 5 -8 72.07 1.72
-6 5 -7 67.68 1.77
-6 5 -7 62.5 1.72
-6 5 -6 34.34 1.22
-6 5 -6 31.21 1.21
-6 5 -5 113.81 2.63
-6 5 -5 109.98 2.73
-6 5 -4 13.6 0.8
-6 5 -4 14.96 0.95
-6 5 -4 15.93 0.83
-6 5 -4 14.71 0.85
-6 5 -3 37.71 1.46
-6 5 -3 35.93 1.6
-6 5 -3 33.78 1.26
-6 5 -3 35.42 1.22
-6 5 -3 38.94 1.54
-6 5 -2 4.01 0.52
-6 5 -2 4.1 0.5
-6 5 -2 4.21 0.59
-6 5 -2 4.35 0.41
-6 5 -2 3.34 0.9
-6 5 -2 4.53 0.43
-6 5 -2 4.98 0.55
-6 5 -1 103.45 2.92
-6 5 -1 97.96 2.8
-6 5 -1 105.88 3.07
-6 5 -1 100.2 2.55
-6 5 -1 104.41 2.76
-6 5 0 18.26 1.11
-6 5 0 17.48 1.05
-6 5 0 17.66 1.14
-6 5 0 15.14 1.91
-6 5 0 16.33 0.92
-6 5 0 18.1 0.98
-6 5 1 3.23 0.46
-6 5 1 2.66 0.85
-6 5 1 3.08 0.39
-6 5 1 2.56 0.4
-6 5 1 2.7 0.46
-6 5 2 75.6 2.3
-6 5 2 47.53 3.36
-6 5 2 65.9 2.12
-6 5 2 56.27 1.7
-6 5 3 86.2 2.46
-6 5 3 90.52 2.5
-6 5 3 88.26 2.6
-6 5 3 88.79 2.52
-6 5 4 27.69 1.15
-6 5 4 26.81 1.16
-6 5 4 28.91 1.37
-6 5 4 27.75 1.22
-6 5 4 24.88 1.14
-6 5 5 21.03 0.93
-6 5 5 22.78 1.09
-6 5 5 21.15 0.95
-6 5 6 56.24 1.83
-6 5 7 27.89 1.16
-6 5 8 77.42 2.02
-6 5 9 114.28 2.53
-6 4 -9 1.79 0.22
-6 4 -8 54.57 1.28
-6 4 -8 59.21 1.39
-6 4 -7 7.61 0.53
-6 4 -7 7.74 0.53
-6 4 -6 1.05 0.26
-6 4 -6 0.87 0.25
-6 4 -6 0.97 0.23
-6 4 -5 31.02 1.41
-6 4 -5 38.41 1.32
-6 4 -5 31.72 1.28
-6 4 -5 40.92 1.47
-6 4 -4 78.27 2.42
-6 4 -4 82.86 2.53
-6 4 -4 81.74 2.22
-6 4 -4 89.01 2.26
-6 4 -4 85.72 2.31
-6 4 -3 96.15 2.73
-6 4 -3 94.78 2.59
-6 4 -3 98.88 2.42
-6 4 -3 94.85 2.78
-6 4 -3 100.29 2.69
-6 4 -2 23.18 1.21
-6 4 -2 22.38 1.24
-6 4 -2 23.91 1.21
-6 4 -2 22.76 1.15
-6 4 -2 21.82 0.93
-6 4 -2 21.07 2.14
-6 4 -2 24.58 0.95
-6 4 -2 24.33 1.17
-6 4 -1 140.02 3.62
-6 4 -1 144 3.61
-6 4 -1 150.07 3.59
-6 4 -1 147.69 3.23
-6 4 -1 149.89 3.52
-6 4 0 270.01 5.7
-6 4 0 250.89 5.52
-6 4 0 284.64 5.92
-6 4 0 269.83 5.53
-6 4 0 299.91 5.58
-6 4 0 261.32 5.24
-6 4 0 257.82 5.32
-6 4 1 0.75 0.27
-6 4 1 1.22 0.35
-6 4 1 0.46 0.47
-6 4 1 1.07 0.31
-6 4 1 0.75 0.23
-6 4 1 0.74 0.3
-6 4 2 24.38 1.22
-6 4 2 27 1.3
-6 4 2 28.62 1.38
-6 4 2 25.48 1.22
-6 4 3 290.55 5.85
-6 4 3 303.4 5.94
-6 4 3 301.41 6.06
-6 4 3 282.24 5.96
-6 4 3 290.55 5.91
-6 4 4 130.15 3.13
-6 4 4 134.17 3.17
-6 4 4 140.11 3.5
-6 4 4 134.09 3.45
-6 4 4 144.1 3.29
-6 4 5 4.92 0.45
-6 4 5 6.02 0.61
-6 4 5 4.45 0.48
-6 4 5 5.23 0.58
-6 4 5 4.63 0.43
-6 4 6 9.03 0.68
-6 4 6 9.15 0.74
-6 4 6 8.36 0.49
-6 4 6 8.64 0.71
-6 4 7 109.24 2.82
-6 4 7 105.76 2.73
-6 4 7 109.69 2.89
-6 4 8 60.12 1.83
-6 4 8 62.69 1.93
-6 4 9 57.57 1.57
-6 4 9 58.3 1.68
-6 4 9 60.52 1.64
-6 4 10 30.87 0.95
-6 3 -9 1.32 0.16
-6 3 -9 2.26 0.23
-6 3 -8 0.18 0.13
-6 3 -8 0.18 0.14
-6 3 -8 -0.06 0.13
-6 3 -7 72.18 1.86
-6 3 -7 72.84 1.87
-6 3 -6 18.83 0.88
-6 3 -6 16.87 1.07
-6 3 -5 1.45 0.26
-6 3 -5 1.98 0.35
-6 3 -5 2.13 0.42
-6 3 -4 44.74 1.64
-6 3 -4 45.46 1.48
-6 3 -4 45.26 1.5
-6 3 -3 131.34 3.52
-6 3 -3 121.27 3.21
-6 3 -3 114.61 2.74
-6 3 -3 126.76 3.07
-6 3 -3 135.81 3.11
-6 3 -2 8.33 0.66
-6 3 -2 8.14 0.76
-6 3 -2 6.55 0.67
-6 3 -2 6.02 1.15
-6 3 -2 8.11 0.68
-6 3 -2 8.32 0.66
-6 3 -1 15.13 0.93
-6 3 -1 15.98 1.03
-6 3 -1 15.61 1.05
-6 3 -1 13.8 1.74
-6 3 -1 16.77 1
-6 3 -1 15.36 0.89
-6 3 0 1.86 0.36
-6 3 0 2.4 0.45
-6 3 0 2.08 0.65
-6 3 0 3.25 0.53
-6 3 0 1.98 0.73
-6 3 0 2.08 0.4
-6 3 0 1.81 0.31
-6 3 0 2.07 0.39
-6 3 1 23.31 1.22
-6 3 1 24.53 1.21
-6 3 1 25.63 1.31
-6 3 1 25.31 1.33
-6 3 1 26.02 1.09
-6 3 1 21.41 2.18
-6 3 1 23.61 1.03
-6 3 1 23.81 1.02
-6 3 1 24.55 1.24
-6 3 2 20.41 1.16
-6 3 2 19.1 0.96
-6 3 2 18.71 1.14
-6 3 2 18.75 0.96
-6 3 3 260.04 5.21
-6 3 3 269.1 5.35
-6 3 3 245.94 5.13
-6 3 3 223.85 7.68
-6 3 3 247.15 5.52
-6 3 3 237.65 5.15
-6 3 3 259.97 5.29
-6 3 4 91.28 2.45
-6 3 4 89.68 2.5
-6 3 4 90.45 2.77
-6 3 4 88.4 2.37
-6 3 4 85.09 2.51
-6 3 4 96.82 2.47
-6 3 5 63.37 2
-6 3 5 68.23 2.2
-6 3 5 67.54 1.89
-6 3 5 70.1 2.35
-6 3 6 28.45 1.23
-6 3 6 28.63 1.32
-6 3 6 26.53 0.96
-6 3 6 30.79 1.45
-6 3 7 0.78 0.26
-6 3 7 0.79 0.24
-6 3 7 0.81 0.25
-6 3 8 6.43 0.59
-6 3 8 6.56 0.54
-6 3 8 6.24 0.55
-6 3 9 19.08 0.9
-6 3 9 19.01 0.85
-6 3 9 17.71 0.83
-6 3 10 6.48 0.42
-6 3 10 6.89 0.43
-6 3 10 5.76 0.39
-6 2 -9 11.95 0.58
-6 2 -8 26.54 0.91
-6 2 -8 23.8 0.84
-6 2 -7 3.67 0.36
-6 2 -7 2.84 0.44
-6 2 -7 3.66 0.37
-6 2 -6 8.48 0.56
-6 2 -6 7.99 0.76
-6 2 -5 63.81 1.86
-6 2 -5 70.63 2.52
-6 2 -4 0.35 0.15
-6 2 -4 0.33 0.22
-6 2 -4 0.51 0.28
-6 2 -3 24.92 1.1
-6 2 -3 28.19 1.51
-6 2 -2 15.63 1.36
-6 2 -2 13.83 0.94
-6 2 -2 13.64 1.64
-6 2 -2 16.21 1.14
-6 2 -2 13.85 0.84
-6 2 -2 14.1 0.86
-6 2 -1 88.41 2.63
-6 2 -1 92.65 2.9
-6 2 -1 88.91 2.49
-6 2 -1 85.36 2.36
-6 2 0 118.88 3.01
-6 2 0 128.29 4.09
-6 2 0 119.28 3.15
-6 2 0 120.5 3.31
-6 2 0 113.05 2.64
-6 2 0 101.44 4.82
-6 2 0 115.13 3.05
-6 2 0 108.24 2.91
-6 2 0 100.63 2.65
-6 2 1 9.22 0.71
-6 2 1 9.46 1.13
-6 2 1 9.72 0.79
-6 2 1 9.67 0.67
-6 2 1 9.01 0.82
-6 2 1 8.16 1.32
-6 2 1 10.81 0.83
-6 2 1 9.09 0.72
-6 2 1 9.64 0.61
-6 2 2 9.96 1.16
-6 2 2 12.87 0.8
-6 2 2 13.57 1
-6 2 2 12.45 0.93
-6 2 2 13.15 0.85
-6 2 2 12.9 0.85
-6 2 3 20.86 1.07
-6 2 3 18.84 1.93
-6 2 3 21.1 1.24
-6 2 3 22.07 1.07
-6 2 4 224.38 4.88
-6 2 4 194.78 6.76
-6 2 4 202.01 4.63
-6 2 4 213.42 4.65
-6 2 4 210.29 5.16
-6 2 5 44.94 1.58
-6 2 5 50.39 1.98
-6 2 5 45.9 1.62
-6 2 5 47.23 1.49
-6 2 6 19.14 1.01
-6 2 6 15.24 0.87
-6 2 6 17.89 1.12
-6 2 6 15.89 0.9
-6 2 6 16.66 0.72
-6 2 7 44.39 1.76
-6 2 7 43.17 1.53
-6 2 7 48.28 1.58
-6 2 8 16.2 0.96
-6 2 8 15.36 0.83
-6 2 8 13.13 0.75
-6 2 9 8.82 0.63
-6 2 9 9.17 0.58
-6 2 9 7.85 0.52
-6 2 10 9.53 0.51
-6 2 10 8.44 0.52
-6 1 -8 106.55 2.2
-6 1 -7 13.87 0.65
-6 1 -7 17.74 0.78
-6 1 -6 4.21 0.37
-6 1 -6 4.79 0.6
-6 1 -6 5.46 0.49
-6 1 -5 2.59 0.31
-6 1 -5 4.1 0.44
-6 1 -5 4.22 0.58
-6 1 -4 98.44 2.53
-6 1 -4 89 2.98
-6 1 -3 2.33 0.31
-6 1 -3 2.21 0.54
-6 1 -3 2.03 0.47
-6 1 -2 141.16 3.44
-6 1 -2 146.9 3.42
-6 1 -1 8.27 0.81
-6 1 -1 6.25 1.13
-6 1 -1 7.65 0.6
-6 1 -1 7.49 0.62
-6 1 0 121.4 2.82
-6 1 0 119.6 3.44
-6 1 0 111.37 4.97
-6 1 0 126.77 3.27
-6 1 0 116.09 2.85
-6 1 0 124.54 3.04
-6 1 1 28.37 1.71
-6 1 1 25.14 1.1
-6 1 1 24.3 1.34
-6 1 1 20.44 2.02
-6 1 1 26.1 1.3
-6 1 1 21.87 0.95
-6 1 1 23.24 1.12
-6 1 2 47.36 1.68
-6 1 2 50.53 1.98
-6 1 2 48.68 1.92
-6 1 2 50.76 1.7
-6 1 3 5.3 0.56
-6 1 3 7.95 0.8
-6 1 3 5.24 1.02
-6 1 3 6.7 0.92
-6 1 3 5.87 0.53
-6 1 3 5.92 0.67
-6 1 4 17.02 0.99
-6 1 4 16.01 0.84
-6 1 4 17.36 1.12
-6 1 5 138.26 3.51
-6 1 5 140.8 2.82
-6 1 6 0.26 0.25
-6 1 6 0.14 0.15
-6 1 6 0.1 0.24
-6 1 6 0.09 0.11
-6 1 7 122.76 3.26
-6 1 7 117.67 2.91
-6 1 8 15.98 0.95
-6 1 8 17.43 0.86
-6 1 8 18.21 0.86
-6 1 9 0.74 0.21
-6 1 9 0.43 0.16
-6 1 10 42.75 1.31
-6 1 10 46.62 1.25
-6 0 -8 9.4 0.42
-6 0 -8 7.71 0.49
-6 0 -7 37.09 1.12
-6 0 -7 36.03 1.35
-6 0 -6 12.86 0.69
-6 0 -6 11.47 0.82
-6 0 -5 10.48 0.68
-6 0 -5 9.57 0.81
-6 0 -4 14.88 0.88
-6 0 -4 14.19 0.81
-6 0 -4 14.52 1.03
-6 0 -3 4.63 0.53
-6 0 -3 4.79 0.69
-6 0 -3 4.49 0.49
-6 0 -3 5.15 0.65
-6 0 -2 5.05 0.65
-6 0 -2 5.21 0.59
-6 0 -2 4.8 0.49
-6 0 -2 4.59 0.44
-6 0 -1 112.2 2.76
-6 0 -1 113.67 2.75
-6 0 -1 116.96 3.36
-6 0 0 34.84 1.76
-6 0 0 28.63 1.14
-6 0 0 28.12 1.19
-6 0 0 32.91 1.56
-6 0 0 27.52 1.09
-6 0 0 30.19 1.54
-6 0 1 128.82 6.23
-6 0 1 149.38 4.06
-6 0 1 124.57 2.91
-6 0 1 137.32 3.22
-6 0 1 143.91 3.71
-6 0 1 138.08 3.2
-6 0 1 138.17 3.72
-6 0 2 36.23 1.45
-6 0 2 40.85 1.75
-6 0 2 40.09 1.43
-6 0 2 36.9 1.71
-6 0 2 42.43 2.01
-6 0 3 80.47 2.57
-6 0 3 64.64 2.12
-6 0 3 66.5 2.37
-6 0 3 79.49 2.79
-6 0 4 13.11 0.87
-6 0 4 13.12 0.73
-6 0 5 123.06 3.56
-6 0 6 10.69 0.74
-6 0 6 8.84 0.6
-6 0 7 2.64 0.38
-6 0 7 3.15 0.36
-6 0 8 57.8 1.63
-6 0 8 52.17 1.56
-6 0 9 53.26 1.4
-6 0 9 48.65 1.39
-6 0 10 13.38 0.55
-6 -1 -7 7.93 0.42
-6 -1 -7 5.36 0.41
-6 -1 -6 15.2 0.69
-6 -1 -6 13.44 0.76
-6 -1 -5 86.55 2.19
-6 -1 -5 91.46 2.57
-6 -1 -4 47.69 1.65
-6 -1 -4 44.58 1.73
-6 -1 -4 48.18 1.75
-6 -1 -3 7.98 0.68
-6 -1 -3 8.36 0.61
-6 -1 -3 7.61 0.72
-6 -1 -2 72.32 2.42
-6 -1 -2 72.99 2.06
-6 -1 -2 75.7 2.32
-6 -1 -1 159.17 3.99
-6 -1 -1 157.73 3.49
-6 -1 -1 164.7 4.01
-6 -1 -1 165.93 4.07
-6 -1 0 16.95 1.18
-6 -1 0 11.13 0.66
-6 -1 0 12.02 0.93
-6 -1 0 10.99 0.66
-6 -1 0 15.57 1.04
-6 -1 1 42.79 1.92
-6 -1 1 42.1 1.52
-6 -1 1 38.16 1.63
-6 -1 1 34.55 1.32
-6 -1 1 31.46 1.12
-6 -1 1 37.63 1.68
-6 -1 2 72.72 2.36
-6 -1 2 68.05 2.08
-6 -1 2 73.43 2.62
-6 -1 2 67.93 2.39
-6 -1 2 75.42 2.2
-6 -1 3 24.41 1.17
-6 -1 3 27.99 1.54
-6 -1 3 23.66 1.3
-6 -1 3 26.94 1.25
-6 -1 4 29.79 1.31
-6 -1 4 31.73 1.58
-6 -1 4 30.58 1.4
-6 -1 4 29.13 1.3
-6 -1 5 46.02 1.87
-6 -1 5 36.07 1.48
-6 -1 6 246.04 5.3
-6 -1 6 287.87 5.38
-6 -1 7 1.88 0.33
-6 -1 7 1.76 0.25
-6 -1 7 2.25 0.34
-6 -1 8 1.63 0.28
-6 -1 8 1.3 0.2
-6 -1 8 1.68 0.26
-6 -1 9 33.27 1.03
-6 -1 9 29.22 0.91
-6 -2 -6 5.69 0.39
-6 -2 -6 3.12 0.28
-6 -2 -5 2.22 0.29
-6 -2 -5 0.29 0.18
-6 -2 -4 31.51 1.22
-6 -2 -4 34.64 1.26
-6 -2 -3 37.14 1.43
-6 -2 -3 38.77 1.29
-6 -2 -2 0.17 0.18
-6 -2 -2 0.23 0.19
-6 -2 -2 0.06 0.21
-6 -2 -1 29.59 1.33
-6 -2 -1 36.72 1.6
-6 -2 -1 35.57 1.49
-6 -2 -1 29.01 1.12
-6 -2 -1 35.91 1.46
-6 -2 0 57.57 1.57
-6 -2 0 56.41 1.92
-6 -2 1 7.38 0.75
-6 -2 1 7.02 0.68
-6 -2 1 5.39 0.58
-6 -2 1 6.19 0.5
-6 -2 2 8.06 0.82
-6 -2 2 9.23 0.78
-6 -2 2 8.76 0.63
-6 -2 2 7.47 0.7
-6 -2 3 51.82 1.59
-6 -2 3 49.77 2.06
-6 -2 3 49.06 1.67
-6 -2 3 51.05 1.86
-6 -2 4 13.63 0.74
-6 -2 4 15.27 1.02
-6 -2 4 13.83 0.83
-6 -2 4 14.71 0.89
-6 -2 5 5.29 0.45
-6 -2 5 6.67 0.64
-6 -2 5 6.85 0.56
-6 -2 6 41.62 1.38
-6 -2 6 36.02 1.21
-6 -2 7 8.83 0.56
-6 -2 7 7.35 0.45
-6 -2 8 19.43 0.73
-6 -2 8 13.85 0.54
-6 -2 9 39.81 0.97
-6 -3 -4 3.46 0.34
-6 -3 -3 49.9 1.52
-6 -3 -3 47.53 1.35
-6 -3 -2 55.09 1.63
-6 -3 -2 49.69 1.52
-6 -3 -2 52.89 1.43
-6 -3 -1 8.37 0.67
-6 -3 -1 6.85 0.5
-6 -3 -1 9.09 0.62
-6 -3 0 1.26 0.3
-6 -3 0 0.18 0.23
-6 -3 1 115.09 2.21
-6 -3 1 119.76 2.75
-6 -3 2 29.17 1.36
-6 -3 2 27.43 1.04
-6 -3 2 26.38 1.22
-6 -3 3 1.69 0.37
-6 -3 3 2.81 0.34
-6 -3 3 2.16 0.35
-6 -3 4 13.1 0.9
-6 -3 4 13.22 0.73
-6 -3 4 15.61 0.83
-6 -3 5 8.95 0.66
-6 -3 5 9.87 0.6
-6 -3 6 17.55 0.77
-6 -3 7 7.22 0.43
-6 -3 8 4.92 0.29
-6 -4 -1 8.8 0.55
-6 -4 -1 11.61 0.55
-6 -4 0 2.29 0.32
-6 -4 0 2.81 0.31
-6 -4 1 0.76 0.2
-6 -4 1 0.76 0.24
-6 -4 2 65.62 1.96
-6 -4 2 68.61 1.57
-6 -4 3 22.08 0.77
-6 -4 3 23.21 0.92
-6 -4 4 15.94 0.65
-6 -4 4 16.93 0.72
-6 -4 5 7.06 0.45
-6 -4 6 133.45 2.53
-7 8 -3 5.44 0.31
-7 8 -3 5.05 0.31
-7 8 -2 13.17 0.57
-7 8 -2 12.56 0.62
-7 8 -2 13.7 0.6
-7 8 -2 13.81 0.55
-7 8 -1 17.48 0.71
-7 8 -1 17.22 0.61
-7 8 -1 18.21 0.75
-7 8 0 43.99 1.29
-7 8 0 44.56 1.33
-7 8 1 1.55 0.19
-7 8 1 1.15 0.19
-7 8 2 21.83 0.75
-7 8 2 22.67 0.76
-7 7 -5 0.61 0.13
-7 7 -4 3.97 0.33
-7 7 -3 34.96 1.17
-7 7 -3 32.47 1.04
-7 7 -3 33.94 1.04
-7 7 -2 1.61 0.28
-7 7 -2 1.85 0.25
-7 7 -2 1.97 0.25
-7 7 -2 1.62 0.25
-7 7 -1 0.5 0.2
-7 7 -1 0.56 0.18
-7 7 -1 0.53 0.15
-7 7 -1 0.75 0.15
-7 7 -1 0.66 0.19
-7 7 0 43.84 1.4
-7 7 0 42.59 1.18
-7 7 0 46.31 1.45
-7 7 1 17.25 0.79
-7 7 1 15.15 0.74
-7 7 1 17.96 0.72
-7 7 1 14.63 0.75
-7 7 2 0.22 0.14
-7 7 2 0.27 0.15
-7 7 2 0.08 0.11
-7 7 2 0.37 0.16
-7 7 3 21.4 0.8
-7 7 3 20.83 0.76
-7 7 4 44.31 1.17
-7 7 4 34.93 0.92
-7 7 5 0.33 0.1
-7 6 -6 20.24 0.67
-7 6 -5 1.21 0.19
-7 6 -4 0.57 0.18
-7 6 -3 8.14 0.5
-7 6 -3 8.13 0.57
-7 6 -3 7.84 0.5
-7 6 -3 9.69 0.56
-7 6 -2 50.56 1.5
-7 6 -2 49.98 1.62
-7 6 -2 51.15 1.46
-7 6 -2 49.41 1.52
-7 6 -1 18.69 0.91
-7 6 -1 17.56 0.87
-7 6 -1 19.67 0.97
-7 6 -1 19.06 0.72
-7 6 -1 18 0.78
-7 6 0 14.56 0.82
-7 6 0 14.74 0.79
-7 6 0 17.38 0.92
-7 6 0 15.31 0.67
-7 6 0 15.37 0.67
-7 6 1 22.7 1
-7 6 1 24.21 1.06
-7 6 1 24.66 0.92
-7 6 2 100.73 2.36
-7 6 2 110.92 2.53
-7 6 3 25.83 0.97
-7 6 3 25.33 0.97
-7 6 3 28.63 1.01
-7 6 4 10.49 0.57
-7 6 4 9.34 0.48
-7 6 5 79.26 1.86
-7 6 6 11.27 0.51
-7 5 -6 7.17 0.4
-7 5 -5 8.37 0.49
-7 5 -3 0.12 0.14
-7 5 -3 0.25 0.15
-7 5 -3 0.23 0.2
-7 5 -2 7.38 0.54
-7 5 -2 7.62 0.61
-7 5 -2 7.39 0.55
-7 5 -2 6.69 0.49
-7 5 -1 46.03 1.52
-7 5 -1 42.16 1.35
-7 5 -1 45.67 1.52
-7 5 0 1.5 0.3
-7 5 0 1.6 0.29
-7 5 0 2.08 0.36
-7 5 0 1.33 0.19
-7 5 0 1.15 0.21
-7 5 1 2.82 0.29
-7 5 1 3.93 0.44
-7 5 1 4.3 0.44
-7 5 2 74.85 1.94
-7 5 2 99.19 2.36
-7 5 3 60.78 1.68
-7 5 3 58.39 1.66
-7 5 4 40.19 1.25
-7 5 4 39.93 1.21
-7 5 5 35.74 1.12
-7 5 5 35.39 0.95
-7 5 6 32.74 0.99
-7 4 -6 10.8 0.52
-7 4 -5 2.5 0.29
-7 4 -4 10.01 0.57
-7 4 -3 14.76 0.69
-7 4 -3 13.1 0.71
-7 4 -2 3.85 0.4
-7 4 -2 3.04 0.36
-7 4 -2 3.8 0.38
-7 4 -1 157.13 3.5
-7 4 -1 167.24 3.37
-7 4 0 49.82 1.38
-7 4 0 55.11 1.69
-7 4 1 30.53 1.24
-7 4 2 25.63 1.09
-7 4 3 40.88 1.38
-7 4 3 38.33 1.3
-7 4 4 13.96 0.75
-7 4 4 13.4 0.65
-7 4 4 11.82 0.59
-7 4 5 10.26 0.62
-7 4 5 9.95 0.47
-7 4 5 8.84 0.49
-7 4 6 64.54 1.58
-7 4 6 50.63 1.33
-7 4 7 23.91 0.78
-7 3 -6 52.11 1.31
-7 3 -5 6.55 0.44
-7 3 -5 4.71 0.41
-7 3 -4 0.19 0.18
-7 3 -3 5.3 0.44
-7 3 -3 5.14 0.51
-7 3 -3 4.8 0.38
-7 3 -2 17.43 0.94
-7 3 -2 17.39 0.8
-7 3 -2 16.14 0.79
-7 3 -1 77.66 2.22
-7 3 -1 80.44 2.07
-7 3 0 24.68 1.15
-7 3 0 23.26 1.03
-7 3 0 21.12 0.85
-7 3 1 344.41 7.17
-7 3 1 433.56 7.21
-7 3 2 0.7 0.26
-7 3 2 1.13 0.26
-7 3 3 36.73 1.4
-7 3 3 34.8 1.23
-7 3 4 11.54 0.75
-7 3 4 9.98 0.56
-7 3 5 0.62 0.24
-7 3 5 0.65 0.14
-7 3 6 47.21 1.46
-7 3 7 4.01 0.35
-7 3 8 55.92 1.31
-7 2 -6 7.25 0.43
-7 2 -6 7.85 0.42
-7 2 -5 33.3 1.16
-7 2 -5 34.51 1.06
-7 2 -4 11.57 0.71
-7 2 -3 6.07 0.57
-7 2 -3 6.42 0.41
-7 2 -3 6.69 0.48
-7 2 -2 5.97 0.58
-7 2 -2 6.28 0.45
-7 2 -2 5.68 0.44
-7 2 -1 24.34 1.17
-7 2 -1 22.27 0.93
-7 2 -1 21.96 0.88
-7 2 0 25.42 1.18
-7 2 0 22.58 0.95
-7 2 1 13.87 0.9
-7 2 1 9.78 0.64
-7 2 2 113.87 2.69
-7 2 2 124.05 2.96
-7 2 3 9.69 0.58
-7 2 3 9.74 0.69
-7 2 4 2.51 0.28
-7 2 4 2.67 0.39
-7 2 5 9.9 0.66
-7 2 6 79.29 2.06
-7 2 7 31.24 1.07
-7 2 8 1.23 0.18
-7 1 -4 76.34 1.8
-7 1 -3 46.56 1.33
-7 1 -2 10.39 0.57
-7 1 -1 24.67 0.89
-7 1 0 105.34 3.47
-7 1 0 104.25 2.24
-7 1 1 13.71 1.14
-7 1 1 7.85 0.55
-7 1 2 17.16 0.89
-7 1 2 14.33 0.66
-7 1 2 14.68 1.18
-7 1 2 15.29 0.75
-7 1 3 5.93 0.52
-7 1 3 5.66 0.45
-7 1 4 37.18 1.33
-7 1 4 36.7 1.21
-7 1 5 23.2 1
-7 1 5 23.35 0.91
-7 1 6 1.67 0.27
-7 1 7 24.08 0.87
-7 1 8 0.82 0.14
-7 0 -4 0.46 0.18
-7 0 -4 1.14 0.2
-7 0 -3 28.54 1.08
-7 0 -3 26.39 0.87
-7 0 -2 26.94 1.08
-7 0 -2 18.59 0.72
-7 0 -1 23.82 1.06
-7 0 -1 30.54 1.46
-7 0 0 45.53 1.87
-7 0 0 31.97 1.31
-7 0 1 26.52 1.42
-7 0 1 22.94 1.14
-7 0 2 9.9 0.89
-7 0 2 6.88 0.41
-7 0 3 3.95 0.61
-7 0 3 2.47 0.28
-7 0 4 7.83 0.48
-7 0 5 44.15 1.25
-7 0 5 42.98 1.3
-7 0 6 8.64 0.49
-7 0 7 4.87 0.31
-7 -1 -3 0.16 0.13
-7 -1 -2 2.39 0.3
-7 -1 -1 35.27 1.28
-7 -1 -1 81.67 2.12
-7 -1 0 22.79 0.99
-7 -1 1 14.24 0.94
-7 -1 2 40.44 1.65
-7 -1 3 114.33 2.47
-7 -1 3 212.44 3.83
-7 -1 4 3.09 0.27
-7 -1 4 4.82 0.5
-7 -1 5 0.85 0.16
-7 -1 6 46.09 1.12
-7 -2 0 77.19 2.03
-7 -2 1 5.07 0.47
-7 -2 2 35.36 1.29
-7 -2 3 41.44 1.38
-8 5 0 76.08 1.56
-8 5 1 0.67 0.11
-8 4 -1 0.02 0.06
-8 4 0 14.95 0.53
-8 4 1 27.88 0.79
