#------------------------------------------------------------------------------
#$Date: 2022-03-03 23:12:28 +0200 (Thu, 03 Mar 2022) $
#$Revision: 273261 $
#$URL: file:///home/coder/svn-repositories/cod/cif/4/51/93/4519354.cif $
#------------------------------------------------------------------------------
#
# This file is available in the Crystallography Open Database (COD),
# http://www.crystallography.net/
#
# All data on this site have been placed in the public domain by the
# contributors.
#
data_4519354
loop_
_publ_author_name
'Shafran, Yuri M.'
'Hussein, Aqeel A.'
'Beliaev, Nikolai A.'
'Shevyrin, Vadim A.'
'Shityakov, Sergey'
'Beryozkina, Tetyana V.'
'Bakulev, Vasiliy A.'
_publ_section_title
;
 Selective Synthesis of Azoloyl <i>NH</i>-1,2,3-Triazoles and Azolyl
 Diazoketones: Experimental and Computational Insights.
;
_journal_issue                   6
_journal_name_full               'ACS omega'
_journal_page_first              5008
_journal_page_last               5031
_journal_paper_doi               10.1021/acsomega.1c05898
_journal_volume                  7
_journal_year                    2022
_chemical_formula_moiety         'C10 H6 N6 O3'
_chemical_formula_sum            'C10 H6 N6 O3'
_chemical_formula_weight         258.21
_space_group_crystal_system      triclinic
_space_group_IT_number           2
_space_group_name_Hall           '-P 1'
_space_group_name_H-M_alt        'P -1'
_atom_sites_solution_hydrogens   mixed
_atom_sites_solution_primary     direct
_audit_creation_date             2021-06-22
_audit_creation_method
;
Olex2 1.3
(compiled 2020.11.12 svn.r5f609507 for OlexSys, GUI svn.r6272)
;
_cell_angle_alpha                91.354(10)
_cell_angle_beta                 92.008(9)
_cell_angle_gamma                92.293(12)
_cell_formula_units_Z            2
_cell_length_a                   5.6104(7)
_cell_length_b                   5.7380(10)
_cell_length_c                   17.8464(17)
_cell_measurement_reflns_used    753
_cell_measurement_temperature    295(2)
_cell_measurement_theta_max      23.3910
_cell_measurement_theta_min      3.8340
_cell_volume                     573.53(13)
_computing_cell_refinement       'CrysAlisPro 1.171.39.38a (Rigaku OD, 2017)'
_computing_data_collection       'CrysAlisPro 1.171.39.38a (Rigaku OD, 2017)'
_computing_data_reduction        'CrysAlisPro 1.171.39.38a (Rigaku OD, 2017)'
_computing_molecular_graphics    'Olex2 1.3 (Dolomanov et al., 2009)'
_computing_publication_material  'Olex2 1.3 (Dolomanov et al., 2009)'
_computing_structure_refinement  'SHELXL 2018/3 (Sheldrick, 2015)'
_computing_structure_solution    'SHELXS-1997  (Sheldrick, 2008)'
_diffrn_ambient_temperature      295(2)
_diffrn_detector                 'CCD plate'
_diffrn_detector_area_resol_mean 16.5253
_diffrn_detector_type            Sapphire3
_diffrn_measured_fraction_theta_full 0.986
_diffrn_measured_fraction_theta_max 0.980
_diffrn_measurement_details
;
List of Runs (angles in degrees, time in seconds):

  # Type    Start    End  Width  t~exp~   \w     \q     \k     \f   Frames
--------------------------------------------------------------------------
  1  \w    -46.00 -21.00   1.00  100.00    --   21.89 -64.00 -60.00   25
  2  \w     55.00  89.00   1.00  100.00    --   21.89  64.00  76.00   34
  3  \w    -46.00   5.00   1.00  100.00    --  -23.61  64.00  76.00   51
  4  \w     18.00  44.00   1.00  100.00    --  -23.61  64.00  76.00   26
  5  \w     32.00  98.00   1.00  100.00    --   21.89-178.00 -30.00   66
  6  \w    -93.00   5.00   1.00  100.00    --  -23.61 -77.00-180.00   98
  7  \w   -100.00 -48.00   1.00  100.00    --  -23.61 178.00  30.00   52
  8  \w    -87.00  -3.00   1.00  100.00    --  -23.61 -64.00 -60.00   84
;
_diffrn_measurement_device       'four-circle diffractometer'
_diffrn_measurement_device_type  'Xcalibur, Sapphire3'
_diffrn_measurement_method       '\w scans'
_diffrn_orient_matrix_type
'CrysAlisPro convention (1999,Acta A55,543-557)'
_diffrn_orient_matrix_UB_11      0.0142702000
_diffrn_orient_matrix_UB_12      -0.0845938000
_diffrn_orient_matrix_UB_13      -0.0289498000
_diffrn_orient_matrix_UB_21      0.1192436000
_diffrn_orient_matrix_UB_22      0.0423224000
_diffrn_orient_matrix_UB_23      -0.0040846000
_diffrn_orient_matrix_UB_31      0.0400923000
_diffrn_orient_matrix_UB_32      -0.0797947000
_diffrn_orient_matrix_UB_33      0.0269777000
_diffrn_radiation_monochromator  graphite
_diffrn_radiation_probe          x-ray
_diffrn_radiation_type           'Mo K\a'
_diffrn_radiation_wavelength     0.71073
_diffrn_reflns_av_R_equivalents  0.0459
_diffrn_reflns_av_unetI/netI     0.0796
_diffrn_reflns_Laue_measured_fraction_full 0.986
_diffrn_reflns_Laue_measured_fraction_max 0.980
_diffrn_reflns_limit_h_max       7
_diffrn_reflns_limit_h_min       -7
_diffrn_reflns_limit_k_max       7
_diffrn_reflns_limit_k_min       -6
_diffrn_reflns_limit_l_max       23
_diffrn_reflns_limit_l_min       -23
_diffrn_reflns_number            5290
_diffrn_reflns_point_group_measured_fraction_full 0.986
_diffrn_reflns_point_group_measured_fraction_max 0.980
_diffrn_reflns_theta_full        26.000
_diffrn_reflns_theta_max         28.279
_diffrn_reflns_theta_min         3.428
_diffrn_source                   'fine-focus sealed X-ray tube'
_diffrn_source_type              'Enhance (Mo) X-ray Source'
_exptl_absorpt_coefficient_mu    0.116
_exptl_absorpt_correction_T_max  1.00000
_exptl_absorpt_correction_T_min  0.41602
_exptl_absorpt_correction_type   multi-scan
_exptl_absorpt_process_details
;
CrysAlisPro 1.171.39.38a (Rigaku Oxford Diffraction, 2017)
Empirical absorption correction using spherical harmonics,
 implemented in SCALE3 ABSPACK scaling algorithm.
;
_exptl_crystal_colour            'light yellow'
_exptl_crystal_colour_modifier   light
_exptl_crystal_colour_primary    yellow
_exptl_crystal_density_diffrn    1.495
_exptl_crystal_description       plate
_exptl_crystal_F_000             264
_exptl_crystal_size_max          0.47
_exptl_crystal_size_mid          0.26
_exptl_crystal_size_min          0.09
_refine_diff_density_max         0.157
_refine_diff_density_min         -0.157
_refine_diff_density_rms         0.040
_refine_ls_extinction_method     none
_refine_ls_goodness_of_fit_ref   1.005
_refine_ls_hydrogen_treatment    mixed
_refine_ls_matrix_type           full
_refine_ls_number_parameters     180
_refine_ls_number_reflns         2804
_refine_ls_number_restraints     0
_refine_ls_restrained_S_all      1.005
_refine_ls_R_factor_all          0.1446
_refine_ls_R_factor_gt           0.0550
_refine_ls_shift/su_max          0.000
_refine_ls_shift/su_mean         0.000
_refine_ls_structure_factor_coef Fsqd
_refine_ls_weighting_details
'w=1/[\s^2^(Fo^2^)+(0.0400P)^2^] where P=(Fo^2^+2Fc^2^)/3'
_refine_ls_weighting_scheme      calc
_refine_ls_wR_factor_gt          0.1109
_refine_ls_wR_factor_ref         0.1580
_reflns_Friedel_coverage         0.000
_reflns_number_gt                1214
_reflns_number_total             2804
_reflns_threshold_expression     'I > 2\s(I)'
_iucr_refine_instructions_details
;
TITL exp_580 in P-1
    exp_580.res
    created by SHELXL-2018/3 at 15:42:08 on 22-Jun-2021
CELL 0.71073 5.6104 5.738 17.8464 91.354 92.008 92.293
ZERR 2 0.0007 0.001 0.0017 0.01 0.009 0.012
LATT 1
SFAC C H N O
UNIT 20 12 12 6

L.S. 10
PLAN  5
BOND $H
HTAB
fmap 2
acta 52
MORE -1
CONF
OMIT 3 0 18
REM <olex2.extras>
REM <HklSrc "%.\\exp_580.hkl">
REM </olex2.extras>

WGHT    0.040000
FVAR       0.83688
O1    4    1.078779    0.158508    0.117356    11.00000    0.08327    0.07194 =
         0.08458    0.00381    0.00703   -0.01751
O2    4    1.211250   -0.120165    0.049023    11.00000    0.07705    0.12506 =
         0.08335   -0.00113    0.03476   -0.00059
O3    4    0.855967    0.540357    0.399180    11.00000    0.05398    0.09234 =
         0.08689   -0.02480    0.00407    0.00796
N1    3    0.951939   -0.030024    0.253383    11.00000    0.04119    0.06648 =
         0.05512   -0.00436    0.00363    0.00199
N2    3    1.194438   -0.022679    0.262525    11.00000    0.04227    0.08873 =
         0.06744   -0.01293    0.00067    0.00740
N3    3    1.250772    0.146110    0.310686    11.00000    0.04305    0.08817 =
         0.05869   -0.01125    0.00141    0.00082
N4    3    1.079924   -0.044806    0.096075    11.00000    0.05619    0.08042 =
         0.05572    0.00325    0.00620   -0.00228
N5    3    1.271636    0.730823    0.454458    11.00000    0.07114    0.08690 =
         0.07362   -0.00899   -0.00317   -0.01440
N6    3    1.256430    0.891873    0.490803    11.00000    0.11239    0.09953 =
         0.11607   -0.02674   -0.00323   -0.01800
C1    1    1.046272    0.453917    0.383476    11.00000    0.05047    0.07587 =
         0.05310   -0.00246    0.00393    0.00001
C2    1    1.274965    0.542136    0.411389    11.00000    0.05495    0.08385 =
         0.06195   -0.01547   -0.00096   -0.00469
C4    1    1.048123    0.245812    0.332921    11.00000    0.04064    0.07271 =
         0.04922   -0.00015    0.00496    0.00194
C5    1    0.857731    0.132663    0.296735    11.00000    0.04037    0.06891 =
         0.05404   -0.00616    0.00700    0.00449
C6    1    0.901358   -0.208853    0.126532    11.00000    0.04750    0.05573 =
         0.05691    0.00085    0.00545    0.00165
C7    1    0.834087   -0.193320    0.200795    11.00000    0.04516    0.05818 =
         0.05166   -0.00128    0.00364    0.00355
C8    1    0.654148   -0.341313    0.223638    11.00000    0.05478    0.07665 =
         0.05759    0.00306    0.00853   -0.00530
AFIX  43
H8    2    0.607975   -0.333479    0.273147    11.00000   -1.20000
AFIX   0
C9    1    0.541204   -0.500895    0.174430    11.00000    0.06112    0.06855 =
         0.08365    0.00554   -0.00049   -0.01333
AFIX  43
H9    2    0.416295   -0.596938    0.190255    11.00000   -1.20000
AFIX   0
C10   1    0.613057   -0.518206    0.101965    11.00000    0.07087    0.06312 =
         0.07486   -0.00417   -0.00866   -0.00381
AFIX  43
H10   2    0.539048   -0.629206    0.069166    11.00000   -1.20000
AFIX   0
C3    1    0.793974   -0.372796    0.077124    11.00000    0.06602    0.07462 =
         0.05716   -0.00680    0.00415    0.00107
AFIX  43
H3    2    0.842651   -0.385085    0.027957    11.00000   -1.20000
AFIX   0
H5    2    0.700120    0.147682    0.299381    11.00000    0.05813
H2    2    1.427244    0.484290    0.401613    11.00000    0.07007
HKLF 4




REM  exp_580 in P-1
REM wR2 = 0.1580, GooF = S = 1.005, Restrained GooF = 1.005 for all data
REM R1 = 0.0550 for 1214 Fo > 4sig(Fo) and 0.1446 for all 2804 data
REM 180 parameters refined using 0 restraints

END  
     
WGHT      0.0457      0.0000 

REM Instructions for potential hydrogen bonds
EQIV $1 x-1, y, z
HTAB C5 N3_$1
EQIV $2 x+1, y, z
HTAB C2 O3_$2

REM Highest difference peak  0.157,  deepest hole -0.157,  1-sigma level  0.040
Q1    1   1.3020 -0.1989  0.1276  11.00000  0.05    0.16
Q2    1   1.4411  0.5784  0.4938  11.00000  0.05    0.15
Q3    1   0.9943  0.7337  0.4478  11.00000  0.05    0.15
Q4    1   1.0010  0.2312  0.2495  11.00000  0.05    0.14
Q5    1   1.1598  0.1966  0.2411  11.00000  0.05    0.13

  REM The information below was added by Olex2.
  REM
  REM R1 = 0.0550 for 1214 Fo > 4sig(Fo) and 0.1446 for all 5292 data
  REM 180 parameters refined using n/a restraints
  REM Highest difference peak 0.16, deepest hole -0.16
  REM Mean Shift 0, Max Shift 0.000.

  REM +++ Tabular Listing of Refinement Information +++
  REM R1_all = 0.1446
  REM R1_gt = 0.0550
  REM wR_ref = 0.1580
  REM GOOF = 1.005
  REM Shift_max = 0.000
  REM Shift_mean = 0
  REM Reflections_all = 5292
  REM Reflections_gt = 1214
  REM Parameters = 180
  REM Hole = -0.16
  REM Peak = 0.16
  REM Flack = n/a

  
;
_cod_data_source_file            ao1c05898_si_002.cif
_cod_data_source_block           exp_580
_cod_database_code               4519354
_shelx_shelxl_version_number     2018/3
_shelx_space_group_comment
;
The symmetry employed for this shelxl refinement is uniquely defined
by the following loop, which should always be used as a source of
symmetry information in preference to the above space-group names.
They are only intended as comments.
;
_reflns_odcompleteness_completeness 98.01
_reflns_odcompleteness_iscentric 1
_reflns_odcompleteness_theta     28.22
_olex2_refinement_description
;
1. Fixed Uiso
 At 1.2 times of:
  All C(H) groups
2.a Aromatic/amide H refined with riding coordinates:
 C8(H8), C9(H9), C10(H10), C3(H3)
;
_olex2_submission_special_instructions 'No special instructions were received'
_oxdiff_exptl_absorpt_empirical_details
;
Empirical correction (ABSPACK) includes:
- Absorption correction using spherical harmonics
- Frame scaling
;
_oxdiff_exptl_absorpt_empirical_full_max 1.650
_oxdiff_exptl_absorpt_empirical_full_min 0.610
loop_
_space_group_symop_operation_xyz
'x, y, z'
'-x, -y, -z'
loop_
_atom_site_label
_atom_site_type_symbol
_atom_site_fract_x
_atom_site_fract_y
_atom_site_fract_z
_atom_site_U_iso_or_equiv
_atom_site_adp_type
_atom_site_occupancy
_atom_site_site_symmetry_order
_atom_site_calc_flag
_atom_site_refinement_flags_posn
_atom_site_refinement_flags_adp
_atom_site_refinement_flags_occupancy
_atom_site_disorder_assembly
_atom_site_disorder_group
O1 O 1.0788(4) 0.1585(4) 0.11736(11) 0.0804(7) Uani 1 1 d . . . . .
O2 O 1.2113(4) -0.1202(5) 0.04902(12) 0.0946(8) Uani 1 1 d . . . . .
O3 O 0.8560(4) 0.5404(4) 0.39918(11) 0.0780(7) Uani 1 1 d . . . . .
N1 N 0.9519(4) -0.0300(4) 0.25338(11) 0.0543(6) Uani 1 1 d . . . . .
N2 N 1.1944(4) -0.0227(5) 0.26253(12) 0.0663(7) Uani 1 1 d . . . . .
N3 N 1.2508(4) 0.1461(4) 0.31069(11) 0.0636(7) Uani 1 1 d . . . . .
N4 N 1.0799(4) -0.0448(5) 0.09607(12) 0.0641(7) Uani 1 1 d . . . . .
N5 N 1.2716(5) 0.7308(6) 0.45446(14) 0.0780(8) Uani 1 1 d . . . . .
N6 N 1.2564(6) 0.8919(6) 0.49080(19) 0.1106(12) Uani 1 1 d . . . . .
C1 C 1.0463(5) 0.4539(5) 0.38348(13) 0.0599(8) Uani 1 1 d . . . . .
C2 C 1.2750(6) 0.5421(6) 0.41139(16) 0.0675(9) Uani 1 1 d . . . . .
C4 C 1.0481(5) 0.2458(5) 0.33292(13) 0.0542(7) Uani 1 1 d . . . . .
C5 C 0.8577(5) 0.1327(5) 0.29673(14) 0.0544(7) Uani 1 1 d . . . . .
C6 C 0.9014(5) -0.2089(5) 0.12653(14) 0.0533(7) Uani 1 1 d . . . . .
C7 C 0.8341(4) -0.1933(5) 0.20079(13) 0.0516(7) Uani 1 1 d . . . . .
C8 C 0.6541(5) -0.3413(5) 0.22364(15) 0.0630(8) Uani 1 1 d . . . . .
H8 H 0.607975 -0.333479 0.273147 0.076 Uiso 1 1 calc R U . . .
C9 C 0.5412(5) -0.5009(6) 0.17443(17) 0.0716(9) Uani 1 1 d . . . . .
H9 H 0.416295 -0.596938 0.190255 0.086 Uiso 1 1 calc R U . . .
C10 C 0.6131(6) -0.5182(5) 0.10197(17) 0.0701(9) Uani 1 1 d . . . . .
H10 H 0.539048 -0.629206 0.069166 0.084 Uiso 1 1 calc R U . . .
C3 C 0.7940(5) -0.3728(6) 0.07712(15) 0.0661(8) Uani 1 1 d . . . . .
H3 H 0.842651 -0.385085 0.027957 0.079 Uiso 1 1 calc R U . . .
H5 H 0.700(5) 0.148(4) 0.2994(12) 0.058(8) Uiso 1 1 d . . . . .
H2 H 1.427(5) 0.484(5) 0.4016(13) 0.070(9) Uiso 1 1 d . . . . .
loop_
_atom_site_aniso_label
_atom_site_aniso_U_11
_atom_site_aniso_U_22
_atom_site_aniso_U_33
_atom_site_aniso_U_23
_atom_site_aniso_U_13
_atom_site_aniso_U_12
O1 0.0833(17) 0.0719(17) 0.0846(15) 0.0038(13) 0.0070(11) -0.0175(13)
O2 0.0770(17) 0.125(2) 0.0834(14) -0.0011(14) 0.0348(12) -0.0006(15)
O3 0.0540(13) 0.0923(18) 0.0869(14) -0.0248(12) 0.0041(10) 0.0080(12)
N1 0.0412(13) 0.0665(17) 0.0551(12) -0.0044(11) 0.0036(9) 0.0020(11)
N2 0.0423(14) 0.089(2) 0.0674(14) -0.0129(14) 0.0007(10) 0.0074(13)
N3 0.0431(14) 0.088(2) 0.0587(13) -0.0113(13) 0.0014(10) 0.0008(13)
N4 0.0562(15) 0.080(2) 0.0557(14) 0.0033(13) 0.0062(11) -0.0023(15)
N5 0.0711(18) 0.087(3) 0.0736(18) -0.0090(16) -0.0032(13) -0.0144(16)
N6 0.112(3) 0.100(3) 0.116(2) -0.027(2) -0.0032(19) -0.018(2)
C1 0.0505(18) 0.076(2) 0.0531(15) -0.0025(15) 0.0039(12) 0.0000(16)
C2 0.055(2) 0.084(3) 0.0619(17) -0.0155(17) -0.0010(14) -0.0047(17)
C4 0.0406(15) 0.073(2) 0.0492(14) -0.0001(13) 0.0050(11) 0.0019(14)
C5 0.0404(16) 0.069(2) 0.0540(15) -0.0062(14) 0.0070(12) 0.0045(14)
C6 0.0475(16) 0.0557(19) 0.0569(15) 0.0008(13) 0.0055(12) 0.0017(14)
C7 0.0452(15) 0.0582(19) 0.0517(14) -0.0013(13) 0.0036(11) 0.0035(13)
C8 0.0548(18) 0.077(2) 0.0576(16) 0.0031(15) 0.0085(13) -0.0053(16)
C9 0.0611(19) 0.069(2) 0.084(2) 0.0055(17) -0.0005(16) -0.0133(16)
C10 0.071(2) 0.063(2) 0.075(2) -0.0042(16) -0.0087(15) -0.0038(17)
C3 0.066(2) 0.075(2) 0.0572(16) -0.0068(15) 0.0041(13) 0.0011(17)
loop_
_atom_type_symbol
_atom_type_description
_atom_type_scat_dispersion_real
_atom_type_scat_dispersion_imag
_atom_type_scat_source
C C 0.0033 0.0016 'International Tables Vol C Tables 4.2.6.8 and 6.1.1.4'
H H 0.0000 0.0000 'International Tables Vol C Tables 4.2.6.8 and 6.1.1.4'
N N 0.0061 0.0033 'International Tables Vol C Tables 4.2.6.8 and 6.1.1.4'
O O 0.0106 0.0060 'International Tables Vol C Tables 4.2.6.8 and 6.1.1.4'
loop_
_diffrn_refln_index_h
_diffrn_refln_index_k
_diffrn_refln_index_l
_diffrn_refln_intensity_net
_diffrn_refln_intensity_u
0 0 -3 42.03 2.79
0 0 4 221.26 7.85
0 0 -4 233.04 7.88
0 0 -4 239.18 8.03
0 0 4 201.86 7.72
0 0 -4 210.9 7.96
0 0 4 226.83 7.79
0 0 5 620.42 16.88
0 0 -5 637.59 17.66
0 0 -5 680.76 17.01
0 0 5 643.33 16.85
0 0 -5 692.47 17.41
0 0 6 936.31 22.67
0 0 6 889.39 22.4
0 0 -6 911.12 23.66
0 0 7 9.44 2.13
0 0 7 10.19 2.19
0 0 -7 10.89 2.62
0 0 -8 5.36 1.88
0 0 8 3.91 1.33
0 0 8 4.19 1.68
0 0 9 -0.74 1.28
0 0 9 -1 0.88
0 0 -9 -0.17 1.29
0 0 10 185.97 10.67
0 0 10 194.25 11.1
0 0 -10 207.92 12.97
0 0 -11 24.6 4.59
0 0 11 20.88 3.76
0 0 11 19.18 3.59
0 0 -12 -0.37 1.52
0 0 12 0.3 0.73
0 0 12 0.59 0.58
0 0 -13 2.73 1.97
0 0 13 1 1.34
0 0 13 3.48 1.71
0 0 14 91.77 8.73
0 0 -14 107.43 10.81
0 0 14 82.62 8.49
0 0 15 8.91 2.97
0 0 15 4.6 2.09
0 0 -15 4.6 2.49
0 0 16 3.58 2.09
0 0 16 3.51 1.72
0 0 -16 2.02 1.7
0 0 -17 -1.11 2.07
0 0 17 0.69 1.2
0 0 17 0.65 0.69
0 0 -18 1.64 1.65
0 0 18 0.47 1.05
0 0 18 0.58 1.79
0 0 19 2.37 1.91
0 0 19 -0.33 1.06
0 0 20 1.58 1.52
0 0 20 1.85 1.65
0 0 -20 0.71 1.14
0 0 21 0.06 0.7
0 0 -21 1.12 1.45
0 0 -22 -1.83 1.97
0 0 22 -1.37 1.43
0 0 23 0 0.84
0 0 -23 -0.31 1.29
0 1 -23 0 1.74
0 -1 23 0.55 1.04
0 -1 22 -1.03 1.7
0 1 -22 1.07 0.87
0 1 -21 -0.18 1.27
0 -1 21 -1.74 1.65
0 1 -20 12.19 4.68
0 -1 20 4.46 2.39
0 -1 19 10.75 3.7
0 1 -19 16.52 4.87
0 1 -18 10.9 3.45
0 -1 18 6.69 2.74
0 1 -17 -1.94 1.86
0 -1 17 3.78 2.28
0 1 -16 3.35 2.56
0 -1 16 1.7 1.34
0 1 -15 8.22 3.22
0 -1 15 7.69 2.87
0 -1 14 -0.14 1.18
0 1 -14 2.17 1.36
0 -1 13 7.87 2.66
0 1 -13 8.39 3.13
0 -1 13 7.02 2.43
0 -1 12 5.47 2.23
0 -1 12 8.58 2.78
0 1 -12 3.79 2.13
0 1 -11 2.6 1.47
0 1 -11 2.77 0.82
0 1 -11 1.54 0.55
0 -1 11 3.91 2.12
0 -1 11 2.41 1.35
0 -1 10 11.88 2.71
0 1 -10 12.72 3.3
0 1 -10 12.71 1.53
0 1 -10 6.17 1.03
0 -1 10 9.77 2.42
0 1 -9 1.01 0.44
0 1 -9 0.64 0.42
0 1 -9 0.26 1.09
0 1 -9 0 0.35
0 -1 9 2.11 1.4
0 -1 9 4.47 2.24
0 1 -8 107.03 8.12
0 1 -8 105.21 4.73
0 -1 8 97.67 6.93
0 -1 8 109.66 7.97
0 1 -8 87.15 4.07
0 1 -7 30.42 2.48
0 -1 7 26.37 3.5
0 1 -7 31.45 3.85
0 1 -7 14.68 1.81
0 -1 7 30.18 4.09
0 1 -7 30.35 2.34
0 -1 6 120.19 8.01
0 1 -6 109.42 4.93
0 1 -6 102.21 4.65
0 1 -5 5330.07 91.47
0 1 -5 5599.84 92.4
0 -1 5 5513.69 96.89
0 -1 4 3926.94 72.26
0 1 -4 4022.46 68.8
0 1 -4 4116.04 69.52
0 1 -3 85.81 4.53
0 1 -3 92.44 4.99
0 -1 3 79.92 4.77
0 1 -3 100.1 5.37
0 1 -3 102.03 4.47
0 -1 2 1687.91 32.32
0 1 -2 1704.45 32.57
0 1 -2 1643.05 32.17
0 1 -2 1740.06 32.67
0 1 -1 103.54 4.12
0 1 -1 101.5 4.84
0 1 -1 106.95 4.7
0 1 0 85.14 3.09
0 1 1 514.24 12.49
0 1 1 474.46 12.52
0 -1 -1 489.65 12.34
0 1 1 487.98 12.65
0 1 2 5.83 0.99
0 1 2 8.48 1.24
0 1 2 9.34 1.18
0 -1 -2 2.41 0.66
0 1 3 353.55 11.14
0 1 3 363.25 10.53
0 1 3 386.34 8.62
0 1 3 355.02 10.09
0 -1 -4 101.8 5.23
0 1 4 144.73 5.43
0 1 4 143.6 5.64
0 1 4 129.79 4.8
0 -1 -5 182.92 8.56
0 1 5 189.16 6.67
0 1 5 184.53 6.61
0 1 5 181.4 6.37
0 -1 -6 429.64 15.1
0 -1 -6 410.86 12.75
0 1 6 425.27 12.3
0 1 6 412.96 10.85
0 1 6 426.96 10.8
0 1 6 451.19 13.49
0 1 6 415.2 10.62
0 1 7 -0.36 0.59
0 1 7 0.72 0.48
0 1 7 -0.1 0.25
0 1 7 -0.27 0.27
0 1 7 0.87 0.5
0 1 8 0.86 0.43
0 1 8 1.28 0.46
0 1 8 0.53 0.3
0 1 8 2.86 0.74
0 1 8 -0.39 0.81
0 -1 -8 0.34 0.9
0 1 9 87.05 3.72
0 1 9 124.17 7.78
0 -1 -9 108.55 8.43
0 1 9 119.26 7.18
0 1 9 86.55 3.58
0 1 10 155.12 4.85
0 1 10 183.9 9.66
0 1 10 195.42 10.46
0 -1 -10 181.57 11.47
0 1 10 142.88 4.64
0 1 11 0.34 0.22
0 -1 -11 -0.77 1.89
0 1 11 0.94 0.83
0 1 11 0.3 0.18
0 1 11 -0.57 0.72
0 -1 -12 4.12 2.02
0 1 12 3.11 1.46
0 1 12 6.18 2.19
0 1 13 136.83 10.23
0 -1 -13 120.87 11.1
0 1 13 108.69 8.72
0 1 14 10.79 2.99
0 -1 -14 12.82 3.81
0 1 14 10.86 2.72
0 1 15 0.49 1.03
0 1 15 -1.72 1.73
0 -1 -15 -0.56 1.72
0 1 16 46.83 6.29
0 -1 -16 63.04 9.06
0 1 16 56.82 7.12
0 -1 -17 4.57 2.47
0 1 17 5.42 2.19
0 1 17 3.37 1.63
0 -1 -18 3.32 2.1
0 1 18 3.66 1.98
0 1 18 3.16 1.85
0 1 19 -0.2 1.21
0 1 19 0.06 1.38
0 -1 -19 3 2.23
0 1 20 10.11 3.51
0 1 20 8.46 3.16
0 -1 -20 15.08 4.57
0 -1 -21 5.57 3.33
0 1 21 3.78 2.31
0 1 21 2.33 1.46
0 -1 -22 -8.08 4.22
0 1 22 1.71 1.76
0 -1 -23 8.51 5.6
0 2 -23 -0.03 2.34
0 -2 23 0 1.37
0 -2 22 -1.26 1.48
0 2 -22 2.61 2.1
0 2 -21 1.95 1.78
0 -2 21 0 1.03
0 2 -20 8.15 3.28
0 -2 20 5.52 2.97
0 2 -19 5.35 2.42
0 -2 19 5.85 2.8
0 -2 18 6.21 2.61
0 2 -18 2.45 1.57
0 2 -17 0.6 0.94
0 -2 17 0.62 1.02
0 2 -16 7.28 2.82
0 -2 16 7.55 2.89
0 2 -15 2.11 1.57
0 -2 15 2.92 2.2
0 -2 14 2.32 1.55
0 2 -14 1.37 1.2
0 -2 13 1.41 1.18
0 2 -13 2.78 1.05
0 2 -13 -0.25 1.34
0 2 -12 31.84 3.59
0 2 -12 20.61 4.02
0 -2 12 24.95 4.76
0 -2 11 66.34 7.41
0 2 -11 46.77 5.73
0 2 -11 64.09 5.16
0 2 -10 117.24 7.15
0 -2 10 122.48 9.9
0 -2 9 659.46 24.34
0 2 -9 637.91 19.24
0 -2 8 113.69 8.89
0 2 -8 108.28 6.88
0 2 -7 0.69 0.72
0 -2 7 0.33 2.01
0 2 -6 1146.12 28.43
0 -2 6 1139.97 30.72
0 -2 5 9.97 2.26
0 2 -5 13.22 2.4
0 -2 4 -0.94 1.07
0 2 -4 -0.38 0.98
0 -2 3 0.99 0.55
0 2 -3 0.61 1.26
0 2 -2 161.15 7.36
0 -2 2 140.19 7
0 2 -2 158.23 8.69
0 2 -1 107.08 5.21
0 -2 1 88.12 4.92
0 2 -1 95.01 6.63
0 2 0 340.72 13.2
0 2 0 332.11 9.73
0 2 1 175.77 5.63
0 2 1 174.83 9.05
0 2 2 132.9 7.71
0 2 2 123.55 3.97
0 -2 -2 131.78 7.36
0 -2 -3 27.33 3.49
0 2 3 32.47 3.75
0 -2 -4 96.94 6.73
0 2 4 108.8 6.92
0 2 5 238.5 6.92
0 2 5 219.1 10.18
0 -2 -5 198.5 10.25
0 -2 -6 123.95 8.48
0 2 6 134.13 7.6
0 2 6 134.43 5.34
0 -2 -7 12.3 2.91
0 2 7 11.64 2.22
0 2 7 10.47 1.57
0 2 8 117.22 6.89
0 -2 -8 106.57 8.31
0 2 8 127.76 6.34
0 2 9 36.59 3.69
0 -2 -9 37.72 5.25
0 2 9 39.62 3.65
0 2 10 0.27 0.63
0 2 10 -1 0.73
0 -2 -10 0.17 0.9
0 2 10 -0.12 0.45
0 2 11 2.18 1.21
0 -2 -11 4.18 2.26
0 2 11 2.99 1.01
0 2 11 2.81 0.87
0 -2 -12 239.05 15.25
0 2 12 267.78 13.31
0 2 12 237.4 11.52
0 2 12 208.94 8.44
0 2 13 -0.32 0.87
0 2 13 -0.39 1.1
0 2 13 -0.75 0.59
0 -2 -13 0.87 1.68
0 2 14 105.77 8.3
0 2 14 117.31 9.52
0 -2 -14 120.51 11.55
0 2 15 21.97 4.24
0 2 15 17.86 3.45
0 -2 -15 21.58 5.25
0 2 16 -0.86 1.04
0 2 16 -0.15 1.14
0 -2 -16 -2.04 2.15
0 2 17 1.83 1.57
0 -2 -17 2.37 2.55
0 2 17 0.37 0.7
0 2 18 26.51 5.06
0 -2 -18 25.72 5.95
0 -2 -19 3.03 1.5
0 -2 -20 10.69 5.36
0 -2 -21 -1.58 3.45
0 -2 -22 4.82 3.36
0 3 -22 2.15 1.81
0 -3 22 0 0.45
0 3 -21 -2.02 1.7
0 -3 21 1.07 1.82
0 -3 20 0.28 0.79
0 3 -20 1.47 2.4
0 3 -19 -2.19 1.94
0 -3 19 2.39 2.23
0 3 -18 0.33 1.07
0 -3 18 2.31 2.24
0 -3 17 -1.25 1.9
0 3 -17 2.41 2.16
0 3 -16 0.63 0.99
0 -3 16 4.91 2.08
0 -3 15 2.14 0.91
0 3 -15 1.53 1.39
0 -3 14 17.55 4.56
0 3 -14 14 3.51
0 3 -14 21.12 3.56
0 -3 13 8.7 3.09
0 3 -13 6.83 1.97
0 -3 12 41.73 6.58
0 3 -12 35.96 4.62
0 -3 11 131.41 11.49
0 3 -11 126.02 9.07
0 -3 10 85.15 8.63
0 3 -10 80.34 7.24
0 3 -9 5.21 1.85
0 -3 9 5.8 2.15
0 3 -8 10.38 2.54
0 -3 8 8.17 2.5
0 -3 7 4.98 1.97
0 3 -7 2.42 1.27
0 3 -6 246.96 13.34
0 -3 6 249.43 13.48
0 -3 5 34.79 4.5
0 3 -5 35.1 4.77
0 -3 4 112.82 7.9
0 3 -4 116.49 9
0 3 -3 0.58 1.37
0 -3 3 0.37 0.62
0 3 -2 6.8 1.97
0 3 -1 1.83 1.6
0 3 0 366.62 16.37
0 3 0 362.54 11.65
0 3 1 18.1 2.04
0 3 1 16.18 2.83
0 3 2 28.32 4.21
0 3 2 30.66 2.37
0 3 3 28.05 4.19
0 -3 -3 28.82 4.2
0 3 3 26.77 1.95
0 3 4 638.86 22.17
0 -3 -4 610.43 21.71
0 3 4 590.17 12.01
0 3 5 42.42 5.09
0 -3 -5 43.71 5.64
0 3 6 4.33 1.38
0 -3 -6 2.37 1.01
0 3 6 4.9 0.67
0 3 7 101.54 7.96
0 3 7 98.9 3.9
0 -3 -7 91.39 8.21
0 -3 -8 20.3 3.87
0 3 8 21.02 3.61
0 3 8 19.39 1.82
0 3 9 2.97 0.82
0 3 9 3.57 1.52
0 -3 -9 3.96 2.45
0 3 10 168.56 10.33
0 3 10 163.2 7.1
0 -3 -10 158.65 12.19
0 3 11 -0.01 0.84
0 -3 -11 1.22 1.61
0 3 11 -0.02 0.3
0 3 12 21.61 3.41
0 -3 -12 19.92 4.75
0 3 12 20.02 3.81
0 3 12 18.42 2.67
0 3 13 79.79 7.66
0 -3 -13 75.69 9.09
0 3 13 67.14 5.95
0 3 14 1.6 1.06
0 -3 -14 3.38 1.19
0 3 15 15.21 3.65
0 -3 -15 9.97 3.2
0 -3 -16 -0.37 1.91
0 -3 -17 15.46 4.51
0 -3 -18 5.07 2.77
0 -3 -19 4.04 3.3
0 -3 -20 -5.77 3.29
0 -3 -21 -0.95 1.67
0 -4 20 2.76 2.12
0 4 -20 -3.6 2.2
0 -4 19 0 1.2
0 4 -19 -1.58 1.49
0 -4 18 3.13 2.84
0 4 -18 1.66 1.59
0 -4 17 0.98 1.61
0 4 -17 -0.61 1.24
0 4 -16 0.8 1.13
0 -4 16 -0.16 0.95
0 -4 15 9.32 3.54
0 4 -14 43.69 6.14
0 -4 14 38.68 6.8
0 -4 13 12.45 3.9
0 4 -13 14.51 3.26
0 4 -12 5.54 2.21
0 -4 12 6.71 2.61
0 -4 11 14.36 3.78
0 4 -11 17 3.81
0 4 -10 0.46 1.03
0 -4 10 0.71 1.04
0 4 -9 -1.1 1.29
0 -4 9 1.32 0.82
0 4 -8 38.24 6.03
0 -4 8 41.87 6.08
0 -4 7 33.2 5.22
0 4 -7 31.5 5.36
0 -4 6 4.61 1.95
0 4 -6 4.75 2.14
0 4 -5 0.1 1.29
0 4 -4 99.85 9.73
0 4 -3 2.55 0.79
0 4 -2 23.32 4.61
0 4 -1 84.67 8.97
0 4 0 8.87 3.26
0 4 1 0.74 1.1
0 4 2 1.23 0.61
0 4 2 -2 2.18
0 4 3 13.77 1.64
0 4 3 18.24 4.14
0 4 4 1.22 1.26
0 4 4 3.89 0.62
0 -4 -5 85.84 8.56
0 4 5 90.26 8.84
0 4 6 69.16 7.79
0 -4 -6 66.93 7.73
0 4 7 -1.44 1.37
0 -4 -7 -2.73 1.91
0 4 8 0.71 0.68
0 -4 -8 1.57 1.5
0 -4 -9 27.77 5.59
0 4 9 24.23 4.52
0 -4 -10 26.48 5.7
0 4 10 23.25 4.37
0 4 11 10.04 2.9
0 -4 -11 11.52 3.76
0 4 12 16.98 3.58
0 -4 -12 18.16 4.97
0 -4 -13 2.05 1.76
0 4 13 -0.3 1.4
0 -4 -14 -0.26 1.03
0 -4 -15 1.55 1.64
0 -4 -16 -0.2 1.05
0 -4 -17 3.55 3.45
0 -4 -18 1.14 1.51
0 -4 -19 3.9 2.86
0 5 -18 1.55 1.54
0 5 -17 -1.21 1.35
0 -5 15 6.02 3.25
0 5 -14 0.18 0.5
0 -5 14 0.55 1.72
0 5 -13 3.65 1.96
0 5 -12 6.76 2.6
0 5 -11 2.05 1.2
0 5 -10 -0.55 1.24
0 5 -9 3.05 1.85
0 5 -8 0.29 1.17
0 5 -7 1.19 1.2
0 5 -6 12.89 4.02
0 5 -5 2.45 1.84
0 5 -4 -0.9 1.05
0 5 -3 1.15 1.19
0 5 -2 5.78 2.68
0 5 -1 -2.24 1.95
0 5 0 0.14 0.97
0 5 1 34.57 6.23
0 5 2 18.16 4.68
0 5 3 2.94 1.89
0 5 4 0.1 1.17
0 5 5 4.2 1.97
0 5 6 53.12 7.62
0 5 7 5.34 2.19
0 -5 -8 17.53 4.43
0 5 8 16.85 4.17
0 -5 -9 0.55 0.84
0 5 9 0.81 0.66
0 -5 -10 -0.6 1.2
0 5 10 2.04 1.67
0 -5 -11 3.23 2.49
0 5 11 3.28 1.82
0 5 12 1.18 0.99
0 -5 -12 4.14 2.97
0 5 13 3.24 2.2
0 -5 -13 0.36 1.53
0 -5 -14 1.94 1.61
0 -5 -15 -1.11 2.64
0 -5 -16 1.51 3.06
0 -5 -17 -5.88 3.33
0 6 -13 0.98 1.26
0 6 -12 0 1.12
0 6 -11 0 0.75
0 6 -10 1.01 1.77
0 6 -9 -0.15 0.93
0 6 -8 2.46 2.18
0 6 -7 2.88 2.09
0 6 -6 1.46 2.41
0 6 -5 -1.56 1.88
0 6 -4 3.58 2.26
0 6 -3 1.75 1.66
0 6 -2 30.42 6.42
0 6 -1 2.37 1.3
0 6 0 6.85 2.86
0 6 1 47.23 7.79
0 6 2 -0.45 1.63
0 6 3 2.29 0.86
0 6 4 3.9 1.32
0 6 5 -1.72 1.07
0 6 6 6.61 2.67
0 6 7 0.81 2.03
0 6 8 -0.08 1.14
0 6 9 0.05 1
0 6 10 -0.36 1.14
0 6 11 0.04 0.59
0 6 12 1.19 1.62
0 -6 -12 4.83 2.93
0 -6 -13 1.57 1.92
0 -6 -14 1.15 1.81
0 7 -10 0 1.6
0 7 -9 0 1.73
0 7 -8 -4.8 2.95
0 7 -7 0 2
0 7 -6 0.66 1.28
0 7 -5 2.26 2.18
0 7 -4 0.03 1.23
0 7 -3 7.75 3.22
0 7 -2 0.32 0.95
0 7 -1 11.06 4.3
0 7 0 1.53 2.66
0 7 1 2.28 2.75
0 7 2 4.15 3.02
0 7 3 2.11 2.1
0 7 4 0.47 0.96
0 7 5 -4.48 2.69
0 7 6 1.11 1.42
0 7 7 0.97 1.36
0 7 8 0 1.11
-1 7 8 -3.57 2.53
-1 7 7 0.79 1.34
-1 7 6 -0.51 1.17
-1 7 5 1.71 1.8
-1 7 4 0.48 1.57
-1 7 3 2.79 2.32
-1 7 2 0.43 1.65
-1 7 1 3.2 2.8
-1 7 0 -0.46 1.66
-1 7 -1 11.15 4.51
-1 7 -2 7.34 4.24
-1 7 -3 0.61 1.97
-1 7 -4 -2.16 2.15
-1 7 -5 -0.01 1.7
-1 7 -6 0 1.39
-1 7 -7 3.28 2.62
-1 7 -8 0 1.69
-1 7 -9 0 1.39
1 -6 -14 0.25 1.57
1 -6 -13 0 1.66
-1 6 12 -0.53 1.36
1 -6 -12 1.5 1.66
-1 6 11 0.06 0.93
-1 6 10 -0.13 0.75
-1 6 9 0.67 1.55
-1 6 8 0.98 1.67
-1 6 7 0.56 1.3
-1 6 6 3.2 1.84
-1 6 5 2.5 1.95
-1 6 4 4.35 1.95
-1 6 3 7.08 3.25
-1 6 2 -1.04 1.14
-1 6 1 5.19 2.31
-1 6 0 1.87 1.91
-1 6 -1 1.79 2.26
-1 6 -2 1.72 1.9
-1 6 -3 0.18 0.81
-1 6 -4 -1.74 1.72
-1 6 -5 -1.04 1.07
-1 6 -6 -2.82 2.47
-1 6 -7 3.3 1.99
-1 6 -8 0.11 1.08
-1 6 -9 1.73 2.68
-1 6 -10 0.01 1.46
-1 6 -11 0 1.72
-1 6 -12 0 1.04
-1 6 -13 -1.06 1.38
1 -5 -17 1.43 1.76
1 -5 -16 1.54 1.94
1 -5 -15 -0.02 1.81
1 -5 -14 2.26 2.32
-1 5 13 -1.45 1.59
1 -5 -13 -0.22 1.48
1 -5 -12 0.49 1.07
-1 5 12 1.39 1.5
1 -5 -11 0.42 1.89
-1 5 11 2.03 1.94
-1 5 10 0.25 1.41
1 -5 -10 -0.37 1.43
-1 5 9 -0.55 1.45
1 -5 -9 1.76 1.49
-1 5 8 11.27 3.58
1 -5 -8 12.85 3.58
-1 5 7 23.88 5.11
-1 5 6 5.75 2.48
-1 5 5 6.58 2.62
-1 5 4 -2.47 2.14
-1 5 3 10.15 3.33
-1 5 2 2.87 1.95
-1 5 1 15.29 4.42
-1 5 0 2.32 1.6
-1 5 -1 2.13 2.06
-1 5 -2 15.25 4.29
-1 5 -3 -1.49 1.84
-1 5 -4 6.13 2.96
-1 5 -5 0.96 1.76
-1 5 -6 29.86 6.09
-1 5 -7 33.37 6.54
-1 5 -8 2.07 1.73
-1 5 -9 2.16 2.12
-1 5 -10 -0.55 1.72
-1 5 -11 0.28 1.37
-1 5 -12 1.43 1.11
-1 5 -13 5.73 2.66
-1 5 -14 7.08 2.91
-1 5 -15 0 0.79
-1 5 -16 5.85 2.88
-1 5 -17 2.6 2
-1 5 -18 -2.47 1.99
1 -4 -19 -6.41 3.34
1 -4 -18 0.3 1.24
1 -4 -17 2.02 1.95
1 -4 -16 0.64 1.3
1 -4 -15 2.75 1.9
1 -4 -14 8.26 3.21
-1 4 13 -0.68 1.13
1 -4 -13 1.64 1.39
-1 4 12 31.07 5.41
1 -4 -12 25.08 5.55
-1 4 11 36 5.8
1 -4 -11 29.45 5.69
-1 4 10 66.92 7.9
1 -4 -10 54.19 7.47
1 -4 -9 1.29 1.44
-1 4 9 4.39 2.1
1 -4 -8 2.46 1.59
-1 4 8 0.9 1.32
-1 4 7 16.17 3.69
1 -4 -7 20.76 4.15
1 -4 -6 24.95 4.52
-1 4 6 24.73 4.74
1 -4 -5 54.6 6.41
-1 4 5 65.76 7.52
-1 4 4 41.59 6
-1 4 3 9.7 3.01
-1 4 2 39.21 5.91
-1 4 1 0.53 1.64
-1 4 0 31.46 5.47
-1 4 -1 37.06 5.87
-1 4 -2 0.18 1.67
-1 4 -3 31.87 5.47
-1 4 -4 -0.5 1.71
-1 4 -5 1.55 1.06
-1 4 -6 -1.49 1.67
-1 4 -7 8.12 3.34
-1 4 -8 7.96 2.9
-1 4 -9 0.36 0.88
-1 4 -10 1.02 1.63
-1 4 -11 -1.26 1.18
-1 4 -12 6.19 2.25
-1 4 -13 -0.9 1.23
-1 4 -14 1.86 1.52
-1 4 -14 2.64 1.78
-1 4 -15 -0.77 1.43
-1 4 -16 0.2 0.65
-1 4 -17 -0.69 1.07
-1 4 -18 -2.74 1.96
-1 4 -19 -0.21 0.68
-1 4 -20 0 1.57
1 -3 -21 4.07 2.8
1 -3 -20 1.47 2.37
1 -3 -19 6.2 3.29
1 -3 -18 2.54 1.83
1 -3 -17 10.2 3.63
1 -3 -16 4.93 2.47
1 -3 -15 -3.24 2.09
-1 3 14 23.12 3.99
1 -3 -14 20.59 4.73
1 -3 -13 74.65 8.87
-1 3 13 98.18 8.12
-1 3 13 92.34 7.95
-1 3 12 181.88 11.2
-1 3 12 172.3 8.88
-1 3 12 170.39 10.47
1 -3 -12 141.41 11.9
-1 3 11 41.78 4.09
-1 3 11 43.93 5.46
-1 3 11 43.32 5.08
1 -3 -11 33.66 5.46
1 -3 -10 72.7 7.76
-1 3 10 85.09 5.81
-1 3 10 82.53 7.59
-1 3 10 92.91 7.34
-1 3 9 0.04 0.68
1 -3 -9 -0.4 0.76
-1 3 9 0.97 0.74
-1 3 8 15.86 3.42
1 -3 -8 13.75 3.14
1 -3 -7 7.48 2.25
1 -3 -6 49.22 5.44
1 -3 -6 39.7 5.11
1 -3 -5 6.09 1.93
1 -3 -5 8.44 2.36
1 -3 -4 5.55 2.09
1 -3 -4 5.11 1.98
1 -3 -3 1.5 0.53
1 -3 -3 -1.1 1
1 -3 -2 -1.23 1.44
1 -3 -1 15.07 3.15
1 -3 0 58.3 6.28
1 -3 1 47.82 5.47
1 -3 2 1.67 1.31
1 -3 3 2.29 0.97
1 -3 4 10.38 2.58
1 -3 5 -0.31 0.87
1 -3 6 -0.8 0.94
-1 3 -9 -1.47 1.39
-1 3 -10 5.9 2.4
-1 3 -11 96.75 8.51
-1 3 -12 -2.33 1.5
-1 3 -12 1.11 1.35
-1 3 -13 0.28 0.76
-1 3 -13 0.44 0.73
-1 3 -14 0.22 0.78
-1 3 -14 1.77 1.06
-1 3 -15 0.74 0.81
-1 3 -16 4.36 2.43
-1 3 -17 1.38 1.86
-1 3 -18 0.61 0.95
-1 3 -19 4.79 2.89
-1 3 -20 0.04 0.69
-1 3 -21 2.47 2.04
1 -2 -22 1.86 3.11
1 -2 -21 1.37 2.17
1 -2 -20 2.03 2.04
1 -2 -19 5.42 2.02
-1 2 19 6.67 2.81
-1 2 18 35.95 6.16
1 -2 -18 36.82 7.37
1 -2 -17 -0.59 1.32
-1 2 17 -0.64 1.21
-1 2 16 10.28 2.98
1 -2 -16 3.66 1.89
-1 2 15 5.3 2.33
-1 2 15 6.18 1.81
1 -2 -15 6.94 2.65
-1 2 14 59.59 7.06
-1 2 14 62.76 5.84
1 -2 -14 56.39 7.77
-1 2 13 2.34 1.23
-1 2 13 1.17 0.88
1 -2 -13 -0.17 0.98
-1 2 13 0.91 0.57
-1 2 12 2.92 1
-1 2 12 4.98 1.99
-1 2 12 3.82 1.36
1 -2 -12 1.74 1.4
-1 2 11 2.81 1.07
-1 2 11 2.69 0.88
1 -2 -11 3.18 1.98
-1 2 11 1.87 1.12
-1 2 10 -0.73 0.67
-1 2 10 0.56 0.58
1 -2 -10 -0.38 0.72
1 -2 -9 35.04 4.84
1 -2 -9 34.1 3.78
-1 2 9 44.85 4.9
-1 2 9 38.76 3.39
1 -2 -8 53.59 4.79
1 -2 -8 61.42 6.04
-1 2 8 74.16 6.13
-1 2 8 73.55 4.34
1 -2 -7 3.69 1.38
1 -2 -7 2.58 1.07
-1 2 7 6.26 1.14
1 -2 -6 0.3 0.38
1 -2 -6 3.17 1.55
1 -2 -5 221.5 9.99
1 -2 -5 217.42 9.97
1 -2 -4 19.32 2.66
1 -2 -4 18.24 2.66
1 -2 -3 91.09 6.35
1 -2 -3 104.22 5.93
1 -2 -2 15.44 2.5
1 -2 -2 20.3 2.49
1 -2 -1 43.63 4.43
-1 2 1 47.03 4
-1 2 0 247.56 9.34
-1 2 0 245.38 8.8
1 -2 0 217.38 10.38
1 -2 1 425.75 15.14
1 -2 2 203.14 9.79
1 -2 3 349.96 13.5
1 -2 4 14.98 2.51
1 -2 5 0.84 0.95
1 -2 6 424.46 17.01
1 -2 6 449.89 15.56
1 -2 7 213.7 12.17
1 -2 7 221.19 10.45
1 -2 8 36.51 3.98
1 -2 8 40.17 5.61
1 -2 9 -0.57 0.94
1 -2 9 0.28 0.72
1 -2 9 0.16 0.58
-1 2 -9 -0.69 1.61
-1 2 -10 -0.15 1.19
1 -2 10 2.1 1.7
1 -2 10 0.28 0.78
1 -2 10 -0.74 0.7
1 -2 11 4.41 1.64
1 -2 11 6.09 2.29
-1 2 -11 4.96 1.92
-1 2 -11 7.78 1.89
1 -2 12 1.16 1.39
-1 2 -12 1.48 1.28
1 -2 12 -0.11 0.96
-1 2 -12 -0.11 0.33
1 -2 13 6.78 2.51
1 -2 13 10.28 3.28
-1 2 -13 9.4 2
-1 2 -13 8.54 3.26
-1 2 -14 -3.29 1.98
1 -2 14 1.02 1.76
1 -2 14 -0.09 0.96
-1 2 -15 6.16 2.95
1 -2 15 2.77 1.55
1 -2 16 0.16 0.75
-1 2 -16 -0.58 1.36
1 -2 17 9.84 3.33
-1 2 -17 6.51 2.65
1 -2 18 -0.07 0.99
-1 2 -18 0.65 1.46
-1 2 -19 4.68 2.49
1 -2 19 3.9 2.33
-1 2 -20 0.49 0.94
-1 2 -21 0.02 0.81
-1 2 -22 -3.08 2.34
1 -1 -23 8.49 4.33
-1 1 23 1.35 1.98
1 -1 -22 6.5 4.07
-1 1 22 1.2 0.88
1 -1 -21 0.15 2.05
-1 1 21 3.87 2.56
1 -1 -20 -2.59 2.53
-1 1 20 -2.46 2.05
1 -1 -19 4.67 3.06
-1 1 19 1.22 1.69
1 -1 -18 22.63 5.62
-1 1 18 18.39 4.61
-1 1 17 -0.09 1.11
1 -1 -17 -1.58 1.73
-1 1 16 6.37 2.7
1 -1 -16 9.63 3.9
-1 1 15 1.48 0.59
-1 1 15 2.06 1.43
1 -1 -15 3.13 2.61
-1 1 14 10.76 2.54
1 -1 -14 11.85 3.59
-1 1 14 11.08 2.92
-1 1 13 1.82 0.53
-1 1 13 2.36 1.32
1 -1 -13 1.11 1.06
-1 1 13 2.01 0.56
-1 1 13 2.21 1.29
1 -1 -12 17.53 3.74
-1 1 12 16.36 3.4
-1 1 12 21.98 2.1
-1 1 12 19.28 2.9
-1 1 11 0.84 0.48
1 -1 -11 0.88 0.87
-1 1 11 2.64 1.01
-1 1 11 1.39 1.03
1 -1 -11 2.37 0.74
-1 1 10 -0.17 0.41
1 -1 -10 -0.61 1.14
-1 1 10 -0.87 0.65
-1 1 10 -0.24 0.29
1 -1 -10 0.47 0.42
-1 1 9 261.61 12.7
-1 1 9 248.01 9.2
-1 1 9 226.59 8.62
1 -1 -9 216.02 8.04
1 -1 -9 243.6 12.41
-1 1 8 10.71 1.59
-1 1 8 7.65 1.47
1 -1 -8 8.35 1.34
1 -1 -8 9.37 2.41
-1 1 8 9.65 2.2
1 -1 -7 59.17 3.96
-1 1 7 66.28 3.57
-1 1 7 73.85 5.8
1 -1 -7 65.39 5.22
-1 1 6 5.28 0.83
1 -1 -6 4.09 1.23
1 -1 -6 5.76 1.21
-1 1 5 7.68 0.79
1 -1 -5 9.07 1.72
1 -1 -5 8.08 1.43
1 -1 -4 27.21 2.53
-1 1 4 30.45 2.85
1 -1 -4 28.54 3.01
-1 1 3 0.3 0.32
1 -1 -3 -1.12 0.95
1 -1 -3 -0.92 1.12
-1 1 2 185.28 6.39
1 -1 -2 169.13 5.58
1 -1 -2 183.99 7.81
1 -1 -1 3144.74 52.19
-1 1 1 3050.24 52.68
1 -1 -1 3198.04 52.73
1 -1 -1 3174.31 57.79
-1 1 1 3189.83 52.59
-1 1 0 2057.91 39.07
1 -1 0 1956.19 38.93
-1 1 0 1920.33 35.23
-1 1 0 1934.66 34
1 -1 0 1967.49 35.32
1 -1 1 855.06 19.35
1 -1 1 846.9 20.84
-1 1 -1 878.3 20.88
-1 1 -1 888.99 19
1 -1 2 5245.63 89.66
-1 1 -2 5263.44 88.62
1 -1 2 5012.66 89.08
1 -1 3 994.11 23.01
1 -1 3 988.34 23.81
-1 1 -4 449.06 13.37
1 -1 4 433.59 13.07
1 -1 4 406.21 14.18
1 -1 5 889.21 21.08
-1 1 -5 898.28 22.91
1 -1 5 856.62 23.94
-1 1 -6 154.54 8.55
1 -1 6 152.49 6.91
1 -1 6 151.4 9.08
1 -1 7 17.94 2.18
1 -1 7 12.86 2.33
1 -1 7 16.99 2.9
-1 1 -7 16.82 2.94
-1 1 -8 18.03 3.26
1 -1 8 15.91 2.04
1 -1 8 20.39 4.01
1 -1 8 15.3 3.14
-1 1 -8 9.27 1.74
-1 1 -9 233.49 12.63
1 -1 9 214.51 7.8
1 -1 9 200.71 11.33
1 -1 9 225.52 12.76
1 -1 10 143.93 10.07
-1 1 -10 161.2 11.08
1 -1 10 169.23 11.42
1 -1 10 151.66 6.15
-1 1 -11 1.68 0.89
1 -1 11 -0.88 1.81
-1 1 -11 4.01 2.2
1 -1 11 1.11 0.45
1 -1 11 3.01 1.62
1 -1 12 12.81 3.36
-1 1 -12 14.6 3.38
1 -1 12 14.59 3.49
-1 1 -13 51.12 3.27
-1 1 -13 49.34 7.42
1 -1 13 48.16 6.4
1 -1 13 49.06 6.88
1 -1 14 1.19 0.79
-1 1 -14 3.82 2.41
1 -1 14 2.44 1.46
1 -1 15 0.04 1.32
-1 1 -15 -0.61 1.53
1 -1 15 -0.15 0.69
1 -1 16 2.64 2.05
-1 1 -16 -0.83 1.42
1 -1 16 -2.72 2.18
1 -1 17 -1.37 0.67
-1 1 -17 -0.77 0.88
1 -1 17 -1.51 2.01
1 -1 18 -0.42 1.07
-1 1 -18 2.62 2.12
1 -1 18 -0.55 0.98
1 -1 19 4.22 2.6
1 -1 19 4.51 2.49
-1 1 -19 4.13 2.33
1 -1 20 -0.45 0.71
-1 1 -20 1.78 1.6
1 -1 20 1.45 1.48
1 -1 21 -0.94 1.35
-1 1 -21 2.05 1.22
-1 1 -22 0.96 2.36
-1 1 -23 0 1.3
-1 0 23 0.05 0.95
1 0 -23 1.05 2.09
-1 0 22 1.25 1.55
1 0 -22 0.69 1.61
-1 0 21 0.51 1.07
1 0 -21 4.43 2.4
1 0 -20 11.32 4.06
-1 0 20 6.55 2.95
-1 0 19 3.38 2.06
1 0 -19 5.8 3.2
-1 0 18 10.21 3.39
1 0 -18 16.34 4.83
1 0 -17 14.87 4.22
-1 0 17 15.27 3.99
-1 0 16 3.09 1.82
1 0 -16 3.28 2.49
-1 0 15 -1.88 1.65
1 0 -15 0.39 1.2
-1 0 14 61.54 7.52
1 0 -14 67.96 8.55
-1 0 13 -0.29 1.09
1 0 -13 3.08 2.17
1 0 -12 -0.12 1.43
-1 0 12 1.01 0.69
-1 0 11 20.43 1.56
1 0 -11 44.54 5.9
1 0 -11 39.55 2.34
-1 0 11 36.59 2.06
-1 0 11 36.84 5
-1 0 10 4.63 0.84
1 0 -10 13.24 2.92
-1 0 10 10.15 2.24
-1 0 9 128.62 4.96
1 0 -9 140.01 9.36
-1 0 9 120.29 8.31
-1 0 8 264.99 9.62
-1 0 8 344.14 14.65
1 0 -8 349.39 9.83
-1 0 8 351.13 9.81
1 0 -8 355.01 14.77
1 0 -7 260.23 11.69
-1 0 7 190.34 7.93
-1 0 7 248.37 11.63
1 0 -7 267.5 8.7
-1 0 7 270.88 8.36
1 0 -6 827.96 18.78
1 0 -6 847.01 22.46
1 0 -6 813.56 19.38
-1 0 6 838.71 19.12
-1 0 6 805.82 22.41
-1 0 6 839.3 18.54
1 0 -5 6.87 1.16
1 0 -5 8.77 1.74
1 0 -5 9.44 1.59
-1 0 5 6.21 1.19
-1 0 5 9.83 2.3
-1 0 5 6.21 1.2
-1 0 4 48.07 3.22
1 0 -4 48.53 3.23
1 0 -4 56.66 3.89
-1 0 3 1081.91 22.4
1 0 -3 1084.39 22.46
-1 0 2 765.47 17.29
1 0 -2 780.72 17.22
1 0 -1 7.78 1.83
1 0 1 9.16 1
-1 0 -1 12.05 1.05
1 0 1 12.71 1.61
1 0 2 165.68 5.74
-1 0 -2 192.1 6.05
1 0 2 186.08 6.6
1 0 3 4.13 1.02
1 0 3 3.45 0.91
-1 0 -3 5.78 1.16
-1 0 -3 4.13 1.03
1 0 4 600.54 17.24
1 0 4 592.25 15.39
-1 0 -4 633.63 16.3
-1 0 -4 618.89 14.97
1 0 4 613.51 14.52
-1 0 -4 619.08 16.04
1 0 5 675.9 15.28
-1 0 -5 619.68 15.45
-1 0 -5 652.74 15.78
-1 0 -5 649 17.71
1 0 5 658.68 19.19
-1 0 -6 1.31 0.69
1 0 6 1.58 1.69
-1 0 -6 3.21 1.09
1 0 6 1.62 0.85
-1 0 -6 2.78 1.4
-1 0 -7 90.98 6.6
1 0 7 96.74 7.11
-1 0 -7 102.83 5.31
-1 0 -7 81.02 4.22
1 0 7 87.58 4.22
1 0 7 84.74 5.77
-1 0 -8 124.31 6.07
-1 0 -8 133.71 5.46
1 0 8 127.11 7.59
-1 0 -8 134.36 8.72
1 0 8 138.36 8.88
-1 0 -9 41.6 5.28
-1 0 -9 20.85 2.33
-1 0 -9 38.66 2.7
1 0 9 39.87 4.44
1 0 9 44.15 5.09
1 0 10 3.09 0.74
1 0 10 1.88 1.18
1 0 10 4.03 1.94
-1 0 -10 1.35 1.51
-1 0 -10 0.18 0.42
1 0 11 0.13 1.13
-1 0 -11 3.3 1.68
1 0 11 -0.17 0.62
-1 0 -11 0.55 0.35
1 0 11 0.95 0.35
-1 0 -11 1.23 0.52
1 0 12 6.08 2.47
-1 0 -12 5.24 2.39
1 0 12 3.78 1.76
1 0 13 36.42 6.02
-1 0 -13 36.88 6.05
1 0 13 25.67 4.56
1 0 14 2.65 1.85
-1 0 -14 2.66 1.83
1 0 14 2.66 1.8
-1 0 -15 91.7 10.41
1 0 15 64.44 7.49
1 0 15 85.17 9.92
1 0 16 14.46 4.21
1 0 16 11.3 3.25
-1 0 -16 15.92 4.84
1 0 17 1.55 1.95
-1 0 -17 3.86 2.36
1 0 17 2.14 1.56
1 0 18 4.33 2.36
-1 0 -18 4.4 2.53
1 0 18 5.33 2.34
1 0 19 -2.8 2.71
-1 0 -19 0.86 2.23
1 0 19 -1.24 1.38
1 0 20 -2.99 1.95
-1 0 -20 -0.08 1.64
1 0 20 -0.26 0.79
-1 0 -21 -0.36 2.35
1 0 21 1.6 2.11
1 0 22 1.76 1.38
-1 0 -22 3.89 3.75
-1 0 -23 0.01 2.71
1 0 23 -0.77 1.16
-1 -1 23 4.34 3.15
1 1 -23 1.47 2.62
-1 -1 22 0.6 1.85
1 1 -22 -0.53 1.56
-1 -1 21 -0.78 1.2
1 1 -21 1.71 1.77
1 1 -20 2.83 2.36
-1 -1 20 5.52 2.77
1 1 -19 15.92 4.47
-1 -1 19 16.35 4.71
1 1 -18 5.33 2.92
-1 -1 18 1.1 0.82
1 1 -17 2.15 0.88
-1 -1 17 1.36 1.48
1 1 -16 5.31 2.35
-1 -1 16 5.15 2.46
1 1 -15 37.12 6.17
-1 -1 15 39.81 6.16
1 1 -14 7.69 2.67
-1 -1 14 8.1 2.75
1 1 -13 4.14 0.93
-1 -1 13 3.56 0.91
1 1 -13 1.53 1.46
-1 -1 12 -1.67 1.97
1 1 -12 1.21 0.99
1 1 -11 69.11 7.26
-1 -1 11 68.82 7.03
1 1 -11 75.17 4.55
-1 -1 11 42.32 3.38
1 1 -10 50.81 3.91
-1 -1 10 48.91 5.73
1 1 -10 40.52 5.27
-1 -1 10 31.89 2.96
1 1 -10 37.73 3.58
1 1 -9 0.74 0.65
1 1 -9 2.99 1.82
-1 -1 9 0.7 1.01
-1 -1 9 1.12 0.57
1 1 -9 1.74 0.92
-1 -1 8 84.07 4.72
-1 -1 8 73.55 6.32
1 1 -8 95.84 6.02
1 1 -8 49.9 4.04
-1 -1 8 66.69 4.38
1 1 -7 11.73 1.93
1 1 -7 28.9 3.24
-1 -1 7 21.23 2.44
-1 -1 7 22.29 3.34
-1 -1 7 24.78 2.54
1 1 -6 194.53 8.62
-1 -1 6 167.22 7.01
-1 -1 6 144.3 8.31
-1 -1 6 157.59 6.84
-1 -1 5 320.28 12.75
-1 -1 5 313.96 10.58
1 1 -5 341.03 11.07
1 1 -5 344.29 11.72
-1 -1 5 320.11 10.82
-1 -1 4 1769.11 36.28
1 1 -4 1895.12 36.78
1 1 -4 1880.1 37.55
-1 -1 4 1835.77 36.8
-1 -1 4 1824.33 38.92
-1 -1 3 72.06 4.93
1 1 -3 85.49 4.81
1 1 -3 74.44 4.79
-1 -1 3 75.52 4.74
-1 -1 3 84.53 4.84
1 1 -2 128.41 6.44
-1 -1 2 137.49 6.5
1 1 -2 143.83 6.35
-1 -1 2 128.08 6.47
-1 -1 2 138.34 6.29
-1 -1 1 1249.88 26.98
1 1 -1 1218.43 26.72
-1 -1 1 1297.36 27.02
1 1 -1 1282.16 26.57
1 1 0 693.21 17.82
1 1 0 707.81 16.81
1 1 0 730.62 17.53
-1 -1 0 726.72 18.09
-1 -1 0 713.89 17.97
1 1 1 355.02 11.67
-1 -1 -1 236.45 9.65
-1 -1 -1 214.79 8.85
1 1 1 241.76 8.85
1 1 1 275.19 10.3
-1 -1 -1 306.94 10.68
-1 -1 -2 3.23 1.84
1 1 2 7.39 0.78
-1 -1 -2 -4.26 2.73
-1 -1 -2 12.95 1.83
1 1 2 13.82 1.56
1 1 2 6.76 1.97
-1 -1 -3 616.47 16.73
-1 -1 -3 594.21 16.74
1 1 3 622.95 15.66
1 1 3 629.61 16.46
-1 -1 -3 649.36 16.75
1 1 4 7.32 1.39
-1 -1 -4 6.33 1.44
1 1 4 6.29 1.08
-1 -1 -4 3.55 0.79
-1 -1 -4 6.44 1.02
-1 -1 -4 7.38 1.53
1 1 5 757.61 19.2
-1 -1 -5 699.79 20.58
1 1 5 693.48 17.64
-1 -1 -5 733.06 18.77
-1 -1 -5 697.4 18.72
-1 -1 -5 733.61 17.94
1 1 6 6.36 1.19
-1 -1 -6 5.2 1.25
-1 -1 -6 0.59 1.23
-1 -1 -6 3.3 1.06
-1 -1 -6 6.58 1.43
1 1 6 4.4 1.21
-1 -1 -7 58.52 4.55
-1 -1 -7 56.97 5.71
1 1 7 62.63 4.14
1 1 7 68.82 4.8
-1 -1 -7 62.31 4.67
1 1 8 63.22 4.31
-1 -1 -8 68.44 4.8
1 1 8 66.32 6
1 1 8 68.01 4.74
-1 -1 -8 49.25 4.28
-1 -1 -8 63.23 6.17
1 1 9 4.51 1.43
-1 -1 -9 4.66 1.56
1 1 9 4.77 1.14
-1 -1 -9 1.56 0.77
1 1 9 4.7 1.18
1 1 9 5.68 1.88
1 1 10 62.75 6.65
1 1 10 66.19 4.25
-1 -1 -10 66.03 7.03
-1 -1 -10 38.44 3.59
1 1 10 56.89 4.92
-1 -1 -11 50.83 3.99
1 1 11 59.4 5.42
1 1 11 65.97 7.02
-1 -1 -11 73.61 7.88
1 1 12 20.67 3.13
-1 -1 -12 23.45 5.15
1 1 12 24.12 4.17
1 1 12 26.49 2.21
1 1 12 12.83 1.6
-1 -1 -13 109.72 10.81
1 1 13 107.94 4.29
1 1 13 92.61 7.54
1 1 13 103.44 9.45
1 1 14 18.56 3.92
-1 -1 -14 17.96 4.17
1 1 14 17.86 3.28
-1 -1 -15 14.95 4.26
1 1 15 9.63 2.41
1 1 15 16.23 3.94
1 1 16 1.86 0.64
-1 -1 -16 7.29 3.27
1 1 16 2.73 1.28
-1 -1 -17 27.59 6.3
1 1 17 25.28 4.49
1 1 17 25.33 5.43
1 1 18 -0.23 1.88
-1 -1 -18 2.68 2.73
1 1 18 0.63 0.57
1 1 19 -0.03 1.03
-1 -1 -19 2.65 2.98
1 1 20 8.21 3.06
-1 -1 -20 16.22 5.78
-1 -1 -21 0.69 2.33
1 1 21 -2.04 1.9
1 1 22 -1.26 1.42
-1 -1 -22 -1.32 1.94
1 1 23 0.95 1.25
-1 -1 -23 13.02 5.54
1 2 -22 0.47 1.03
-1 -2 22 -0.99 1.37
1 2 -21 1.63 1.81
-1 -2 21 2.55 1.83
1 2 -20 1.81 1.38
-1 -2 20 4.65 2.69
1 2 -19 -0.35 1.45
-1 -2 19 1.45 1.85
1 2 -18 -0.91 1.42
-1 -2 18 0.78 1.31
1 2 -17 0.32 1.14
-1 -2 17 -1.29 1.49
-1 -2 16 7.26 2.85
1 2 -16 9.14 3.19
1 2 -15 2.41 1.61
-1 -2 15 -0.28 0.66
1 2 -14 4.61 1.77
-1 -2 14 4.45 2.18
1 2 -14 1.35 1.07
1 2 -13 10.91 2.59
1 2 -13 28.67 4.45
-1 -2 13 15.69 3.86
-1 -2 12 8.69 2.61
1 2 -12 9.73 2.55
-1 -2 11 15.89 3.61
1 2 -11 16.83 3.15
-1 -2 10 -0.07 1.12
1 2 -10 1.77 1.07
-1 -2 9 383.94 17.82
1 2 -9 388.45 15.19
-1 -2 8 119.08 8.8
1 2 -8 121.89 7.72
-1 -2 7 253.62 12.98
1 2 -7 238.03 11.12
1 2 -6 560.05 18.38
-1 -2 6 577.69 19.64
1 2 -5 -1.69 1.17
-1 -2 5 0.97 0.91
1 2 -4 641.55 19.49
-1 -2 4 629.12 18.97
-1 -2 3 87.52 5.81
1 2 -3 100.69 6.66
1 2 -2 270.18 11.52
-1 -2 2 270.42 9.98
-1 -2 1 15.15 1.9
-1 -2 1 13.54 2.15
1 2 -1 16.36 2.41
-1 -2 0 153.14 8.66
-1 -2 0 141.76 5.64
1 2 0 155.1 8.3
-1 -2 -1 81.53 6.26
-1 -2 -1 80.69 3.57
1 2 1 76.96 5.82
-1 -2 -2 11.18 1.02
1 2 2 10.32 1.97
-1 -2 -2 12.15 2.36
1 2 3 182.97 8.96
-1 -2 -3 192.25 10.46
-1 -2 -4 282.1 12.79
1 2 4 246.22 10.67
1 2 5 19.84 2.72
-1 -2 -5 22.11 3.88
-1 -2 -6 375.91 15.57
1 2 6 318 11.42
-1 -2 -7 42.44 5.24
-1 -2 -7 23.92 2.36
1 2 7 38.13 3.73
1 2 8 13.29 2.18
-1 -2 -8 19.2 3.84
-1 -2 -8 9.33 1.68
-1 -2 -9 181.62 12.29
-1 -2 -9 149.56 7.82
1 2 9 159.06 8.25
-1 -2 -10 4.06 0.97
1 2 10 6.05 1.55
-1 -2 -11 -0.7 1
1 2 11 1.3 1.57
1 2 11 0.83 0.56
1 2 12 1.99 0.61
1 2 12 3.05 1.49
-1 -2 -12 5.94 3.11
-1 -2 -13 49.18 7.23
1 2 13 47.52 6.28
1 2 13 49.96 4.66
1 2 14 23.61 4.47
-1 -2 -14 23.62 5.13
-1 -2 -15 23.45 5.27
1 2 15 26.94 5.12
1 2 16 -0.68 1.26
-1 -2 -16 -2.78 2.37
-1 -2 -17 21.21 5.54
1 2 17 16.93 4.25
1 2 18 1.77 0.58
-1 -2 -18 2.96 2.59
1 2 19 0.2 1.34
-1 -2 -19 1.71 2.29
-1 -2 -20 1.56 1.17
1 2 20 3.54 2.34
-1 -2 -21 1.7 1.18
-1 -2 -22 -8.22 4.31
1 3 -21 0.27 0.77
-1 -3 21 1.54 1.69
1 3 -20 1.7 1.55
-1 -3 20 2.91 2.85
1 3 -19 0.24 1.08
-1 -3 19 2.61 2.02
-1 -3 18 -1.43 1.4
1 3 -18 -0.93 1.06
1 3 -17 0.06 0.81
-1 -3 17 -0.08 0.68
1 3 -16 -3.66 2.04
-1 -3 16 3.1 2.62
1 3 -15 3.54 1.64
-1 -3 15 8.74 3.34
1 3 -14 5.98 2.24
-1 -3 14 4.12 1.85
-1 -3 13 68.29 8.44
1 3 -13 85.38 8.12
-1 -3 12 106.65 10.59
1 3 -12 117.06 9.34
1 3 -11 80.75 7.48
-1 -3 11 83.11 8.9
1 3 -10 12.98 3.06
-1 -3 10 13.7 3.51
1 3 -9 14.84 3.17
-1 -3 9 14.36 3.43
1 3 -8 7.01 2.24
-1 -3 8 5.3 1.87
1 3 -7 9.49 2.44
-1 -3 7 10.2 2.61
1 3 -6 10.33 2.66
-1 -3 6 12.46 2.8
1 3 -5 117.43 9.09
-1 -3 5 119.73 8.44
-1 -3 4 5.31 1.54
1 3 -4 5.1 1.58
-1 -3 3 26.37 3.49
1 3 -3 27.92 4.4
1 3 -2 1.64 1.77
-1 -3 2 -0.29 0.73
-1 -3 1 13 2.07
1 3 -1 10.91 2.81
1 3 0 3.23 1.76
-1 -3 0 3.55 1.08
1 3 1 66.58 6.68
-1 -3 -1 75.66 4.34
1 3 2 7.05 1.99
1 3 3 3.58 1.96
1 3 4 270.97 14
-1 -3 -4 304.5 15.31
-1 -3 -5 2.04 1.11
1 3 5 0.27 0.88
-1 -3 -6 16.64 4.01
1 3 6 11.71 2.54
-1 -3 -7 0.65 1.87
1 3 7 -1.47 1.04
1 3 8 8.79 2.16
-1 -3 -8 10.39 3.11
1 3 9 14.8 2.69
-1 -3 -9 21.14 4.67
1 3 10 7.16 2.07
-1 -3 -10 3.03 1.63
-1 -3 -11 8.15 2.98
1 3 11 8.86 1.98
-1 -3 -12 24.06 5.2
1 3 12 15.62 2.91
1 3 13 1.33 0.54
-1 -3 -13 2.95 1.96
1 3 13 4.24 2.2
-1 -3 -14 -9 3.61
1 3 14 -0.64 1.22
1 3 15 0.73 0.71
-1 -3 -15 2.14 1.72
1 3 16 0.26 1.39
-1 -3 -16 4.2 2.86
1 3 17 1.27 1.45
-1 -3 -17 3.48 2.92
1 3 18 4.37 2.04
-1 -3 -18 1.87 1.59
-1 -3 -19 5.2 3.26
-1 -3 -20 0.69 1.5
-1 -3 -21 2.17 2.31
1 4 -20 0 0.64
-1 -4 20 -3.93 2.62
-1 -4 19 -0.23 0.86
1 4 -19 -2.01 1.59
1 4 -18 4.19 1.95
-1 -4 18 2.94 2.21
1 4 -17 5.94 2.23
-1 -4 17 4.94 3.1
-1 -4 16 5 2.82
-1 -4 15 34.31 6.81
1 4 -14 -0.89 0.75
-1 -4 14 0.21 0.85
1 4 -13 6.37 2.12
-1 -4 13 11.5 3.68
1 4 -12 0.44 0.57
-1 -4 12 1.53 1.2
-1 -4 11 4.84 2.29
1 4 -11 1.9 1.45
-1 -4 10 1.4 1.87
1 4 -10 -0.87 1.16
1 4 -9 -0.07 0.86
-1 -4 9 0.9 1.2
1 4 -8 3.72 2.05
-1 -4 8 2.04 1.09
1 4 -7 -1.17 1.48
-1 -4 7 0.32 0.92
1 4 -6 -1.22 1.91
-1 -4 6 0.4 0.6
1 4 -5 8.51 2.97
-1 -4 5 7.26 2.13
-1 -4 4 14.4 3.15
1 4 -4 12.35 3.19
-1 -4 3 3.51 1.51
1 4 -3 2.76 2.04
1 4 -2 24.95 4.95
-1 -4 2 27.88 3.94
-1 -4 1 18.07 3.18
1 4 -1 22.04 4.53
1 4 0 50.42 6.78
1 4 1 9.75 2.76
1 4 2 0.74 1.11
1 4 3 16.56 3.95
1 4 4 17.97 3.99
1 4 5 8.28 2.79
1 4 6 -0.97 0.99
-1 -4 -6 2.11 1.99
-1 -4 -7 14.24 3.72
1 4 7 13.9 3.44
-1 -4 -8 14.08 4.03
1 4 8 11.84 3.09
-1 -4 -9 4.9 2.68
1 4 9 2 1.15
1 4 10 -0.46 0.86
-1 -4 -10 1.62 1.72
1 4 11 1.15 1.35
-1 -4 -11 1.69 2.13
-1 -4 -12 0.53 2.04
1 4 12 -1.11 1.11
1 4 13 2.96 1.29
-1 -4 -13 5.73 2.96
-1 -4 -14 5.19 2.71
-1 -4 -15 2.09 1.4
1 4 15 2.32 0.98
-1 -4 -16 -1.07 2.48
-1 -4 -17 5.11 2.15
-1 -4 -18 5.51 2.44
-1 -4 -19 0.07 2.49
1 5 -18 0 1.43
-1 -5 18 0 0.74
-1 -5 17 1.37 1.53
-1 -5 16 0 1.19
-1 -5 15 0 0.74
-1 -5 14 -0.78 1.18
1 5 -14 0.25 1.04
1 5 -13 -1.38 1.79
-1 -5 13 -0.01 0.68
1 5 -12 1.8 1.55
-1 -5 12 0.15 1.2
1 5 -11 -1.1 1
-1 -5 11 -0.19 0.8
-1 -5 10 -0.9 1.6
1 5 -10 0.28 1.06
-1 -5 9 5.17 2.61
1 5 -9 7.59 2.88
1 5 -8 0.07 0.89
-1 -5 8 2.81 1.95
-1 -5 7 1.57 1.49
1 5 -7 3.07 1.96
-1 -5 6 -0.81 1.23
1 5 -6 -1.62 1.89
1 5 -5 13.96 4.11
-1 -5 5 12.98 3.45
-1 -5 4 0.42 0.8
1 5 -4 2.54 1.71
1 5 -3 38.35 6.53
1 5 -2 41.04 6.64
1 5 -1 -2.47 2.47
1 5 0 65.63 8.52
1 5 1 46.16 7.17
1 5 2 5.29 2.6
1 5 3 11.24 3.57
1 5 4 4.48 2.72
1 5 5 2.03 1.94
1 5 6 13.23 3.88
1 5 7 1.71 0.91
1 5 8 1.25 0.97
1 5 9 10.11 2.77
-1 -5 -9 17.36 4.81
1 5 10 -0.11 0.58
-1 -5 -10 0.28 1.57
-1 -5 -11 9.33 3.48
1 5 11 6.29 2.47
-1 -5 -12 -1.27 2.39
1 5 12 -1.24 1.52
-1 -5 -13 0.69 2.56
-1 -5 -14 -0.05 1.11
-1 -5 -15 -5.52 3.26
-1 -5 -16 1.52 2.84
-1 -5 -17 4.38 3.02
-1 -6 14 2.66 2.02
-1 -6 13 2.76 2.02
1 6 -13 -2.84 1.95
1 6 -12 0 1.22
-1 -6 12 0 1.29
1 6 -11 0 1.03
-1 -6 11 0 1.15
1 6 -10 -0.26 0.78
-1 -6 10 2.94 1.96
1 6 -9 0.53 1.41
1 6 -8 3.46 2.75
1 6 -7 5.44 2.62
1 6 -6 -0.95 1.42
1 6 -5 -1.43 1.6
1 6 -4 2.25 1.61
1 6 -3 -1.09 1.41
1 6 -2 2.27 1.94
1 6 -1 14.7 4.14
1 6 0 10 3.34
1 6 1 10.22 3.75
1 6 2 -1.69 1.64
1 6 3 -2.41 1.61
1 6 4 1.9 2.12
1 6 5 0.05 1
1 6 6 2.2 1.62
1 6 7 0.26 0.8
1 6 8 1.77 1.67
1 6 9 -0.5 0.95
1 6 10 1.79 1.29
1 6 11 0.06 0.95
1 6 12 2.03 1.79
-1 -6 -13 1.14 2.16
1 7 -9 0 1.31
1 7 -8 0 0.87
1 7 -7 0 1.45
1 7 -6 2.21 2.02
1 7 -5 -0.19 1.62
1 7 -4 1.31 1.85
1 7 -3 -4.21 2.66
1 7 -2 -0.18 1.23
1 7 -1 -0.38 1.58
1 7 0 -3.05 2.23
1 7 1 0.64 1.21
1 7 2 -0.07 0.99
1 7 3 1.43 2.05
1 7 4 -0.26 0.93
1 7 5 0.93 1.28
1 7 6 -0.06 0.69
1 7 7 -1.63 1.7
1 7 8 -1.63 1.7
-2 7 7 -4.63 2.97
-2 7 6 -3.35 2.55
-2 7 5 -2.42 2.25
-2 7 4 -1.41 1.76
-2 7 3 -2.29 2.2
-2 7 2 -0.26 1.79
-2 7 1 -0.89 1.51
-2 7 0 -10.61 4.55
-2 7 -1 1.09 2.74
-2 7 -2 2.58 2.75
-2 7 -3 -4.4 3.02
-2 7 -4 1.24 1
-2 7 -5 8 4.12
-2 7 -6 7.34 3.99
-2 7 -7 -0.98 1.54
-2 7 -8 0 1.42
2 -6 -13 0.86 1.59
-2 6 12 0.91 1.5
-2 6 11 0.86 2.22
-2 6 10 1 1.44
-2 6 9 4.17 2.44
-2 6 8 -1.22 1.5
-2 6 7 1.58 1.7
-2 6 6 0.16 0.86
-2 6 5 1.05 2.46
-2 6 4 -1.33 1.46
-2 6 3 -2.12 2
-2 6 2 4.26 2.92
-2 6 1 2.21 1.95
-2 6 0 0.49 2.29
-2 6 -1 0.57 2.4
-2 6 -2 0.62 1.47
-2 6 -3 14.6 4.99
-2 6 -4 3.12 2.11
-2 6 -5 -1.81 2.23
-2 6 -6 3.86 3.51
-2 6 -7 7.43 3.49
-2 6 -8 -2.3 2.15
-2 6 -9 -1.73 1.91
-2 6 -10 0 2.22
-2 6 -11 -3.14 2.5
-2 6 -12 -3.76 2.68
-2 6 -13 3.08 2.41
2 -5 -16 2.11 2.19
2 -5 -15 -5.59 2.98
2 -5 -14 -1.14 1.38
-2 5 13 2.34 2.28
2 -5 -13 3.38 2.71
2 -5 -12 1.81 2.04
-2 5 12 0.11 0.92
-2 5 11 29.61 6.01
2 -5 -11 32.48 6.31
-2 5 10 1.29 0.84
2 -5 -10 -0.34 0.83
-2 5 9 0.76 1.64
2 -5 -9 4.05 2.11
-2 5 8 3.81 2.49
-2 5 7 0.51 1.19
-2 5 6 -0.5 1.17
2 -5 -3 -0.12 1.12
2 -5 -2 3.13 2.1
2 -5 -1 47.85 7.46
2 -5 0 11.64 3.64
2 -5 1 0.23 0.95
2 -5 2 1.19 1.57
2 -5 3 12.16 3.47
2 -5 4 0.15 1.62
-2 5 -7 8.31 3.36
-2 5 -8 2.06 1.68
-2 5 -9 -1.19 1.85
-2 5 -10 0.57 1.99
-2 5 -11 4 2.16
-2 5 -12 2.9 1.83
-2 5 -13 0.96 1.22
-2 5 -13 1.71 1.9
-2 5 -14 1.83 1.67
-2 5 -15 -2.07 1.81
-2 5 -16 -2.72 2.08
-2 5 -17 8.7 3.77
2 -4 -19 1.07 1.1
2 -4 -18 1.87 1.85
2 -4 -17 0.96 1.42
2 -4 -16 8.61 3.74
2 -4 -15 4.55 2.64
2 -4 -14 2.22 1.7
-2 4 13 19.59 4.57
2 -4 -13 22.67 5.25
-2 4 12 25.29 4.8
2 -4 -12 27.19 5.24
2 -4 -11 1.84 0.88
2 -4 -10 31.61 5.48
2 -4 -10 39.65 6.05
2 -4 -9 38.18 5.98
2 -4 -9 40.1 6.17
2 -4 -8 16.65 3.97
2 -4 -8 20.26 4.14
2 -4 -7 14.06 3.57
2 -4 -7 20.25 4.24
2 -4 -6 36.14 5.46
2 -4 -6 34.6 5.68
2 -4 -5 30.66 5.36
2 -4 -4 53.79 7.21
2 -4 -3 39.84 6.01
2 -4 -2 2.49 1.89
2 -4 -1 11.57 3.43
2 -4 0 9.49 3.15
2 -4 1 17.94 4.37
2 -4 2 0.73 0.86
2 -4 3 11.75 3.18
2 -4 4 4.67 2.11
2 -4 5 5.3 2.39
2 -4 6 20.69 4.34
2 -4 7 -0.6 1.5
2 -4 8 16.27 4.09
2 -4 9 0.52 1.62
2 -4 10 0.85 0.71
-2 4 -12 4.67 2.28
-2 4 -12 4.04 2.26
-2 4 -13 -1.28 1.51
-2 4 -13 2.17 1.57
-2 4 -14 0.08 0.55
-2 4 -15 1.22 1.8
-2 4 -16 0.24 0.77
-2 4 -17 0 1.05
-2 4 -18 0 1.48
-2 4 -19 0 1.32
2 -3 -21 -3.94 2.73
2 -3 -20 4.64 2.75
2 -3 -19 0 0.79
2 -3 -18 -0.32 1.54
2 -3 -17 -1.86 2.21
2 -3 -16 2.59 2.11
2 -3 -15 0.45 1.67
-2 3 15 -0.04 1.35
-2 3 14 1.1 1.52
2 -3 -14 0.97 1.68
-2 3 13 1.85 1.73
2 -3 -13 -0.39 0.85
2 -3 -13 -0.96 1.59
-2 3 12 13 3.6
2 -3 -12 8.52 2.49
2 -3 -12 6.66 2.4
-2 3 11 13.62 3.74
2 -3 -11 4.93 1.73
2 -3 -11 8.04 3.07
2 -3 -10 52.12 6.19
2 -3 -10 39.16 5.2
2 -3 -9 56.34 6.54
2 -3 -9 46.8 5.78
2 -3 -8 8.28 2.51
2 -3 -8 11.97 3
2 -3 -7 6.58 1.77
2 -3 -7 5.85 2.17
2 -3 -6 42.09 4.9
2 -3 -6 38.28 5.15
2 -3 -5 15.99 2.91
2 -3 -5 18.3 3.54
-2 3 5 10.96 1.2
-2 3 4 0.9 0.43
2 -3 -4 0.79 0.92
2 -3 -4 2.32 1.35
2 -3 -3 26.56 4.55
-2 3 3 17.1 2.2
2 -3 -2 18.98 3.59
2 -3 -1 -0.08 1.08
2 -3 0 1.87 1.31
2 -3 1 181.18 11.9
2 -3 2 86.6 8.26
2 -3 3 288.67 15.4
2 -3 4 29.64 4.82
2 -3 5 8.7 2.13
2 -3 6 1.13 1
2 -3 7 15.89 3.47
2 -3 8 6.62 2.37
-2 3 -9 1.47 1.15
2 -3 9 1.7 1.05
-2 3 -10 0.1 0.73
2 -3 10 1.63 1.09
-2 3 -11 16.3 3.72
2 -3 11 22 3.97
-2 3 -12 4.38 2.18
2 -3 12 7.39 2.33
-2 3 -13 5.41 2.48
2 -3 13 6.17 1.95
-2 3 -14 0.73 0.86
-2 3 -15 1.07 1.26
-2 3 -16 1.98 1.85
-2 3 -17 -0.38 1.04
-2 3 -18 0.13 1.65
-2 3 -19 2.23 1.95
-2 3 -20 0 0.69
-2 3 -21 0 1.59
2 -2 -22 0 2.16
2 -2 -21 2.41 2.38
-2 2 20 -1.23 1.59
2 -2 -20 -4.59 2.88
-2 2 19 0.01 1.27
2 -2 -19 0.28 2.07
2 -2 -18 -2.66 2.17
-2 2 18 -2.21 2.2
2 -2 -17 2.85 2.04
-2 2 17 3.85 2.5
-2 2 16 21.76 5.01
2 -2 -16 18.28 4.8
-2 2 15 5.1 2.53
2 -2 -15 2.97 1.19
-2 2 14 26.57 5.54
2 -2 -14 18.77 4.68
-2 2 13 3.78 2.3
2 -2 -13 2.6 1
2 -2 -13 0.75 1.1
-2 2 12 5.72 2.78
2 -2 -12 3.02 1.94
2 -2 -12 1.77 0.77
2 -2 -11 55.49 6.37
-2 2 11 58.86 7.51
2 -2 -11 45.91 4.97
2 -2 -10 31.2 4.46
2 -2 -10 25.7 3.71
2 -2 -9 1.74 1.07
2 -2 -9 2.02 1.56
2 -2 -8 3.43 1.41
2 -2 -8 2.33 1.11
2 -2 -7 50.15 5.4
2 -2 -7 51.32 5
2 -2 -6 33.24 3.62
2 -2 -6 32.75 4.46
2 -2 -5 5.54 1.85
2 -2 -5 6.54 1.53
2 -2 -4 95.25 5.54
2 -2 -4 99.78 7.89
-2 2 3 233.04 9.48
2 -2 -3 263.49 9.18
2 -2 -3 297.14 14.1
-2 2 2 4.27 1.05
-2 2 2 1.97 0.47
2 -2 -2 6.01 2.53
2 -2 -1 264.73 9.03
-2 2 1 243.15 8.09
2 -2 -1 308.85 14.28
-2 2 1 233.6 9.14
2 -2 0 3.08 0.91
-2 2 0 2.94 0.79
2 -2 0 4.72 1.88
2 -2 1 54.07 5.53
-2 2 -1 46.62 3.2
2 -2 1 51.32 4.37
2 -2 2 268.23 13.24
2 -2 2 264.88 11.46
2 -2 3 512.42 18.67
2 -2 3 470.2 17.24
2 -2 4 -0.18 0.62
2 -2 4 0.77 1.47
-2 2 -5 53.69 4.71
2 -2 5 57.08 5.79
2 -2 5 52.17 5.79
-2 2 -6 100.15 7.01
2 -2 6 111.51 8.14
2 -2 6 98.1 8.36
2 -2 7 0.95 1.46
-2 2 -7 -0.04 0.51
2 -2 7 0.27 0.65
2 -2 8 41.9 5.9
-2 2 -8 40.75 5.04
2 -2 8 48.77 5.34
-2 2 -9 180.78 11.29
2 -2 9 202.92 11.05
2 -2 9 180.37 12.76
-2 2 -10 1.76 1.12
2 -2 10 -0.26 1.22
2 -2 10 2.89 1.14
2 -2 11 3.68 2.57
2 -2 11 1.7 1.22
-2 2 -11 0.05 0.66
2 -2 12 27.54 5.16
2 -2 12 32.81 4.17
-2 2 -12 25.97 4.84
2 -2 13 2.85 2.05
2 -2 13 1.15 0.92
-2 2 -13 0.56 0.7
2 -2 14 38.58 6.79
-2 2 -14 38.01 6.39
2 -2 15 -2.66 2.16
-2 2 -15 0.25 0.82
2 -2 16 -1.82 0.99
-2 2 -16 -0.05 1.29
2 -2 17 6.55 3.23
-2 2 -17 1.92 1.53
2 -2 18 3.43 2.53
-2 2 -18 2.27 2.04
2 -2 19 1.51 1.31
-2 2 -19 -4.42 2.64
2 -2 20 2.03 1.98
-2 2 -20 -0.01 1.39
-2 2 -21 0 1.09
-2 2 -22 0 1.41
2 -1 -22 5.68 3.83
-2 1 22 2.39 2.35
-2 1 21 2.16 2.11
2 -1 -21 -4.06 2.79
-2 1 20 3.14 2.74
2 -1 -20 1.09 1.91
-2 1 19 6.85 2.91
2 -1 -19 12.52 4.47
-2 1 18 8.22 3.29
2 -1 -18 9.48 3.96
-2 1 17 1.69 1.35
2 -1 -17 -0.36 2.07
2 -1 -16 -0.28 1.79
-2 1 16 1.67 1.16
-2 1 15 48.22 7.3
2 -1 -15 52.64 7.56
-2 1 14 0.6 1.18
2 -1 -14 2.71 2.47
-2 1 13 2.37 2.36
2 -1 -13 0.32 0.5
2 -1 -13 -0.7 1.16
-2 1 13 1.3 0.75
-2 1 12 15.94 4.01
2 -1 -12 15.63 2.52
2 -1 -12 13.32 3.39
2 -1 -11 0.63 1.21
-2 1 11 1.84 0.71
2 -1 -11 1.45 0.63
2 -1 -10 3.34 1.08
-2 1 10 8.08 2.38
2 -1 -10 6.75 1.78
2 -1 -10 10.25 2.2
2 -1 -9 105.85 7.37
2 -1 -9 88.04 6.84
2 -1 -8 314.94 12.45
2 -1 -8 372.3 14.32
2 -1 -7 41.9 4.68
2 -1 -7 39.11 3.97
2 -1 -7 33.49 2.16
2 -1 -6 301.31 11.44
2 -1 -6 334.9 7.77
2 -1 -5 14.95 1.94
-2 1 4 218.26 8.22
2 -1 -4 218.36 7.83
2 -1 -3 71.46 3.59
2 -1 -2 2.06 0.43
2 -1 -2 0.97 0.38
2 -1 -1 19.31 2.05
2 -1 0 27.98 2.8
2 -1 1 233.08 9.42
-2 1 -2 184.03 5.32
2 -1 2 157.31 8.04
2 -1 3 148.82 8.23
-2 1 -3 156.1 5.83
-2 1 -4 708.3 17.65
2 -1 4 743.46 21.45
-2 1 -5 15.97 2.46
2 -1 5 13.03 2.44
-2 1 -6 63.75 5.05
2 -1 6 68.57 5.56
2 -1 6 60.38 5.96
2 -1 7 109.21 8.48
2 -1 7 115.2 7.53
-2 1 -7 110.67 7.45
2 -1 8 7.64 2.18
-2 1 -8 5.84 1.62
2 -1 8 7.59 1.92
-2 1 -9 283.94 14.04
2 -1 9 312.51 13.09
2 -1 9 289.21 15.86
2 -1 10 -2.67 2.13
-2 1 -10 -2.16 1.12
2 -1 10 0.26 0.69
2 -1 11 0.44 1.4
-2 1 -11 0.42 0.73
2 -1 11 -0.43 0.65
-2 1 -12 9.99 2.81
2 -1 12 12.02 3.64
2 -1 12 14.41 2.45
2 -1 13 43.24 6.73
-2 1 -13 38.99 6.05
2 -1 13 46.38 4.3
2 -1 14 -0.55 1.21
-2 1 -14 -1.89 1.74
2 -1 15 21.62 5.32
-2 1 -15 20.22 4.89
2 -1 16 -1.67 2.27
-2 1 -16 -1.25 1.77
2 -1 17 0.43 0.84
-2 1 -17 0.71 0.87
-2 1 -18 1.15 1.91
2 -1 18 2.06 1.55
2 -1 19 3.9 2.75
-2 1 -19 -1.59 2.79
2 -1 20 0.97 0.78
-2 1 -20 1.69 1.89
2 -1 21 0 1.09
-2 1 -21 -4.18 2.91
2 -1 22 0.87 1.49
-2 1 -22 0 1.7
2 0 -23 0 0.92
-2 0 23 1.57 1.88
-2 0 22 0 0.4
2 0 -22 0 1.16
-2 0 21 2.39 2.23
2 0 -21 2.91 2.19
-2 0 20 -1.25 1.51
2 0 -20 5.58 3.07
-2 0 19 2.72 2.06
2 0 -19 5.08 2.49
-2 0 18 3.12 2.34
2 0 -18 2.61 2.03
-2 0 17 30.23 6.12
2 0 -17 31.41 6.21
-2 0 16 0.87 0.74
2 0 -16 4.74 2.87
2 0 -15 3.08 2.32
-2 0 15 2.11 0.91
-2 0 14 1.23 1.13
2 0 -14 4.06 2.6
-2 0 13 -2.16 1.69
2 0 -13 0.88 1.06
-2 0 13 1.1 0.41
-2 0 12 75.4 8.55
-2 0 12 79.38 5.57
2 0 -12 77.25 8.14
-2 0 11 21.33 4.36
2 0 -11 16.61 3.52
-2 0 11 24.64 3.22
-2 0 10 0.07 0.72
-2 0 10 1.19 1.28
2 0 -10 -0.49 1.14
2 0 -10 0.59 0.45
-2 0 9 143.89 10.68
2 0 -9 133.3 9.2
2 0 -9 131.37 8.09
-2 0 9 140.2 8.01
2 0 -8 11.81 2.47
-2 0 8 13.25 3.01
-2 0 8 11.94 2.24
2 0 -8 11.42 2.29
-2 0 7 8.64 2.08
2 0 -7 8 2.03
2 0 -7 8.82 2.12
2 0 -6 5.3 1.46
2 0 -6 3.93 1.41
-2 0 6 7.45 1.84
-2 0 5 3.23 1.13
2 0 -5 1.94 0.94
2 0 -4 59.87 5.2
2 0 -3 1.16 1.21
2 0 -2 19.5 2.98
2 0 -1 280.5 11.68
2 0 0 347.66 9.15
2 0 0 331.32 13.05
2 0 1 120.79 7.4
2 0 1 109.07 4.31
-2 0 -2 1021.13 21.41
2 0 2 1004.89 26.01
2 0 2 1005.01 20.96
2 0 3 49.31 3.34
-2 0 -3 43.14 3.44
2 0 3 43.71 4.3
-2 0 -4 1175.72 27.12
2 0 4 1185.38 28.85
2 0 5 28.69 4.11
2 0 5 30.08 3.72
-2 0 -5 29.36 3.59
-2 0 -5 30.08 3.93
-2 0 -6 26.36 3.48
2 0 6 28.29 3.38
-2 0 -6 26.56 3.61
2 0 6 23.32 3.82
2 0 7 21.57 3.9
-2 0 -7 21.97 3.48
-2 0 -7 16.51 2.86
2 0 7 24.25 3.2
2 0 8 588.44 17.84
-2 0 -8 545.52 18.2
2 0 8 563.93 21.66
-2 0 -8 591.86 21.08
2 0 9 2.03 1.28
-2 0 -9 0.27 0.49
-2 0 -9 -0.88 1.06
2 0 9 1.01 0.86
2 0 10 8.1 2.39
-2 0 -10 8.35 1.97
-2 0 -10 9.48 2.84
2 0 11 42.9 5.89
-2 0 -11 46.28 6.44
-2 0 -11 53.41 4.9
-2 0 -12 5.06 1.68
2 0 12 6.07 2.83
-2 0 -12 2.13 1.17
-2 0 -13 28.43 5.43
-2 0 -13 35.13 4.31
2 0 13 30.29 5.41
2 0 13 34.82 3.47
-2 0 -14 37.56 6.52
2 0 14 43.07 6.75
-2 0 -15 1.82 1.48
2 0 15 2 1.9
2 0 16 6.79 3.21
-2 0 -16 5.28 2.87
-2 0 -17 11.55 4.21
2 0 17 14.18 4.48
2 0 18 34.83 7.06
-2 0 -18 37.02 7.71
2 0 19 11.89 4.27
-2 0 -19 12.23 4.99
2 0 20 -2.58 2.35
-2 0 -20 0.15 2
2 0 21 9.77 4.12
-2 0 -21 9.7 4.46
2 0 22 5.63 3.59
-2 0 -22 12.92 5.26
2 1 -22 1.04 0.83
-2 -1 22 2.37 2.52
2 1 -21 -1.15 1.2
-2 -1 21 0.77 1.96
-2 -1 20 0.86 1.93
2 1 -20 4.54 2.71
-2 -1 19 -1.44 2.06
2 1 -19 -1.5 1.95
2 1 -18 -0.09 1.38
-2 -1 18 2.62 2.19
2 1 -17 3.07 2.07
-2 -1 17 0.43 1.71
-2 -1 16 1.95 1.28
2 1 -16 1.3 1.45
-2 -1 15 9.28 2.98
2 1 -15 8.29 2.84
-2 -1 14 9.25 1.76
-2 -1 14 9.75 3.22
2 1 -14 10.25 2.97
2 1 -14 10.65 2.12
-2 -1 13 27.08 5.06
2 1 -13 24.61 4.46
2 1 -13 30.94 3.66
-2 -1 13 29.39 3.35
-2 -1 12 31.09 5.2
2 1 -12 33.88 4.08
-2 -1 12 34.31 3.79
2 1 -12 29.75 4.81
-2 -1 11 5.06 1.84
2 1 -11 3.16 1.59
-2 -1 11 3.48 1.28
-2 -1 10 0.93 1.14
2 1 -10 0.89 0.81
-2 -1 10 2.8 1.39
-2 -1 9 23.22 4.47
2 1 -9 20.71 3.12
-2 -1 9 21.77 3.19
-2 -1 8 7.96 2.16
2 1 -8 8.75 2.06
-2 -1 7 -0.16 0.94
-2 -1 7 0.19 0.83
2 1 -7 1.23 1.02
2 1 -6 83.04 6.48
-2 -1 6 89.71 7.69
-2 -1 6 89.32 6.77
2 1 -5 235.14 11.29
-2 -1 5 248.84 11.66
2 1 -4 46.03 4.78
-2 -1 4 48.07 4.98
2 1 -3 1433.19 34.33
-2 -1 3 1436.55 34.36
2 1 -2 0.6 1.45
-2 -1 2 1.64 0.88
-2 -1 1 45.16 4.85
2 1 -1 48.28 4.84
2 1 0 455.4 16.25
-2 -1 0 423.27 15.84
2 1 1 31.59 4.13
-2 -1 -1 24.7 3.37
-2 -1 -2 -0.5 0.79
-2 -1 -2 -1.24 1.08
2 1 2 -0.61 1.43
-2 -1 -3 582.03 18.19
-2 -1 -3 588.1 18.86
2 1 3 601.28 19.36
-2 -1 -4 92.98 6.72
2 1 4 98.38 6.93
-2 -1 -4 88.19 6.66
-2 -1 -5 67.51 5.98
2 1 5 75.83 6.12
-2 -1 -5 66.38 5.7
-2 -1 -6 497.2 18.45
-2 -1 -6 461.85 16.99
2 1 6 507.38 17.25
-2 -1 -7 13.08 2.92
-2 -1 -7 10.49 2.35
2 1 7 14.91 2.72
-2 -1 -8 2.68 1.02
-2 -1 -9 6.87 1.94
-2 -1 -9 6.55 1.98
2 1 9 7 1.98
-2 -1 -10 -0.13 1.05
-2 -1 -10 0.14 0.58
2 1 10 -1.86 0.91
2 1 11 4.55 1.8
2 1 11 8.26 1.82
-2 -1 -11 6.46 2.18
-2 -1 -11 6.16 2.61
2 1 12 21.59 2.82
-2 -1 -12 14.65 4.09
2 1 12 17.7 4.14
-2 -1 -12 21.86 3.98
-2 -1 -13 1.66 1.11
2 1 13 -0.69 0.82
-2 -1 -13 -0.05 1.14
2 1 13 -1.16 1.47
-2 -1 -14 66.46 8.77
2 1 14 55.97 7.76
2 1 15 14.32 4.37
-2 -1 -15 12.64 3.97
-2 -1 -16 63.86 9.33
2 1 16 55.75 7.94
2 1 17 24.99 5.45
-2 -1 -17 28.51 6.33
2 1 18 4.7 2.39
-2 -1 -18 7.32 2.98
2 1 19 -0.64 1.5
-2 -1 -19 -1.25 1.59
2 1 20 3.15 2.4
-2 -1 -20 1.87 2.58
2 1 21 0.85 1.49
-2 -1 -21 -5.05 3.28
2 1 22 1.12 1.65
-2 -1 -22 0 3.42
2 2 -22 0 1.13
-2 -2 22 2.71 3.07
2 2 -21 -0.43 0.95
-2 -2 21 3.99 3.04
2 2 -20 0.6 1.05
-2 -2 20 2.91 2.39
-2 -2 19 0.21 1.3
2 2 -19 -1.56 1.53
-2 -2 18 10.38 3.62
2 2 -18 9.01 2.86
-2 -2 17 3.87 2.17
2 2 -17 2.88 1.57
-2 -2 16 -0.4 1.47
2 2 -16 1.07 0.53
2 2 -15 26.91 4.76
-2 -2 15 33.5 6.09
-2 -2 14 36.37 6.4
2 2 -14 29.13 4.94
2 2 -14 49.67 5.86
-2 -2 13 9.1 2.99
2 2 -13 12.4 2.94
-2 -2 12 43.61 6.59
2 2 -12 49.56 6.24
-2 -2 11 143.37 9.1
2 2 -11 174.32 12.18
-2 -2 11 133.61 11.23
-2 -2 10 0.57 1.08
-2 -2 10 4.26 1.79
2 2 -10 2.47 1.6
-2 -2 9 13.29 3.08
-2 -2 9 14.93 3.05
2 2 -9 21.6 4.26
-2 -2 8 122.5 8.9
2 2 -8 125.55 10.05
-2 -2 8 107.84 9.26
-2 -2 7 3.1 1.23
-2 -2 7 3.32 1.31
2 2 -7 0.85 0.81
2 2 -6 38.9 5.43
-2 -2 6 38.62 5.23
-2 -2 6 36.01 4.79
2 2 -5 -0.25 1.08
-2 -2 5 -0.18 0.9
-2 -2 5 1.49 1.09
-2 -2 4 2.08 1.25
-2 -2 4 -2.84 2.09
2 2 -4 0.06 1.05
-2 -2 3 92.51 7.12
2 2 -3 96.28 8.39
-2 -2 3 91.63 8.03
2 2 -2 900.01 28.09
-2 -2 2 895.76 25.2
-2 -2 2 885.87 28.27
2 2 -1 34.28 4.98
-2 -2 1 35.47 5.46
2 2 0 76.13 6.9
-2 -2 0 71.6 7.31
2 2 1 13.47 3.56
-2 -2 -1 6.43 2.97
2 2 2 275.72 13.8
-2 -2 -2 270.42 14.31
-2 -2 -3 4.7 1.15
-2 -2 -3 3.34 1.59
2 2 3 5.75 1.9
-2 -2 -4 7.34 1.86
-2 -2 -4 8.35 2.21
2 2 4 8.04 2.02
-2 -2 -5 -1.21 1.3
-2 -2 -5 0.55 0.74
-2 -2 -6 0.35 0.44
-2 -2 -6 -0.69 0.86
2 2 6 0.27 0.57
-2 -2 -7 17.29 3.8
-2 -2 -7 17.1 2.84
-2 -2 -7 14.8 3.34
2 2 7 17.24 3.38
2 2 8 7.81 2.26
-2 -2 -8 6.2 2.45
-2 -2 -8 10.38 3.21
-2 -2 -9 188.49 12.43
-2 -2 -9 160.41 12.41
2 2 9 155.67 9.93
-2 -2 -10 22.56 4.35
-2 -2 -10 16.43 4.32
2 2 10 20.52 3.51
2 2 11 18.03 3.06
-2 -2 -11 12.93 3.59
-2 -2 -12 71.18 8.84
2 2 12 77.27 6.63
2 2 12 73.49 8.49
-2 -2 -13 90.62 10.31
2 2 13 95.59 7.34
2 2 13 79.71 9.08
2 2 14 1.46 2.15
-2 -2 -14 -0.45 1.62
2 2 15 7.17 3.06
-2 -2 -15 7.89 2.95
2 2 16 0.55 1.1
-2 -2 -16 3.3 2.67
2 2 17 -0.72 1.24
-2 -2 -17 -3.36 2.62
-2 -2 -18 -1.53 1.45
2 2 18 4.14 2.22
2 2 19 -0.59 1.33
-2 -2 -19 -0.75 2.25
2 2 20 7.09 3.11
-2 -2 -20 7.61 5.03
2 2 21 -3.78 2.34
-2 -2 -21 0 2.24
2 3 -21 0 1.01
-2 -3 21 -2.58 2.18
2 3 -20 3.11 2.02
-2 -3 20 1.87 2.38
2 3 -19 1.3 1.58
-2 -3 19 -1.67 1.67
2 3 -18 -0.1 1.51
-2 -3 18 2.79 2.48
2 3 -17 1.82 1.66
-2 -3 17 0.35 1.38
2 3 -16 1.06 1.48
-2 -3 16 1.8 2.17
-2 -3 15 7.42 3.35
-2 -3 14 0.68 1.24
2 3 -14 0.73 1.53
-2 -3 13 24.29 5.23
2 3 -13 37.96 6.57
-2 -3 12 22.6 5.13
2 3 -12 34.81 6.24
2 3 -11 -2.38 2.3
-2 -3 11 1.42 1.27
-2 -3 10 0.72 1.02
2 3 -10 1.47 1.17
-2 -3 9 1.08 0.93
2 3 -9 -0.45 1.15
-2 -3 8 -0.99 1.26
2 3 -8 -1.46 1.4
-2 -3 7 16.38 3.53
2 3 -7 17.05 3.76
2 3 -6 98.59 9.11
-2 -3 6 103.9 8.69
-2 -3 5 4.75 1.86
-2 -3 5 3.24 1.49
2 3 -5 3.91 2.16
-2 -3 4 7.78 2.23
-2 -3 4 8.99 2.26
2 3 -4 9 2.56
-2 -3 3 17.09 3.59
2 3 -3 14.06 3.21
-2 -3 3 12.6 2.56
-2 -3 2 32.49 5.46
-2 -3 2 30.31 3.86
2 3 -2 29.32 4.34
2 3 -1 5.31 2.01
-2 -3 1 4.6 1.38
-2 -3 1 5.57 2.29
-2 -3 0 12.42 2.43
-2 -3 0 12.63 3
2 3 0 15.1 3.49
-2 -3 -1 7.7 1.92
-2 -3 -1 4.99 2.29
2 3 1 9.52 2.53
-2 -3 -2 -0.83 1.04
-2 -3 -2 0.65 0.64
2 3 2 1.11 1.19
2 3 3 14.3 3.23
-2 -3 -3 11.69 3.18
-2 -3 -3 14.74 1.77
-2 -3 -4 69.91 3.82
-2 -3 -4 102.48 9.58
2 3 4 88.4 7.91
-2 -3 -5 66.76 7.65
-2 -3 -5 59.39 2.92
2 3 5 68.83 6.78
-2 -3 -5 45.68 2.87
2 3 6 6.51 2.55
-2 -3 -6 7.92 2.67
2 3 7 19.56 3.69
-2 -3 -7 23.04 4.88
-2 -3 -8 145.22 12.35
2 3 8 125.7 9.81
2 3 9 24.83 4.32
-2 -3 -9 27.71 5.76
-2 -3 -10 6.64 3.07
2 3 10 5.87 1.94
2 3 11 44.76 5.93
-2 -3 -11 45.97 7.65
-2 -3 -12 8.88 3.03
2 3 12 14.5 3.2
-2 -3 -13 -1.93 1.87
2 3 13 -0.19 1.01
2 3 14 11.57 3.58
-2 -3 -14 10.5 3.69
-2 -3 -15 15.43 4.68
2 3 15 13.18 3.78
2 3 16 -1.74 1.55
-2 -3 -16 2.16 2.15
2 3 17 3.68 2.18
-2 -3 -17 -0.7 2.11
2 3 18 5.89 2.89
-2 -3 -18 4.09 3.4
2 3 19 -0.42 1.31
-2 -3 -19 1.56 2.6
2 3 20 1.02 1.21
-2 -3 -20 -5.03 3.29
2 4 -19 -0.58 0.94
-2 -4 19 1.67 1.76
2 4 -18 0.97 0.7
-2 -4 18 -0.4 1.01
-2 -4 17 -2.96 2.24
-2 -4 16 -0.12 1.25
-2 -4 15 -0.94 1.67
2 4 -14 4.01 2.81
-2 -4 14 0.14 0.84
2 4 -13 -1.39 1.81
-2 -4 13 -1.06 1.41
2 4 -12 -1.5 2.04
-2 -4 12 -1.44 1.47
-2 -4 11 10.06 3.44
2 4 -11 9.91 3.36
-2 -4 10 1.67 1.59
2 4 -10 2.55 1.68
-2 -4 9 3.15 1.9
2 4 -9 3.39 1.49
-2 -4 8 -1.54 1.46
2 4 -8 -1.39 1.15
-2 -4 7 3.95 1.96
2 4 -7 -0.02 1.22
-2 -4 6 11.3 2.92
2 4 -6 10.75 3.38
-2 -4 5 5.67 2.14
2 4 -5 4.98 2.44
-2 -4 4 -1.05 0.84
2 4 -4 -0.48 1.34
-2 -4 3 13.41 2.87
2 4 -3 13.87 3.54
-2 -4 2 7.29 2.19
2 4 -2 10.48 3.29
-2 -4 1 11.77 2.53
2 4 -1 7.51 2.58
2 4 0 250.52 15.85
-2 -4 0 292.27 12.16
2 4 1 31.27 5.69
-2 -4 -1 34.04 3.58
2 4 2 3.58 2.19
-2 -4 -2 3.91 1
2 4 3 6.29 2.16
2 4 4 88.84 8.9
2 4 5 3.27 1.7
2 4 6 13.16 3.28
2 4 7 85.3 8.51
-2 -4 -7 93.81 10.48
-2 -4 -8 1.65 1.79
2 4 8 6.91 2.26
-2 -4 -9 -0.84 1.18
2 4 9 -0.33 1.48
2 4 10 61.5 7.39
-2 -4 -10 63.86 9.46
-2 -4 -11 3.22 2.16
2 4 11 3.15 1.52
-2 -4 -12 0.29 1.04
2 4 12 -1.93 1.35
-2 -4 -13 -2.03 1.76
2 4 13 -0.86 1.12
-2 -4 -14 5.72 2.81
-2 -4 -15 0.35 1.47
2 4 15 -4.25 2.7
-2 -4 -16 1.85 2.78
2 4 16 1.82 2.33
2 4 17 0.35 1.18
-2 -4 -17 2.21 2.49
-2 -4 -18 -4.03 2.99
-2 -5 17 0 0.97
-2 -5 16 -2.78 2.23
-2 -5 15 0 0.6
-2 -5 14 -1.72 1.7
2 5 -14 2.26 2
2 5 -13 0.76 1.34
-2 -5 13 0 0.77
2 5 -12 0.76 0.93
-2 -5 12 2.09 1.75
2 5 -11 -0.38 0.99
-2 -5 11 -1.59 1.5
2 5 -10 1.14 0.93
-2 -5 10 -2.91 1.94
2 5 -9 0.09 0.79
-2 -5 9 -1.14 1.23
2 5 -8 11.6 3.87
-2 -5 8 9.89 3.78
2 5 -7 2.74 2.1
-2 -5 7 2.72 1.69
2 5 -6 3.62 2.34
-2 -5 6 2.29 1.78
2 5 -5 14.74 3.95
-2 -5 5 15.94 3.79
2 5 -4 -1.28 1.36
-2 -5 4 -0.86 1.1
2 5 -3 -3.3 2.36
-2 -5 3 2.8 1.52
2 5 -2 30.08 5.86
2 5 -1 0.63 0.9
2 5 0 2.1 0.83
2 5 1 4.06 2.1
2 5 2 139.28 12.62
2 5 3 0.08 1.54
2 5 4 0.76 1.14
2 5 5 9.41 3.05
2 5 6 4.17 2.57
2 5 7 2.65 1.88
2 5 8 1.14 0.92
2 5 9 4.1 2.16
-2 -5 -10 -2.32 2.44
2 5 10 -0.25 0.83
-2 -5 -11 -0.12 1.61
2 5 11 -1.41 2.15
-2 -5 -12 5.61 3.46
2 5 12 4.37 2.57
-2 -5 -13 4.74 2.85
-2 -5 -14 0.92 2.24
-2 -5 -15 4.44 3.11
2 6 -13 -1.54 1.58
-2 -6 13 0 0.69
2 6 -12 0 0.67
-2 -6 12 0 0.95
-2 -6 11 4.37 2.5
2 6 -11 0 1.55
2 6 -10 0 1.32
2 6 -9 -2.3 1.87
2 6 -8 -2.65 2.01
2 6 -7 -3.22 2.18
2 6 -6 1.38 2.06
2 6 -5 0.33 1.07
2 6 -4 -2.46 2.31
2 6 -3 6.89 3.24
2 6 -2 20.7 5.24
2 6 -1 0.41 1.27
2 6 0 3.79 2.23
2 6 1 0.54 1.68
2 6 2 -1.93 1.94
2 6 3 3.02 2.21
2 6 4 4.26 2.39
2 6 5 0.89 1.45
2 6 6 3.69 2.52
2 6 7 0.24 1.1
2 6 8 1.42 1.76
2 6 9 -3.1 2.11
2 6 10 2.31 2.4
2 6 11 0.11 0.64
2 6 12 -2.52 2.46
2 7 -6 4.02 2.64
2 7 -5 0 1
2 7 -4 0 2.66
2 7 -3 3.87 3.18
2 7 -2 -2.07 1.93
2 7 -1 0.46 2.24
2 7 0 3.57 2.21
2 7 1 0.58 2.07
2 7 2 -2.96 2.27
2 7 3 0 2.22
2 7 4 5.74 3.76
2 7 5 1.09 1.96
-3 7 3 -1.14 1.72
-3 7 2 -6.61 3.87
-3 7 1 -3.05 2.72
-3 7 0 0 3.12
-3 7 -1 0.02 3.11
-3 7 -2 6.09 3.75
-3 7 -3 2.51 2.5
-3 7 -4 2.93 2.64
-3 6 11 1.03 2.24
-3 6 10 2.22 2.45
-3 6 9 5.39 3.57
-3 6 8 4 3.03
-3 6 7 -1.12 1.63
3 -6 -4 -2.29 2.28
3 -6 -3 2.6 2.28
3 -6 -2 0.54 0.67
3 -6 -1 -1.85 1.28
3 -6 0 -0.8 1.48
3 -6 1 8.25 3.71
3 -6 2 -1.64 1.52
3 -6 3 4.7 3.04
3 -6 4 2.46 2.2
-3 6 -8 -3.49 2.72
-3 6 -9 0 1.49
-3 6 -10 -0.72 1.34
-3 6 -11 0 2.76
-3 5 13 3.81 2.38
3 -5 -11 2.1 2.49
3 -5 -10 2.47 2.17
3 -5 -9 8.49 3.69
3 -5 -8 4.91 2.48
3 -5 -7 22.75 5.65
3 -5 -6 0.01 0.72
3 -5 -5 7.83 3.26
3 -5 -4 0.69 0.7
3 -5 -3 31.82 6.31
3 -5 -2 1.26 1.52
3 -5 -1 35.55 6.58
3 -5 0 1.46 1.99
3 -5 1 4.16 1.68
3 -5 2 10.82 3.64
3 -5 3 2.94 2.21
3 -5 4 2.39 2.36
3 -5 5 -2.04 1.69
3 -5 6 1.98 1.38
3 -5 7 0.35 0.71
3 -5 8 -0.52 0.81
3 -5 9 -0.53 1.64
3 -5 10 0.7 2.01
3 -5 11 2.77 1.99
-3 5 -13 -1.39 1.64
3 -4 -18 3.76 2.62
3 -4 -17 0.76 1.2
3 -4 -16 1.74 2.04
3 -4 -15 2.6 2.36
3 -4 -14 2.36 1.28
3 -4 -13 0.19 0.52
3 -4 -13 2.38 2.05
3 -4 -12 1.5 1.17
3 -4 -12 7.11 2.9
3 -4 -11 10.1 3.23
3 -4 -11 16.69 3.95
3 -4 -10 -0.5 1.16
3 -4 -10 1.71 1.7
3 -4 -9 4.02 2.16
3 -4 -9 3.44 1.72
3 -4 -8 26.78 4.72
3 -4 -8 21.05 4.59
3 -4 -7 1.1 1.37
3 -4 -7 0.31 0.96
3 -4 -6 24.73 5.14
3 -4 -5 34.71 6.16
3 -4 -4 41.31 6.78
3 -4 -3 6.81 2.92
3 -4 -2 17.53 4.32
3 -4 -1 5.07 2.46
3 -4 0 0.07 1.54
3 -4 1 11.73 3.4
3 -4 2 8.19 3.01
3 -4 3 28.35 5.61
3 -4 4 20.15 4.83
3 -4 5 4.39 2.39
3 -4 6 9 3.02
3 -4 7 10.21 3.25
-3 4 -8 3.38 1.76
3 -4 8 0.09 0.99
-3 4 -9 0.46 0.48
3 -4 9 2.63 1.16
-3 4 -10 11.59 3.25
3 -4 10 8.88 2.45
-3 4 -11 1.36 1.4
3 -4 11 4 2.31
-3 4 -12 7.93 3.12
3 -4 12 9.68 3.2
-3 4 -13 2.64 1.92
3 -4 13 2.09 1.43
-3 4 -14 -2.13 1.65
-3 4 -15 0.92 1.63
3 -3 -19 1.84 1.74
3 -3 -18 0.77 1.23
-3 3 17 6.57 3.12
3 -3 -17 4.57 2.22
-3 3 16 6.64 3.34
3 -3 -16 7.38 3.04
-3 3 15 6.23 3.21
3 -3 -15 -0.63 1.31
-3 3 14 -2.84 2.5
3 -3 -14 -1.06 1.86
3 -3 -13 2.66 1.57
-3 3 13 0.32 0.93
3 -3 -13 1.77 1.58
3 -3 -12 7.87 2.54
3 -3 -12 8.63 2.94
3 -3 -11 6.66 2.42
3 -3 -11 6.97 2.33
3 -3 -10 21.12 4.31
3 -3 -10 24.46 4.35
3 -3 -9 168.07 10.85
3 -3 -9 138.43 11.41
3 -3 -8 0.15 0.82
3 -3 -8 0.43 0.79
3 -3 -7 12.7 3.49
3 -3 -7 18.2 3.09
3 -3 -6 14.74 3.69
3 -3 -6 18 3.04
3 -3 -5 49.4 4.56
3 -3 -5 45.5 6.73
3 -3 -4 81.74 8.92
3 -3 -3 0.6 1.25
3 -3 -2 -0.05 1.37
-3 3 2 0.84 0.62
-3 3 1 0.56 0.57
3 -3 -1 -1.28 0.79
-3 3 0 9.54 1.63
3 -3 0 14.56 3.87
-3 3 -1 35.58 3.19
3 -3 1 47.2 6.63
3 -3 2 38.7 5.87
-3 3 -2 31.23 3.52
3 -3 2 34.96 4.51
3 -3 3 5.89 2.25
3 -3 3 2.67 1.33
3 -3 4 5.06 1.87
3 -3 4 4.18 1.74
-3 3 -5 203.3 10.1
3 -3 5 207.55 13.73
3 -3 5 193.25 12.72
3 -3 6 5.54 2.32
3 -3 6 3.62 1.74
-3 3 -6 4.92 1.63
-3 3 -7 33.92 4.34
3 -3 7 31.44 5.3
3 -3 7 24.91 4.86
3 -3 8 4.42 1.85
3 -3 8 2.38 1.1
-3 3 -8 4.56 1.53
3 -3 9 2.03 1.25
3 -3 9 3.64 1.93
-3 3 -9 2.37 1.25
3 -3 10 3.83 1.65
3 -3 10 1.66 1.29
-3 3 -10 3.45 1.73
3 -3 11 14.09 3.7
3 -3 11 15.07 3.47
-3 3 -11 16.31 3.62
3 -3 12 -0.89 1.05
3 -3 12 1.19 1.64
-3 3 -12 2.71 1.91
3 -3 13 -0.47 1.69
3 -3 13 3.47 1.82
-3 3 -13 2.82 1.54
3 -3 14 2.54 1.57
-3 3 -14 -3.3 1.79
3 -3 15 2.08 1.77
-3 3 -15 0.75 1.08
3 -3 16 7.25 3.39
-3 3 -16 2.53 1.84
3 -3 17 5.11 2.84
-3 3 -17 3.74 2.27
3 -3 18 2.81 2.16
-3 3 -18 -2.98 2.12
-3 3 -19 -4.1 2.51
-3 2 21 -0.77 1.78
3 -2 -21 -6.86 4.36
-3 2 20 0.27 1.14
3 -2 -20 2.59 1.93
-3 2 19 -1.43 1.6
3 -2 -19 0.24 1.12
-3 2 18 -0.12 0.67
3 -2 -18 0.27 1.25
-3 2 17 -1.14 1.9
3 -2 -17 2.95 2.11
-3 2 16 11.33 4.2
3 -2 -16 9.03 3.05
-3 2 15 0.9 1.58
3 -2 -15 -0.13 0.64
3 -2 -14 62.28 7.45
-3 2 14 68.79 10.06
3 -2 -13 48.94 6.51
3 -2 -13 54.46 6.2
-3 2 13 67.21 9.65
3 -2 -12 13.4 3.14
3 -2 -12 12.85 3.14
3 -2 -11 25.97 4.6
3 -2 -11 27.85 4.62
3 -2 -10 45.45 5.56
3 -2 -10 35.98 5.45
3 -2 -9 1.85 0.81
3 -2 -9 1.5 0.98
3 -2 -8 20.43 4.29
3 -2 -8 20.08 3.38
3 -2 -7 36.55 5.65
3 -2 -7 37.6 4.1
3 -2 -6 66.45 5.02
3 -2 -6 72.51 7.79
3 -2 -5 69.52 4.58
3 -2 -5 74 7.98
-3 2 4 13.63 1.82
3 -2 -4 17.71 2.03
3 -2 -4 18.25 3.95
3 -2 -4 15.52 1.47
3 -2 -3 0.31 0.18
-3 2 3 0.14 0.21
3 -2 -3 -0.32 1.71
3 -2 -2 14.63 2.15
3 -2 -2 16.31 3.64
3 -2 -1 47.87 6.2
3 -2 -1 41.82 3.92
3 -2 0 1.32 0.62
3 -2 0 2.95 2.33
3 -2 1 351.78 17.47
3 -2 1 309.15 13.21
-3 2 -2 71.36 2.67
-3 2 -2 52.74 2.56
3 -2 2 79.95 8.02
3 -2 2 63.93 5.94
-3 2 -3 258.45 7.78
3 -2 3 284.18 15.19
3 -2 3 240.88 12.7
3 -2 4 7.59 2.32
-3 2 -4 7.65 1.45
3 -2 4 10.76 3.04
3 -2 5 1.91 1.33
-3 2 -5 1.13 0.68
3 -2 5 2.16 0.81
3 -2 6 6.38 2.16
-3 2 -6 7.07 1.7
3 -2 6 6.55 2.2
-3 2 -7 13.63 2.45
3 -2 7 14.41 3.49
3 -2 7 15.03 3.5
3 -2 8 28.88 5.02
-3 2 -8 32.62 4.21
3 -2 8 32.09 4.93
3 -2 9 2.68 1.78
-3 2 -9 4.83 1.72
3 -2 9 4.74 1.59
3 -2 10 8.41 3.16
-3 2 -10 4.86 1.94
3 -2 10 7.55 2.52
3 -2 11 13.32 3.84
-3 2 -11 11.11 2.74
3 -2 11 15.23 3.11
3 -2 12 0.76 0.39
3 -2 12 -2.41 2.29
-3 2 -12 -1.58 1.27
-3 2 -13 0.32 0.52
3 -2 13 -0.06 0.65
3 -2 13 -0.8 1.74
3 -2 14 10.44 3.54
-3 2 -14 13.22 3.53
-3 2 -15 1.77 1.94
3 -2 15 2.65 1.39
3 -2 16 0.64 1.3
-3 2 -16 -0.06 1
3 -2 17 1.23 2.83
-3 2 -17 -2.4 1.88
3 -2 18 5.91 3.33
-3 2 -18 3.55 2.34
3 -2 19 -2.38 2.02
-3 2 -19 2.61 2.11
3 -2 20 5.62 3.09
-3 2 -20 0 1.72
-3 1 21 -1.68 1.89
3 -1 -21 0 1.69
-3 1 20 -0.54 0.5
3 -1 -20 0.2 0.88
3 -1 -19 4.4 2.2
-3 1 19 9.92 4.57
-3 1 18 15.39 5
3 -1 -18 13.38 4.27
-3 1 17 5.46 2.88
3 -1 -17 4.81 2.61
-3 1 16 12.26 4.38
3 -1 -16 13.07 4.03
3 -1 -15 68.5 8.53
-3 1 15 84.2 11.47
-3 1 14 -0.39 1.7
3 -1 -14 0.82 1.17
-3 1 14 3.13 1.44
3 -1 -14 2.53 1.29
-3 1 13 -1.32 2.06
3 -1 -13 0.68 1.52
-3 1 13 -0.99 1.13
3 -1 -13 1.46 0.92
-3 1 12 30.28 6.1
3 -1 -12 22.35 4.23
-3 1 12 29.83 4.31
3 -1 -12 27.79 4.33
3 -1 -11 0.32 0.9
3 -1 -11 0.49 0.76
3 -1 -10 1.56 0.93
3 -1 -10 1.34 0.61
3 -1 -9 5.53 1.1
3 -1 -9 9.22 2.39
3 -1 -8 2.68 0.64
3 -1 -8 6.78 1.72
3 -1 -7 32.36 3.61
3 -1 -6 41.12 3.61
3 -1 -5 0.1 0.35
3 -1 -4 293.04 8.86
3 -1 -3 8.19 1.06
3 -1 0 86.09 6.06
3 -1 1 9.46 2.16
3 -1 2 19.47 3.18
-3 1 -3 245.52 7.41
3 -1 3 235.33 12.17
-3 1 -4 3.28 0.95
3 -1 4 1.96 0.71
3 -1 5 23.41 3.88
-3 1 -5 29.46 3.28
-3 1 -6 61.23 5.23
3 -1 6 48.24 5.92
3 -1 7 23.43 4.12
-3 1 -7 29.02 3.88
-3 1 -8 59.32 5.91
3 -1 8 50.5 6.4
3 -1 9 30.85 5.14
-3 1 -9 32.9 4.61
-3 1 -10 51.06 6.04
3 -1 10 57.54 5.9
3 -1 10 51.47 7.02
3 -1 11 8.91 3.42
-3 1 -11 5.44 2.13
3 -1 11 12.31 2.74
3 -1 12 -0.39 1.49
-3 1 -12 2.02 1.46
3 -1 12 0.54 0.88
3 -1 13 15.97 4.43
3 -1 13 16.58 3.23
-3 1 -13 11.58 3.14
-3 1 -13 12.94 3.37
3 -1 14 34.71 6.5
-3 1 -14 31.66 5.74
-3 1 -15 -3.07 2.14
3 -1 15 -1.75 2.01
3 -1 16 27.17 6.07
-3 1 -16 24.57 5.55
3 -1 17 20.26 5.23
-3 1 -17 13.34 4.53
3 -1 18 -3.16 2.18
-3 1 -18 0.04 2.37
3 -1 19 -1.83 2.58
-3 1 -19 0 1.08
3 -1 20 3.01 2.23
-3 1 -20 3.71 2.58
-3 1 -21 -2.16 2.09
3 -1 21 -3.57 2.54
-3 0 22 1.53 2.92
3 0 -22 1.65 2.28
-3 0 21 1.97 2.84
3 0 -21 1.28 1.46
-3 0 20 13.97 5.24
3 0 -20 7.9 3.49
-3 0 19 3.48 2.83
3 0 -19 7.32 3.43
-3 0 18 0.13 1.19
3 0 -18 1.76 2.2
-3 0 17 3.04 1.93
3 0 -17 5.32 2.89
-3 0 16 0.37 0.93
3 0 -16 0.71 1.14
-3 0 15 1.13 1.62
3 0 -15 4.51 2.78
-3 0 14 2.55 2.2
3 0 -14 -0.07 1.19
-3 0 14 0.91 0.96
-3 0 13 9.06 3.44
3 0 -13 10.87 2.99
-3 0 13 10.62 2.46
3 0 -12 42.22 5.93
-3 0 12 50.81 7.67
-3 0 12 45.3 5.22
-3 0 11 0.57 0.77
-3 0 11 -1.18 2.05
3 0 -11 -1.15 0.9
3 0 -11 -0.43 0.56
-3 0 10 16.09 3.18
3 0 -10 15.16 3.09
3 0 -10 13.34 2.99
3 0 -9 52.9 5.75
3 0 -9 50.6 5.98
-3 0 9 55.97 6.05
3 0 -8 11.71 2.54
-3 0 8 9.01 2.05
3 0 -8 7.6 2.1
3 0 -7 68.24 5.76
3 0 -7 64.71 6.75
-3 0 7 65.41 6.55
3 0 -6 26.89 3.33
3 0 -6 25.51 4.11
-3 0 6 29.76 4.46
3 0 -5 205.07 12.4
-3 0 5 232.05 12.71
3 0 -4 15.09 3.05
-3 0 4 14.12 2.6
3 0 -3 22.97 3.47
-3 0 3 21.35 3.63
3 0 -2 34.66 4.8
-3 0 2 43 5.54
3 0 -1 372.89 11.48
3 0 -1 428.8 17.89
-3 0 1 457.43 18.95
3 0 0 55.44 3.46
3 0 0 65.08 6.91
-3 0 0 75.21 7.43
3 0 1 26.44 2.5
3 0 1 35.29 4.9
-3 0 -1 43.04 5.65
3 0 2 21.18 2.38
3 0 2 27.97 4.31
-3 0 -2 30.67 4.76
3 0 3 33.19 3.17
-3 0 -3 46.94 4
3 0 3 47.41 5.58
-3 0 -3 52.75 6.34
-3 0 -4 28.35 3.22
3 0 4 25.48 4.2
-3 0 -4 25.77 4.51
-3 0 -5 85.93 6.24
3 0 5 87.91 7.84
-3 0 -5 90.32 8.35
3 0 6 32.88 4.77
-3 0 -6 32.53 4.93
-3 0 -6 31.49 3.95
3 0 6 26.4 4.37
-3 0 -7 1.09 0.95
3 0 7 3.67 1.47
-3 0 -7 2.78 1.4
3 0 7 5.75 2.46
-3 0 -8 200.35 11.82
3 0 8 187.07 11.25
-3 0 -8 188.68 12.21
3 0 8 178.59 12.46
-3 0 -9 114.8 9.56
3 0 9 117.29 8.77
-3 0 -9 114.62 9.23
3 0 9 98.18 9.47
3 0 10 4.01 2.11
-3 0 -10 6.21 1.86
-3 0 -10 4.79 1.98
3 0 10 4.8 1.26
3 0 11 0.69 1.08
-3 0 -11 2.23 1.5
-3 0 -11 -0.11 0.87
3 0 12 1.87 1.53
-3 0 -12 0.95 1.14
-3 0 -12 -0.29 0.79
3 0 13 3.75 2.21
-3 0 -13 4.17 2.23
-3 0 -13 2.62 1.79
3 0 14 8.14 2.91
-3 0 -14 6.11 2.58
3 0 15 13.94 4.04
-3 0 -15 11.13 3.61
3 0 16 2.19 1.58
-3 0 -16 7.91 3.49
-3 0 -17 1.48 2.65
3 0 17 5.06 2.91
3 0 18 -0.64 1.27
-3 0 -18 0.93 1.54
3 0 19 4.1 2.85
-3 0 -19 2.89 2.33
3 0 20 0.75 1.1
-3 0 -20 0 1.86
3 0 21 -3.65 2.53
-3 0 -21 0 2.13
-3 -1 21 1.49 1.94
3 1 -21 -1.43 1.62
-3 -1 20 0 0.85
3 1 -20 -5 2.73
-3 -1 19 -0.61 1.23
3 1 -19 -1.88 1.87
-3 -1 18 9.68 4.14
3 1 -18 8.54 3.29
-3 -1 17 8.32 3.77
3 1 -17 7.92 3.11
-3 -1 16 -0.84 0.81
3 1 -16 2.39 1.97
-3 -1 15 -0.41 1.24
3 1 -15 0.44 0.84
-3 -1 14 7.89 3.15
3 1 -14 6.34 2.38
3 1 -14 8.11 2.47
-3 -1 14 9.45 2.49
-3 -1 13 96.02 7.96
3 1 -13 64.59 7.64
3 1 -13 90.65 7.99
-3 -1 13 86.95 10.5
-3 -1 12 195.17 12.16
3 1 -12 145.15 11.23
3 1 -12 183.48 11.85
-3 -1 12 189.33 15.56
-3 -1 11 32.16 6.21
3 1 -11 28.92 4.65
3 1 -11 31.11 4.87
-3 -1 10 53.66 7.61
3 1 -10 48.17 5.96
-3 -1 10 56.06 6.48
3 1 -9 117.05 9.64
-3 -1 9 122.07 9.77
-3 -1 9 137.86 11.96
-3 -1 8 94.75 8.56
-3 -1 8 99.34 9.96
-3 -1 7 8.43 2.63
-3 -1 6 15.65 3.47
-3 -1 5 57.64 6.44
-3 -1 4 29.31 4.63
-3 -1 3 500.36 20.39
3 1 -3 442.44 18.79
-3 -1 2 78.09 7.4
3 1 -2 74.66 7.03
-3 -1 1 -2.65 2.07
3 1 -1 0.93 0.86
-3 -1 0 306.65 15.53
3 1 0 299.12 15.01
-3 -1 -1 0.17 1.4
3 1 1 -2.3 1.87
-3 -1 -2 159.3 10.89
-3 -1 -3 153.64 9.08
-3 -1 -3 153.92 10.94
-3 -1 -4 6.2 2.23
-3 -1 -4 7.03 1.87
-3 -1 -5 129.87 9.07
-3 -1 -5 118.09 9.52
-3 -1 -6 4.56 1.83
-3 -1 -6 3.78 1.68
-3 -1 -7 2.29 1.38
-3 -1 -7 3.41 1.72
3 1 8 9.73 2.89
-3 -1 -8 3.66 1.67
-3 -1 -8 6.69 2.15
3 1 9 6.78 2.07
-3 -1 -9 9.4 3.08
-3 -1 -9 5.64 1.93
3 1 10 1.6 1.08
-3 -1 -10 -0.82 1.43
-3 -1 -10 0.62 0.76
3 1 10 0.56 1.01
3 1 11 -0.7 1.09
-3 -1 -11 0.26 0.87
3 1 11 1.77 1.83
3 1 12 -0.33 1.77
-3 -1 -12 2.81 1.99
3 1 12 1.83 1.05
-3 -1 -12 1.93 1.82
3 1 13 2.6 1.75
3 1 13 4.76 1.91
-3 -1 -13 -4.56 2.5
-3 -1 -13 2.78 1.66
3 1 14 9.91 3.5
-3 -1 -14 7.08 3.01
3 1 15 8.91 3.33
-3 -1 -15 12.24 4.13
3 1 16 -1.31 1.17
-3 -1 -16 -0.41 1.54
3 1 17 5.01 2.53
-3 -1 -17 2.53 2.79
3 1 18 2.11 1.82
-3 -1 -18 2.9 3.4
3 1 19 -0.93 1.33
-3 -1 -19 4.43 2.86
3 1 20 0 0.78
-3 -1 -20 0 2.05
3 1 21 1.19 1.48
-3 -1 -21 0 1.67
-3 -2 21 -2.26 2.13
3 2 -21 -2.7 2.09
-3 -2 20 5.56 3.97
3 2 -20 1.71 2.32
-3 -2 19 -5.05 3.03
3 2 -19 -2.73 1.86
-3 -2 18 15.28 5.26
3 2 -18 8.21 3.06
-3 -2 17 8.75 3.8
3 2 -17 5.92 2.55
-3 -2 16 0.4 0.76
3 2 -16 -0.14 0.56
-3 -2 15 3.42 1.9
3 2 -15 4.87 2.47
-3 -2 14 4.94 2.29
3 2 -14 3.94 2.12
-3 -2 14 1.07 1.29
-3 -2 13 2.16 0.84
-3 -2 13 7.19 2.41
-3 -2 12 3.81 2.31
-3 -2 12 6.56 2.21
3 2 -12 3.66 1.89
-3 -2 11 29.41 5.11
3 2 -11 24.65 4.76
-3 -2 11 23.54 5.4
3 2 -10 85.5 9.08
-3 -2 10 93.12 10.51
-3 -2 10 117.47 10.04
-3 -2 9 11.65 3.63
-3 -2 9 15.71 3.63
3 2 -9 11.21 3.38
3 2 -8 60.43 7.41
-3 -2 8 70.45 8.65
-3 -2 8 73.25 8.13
-3 -2 7 27.93 4.8
-3 -2 7 26.08 4.96
3 2 -7 24.17 4.62
3 2 -6 1.19 1.05
-3 -2 6 2.81 1.58
-3 -2 6 -0.49 1.43
-3 -2 5 45.73 6.4
-3 -2 5 40.53 6.09
3 2 -5 37.22 5.75
3 2 -4 27.16 4.62
-3 -2 4 34.73 5.48
-3 -2 3 49.98 6.35
3 2 -3 42.19 5.82
3 2 -2 0.38 1.11
3 2 -1 76 8.24
3 2 0 27.46 4.72
3 2 1 1.21 1.2
-3 -2 -2 90.27 9.1
3 2 2 103.71 9.11
-3 -2 -3 16.28 3.66
3 2 3 15.06 3.57
-3 -2 -4 4.13 2.34
-3 -2 -4 4.8 2.15
3 2 4 2.99 1.34
-3 -2 -5 4.86 2.19
-3 -2 -5 2.73 1.53
3 2 5 1.87 1.11
-3 -2 -6 2.09 1.79
-3 -2 -6 4.08 2.1
3 2 6 4.32 1.95
-3 -2 -7 10.5 3.33
-3 -2 -7 11.39 3.31
3 2 7 11.13 2.96
-3 -2 -8 3.15 1.86
3 2 8 2.04 1.52
-3 -2 -8 1.84 1.6
-3 -2 -9 -1.12 1.04
-3 -2 -9 -3.27 2.31
3 2 9 0.29 0.88
-3 -2 -10 10.46 3.41
-3 -2 -10 7.16 3.29
3 2 10 7.62 2.19
-3 -2 -11 9.82 3.89
-3 -2 -11 8.26 3.36
-3 -2 -12 1.25 1.93
-3 -2 -12 2.56 1.99
-3 -2 -13 75.18 10.18
-3 -2 -13 100.48 11.93
3 2 13 59.81 8.24
-3 -2 -14 3.86 2.63
3 2 14 1.72 1.72
3 2 15 2.12 1.81
-3 -2 -15 3.9 2.87
3 2 16 0.78 1.59
-3 -2 -16 -1.02 2.3
3 2 17 -0.84 1.31
-3 -2 -17 1.14 1.77
3 2 18 1.83 2.12
-3 -2 -18 -3.75 2.66
3 2 19 2.68 2.05
-3 -2 -19 0 1.66
3 2 20 1.36 2.05
-3 -2 -20 3.93 2.83
3 3 -20 -3.11 2.02
-3 -3 19 1.43 1.67
3 3 -19 2.26 1.62
-3 -3 18 0 0.84
3 3 -18 0.08 0.52
-3 -3 17 0.12 2.09
3 3 -17 0.19 0.58
-3 -3 16 1.15 2
3 3 -16 2.88 1.7
-3 -3 15 3.52 2.65
-3 -3 14 1.08 1.73
3 3 -14 2.12 1.69
-3 -3 13 3.2 2.11
3 3 -13 3.68 2.75
3 3 -12 17.97 4.54
-3 -3 12 13.18 4.12
-3 -3 11 -0.72 1.57
-3 -3 11 1.22 0.86
3 3 -11 0.87 1.43
3 3 -10 3.86 2.53
-3 -3 10 2.91 1.61
-3 -3 10 2.89 1.55
-3 -3 9 0.57 0.76
-3 -3 9 2.89 1.94
3 3 -9 2.79 2.26
-3 -3 8 10.06 3.17
-3 -3 8 12.13 3.88
3 3 -8 8.52 3.16
-3 -3 7 6.29 2.65
-3 -3 7 3.38 1.65
3 3 -7 5.69 3.07
-3 -3 6 23.61 4.84
-3 -3 6 23.91 5.39
3 3 -6 23.17 5.32
-3 -3 5 0.54 1.02
-3 -3 5 5.5 3.15
3 3 -5 3.06 2.23
-3 -3 4 3.32 2.01
-3 -3 4 3.78 2.82
3 3 -4 -1.11 1.71
-3 -3 3 44.74 6.32
3 3 -3 41.67 7.02
-3 -3 3 47.55 7.15
-3 -3 2 11.59 2.93
3 3 -2 14.15 4.11
-3 -3 2 16.53 4.41
-3 -3 1 14.29 3.28
3 3 -1 17.84 4.47
-3 -3 1 13.18 3.95
-3 -3 0 48.46 5.91
3 3 0 44.19 6.91
-3 -3 0 39.9 6.56
3 3 1 3.29 2.03
-3 -3 -1 3.34 1.74
3 3 2 40.65 6.45
-3 -3 -2 38.4 6.26
3 3 3 127.31 11.48
-3 -3 -3 139.59 12.59
-3 -3 -4 10.46 3.45
3 3 4 7.57 2.54
3 3 5 1.16 0.76
-3 -3 -5 -1.46 2.42
-3 -3 -6 3.75 2.34
3 3 6 0.58 1.18
-3 -3 -6 5.53 2.76
-3 -3 -7 -0.19 1.18
-3 -3 -7 0.12 1.33
3 3 7 0.92 1.08
3 3 8 49.92 6.61
-3 -3 -8 51.25 8.07
-3 -3 -8 56.11 8.48
-3 -3 -9 129.51 13.04
3 3 9 109.07 9.93
-3 -3 -9 146.43 13.68
-3 -3 -10 3.45 2.58
-3 -3 -10 0.37 1.39
3 3 10 2.4 1.62
-3 -3 -11 -0.61 1.61
3 3 11 0.32 0.94
-3 -3 -12 -1.49 1.21
3 3 12 -0.33 1.1
-3 -3 -13 -3.78 2.81
3 3 13 0.68 0.63
-3 -3 -14 1.59 1.98
3 3 14 3.43 1.93
-3 -3 -15 2.71 2.89
3 3 15 0.38 0.76
-3 -3 -16 0.71 1.93
3 3 16 0.87 1.37
3 3 17 0 1.07
-3 -3 -17 0.57 2.28
3 3 18 1.64 1.95
-3 -3 -18 5.76 3.48
3 4 -18 6.03 2.76
-3 -4 18 -1.99 1.98
-3 -4 17 4.19 2.8
-3 -4 16 3.25 2.42
-3 -4 15 0.34 0.91
-3 -4 14 0.19 1.3
3 4 -14 4.01 2.14
-3 -4 13 0.1 0.85
3 4 -13 -3.14 2.87
-3 -4 12 2.69 2.5
3 4 -12 7.8 3.99
-3 -4 11 2.66 2.12
3 4 -11 -0.6 1.94
-3 -4 10 4.89 2.68
3 4 -10 1.94 1.92
-3 -4 9 -0.26 0.78
3 4 -9 -1.47 1.8
-3 -4 8 2.27 2.08
3 4 -8 4.32 2.52
-3 -4 7 24.6 5.35
3 4 -7 27.44 6.29
-3 -4 6 4.38 2.06
3 4 -6 5.28 2.81
-3 -4 5 12.62 3.44
3 4 -5 13.07 4.03
-3 -4 4 1.29 1.2
3 4 -4 -0.01 1.34
-3 -4 3 0.13 0.7
3 4 -3 0.04 1.43
-3 -4 2 2.73 1.97
-3 -4 2 0.1 0.49
3 4 -2 -2.19 2.42
-3 -4 1 10.15 3.93
-3 -4 1 11.41 2.74
3 4 -1 9.53 3.45
-3 -4 0 15.53 4
-3 -4 0 20.1 3.49
3 4 0 21.23 4.8
-3 -4 -1 54.95 8.47
3 4 1 51.25 7.76
3 4 2 60.25 8.38
3 4 3 25.12 5.43
3 4 4 163.45 13.98
3 4 5 0.04 1.33
3 4 6 -0.05 1.84
3 4 7 18.59 4.74
3 4 8 2.44 1.92
3 4 9 4.58 2.03
-3 -4 -9 4.91 2.94
-3 -4 -10 1.82 2.3
3 4 10 1.2 1.04
-3 -4 -11 1.11 1.71
3 4 11 0.42 0.58
3 4 12 0.27 0.8
-3 -4 -12 -5.33 3.03
-3 -4 -13 -2.32 3.76
-3 -4 -14 -4.34 3.03
-3 -4 -15 0.15 1.02
-3 -4 -16 7.27 3.96
3 4 16 1.6 1.51
-3 -5 15 7.57 3.76
3 5 -14 -4.61 2.94
-3 -5 14 0 1.38
3 5 -13 0.63 1.9
-3 -5 13 0 1.38
3 5 -12 0 1.92
-3 -5 12 -2.11 1.87
3 5 -11 0 0.98
-3 -5 11 2.07 1.8
-3 -5 10 0 0.76
3 5 -10 -2.5 2.17
-3 -5 9 2.57 1.87
3 5 -9 2.04 1.93
-3 -5 8 0 1.25
3 5 -8 5.91 3.4
-3 -5 7 0 1.1
3 5 -7 0.43 1.16
-3 -5 6 0 0.89
3 5 -6 1.84 2.25
3 5 -5 4.71 3.01
3 5 -4 1.57 2.33
3 5 -3 0.56 1.79
3 5 -2 0.3 1.23
3 5 -1 35.69 6.98
3 5 0 9.91 3.51
3 5 1 3.21 2.3
3 5 2 5.1 2.35
3 5 3 6 2.65
3 5 4 2.02 1.65
3 5 5 -0.85 1.75
3 5 6 -1.3 1.83
3 5 7 -1.4 1.87
3 5 8 4.39 2.61
3 5 9 6.35 3.04
3 5 10 -0.14 0.86
3 5 11 1.22 1.3
-3 -5 -12 1.48 3.23
3 5 12 2.76 2.06
-3 -5 -13 9 4.33
-3 -5 -14 0 1.73
3 6 -11 0 1.25
3 6 -10 2.72 2.25
3 6 -9 0 1.31
3 6 -8 0.22 0.84
3 6 -7 0.06 2.25
3 6 -6 12.7 5.06
3 6 -5 4.14 3.59
3 6 -4 0.67 2.61
3 6 -3 4.43 2.99
3 6 -2 11.08 4.3
3 6 -1 2.96 2.26
3 6 0 -0.81 1.15
3 6 1 -5.13 3.13
3 6 2 6.75 3.43
3 6 3 -1.6 1.99
3 6 4 -0.79 2.09
3 6 5 -0.3 0.96
3 6 6 -3.33 2.43
3 6 7 2.33 2.76
3 6 8 -2.22 2.04
3 6 9 0 1.09
4 -6 -8 0.55 1.09
4 -6 -7 1.37 1.63
4 -6 -6 5.02 3.06
4 -6 -5 -3.17 2.47
4 -6 -4 0.76 2.34
4 -6 -3 -3.84 2.64
4 -6 -2 -4.9 2.95
4 -6 -1 1.03 1.59
4 -6 0 -0.55 1.44
4 -6 1 0.84 1.69
4 -6 2 7.69 4.43
4 -6 3 1.78 2.33
4 -6 4 -3.04 2.29
4 -6 5 -1.6 1.75
4 -6 6 -0.23 0.92
4 -6 7 2.33 2.03
4 -6 8 -4.12 2.63
4 -5 -12 2.4 2.69
4 -5 -11 0 0.94
4 -5 -10 0 0.68
4 -5 -9 3.06 2.47
4 -5 -8 0.2 1.54
4 -5 -7 1.57 1.79
4 -5 -6 -0.2 1.62
4 -5 -5 -1.74 1.71
4 -5 -4 -0.67 1.4
4 -5 -3 4.33 2.73
4 -5 -2 0 1.2
4 -5 -1 1.78 2.16
4 -5 0 -2.18 2.02
4 -5 1 0.26 0.69
4 -5 2 6.84 3.21
4 -5 3 7.25 2.91
4 -5 4 2.23 1.83
4 -5 5 1.41 1.54
4 -5 6 1.64 0.88
4 -5 7 1.08 1.72
4 -5 8 2.13 2.26
4 -5 9 0 0.62
4 -5 10 0 1.01
4 -5 11 0 0.51
4 -5 12 1 2.28
4 -5 13 1.15 1.37
4 -4 -13 0.66 0.99
4 -4 -12 2.56 1.83
4 -4 -11 3.41 2.62
4 -4 -10 2.79 2.39
4 -4 -9 0.86 1.22
4 -4 -8 0.3 1.72
4 -4 -7 9.44 3.76
4 -4 -6 3.02 2.19
4 -4 -5 1.73 1.64
4 -4 -4 10.26 3.55
4 -4 -3 3.43 1.98
4 -4 -2 48.35 7.54
4 -4 -1 0.37 1.09
4 -4 0 -1.51 1.05
4 -4 1 15.1 4.2
4 -4 2 8.11 3.21
4 -4 3 4.31 2.19
4 -4 4 55.57 8.01
4 -4 5 43.07 6.97
4 -4 6 8.17 3.08
4 -4 7 5.76 2.7
4 -4 8 -0.04 0.95
4 -4 9 -1.36 1.66
4 -4 10 4 2.42
4 -4 11 -1.84 1.54
4 -4 12 -0.34 0.92
4 -4 13 -4.51 2.69
-4 3 18 -0.78 1.61
-4 3 17 0.93 1.7
-4 3 16 -0.35 0.81
-4 3 15 2.63 2.32
4 -3 -13 5.12 2.44
4 -3 -12 9.63 3.14
4 -3 -11 -0.09 0.64
4 -3 -10 0.61 0.61
4 -3 -9 7.54 3.08
4 -3 -8 0.81 0.85
4 -3 -7 23.31 5.3
4 -3 -6 15.99 4.32
4 -3 -5 -3.53 2.5
4 -3 -4 63.58 8.67
4 -3 -3 6.95 3.11
4 -3 -2 2.94 1.91
4 -3 -1 24.25 5.11
4 -3 -1 20.11 3.07
4 -3 0 3.53 1.44
4 -3 0 5.24 2.75
4 -3 1 25.13 3.89
4 -3 1 29.63 5.88
4 -3 2 36.14 6.27
4 -3 2 33.09 4.71
4 -3 3 22.07 4.11
4 -3 3 27.37 5.13
4 -3 4 3.61 1.63
4 -3 4 5.15 2.66
4 -3 5 1.99 1.05
4 -3 5 1.55 0.94
4 -3 6 2.33 1.74
4 -3 6 0.92 0.7
4 -3 7 -0.58 0.96
4 -3 7 0.59 0.93
4 -3 8 7.93 2.88
4 -3 8 11.86 3.63
4 -3 9 0.68 0.98
4 -3 9 1.13 1.29
4 -3 10 1.44 1.1
4 -3 10 2.07 1.66
4 -3 11 8.26 2.62
4 -3 11 6.16 2.68
4 -3 12 4.71 2.05
4 -3 12 3.63 2.29
4 -3 13 -1.02 1.52
4 -3 13 0.18 1.33
4 -3 14 -0.61 1.31
4 -3 15 0.59 1
4 -3 16 6.16 3.34
4 -3 17 0 1.61
-4 2 19 -0.57 1.27
-4 2 18 0.06 1.22
-4 2 17 -0.74 1.4
-4 2 16 0.77 1.3
-4 2 15 3.73 2.51
-4 2 14 14.7 5.37
4 -2 -14 9.37 2.85
4 -2 -13 12.64 3.04
4 -2 -13 15.47 4.1
4 -2 -12 11.2 2.66
4 -2 -12 11.36 3.29
4 -2 -11 4.44 1.67
4 -2 -11 6.89 2.48
4 -2 -10 19.5 3.46
4 -2 -10 17.3 4.22
4 -2 -9 20.91 3.44
4 -2 -9 16.52 4.28
4 -2 -8 24.93 5.35
4 -2 -7 -0.55 1.4
4 -2 -6 2.83 2.11
4 -2 -5 10.05 3.42
4 -2 -4 0.71 0.48
4 -2 -4 -0.42 1.33
4 -2 -3 46.39 6.92
4 -2 -3 47.94 4.23
4 -2 -2 0.46 0.41
4 -2 -2 1.1 0.95
4 -2 -1 2.76 1.06
4 -2 -1 3.98 1.85
4 -2 0 18.02 3.02
4 -2 0 16.97 4.34
4 -2 1 39.38 6.19
4 -2 1 35.24 4.45
4 -2 2 8.23 2.26
4 -2 2 8.72 3.29
4 -2 3 52.14 6.86
4 -2 3 41.81 5.32
4 -2 4 14.27 3.31
4 -2 4 12.91 3.32
4 -2 5 0.84 0.9
4 -2 5 1.18 1.45
4 -2 6 17.72 3.98
4 -2 6 23.31 4.77
4 -2 7 30.29 5.31
4 -2 7 41.44 6.28
4 -2 8 -0.66 1.01
4 -2 8 -0.54 1.59
4 -2 9 3.06 1.69
4 -2 9 4.42 2.05
4 -2 10 -0.94 1.36
4 -2 10 0.91 0.83
4 -2 11 24.3 5.32
4 -2 11 27.76 5.07
4 -2 12 7.26 2.9
4 -2 12 4.1 2.05
4 -2 13 1.41 1.73
4 -2 13 2.82 1.88
4 -2 14 1.34 1.31
4 -2 15 -0.87 1
4 -2 16 25.47 6.01
4 -2 17 9.33 3.97
4 -2 18 4.16 2.78
-4 1 20 0 0.82
4 -1 -20 0 1.04
-4 1 19 0.94 2.12
4 -1 -19 -2.14 1.85
-4 1 18 13.2 5.77
4 -1 -18 7.16 2.45
-4 1 17 3.13 3.07
4 -1 -17 -1.61 1.97
-4 1 16 8.29 4.13
4 -1 -16 2.57 1.63
-4 1 15 14.94 5.12
4 -1 -15 8.29 2.68
-4 1 14 1.44 1.8
-4 1 14 -2.47 1.67
4 -1 -14 -1.12 1.68
4 -1 -14 -1.18 1.03
-4 1 13 20.07 5.98
4 -1 -13 14.16 3.31
-4 1 13 19.5 4.08
4 -1 -13 11.74 3.26
4 -1 -12 4.99 1.83
-4 1 12 5.1 2.32
4 -1 -12 5.65 2.3
4 -1 -11 16.38 3.27
-4 1 11 17.75 4.12
4 -1 -10 9.38 2.11
4 -1 -9 5.49 1.77
4 -1 -8 0.74 0.88
4 -1 -7 15.47 2.41
4 -1 -6 28.52 3.03
4 -1 -5 17.44 1.98
4 -1 -4 2.18 0.55
4 -1 0 46.23 5.17
4 -1 1 100.92 8.04
4 -1 2 37.15 5.05
4 -1 3 0.75 0.93
4 -1 4 0.09 0.66
-4 1 -4 0.64 0.55
4 -1 5 12.58 3.35
-4 1 -5 14.8 2.11
4 -1 6 18.32 4.17
-4 1 -6 24.7 3.1
4 -1 7 14.57 3.59
-4 1 -7 20.46 3.07
-4 1 -8 109.21 7.94
4 -1 8 81.42 8.98
4 -1 9 10.21 3.11
-4 1 -9 15.44 3.19
4 -1 10 2.4 1.29
-4 1 -10 5.59 2.06
4 -1 11 40.64 6.59
-4 1 -11 52.82 6.67
4 -1 11 42.21 5.93
-4 1 -11 38.72 6.78
4 -1 12 2.32 1.94
-4 1 -12 5.46 2.65
-4 1 -12 0.2 1.58
4 -1 12 3.39 1.74
4 -1 13 -1.88 1.69
-4 1 -13 4.46 2.15
-4 1 -13 2.86 1.84
4 -1 13 2 0.87
4 -1 14 18.49 4.9
-4 1 -14 20.17 4.95
4 -1 15 8.81 3.51
-4 1 -15 2.15 1.66
4 -1 16 7.78 3.26
-4 1 -16 1.99 2.08
4 -1 17 2.43 2.56
-4 1 -17 3.12 2.14
4 -1 18 1.66 2.16
-4 1 -18 0 1.45
4 -1 19 6.59 3.36
-4 0 20 -4.16 3
4 0 -20 0.95 1.61
-4 0 19 0 1.48
4 0 -19 0.6 0.87
-4 0 18 0.25 1.52
4 0 -18 -1.2 1.33
-4 0 17 6.34 3.88
4 0 -17 2.66 2
-4 0 16 10.46 4.4
4 0 -16 10.65 3.38
-4 0 15 4.88 2.87
4 0 -15 7.4 2.81
-4 0 14 -1.7 0.92
4 0 -14 1.1 1.1
-4 0 14 -0.04 1.02
-4 0 13 8.43 2.63
-4 0 13 11.78 4.43
4 0 -13 8.75 2.95
-4 0 12 16.64 3.55
-4 0 12 23.01 5.8
4 0 -12 19.34 3.82
-4 0 11 23.65 4.41
4 0 -11 18.61 3.69
4 0 -11 19.41 4.2
4 0 -10 47.07 5.81
4 0 -10 41.35 6.23
-4 0 10 48.26 6.46
4 0 -9 180.77 11.05
4 0 -9 155.11 12.5
-4 0 9 173.88 12.97
4 0 -8 96.76 7.55
4 0 -8 93.52 9.46
-4 0 8 84.22 8.79
4 0 -7 -0.03 0.45
-4 0 7 -0.8 1.25
4 0 -7 1.97 1.77
4 0 -6 10.37 2.17
-4 0 6 10.48 3.09
4 0 -6 8.31 2.93
4 0 -5 99.87 9.81
-4 0 5 110.22 9.98
4 0 -4 13.63 3.82
-4 0 4 13.48 3.61
4 0 -3 279.42 16.72
-4 0 3 301.48 17.29
4 0 -2 11.86 3.98
-4 0 2 8.09 2.49
4 0 -2 6.07 1.37
4 0 -1 3.57 2.21
4 0 -1 1.63 0.65
-4 0 1 3.11 1.69
4 0 0 -1.15 1.96
4 0 0 0.58 0.41
-4 0 0 0.68 0.94
4 0 1 80.13 4.83
4 0 1 117.8 10.35
-4 0 -1 116.82 10.74
4 0 2 18.82 4.41
-4 0 -2 18.88 4.24
4 0 3 104.28 10.12
-4 0 -3 113.35 10.94
4 0 4 52.26 7.14
-4 0 -4 52.17 7.34
-4 0 -5 37.83 4.42
-4 0 -5 40.28 6.4
4 0 5 41.9 6.47
-4 0 -6 11.38 3.59
4 0 6 13 3.36
-4 0 -6 10.07 2.25
4 0 6 5.86 2.33
-4 0 -7 6.59 2.65
4 0 7 7.06 3.07
-4 0 -7 6 1.89
4 0 7 4.84 2.47
-4 0 -8 0.97 1.18
4 0 8 0.97 1.87
-4 0 -8 1.11 1.07
4 0 8 -1.14 1.78
4 0 9 24.52 5
-4 0 -9 26.23 5.26
-4 0 -9 32.06 4.99
4 0 9 33.76 5.34
4 0 10 12.17 3.65
-4 0 -10 11.06 3.47
-4 0 -10 12.95 3.32
4 0 10 9.54 2.46
4 0 11 14.91 4.17
-4 0 -11 15.6 4.25
-4 0 -11 20.02 4.23
4 0 12 11.48 3.77
-4 0 -12 8.58 2.92
-4 0 -12 11.87 3.47
4 0 13 0.87 1.09
-4 0 -13 0.03 1.41
-4 0 -13 0 0.89
4 0 14 8.7 2.94
-4 0 -14 4.09 2.05
4 0 15 1.61 1.78
-4 0 -15 3.19 2.08
4 0 16 -2.09 2.76
-4 0 -16 0 0.65
4 0 17 2.57 1.71
-4 0 -17 3.1 2.17
4 0 18 1.46 2.32
-4 0 -18 0 0.85
4 0 19 -5.4 3.04
-4 0 -19 -9.44 3.88
-4 -1 20 0 0.97
4 1 -20 2.36 2.38
-4 -1 19 3.39 4.05
4 1 -19 1.44 1.73
-4 -1 18 0 1.79
4 1 -18 3.33 2.18
-4 -1 17 5.48 2.71
4 1 -17 3.03 1.98
-4 -1 16 0.02 1.66
4 1 -16 -0.25 0.98
-4 -1 15 10.21 4.26
4 1 -15 9.93 3.49
-4 -1 14 3.47 2.11
4 1 -14 1.95 1.44
4 1 -14 6.07 2.62
-4 -1 14 4.4 2.2
-4 -1 13 2.08 2.69
4 1 -13 1.6 1.68
4 1 -13 -2.11 2.04
-4 -1 12 4.7 2.5
4 1 -12 4.35 2.04
4 1 -12 4.47 2.15
-4 -1 12 4.92 2.16
4 1 -11 35.21 5.67
-4 -1 11 46.45 7.89
4 1 -11 38.19 6.22
-4 -1 11 39.53 6.09
4 1 -10 66.3 8.42
-4 -1 10 71.94 8.36
-4 -1 10 73.55 9.89
4 1 -9 32.73 5.94
-4 -1 9 34.97 5.74
4 1 -8 77.98 8.89
-4 -1 8 87.36 9.31
4 1 -7 0.54 0.87
-4 -1 7 4.05 2.24
4 1 -6 8.7 3.04
-4 -1 6 12.77 3.52
-4 -1 5 43.02 6.47
4 1 -5 36.65 5.94
-4 -1 4 35.52 5.81
4 1 -4 35.18 5.85
-4 -1 3 23.59 4.58
4 1 -3 22.06 4.72
-4 -1 2 46.14 6.51
4 1 -2 48.14 6.66
-4 -1 1 51.19 6.94
4 1 -1 51.16 6.84
-4 -1 0 0.67 0.87
4 1 0 4.99 2.94
-4 -1 -1 -1.12 1.08
4 1 1 0.58 1.98
-4 -1 -2 2.36 1.96
4 1 2 1.87 1.92
-4 -1 -3 1.4 1.06
4 1 3 -1.93 1.47
-4 -1 -4 13.06 3.79
4 1 4 11.74 3.8
-4 -1 -5 98.38 8.33
4 1 5 100.33 9.75
-4 -1 -5 101.97 10.26
4 1 6 3.89 2.07
-4 -1 -6 3.44 1.79
-4 -1 -6 1.23 0.77
4 1 7 29.26 5.19
-4 -1 -7 27.43 4.71
-4 -1 -7 25.46 5.1
-4 -1 -8 22 4.7
4 1 8 24.24 4.79
-4 -1 -8 22.78 4.56
4 1 9 5.9 2.34
-4 -1 -9 8.94 3.31
-4 -1 -9 5.29 2.58
4 1 10 25.59 4.73
-4 -1 -10 25.32 5.14
-4 -1 -10 19.09 4.55
4 1 10 18.13 4.52
4 1 11 8.14 2.53
-4 -1 -11 9.62 3.39
-4 -1 -11 4.73 2.81
4 1 11 9.37 3.34
4 1 12 2.91 1.55
4 1 12 5.12 2.24
-4 -1 -12 3.57 1.85
-4 -1 -12 0.92 1.1
4 1 13 9.49 3.44
4 1 13 10.61 3.09
-4 -1 -13 12.24 4.29
4 1 14 -1.77 2.21
-4 -1 -14 2.83 2.58
4 1 15 0.65 1.27
-4 -1 -15 10.74 3.98
4 1 16 1 1.25
-4 -1 -16 0 2.41
4 1 17 2.91 2.88
-4 -1 -17 3.35 2.38
4 1 18 0 1.26
-4 -1 -18 0 2.08
4 1 19 -5.95 3.12
-4 -1 -19 0 1.66
-4 -2 19 -5.81 3.47
4 2 -19 -2.47 1.92
-4 -2 18 2.64 2.33
4 2 -18 -0.57 1
-4 -2 17 0.02 2.06
4 2 -17 0.05 0.98
-4 -2 16 0.03 1.29
4 2 -16 0.43 0.62
-4 -2 15 -0.8 1.54
4 2 -15 1.67 1.68
-4 -2 14 18.63 4.25
-4 -2 14 14.28 4.69
4 2 -14 13.48 3.75
4 2 -14 19.35 4.78
-4 -2 13 3.36 2.32
-4 -2 13 4.08 2.82
4 2 -13 1.74 1.15
-4 -2 12 -2.98 2.13
4 2 -12 0.86 0.83
-4 -2 12 -3.78 2.19
-4 -2 11 3.17 2.04
-4 -2 11 6.49 3.5
-4 -2 10 3.16 2.3
-4 -2 10 -0.46 1.59
-4 -2 9 32.53 6.55
-4 -2 9 30.36 5.98
-4 -2 8 1.76 2.15
-4 -2 8 4.45 1.49
-4 -2 7 15.55 4.31
4 2 -7 9.78 3.2
4 2 -6 5.58 2.34
4 2 -5 -0.48 1.37
-4 -2 4 0.84 0.81
4 2 -4 -1.59 1.03
-4 -2 3 17.83 4.01
4 2 -3 14.24 3.5
-4 -2 2 6.15 3.1
4 2 -2 5.78 2.39
-4 -2 1 16.39 4.28
4 2 -1 9.94 2.92
-4 -2 0 12.59 3.62
4 2 0 14.16 3.62
-4 -2 -1 2.86 0.96
4 2 1 2.7 1.67
-4 -2 -2 59.83 7.83
4 2 2 56.39 7.41
-4 -2 -3 140.53 12.13
4 2 3 127.15 11.01
4 2 4 14.12 3.82
4 2 5 102.76 9.89
-4 -2 -7 5.51 2.45
-4 -2 -7 4.15 2.14
-4 -2 -8 1.97 1.44
-4 -2 -8 2.98 2.23
-4 -2 -9 16.12 4.76
-4 -2 -9 18.65 4.68
-4 -2 -10 0.1 1.03
-4 -2 -10 -0.32 1.75
4 2 11 4.72 1.11
-4 -2 -11 4.85 2.88
-4 -2 -11 6.7 3.34
-4 -2 -12 0 1.56
4 2 12 1.69 1.74
-4 -2 -12 2.28 2.05
4 2 12 0.97 1.61
-4 -2 -13 3.36 2.25
4 2 13 4.23 1.72
-4 -2 -13 2.51 2.64
4 2 13 1.92 2.03
-4 -2 -14 -0.17 2.72
4 2 14 1.61 1.44
4 2 15 -3.05 2.72
-4 -2 -15 0 1.19
4 2 16 0.19 1.34
-4 -2 -16 5.93 3.3
4 2 17 0.05 2.18
-4 -2 -17 4.64 2.99
4 2 18 -3.04 2.28
-4 -2 -18 -4.08 2.89
-4 -3 18 6.15 3.6
4 3 -18 0 0.66
-4 -3 17 0 0.73
4 3 -17 0 0.6
-4 -3 16 -2.39 2.2
4 3 -16 1.27 1.33
-4 -3 15 5.62 4.25
-4 -3 14 9.52 4.47
-4 -3 14 11.78 3.92
-4 -3 13 1.32 1
-4 -3 13 3.78 2.43
4 3 -13 0.1 1.2
-4 -3 12 0.76 1.51
-4 -3 12 0.76 1.49
4 3 -12 0.18 0.83
-4 -3 11 0.7 2.2
4 3 -11 0.18 1.15
-4 -3 10 -0.27 0.84
-4 -3 10 -3.74 2.38
4 3 -10 -2.44 1.94
-4 -3 9 5.9 3.31
-4 -3 9 8.91 3.33
4 3 -9 6.39 2.92
-4 -3 8 1.19 0.89
-4 -3 8 0.27 0.8
4 3 -8 -0.95 1.69
-4 -3 7 17.42 5.1
-4 -3 7 10.75 3.87
4 3 -7 11.74 3.93
-4 -3 6 0.56 1.01
-4 -3 6 2.45 2.25
4 3 -6 -0.43 1.05
-4 -3 5 12.75 4.21
-4 -3 5 14.39 4.27
4 3 -5 12.74 3.93
-4 -3 4 12.48 3.8
-4 -3 4 13.62 4.44
4 3 -4 9.3 3.32
-4 -3 3 12.51 3.88
-4 -3 3 19.35 5.15
4 3 -3 14.65 4.09
-4 -3 2 1.61 1.61
4 3 -2 -6.98 3.21
-4 -3 1 37.87 7.05
4 3 -1 38.42 6.68
-4 -3 0 -1.06 1.13
4 3 0 1.09 1.72
4 3 1 94.75 10.14
-4 -3 -1 103.64 11.68
-4 -3 -2 16.97 4.73
4 3 2 8.25 2.67
-4 -3 -3 26.93 5.93
4 3 3 21.68 4.74
-4 -3 -4 46.52 7.72
4 3 4 39.02 6.23
-4 -3 -5 11.73 3.93
4 3 5 9.37 3.21
-4 -3 -6 1.13 1.2
4 3 6 0.76 1.15
-4 -3 -7 4.52 2.42
4 3 7 3.88 2.41
-4 -3 -8 6.02 3.17
-4 -3 -8 7.27 3.49
4 3 8 6.22 2.56
-4 -3 -9 6.46 3.24
-4 -3 -9 4.69 2.18
4 3 9 2.61 1.87
-4 -3 -10 5.65 3.88
-4 -3 -10 2.69 1.88
4 3 10 4.82 2.13
-4 -3 -11 3.19 2.39
-4 -3 -11 0.65 1.32
4 3 11 -1.77 1.66
-4 -3 -12 4.06 2.71
-4 -3 -12 -1.18 2.64
-4 -3 -13 0.38 1.3
-4 -3 -14 3.85 2.85
4 3 14 5.46 3.44
-4 -3 -15 0 1.6
4 3 15 1.05 1.01
-4 -3 -16 -0.91 1.54
4 3 16 2.08 2.47
-4 -4 16 5.51 3.47
-4 -4 15 0 0.84
-4 -4 14 0 1.02
4 4 -14 1.94 2.47
-4 -4 13 0 1.05
4 4 -13 0 1.37
-4 -4 12 0 1.9
4 4 -12 -1.25 1.6
-4 -4 11 0 1.29
4 4 -11 0.22 1.49
-4 -4 10 0.02 1.83
4 4 -10 -0.41 1.95
-4 -4 9 0.39 1.17
-4 -4 9 0 0.74
4 4 -9 -0.09 1.13
-4 -4 8 0 1.58
-4 -4 8 1.94 2.03
4 4 -8 0.36 1.61
-4 -4 7 13.54 4.27
-4 -4 7 10.32 3.97
4 4 -7 12.05 4.3
-4 -4 6 7.15 3.45
-4 -4 6 8.04 3.63
4 4 -6 10.02 3.92
-4 -4 5 0 2.84
4 4 -5 0.36 1.13
-4 -4 4 9.15 3.52
-4 -4 4 17.34 5.15
4 4 -4 6.66 2.94
-4 -4 3 0 0.77
-4 -4 3 0.3 1.95
4 4 -3 0.48 1.28
-4 -4 2 0 1.3
-4 -4 2 0.38 1.03
4 4 -2 -1.33 1.02
-4 -4 1 2.74 2.63
4 4 -1 3.09 1.96
-4 -4 0 7.06 3.84
4 4 0 0.09 1.67
-4 -4 -1 -1.53 1.27
4 4 1 -0.87 1.65
-4 -4 -2 1.53 2.04
4 4 2 -3.9 2.84
-4 -4 -3 5.34 2.5
4 4 3 2.44 0.96
-4 -4 -4 -0.68 1.34
4 4 4 1.46 0.75
-4 -4 -5 -0.9 1.33
4 4 5 3.95 2.74
-4 -4 -6 -0.57 1.46
4 4 6 1.52 0.73
-4 -4 -7 2.13 2.91
4 4 7 3.58 2.64
-4 -4 -8 1.4 2.28
4 4 8 0.68 1.5
4 4 9 4.16 2.32
4 4 10 5.14 2.44
-4 -4 -11 0.38 2.12
4 4 11 2.55 2.01
-4 -4 -12 2.85 2.45
4 4 12 2.39 1.64
-4 -4 -13 0 0.86
-4 -4 -14 3.46 2.85
-4 -5 12 0.01 2.39
4 5 -12 0 0.81
-4 -5 11 -4.03 2.73
4 5 -11 -5.35 3.13
-4 -5 10 -2.4 2.07
4 5 -10 0 1.51
-4 -5 9 3.39 2.39
4 5 -9 -2.99 2.39
4 5 -8 2.31 3.28
4 5 -7 -0.03 0.82
4 5 -6 0.05 1.32
4 5 -5 3.48 2.72
4 5 -4 2.55 1.26
4 5 -3 6.77 2.96
4 5 -2 2.87 2.17
4 5 -1 -2.42 2.84
4 5 0 0.65 1.35
4 5 1 7.72 4.08
4 5 2 -2.39 2.77
4 5 3 0.2 1.18
4 5 4 2.56 1.93
4 5 5 1.34 2.53
4 5 6 14.83 4.85
4 5 7 1.06 1.38
4 5 8 -1.41 1.57
4 5 9 3.15 2.52
4 5 10 6.42 3.4
4 5 11 -2.71 2.1
4 6 -6 -9.2 4.42
4 6 -5 0 2.94
4 6 -4 6.86 3.83
4 6 -3 -0.16 1.19
4 6 -2 3.79 2.93
4 6 -1 0 2.51
4 6 0 8.29 4.17
4 6 1 4.32 3.06
4 6 2 6.36 4.46
4 6 3 -2.95 2.56
4 6 4 -5.84 3.43
4 6 5 0.53 1.36
5 -5 -9 0 0.89
5 -5 -8 2.8 2.24
5 -5 -7 3.36 2.44
5 -5 -6 2.56 2.14
5 -5 -5 -0.04 1.51
5 -5 -4 1.52 2.46
5 -5 -3 6.95 3.46
5 -5 -2 1.75 1.85
5 -5 -1 0.16 0.68
5 -5 0 -0.17 0.84
5 -5 1 -0.89 1.38
5 -5 2 4.97 2.6
5 -5 3 1.63 2.12
5 -5 4 7.21 3.57
5 -5 5 1.95 1.82
5 -5 6 3.76 3
5 -5 7 7.27 3.52
5 -5 8 0 0.75
5 -5 9 -1.01 1.28
5 -4 -13 0.09 1.9
5 -4 -12 -3.58 2.32
5 -4 -11 0 0.85
5 -4 -10 -0.31 0.86
5 -4 -9 0 1.39
5 -4 -8 -3.93 2.51
5 -4 -7 -3.09 2.25
5 -4 -6 0.14 1.37
5 -4 -5 0.05 1.88
5 -4 -4 -2.6 2.36
5 -4 -3 10.36 3.81
5 -4 -2 12.25 3.9
5 -4 -1 5.3 2.61
5 -4 0 -0.94 1.07
5 -4 1 -1.08 1.7
5 -4 2 2.5 2.46
5 -4 3 11.45 3.72
5 -4 4 7.34 3
5 -4 5 1.39 1.68
5 -4 5 2.19 1.66
5 -4 6 0.1 1.29
5 -4 6 1.11 1.39
5 -4 7 2.94 2.38
5 -4 7 2.39 1.35
5 -4 8 -2.89 2
5 -4 8 0 0.78
5 -4 9 1.5 1.5
5 -4 9 2.47 2.02
5 -4 10 0 1.64
5 -4 10 -1.52 1.43
5 -4 11 -3.04 2.03
5 -4 11 0 0.66
5 -4 12 -0.56 0.99
5 -4 12 0.33 1.39
5 -3 -13 0 0.94
5 -3 -12 1.64 1.52
5 -3 -11 0 1.5
5 -3 -10 -0.13 0.91
5 -3 -9 2.93 2.15
5 -3 -8 3.82 2.78
5 -3 -7 21.64 5.36
5 -3 -6 3.07 2.28
5 -3 -5 3.75 2.35
5 -3 -4 4.36 2.4
5 -3 -3 0.18 1.22
5 -3 -2 -4.74 3.12
5 -3 -1 11.64 3.95
5 -3 0 3.83 2.07
5 -3 1 9.3 3.4
5 -3 2 44.6 7.54
5 -3 2 38.31 5.68
5 -3 3 -0.28 0.5
5 -3 3 0.44 1.2
5 -3 4 4.35 2.33
5 -3 4 5.46 2.62
5 -3 5 1.51 1.39
5 -3 5 -0.78 1.82
5 -3 6 0.84 1.33
5 -3 6 1.36 1.15
5 -3 7 1.48 1.17
5 -3 7 0.31 0.91
5 -3 8 5.05 2.49
5 -3 8 4.54 2.51
5 -3 9 11.23 3.79
5 -3 9 14.55 4.26
5 -3 10 -1.53 1.48
5 -3 10 2.03 1.63
5 -3 11 4.22 2.65
5 -3 11 0.84 1.68
5 -3 12 0.33 1.09
5 -3 12 2.73 1.97
5 -3 13 -0.86 1.45
5 -3 13 -0.83 1.19
5 -3 14 0.85 1.22
5 -3 15 0 1.11
-5 2 17 0.49 1.54
-5 2 16 3.66 3.17
-5 2 15 -0.96 1
5 -2 -13 -2.62 1.86
5 -2 -12 6.65 2.97
5 -2 -11 2.03 1.2
5 -2 -10 -0.99 1.75
5 -2 -9 2.17 2.34
5 -2 -8 36.17 7.02
5 -2 -7 6.3 3.3
5 -2 -6 0.35 1.01
5 -2 -5 15.04 4.55
5 -2 -4 2.06 1.99
5 -2 -3 51.75 7.93
5 -2 -2 52.87 7.93
5 -2 -1 10.76 2.4
5 -2 -1 9.47 3.45
5 -2 0 31.2 5.87
5 -2 0 29.79 4.26
5 -2 1 1.73 1.15
5 -2 1 -1.05 1.64
5 -2 2 2.2 1.33
5 -2 2 2.66 1.96
5 -2 3 8.12 2.55
5 -2 3 9.44 3.25
5 -2 4 9.81 2.81
5 -2 4 9.17 3.45
5 -2 5 15.09 3.72
5 -2 5 18.69 4.59
5 -2 6 7.81 2.64
5 -2 6 7.66 2.95
5 -2 7 56.55 8.29
5 -2 7 49.66 7.28
5 -2 8 2.07 1.41
5 -2 8 2.38 1.44
5 -2 9 2.32 1.71
5 -2 9 5.17 2.89
5 -2 10 -0.52 0.84
5 -2 10 1.31 2.23
5 -2 11 10.25 3.88
5 -2 11 14.6 3.96
5 -2 12 0.59 1.92
5 -2 12 -0.43 0.44
5 -2 13 -0.26 1.35
5 -2 13 -0.01 0.86
5 -2 14 -3.11 2.27
5 -2 15 0.87 1.91
5 -2 16 4.08 2.58
-5 1 18 0 1.57
-5 1 17 -1.71 2.1
-5 1 16 3.14 4.3
-5 1 15 4.81 3.84
-5 1 14 2.14 2.4
5 -1 -14 0.2 0.95
-5 1 13 12.08 3.79
5 -1 -13 3.75 2.41
-5 1 12 5.31 2.54
-5 1 11 1.16 1.02
-5 1 10 10.6 3.54
-5 1 9 48.7 8.01
-5 1 8 4.65 2.26
-5 1 7 161.55 15
5 -1 -1 16.78 3.43
5 -1 0 1.4 0.72
5 -1 1 6.77 2.39
5 -1 2 89.22 9.1
5 -1 3 76.97 8.5
5 -1 4 9.94 3.11
5 -1 5 -0.52 1.24
5 -1 6 9.32 3.14
5 -1 7 4.03 1.87
-5 1 -7 7.82 3.59
5 -1 8 2.43 2.04
-5 1 -8 -0.48 1.42
5 -1 9 3.83 2.23
-5 1 -9 1.14 1.81
5 -1 10 -1.05 1.32
-5 1 -10 0.02 1.23
5 -1 11 5.39 2.68
-5 1 -11 0 1.03
5 -1 11 5.91 2.73
5 -1 12 1.09 1.4
-5 1 -12 -2.54 1.98
5 -1 12 2.24 1.72
5 -1 13 -0.86 1.5
-5 1 -13 4.78 2.55
5 -1 13 2.42 1.58
5 -1 14 3.25 2.83
5 -1 15 2.95 2.3
5 -1 16 3.57 2.74
-5 0 18 -1.76 2.23
-5 0 17 12.91 6.1
-5 0 16 4.76 4.44
-5 0 15 0.97 1.1
-5 0 14 -0.68 1.45
-5 0 13 -0.67 2.18
-5 0 13 0.79 0.54
-5 0 12 5.79 2.78
-5 0 11 42.97 7.03
-5 0 10 0.06 1.03
5 0 -10 0.54 1.54
5 0 -9 68.23 9.07
-5 0 9 68.16 8.91
-5 0 8 9.43 3.26
5 0 -8 8.96 3.19
-5 0 7 3.15 2.19
5 0 -7 2.95 1.84
-5 0 6 3.48 2.27
5 0 -6 2.03 1.79
-5 0 5 0.78 1.04
5 0 -5 1.18 1.55
-5 0 4 38.69 6.93
5 0 -4 35.51 6.36
5 0 -3 67 8.88
-5 0 3 69.07 9.23
5 0 -2 55.6 8.19
-5 0 2 60.6 8.92
5 0 -1 116.23 12.13
-5 0 1 126.6 12.81
-5 0 0 2.02 1.65
5 0 0 4.58 2.8
-5 0 -1 39.45 7.39
5 0 1 40.03 6.89
-5 0 -2 15.01 4.78
5 0 2 11.78 4.39
-5 0 -3 4.9 3.01
5 0 3 2.05 1.22
-5 0 -4 9.91 4.17
5 0 4 10.89 3.33
-5 0 -5 0.62 1.27
5 0 5 3.97 2.11
-5 0 -6 1.87 2.43
5 0 6 4.25 2.91
5 0 6 1.35 1.34
-5 0 -7 8.67 3.61
5 0 7 14.12 4.06
5 0 7 10.81 3.5
-5 0 -8 1.27 2.09
5 0 8 2.38 1.31
5 0 8 -1.09 1.82
5 0 9 5.61 2.43
-5 0 -9 4.06 2.78
5 0 9 5.93 2.85
5 0 10 11.24 3.71
-5 0 -10 11.85 4.63
5 0 11 5.26 2.5
-5 0 -11 9.64 3.63
5 0 12 16.73 4.92
-5 0 -12 12.07 5.03
5 0 13 -0.51 1.07
5 0 14 0.89 1.88
5 0 15 2.92 2.13
5 0 16 -1.52 1.67
-5 -1 17 1.61 3.22
-5 -1 16 3.03 3.28
5 1 -16 1.83 1.65
-5 -1 15 1.38 2.39
5 1 -15 4.97 2.53
-5 -1 14 0.78 1.67
5 1 -14 5.34 2.38
5 1 -14 1.78 2.03
-5 -1 13 13.59 4.96
5 1 -13 7.26 2.47
5 1 -13 1.57 1.69
-5 -1 13 6.58 2.53
5 1 -12 0.85 0.52
-5 -1 12 -1.55 2.43
-5 -1 12 0.88 1.5
5 1 -11 2.47 1.81
-5 -1 11 0.77 1.74
5 1 -11 2.76 2.01
-5 -1 11 2.51 1.88
5 1 -10 8.02 2.82
5 1 -10 6.14 3.09
-5 -1 10 4.02 2.29
5 1 -9 25.3 5.43
-5 -1 9 23.31 5.32
5 1 -8 7.56 3.39
-5 -1 8 3.23 2.25
5 1 -7 15.41 4.69
-5 -1 7 14.33 4.1
5 1 -6 56.99 8.15
-5 -1 6 62.66 8.64
-5 -1 5 24.63 5.51
5 1 -5 28.37 5.89
-5 -1 4 53.83 8.04
5 1 -4 48.95 7.57
-5 -1 3 20.6 4.92
5 1 -3 14.44 4.14
-5 -1 2 21.78 5.23
5 1 -2 16.51 4.24
-5 -1 1 13.74 4.15
5 1 -1 18.07 4.78
-5 -1 0 -2.57 2.49
5 1 0 -1.25 1.55
-5 -1 -1 0.37 1.11
5 1 1 1.84 2.1
-5 -1 -2 7.64 3.18
5 1 2 5.38 1.76
-5 -1 -3 18.25 5.01
5 1 3 16.95 4.74
-5 -1 -4 17.4 4.76
5 1 4 20.12 4.97
5 1 5 150.85 14
-5 -1 -5 140.12 14.07
5 1 6 10.44 3.91
-5 -1 -6 10.2 3.88
5 1 7 39.17 6.93
-5 -1 -7 29.83 6.58
5 1 8 9.06 3.85
-5 -1 -8 2.17 1.51
-5 -1 -8 2.52 2.17
5 1 9 1.73 2.41
-5 -1 -9 3.89 2
-5 -1 -9 1.47 1.84
5 1 9 -0.47 0.82
5 1 10 7.51 2.8
-5 -1 -10 10.73 3.69
-5 -1 -10 5.84 2.91
5 1 10 9.66 3.76
5 1 11 1.29 1.72
-5 -1 -11 1.65 2.23
-5 -1 -11 0 0.79
5 1 11 2.53 2.19
5 1 12 1.89 1.63
5 1 12 -2.15 1.76
-5 -1 -12 2.08 1.73
5 1 13 -2.78 2.32
5 1 14 -2.7 2.29
5 1 15 1.08 2.1
5 1 16 -0.84 1.33
-5 -2 16 2.73 2.45
5 2 -16 2.7 2.17
-5 -2 15 14.78 5.49
5 2 -15 12.63 4.07
-5 -2 14 1.83 2.03
5 2 -14 1.84 1.42
5 2 -14 4.09 2.65
-5 -2 13 -0.02 1.1
5 2 -13 1.16 1.19
5 2 -13 0.46 1.74
-5 -2 12 4.94 3.52
5 2 -12 7.34 3.6
-5 -2 12 3.46 1.55
-5 -2 11 9.93 4.03
-5 -2 11 8.25 3.95
5 2 -11 11.34 3.91
-5 -2 10 18.54 5.69
5 2 -10 15.53 4.37
-5 -2 10 17.31 5.05
-5 -2 9 4.54 2.52
5 2 -9 0.73 1.47
-5 -2 9 3.54 2.65
-5 -2 8 16.24 5.19
5 2 -8 12.62 4.28
5 2 -7 29.12 6.55
-5 -2 6 0.84 1.8
-5 -2 5 5.94 2.84
-5 -2 4 -1.19 0.99
-5 -2 3 7.24 2.85
-5 -2 2 5.86 2.72
-5 -2 1 9.87 3.49
-5 -2 0 1.86 1.5
-5 -2 -1 42.21 7.24
-5 -2 -2 12.29 4.13
-5 -2 -3 69.3 9.62
-5 -2 -4 0.14 0.83
5 2 5 -0.37 1.45
-5 -2 -5 -0.1 0.84
5 2 6 -2.86 2.12
5 2 7 6.19 3.22
-5 -2 -8 2.4 1.96
5 2 8 6.92 3.04
-5 -2 -9 0.89 2.21
5 2 9 3.71 1.79
-5 -2 -9 1.2 0.88
-5 -2 -10 0 1.38
5 2 10 1.89 1.49
-5 -2 -10 1.34 1.47
5 2 11 -1.35 1.42
-5 -2 -11 2.3 1.94
-5 -2 -11 5.62 3.02
-5 -2 -12 -4.44 2.74
5 2 12 2.31 2
-5 -2 -12 2.64 2.16
5 2 12 0.73 1.54
-5 -2 -13 3.29 4.34
5 2 13 4.81 2.45
-5 -2 -14 0 1
5 2 14 1.84 2.59
5 2 15 1.88 1.94
-5 -2 -15 3.12 2.54
-5 -3 15 11.45 6.01
5 3 -15 5.99 3.03
-5 -3 14 2.13 2.1
5 3 -14 5.66 4.32
-5 -3 13 -0.6 1.26
5 3 -13 0.16 1.34
-5 -3 12 11.7 4.8
-5 -3 12 7.48 3.74
-5 -3 11 8.55 4.13
-5 -3 11 3.49 2.82
-5 -3 10 4.17 3.54
-5 -3 10 5.69 3.34
-5 -3 9 0.55 1.49
-5 -3 9 0.17 1.98
-5 -3 8 0.02 1.04
-5 -3 8 2.48 2.53
-5 -3 7 1.75 2.78
-5 -3 7 -0.18 1.12
5 3 -7 -0.44 1.29
-5 -3 6 2.43 3.05
-5 -3 6 4.05 2.95
5 3 -6 5.73 3.14
-5 -3 5 0.95 2.33
-5 -3 5 5.81 3.1
5 3 -5 1.01 1.24
-5 -3 4 33.09 7.23
-5 -3 4 18.85 5.84
5 3 -4 18.16 4.89
-5 -3 3 -3.39 2.86
5 3 -3 -3.47 2.05
-5 -3 2 5.85 3.18
5 3 -2 3.48 1.87
-5 -3 1 21.75 5.67
5 3 -1 14.82 4.25
-5 -3 0 1.73 2.51
5 3 0 1.55 1.58
-5 -3 -1 8.39 2.87
5 3 1 10.98 3.33
-5 -3 -2 2.6 1.46
5 3 2 1.97 1.56
-5 -3 -3 0.4 1.29
5 3 3 -3.94 2.39
-5 -3 -4 -2.55 2.25
5 3 4 -1.73 1.53
-5 -3 -5 -0.99 1.83
5 3 5 1.54 1.01
-5 -3 -6 0.22 1.73
-5 -3 -7 0.32 1.66
-5 -3 -8 5.44 3.17
-5 -3 -9 1.44 1.76
-5 -3 -10 0 0.69
5 3 11 2.34 2.14
-5 -3 -11 -4.29 2.93
5 3 12 1.27 1.53
-5 -3 -12 0 1.26
-5 -3 -13 19.7 6.24
-5 -4 12 3.13 2.55
-5 -4 12 2.55 2.33
5 4 -12 0 0.91
-5 -4 11 0 0.78
-5 -4 11 1.97 2.04
5 4 -11 0 0.76
-5 -4 10 0 0.68
-5 -4 10 0 0.86
5 4 -10 0 1.06
-5 -4 9 -0.77 1.32
-5 -4 9 -0.94 1.5
5 4 -9 -1.43 1.61
-5 -4 8 0 2.55
-5 -4 8 -2.08 2.17
-5 -4 7 0.37 0.76
5 4 -7 0.15 1.27
-5 -4 6 4.6 2.86
-5 -4 6 2.43 2.54
5 4 -6 -1.14 2.42
-5 -4 5 2.59 3.43
-5 -4 5 5.38 3.35
5 4 -5 6.99 3.02
-5 -4 4 -0.19 1.37
5 4 -4 1.95 2.15
-5 -4 3 12.16 4.51
5 4 -3 7.85 3.46
-5 -4 2 5 3.08
5 4 -2 4.92 3.09
-5 -4 1 3.32 1.87
5 4 -1 4.91 2.9
-5 -4 0 3.87 3.07
5 4 0 -1.71 2.35
-5 -4 -1 3.82 3.25
5 4 1 -2.36 2.34
-5 -4 -2 0.23 2.33
5 4 2 -0.63 0.83
-5 -4 -3 4.23 3.05
5 4 3 6.19 2.79
-5 -4 -4 -1.33 1.82
5 4 4 0.07 1.43
-5 -4 -5 4.01 2.89
5 4 5 4.57 2.42
-5 -4 -6 -2.42 2.24
5 4 6 1.8 1.9
-5 -4 -7 -4.4 3.02
5 4 7 0.34 1.01
-5 -4 -8 14.91 6.05
5 4 8 11.32 4.09
-5 -4 -9 0 1.38
5 4 9 2.62 2.48
-5 -4 -10 -3.03 2.63
-5 -4 -11 -1.33 1.8
5 5 -7 0 1.97
5 5 -6 0 1.2
5 5 -5 0 1.08
5 5 -4 0 2.4
5 5 -3 0.85 1.48
5 5 -2 3.43 2.93
5 5 -1 0.73 1.52
5 5 0 -4.03 2.68
5 5 1 4.06 3.64
5 5 2 0 1.13
5 5 3 5.69 3.63
5 5 4 3.39 2.44
5 5 5 -2.89 2.19
5 5 6 -6.01 3.08
6 -4 -8 0.22 0.76
6 -4 -7 1.47 2.41
6 -4 -6 2.4 2.11
6 -4 -5 1.9 2.5
6 -4 -4 5.74 3.12
6 -4 -3 1.33 2.06
6 -4 -2 2.92 2.41
6 -4 -1 -0.47 1.34
6 -4 0 -3.47 2.38
6 -4 1 0.05 0.7
6 -4 2 -2.11 1.91
6 -4 3 -7.4 3.4
6 -4 4 -0.87 1.26
6 -4 5 -4.95 2.8
6 -4 6 2.51 2.04
6 -4 7 0 0.61
6 -3 -11 1.59 1.69
6 -3 -10 1.5 1.64
6 -3 -9 -0.42 0.94
6 -3 -8 3.03 2.28
6 -3 -7 -0.02 1.2
6 -3 -6 5.22 3.26
6 -3 -5 3.68 2.78
6 -3 -4 -2.33 2.95
6 -3 -3 -2.17 2.04
6 -3 -2 1.66 1.73
6 -3 -1 2.32 1.57
6 -3 0 5.42 3.37
6 -3 1 4.27 2.65
6 -3 2 -3.02 2.49
6 -3 3 1.88 2.37
6 -3 4 0.49 1.05
6 -3 5 1.24 1.78
6 -3 6 0 0.79
6 -3 6 0.21 1.36
6 -3 7 -4.11 2.27
6 -3 7 4.08 2.53
6 -3 8 4.1 2.82
6 -3 8 2.58 2.04
6 -3 9 1.51 2.19
6 -3 9 0 1.96
6 -3 10 -0.9 1.2
6 -3 10 0 1.29
-6 2 13 -0.54 1.73
6 -2 -13 0 0.5
-6 2 12 1.29 1.91
6 -2 -12 3.3 3.12
-6 2 11 -2.01 1.99
6 -2 -11 1.18 2.12
-6 2 10 -0.51 1.15
6 -2 -10 0 1.77
6 -2 -9 -5.31 3
6 -2 -8 0.34 1.12
6 -2 -7 21.49 5.5
6 -2 -6 4.78 2.49
6 -2 -5 3.68 2.24
6 -2 -4 6.8 3.27
6 -2 -3 4.82 2.97
6 -2 -2 2.5 2.3
6 -2 -1 3.48 2.61
6 -2 0 -0.5 1.44
6 -2 1 0.95 1.75
6 -2 2 -1.92 1.36
6 -2 2 0.31 2.48
6 -2 3 1.91 1.55
6 -2 3 -0.98 1.82
6 -2 4 2.4 1.8
6 -2 4 -0.71 2.05
6 -2 5 0.93 1.39
6 -2 5 0.41 1.08
6 -2 6 1.23 1.84
6 -2 6 0.96 1.61
6 -2 7 2.27 2.21
6 -2 7 0.52 1.4
6 -2 8 1.47 1.49
6 -2 8 1.93 1.79
6 -2 9 0 1.91
6 -2 9 1.15 1.44
6 -2 10 0 0.85
-6 2 -10 0 2.22
6 -2 10 0 1.03
6 -2 11 2.72 2.13
-6 2 -11 0 2.2
6 -2 11 1.92 1.73
6 -2 12 0 1.12
-6 2 -12 -3.74 2.71
6 -2 12 -2.24 1.81
-6 1 13 0.07 0.64
6 -1 -13 -1.24 1.43
-6 1 12 -1.86 1.71
-6 1 11 1.71 1.71
-6 1 10 1.81 2.17
-6 1 9 4.85 3.21
-6 1 8 6.92 3.52
-6 1 7 4.41 2.88
-6 1 6 0.65 1.46
-6 1 5 2.87 2.33
-6 1 4 9.46 3.91
-6 1 3 -0.4 1.59
-6 1 2 -2.12 2.14
-6 1 1 0.67 2.59
6 -1 -1 -0.88 0.96
-6 1 0 -3.9 1.5
6 -1 0 2.75 1.99
6 -1 1 15.35 4.13
-6 1 -1 17.2 5.22
6 -1 2 5.37 2.68
-6 1 -2 8.49 3.95
6 -1 3 5.84 2.67
-6 1 -3 8.4 4.07
6 -1 4 -0.09 1.12
-6 1 -4 -1.09 2.38
6 -1 5 5.25 3.07
-6 1 -5 -0.39 1.33
6 -1 6 0.46 1.31
-6 1 -6 0.77 1
6 -1 7 0.2 2.01
-6 1 -7 0.25 2.37
6 -1 8 1.72 2.3
-6 1 -8 0 1.79
6 -1 9 -1.11 1.33
-6 1 -9 8.77 4.2
6 -1 10 0 1.18
-6 1 -10 4.62 3.04
6 -1 11 -0.85 1.22
-6 1 -11 1.32 1.71
6 -1 11 0.89 1.62
6 -1 12 0 0.98
-6 1 -12 0 1.62
6 -1 12 -3.46 2.27
6 -1 13 0 1.57
-6 0 14 -3.25 2.82
-6 0 13 -3.27 2.8
-6 0 13 0.39 1.22
-6 0 12 0.46 0.73
-6 0 11 0.15 1.4
-6 0 10 -1.62 1.79
-6 0 9 2.29 1.96
-6 0 8 2.33 1.96
6 0 -8 1.17 1.56
-6 0 7 0.39 0.94
6 0 -7 1.47 1.25
-6 0 6 -0.86 1.72
6 0 -6 -0.56 1.62
-6 0 5 5.35 3.04
6 0 -5 3.73 2.15
-6 0 4 28.87 6.4
6 0 -4 25.94 5.69
-6 0 3 0.19 1.42
6 0 -3 -1.26 1.71
-6 0 2 20.15 5.49
6 0 -2 22.18 5.5
-6 0 1 1.4 1.38
6 0 -1 5.02 2.25
-6 0 0 -0.21 1.25
6 0 0 3.54 2.4
-6 0 -1 9.72 4.02
6 0 1 11.95 4.25
-6 0 -2 3.04 2.53
6 0 2 4.99 2.81
-6 0 -3 2.23 2.04
6 0 3 -3.45 2.07
-6 0 -4 2.71 2.18
6 0 4 3.49 2.33
6 0 4 2.44 1.77
-6 0 -5 53.92 10.09
6 0 5 52.8 8.69
6 0 5 39.85 7.15
-6 0 -6 -3.46 2.69
6 0 6 2.1 1.5
6 0 6 -2.5 2.43
-6 0 -7 0.47 2.19
6 0 7 3.29 2.67
6 0 8 3.26 1.64
-6 0 -8 0.04 3.15
6 0 9 2.35 2.21
-6 0 -9 0 2.74
6 0 10 -2.07 1.92
-6 0 -10 0 0.7
-6 0 -11 0 2.16
6 0 11 -6.77 3.34
6 0 12 0 1.46
-6 0 -12 -2.93 2.28
6 0 13 -1.67 1.21
-6 -1 14 -3.28 2.79
-6 -1 13 10.24 5.67
6 1 -13 2.86 2.41
-6 -1 13 3.96 2.7
-6 -1 12 0.01 2.35
6 1 -12 1.94 2.81
-6 -1 12 -0.22 0.74
-6 -1 11 2.07 2.14
6 1 -11 -1.42 0.92
-6 -1 11 -3.42 2.4
6 1 -10 0.03 1.16
-6 -1 10 -2.21 2.39
6 1 -9 4.87 2.93
-6 -1 9 5.98 3.49
6 1 -8 0.97 1.79
-6 -1 8 1.34 1.49
6 1 -7 -0.86 2.23
-6 -1 7 2.43 2.02
6 1 -6 11.31 3.92
-6 -1 6 10.99 4.19
6 1 -5 15.74 5.27
-6 -1 5 21.6 5.84
6 1 -4 10.09 4.18
-6 -1 4 10.09 3.4
6 1 -3 0.58 1.14
-6 -1 3 0.75 1.48
6 1 -2 2.68 2.81
-6 -1 2 0.29 1.64
6 1 -1 -0.46 1.5
-6 -1 1 -1.17 2.08
6 1 0 18.06 5.48
-6 -1 0 11.96 4.22
6 1 1 7.42 2.95
-6 -1 -1 5.41 2.98
6 1 2 2.28 2.57
-6 -1 -2 5.47 3.18
6 1 3 8.62 3.25
-6 -1 -3 9.08 3.61
6 1 4 3.35 2.45
-6 -1 -4 3.77 2.92
6 1 5 -4.12 3.22
-6 -1 -5 -1.12 1.99
6 1 6 10.64 4.06
-6 -1 -6 7.18 4.32
6 1 7 1.35 1.46
-6 -1 -7 4.82 3
-6 -1 -8 0 1.25
6 1 8 0.46 1.51
6 1 9 0 1.4
-6 -1 -9 0 2.14
6 1 9 1.24 1.49
6 1 10 0.51 1.08
-6 -1 -10 0 1.85
6 1 10 -1.74 1.79
6 1 11 -2.63 2.18
6 1 11 0 1.2
6 1 12 -2.54 2.18
6 1 12 2.36 2.23
-6 -1 -12 6.4 3.29
-6 -2 13 2.96 2.63
-6 -2 13 -2.93 2.31
6 2 -13 -4.36 3
-6 -2 12 0 1.05
6 2 -12 -2.09 2.13
-6 -2 12 0 0.61
-6 -2 11 -2.26 2.29
6 2 -11 -0.33 0.99
-6 -2 11 2.13 2.31
-6 -2 10 6.17 4.14
6 2 -10 4.43 3.34
-6 -2 9 2.88 2.47
6 2 -9 -3.2 2.44
-6 -2 9 -3 2.29
6 2 -8 2.72 2.94
6 2 -7 -0.76 0.97
6 2 -6 2.09 2.7
-6 -2 6 0.07 1.17
6 2 -5 2.83 2.79
-6 -2 5 2.33 2.02
6 2 -4 10.48 4
-6 -2 4 4.27 2.52
6 2 -3 2.41 1.95
-6 -2 3 1.41 2.19
6 2 -2 1.88 1.75
-6 -2 2 4.94 3.17
6 2 -1 0.42 1.24
-6 -2 1 -0.96 1.1
6 2 0 3.6 2.42
-6 -2 0 4.17 2.93
6 2 1 7.75 3.56
-6 -2 -1 0.54 0.95
6 2 2 0 1.34
-6 -2 -2 2.71 2.23
6 2 3 3.09 1.82
-6 -2 -3 0.21 0.92
6 2 4 5.47 3.4
-6 -2 -4 1.79 2.44
6 2 5 1.94 1.55
6 2 6 0.98 1.07
6 2 7 0.34 0.97
6 2 8 0 0.62
-6 -2 -8 0 1.07
6 2 9 2.34 1.93
-6 -2 -9 0 1.28
-6 -2 -10 0 1.62
6 2 10 1.51 1.63
-6 -2 -11 0 1.6
6 2 11 0.41 0.95
6 2 11 1.17 2.21
-6 -3 10 -7.67 4.11
-6 -3 10 -4.76 3.12
6 3 -10 2.81 2.9
6 3 -9 -0.82 1.34
-6 -3 9 1.4 1.67
-6 -3 8 3.07 2.55
6 3 -8 0.57 1.23
-6 -3 8 5.19 4.21
-6 -3 7 0 1.26
6 3 -7 1.58 2.8
-6 -3 7 0 1.1
-6 -3 6 0 0.92
-6 -3 6 -5.2 3.22
-6 -3 5 3.05 3.17
-6 -3 5 0 1.89
-6 -3 4 -0.12 1.87
-6 -3 3 -4.53 3.69
-6 -3 2 -0.06 1.94
-6 -3 1 3.5 2.67
-6 -3 0 3.99 2.95
-6 -3 -1 2.91 2.59
-6 -3 -2 0.17 1.03
-6 -3 -3 -4.45 3.07
-6 -3 -4 1.47 2.8
6 3 4 2.94 2.64
6 3 5 4.19 2.93
-6 -3 -5 2.52 3.19
6 3 6 3.48 2.32
-6 -3 -6 0 1.97
6 3 7 0 1.08
-6 -3 -7 -4.27 3.12
6 3 8 2.53 2
-6 -3 -8 0 0.96
-6 -3 -9 5.04 3.35
6 3 9 5.91 3.78
-6 -4 6 2.66 2.2
-6 -4 5 9.73 5.02
-6 -4 4 -2.94 3.09
-6 -4 3 6.22 3.69
-6 -4 2 6.97 4.39
-6 -4 1 -1.67 2.19
-6 -4 0 4.22 3.47
-6 -4 -1 7.19 4.12
-6 -4 -2 2.73 2.54
-6 -4 -3 1.94 2.24
-6 -4 -4 -0.91 1.6
-7 2 7 0.85 1.65
7 -2 -7 4.95 3.1
-7 2 6 0.71 1.57
7 -2 -6 2.45 2.13
-7 2 5 7.02 4.85
7 -2 -5 5.74 3.24
-7 2 4 -2.49 2.96
7 -2 -4 2.73 2.67
-7 2 3 -2.19 2.4
7 -2 -3 1.26 2.79
7 -2 -2 4.87 3.71
-7 2 2 5.17 3.7
7 -2 -1 0.98 1.5
-7 2 1 1.03 2.07
7 -2 0 9.17 4.66
-7 2 0 0.55 1.38
7 -2 1 -2.74 2.28
-7 2 -1 1.51 1.97
7 -2 2 -1.46 1.68
-7 2 -2 0.91 1.8
-7 2 -3 -3.27 2.89
7 -2 3 0 1.52
-7 2 -4 2.49 2.48
7 -2 4 0 0.68
-7 2 -5 -5.77 3.75
7 -2 5 0 1.56
-7 1 8 0.12 2.45
-7 1 7 3.94 3.41
-7 1 6 5.1 4.02
-7 1 5 0 1.07
-7 1 4 5.98 4.47
-7 1 3 -2.19 2.32
-7 1 2 1.39 2.37
-7 1 1 3.51 3.19
-7 1 0 3.02 3.06
-7 1 -1 0.27 1.06
-7 1 -2 3.09 3.25
7 -1 3 0 0.92
-7 1 -3 4.2 3.21
7 -1 4 2.83 2.59
-7 1 -4 4.42 4.34
7 -1 5 0.46 1.6
-7 1 -5 -2.79 2.71
7 -1 6 8.3 4.58
-7 1 -6 0 3.15
7 -1 7 5.6 3.01
-7 1 -7 9.82 4.87
-7 0 9 -2.89 2.73
-7 0 8 0.74 1.83
-7 0 7 1.87 3.06
-7 0 6 -2.18 2.19
-7 0 5 0 0.65
-7 0 4 2.49 2.35
-7 0 3 0.27 1.05
-7 0 2 0 0.74
-7 0 1 9.34 4.85
-7 0 0 -0.79 1.52
-7 0 -1 1.63 2.38
7 0 1 0.25 1.33
-7 0 -2 2.35 2.94
7 0 2 -1.67 1.59
-7 0 -3 2.77 3.63
7 0 3 -4.35 2.57
-7 0 -4 0 1.62
7 0 4 0 0.98
-7 0 -5 6.92 5.93
7 0 5 2.46 3.22
7 0 6 -1.2 1.49
-7 0 -6 0 0.95
7 0 7 4.51 2.81
-7 0 -7 6.13 3.84
7 1 -8 2.09 2.06
-7 -1 8 2.58 2.66
7 1 -7 4.29 2.91
-7 -1 7 5.12 4.13
7 1 -6 -6.71 3.55
-7 -1 6 0.96 1.5
7 1 -5 5.86 3.32
-7 -1 5 -2.05 2.06
7 1 -4 -3.49 2.55
-7 -1 4 0 1.73
7 1 -3 3.33 3.25
-7 -1 3 -3.46 2.85
7 1 -2 1.56 1.9
-7 -1 2 3.08 2.54
7 1 -1 4.48 3.21
-7 -1 1 -2.83 2.62
7 1 0 10.9 4.57
-7 -1 0 8.67 4.67
7 1 1 0.94 1.78
-7 -1 -1 -2.97 2.59
7 1 2 5.28 2.33
-7 -1 -2 -2.01 2.23
7 1 3 7.91 3.77
-7 -1 -3 3.03 3.96
7 1 4 -5.75 3.22
-7 -1 -4 0 2.63
7 1 5 3.08 3.02
-7 -1 -5 2.46 3.24
7 1 6 0 1.52
7 1 6 0 0.83
7 2 -5 0 2.52
7 2 -4 5.29 4.23
7 2 -3 0 2.28
-7 -2 3 2.93 2.38
7 2 -2 2.02 1.96
-7 -2 2 2.7 2.86
7 2 -1 2.47 2.14
-7 -2 1 2.92 3.53
7 2 0 1.42 1.77
-7 -2 0 0 1.18
7 2 1 -3.31 2.49
-7 -2 -1 4.54 4.02
7 2 2 4.98 3.01
-7 -2 -2 4 3.41
7 2 3 -1.04 1.47
loop_
_geom_angle_atom_site_label_1
_geom_angle_atom_site_label_2
_geom_angle_atom_site_label_3
_geom_angle
_geom_angle_site_symmetry_1
_geom_angle_site_symmetry_3
_geom_angle_publ_flag
N2 N1 C7 120.3(2) . . ?
C5 N1 N2 110.6(2) . . ?
C5 N1 C7 129.1(2) . . ?
N3 N2 N1 106.7(2) . . ?
N2 N3 C4 109.2(2) . . ?
O1 N4 O2 124.7(3) . . ?
O1 N4 C6 117.6(2) . . ?
O2 N4 C6 117.6(3) . . ?
N6 N5 C2 176.5(3) . . ?
O3 C1 C2 124.0(3) . . ?
O3 C1 C4 120.4(3) . . ?
C2 C1 C4 115.6(3) . . ?
N5 C2 C1 115.1(3) . . ?
N5 C2 H2 116.6(16) . . ?
C1 C2 H2 128.3(16) . . ?
N3 C4 C1 123.8(2) . . ?
N3 C4 C5 108.4(2) . . ?
C5 C4 C1 127.6(2) . . ?
N1 C5 C4 105.0(2) . . ?
N1 C5 H5 122.5(16) . . ?
C4 C5 H5 132.4(16) . . ?
C7 C6 N4 122.0(2) . . ?
C3 C6 N4 117.0(2) . . ?
C3 C6 C7 121.0(3) . . ?
C6 C7 N1 121.3(2) . . ?
C8 C7 N1 120.1(2) . . ?
C8 C7 C6 118.6(2) . . ?
C7 C8 H8 119.5 . . ?
C7 C8 C9 121.0(3) . . ?
C9 C8 H8 119.5 . . ?
C8 C9 H9 120.1 . . ?
C10 C9 C8 119.8(3) . . ?
C10 C9 H9 120.1 . . ?
C9 C10 H10 119.6 . . ?
C9 C10 C3 120.7(3) . . ?
C3 C10 H10 119.6 . . ?
C6 C3 C10 118.8(3) . . ?
C6 C3 H3 120.6 . . ?
C10 C3 H3 120.6 . . ?
loop_
_geom_bond_atom_site_label_1
_geom_bond_atom_site_label_2
_geom_bond_distance
_geom_bond_site_symmetry_2
_geom_bond_publ_flag
O1 N4 1.219(3) . ?
O2 N4 1.219(3) . ?
O3 C1 1.233(3) . ?
N1 N2 1.363(3) . ?
N1 C5 1.335(3) . ?
N1 C7 1.436(3) . ?
N2 N3 1.301(3) . ?
N3 C4 1.360(3) . ?
N4 C6 1.474(3) . ?
N5 N6 1.124(3) . ?
N5 C2 1.314(4) . ?
C1 C2 1.429(4) . ?
C1 C4 1.480(4) . ?
C2 H2 0.95(3) . ?
C4 C5 1.362(3) . ?
C5 H5 0.89(3) . ?
C6 C7 1.392(3) . ?
C6 C3 1.380(3) . ?
C7 C8 1.372(4) . ?
C8 H8 0.9300 . ?
C8 C9 1.374(4) . ?
C9 H9 0.9300 . ?
C9 C10 1.371(4) . ?
C10 H10 0.9300 . ?
C10 C3 1.380(4) . ?
C3 H3 0.9300 . ?
loop_
_geom_torsion_atom_site_label_1
_geom_torsion_atom_site_label_2
_geom_torsion_atom_site_label_3
_geom_torsion_atom_site_label_4
_geom_torsion
_geom_torsion_site_symmetry_1
_geom_torsion_site_symmetry_2
_geom_torsion_site_symmetry_3
_geom_torsion_site_symmetry_4
_geom_torsion_publ_flag
O1 N4 C6 C7 -37.6(4) . . . . ?
O1 N4 C6 C3 139.3(3) . . . . ?
O2 N4 C6 C7 145.5(3) . . . . ?
O2 N4 C6 C3 -37.6(4) . . . . ?
O3 C1 C2 N5 -1.9(5) . . . . ?
O3 C1 C4 N3 177.3(3) . . . . ?
O3 C1 C4 C5 2.6(5) . . . . ?
N1 N2 N3 C4 0.4(3) . . . . ?
N1 C7 C8 C9 -179.2(3) . . . . ?
N2 N1 C5 C4 0.8(3) . . . . ?
N2 N1 C7 C6 -52.2(4) . . . . ?
N2 N1 C7 C8 126.6(3) . . . . ?
N2 N3 C4 C1 -175.6(2) . . . . ?
N2 N3 C4 C5 0.1(3) . . . . ?
N3 C4 C5 N1 -0.6(3) . . . . ?
N4 C6 C7 N1 -6.0(4) . . . . ?
N4 C6 C7 C8 175.3(3) . . . . ?
N4 C6 C3 C10 -175.2(3) . . . . ?
C1 C4 C5 N1 174.9(3) . . . . ?
C2 C1 C4 N3 -2.7(4) . . . . ?
C2 C1 C4 C5 -177.5(3) . . . . ?
C4 C1 C2 N5 178.1(3) . . . . ?
C5 N1 N2 N3 -0.8(3) . . . . ?
C5 N1 C7 C6 125.6(3) . . . . ?
C5 N1 C7 C8 -55.6(4) . . . . ?
C6 C7 C8 C9 -0.4(4) . . . . ?
C7 N1 N2 N3 177.4(2) . . . . ?
C7 N1 C5 C4 -177.2(2) . . . . ?
C7 C6 C3 C10 1.7(4) . . . . ?
C7 C8 C9 C10 1.9(5) . . . . ?
C8 C9 C10 C3 -1.7(5) . . . . ?
C9 C10 C3 C6 -0.1(5) . . . . ?
C3 C6 C7 N1 177.3(2) . . . . ?
C3 C6 C7 C8 -1.5(4) . . . . ?
