#------------------------------------------------------------------------------
#$Date: 2022-04-03 23:15:18 +0300 (Sun, 03 Apr 2022) $
#$Revision: 274265 $
#$URL: file:///home/coder/svn-repositories/cod/cif/4/51/94/4519413.cif $
#------------------------------------------------------------------------------
#
# This file is available in the Crystallography Open Database (COD),
# http://www.crystallography.net/
#
# All data on this site have been placed in the public domain by the
# contributors.
#
data_4519413
loop_
_publ_author_name
'Ryll, Christopher'
'Kraushaar, Konstantin'
'Wagler, J\"org'
'Brendler, Erica'
'Kroke, Edwin'
_publ_section_title
;
 Disilanes with Pentacoordinate Si Atoms by Carbon Dioxide Insertion into
 Aminodisilanes: Syntheses, Molecular Structures, and Dynamic Behavior.
;
_journal_issue                   11
_journal_name_full               'ACS omega'
_journal_page_first              9527
_journal_page_last               9536
_journal_paper_doi               10.1021/acsomega.1c06868
_journal_volume                  7
_journal_year                    2022
_chemical_formula_moiety         'C16 H32 N2 O4 Si2'
_chemical_formula_sum            'C16 H32 N2 O4 Si2'
_chemical_formula_weight         372.61
_space_group_crystal_system      triclinic
_space_group_IT_number           2
_space_group_name_Hall           '-P 1'
_space_group_name_H-M_alt        'P -1'
_atom_sites_solution_hydrogens   geom
_atom_sites_solution_primary     ShelXT
_audit_creation_method           SHELXL-2014/7
_cell_angle_alpha                67.142(8)
_cell_angle_beta                 66.196(8)
_cell_angle_gamma                88.700(9)
_cell_formula_units_Z            1
_cell_length_a                   7.6684(9)
_cell_length_b                   8.5044(9)
_cell_length_c                   8.9230(10)
_cell_measurement_reflns_used    6459
_cell_measurement_temperature    180(2)
_cell_measurement_theta_max      28.41
_cell_measurement_theta_min      2.63
_cell_volume                     484.36(11)
_computing_cell_refinement       'STOE X-AREA'
_computing_data_collection       'STOE X-AREA'
_computing_data_reduction        'STOE X-RED'
_computing_structure_refinement  'SHELXL-2014/7 (Sheldrick, 2014)'
_computing_structure_solution    SHELXT
_diffrn_ambient_temperature      180(2)
_diffrn_measured_fraction_theta_full 0.998
_diffrn_measured_fraction_theta_max 0.998
_diffrn_measurement_device_type  'Stoe IPDS 2T'
_diffrn_measurement_method       'omega scans'
_diffrn_radiation_type           MoK\a
_diffrn_radiation_wavelength     0.71073
_diffrn_reflns_av_R_equivalents  0.0200
_diffrn_reflns_av_unetI/netI     0.0166
_diffrn_reflns_Laue_measured_fraction_full 0.998
_diffrn_reflns_Laue_measured_fraction_max 0.998
_diffrn_reflns_limit_h_max       10
_diffrn_reflns_limit_h_min       -10
_diffrn_reflns_limit_k_max       10
_diffrn_reflns_limit_k_min       -11
_diffrn_reflns_limit_l_max       11
_diffrn_reflns_limit_l_min       -11
_diffrn_reflns_number            5568
_diffrn_reflns_point_group_measured_fraction_full 0.998
_diffrn_reflns_point_group_measured_fraction_max 0.998
_diffrn_reflns_theta_full        25.242
_diffrn_reflns_theta_max         27.993
_diffrn_reflns_theta_min         2.633
_exptl_absorpt_coefficient_mu    0.205
_exptl_absorpt_correction_T_max  0.9715
_exptl_absorpt_correction_T_min  0.9008
_exptl_absorpt_correction_type   integration
_exptl_absorpt_process_details   XShape
_exptl_crystal_colour            colorless
_exptl_crystal_density_diffrn    1.277
_exptl_crystal_description       piece
_exptl_crystal_F_000             202
_exptl_crystal_size_max          0.600
_exptl_crystal_size_mid          0.350
_exptl_crystal_size_min          0.150
_refine_diff_density_max         0.336
_refine_diff_density_min         -0.209
_refine_diff_density_rms         0.041
_refine_ls_extinction_method     none
_refine_ls_goodness_of_fit_ref   1.064
_refine_ls_hydrogen_treatment    constr
_refine_ls_matrix_type           full
_refine_ls_number_parameters     111
_refine_ls_number_reflns         2316
_refine_ls_number_restraints     0
_refine_ls_restrained_S_all      1.064
_refine_ls_R_factor_all          0.0327
_refine_ls_R_factor_gt           0.0291
_refine_ls_shift/su_max          0.001
_refine_ls_shift/su_mean         0.000
_refine_ls_structure_factor_coef Fsqd
_refine_ls_weighting_details
'w=1/[\s^2^(Fo^2^)+(0.0362P)^2^+0.1750P] where P=(Fo^2^+2Fc^2^)/3'
_refine_ls_weighting_scheme      calc
_refine_ls_wR_factor_gt          0.0773
_refine_ls_wR_factor_ref         0.0801
_reflns_Friedel_coverage         0.000
_reflns_number_gt                2120
_reflns_number_total             2316
_reflns_threshold_expression     'I > 2\s(I)'
_cod_data_source_file            ao1c06868_si_002.cif
_cod_data_source_block           cr-p25d4-1b_01
_cod_original_cell_volume        484.36(10)
_cod_database_code               4519413
_shelx_shelxl_version_number     2014/7
_shelx_space_group_comment
;
The symmetry employed for this shelxl refinement is uniquely defined
by the following loop, which should always be used as a source of
symmetry information in preference to the above space-group names.
They are only intended as comments.
;
_shelx_estimated_absorpt_t_min   0.887
_shelx_estimated_absorpt_t_max   0.970
_shelx_res_file
;

    cr-p25d4-1b_01.res created by SHELXL-2014/7


TITL CR-P25d4-1b_01
CELL  0.71073    7.6684   8.5044   8.9230   67.142   66.196   88.700
ZERR     1.00    0.0009   0.0009   0.0010    0.008    0.008    0.009
LATT 1
SFAC C  H  N  O  Si
UNIT 16  32  2  4  2
OMIT 0 56
REM Old TITL CR-P25D4-1B_01
REM SHELXT solution in P-1: R1 0.114, Rweak 0.005, Alpha 0.063
REM <I/s>   0.000 for    0 systematic absences,  Orientation as input
REM Formula found by SHELXT:  C8 O3 Si
L.S. 10
ACTA
BOND $H
FMAP 2
PLAN 20
SIZE 0.60 0.35 0.15
CONF
TEMP -93
WGHT    0.036200    0.175000
FVAR       2.00721
SI1   5    0.900655    0.533944   -0.075867    11.00000    0.01762    0.02749 =
         0.01796   -0.00629   -0.00897    0.00165
O1    4    0.678792    0.424832    0.154953    11.00000    0.01738    0.03896 =
         0.01627   -0.00375   -0.00624   -0.00136
O2    4    0.868595    0.357718    0.300691    11.00000    0.01682    0.03887 =
         0.01665   -0.00389   -0.00611   -0.00104
N1    3    0.544410    0.291378    0.458644    11.00000    0.01715    0.02996 =
         0.01580   -0.00323   -0.00531   -0.00189
C1    1    0.701948    0.360160    0.300354    11.00000    0.01861    0.02320 =
         0.01737   -0.00551   -0.00544   -0.00060
C2    1    0.557127    0.224344    0.631603    11.00000    0.02307    0.03284 =
         0.01615   -0.00514   -0.00704   -0.00230
AFIX  23
H2A   2    0.517476    0.307317    0.687473    11.00000   -1.20000
H2B   2    0.692413    0.211492    0.611458    11.00000   -1.20000
AFIX   0
C3    1    0.427775    0.050367    0.757610    11.00000    0.02748    0.02713 =
         0.01856   -0.00367   -0.00603    0.00193
AFIX  23
H3A   2    0.427600    0.013026    0.877493    11.00000   -1.20000
H3B   2    0.479788   -0.036800    0.710351    11.00000   -1.20000
AFIX   0
C4    1    0.221711    0.059733    0.776718    11.00000    0.02319    0.03342 =
         0.02001   -0.00392   -0.00154   -0.00511
AFIX  23
H4A   2    0.143837   -0.057184    0.851137    11.00000   -1.20000
H4B   2    0.163547    0.135134    0.838761    11.00000   -1.20000
AFIX   0
C5    1    0.217679    0.130671    0.593388    11.00000    0.01933    0.03073 =
         0.02381   -0.00978   -0.00492   -0.00286
AFIX  23
H5A   2    0.260196    0.047664    0.537940    11.00000   -1.20000
H5B   2    0.083912    0.144569    0.608380    11.00000   -1.20000
AFIX   0
C6    1    0.349010    0.304094    0.470155    11.00000    0.01716    0.02789 =
         0.02203   -0.00606   -0.00614    0.00099
AFIX  23
H6A   2    0.353788    0.342497    0.348458    11.00000   -1.20000
H6B   2    0.296040    0.391372    0.516911    11.00000   -1.20000
AFIX   0
C7    1    0.832262    0.385419   -0.160546    11.00000    0.02607    0.02788 =
         0.02548   -0.00925   -0.01221    0.00315
AFIX 137
H7A   2    0.691347    0.361729   -0.112175    11.00000   -1.50000
H7B   2    0.881654    0.276721   -0.121269    11.00000   -1.50000
H7C   2    0.888125    0.440368   -0.292344    11.00000   -1.50000
AFIX   0
C8    1    0.794492    0.739081   -0.124623    11.00000    0.02604    0.02989 =
         0.02578   -0.01080   -0.01194    0.00404
AFIX 137
H8A   2    0.858682    0.813245   -0.253832    11.00000   -1.50000
H8B   2    0.813279    0.799647   -0.057309    11.00000   -1.50000
H8C   2    0.656119    0.711391   -0.088168    11.00000   -1.50000
AFIX   0
HKLF 4

REM  CR-P25d4-1b_01
REM R1 =  0.0291 for    2120 Fo > 4sig(Fo)  and  0.0327 for all    2316 data
REM    111 parameters refined using      0 restraints

END

WGHT      0.0362      0.1750

REM Highest difference peak  0.336,  deepest hole -0.209,  1-sigma level  0.041
Q1    1   0.2803  0.2176  0.5393  11.00000  0.05    0.34
Q2    1   1.0000  0.5000  0.0000  10.50000  0.05    0.33
Q3    1   0.8580  0.4480 -0.1137  11.00000  0.05    0.32
Q4    1   0.8563  0.6529 -0.1135  11.00000  0.05    0.31
Q5    1   0.4863  0.1394  0.7045  11.00000  0.05    0.29
Q6    1   0.4564  0.2994  0.4619  11.00000  0.05    0.25
Q7    1   0.3318  0.0639  0.7690  11.00000  0.05    0.25
Q8    1   0.5518  0.2591  0.5326  11.00000  0.05    0.24
Q9    1   0.6183  0.3347  0.3824  11.00000  0.05    0.24
Q10   1   0.2243  0.0897  0.6854  11.00000  0.05    0.21
Q11   1   0.7608  0.4975  0.0813  11.00000  0.05    0.17
Q12   1   0.6955  0.7631 -0.0037  11.00000  0.05    0.16
Q13   1   0.7940  0.3320  0.2946  11.00000  0.05    0.16
Q14   1   0.6876  0.4566  0.1961  11.00000  0.05    0.15
Q15   1   0.6925  0.3713  0.2048  11.00000  0.05    0.15
Q16   1   0.7659  0.2727 -0.0684  11.00000  0.05    0.15
Q17   1   0.3561  0.4149  0.3620  11.00000  0.05    0.14
Q18   1   0.9419  0.4383  0.2204  11.00000  0.05    0.13
Q19   1   0.4547  0.0028  0.7639  11.00000  0.05    0.12
Q20   1   0.8713  0.3048  0.3572  11.00000  0.05    0.12
;
_shelx_res_checksum              86940
_shelx_hkl_file
;
   0  -2  -4  288.89    7.45   0
   0  -1  -5  930.72    7.35   0
   0   0  -5 1062.60    6.68   0
   0   1  -5 2829.48    9.58   0
   0   2  -4   49.61    1.66   0
   0   3  -3    5.99    1.33   0
   0   3   0 1171.47    7.17   0
   0   4  -1   19.20    1.41   0
   1  -5  -5 1466.13   11.99   0
   1  -5  -4   20.18    1.96   0
   1  -5  -3  939.81    6.92   0
   1  -4  -1 3444.65   11.71   0
   1  -3  -7  183.26    4.20   0
   1   0  -7  123.60    2.55   0
   1   0   3 1477.92    9.61   0
   1   2  -6  277.30    3.20   0
   1   4  -5  690.59    4.14   0
   1   6  -2   54.57    1.67   0
   1   6   2  532.93    4.41   0
   2  -6  -1   90.60    2.27   0
   2   0  -8    4.33    1.66   0
   2   2  -7   43.98    2.08   0
   2   4  -6   54.66    1.75   0
   2   5  -5  317.59    3.08   0
   2   6  -4   33.50    1.56   0
   2   7  -2   13.69    1.83   0
   2   8  -1   77.24    1.83   0
   2   8   0   29.02    1.51   0
   2   8   1  184.93    2.60   0
   2   8   2  253.18    3.04   0
   2   8   3   11.21    1.30   0
   3  -7  -1  396.87    3.52   0
   3  -6   1  265.08    2.80   0
   3   9   0    1.20    1.46   0
   3   9   5   41.67    1.72   0
   4  -8  -1  714.02    4.53   0
   4  -6   3    5.54    1.72   0
   4  -5   4  234.34    2.72   0
   4  -4   5    5.47    1.08   0
   4   8   8    9.85    1.68   0
   4  10   6    1.05    1.42   0
   5  -9  -1    1.21    1.43   0
   5  -8   1  112.13    2.15   0
   5  -7   3   79.56    2.18   0
   5  -6   4  228.61    2.69   0
   5  -5   5  415.92    3.30   0
   5  -4   6    4.95    1.18   0
   5  -3   7   88.52    1.85   0
   5   4  10  161.19    3.82   0
   5   9   9  330.50    5.43   0
   6  -7   4    9.93    1.51   0
   6  -6   5    0.17    1.38   0
   6  -4   7    6.68    1.34   0
   6  -3   8   18.40    1.48   0
   6   4  11   13.21    2.16   0
   0   1  -4 1468.92    7.30   0
   0   2  -3  238.68    3.00   0
   0   3  -2  593.20    4.36   0
   0   3  -1 1204.07    6.49   0
   1  -5  -2 1367.29    7.48   0
   1  -3   1    2.47    1.48   0
   1  -2  -7    0.76    1.17   0
   1  -2   2   62.90    2.50   0
   1  -1  -7  877.39    6.10   0
   1   1  -6  858.93    5.33   0
   1   3  -5  169.10    2.42   0
   1   4  -4    2.80    1.24   0
   1   5  -3   12.04    1.26   0
   1   5   3 1229.76    7.31   0
   1   6  -1   54.33    1.61   0
   1   6   0 1287.42    5.78   0
   1   6   1    8.40    1.37   0
   2  -7  -4    1.04    1.60   0
   2  -5   1   88.31    1.92   0
   2  -4  -8   50.33    2.79   0
   2  -4   2  241.95    2.78   0
   2  -3   3  157.91    2.33   0
   2  -2  -8  164.86    3.24   0
   2  -2   4  476.79    4.17   0
   2  -1  -8  104.44    2.40   0
   2   0   5  265.62    3.56   0
   2   3  -6  199.69    2.79   0
   2   5  -4   19.65    1.89   0
   2   6  -3  222.91    2.59   0
   2   7  -1  103.06    2.13   0
   2   7   4  144.80    2.76   0
   3  -8  -5  119.88    2.55   0
   3  -8  -4   60.55    1.81   0
   3  -8  -3   44.22    1.70   0
   3  -8  -2  831.28    5.24   0
   3  -7   0  820.20    4.67   0
   3  -5   3   10.55    1.26   0
   3  -4   4    3.55    1.28   0
   3  -1   6   -0.24    1.13   0
   3   1   7  119.66    2.52   0
   3   5  -5    2.42    2.15   0
   3   6  -4    4.18    1.91   0
   3   7  -3   86.83    2.07   0
   3   8  -1  118.31    2.07   0
   3   9   1   55.85    1.71   0
   3   9   2    0.26    1.34   0
   3   9   3  193.47    2.53   0
   3   9   4    1.12    1.24   0
   4  -9  -5   17.12    1.66   0
   4  -9  -4   31.77    1.73   0
   4  -9  -3  133.42    2.34   0
   4  -8   0   25.61    1.66   0
   4  -7   2  142.91    2.18   0
   4  -3   6  311.44    3.00   0
   4  -2   7 1679.69    6.98   0
   4   0   8 1688.81    7.80   0
   4   4   9  340.78    6.46   0
   4   9   7   63.51    2.03   0
   4  10   3    7.18    1.67   0
   4  10   4   86.67    2.03   0
   4  10   5   45.74    1.80   0
   5  -9   0   -0.05    1.46   0
   5  -8   2  131.23    2.30   0
   5  -2   8  268.56    2.99   0
   5   0   9  407.17    3.91   0
   5   3  10   88.07    2.68   0
   6  -8   3   13.26    1.67   0
   6  -2   9   95.27    2.15   0
   6   0  10   83.42    2.16   0
   6   3  11   86.33    2.75   0
   0  -1  -4   75.52    3.06   0
   0   0  -4  417.53    4.57   0
   0   1  -3  147.81    3.16   0
   0   2  -2    1.96    1.50   0
   0   2  -1   89.89    3.04   0
   1  -4   0   11.89    1.45   0
   1   2  -5   75.20    2.12   0
   1   3  -4  923.84    5.21   0
   1   4  -3   28.51    1.62   0
   1   5  -2  246.11    2.63   0
   1   5  -1  608.40    4.29   0
   1   5   2  377.30    4.04   0
   2  -7  -5  504.92    5.17   0
   2  -7  -3   16.15    1.34   0
   2  -7  -2    1.53    1.72   0
   2  -6  -7    0.31    2.73   0
   2  -6   0  472.66    3.68   0
   2  -3  -8   38.07    1.98   0
   2   1  -7  248.33    2.94   0
   2   4  -5    3.73    1.27   0
   2   6  -2   79.44    1.80   0
   2   6   5  118.42    2.64   0
   2   7   0   74.23    1.82   0
   2   7   1  927.52    5.01   0
   2   7   3   63.48    2.20   0
   3  -8  -6   21.50    1.72   0
   3  -8  -1  280.04    3.43   0
   3  -7   1  207.29    2.93   0
   3  -6   2   28.43    1.38   0
   3  -3   5  176.70    2.41   0
   3  -2   6  833.80    5.07   0
   3   0  -8    2.62    1.64   0
   3   2  -7    1.44    1.57   0
   3   6   7  572.15    7.41   0
   3   7  -2  141.37    2.13   0
   3   8   0    2.32    1.36   0
   3   8   5  257.26    3.41   0
   4  -9  -6    1.59    1.67   0
   4  -9  -2   71.80    1.91   0
   4  -9  -1   73.85    2.29   0
   4  -8   1   18.43    1.64   0
   4  -6   4   29.62    1.90   0
   4  -5   5  341.68    3.24   0
   4   3   9  806.52    7.50   0
   4   9   1   24.91    1.67   0
   4   9   6  145.87    2.81   0
   5  -9   1  512.25    3.85   0
   5  -7   4   92.12    1.98   0
   5  -6   5   54.16    1.72   0
   5  -5   6  269.06    2.80   0
   5  -4   7  132.61    2.19   0
   5  -1   9   33.80    1.81   0
   5   2  10  293.49    3.99   0
   5  10   6   16.52    2.26   0
   6  -6   6    2.53    1.54   0
   6  -5   7   10.64    1.52   0
   6  -4   8  186.39    2.53   0
   6   2  11   24.39    2.23   0
   0   0  -3 1018.78    7.94   0
   0   1  -2   51.77    2.69   0
   1  -5  -1  296.58    3.39   0
   1  -1   3  690.33    5.63   0
   1   0  -6  122.25    2.43   0
   1   4  -2  282.50    3.22   0
   1   5   0  920.36    5.11   0
   1   5   1 2081.48    7.94   0
   2  -7  -6   77.92    3.05   0
   2  -7  -1  312.75    3.20   0
   2  -6   1   70.75    2.12   0
   2  -5   2    4.61    1.28   0
   2  -4   3   62.64    1.86   0
   2  -3   4  792.95    4.94   0
   2  -1   5  423.39    3.97   0
   2   0  -7  328.29    3.47   0
   2   2  -6  136.48    2.28   0
   2   2   6 1149.29    9.68   0
   2   3  -5    2.95    1.20   0
   2   3   6  130.40    5.45   0
   2   4  -4   20.00    1.41   0
   2   5  -3   35.12    1.53   0
   2   6  -1  218.17    2.49   0
   2   7   2  325.73    3.10   0
   3  -8   0  455.36    3.79   0
   3  -6   3  101.14    2.36   0
   3  -5   4    0.67    1.68   0
   3  -1  -8   45.37    1.92   0
   3   0   7   89.44    2.18   0
   3   1  -7    5.65    1.94   0
   3   3  -6   36.54    1.69   0
   3   4  -5   90.80    1.98   0
   3   5  -4   79.28    1.90   0
   3   6  -3   92.65    1.95   0
   3   7  -1  134.68    2.07   0
   3   7   6 1008.89    6.94   0
   3   8   1   34.34    1.54   0
   3   8   2  104.72    2.01   0
   3   8   3   21.03    1.71   0
   3   8   4   42.82    1.57   0
   4  -9   0   20.93    1.56   0
   4  -8   2  191.25    2.84   0
   4  -7   3  167.60    2.42   0
   4  -4   6 1309.30    5.75   0
   4  -3   7  267.22    3.09   0
   4  -1   8  993.45    5.74   0
   4   2   9  412.59    4.86   0
   4   7  -2  863.39    4.80   0
   4   7   8   14.30    1.80   0
   4   8   0   93.78    2.42   0
   4   8   7   59.28    2.16   0
   4   9   2   21.41    1.58   0
   4   9   3    9.28    1.38   0
   4   9   4   78.57    2.16   0
   4   9   5  168.09    2.52   0
   5  -8   3   33.68    1.67   0
   5  -3   8  105.69    2.07   0
   5   1  10   24.73    1.93   0
   5   8   9   64.20    2.64   0
   5   9   8    3.19    1.40   0
   6  -3   9    3.01    1.60   0
   6  -1  10  229.35    2.98   0
   6   1  11  169.50    3.19   0
   0   1  -1  687.28    7.10   0
   1  -6  -4  578.54    5.47   0
   1  -6  -3   64.12    2.03   0
   1  -6  -2  663.85    5.15   0
   1  -5   0  650.94    4.49   0
   1  -4   1   26.89    1.53   0
   1  -3   2   58.28    1.85   0
   1  -1  -6  556.15    4.98   0
   1   1  -5  294.67    3.19   0
   1   2  -4   18.11    1.44   0
   1   3  -3   68.10    1.84   0
   1   4  -1 3227.13    9.57   0
   2  -8  -4   62.73    2.19   0
   2  -8  -3    1.18    1.57   0
   2  -7   0   87.79    2.39   0
   2  -2   5  752.79    5.04   0
   2  -1  -7   25.10    1.77   0
   2   1  -6  269.05    3.06   0
   2   1   6 1315.98    8.46   0
   2   5  -2   90.59    1.82   0
   2   6   0 1160.38    5.49   0
   2   6   4  253.53    3.34   0
   3  -9  -5   17.58    1.60   0
   3  -9  -4   17.26    1.43   0
   3  -9  -3   25.98    1.47   0
   3  -9  -2   81.02    1.95   0
   3  -8  -7    3.50    1.96   0
   3  -7   2    0.30    1.37   0
   3  -6  -8  115.99    7.15   0
   3  -4   5  763.36    4.39   0
   3  -3   6  427.17    3.71   0
   3  -2  -8   22.37    1.91   0
   3  -1   7  156.35    2.52   0
   3   2  -6    3.30    1.86   0
   3   6  -2  326.20    3.00   0
   3   7   0  205.50    2.47   0
   4 -10  -4   28.07    1.83   0
   4 -10  -3   42.48    1.83   0
   4 -10  -2  106.51    2.29   0
   4  -9   1   30.57    2.20   0
   4  -7   4  202.01    2.94   0
   4  -6   5  878.45    4.73   0
   4  -5   6  523.25    3.99   0
   4  -2   8  193.24    2.86   0
   4   1   9  595.80    5.23   0
   4   5  -4   33.28    1.75   0
   4   6  -3  356.67    3.19   0
   4   8   1   62.22    2.15   0
   5  -8   4    1.27    1.65   0
   5  -7   5   97.53    2.04   0
   5  -6   6  122.61    2.19   0
   5  -5   7  133.44    2.24   0
   5  -2   9   37.72    1.76   0
   5   9   7    1.72    1.81   0
   0  -3  -2 1643.38   11.47   0
   0  -1  -3   16.15    2.06   0
   0  -1   0 5789.81   25.67   0
   0   0  -2  560.28    7.31   0
   1  -6  -5  434.33    5.77   0
   1  -6  -1   24.09    1.61   0
   1  -4  -6   46.08    3.97   0
   1  -3  -6    2.28    1.73   0
   1  -2  -6   30.57    1.85   0
   1  -2   3   94.80    2.17   0
   1   0  -5  242.38    3.48   0
   1   0   4 1472.48    8.89   0
   1   1   4 2612.46   14.83   0
   1   3  -2  852.02    5.21   0
   1   4   0  638.11    4.53   0
   1   4   1    1.80    1.84   0
   1   4   2 1158.09    7.26   0
   2  -8  -5   70.18    2.18   0
   2  -8  -2   40.55    1.71   0
   2  -8  -1  180.56    2.87   0
   2  -7   1  173.11    2.59   0
   2  -6   2   76.24    1.86   0
   2  -5   3   88.14    1.94   0
   2  -4   4  888.86    4.86   0
   2  -2  -7   24.51    2.18   0
   2   0   6  129.73    2.64   0
   2   2  -5   74.62    1.89   0
   2   3  -4  168.92    2.32   0
   2   4  -3  160.45    2.32   0
   2   5  -1  375.02    3.47   0
   2   5   5  505.47    5.82   0
   2   6   1 2202.33    7.60   0
   2   6   2   83.18    1.98   0
   2   6   3   76.02    1.95   0
   3  -9  -6   40.77    2.45   0
   3  -9  -1  388.79    3.56   0
   3  -8   1   53.09    1.68   0
   3  -7   3   13.07    1.72   0
   3  -6   4   40.03    1.62   0
   3  -5   5   31.85    1.79   0
   3  -3  -8   12.34    1.93   0
   3  -2   7   81.43    2.30   0
   3   0  -7    2.51    1.30   0
   3   2   8  518.41    5.80   0
   3   3  -5   67.97    1.79   0
   3   3   8  437.96    6.93   0
   3   4  -4  308.49    3.06   0
   3   5  -3  310.11    2.97   0
   3   6  -1  305.33    2.94   0
   3   7   1   -1.75    1.28   0
   3   7   2  111.16    2.32   0
   3   7   5  118.10    2.39   0
   4 -10  -1    9.78    1.64   0
   4 -10   0    7.60    2.28   0
   4  -9   2   47.13    2.32   0
   4  -8   3    8.64    1.46   0
   4  -4   7  105.40    2.06   0
   4   0   9  529.56    4.72   0
   4   2  -6   12.62    2.08   0
   4   6  -2  235.92    2.90   0
   4   7  -1  118.81    2.12   0
   4   8   2    0.82    1.23   0
   4   8   3  105.24    2.34   0
   4   8   6  306.08    3.50   0
   5  -4   8   62.39    1.87   0
   5   0  10    8.54    1.53   0
   5   7  -1  112.69    2.74   0
   5   9   3  115.20    2.20   0
   5   9   4  152.53    2.44   0
   5   9   5  233.74    3.12   0
   5   9   6   20.32    1.53   0
   6   8  10   17.27    2.24   0
   0  -3  -3  718.34   10.35   0
   0  -3  -1 1455.86    9.01   0
   0  -2  -3   61.26    7.28   0
   0  -2   0    8.33    2.08   0
   1  -7  -4    8.66    1.72   0
   1  -7  -3  317.84    3.80   0
   1  -7  -2  695.19    5.04   0
   1  -6   0  310.82    3.12   0
   1  -5   1  198.85    2.58   0
   1  -4   2   23.83    1.40   0
   1  -3   3  455.49    3.79   0
   1  -1   4  981.12    6.28   0
   1   1  -4  728.97    5.10   0
   1   2  -3  159.81    2.51   0
   1   2   4    6.61    3.11   0
   2  -8  -6  122.88    3.28   0
   2  -8   0  474.22    3.95   0
   2  -3  -7   10.84    1.90   0
   2  -3   5  226.81    2.77   0
   2  -1   6  384.43    3.70   0
   2   0  -6   95.95    2.14   0
   2   4  -2   58.10    2.02   0
   2   5   0 1657.66    6.87   0
   3 -10  -4    1.86    1.94   0
   3 -10  -3  301.15    3.36   0
   3 -10  -2   17.89    2.18   0
   3  -9   0  146.96    2.40   0
   3  -8   2    0.43    1.38   0
   3  -5  -8   87.34    3.64   0
   3  -4  -8  111.55    3.48   0
   3  -4   6   88.51    1.90   0
   3  -1  -7   30.98    2.06   0
   3   0   8  164.78    2.98   0
   3   1  -6    4.85    1.31   0
   3   1   8  330.19    3.98   0
   3   5  -2  263.94    2.80   0
   3   6   0  148.19    2.56   0
   3   7   3   -0.54    1.28   0
   3   7   4  124.03    2.31   0
   4  -8   4  152.30    2.76   0
   4  -7   5  322.09    3.19   0
   4  -6   6  356.81    3.37   0
   4  -3   8    2.19    1.33   0
   4  -1   9  138.78    2.73   0
   4   0  -7    0.15    1.51   0
   4   3  -5    1.64    1.48   0
   4   4  -4  165.15    2.39   0
   4   5  -3  685.26    4.31   0
   4   7   0   13.37    1.42   0
   4   8   4  530.63    3.98   0
   4   8   5   15.48    1.36   0
   5  -3   9  138.40    2.48   0
   5  -1  10  314.99    3.55   0
   5   6  -2   71.95    2.11   0
   5   8   1   74.80    2.01   0
   5   8   2  105.16    2.41   0
   5   8   8  160.89    2.99   0
   0  -4  -3  343.70    5.34   0
   0  -4  -2 9603.00   22.11   0
   0  -4  -1 1708.77    8.50   0
   0  -3   0 1226.97    7.30   0
   0   0  -1    2.90    1.84   0
   1  -7  -1   36.71    1.66   0
   1  -6   1   21.25    1.87   0
   1  -5   2  157.48    2.44   0
   1  -4   3 4127.87   10.68   0
   1  -2   4 3825.58   11.09   0
   1  -1  -5  104.09    2.73   0
   1   3  -1  143.48    2.51   0
   1   3   3 1640.85   12.85   0
   2  -9  -5   29.78    1.97   0
   2  -9  -4   -0.62    1.37   0
   2  -9  -3    9.21    1.35   0
   2  -9  -2   98.77    2.18   0
   2  -9  -1   46.66    2.13   0
   2  -8   1   33.00    1.99   0
   2  -7   2  122.21    2.13   0
   2  -6   3  386.12    3.30   0
   2  -5   4  139.18    2.12   0
   2  -4   5   59.88    2.06   0
   2  -2   6  117.83    2.22   0
   2  -1  -6    1.25    1.66   0
   2   1  -5    8.72    1.30   0
   2   2  -4   88.89    2.01   0
   2   3  -3   14.69    1.48   0
   2   5   1  627.92    4.36   0
   3 -10  -5   10.89    1.69   0
   3 -10  -1   34.63    1.72   0
   3  -9   1    3.10    1.40   0
   3  -8   3  109.91    2.13   0
   3  -7   4   65.46    1.81   0
   3  -6   5   22.06    1.51   0
   3  -5   6  171.99    2.70   0
   3  -3   7  384.53    3.41   0
   3  -1   8  290.94    3.61   0
   3   2  -5  698.36    4.50   0
   3   3  -4  327.58    3.09   0
   3   4  -3    1.87    1.27   0
   3   5  -1  122.73    2.39   0
   3   6   1   82.76    2.20   0
   3   6   6  114.27    2.70   0
   4  -5   7   56.06    1.86   0
   4  -4   8   -1.04    1.98   0
   4  -3  -8  258.79    3.78   0
   4  -2   9    6.18    1.75   0
   4   1  -6  177.64    2.61   0
   4   5  -2  376.29    3.58   0
   4   6  -1  109.63    2.13   0
   4   7   1    1.47    1.22   0
   4   7   2  312.46    3.30   0
   4   7   7   20.31    1.45   0
   5   2  11    4.03    1.81   0
   5   4  -4   38.28    1.88   0
   5   5  -3   53.36    1.89   0
   5   7   0   22.97    1.58   0
   5   7   9  124.26    3.34   0
   5   8   3  190.01    2.55   0
   6   8   2  753.49    4.78   0
   6   9   5   15.51    1.70   0
   6   9   6   14.06    1.60   0
   0  -5  -2 6566.95   16.08   0
   0  -4   0    3.42    1.32   0
   0  -3   1 1292.16    7.08   0
   0  -2   1   94.32    2.79   0
   0  -1   1  682.08    7.20   0
   1  -8  -3  187.08    3.04   0
   1  -8  -2  138.01    2.68   0
   1  -7  -5    3.27    1.33   0
   1  -7   0  102.48    2.05   0
   1  -3   4 1985.62    7.79   0
   1   0  -4    7.98    1.73   0
   1   1  -3  937.00    6.12   0
   1   2  -2 5540.64   13.78   0
   1   3   0  680.38    5.26   0
   1   3   1 2225.82   10.20   0
   2  -9   0  156.59    2.72   0
   2  -7  -7   39.40    4.07   0
   2  -7   3   55.54    2.17   0
   2  -6   4  147.59    2.44   0
   2  -4  -7    0.92    1.75   0
   2  -3   6    5.14    1.79   0
   2   4  -1  344.41    3.29   0
   2   5   2  137.49    2.37   0
   2   5   3  990.06    6.21   0
   3 -10   0    2.21    1.61   0
   3  -9  -7   40.41    2.84   0
   3  -9   2   24.43    1.72   0
   3  -4   7   68.82    1.80   0
   3  -2  -7  672.41    5.37   0
   3  -2   8  142.39    2.64   0
   3   0  -6  779.26    5.09   0
   3   4  -2  115.43    2.40   0
   3   5   7   59.89    3.11   0
   3   6   2   55.37    1.83   0
   4  -4  -8    0.53    2.25   0
   4  -1  -7  245.68    3.26   0
   4   2  -5  256.84    2.93   0
   4   2  10   91.34    2.75   0
   4   3  -4  190.28    2.49   0
   4   4  -3  360.22    3.21   0
   4   6   0    8.53    1.36   0
   4   6   8   90.32    3.08   0
   4   7   3   91.17    2.02   0
   5   1  11   54.14    2.09   0
   5   2  -5   39.05    2.35   0
   5   3  11   29.26    2.39   0
   5   5  -2  164.45    2.68   0
   5   6  -1    7.65    1.40   0
   5   7   1    9.67    1.34   0
   5   8   4  567.63    4.18   0
   5   8   5  421.46    3.70   0
   5   8   6    8.86    1.40   0
   6   6  -1   33.93    2.22   0
   6   8   3   61.26    2.19   0
   6   8   9   73.60    2.36   0
   0  -5  -3 2940.42   12.17   0
   0  -5  -1  288.91    3.34   0
   0  -5   0  131.23    2.59   0
   0  -4   1   18.37    1.96   0
   1  -8  -4   51.44    1.88   0
   1  -8  -1    0.35    1.24   0
   1  -8   0   57.88    2.02   0
   1  -7   1  154.44    2.28   0
   1  -6   2 1362.83    5.81   0
   1  -5   3  292.09    2.95   0
   1  -4   4  652.20    4.51   0
   1  -2  -5  138.81    3.49   0
   1  -1   5 1547.76    7.55   0
   1   0   5  467.29    4.85   0
   2 -10  -4   52.49    1.85   0
   2 -10  -3   14.80    1.48   0
   2 -10  -2   55.34    1.85   0
   2 -10  -1   73.15    2.32   0
   2  -9  -6  145.03    3.47   0
   2  -9   1  143.38    2.35   0
   2  -8   2  317.71    3.06   0
   2  -5  -7  170.04    5.42   0
   2  -5   5  105.84    2.05   0
   2  -4   6  103.84    2.30   0
   2  -2  -6   93.95    2.78   0
   2  -1   7  185.57    3.00   0
   2   0  -5   11.61    1.41   0
   2   0   7  267.88    3.45   0
   2   1  -4   72.32    2.23   0
   2   1   7  367.08    4.40   0
   2   2  -3  176.37    2.58   0
   2   3  -2  353.58    3.29   0
   2   4   0 5358.91   12.37   0
   3  -8   4  112.00    2.24   0
   3  -7   5   19.93    1.60   0
   3  -6   6   86.34    2.00   0
   3  -5   7   44.53    2.06   0
   3  -3   8    6.22    1.89   0
   3   1  -5  406.20    3.58   0
   3   2  -4    9.82    1.22   0
   3   3  -3  270.35    2.84   0
   3   5   0   68.47    1.83   0
   3   6   3   22.38    1.55   0
   3   6   4  195.46    2.86   0
   4  -5  -8  226.89    4.66   0
   4  -3   9   53.17    2.05   0
   4  -2  -7   25.14    2.21   0
   4   0  -6   50.62    1.84   0
   4   0  10   14.21    1.57   0
   4   1  10   20.33    1.57   0
   4   3  10  214.31    4.83   0
   4   5  -1   80.59    1.80   0
   4   6   1   96.85    1.95   0
   4   7   4  160.89    2.44   0
   4   7   5  196.32    2.79   0
   5   3  -4    2.93    1.58   0
   5   4  -3  208.24    2.57   0
   5   4  11  173.18    6.15   0
   5   6   0  455.96    3.48   0
   5   7   2   51.87    1.75   0
   6   5  -2    0.90    1.69   0
   6   6  11    1.73    2.69   0
   6   7   1   72.72    1.95   0
   6   7  10   42.68    2.57   0
   6   8   4   95.14    2.08   0
   6   8   5   17.52    2.02   0
   0  -6  -3 2548.95   10.26   0
   0  -6  -2 1717.53    7.63   0
   0  -6  -1   81.68    2.09   0
   0  -6   0   21.17    1.95   0
   0  -5  -4   80.91    3.00   0
   0  -5   1   -1.90    1.98   0
   0  -3   2  592.24    4.46   0
   0  -2   2    6.33    1.54   0
   0  -1  -2 2615.02   25.97   0
   0  -1   2   50.23    2.32   0
   0   0   1    2.90    2.51   0
   1  -9  -4   51.26    2.20   0
   1  -9  -3  373.84    3.64   0
   1  -9  -2   -1.25    1.27   0
   1  -9  -1    7.43    1.80   0
   1  -8  -5    1.03    1.26   0
   1  -8   1  710.12    4.55   0
   1  -7   2  169.22    2.43   0
   1  -6  -6  222.79    6.65   0
   1  -6   3  146.30    2.32   0
   1  -5   4 1282.39    5.94   0
   1  -3   5 3568.65   10.00   0
   1  -2   5  593.78    4.40   0
   1   1   5 3021.08   14.07   0
   1   2  -1  749.02    5.71   0
   2 -10  -5    2.27    1.43   0
   2 -10   0    1.58    1.53   0
   2  -9   2   40.57    1.77   0
   2  -8   3   22.80    1.64   0
   2  -7   4   70.08    1.81   0
   2  -6  -7    0.05    2.80   0
   2  -6   5   22.04    1.46   0
   2  -2   7   85.22    2.04   0
   2   2   7   55.27    2.52   0
   2   3  -1 1051.62    5.89   0
   2   4   1  209.89    2.89   0
   2   4   5  995.76    9.98   0
   3  -4   8   49.15    2.06   0
   3  -3  -7  100.54    2.61   0
   3  -1  -6  160.26    2.67   0
   3   0   9  226.91    3.34   0
   3   1   9  113.43    2.73   0
   3   4  -1   55.52    1.77   0
   3   5   1  100.99    2.07   0
   4  -1  10  110.16    2.42   0
   4   1  -5  382.59    3.55   0
   4   2  -4 1961.93    7.27   0
   4   3  -3  393.87    3.30   0
   4   4  -2    6.36    1.37   0
   4   6   2  272.05    2.95   0
   5   0  -6    9.57    1.62   0
   5   1  -5  198.50    3.01   0
   5   5  -1   -0.92    1.40   0
   5   6   1   17.44    1.78   0
   5   7   3  506.66    3.76   0
   5   7   4  161.23    2.71   0
   5   7   8  682.41    6.00   0
   6   6   0   53.10    1.88   0
   6   7   2    2.90    1.43   0
   6   8   6   35.04    1.68   0
   6   8   7   37.12    1.69   0
   7   7   2   34.75    2.47   0
   7   8   5    9.11    2.23   0
   0  -7  -3 2649.56    9.65   0
   0  -7  -2  234.59    3.03   0
   0  -7  -1   88.73    2.03   0
   0  -6  -4   10.61    1.52   0
   0  -6   1  544.41    4.05   0
   0  -5   2   95.18    2.41   0
   0  -4  -4   49.43    3.24   0
   0  -4   2  199.71    2.68   0
   0  -3   3    5.79    1.85   0
   0  -2   3  251.32    3.34   0
   1  -9  -5    0.98    1.65   0
   1  -9   0   74.72    1.92   0
   1  -8   2  591.44    4.40   0
   1  -7  -6  514.79    7.21   0
   1  -7   3  455.17    3.91   0
   1  -6   4   -1.89    1.70   0
   1  -4   5  116.93    2.13   0
   1  -1  -4  711.77    6.51   0
   1   1  -2 2389.90   10.25   0
   2 -11  -4   12.67    1.76   0
   2 -11  -3   46.57    1.98   0
   2 -10  -6  131.84    3.31   0
   2 -10   1   38.17    1.86   0
   2  -8  -7   49.76    3.51   0
   2  -8   4   12.75    1.64   0
   2  -7   5   18.01    2.15   0
   2  -5   6    4.13    1.29   0
   2  -3   7   57.49    1.76   0
   2  -1  -5  190.85    3.28   0
   2   4   2   -0.71    1.80   0
   3  -2   9  114.52    2.69   0
   3  -1   9   73.83    2.10   0
   3   0  -5   52.10    1.77   0
   3   1  -4 1467.70    6.72   0
   3   2  -3  409.21    3.82   0
   3   2   9  514.78    5.93   0
   3   3  -2   71.69    1.90   0
   3   5   2   34.82    1.67   0
   3   5   6  410.88    5.37   0
   4  -3  -7  162.91    3.19   0
   4  -1  -6   61.27    1.91   0
   4   5   0    5.48    1.19   0
   4   6   3 1269.82    6.01   0
   4   6   7   27.45    1.91   0
   5   2  -4  133.78    2.30   0
   5   3  -3  107.71    2.01   0
   5   4  -2  182.81    2.44   0
   5   7   5   53.38    1.77   0
   5   7   6    1.47    1.24   0
   6   2  -4   -2.28    1.58   0
   6   3  -3   13.17    1.86   0
   6   4  -2    0.19    1.52   0
   6   5  -1  235.62    2.65   0
   6   6   1  764.14    4.46   0
   6   7   3   17.00    1.44   0
   7   6   1   15.92    2.12   0
   7   7   3   -2.22    2.16   0
   7   8   6   96.80    2.19   0
   7   8   7  118.61    2.40   0
   7   8   8   -0.39    1.62   0
   0  -8  -3  148.90    2.84   0
   0  -8  -2   68.83    1.83   0
   0  -8  -1  118.24    2.59   0
   0  -7  -4  383.42    4.21   0
   0  -7   0   14.33    1.45   0
   0  -7   1    8.14    1.86   0
   0  -6   2  305.00    3.21   0
   0  -4   3   22.33    1.55   0
   0  -1   3  148.57    2.94   0
   0   0   2  571.47    7.21   0
   1 -10  -4   57.74    1.93   0
   1 -10  -3    2.00    1.40   0
   1 -10  -2   55.29    1.92   0
   1 -10  -1    2.18    1.52   0
   1  -9   1  277.04    3.08   0
   1  -8  -6   81.66    3.01   0
   1  -5   5   32.34    1.50   0
   1  -3   6  145.27    2.73   0
   1  -2   6   73.83    1.98   0
   1  -1   6 1258.02    6.56   0
   1   0  -3 4379.52   14.58   0
   1   0   6  700.03    5.65   0
   1   2   0 1307.03    8.21   0
   2  -6   6   21.42    1.61   0
   2  -5   7   75.73    2.28   0
   2  -4   7  302.56    3.04   0
   2  -3  -6  322.38    4.71   0
   2  -2   8  208.14    3.13   0
   2  -1   8    7.37    1.31   0
   2   0  -4  296.28    3.51   0
   2   0   8    4.61    1.74   0
   2   1  -3 1127.40    6.15   0
   2   2  -2  316.93    3.35   0
   2   3   0  201.57    3.20   0
   2   4   3  121.03    2.73   0
   2   4   4  391.80    5.09   0
   3  -4  -7  252.46    4.07   0
   3  -3   9   23.57    1.70   0
   3  -2  -6   41.49    2.11   0
   3   4   0  270.60    3.00   0
   3   5   3  185.06    2.76   0
   4   0  -5 2779.63    9.06   0
   4   3  -2  308.56    3.27   0
   4   4  -1  186.01    2.43   0
   4   5   1  846.07    4.76   0
   4   6   4  162.27    2.56   0
   4   6   5   63.39    1.90   0
   5  -3  -7  329.60    3.95   0
   5  -1  -6  254.82    3.16   0
   5   4  -1   87.91    2.35   0
   5   5   0    9.30    1.26   0
   5   6   2   49.34    1.74   0
   5   6   9  103.01    3.30   0
   6   5   0  292.40    2.90   0
   6   6   2  169.75    2.76   0
   6   7   4  230.36    2.78   0
   6   7   5    0.96    1.75   0
   6   7   9  767.90    6.48   0
   7   5   0  648.98    4.41   0
   7   7   4   -1.34    2.01   0
   0  -9  -3   79.20    2.40   0
   0  -9  -2   21.15    1.91   0
   0  -9  -1   46.07    2.12   0
   0  -8  -4   68.52    2.03   0
   0  -8   0   -1.25    1.36   0
   0  -8   1   83.15    2.17   0
   0  -7   2  556.38    4.07   0
   0  -5   3 1981.53    7.07   0
   0  -4   4  188.20    2.79   0
   0  -3   4 3342.62    9.59   0
   0  -2   4   53.59    1.81   0
   1 -11  -3   30.36    2.39   0
   1 -10  -5  233.90    3.37   0
   1 -10   0   64.75    1.96   0
   1  -9  -6   56.24    2.43   0
   1  -9   2  198.72    2.62   0
   1  -8   3  145.30    2.35   0
   1  -7   4    1.66    1.43   0
   1  -6   5   31.95    1.57   0
   1  -4   6   34.07    1.52   0
   1  -3  -5  433.34    6.77   0
   2  -9  -7   99.75    3.72   0
   2  -3   8  309.47    3.31   0
   2   1   8   13.00    1.38   0
   3  -1  -5  392.11    4.18   0
   3   3  -1  308.71    3.22   0
   3   4   1  230.41    3.22   0
   3   5   4  119.63    2.47   0
   4  -4  -7 1048.90    7.59   0
   4  -2  -6 1388.49    7.56   0
   4   1  -4  890.17    5.05   0
   4   1  11   74.95    2.40   0
   4   2  -3   -0.98    1.28   0
   4   4   0   21.28    1.91   0
   4   5   2  278.74    3.39   0
   5   0  -5   21.10    1.56   0
   5   1  -4   10.73    1.86   0
   5   2  -3  260.32    3.14   0
   5   3  -2   41.03    1.58   0
   5   5   1    9.87    1.47   0
   5   6   3  170.67    2.53   0
   6   0  -5    0.78    1.62   0
   6   1  -4   -1.47    2.03   0
   6   3  -2  154.84    2.63   0
   6   4  -1   97.30    1.93   0
   6   7   6   48.70    1.74   0
   6   7   7  154.84    2.63   0
   7   3  -2    0.54    2.11   0
   7   4  -1  260.82    2.87   0
   7   6   2  414.47    3.47   0
   7   7   5    0.40    1.76   0
   7   7  10   72.97    2.48   0
  -1  -6  -1    2.49    2.09   0
  -1  -5  -1 2127.89    8.26   0
  -1  -5   0  986.05    5.63   0
  -1  -4  -1    2.62    2.01   0
  -1  -4   0  674.46    4.92   0
   0  -9  -4 1171.03    6.50   0
   0  -9   0    8.42    1.51   0
   0  -8  -5   99.60    2.81   0
   0  -8   2  134.53    2.61   0
   0  -7  -5   24.06    2.05   0
   0  -7   3   27.88    2.03   0
   0  -6  -5   24.66    2.18   0
   0  -6   3   49.30    1.68   0
   0  -5   4   79.11    1.90   0
   0  -1   4 1512.49    7.59   0
   0   0   3  998.47    7.94   0
   1 -11  -5   23.56    2.20   0
   1 -11  -4   81.11    2.27   0
   1  -8   4   41.83    1.87   0
   1  -7   5    1.58    1.59   0
   1  -5   6    2.12    1.32   0
   1  -3   7   51.49    2.11   0
   1  -2   7    2.24    1.85   0
   1  -1   7  374.95    3.93   0
   1   1  -1 1820.99   10.01   0
   1   1   6 2454.34   11.87   0
   1   2   1  177.20    3.96   0
   2 -10  -7  196.51    4.69   0
   2  -4   8    1.48    1.56   0
   2  -2  -5   18.21    2.02   0
   2   2  -1 9999.99   18.45   0
   2   3   1 1619.04    8.16   0
   3  -5  -7   10.96    2.16   0
   3  -1  10  202.75    3.18   0
   3   0  -4  456.83    4.11   0
   3   0  10  164.81    2.92   0
   3   1  -3   66.76    2.26   0
   3   1  10   55.21    2.41   0
   3   2  -2  220.12    2.82   0
   3   3   9  286.22    6.45   0
   4   2  11   -0.04    1.99   0
   4   3  -1  252.74    3.09   0
   5  -4  -7   -0.94    1.71   0
   5  -2  -6    2.57    1.42   0
   5   4   0    7.56    1.77   0
   5   6   4  732.04    4.62   0
   5   6   5   -1.90    1.62   0
   5   6   8  248.00    4.00   0
   6   2  -3    9.85    1.47   0
   6   5   1   22.69    1.44   0
   6   6   3   18.27    1.40   0
   6   6  10    5.53    1.96   0
   7   5   1  207.30    2.54   0
   7   6   3   32.38    1.65   0
   7   7   6  240.76    2.94   0
   7   7   7  175.85    2.97   0
   7   7   8   72.88    2.52   0
   8   6   3   13.11    1.70   0
   8   7   5   72.85    2.13   0
   8   7   6   29.63    2.36   0
  -1  -7  -2  412.09    3.71   0
  -1  -7  -1  556.74    4.04   0
  -1  -7   0  495.25    4.03   0
  -1  -6  -3  607.24    5.22   0
  -1  -6  -2  524.75    4.33   0
  -1  -6   0 1359.72    6.16   0
  -1  -6   1   55.14    1.78   0
  -1  -5  -2  360.58    3.88   0
  -1  -5   1  590.71    4.20   0
  -1  -4  -2 1227.25    7.83   0
  -1  -4   1 3209.15    9.57   0
  -1  -4   2  283.44    3.41   0
  -1  -3   0  689.04    5.41   0
  -1  -3   1  152.53    2.62   0
   0 -10  -4  183.09    3.28   0
   0 -10  -3   27.50    1.68   0
   0 -10  -2   27.40    1.63   0
   0 -10  -1    3.11    1.47   0
   0 -10   0   78.94    2.07   0
   0  -9  -5   30.62    2.00   0
   0  -9   1   33.80    1.74   0
   0  -9   2  138.23    2.64   0
   0  -8   3   51.11    2.28   0
   0  -6   4  112.74    2.14   0
   0  -4   5  148.25    2.31   0
   0  -3   5  414.07    3.57   0
   0  -2   5  308.26    3.32   0
   0  -1   5 2883.16   10.26   0
   0   0   4  432.80    4.96   0
   1 -10  -6   14.13    1.68   0
   1  -6   6   90.54    2.10   0
   1  -4   7   29.22    1.62   0
   1   0   7    9.48    1.87   0
   1   2   5  918.42   11.92   0
   2  -3   9  175.35    3.09   0
   2  -2   9    1.44    1.48   0
   2  -1  -4  107.06    2.88   0
   2  -1   9  331.47    3.71   0
   2   0   9   57.88    2.48   0
   2   1  -2 5817.26   14.52   0
   2   2   8   10.06    1.86   0
   3  -3  -6  102.81    2.48   0
   3   3   0  670.70    4.53   0
   3   4   2   15.94    1.53   0
   4  -1  -5  215.70    2.92   0
   4   0  -4   25.12    1.96   0
   4   1  -3  365.20    3.69   0
   4   2  -2   94.42    2.06   0
   4   4   1   10.34    1.49   0
   4   5   3  112.00    2.27   0
   4   5   8    1.98    1.58   0
   5  -1  -5   45.03    1.74   0
   5   3  -1    0.77    1.56   0
   5   5   2 1811.20    6.87   0
   5   5  10   36.17    2.92   0
   5   6   6   35.75    1.69   0
   6  -1  -5   88.24    2.13   0
   6   4   0 1060.76    5.10   0
   6   5   2   43.38    2.09   0
   6   6   4  132.51    2.22   0
   7   3  -1  831.64    4.78   0
   7   4   0  369.48    3.23   0
   7   6   4   12.62    1.91   0
   8   5   2    0.94    2.19   0
   8   6   4   46.42    2.37   0
   8   7   7  264.15    3.26   0
   8   7   8   32.01    2.29   0
  -1  -9  -2   83.68    2.29   0
  -1  -8  -3   94.04    2.14   0
  -1  -8  -2   20.02    1.68   0
  -1  -8  -1  197.09    2.68   0
  -1  -8   0   91.60    2.03   0
  -1  -7  -3  359.82    3.72   0
  -1  -7   1   59.82    1.84   0
  -1  -6   2   60.13    1.87   0
  -1  -5  -3 1287.00    7.79   0
  -1  -5   2  231.99    2.72   0
  -1  -4   3   33.03    2.13   0
  -1  -3  -1 2170.82   10.24   0
  -1  -3   2  831.48    5.11   0
  -1  -2   1  746.56    5.97   0
   0 -11  -4   27.67    2.34   0
   0 -11  -3   -2.20    1.71   0
   0 -10  -5  156.16    3.23   0
   0  -7   4    0.78    1.51   0
   0  -6   5  420.76    3.49   0
   0  -5   5   36.13    1.65   0
   0  -3   6  536.98    4.24   0
   1  -5   7    4.56    1.57   0
   1  -2  -4 1927.88   12.22   0
   1  -2   8  154.07    2.75   0
   1   0  -2 1866.91   10.64   0
   2  -4  -6    5.87    1.43   0
   2   0  -3 1940.19    8.69   0
   2   1   9  167.45    3.28   0
   2   3   2    1.45    2.10   0
   3   2  10    3.43    1.86   0
   3   4   3  203.50    3.31   0
   4  -5  -7  377.34    4.88   0
   4  -3  -6  189.59    3.03   0
   4   5   4   17.36    1.37   0
   4   5   5  167.34    3.09   0
   5  -5  -7   67.53    2.72   0
   5  -3  -6   65.02    2.31   0
   5   0  -4  371.96    3.39   0
   5   1  -3   47.67    1.76   0
   5   2  -2  165.12    2.43   0
   5   4   1  255.63    2.79   0
   5   5   3  242.95    2.80   0
   6   0  -4    2.63    1.47   0
   6   1  -3  282.90    2.96   0
   6   2  -2  318.41    3.15   0
   6   3  -1  618.24    3.98   0
   6   6   5   13.98    1.45   0
   6   6   6   34.26    2.07   0
   6   6   9  522.39    5.50   0
   7   1  -3    0.30    1.56   0
   7   2  -2   55.94    1.82   0
   7   5   2    0.53    1.36   0
   7   6   5   23.54    2.02   0
   8   4   1    0.80    2.08   0
   8   6   5  110.57    2.70   0
  -1 -10  -2   49.30    2.46   0
  -1  -9  -3   13.66    1.47   0
  -1  -9  -1  294.19    3.07   0
  -1  -9   0   -0.21    1.46   0
  -1  -9   1    0.00    1.90   0
  -1  -8  -4  223.28    3.07   0
  -1  -8   1   11.33    1.44   0
  -1  -8   2  226.06    3.03   0
  -1  -7  -4 1259.34    7.15   0
  -1  -7   2   17.42    1.39   0
  -1  -6  -4  124.42    3.19   0
  -1  -6   3   -3.05    1.40   0
  -1  -5   3   16.99    1.40   0
  -1  -4   4    7.21    1.63   0
  -1  -3   3   68.88    1.94   0
  -1  -2   0 1346.61    8.42   0
  -1  -2   2 5334.54   13.64   0
  -1  -2   3  164.09    2.86   0
   0 -11  -5  616.29    5.44   0
   0  -7   5   41.24    2.10   0
   0  -5  -5  239.07    6.75   0
   0  -5   6  151.36    2.50   0
   0  -4   6  847.66    4.95   0
   0  -2   6  138.84    2.40   0
   0  -1   6 1635.02    7.61   0
   0   0   5 1045.05    6.91   0
   1  -4   8  147.28    2.92   0
   1  -3   8   81.26    2.30   0
   1  -1  -3 2421.42   12.81   0
   1  -1   8    2.21    1.38   0
   1   1   7  857.02    6.78   0
   2   2   0  237.89    3.40   0
   3  -6  -7  147.02    4.00   0
   3  -2  -5    2.04    1.43   0
   3  -1  -4   50.30    2.23   0
   3   1  -2  405.27    4.00   0
   3   2  -1  180.47    2.62   0
   3   3   1  410.46    4.00   0
   4  -2  -5   39.05    2.12   0
   4   3   0  503.27    3.97   0
   4   3  11    3.32    2.27   0
   4   4   2 3130.50    9.60   0
   4   5   7   56.46    2.13   0
   5   3   0  547.62    4.07   0
   5   5   4   53.83    2.22   0
   6  -2  -5   21.59    1.98   0
   6   4   1   94.27    1.95   0
   6   5   3  758.03    4.63   0
   6   6   7  117.90    2.41   0
   7  -1  -4   31.84    2.31   0
   7   3   0  674.22    4.44   0
   7   4   1  570.22    3.82   0
   7   5   3    9.42    1.41   0
   7   6   6  710.41    4.71   0
   7   6  10    8.20    2.21   0
   8   1  -2    3.95    2.38   0
   8   2  -1   11.12    2.24   0
   8   3   0   77.32    2.29   0
   8   5   3   36.84    1.78   0
   8   6   6  357.90    3.89   0
  -1 -10  -4   71.57    2.59   0
  -1 -10  -3  144.90    2.47   0
  -1 -10  -1   14.18    1.70   0
  -1 -10   0    6.83    1.73   0
  -1  -9  -4   82.54    2.15   0
  -1  -8   3  589.44    4.40   0
  -1  -7   3   10.27    1.49   0
  -1  -6   4  869.18    4.79   0
  -1  -5   4   27.76    1.45   0
  -1  -4  -3 2308.64   12.22   0
  -1  -3  -2 3445.48   15.00   0
  -1  -3   4  893.92    5.06   0
  -1  -2   4   21.73    2.00   0
   0 -10  -6  115.90    2.99   0
   0  -9  -6    3.30    1.41   0
   0  -8  -6   65.89    2.71   0
   0  -6   6   59.38    2.07   0
   0  -4   7   64.56    2.37   0
   0  -3   7  398.65    3.84   0
   0  -2   7  302.35    3.40   0
   1 -10  -7  105.61    3.54   0
   1  -9  -7   83.22    3.96   0
   1   0   8    5.10    1.34   0
   2  -7  -7   40.21    4.07   0
   2  -1  10  326.19    3.87   0
   2   0  10    1.29    1.87   0
   3  -4  -6  242.53    3.96   0
   3   0  -3  441.74    3.96   0
   3   1  11   15.16    2.32   0
   3   4   4 1541.30    8.37   0
   3   4   7    2.31    1.84   0
   4  -6  -7  164.96    3.89   0
   4  -1  -4  242.98    3.31   0
   4   1  -2   16.16    1.99   0
   4   2  -1    4.75    1.46   0
   5  -2  -5  523.12    4.28   0
   5  -1  -4   19.28    2.04   0
   5   2  -1   48.22    2.05   0
   5   4   2  552.88    4.05   0
   5   5   5    2.80    1.72   0
   6  -1  -4   35.28    1.68   0
   6   2  -1  337.51    3.23   0
   6   3   0  560.74    3.86   0
   6   4   2  162.63    2.75   0
   6   5   4   28.50    1.57   0
   6   5  11    2.91    2.18   0
   7   0  -3    4.27    1.49   0
   7   1  -2  181.31    2.55   0
   7   2  -1  441.53    3.52   0
   7   4   2   80.92    2.26   0
   7   5   4    0.93    1.76   0
   7   6   7   21.83    1.59   0
   7   6   8  118.34    2.43   0
   8   4   2    1.80    1.45   0
   8   5   4   26.73    1.66   0
   8   6   7  328.77    3.51   0
   9   5   4   79.35    2.16   0
  -2  -8  -2  263.65    3.03   0
  -2  -8  -1  210.03    2.62   0
  -2  -8   0   23.66    1.77   0
  -2  -7  -2  347.78    3.38   0
  -2  -7  -1  908.39    5.00   0
  -2  -7   0   83.72    2.08   0
  -2  -7   1  106.57    2.08   0
  -2  -6  -2   78.20    2.11   0
  -2  -6  -1 2166.54    7.81   0
  -2  -6   0 1158.46    5.52   0
  -2  -6   1  227.91    2.67   0
  -2  -6   2   75.98    2.15   0
  -2  -5  -1  622.20    4.47   0
  -2  -5   0 1557.11    6.59   0
  -2  -5   1  371.02    3.35   0
  -2  -5   2   80.51    2.27   0
  -2  -4   0 5370.55   12.66   0
  -2  -4   1  333.02    3.69   0
  -1 -11  -4   35.79    1.89   0
  -1 -11  -3   87.71    2.31   0
  -1 -10  -5   36.05    2.12   0
  -1  -9  -5  652.06    5.21   0
  -1  -8  -5  183.68    3.11   0
  -1  -7   4   64.59    2.05   0
  -1  -6   5   31.93    2.32   0
  -1  -5  -4   48.40    2.48   0
  -1  -5   5  313.70    3.11   0
  -1  -4   5  681.42    4.39   0
  -1  -3   5  168.21    2.53   0
  -1  -2  -1  181.92    4.10   0
  -1  -1   1 1713.30   10.06   0
  -1  -1   2 2235.58   10.00   0
  -1  -1   3  894.86    5.99   0
   0 -11  -6    8.85    2.33   0
   0  -7  -6    5.78    1.94   0
   0  -1   7  317.48    3.75   0
   0   0   6  160.39    2.90   0
   1  -2   9  363.69    3.83   0
   1  -1   9    6.45    1.95   0
   1   1   0 2443.64   13.55   0
   1   2   6  576.59    7.91   0
   2  -3  -5   47.24    2.11   0
   2   1  -1 1836.38    8.79   0
   2   2   9  178.17    4.07   0
   3   2   0  535.47    4.55   0
   3   4   5  981.76    7.56   0
   3   4   6  843.63    8.11   0
   4  -4  -6  330.21    4.03   0
   4   0  -3   28.27    1.62   0
   4   3   1  298.95    3.20   0
   4   4   3    4.05    1.41   0
   5  -4  -6   99.46    2.41   0
   5   0  -3  138.67    2.37   0
   5   1  -2  421.07    3.55   0
   5   5   6  396.43    4.32   0
   5   5   9  269.16    4.66   0
   6   0  -3  501.66    3.87   0
   6   1  -2  496.34    3.70   0
   6   5   5    1.23    1.95   0
   7   3   1   20.60    1.83   0
   8   2   0    1.70    1.97   0
   8   3   1   10.34    1.50   0
   8   5   5  209.10    3.15   0
   8   6   8    0.21    1.53   0
   8   6   9   58.92    2.14   0
   9   4   3    4.88    1.64   0
   9   5   5   29.52    1.84   0
  -2 -10  -3   52.01    2.17   0
  -2 -10  -2  143.10    2.47   0
  -2 -10  -1   37.09    1.90   0
  -2  -9  -3  113.29    2.34   0
  -2  -9  -2  388.87    3.47   0
  -2  -9  -1   16.70    1.66   0
  -2  -9   0   37.16    1.72   0
  -2  -9   1   24.14    1.77   0
  -2  -8  -3    9.85    1.58   0
  -2  -8   1   83.85    1.99   0
  -2  -8   2   13.32    1.64   0
  -2  -7  -3   54.56    1.92   0
  -2  -7   2   13.45    1.46   0
  -2  -6  -3   75.93    2.50   0
  -2  -6   3  218.00    2.66   0
  -2  -5  -2  143.31    2.52   0
  -2  -5   3   30.16    1.58   0
  -2  -4  -1  200.42    2.92   0
  -2  -4   2   51.72    1.80   0
  -2  -4   3  163.46    2.67   0
  -2  -3   1 1019.33    5.82   0
  -1 -11  -5    1.24    1.64   0
  -1  -7  -5   29.95    1.80   0
  -1  -5   6  589.57    4.39   0
  -1  -4   6  419.21    3.63   0
  -1  -3   6  885.00    5.24   0
  -1  -2   5   68.62    1.87   0
  -1  -1   4  708.01    5.13   0
   0  -3   8   37.25    1.85   0
   0  -2   8   49.38    2.12   0
   0   1   3   13.93    2.70   0
   0   1   4   75.50    2.78   0
   1   0   9  139.08    2.96   0
   1   1   8  276.49    3.93   0
   2  -2  -4  549.40    5.56   0
   2   0  -2 9322.50   20.11   0
   2   1  10  243.77    4.00   0
   2   2   1   17.72    1.96   0
   2   3   4 2008.52   12.94   0
   3  -3  -5  246.94    3.76   0
   3   3   2   53.62    1.91   0
   4  -3  -5   45.28    2.34   0
   4   2   0    2.85    2.02   0
   4   4   4  193.58    3.23   0
   5  -3  -5    7.00    1.99   0
   5   3   1 4622.57   11.01   0
   5   4   3 2552.69    8.55   0
   5   5   8  453.01    4.98   0
   6  -3  -5   33.39    1.77   0
   6   3   1  197.27    2.50   0
   6   4   3   66.97    1.88   0
   6   5   6  296.83    3.64   0
   6   5  10    1.37    1.85   0
   7  -2  -4    5.83    1.60   0
   7  -1  -3  397.33    3.75   0
   7   2   0  268.29    2.72   0
   7   4   3  101.76    1.94   0
   7   5   5  237.94    2.86   0
   8   0  -2    4.18    1.67   0
   8   1  -1  139.76    2.39   0
   8   4   3  237.84    2.71   0
   8   5   6  509.07    4.29   0
   9   3   2  161.01    2.42   0
   9   4   4   24.66    2.22   0
   9   5   6    0.75    1.59   0
  -2 -10  -4   30.62    2.32   0
  -2  -9  -4   23.69    1.52   0
  -2  -8  -4   70.13    2.06   0
  -2  -7  -4  138.51    2.94   0
  -2  -7   3   12.81    1.52   0
  -2  -6   4   34.71    1.75   0
  -2  -5   4   17.10    1.51   0
  -2  -4   4   17.12    1.55   0
  -2  -3   0  187.00    2.86   0
  -2  -3   2  330.25    3.26   0
  -2  -3   3   13.33    1.59   0
  -1  -2   6  256.06    2.99   0
  -1  -1   5  286.54    3.40   0
   0  -1   8  289.44    3.62   0
   0   0   7   11.15    1.42   0
   0   1   5  912.73    7.53   0
   1   2   3   66.28    4.56   0
   1   2   7 3239.44   16.49   0
   2  -5  -6  166.92    4.13   0
   2  -1  -3 3227.59   12.14   0
   3  -7  -7  129.17    4.13   0
   3  -2  -4    7.23    1.91   0
   3   1  -1  291.50    3.37   0
   3   2  11    0.04    2.06   0
   4  -7  -7   35.19    2.58   0
   4   3   2  517.43    4.38   0
   5  -5  -6    1.38    1.88   0
   5  -2  -4   23.57    2.00   0
   5   2   0  374.42    3.41   0
   5   4   4   -1.06    1.89   0
   5   4  11  125.63    6.30   0
   6  -2  -4  299.60    3.22   0
   6  -1  -3  374.87    3.59   0
   6   0  -2  131.76    2.55   0
   6   1  -1  509.70    3.74   0
   6   2   0   82.90    1.89   0
   6   5   7   25.35    1.63   0
   6   5   9  395.02    4.76   0
   7   0  -2  716.24    4.46   0
   7   1  -1  343.22    3.17   0
   7   3   2  209.36    2.90   0
   7   5   6  344.78    3.45   0
   7   5   7  448.84    4.27   0
   7   5  11  111.63    3.24   0
   8   2   1   74.91    2.29   0
   8   3   2  313.42    2.99   0
   8   4   4   76.61    1.91   0
   8   5   7  126.37    2.75   0
   9   1   0   -0.96    1.73   0
   9   2   1  474.82    3.63   0
   9   5   7   10.49    1.71   0
  -3  -9  -2    0.54    1.85   0
  -3  -9  -1   60.14    2.34   0
  -3  -8  -2  109.50    2.55   0
  -3  -8  -1   38.27    1.78   0
  -3  -8   0    3.42    1.41   0
  -3  -8   1  126.79    2.54   0
  -3  -7  -2  114.40    2.34   0
  -3  -7  -1    2.54    1.36   0
  -3  -7   0  218.71    2.67   0
  -3  -7   1  141.31    2.66   0
  -3  -6  -1   76.57    2.48   0
  -3  -6   0  147.58    2.35   0
  -3  -6   1  325.76    3.37   0
  -2 -11  -4    5.61    1.78   0
  -2 -10  -5   12.91    1.85   0
  -2  -9  -5   14.85    2.00   0
  -2  -6  -4  237.19    3.64   0
  -2  -5  -3  956.41    6.28   0
  -2  -5   5  325.23    3.19   0
  -2  -4  -2    0.33    1.50   0
  -2  -4   5   -0.12    1.88   0
  -2  -3  -1 1577.48    8.23   0
  -2  -3   4  152.09    2.36   0
  -2  -2   1 9514.51   18.21   0
  -2  -2   2  301.70    3.32   0
  -2  -2   3  175.76    2.98   0
  -1 -11  -6   84.95    2.43   0
  -1 -10  -6    0.73    1.43   0
  -1  -9  -6    1.61    1.27   0
  -1  -6  -5  495.68    5.90   0
  -1  -4   7  145.67    2.53   0
  -1  -3   7  720.74    4.82   0
  -1  -2   7  586.76    4.50   0
  -1  -1   0 2452.50   13.63   0
  -1  -1   6  808.89    5.19   0
   0 -10  -7    6.82    2.04   0
   0   1   6 1084.25    7.71   0
   1  -4  -5  715.09    9.53   0
   1   0  -1 1011.32    9.32   0
   1   1   9    5.57    1.62   0
   2   3   5 1843.49   15.35   0
   3  -5  -6  821.62    6.95   0
   3  -1  -3   72.94    2.11   0
   3   0  -2  331.25    3.62   0
   3   2   1    7.67    2.14   0
   3   3   3 1362.41    7.73   0
   3   3  10   32.54    4.47   0
   4  -5  -6    1.07    1.39   0
   4  -2  -4   69.55    2.00   0
   4  -1  -3  310.52    3.38   0
   4   0  -2  104.32    2.23   0
   4   1  -1 1636.17    6.92   0
   4   4   5  452.39    4.50   0
   5  -1  -3  140.80    2.37   0
   5   0  -2   75.74    1.94   0
   5   1  -1  733.96    4.54   0
   5   3   2 1940.36    7.43   0
   6  -4  -5  259.24    3.24   0
   6   3   2 1682.21    6.55   0
   6   4   4  102.09    2.15   0
   7  -3  -4  185.16    2.79   0
   7   2   1    7.43    1.74   0
   7   4   4   95.39    2.02   0
   7   5   8    5.77    1.42   0
   7   5  10   33.00    1.89   0
   8  -1  -2   52.44    2.02   0
   8   0  -1    2.90    1.53   0
   8   1   0  107.31    2.12   0
   8   3   3    0.62    1.95   0
   8   4   5  112.66    2.50   0
   8   5   8    8.72    1.52   0
   8   5   9   93.10    2.68   0
   9   2   2   -0.46    2.06   0
   9   3   3   91.17    2.14   0
   9   4   5    3.87    1.57   0
   9   5   8   15.22    1.84   0
  -3 -10  -3    6.31    2.26   0
  -3 -10  -2   40.73    1.93   0
  -3  -9  -3  190.74    2.68   0
  -3  -9   0    5.97    1.56   0
  -3  -8  -3   14.45    1.56   0
  -3  -7  -3    2.21    1.89   0
  -3  -7   2  156.39    2.35   0
  -3  -7   3   89.33    2.75   0
  -3  -6  -2   60.65    1.93   0
  -3  -6   2  321.27    3.12   0
  -3  -6   3   92.14    2.41   0
  -3  -5  -1  100.36    2.22   0
  -3  -5   0   67.82    1.93   0
  -3  -5   1  116.13    2.15   0
  -3  -5   2  245.47    2.78   0
  -3  -5   3  302.71    3.23   0
  -3  -4   1   57.33    2.22   0
  -2 -11  -5   12.09    1.79   0
  -2  -8  -5   -0.58    1.39   0
  -2  -4   6   58.45    2.21   0
  -2  -3   5    3.26    1.29   0
  -2  -2   4   89.32    2.10   0
  -1  -8  -6   13.37    1.60   0
  -1   0   3 4125.56   14.21   0
  -1   0   4    6.94    1.46   0
  -1   0   5  242.21    3.60   0
   0  -9  -7    0.02    1.74   0
   0  -1   9  123.96    2.89   0
   0   0   8  109.97    2.43   0
   1   0  10  526.34    5.06   0
   2   1   0  105.99    3.40   0
   4   2   1 3160.60    9.80   0
   4   4   9  322.70    6.33   0
   5  -4  -5   25.37    1.66   0
   5   2   1  407.52    3.84   0
   5   4   5    5.71    1.37   0
   6  -3  -4  204.94    3.07   0
   6   2   1  172.41    2.42   0
   6   4   5    3.51    1.34   0
   7  -2  -3 1182.28    5.98   0
   7  -1  -2  606.82    4.38   0
   7   0  -1  115.68    2.42   0
   7   1   0   93.99    1.98   0
   7   3   3  175.03    2.44   0
   7   4   5 1406.84    6.40   0
   8   2   2  182.53    2.89   0
   9   0   0  729.48    4.37   0
   9   1   1  154.71    2.38   0
   9   3   4   -2.25    1.57   0
   9   4   6   72.51    2.05   0
  -3 -10  -4    2.83    1.60   0
  -3  -9  -4    1.45    1.57   0
  -3  -8  -4   40.63    1.79   0
  -3  -6  -3   22.67    2.20   0
  -3  -6   4   -0.31    1.69   0
  -3  -5  -2   35.14    1.77   0
  -3  -5   4   74.89    1.90   0
  -3  -4  -1  214.55    3.19   0
  -3  -4   0  257.54    3.06   0
  -3  -4   2  113.96    2.08   0
  -3  -4   3    5.40    1.31   0
  -2 -11  -6   65.10    2.54   0
  -2 -10  -6   33.41    2.14   0
  -2  -7  -5   89.98    2.40   0
  -2  -3   6  198.94    2.77   0
  -2  -2   0  231.70    3.45   0
  -2  -2   5   77.70    1.90   0
  -2  -1   3 1086.30    6.25   0
  -1  -3  -3 1628.90   13.04   0
  -1  -2   8   21.52    1.69   0
  -1  -1   7  482.16    4.17   0
  -1   0   2 1796.09   10.49   0
  -1   0   6  113.96    2.79   0
   0   1   7  394.94    4.59   0
   1   2   8   47.90    2.53   0
   2  -4  -5 1155.94    8.79   0
   2   2   2  183.89    3.76   0
   2   2  10  104.81    3.45   0
   2   3   6  121.38    5.54   0
   3  -4  -5   51.49    2.49   0
   4  -8  -7   34.01    2.74   0
   4  -4  -5   30.36    1.70   0
   4   3   3  299.27    3.46   0
   4   4   7  132.20    3.01   0
   4   4   8  141.60    3.64   0
   5  -6  -6    0.69    1.53   0
   5  -3  -4  139.26    2.72   0
   5   1   0 2686.83    8.74   0
   5   3   3  467.45    3.97   0
   5   4   6  161.73    3.14   0
   6  -5  -5  171.23    3.31   0
   6  -2  -3  250.45    2.99   0
   6  -1  -2 1259.62    6.07   0
   6   0  -1    3.72    1.95   0
   6   1   0 1447.76    6.09   0
   6   3   3    1.14    1.43   0
   6   4   6   86.15    2.38   0
   7  -4  -4  295.55    3.69   0
   7   2   2   46.48    2.13   0
   7   4   6   14.45    1.83   0
   8  -2  -2   -3.62    2.17   0
   8   1   1   90.23    1.92   0
   8   3   4  192.67    2.56   0
   8   4   6  443.99    3.72   0
   9   2   3  122.57    2.13   0
   9   3   5    0.41    1.94   0
   9   4   7   28.63    1.69   0
  -4  -9  -2   25.56    2.22   0
  -4  -9  -1   30.06    1.81   0
  -4  -8  -2   -1.09    1.97   0
  -4  -8  -1   65.79    1.96   0
  -4  -7  -1   -1.77    1.34   0
  -4  -7   0   12.90    1.49   0
  -4  -7   1  121.32    2.24   0
  -4  -6   1  109.94    2.59   0
  -3 -10  -5    1.42    2.00   0
  -3  -9  -5   48.28    2.38   0
  -3  -7  -4  119.11    2.39   0
  -3  -5   5    2.63    1.74   0
  -3  -4   4  304.66    3.17   0
  -3  -4   5   91.47    2.36   0
  -3  -3   0  677.23    4.80   0
  -3  -3   1  294.34    3.25   0
  -3  -3   2   66.32    1.96   0
  -3  -3   3  262.24    2.86   0
  -3  -3   4  326.13    3.45   0
  -2  -9  -6   34.27    1.86   0
  -2  -5  -4  306.91    4.44   0
  -2  -4  -3  115.64    2.77   0
  -2  -3  -2    2.13    1.63   0
  -2  -3   7    0.71    2.15   0
  -2  -2   6  137.15    2.35   0
  -2  -1   2 5494.54   14.10   0
  -2  -1   4   64.48    1.92   0
  -2  -1   5   13.64    2.04   0
  -1 -11  -7   33.31    2.16   0
  -1 -10  -7  104.12    3.15   0
  -1  -7  -6    7.71    1.94   0
  -1  -4  -4  479.52    7.32   0
  -1  -1   8  148.39    2.89   0
  -1   0   7  122.71    2.72   0
   0   0   9   47.66    1.89   0
   0   1   8  886.77    6.94   0
   1  -3  -4 1623.44   12.72   0
   1  -1  -2  783.13    8.17   0
   1   1  10   13.83    2.04   0
   2   0  -1  181.32    3.76   0
   3  -8  -7    3.32    2.09   0
   3   1   0  175.53    2.91   0
   4  -6  -6   51.74    2.37   0
   4  -3  -4  338.68    3.94   0
   4   1   0 1654.85    7.06   0
   5  -2  -3   15.23    1.50   0
   5  -1  -2  564.59    4.41   0
   5   0  -1  327.99    3.20   0
   5   4  10  155.97    3.93   0
   6   2   2  178.59    2.76   0
   6   4  11   13.86    2.29   0
   7  -3  -3  366.70    3.80   0
   7   1   1   43.04    2.21   0
   7   3   4  525.13    4.00   0
   7   4   7    9.20    1.73   0
   8  -1  -1   13.56    1.60   0
   8   0   0  102.29    2.07   0
   8   2   3  204.20    2.79   0
   8   4   7    0.22    1.42   0
   8   4   8    8.53    2.00   0
   9  -1   0   73.50    2.53   0
   9   0   1    3.11    2.09   0
   9   1   2  472.92    3.71   0
   9   4   8    3.17    1.64   0
   9   4   9   59.73    2.64   0
  -4 -10  -3    8.09    1.85   0
  -4  -9  -3    9.50    1.60   0
  -4  -8  -3  109.60    2.17   0
  -4  -7  -3   92.10    2.32   0
  -4  -7  -2  304.97    3.14   0
  -4  -7   2  871.51    4.89   0
  -4  -6  -2  312.07    3.43   0
  -4  -6  -1   94.03    2.15   0
  -4  -6   2  237.03    2.83   0
  -4  -6   3  399.52    3.37   0
  -4  -5   0    1.42    1.35   0
  -4  -5   1   76.61    1.88   0
  -4  -5   2  364.38    3.29   0
  -4  -5   3  690.12    4.52   0
  -3  -8  -5  252.71    3.31   0
  -3  -6  -4  194.38    3.19   0
  -3  -5  -3  182.05    2.81   0
  -3  -4  -2   19.18    1.59   0
  -3  -3   5   64.56    1.94   0
  -3  -2   2  227.54    3.22   0
  -3  -2   3  398.77    3.81   0
  -2  -8  -6   27.46    2.37   0
  -2  -6  -5  116.09    3.01   0
  -2  -2  -1   18.31    2.75   0
  -2  -2   7   43.22    1.78   0
  -2  -1   1 1841.00    8.85   0
  -2  -1   6  284.69    3.50   0
   0   1   2 2540.40   26.03   0
   1  -2  -3  127.89    3.96   0
   1   1   1 1088.46   11.10   0
   2  -8  -7   54.39    3.64   0
   2  -3  -4 1199.31    8.50   0
   3  -6  -6   -1.91    1.77   0
   3  -3  -4   45.12    1.88   0
   3   0  -1  126.12    2.54   0
   3   2   2    8.91    1.70   0
   4  -2  -3   60.58    1.83   0
   4  -1  -2  259.55    3.39   0
   4   0  -1  604.65    4.42   0
   4   2   2  271.40    3.23   0
   4   3   4 1230.02    6.92   0
   5  -7  -6    0.67    2.18   0
   5  -5  -5  196.62    3.02   0
   5   2   2 2699.35    8.77   0
   5   3   4  293.41    3.32   0
   5   4   8    0.06    1.25   0
   5   4   9  115.20    3.10   0
   6  -4  -4  142.24    2.54   0
   6   1   1 1110.78    5.54   0
   6   3   4  255.27    2.99   0
   6   4   7  530.20    4.61   0
   6   4  10    5.12    1.84   0
   7  -2  -2  253.20    2.93   0
   7  -1  -1  246.66    2.79   0
   7   0   0    3.09    1.37   0
   7   2   3   33.83    1.95   0
   7   4   8   90.52    2.28   0
   7   4  11   53.19    2.70   0
   8   1   2    0.96    1.60   0
   8   3   5  216.65    2.66   0
   8   4   9   42.99    1.81   0
   8   4  10   69.34    2.62   0
   9   2   4   14.81    1.48   0
   9   3   6   62.46    1.93   0
  10   2   5   50.43    1.98   0
  -4 -10  -4  100.24    2.24   0
  -4  -9  -4   81.97    2.18   0
  -4  -8  -4  569.89    4.21   0
  -4  -5  -1  844.33    4.83   0
  -4  -5   4   32.89    1.82   0
  -4  -4   0   19.82    1.49   0
  -4  -4   1  184.46    2.50   0
  -4  -4   2    2.28    1.41   0
  -4  -4   3  354.47    3.31   0
  -3 -10  -6   81.31    2.65   0
  -3  -7  -5  115.48    2.76   0
  -3  -3  -1  388.22    3.74   0
  -3  -3   6   38.59    1.80   0
  -3  -2   1  173.61    2.59   0
  -3  -2   4    4.05    1.35   0
  -3  -2   5  695.89    4.78   0
  -2  -1   7  254.04    3.39   0
  -1  -9  -7    8.81    1.88   0
  -1   0   1 1027.18    9.25   0
  -1   0   8  833.37    5.75   0
  -1   1   5  101.02    2.84   0
   0   1   9  308.34    4.21   0
   1  -6  -6  228.47    6.58   0
   1   2   9   18.21    1.96   0
   2  -6  -6  627.45    7.47   0
   2  -2  -3 2138.56   10.68   0
   2  -1  -2 2591.04   11.37   0
   3  -2  -3  425.71    4.33   0
   3  -1  -2  612.41    4.95   0
   3   3   5 2467.08   12.35   0
   4  -5  -5   86.88    2.71   0
   5  -4  -4   37.16    2.21   0
   5   1   1 1276.70    6.17   0
   6  -6  -5  150.97    2.86   0
   6  -3  -3  756.75    4.91   0
   6  -2  -2  172.17    2.91   0
   6  -1  -1  340.04    3.53   0
   6   0   0   49.41    1.78   0
   6   2   3   82.53    2.36   0
   6   3   5  890.59    5.46   0
   6   4   9    2.22    1.23   0
   7  -5  -4  123.32    2.52   0
   7   3   5  168.86    2.51   0
   7   4  10   67.91    2.15   0
   8  -3  -2   30.70    1.68   0
   8  -2  -1    9.57    1.57   0
   8  -1   0  220.89    2.65   0
   8   0   1   51.67    1.75   0
   8   2   4  201.56    2.50   0
   8   3   6   59.03    1.75   0
   9   0   2  180.38    2.78   0
   9   1   3   93.43    2.00   0
   9   2   5   97.26    2.37   0
   9   3   7   17.32    1.58   0
  10   0   3    0.16    2.30   0
  10   1   4   35.59    1.85   0
  10   2   6    1.17    1.70   0
  -5  -9  -3  120.22    2.78   0
  -5  -8  -2  102.69    2.14   0
  -5  -8  -1   83.40    2.12   0
  -5  -7  -2   52.73    2.21   0
  -5  -7  -1    4.66    1.53   0
  -5  -7   0   29.09    1.61   0
  -5  -7   1  128.83    2.37   0
  -5  -6   0  447.95    3.49   0
  -5  -6   1    5.79    1.50   0
  -5  -6   2   89.44    2.40   0
  -4 -10  -5   51.30    2.00   0
  -4  -9  -5  172.57    2.76   0
  -4  -7  -4  166.97    2.60   0
  -4  -6  -3 1235.30    5.98   0
  -4  -5  -2  259.27    3.04   0
  -4  -4  -1    9.30    1.48   0
  -4  -4   4  164.07    2.41   0
  -4  -4   5   49.87    2.33   0
  -4  -3   1  246.80    3.13   0
  -4  -3   2  283.32    2.94   0
  -4  -3   3  397.78    3.40   0
  -3  -9  -6  104.49    2.48   0
  -3  -2   0  538.94    4.38   0
  -3  -2   6    6.49    1.59   0
  -2 -10  -7   25.26    1.82   0
  -2   0   3 1859.44    8.47   0
  -2   0   4  290.66    3.52   0
  -2   0   5   11.33    1.56   0
  -2   0   6   88.85    2.54   0
  -1  -5  -5  336.01    6.56   0
  -1   1   4  677.70    6.26   0
  -1   1   6  544.95    5.09   0
   2   2  11   14.45    2.43   0
   4  -7  -6  115.00    3.07   0
   4   1   1  700.06    4.77   0
   4   3   5  219.81    3.36   0
   5  -3  -3  140.62    2.71   0
   5   0   0  754.52    4.96   0
   5   2   3   90.87    2.47   0
   5   3   5   -1.04    1.42   0
   6  -5  -4  118.01    2.78   0
   7  -4  -3   71.29    2.02   0
   7  -3  -2  228.51    3.15   0
   7   0   1   -0.12    1.88   0
   7   1   2   28.24    1.49   0
   7   2   4 1865.98    7.21   0
   7   3   6  102.93    2.24   0
   8   1   3  492.14    3.60   0
   8   3   7   13.22    1.47   0
   9  -2   0    7.74    1.61   0
   9  -1   1  201.19    2.59   0
   9   1   4   15.46    1.97   0
   9   3   8    6.20    1.55   0
   9   3   9  152.86    3.00   0
  10   1   5  514.61    3.96   0
  -5  -9  -4  163.91    2.61   0
  -5  -8  -3  208.50    2.69   0
  -5  -7  -3  525.95    4.20   0
  -5  -6  -2   49.87    1.70   0
  -5  -6  -1    6.20    1.41   0
  -5  -5  -1   12.10    1.85   0
  -5  -5   0    5.70    1.33   0
  -5  -5   1    1.73    1.41   0
  -5  -5   2  171.25    2.45   0
  -5  -5   3   62.12    2.50   0
  -4 -10  -6    2.28    1.95   0
  -4  -8  -5   15.33    1.50   0
  -4  -6  -4  166.41    2.96   0
  -4  -5  -3  112.03    2.25   0
  -4  -4  -2 3107.94    9.70   0
  -4  -3   0  499.97    3.94   0
  -4  -3   4  180.75    2.49   0
  -4  -3   5   -0.19    2.06   0
  -3  -8  -6  534.55    5.30   0
  -3  -5  -4  118.85    2.55   0
  -3  -4  -3  190.06    2.97   0
  -3  -3  -2   51.93    2.34   0
  -3  -2   7    0.77    2.26   0
  -3  -1   2  379.58    3.69   0
  -3  -1   3   59.68    1.86   0
  -3  -1   4 1384.05    6.41   0
  -3  -1   5  391.48    3.58   0
  -2  -9  -7   81.16    2.80   0
  -2  -7  -6  306.77    4.89   0
  -2  -1   0   99.89    2.95   0
  -2  -1   8    0.22    1.59   0
  -2   0   2 9423.92   20.38   0
  -2   0   7  331.49    3.84   0
  -1  -1  -1 1149.00   11.47   0
  -1   0   9    2.04    1.58   0
  -1   1   7  860.12    6.22   0
   0   2   6 1499.83   11.19   0
   0   2   7  259.76    4.65   0
   2   1   1 2429.69   11.74   0
   3  -9  -7   44.63    2.95   0
   3  -5  -5  174.19    3.48   0
   3   1   1  252.75    3.50   0
   3   3  10   31.86    4.35   0
   4  -4  -4    9.70    1.81   0
   4   2   3  243.24    3.21   0
   5  -6  -5    5.38    1.50   0
   5  -2  -2  137.20    2.46   0
   5  -1  -1 1455.83    6.47   0
   6   1   2  231.44    2.86   0
   6   3   6    5.14    1.44   0
   7  -2  -1    3.33    1.28   0
   7  -1   0  253.59    2.84   0
   7   3   7   74.42    2.29   0
   8  -4  -2   13.25    1.62   0
   8  -3  -1   39.15    2.18   0
   8  -1   1   77.19    2.26   0
   8   0   2  200.31    2.54   0
   8   2   5  811.72    4.72   0
   8   3   8   18.76    1.45   0
   9   0   3   62.84    1.89   0
   9   2   6    8.64    1.47   0
  10   0   4  112.42    2.22   0
  -6  -8  -2  659.16    5.26   0
  -6  -7  -1   72.37    2.47   0
  -5  -9  -5  248.37    3.49   0
  -5  -8  -4  604.64    4.34   0
  -5  -6  -3  176.37    2.96   0
  -5  -5  -2 1923.61    7.21   0
  -5  -4   0    2.18    1.28   0
  -5  -4   1   84.98    2.05   0
  -5  -4   2  184.97    2.54   0
  -5  -4   3  190.02    2.62   0
  -4  -9  -6  157.49    3.04   0
  -4  -7  -5  194.63    3.18   0
  -4  -3  -1  301.00    3.20   0
  -4  -2   1    8.41    1.83   0
  -4  -2   2   88.03    2.04   0
  -4  -2   3   -0.97    1.26   0
  -4  -2   4 1829.67    6.96   0
  -4  -2   5  258.21    3.25   0
  -3 -10  -7   44.07    2.52   0
  -3  -6  -5  385.86    4.20   0
  -3  -2  -1    6.39    2.20   0
  -3  -1   1  308.56    3.67   0
  -3  -1   6    2.55    1.31   0
  -2  -4  -4  396.12    5.36   0
  -2  -3  -3    1.13    1.65   0
  -1   1   3 2352.06   12.60   0
  -1   1   8  664.36    5.49   0
   0   1  10    5.52    1.62   0
   0   2   5  302.22    6.11   0
   0   2   8  216.07    4.13   0
   1   2  10    7.69    2.28   0
   3  -7  -6   26.91    2.32   0
   3   2   3 2083.27    9.86   0
   3   3   6  103.62    2.96   0
   4  -3  -3    7.29    1.79   0
   4  -1  -1 1001.38    5.89   0
   4   0   0 1030.98    5.74   0
   5   1   2  291.40    3.47   0
   5   3   6  881.32    5.90   0
   6  -4  -3    0.72    1.32   0
   6  -3  -2   33.01    2.07   0
   6   0   1  341.25    3.19   0
   6   2   4   39.90    1.80   0
   6   3   7  718.90    5.36   0
   7  -5  -3   79.41    2.06   0
   7   1   3  332.43    3.10   0
   7   2   5    6.70    1.29   0
   7   3   8  218.61    3.17   0
   8  -2   0  140.00    2.30   0
   8   1   4 1006.32    5.09   0
   8   2   6    1.36    1.27   0
   8   3   9   12.61    1.55   0
   8   3  10  130.67    2.68   0
   9  -3   0   43.26    1.81   0
   9  -2   1    3.75    1.47   0
   9  -1   2   26.45    1.64   0
   9   1   5    0.45    1.34   0
   9   2   7    6.94    1.46   0
  10  -1   3  102.82    2.23   0
  10   1   6  215.09    2.75   0
  -6  -8  -3   63.53    2.20   0
  -6  -7  -2    1.29    1.50   0
  -6  -6  -1  665.11    4.75   0
  -6  -6   0   46.56    1.97   0
  -6  -6   1   30.82    1.95   0
  -6  -5   1  237.95    2.99   0
  -5  -8  -5  470.50    4.23   0
  -5  -7  -4  152.22    2.42   0
  -5  -4  -1  265.34    2.85   0
  -5  -4   4   35.89    1.96   0
  -5  -3   1    0.95    1.75   0
  -5  -3   2   45.48    1.66   0
  -5  -3   3   94.80    2.00   0
  -5  -3   4    5.59    1.87   0
  -4  -8  -6  322.22    3.99   0
  -4  -2   0    4.78    1.96   0
  -4  -2   6    5.09    2.34   0
  -3  -9  -7  446.72    5.18   0
  -3  -7  -6  999.38    7.09   0
  -3  -1   7    1.22    1.66   0
  -3   0   4  432.15    4.14   0
  -3   0   5   49.14    2.11   0
  -2  -5  -5  496.58    6.11   0
  -2  -2  -2  183.57    4.03   0
  -2   0   8    0.80    1.49   0
  -1  -8  -7    8.99    2.44   0
  -1   1   9  311.36    4.18   0
   2  -5  -5 1067.22    8.56   0
   3  -4  -4  332.21    4.19   0
   3   0   0 1890.28    8.56   0
   4  -8  -6   58.59    2.80   0
   4  -6  -5    9.66    1.48   0
   4  -2  -2  193.20    2.83   0
   4   3  11    3.01    2.04   0
   5  -7  -5   -0.20    1.97   0
   5  -5  -4   15.32    1.47   0
   5   2   4   20.76    1.53   0
   6  -6  -4   42.33    1.94   0
   6  -2  -1  276.43    2.94   0
   6  -1   0  800.40    4.67   0
   6   1   3    9.34    1.88   0
   6   3   8  204.57    3.31   0
   7  -4  -2    0.18    1.34   0
   7  -3  -1  192.04    2.88   0
   7  -1   1    2.23    1.72   0
   7   0   2    4.14    1.24   0
   7   3   9   13.99    1.43   0
   7   3  11   29.05    1.96   0
   8  -5  -2   47.58    2.09   0
   8   0   3  585.60    3.90   0
   8   2   7    9.31    1.88   0
   9   0   4   66.78    1.87   0
   9   1   6   75.65    2.39   0
   9   2   8   66.29    2.06   0
   9   2   9  171.62    3.16   0
  10   0   5   76.07    2.26   0
  -6  -8  -4  114.20    2.28   0
  -6  -7  -3   17.03    1.59   0
  -6  -6  -2  172.66    2.46   0
  -6  -5  -1   19.76    1.43   0
  -6  -5   0  304.54    3.03   0
  -6  -5   2   -0.14    1.74   0
  -6  -4   1  102.45    2.33   0
  -6  -4   2    6.31    1.82   0
  -5 -10  -6   26.50    1.91   0
  -5  -9  -6   23.06    2.24   0
  -5  -7  -5   49.90    2.08   0
  -5  -6  -4  731.78    4.66   0
  -5  -5  -3  239.64    2.90   0
  -5  -4  -2  552.09    4.00   0
  -5  -3   0  537.53    3.83   0
  -4 -10  -7   33.10    2.38   0
  -4  -6  -5   65.40    2.28   0
  -4  -5  -4   15.84    1.40   0
  -4  -4  -3    3.82    1.37   0
  -4  -3  -2  523.41    4.09   0
  -4  -1   2   13.42    1.99   0
  -4  -1   3  371.87    3.42   0
  -4  -1   4  857.64    5.01   0
  -4  -1   5  375.42    3.48   0
  -3  -1   0  185.55    3.33   0
  -3   0   3  435.45    3.92   0
  -3   0   6  755.45    5.08   0
  -2   0   1  173.45    3.34   0
  -2   1   4  107.95    2.95   0
  -2   1   5  186.78    2.99   0
  -2   1   6    6.10    1.20   0
  -2   1   7   22.40    1.90   0
   0   2   9  241.84    4.44   0
   2  -9  -7   85.54    4.13   0
   2   0   0 1934.99   10.29   0
   3  -3  -3  470.61    4.76   0
   3  -2  -2 1404.77    7.62   0
   3  -1  -1    3.83    1.54   0
   3   3   7  149.30    3.85   0
   4   1   2 1954.64    8.06   0
   4   2   4  855.05    5.79   0
   4   3   7  494.37    5.25   0
   5  -4  -3    2.07    1.29   0
   5  -3  -2  529.13    4.42   0
   5  -1   0 2470.84    8.58   0
   5   0   1  281.44    3.04   0
   5   3   8  199.67    3.40   0
   5   3  11   24.37    2.33   0
   6  -5  -3   16.43    2.07   0
   6   2   5   51.64    1.87   0
   6   3  10   55.82    2.27   0
   6   3  11   86.04    2.64   0
   7  -6  -3   -0.50    1.51   0
   7  -2   0   93.43    2.02   0
   7   1   4  578.63    4.04   0
   7   2   6   -0.30    1.26   0
   8  -4  -1    7.28    1.54   0
   8  -3   0  218.42    2.62   0
   8  -2   1   70.60    1.85   0
   8  -1   2  137.05    2.22   0
   8   1   5  264.24    2.82   0
   8   2   8   10.84    1.84   0
   9  -4   0  115.36    2.25   0
   9  -3   1   81.20    2.04   0
   9  -2   2    3.47    1.39   0
   9  -1   3    7.08    1.39   0
   9   0   5   -1.99    1.96   0
   9   1   7    7.78    1.98   0
  10   0   6  206.76    2.79   0
  -6  -9  -5   20.48    1.79   0
  -6  -8  -5   24.26    2.07   0
  -6  -7  -4  241.14    2.85   0
  -6  -6  -3   19.06    1.56   0
  -6  -5  -2   45.95    1.70   0
  -6  -4  -1   93.68    2.28   0
  -6  -4   0 1063.69    5.10   0
  -5  -8  -6   12.45    1.76   0
  -5  -3  -1 4711.34   11.08   0
  -5  -2   1   46.18    1.71   0
  -5  -2   2  174.46    2.47   0
  -5  -2   3  248.67    2.71   0
  -5  -2   4  116.60    2.21   0
  -5  -2   5   46.54    2.37   0
  -4  -9  -7   77.74    2.63   0
  -4  -7  -6  111.51    2.81   0
  -4  -2  -1 3239.94    9.83   0
  -4  -1   1 1692.80    7.12   0
  -4  -1   6  182.78    2.66   0
  -3  -4  -4 1568.54    8.36   0
  -3  -3  -3 1380.61    7.64   0
  -3   0   2  342.40    3.65   0
  -3   0   7    1.44    1.39   0
  -2  -8  -7 1132.68    9.57   0
  -2   1   8  101.70    2.60   0
  -1  -6  -6   60.04    4.32   0
   1   0   0  162.20    4.79   0
   2  -7  -6   79.20    3.03   0
   2  -4  -4 1693.69   10.00   0
   3   1   2 3348.39   12.04   0
   3   3   8  438.22    6.91   0
   3   3   9  269.90    6.36   0
   4  -5  -4   90.30    2.20   0
   4   3   8    2.86    1.65   0
   4   3  10  201.93    4.58   0
   5  -6  -4   41.62    2.41   0
   5  -2  -1 3390.16    9.72   0
   5   1   3  347.56    3.43   0
   5   2   5  109.67    2.33   0
   5   3   9   47.37    1.93   0
   5   3  10   84.80    2.72   0
   6  -7  -4   87.57    2.56   0
   6  -4  -2    5.36    1.64   0
   6  -1   1  241.07    3.09   0
   6   0   2   17.00    1.44   0
   6   2   6  268.37    3.34   0
   7  -5  -2   24.55    1.92   0
   7   0   3  996.86    5.02   0
   7   2   7   63.29    1.87   0
   8   0   4 1290.23    5.66   0
   8   1   6   18.33    1.35   0
   8   2   9  157.11    2.62   0
   8   2  10  121.51    2.94   0
   9  -1   4   21.53    1.93   0
   9   1   8  312.89    3.51   0
  10  -2   4   73.87    2.06   0
  10  -1   5  163.06    2.50   0
  -7  -7  -3    0.81    1.58   0
  -7  -6  -2  457.05    3.57   0
  -7  -6  -1   16.55    1.62   0
  -7  -5  -1  218.59    2.86   0
  -7  -5   0  675.64    4.22   0
  -6  -9  -6   18.81    2.23   0
  -6  -6  -4  142.11    2.25   0
  -6  -5  -3  779.67    4.62   0
  -6  -3   0  578.40    4.17   0
  -6  -3   1  600.61    3.94   0
  -6  -3   2  133.61    2.20   0
  -6  -3   3   15.58    1.59   0
  -5  -6  -5    0.60    1.74   0
  -5  -5  -4   52.93    1.78   0
  -5  -4  -3 2558.70    8.44   0
  -5  -2   0  392.45    3.45   0
  -4   0   4   26.51    1.99   0
  -4   0   5 2826.45    9.31   0
  -3  -8  -7  229.52    4.26   0
  -3  -5  -5  632.16    5.62   0
  -3  -2  -2    9.76    1.67   0
  -3   0   8    5.24    1.71   0
  -2 -10  -8  232.08    5.45   0
  -2  -6  -6  698.26    7.82   0
  -2  -1  -1 2439.01   11.77   0
  -2   1   3 3211.20   12.03   0
  -1   1   2  801.86    8.38   0
  -1   2   6   31.13    2.11   0
  -1   2   7    0.89    1.60   0
   1  -5  -5 1477.46   11.94   0
   2  -1  -1   19.20    1.91   0
   3  -8  -6   22.93    2.17   0
   3  -6  -5  177.68    3.23   0
   4  -9  -6   -0.75    1.73   0
   4  -7  -5   13.40    1.99   0
   4  -4  -3 1027.41    6.20   0
   4   0   1  493.13    4.13   0
   4   3   9  755.31    7.40   0
   5  -8  -5   57.87    2.19   0
   6  -3  -1  350.25    3.28   0
   6  -2   0  758.04    4.59   0
   6   1   4   64.55    1.88   0
   7  -7  -3   16.84    1.76   0
   7  -4  -1   13.42    1.43   0
   7  -3   0   16.19    1.74   0
   7  -2   1  391.10    3.27   0
   7  -1   2  436.82    3.40   0
   7   1   5  315.95    3.07   0
   7   2   8  230.79    2.94   0
   8  -5  -1  151.09    2.43   0
   8  -4   0    3.50    1.39   0
   8  -3   1   50.00    2.21   0
   8  -2   2  253.17    2.70   0
   8  -1   3  569.52    3.81   0
   8   1   7  348.58    3.65   0
   9  -4   1   29.93    1.80   0
   9  -3   2    3.50    1.39   0
   9  -2   3   21.06    1.43   0
   9   0   6  204.34    2.56   0
   9   1   9  132.54    2.56   0
  -7  -8  -5   14.60    2.24   0
  -7  -7  -4   -0.76    1.46   0
  -7  -6  -3   30.69    1.63   0
  -7  -5  -2   -0.62    1.45   0
  -7  -4   0  367.79    3.26   0
  -7  -4   1  274.67    2.91   0
  -6  -8  -6   39.86    2.18   0
  -6  -7  -5   -1.25    1.36   0
  -6  -4  -2  169.09    2.36   0
  -6  -3  -1  202.05    2.81   0
  -6  -2   2  311.40    2.97   0
  -6  -2   3    8.37    1.41   0
  -6  -2   4    2.96    2.12   0
  -5  -9  -7    1.88    1.44   0
  -5  -7  -6    1.32    1.74   0
  -5  -3  -2 1979.13    7.36   0
  -5  -1   2  440.25    3.54   0
  -5  -1   3   52.73    1.70   0
  -5  -1   4    6.98    1.45   0
  -5  -1   5  200.99    2.71   0
  -4  -8  -7   62.32    2.36   0
  -4  -5  -5  165.97    2.89   0
  -4  -4  -4  182.19    2.79   0
  -4  -3  -3  305.74    3.38   0
  -4  -1   0 1712.63    7.15   0
  -4   0   3   26.12    1.55   0
  -4   0   6   44.07    1.80   0
  -3 -10  -8   12.94    2.24   0
  -3  -6  -6  122.34    3.19   0
  -3   0   1  133.50    2.57   0
  -3   1   4   54.03    2.11   0
  -3   1   5  390.08    3.90   0
  -3   1   6  154.99    2.68   0
  -3   1   7   27.29    1.85   0
  -2   1   9   54.46    2.16   0
  -1 -10  -8    3.15    4.52   0
  -1   2   5  144.16    3.41   0
  -1   2   8  264.10    4.09   0
   0   2  10   15.75    2.22   0
   2  -3  -3 1693.41    9.64   0
   2  -2  -2  245.05    3.89   0
   2   1   2  815.65    7.60   0
   2   2   4 1116.01    9.84   0
   4  -3  -2  339.66    3.58   0
   4  -2  -1   21.56    1.51   0
   4  -1   0 2673.90    9.16   0
   4   1   3 1135.49    6.35   0
   4   2   5   98.19    2.38   0
   5  -5  -3   81.38    2.15   0
   5   0   2  112.68    2.16   0
   5   2   6 3793.77   11.68   0
   6  -8  -4    0.09    1.69   0
   6  -6  -3   21.24    1.51   0
   6   0   3    5.49    1.32   0
   6   2   7 2549.43    9.15   0
   7  -6  -2   -2.25    1.82   0
   7   0   4  396.81    3.34   0
   7   1   6   70.23    1.80   0
   7   2   9    1.91    1.31   0
   7   2  10   31.96    1.75   0
   8  -6  -1   -0.72    2.15   0
   8   0   5   10.22    1.21   0
   8   1   8  110.24    2.59   0
   9  -2   4  146.36    2.63   0
   9  -1   5   79.46    1.86   0
   9   0   7  161.49    2.46   0
  -7  -7  -5    3.13    1.73   0
  -7  -6  -4    8.63    1.36   0
  -7  -5  -3    7.53    1.99   0
  -7  -4  -1  594.49    3.95   0
  -7  -3   1  824.63    4.56   0
  -7  -3   2   -0.10    1.55   0
  -6  -6  -5   16.28    1.42   0
  -6  -5  -4   31.01    1.58   0
  -6  -4  -3   74.56    1.79   0
  -6  -2   0   91.56    2.25   0
  -6  -2   1  324.59    3.07   0
  -5  -2  -1  403.12    3.56   0
  -5  -1   1  748.39    4.62   0
  -4 -10  -8   17.35    2.32   0
  -4  -6  -6  204.58    3.44   0
  -4  -2  -2  276.28    3.16   0
  -4   0   2  102.90    2.16   0
  -4   0   7    1.71    1.58   0
  -3  -1  -1  258.26    3.54   0
  -3   1   3   72.39    2.42   0
  -3   1   8   43.70    2.23   0
  -1   0   0  157.73    4.43   0
  -1   2   9 1279.94    9.10   0
   0   2   4  295.23    7.52   0
   1   2   4    7.09    2.84   0
   2 -10  -7  204.12    5.02   0
   3  -5  -4  118.50    2.59   0
   3   0   1  657.19    5.37   0
   4  -6  -4  657.88    5.31   0
   5  -7  -4  107.55    2.35   0
   5  -4  -2 2410.51    8.46   0
   5  -3  -1 1841.73    7.45   0
   5  -2   0  723.24    4.85   0
   5  -1   1 1513.01    6.53   0
   5   1   4   79.93    1.99   0
   6  -5  -2   26.28    1.58   0
   6  -1   2   73.96    1.86   0
   6   1   5  258.02    3.00   0
   6   2   8   16.27    1.56   0
   7  -5  -1   29.11    1.59   0
   7  -1   3  844.56    4.55   0
   7   1   7  241.61    3.27   0
   8  -5   0   86.01    1.95   0
   8  -4   1  532.84    4.08   0
   8  -3   2  278.98    3.21   0
   8  -2   3  331.73    2.97   0
   8  -1   4  181.32    2.40   0
   8   0   6  124.03    2.18   0
   8   1   9  182.34    2.69   0
   8   1  10  171.29    3.12   0
   9  -4   2    4.91    1.65   0
   9  -3   3   43.53    1.79   0
   9  -1   6   33.34    1.65   0
   9   0   8   71.84    1.98   0
  -8  -6  -3    8.23    1.66   0
  -7  -8  -6  117.39    2.29   0
  -7  -4  -2   84.67    1.86   0
  -7  -3  -1   17.02    1.83   0
  -7  -3   0  693.54    4.20   0
  -7  -2   2   59.32    2.14   0
  -7  -2   3    0.39    2.05   0
  -6  -9  -7   73.15    2.14   0
  -6  -7  -6   47.87    1.78   0
  -6  -3  -2 1803.13    6.63   0
  -6  -1   2  515.66    3.96   0
  -6  -1   3  257.16    2.82   0
  -6  -1   4    2.36    1.46   0
  -5  -8  -7   42.23    1.78   0
  -5  -5  -5    1.70    1.18   0
  -5  -4  -4   -1.32    1.25   0
  -5  -3  -3  466.95    3.83   0
  -5  -1   0 2751.82    8.56   0
  -5   0   3  130.49    2.23   0
  -5   0   4  365.44    3.37   0
  -5   0   5   23.18    1.61   0
  -5   0   6   10.01    2.12   0
  -4  -1  -1  746.23    5.08   0
  -4   0   1  630.78    4.47   0
  -4   1   5  223.17    3.15   0
  -2   0   0 1987.19   10.46   0
  -2   1   2 2622.30   11.46   0
  -2   2   6   94.84    2.35   0
  -2   2   7   24.87    1.52   0
   1  -9  -7   91.34    3.72   0
   1  -4  -4  749.66    8.13   0
   2  -6  -5  725.38    6.80   0
   3  -9  -6   40.65    2.44   0
   3  -4  -3  289.93    3.84   0
   4  -8  -5   80.64    2.28   0
   4   0   2   92.58    2.48   0
   5   2   7   35.93    1.69   0
   6  -7  -3  108.37    2.26   0
   6  -4  -1  735.79    4.55   0
   6  -3   0  168.29    2.38   0
   6  -2   1   91.79    1.93   0
   6   0   4   11.21    1.82   0
   6   1   6 1302.80    6.48   0
   6   2  10    0.92    1.36   0
   6   2  11   20.19    1.80   0
   7  -7  -2   26.65    1.70   0
   7  -4   0   42.95    1.58   0
   7  -3   1  304.15    2.96   0
   7  -2   2  678.47    4.18   0
   7   0   5  135.98    2.16   0
   7   1   8    1.03    1.68   0
   8  -1   5   45.23    1.52   0
   8   0   7   94.71    1.96   0
   9  -5   2   23.37    2.40   0
   9  -3   4   57.30    2.23   0
   9  -2   5    6.36    1.46   0
   9  -1   7  362.94    3.30   0
  -8  -7  -5   87.66    2.69   0
  -8  -6  -4   54.38    1.89   0
  -8  -5  -3   48.21    1.77   0
  -8  -4  -1    0.69    1.57   0
  -7  -7  -6  257.69    3.29   0
  -7  -6  -5   25.77    1.48   0
  -7  -5  -4   -0.02    1.36   0
  -7  -4  -3   94.79    1.99   0
  -7  -3  -2  226.15    2.74   0
  -7  -2   0  281.72    3.02   0
  -7  -2   1  464.71    3.56   0
  -6  -8  -7   41.77    1.83   0
  -6  -5  -5    5.46    1.72   0
  -6  -4  -4  106.53    2.06   0
  -6  -3  -3    0.68    1.60   0
  -6  -2  -1  187.13    2.43   0
  -6  -1   1  511.32    3.73   0
  -5  -6  -6   40.30    1.68   0
  -5  -2  -2 2728.02    8.64   0
  -5   0   2   87.03    1.97   0
  -4  -9  -8    0.99    1.90   0
  -4  -7  -7   21.69    1.97   0
  -4   1   3  314.14    3.48   0
  -4   1   4  237.36    2.94   0
  -4   1   6   59.80    1.88   0
  -4   1   7  262.55    3.53   0
  -3  -9  -8   68.23    3.02   0
  -3  -7  -7  272.76    4.68   0
  -3   0   0 1969.66    8.79   0
  -3   1   2  625.86    5.15   0
  -2   2   5   20.93    1.48   0
  -2   2   8  157.43    2.91   0
  -1   2   4 1981.13   12.23   0
  -1   2  10   14.80    2.46   0
   1  -7  -6  527.10    7.08   0
   1  -1  -1 6022.11   23.73   0
   2  -8  -6  130.50    3.39   0
   3  -7  -5   95.73    2.47   0
   3  -3  -2   19.49    1.93   0
   3  -2  -1   45.39    2.17   0
   3  -1   0 2145.56    9.17   0
   3   1   3 1599.97    8.57   0
   4  -5  -3  256.23    3.23   0
   4   1   4  826.56    5.66   0
   5  -8  -4  795.25    5.69   0
   5  -6  -3 1675.62    7.38   0
   5   0   3   45.53    1.68   0
   5   1   5  130.73    2.39   0
   5   2  11    4.34    1.98   0
   6  -8  -3  264.32    3.55   0
   6  -6  -2  531.10    4.18   0
   7  -6  -1   32.16    1.64   0
   7  -1   4   11.39    1.29   0
   7   0   6  116.49    2.46   0
   7   1   9  399.35    3.75   0
   7   1  10   33.80    2.22   0
   8  -6   0  248.22    2.91   0
   8  -5   1  437.03    3.49   0
   8  -4   2  510.57    4.00   0
   8  -3   3  116.28    2.42   0
   8  -2   4    3.77    1.12   0
   8  -1   6  234.13    3.11   0
   8   0   8  525.30    4.07   0
   9  -4   3   44.88    1.89   0
   9  -2   6   82.86    2.08   0
   9  -1   8  180.69    2.58   0
  -8  -6  -5  116.33    2.46   0
  -8  -5  -4   37.48    2.05   0
  -8  -4  -2    0.23    1.40   0
  -8  -3  -1   16.58    1.95   0
  -8  -3   0   93.41    2.13   0
  -7  -8  -7  132.78    2.76   0
  -7  -2  -1    7.20    1.72   0
  -7  -1   2  181.53    2.87   0
  -7  -1   3    0.81    1.51   0
  -6  -6  -6   37.72    1.62   0
  -6  -2  -2  187.97    2.47   0
  -6  -1   0 1537.11    6.16   0
  -6   0   3  498.27    3.69   0
  -6   0   4    3.89    1.38   0
  -6   0   5   -1.00    2.16   0
  -5  -9  -8    4.00    1.48   0
  -5  -7  -7   89.38    2.25   0
  -5  -1  -1 1291.08    6.02   0
  -5   0   1  345.23    3.23   0
  -4  -4  -5  471.14    4.67   0
  -4  -3  -4 1314.45    7.09   0
  -4   0   0 1068.69    5.98   0
  -3  -4  -5 1035.95    7.71   0
  -3  -3  -4 4161.97   14.14   0
  -3  -2  -3 2181.21   10.04   0
  -3   2   5    2.02    1.59   0
  -3   2   6   40.86    2.14   0
  -3   2   7  663.67    5.58   0
  -2  -3  -4 2071.56   12.91   0
  -2   2   4  570.93    5.56   0
  -2   2   9   -1.10    2.09   0
   1  -3  -3 1885.53   12.50   0
   1  -2  -2  633.08    7.66   0
   4  -9  -5   20.30    1.97   0
   4  -7  -4   -0.30    1.84   0
   4  -4  -2   24.85    1.49   0
   4  -1   1 2852.36    9.45   0
   5  -5  -2  181.54    2.60   0
   5  -1   2  362.53    3.36   0
   5   2   9   45.26    1.78   0
   5   2  10  280.94    3.82   0
   6  -5  -1  177.17    2.48   0
   6  -2   2  426.20    3.64   0
   6  -1   3    1.70    1.13   0
   6   0   5   80.34    2.20   0
   6   1   7  700.45    4.80   0
   7  -5   0    3.21    1.35   0
   7  -4   1  212.10    2.50   0
   7  -3   2  852.98    4.68   0
   7  -2   3  160.73    2.22   0
   8  -2   5   18.71    1.90   0
   8   0   9   79.61    2.01   0
   9  -5   3  190.03    2.55   0
   9  -4   4   35.42    1.76   0
   9  -3   5  110.94    2.09   0
   9  -2   7  133.61    2.29   0
  -8  -7  -6   34.75    1.83   0
  -8  -4  -3  269.84    2.81   0
  -8  -3  -2  318.53    3.03   0
  -8  -2   0   -1.79    2.00   0
  -8  -2   1   15.79    1.66   0
  -7  -6  -6  722.87    4.75   0
  -7  -5  -5  254.45    2.80   0
  -7  -4  -4  101.26    2.00   0
  -7  -3  -3  175.90    2.46   0
  -7  -1   1  340.96    3.19   0
  -6  -9  -8   32.80    1.96   0
  -6  -7  -7  165.72    2.65   0
  -6  -1  -1 1153.40    5.55   0
  -6   0   2  137.44    2.21   0
  -5  -4  -5    6.34    1.22   0
  -5  -3  -4  292.75    3.20   0
  -5  -2  -3   95.03    2.29   0
  -5   1   3  147.79    2.62   0
  -5   1   4   17.38    1.45   0
  -5   1   5   42.62    1.69   0
  -5   1   6  257.23    3.13   0
  -4  -5  -6  241.62    3.63   0
  -4  -2  -3  249.10    3.13   0
  -4   1   2  256.68    3.07   0
  -3  -1  -2 3321.35   11.96   0
  -3   2   4    9.38    1.60   0
  -3   2   8   20.84    2.11   0
  -2  -9  -8   65.20    4.87   0
  -2  -7  -7  161.44    5.13   0
  -2  -2  -3  628.99    6.74   0
   2  -5  -4 2508.02   11.42   0
   2   0   1 2750.38   12.70   0
   2   2   5  813.43    8.62   0
   3  -6  -4  107.02    2.62   0
   3   2   6    8.27    1.69   0
   4  -3  -1 3034.55    9.72   0
   4  -2   0 1446.87    6.68   0
   4   2  11   -0.16    1.93   0
   5  -9  -4   96.06    2.46   0
   5  -7  -3  293.21    3.45   0
   5  -4  -1   41.56    1.67   0
   5  -3   0 2164.44    7.65   0
   5  -2   1  382.14    3.41   0
   5   0   4  563.80    4.34   0
   5   1   6  531.25    4.33   0
   6  -7  -2   58.09    1.90   0
   6  -4   0    5.97    1.15   0
   6  -3   1  209.91    2.58   0
   6   1   8    7.50    1.25   0
   6   1   9   42.68    2.13   0
   7  -7  -1   39.59    1.77   0
   7  -6   0  109.12    2.46   0
   7  -1   5  145.15    2.14   0
   7   0   7  179.97    2.46   0
   7   0   8   94.08    2.34   0
   8  -6   1  271.84    3.00   0
   8  -5   2  316.94    3.10   0
   8  -4   3   66.86    1.71   0
   8  -3   4   27.61    1.49   0
   8  -1   7   99.89    2.00   0
   8  -1   8  173.30    2.81   0
   9  -4   5  104.72    2.40   0
   9  -3   6  208.63    2.61   0
  -9  -5  -4   86.61    2.14   0
  -9  -4  -3    0.20    2.13   0
  -8  -6  -6  417.55    3.85   0
  -8  -5  -5  225.83    2.75   0
  -8  -4  -4   75.90    1.89   0
  -8  -3  -3    4.41    1.58   0
  -8  -2  -1   77.89    1.89   0
  -7  -7  -7  200.16    2.83   0
  -7  -2  -2   47.43    1.57   0
  -7  -1   0  112.67    2.00   0
  -7   0   2  723.02    4.55   0
  -7   0   3    6.31    1.39   0
  -6  -8  -8   87.54    2.42   0
  -6  -5  -6  313.92    3.56   0
  -6  -4  -5    2.36    1.20   0
  -6  -3  -4  256.85    2.88   0
  -6  -2  -3   81.67    2.26   0
  -6   0   1    5.93    1.21   0
  -5  -8  -8  180.07    3.49   0
  -5  -5  -6  395.01    3.89   0
  -5  -1  -2  301.33    3.36   0
  -5   0   0  743.79    4.68   0
  -5   1   2  573.69    4.30   0
  -4  -8  -8   12.98    1.88   0
  -4  -1  -2 1975.90    8.03   0
  -4   2   5   37.45    1.94   0
  -4   2   6 1310.02    6.99   0
  -4   2   7   25.57    2.11   0
  -3  -5  -6  420.84    5.33   0
  -3   1   1    5.39    1.36   0
  -2  -4  -5 1016.30   10.02   0
  -2  -1  -2  854.09    7.63   0
  -2   1   1   23.66    1.82   0
   0  -5  -5  244.99    6.38   0
   1 -10  -7  113.72    3.63   0
   3  -8  -5  119.14    2.67   0
   3   0   2   15.02    1.59   0
   4  -6  -3   33.55    1.87   0
   4   0   3  282.59    3.27   0
   4   1   5  176.67    3.05   0
   4   2   8  442.68    4.77   0
   4   2   9  425.24    5.02   0
   4   2  10   92.89    2.74   0
   5  -6  -2   69.74    2.28   0
   6  -8  -2    1.68    1.97   0
   6  -6  -1    8.23    1.30   0
   6  -1   4  677.66    4.31   0
   6   0   6 5787.83   12.69   0
   6   1  10  131.38    2.51   0
   7  -5   1  723.47    4.38   0
   7  -4   2  324.88    3.18   0
   7  -3   3   59.26    1.68   0
   7  -2   4    2.64    1.21   0
   7  -1   6  231.37    2.69   0
   7   0   9  191.13    2.77   0
   7   0  10  145.60    2.79   0
   8  -6   2   70.82    2.39   0
   8  -3   5   31.12    1.79   0
   8  -2   6    2.34    1.29   0
   8  -1   9  204.60    2.69   0
  -9  -5  -5   33.23    2.08   0
  -9  -3  -2  174.62    2.43   0
  -8  -7  -7  300.23    3.33   0
  -8  -2  -2  197.10    2.47   0
  -8  -1   0   93.83    1.98   0
  -8  -1   1  142.85    2.28   0
  -7  -8  -8    0.92    2.15   0
  -7  -5  -6  371.25    3.43   0
  -7  -4  -5 1459.90    6.28   0
  -7  -3  -4  578.57    3.98   0
  -7  -2  -3   34.64    1.83   0
  -7  -1  -1   46.23    1.61   0
  -7   0   1  116.49    1.98   0
  -6  -6  -7  129.32    2.64   0
  -6  -1  -2  257.17    3.02   0
  -6   0   0   54.36    1.64   0
  -6   1   3  371.44    3.29   0
  -6   1   4   27.20    1.55   0
  -6   1   5   91.72    2.11   0
  -5  -6  -7   30.98    1.65   0
  -4  -6  -7   27.72    2.00   0
  -4   0  -1  510.86    4.36   0
  -4   1   1 1015.50    5.67   0
  -4   2   4   71.80    1.91   0
  -3   0  -1  673.98    5.62   0
  -3   2   3  442.77    4.47   0
  -2   2   3 2179.69   10.59   0
   2  -9  -6  146.08    3.17   0
   2  -7  -5  561.52    5.52   0
   2  -4  -3  562.41    5.37   0
   2  -1   0  391.53    4.82   0
   3  -5  -3  130.21    2.44   0
   3   1   4 1807.76    9.17   0
   3   2  11    0.03    2.24   0
   4  -8  -4   21.52    1.51   0
   4  -5  -2 1561.91    7.25   0
   5  -8  -3  278.85    3.29   0
   5  -5  -1  607.21    4.42   0
   5  -1   3    6.88    1.17   0
   5   1   7  788.17    5.28   0
   6  -5   0    0.58    1.19   0
   6  -4   1   35.34    1.42   0
   6  -3   2   11.90    1.17   0
   6  -2   3  269.93    2.78   0
   6   0   7   97.81    2.29   0
   7  -7   0  313.68    3.20   0
   7  -2   5    3.87    1.15   0
   7  -1   7    7.33    1.24   0
   8  -5   3    9.35    1.44   0
   8  -4   4   26.57    1.46   0
   8  -3   6    0.78    1.82   0
   8  -2   7  157.44    2.30   0
   8  -2   8  135.55    2.52   0
  -9  -4  -4   25.70    1.69   0
  -9  -3  -3  102.23    2.03   0
  -9  -2  -1  489.18    3.60   0
  -8  -5  -6  525.20    3.97   0
  -8  -4  -5  117.94    2.05   0
  -8  -3  -4  203.80    2.46   0
  -8  -1  -1   92.07    1.95   0
  -8   0   2    4.64    1.56   0
  -7  -6  -7   24.93    1.54   0
  -7  -1  -2   32.45    1.77   0
  -7   0   0   -0.44    1.13   0
  -7   1   3  384.68    3.58   0
  -7   1   4   30.43    2.20   0
  -6   1   2 1264.87    5.83   0
  -5   0  -1  273.95    2.95   0
  -5   1   1 1494.79    6.52   0
  -5   2   4   24.03    1.81   0
  -5   2   5  537.95    4.25   0
  -5   2   6    6.46    1.44   0
  -4   2   3   58.89    1.69   0
  -3  -8  -8  444.48    7.88   0
  -2   3   7   13.02    1.52   0
  -1   1   1 5830.60   23.40   0
  -1   2   3  139.57    3.93   0
  -1   3   7  188.15    4.22   0
  -1   3   8  614.53    7.59   0
   0   3   8   10.96    2.53   0
   1  -8  -6   84.03    2.86   0
   1  -6  -5  444.33    5.73   0
   2  -3  -2   34.39    1.85   0
   2  -2  -1  123.89    2.84   0
   3  -9  -5   16.76    1.54   0
   3  -7  -4   35.26    2.05   0
   3  -4  -2   32.92    2.01   0
   3  -1   1 3679.39   11.84   0
   3   2   7  153.96    3.13   0
   4  -9  -4   32.26    2.15   0
   4  -4  -1  209.08    3.06   0
   4  -2   1  882.53    5.39   0
   4  -1   2 1330.40    6.44   0
   4   1   6  233.47    3.46   0
   5  -9  -3   36.61    1.77   0
   5  -7  -2  492.52    4.14   0
   5  -4   0   59.50    1.77   0
   5  -3   1  110.50    2.08   0
   5  -2   2   55.27    1.63   0
   5   0   5 4460.61   11.52   0
   5   1   8   14.30    1.35   0
   5   1  11   42.22    1.99   0
   6  -7  -1   70.64    1.82   0
   6  -1   5 1105.98    5.47   0
   6   0   8   12.89    1.29   0
   7  -8   0   48.17    1.89   0
   7  -6   1  184.78    2.45   0
   7  -5   2   31.21    1.48   0
   7  -4   3  116.43    1.97   0
   7  -3   4   21.45    1.32   0
   7  -2   6  312.05    3.29   0
   7  -1   8  490.92    3.89   0
   7  -1   9    0.03    1.82   0
   8  -6   3    4.28    1.52   0
   8  -5   4   73.97    1.89   0
   8  -4   5   40.54    1.70   0
   8  -3   7   84.29    1.93   0
  -9  -5  -6    1.46    1.52   0
  -9  -4  -5    1.68    1.45   0
  -9  -3  -4    0.74    1.93   0
  -9  -2  -2    0.49    1.49   0
  -9  -1   0    1.48    1.67   0
  -8  -6  -7  359.34    3.59   0
  -8  -2  -3  209.74    2.42   0
  -8  -1  -2    1.52    1.60   0
  -8   0   0  103.74    2.28   0
  -8   0   1    1.20    1.41   0
  -7  -7  -8   80.08    2.10   0
  -7  -3  -5  177.85    2.79   0
  -7   0  -1   -0.83    1.52   0
  -7   1   2  606.39    4.14   0
  -6  -7  -8   80.08    2.16   0
  -6  -4  -6   82.20    2.18   0
  -6  -3  -5  900.19    5.14   0
  -6  -2  -4   44.27    1.70   0
  -6   0  -1  352.04    3.12   0
  -6   1   1  366.33    3.26   0
  -6   2   4  289.46    3.26   0
  -6   2   5    2.32    2.36   0
  -5  -7  -8  731.95    6.52   0
  -5  -4  -6  164.81    2.94   0
  -5  -3  -5    3.85    1.11   0
  -5  -2  -4   19.29    1.31   0
  -5   2   3    9.90    1.32   0
  -4  -2  -4  887.60    5.88   0
  -4   1   0 2736.01    9.36   0
  -3   3   6   98.82    2.52   0
  -3   3   7   96.96    2.67   0
  -2   0  -1 2906.19   13.04   0
  -2   3   6  323.02    4.54   0
  -2   3   8   38.94    2.21   0
   0  -9  -7    0.21    1.70   0
   2 -10  -6  113.27    3.02   0
   3  -3  -1 1148.26    6.48   0
   3  -2   0  124.11    2.50   0
   3   2   8  485.94    5.82   0
   3   2   9  492.15    5.78   0
   3   2  10    4.95    1.72   0
   4 -10  -4   25.29    2.48   0
   4  -7  -3  500.95    4.18   0
   4  -3   0  296.89    3.15   0
   4   0   4    1.72    1.23   0
   5  -1   4  141.16    2.29   0
   5   0   6    3.18    1.62   0
   6  -8  -1   73.17    1.88   0
   6  -6   0    7.33    1.22   0
   6  -5   1  109.73    2.24   0
   6  -4   2  167.16    2.46   0
   6  -3   3  463.40    3.67   0
   6  -2   4   29.92    1.43   0
   6  -1   6  725.62    4.49   0
   6   0   9  151.31    2.52   0
   6   0  10   71.46    2.16   0
   7  -7   1    1.66    1.35   0
   7  -6   2   97.65    2.40   0
   7  -3   5  142.49    2.17   0
   7  -2   7    1.94    1.65   0
   8  -6   4  101.13    2.14   0
   8  -5   5  111.60    2.21   0
   8  -4   6   83.64    1.94   0
  -9  -2  -3  128.94    2.16   0
  -8  -4  -6  467.68    3.68   0
  -8  -3  -5  224.70    2.62   0
  -8  -2  -4  212.14    2.75   0
  -8   0  -1   44.32    1.91   0
  -8   1   2   62.95    2.36   0
  -7  -5  -7  465.93    4.24   0
  -7  -4  -6   13.99    1.43   0
  -7  -2  -4 1915.29    6.93   0
  -7  -1  -3  354.88    3.30   0
  -7   1   1  251.95    2.73   0
  -6  -5  -7   27.50    1.55   0
  -6  -1  -3    2.50    1.16   0
  -6   1   0  813.50    4.60   0
  -6   2   3  251.65    2.87   0
  -5  -1  -3  351.62    3.35   0
  -5   1   0 2488.44    8.34   0
  -5   2   2  151.38    2.30   0
  -4  -4  -6    3.37    1.42   0
  -4  -3  -5  242.05    3.31   0
  -4  -1  -3 1121.65    6.23   0
  -4   2   2  196.00    2.76   0
  -4   3   6  176.12    3.14   0
  -4   3   7  150.26    2.98   0
  -3  -6  -7  590.85    7.44   0
  -3   1   0 2138.42    9.16   0
  -3   2   2 1408.25    7.48   0
  -3   3   5  245.01    3.62   0
  -3   3   8   -3.25    2.16   0
  -2   3   9   22.98    3.99   0
  -1   3   6    0.77    1.40   0
   2  -8  -5   65.34    2.38   0
   2  -6  -4  340.58    4.04   0
   2   2   6 1211.50   10.02   0
   2   2  11   12.48    2.60   0
   3 -10  -5   12.03    1.69   0
   3  -6  -3    3.00    1.68   0
   3   0   3 2736.60   10.60   0
   4  -8  -3   91.94    2.56   0
   4  -6  -2   50.62    2.00   0
   5  -8  -2   73.67    1.95   0
   5  -6  -1   20.19    1.55   0
   5  -5   0    1.43    1.53   0
   5  -2   3   77.23    2.16   0
   5   0   7  169.09    2.78   0
   6  -9  -1    4.85    1.74   0
   6  -7   0   17.89    1.44   0
   6  -2   5 3054.50    9.00   0
   6  -1   7    2.10    1.10   0
   7  -8   1    0.40    1.64   0
   7  -7   2    1.43    1.90   0
   7  -5   3  193.29    2.54   0
   7  -4   4    0.91    1.18   0
   7  -3   6   81.33    2.07   0
   7  -2   8   14.65    1.44   0
   7  -2   9   39.20    1.80   0
   8  -4   7   97.66    2.54   0
  -9  -5  -7    5.09    2.11   0
  -9  -4  -6   72.80    1.97   0
  -9  -3  -5    0.80    1.35   0
  -9  -2  -4   16.95    1.83   0
  -9  -1  -2  474.45    3.92   0
  -9   0   0  657.93    4.79   0
  -8  -6  -8    0.39    1.78   0
  -8  -5  -7  132.51    2.34   0
  -8  -1  -3  531.93    3.66   0
  -8   1   1   14.61    1.45   0
  -7  -6  -8  129.88    2.76   0
  -7   0  -2    0.73    1.19   0
  -7   1   0  255.68    2.82   0
  -7   2   3 1264.05    6.27   0
  -7   2   4    5.81    1.61   0
  -6  -8  -9   88.18    2.86   0
  -6   0  -2   13.36    1.22   0
  -6   2   2  173.72    2.54   0
  -5  -5  -7  431.62    4.30   0
  -5   0  -2  112.02    2.01   0
  -5   3   6   59.57    2.13   0
  -4  -7  -8   14.28    1.94   0
  -4   0  -2   90.23    2.05   0
  -4   3   5   47.73    1.78   0
  -4   3   8  241.36    4.07   0
  -3  -2  -4 4894.31   15.40   0
  -2  -5  -6   35.60    2.72   0
  -2   2   2  246.92    3.84   0
  -2   3   5   47.37    1.92   0
  -1  -2  -3   68.67    4.50   0
   0  -7  -6    5.56    1.64   0
   1  -5  -4   19.96    1.80   0
   3  -8  -4   65.47    1.96   0
   4  -5  -1  258.86    3.16   0
   4  -1   3  890.91    5.28   0
   4   0   5  772.63    5.32   0
   4   1   9  605.32    5.26   0
   4   1  10   18.88    1.71   0
   5  -9  -2   24.96    1.70   0
   5  -7  -1   34.89    1.48   0
   5  -4   1    1.47    1.22   0
   5  -3   2  152.22    2.24   0
   5  -1   5  375.84    3.44   0
   5   0   8  281.39    3.31   0
   5   0   9  403.76    4.18   0
   5   0  10    7.19    1.84   0
   6  -8   0   47.44    1.79   0
   6  -6   1   64.71    1.64   0
   6  -5   2  118.03    2.27   0
   6  -4   3    2.80    1.52   0
   6  -3   4  593.50    3.86   0
   6  -2   6   33.02    1.75   0
   6  -1   8   17.75    1.39   0
   6  -1   9   85.11    2.01   0
   6  -1  10  191.44    3.02   0
   7  -6   3   26.81    1.54   0
   7  -5   4  168.36    2.32   0
   7  -4   5  217.69    2.64   0
   7  -3   7   41.61    1.59   0
   7  -3   8    0.15    1.98   0
  -9  -1  -3   98.20    1.97   0
  -9   0  -1    1.71    1.50   0
  -8  -3  -6   54.00    1.97   0
  -8   0  -2  225.33    2.50   0
  -8   1   0  226.96    2.66   0
  -7  -3  -6  100.78    2.35   0
  -7  -2  -5    3.62    1.57   0
  -7   1  -1    3.12    1.57   0
  -7   2   2  258.57    2.88   0
  -6  -6  -8  642.20    5.36   0
  -6  -2  -5   54.55    2.00   0
  -6   1  -1  238.73    2.68   0
  -6   2   1  288.59    2.95   0
  -5   1  -1 1461.22    6.36   0
  -5   2   1 3474.68    9.83   0
  -5   3   4  137.61    2.30   0
  -5   3   5    7.85    1.34   0
  -5   3   7  323.64    3.79   0
  -4  -9  -9    1.73    2.03   0
  -4   2   1   19.95    1.38   0
  -4   3   4  321.68    3.56   0
  -3  -3  -5 2474.75   11.90   0
  -3  -1  -3 1592.34    8.47   0
  -3   3   4   48.37    1.81   0
  -2   1   0  399.08    5.11   0
  -1   3  10  113.77    6.36   0
   0  -4  -4   48.27    3.17   0
   1  -9  -6   60.15    2.33   0
   2  -9  -5   29.87    1.94   0
   2  -5  -3   57.16    2.17   0
   2   0   2 5802.48   18.08   0
   3  -9  -4   21.57    1.85   0
   3  -5  -2    4.86    1.17   0
   3  -1   2 2137.04    8.96   0
   4  -9  -3  142.33    2.47   0
   4  -7  -2  134.16    2.45   0
   4  -4   0   80.41    1.85   0
   4  -3   1 1058.44    5.50   0
   4  -2   2 1400.29    6.38   0
   5  -8  -1   13.56    1.72   0
   5  -6   0    1.97    1.14   0
   5  -2   4 4285.44   10.70   0
   5  -1   6  459.66    3.91   0
   6  -7   1   31.40    1.52   0
   6  -3   5  351.01    3.34   0
   6  -2   7    4.52    1.40   0
   7  -7   3   37.97    1.76   0
   7  -6   4  121.65    2.10   0
   7  -5   5    5.28    1.32   0
   7  -4   6   14.62    1.37   0
   7  -4   7   32.71    1.59   0
  -9  -4  -7   37.61    2.12   0
  -9  -3  -6   64.42    1.85   0
  -9  -2  -5  101.22    2.03   0
  -9  -1  -4   16.65    1.69   0
  -9   0  -2  179.44    2.41   0
  -9   1   0   70.50    1.94   0
  -8  -4  -7    0.37    1.23   0
  -8  -2  -5  804.37    4.61   0
  -8  -1  -4 1065.75    5.16   0
  -8   1  -1   79.01    1.77   0
  -8   2   2    0.87    1.43   0
  -7  -7  -9   27.16    2.25   0
  -7  -4  -7   10.35    1.23   0
  -7  -1  -4  602.17    4.00   0
  -7   0  -3 1049.22    5.26   0
  -7   2   1    2.80    1.09   0
  -6  -4  -7  550.12    4.66   0
  -6  -3  -6    3.36    1.29   0
  -6  -1  -4   66.72    1.72   0
  -6   0  -3    4.00    1.43   0
  -6   3   3  751.49    4.92   0
  -6   3   4  206.45    2.74   0
  -6   3   5   31.66    1.62   0
  -5  -8  -9   67.75    2.64   0
  -5  -6  -8  248.94    3.77   0
  -5  -2  -5  104.50    2.15   0
  -5  -1  -4   73.56    2.10   0
  -5   3   3  136.17    2.35   0
  -4  -5  -7   51.48    2.04   0
  -4   1  -1 2843.45    9.43   0
  -4   3   3   10.06    1.32   0
  -3   0  -2   15.39    1.70   0
  -3   2   1   44.73    1.71   0
  -2   3   4 1217.53    8.34   0
  -1  -8  -7   10.81    2.17   0
  -1  -1  -2    0.80    1.95   0
  -1   3   5  451.88    6.62   0
   0 -10  -7    5.47    1.77   0
   1  -7  -5    4.41    1.57   0
   2  -7  -4    0.17    1.52   0
   2   2   7   52.43    2.34   0
   2   2  10  104.22    3.24   0
   3 -10  -4    3.94    1.95   0
   3  -7  -3    2.29    1.16   0
   3  -4  -1  210.42    2.80   0
   3  -2   1 1060.53    6.27   0
   3   1  11   15.72    2.23   0
   4 -10  -3   44.39    1.86   0
   4  -6  -1    3.48    1.53   0
   4  -1   4  288.29    3.31   0
   4   0   6    4.07    1.03   0
   5  -9  -1    0.41    1.44   0
   5  -7   0    1.76    1.59   0
   5  -5   1   45.36    1.59   0
   5  -4   2  218.96    2.51   0
   5  -3   3  597.37    3.99   0
   5  -1   7  220.78    2.93   0
   6  -8   1   96.47    2.06   0
   6  -6   2   38.50    1.56   0
   6  -5   3  855.37    4.66   0
   6  -4   4 1700.65    6.47   0
   6  -3   6   54.72    1.79   0
   6  -2   8    2.57    1.23   0
   6  -2   9  100.53    2.17   0
   7  -6   5   32.89    1.65   0
   7  -5   6  106.78    2.12   0
 -10  -2  -5   54.46    1.90   0
 -10  -1  -4   37.81    1.81   0
  -9  -5  -8   16.63    1.71   0
  -9   0  -3   68.92    1.78   0
  -9   1  -1  191.18    2.57   0
  -8  -5  -8    5.26    1.41   0
  -8   0  -3  599.78    3.87   0
  -8   2   1    9.33    1.33   0
  -7  -5  -8    8.36    1.21   0
  -7   1  -2  457.01    3.59   0
  -7   2   0   98.30    1.95   0
  -7   3   3  337.81    3.30   0
  -7   3   4  173.95    2.71   0
  -6  -7  -9  848.18    6.96   0
  -6   1  -2   77.31    2.00   0
  -6   2   0  782.94    4.57   0
  -6   3   2   32.22    1.69   0
  -5  -3  -6  875.38    5.64   0
  -5   0  -3   46.18    1.59   0
  -5   2   0  676.39    4.47   0
  -5   3   2  533.61    4.33   0
  -3  -4  -6  860.78    7.96   0
  -3   3   3  461.46    4.41   0
  -2  -9  -8   68.06    4.80   0
  -1  -6  -6   64.94    4.02   0
   1 -10  -6   12.25    1.56   0
   1  -4  -3  555.27    6.01   0
   2 -10  -5    2.41    1.42   0
   2  -4  -2   10.38    1.33   0
   2  -1   1  753.94    6.31   0
   2   2   8   10.63    1.68   0
   2   2   9  169.33    3.86   0
   3  -3   0 1150.55    6.26   0
   3   0   4  204.42    3.05   0
   3   1  10   50.88    2.27   0
   4  -9  -2   66.22    2.29   0
   4  -8  -2   34.38    1.59   0
   4  -5   0   30.43    1.77   0
   4  -2   3   28.85    1.73   0
   4   0   7  321.34    3.59   0
   5  -8   0   14.01    1.82   0
   5  -6   1  160.98    2.57   0
   5  -2   5  137.78    2.19   0
   5  -1   8  345.21    3.39   0
   5  -1   9   29.55    1.53   0
   5  -1  10  283.33    3.43   0
   6  -8   2   63.79    1.98   0
   6  -7   2  152.67    2.32   0
   6  -6   3  719.63    4.45   0
   6  -5   4 1112.03    5.22   0
   6  -4   5  145.29    2.19   0
   6  -3   7   16.36    1.35   0
   6  -3   8   14.81    1.50   0
   6  -3   9    1.92    1.68   0
 -10   0  -3    0.37    1.68   0
  -9  -3  -7   10.97    1.91   0
  -9  -2  -6   11.94    1.32   0
  -9  -1  -5    0.01    1.73   0
  -9   1  -2   26.65    1.58   0
  -9   2   0    3.53    2.12   0
  -8  -6  -9   74.07    2.14   0
  -8  -3  -7   11.92    1.76   0
  -8  -2  -6    2.00    1.12   0
  -8  -1  -5  272.03    2.76   0
  -8   1  -2  137.24    2.09   0
  -8   2   0  145.08    2.23   0
  -7  -2  -6   -0.64    1.52   0
  -7  -1  -5  332.90    3.22   0
  -7   3   2  222.74    2.68   0
  -6  -5  -8 1575.36    8.08   0
  -5  -4  -7 1194.53    7.10   0
  -5   1  -2  346.14    3.22   0
  -5   4   6   97.07    2.50   0
  -4  -2  -5   97.71    2.21   0
  -4  -1  -4  779.08    5.38   0
  -4   0  -3  285.35    3.42   0
  -4   2   0 1401.71    6.60   0
  -4   3   2  311.94    3.37   0
  -4   4   6  330.83    4.04   0
  -4   4   7  983.33    7.30   0
  -3   1  -1 3565.84   11.72   0
   1   2   5  906.36   11.98   0
   2  -8  -4   56.82    2.08   0
   2  -3  -1  293.82    3.82   0
   2  -2   0  226.67    3.52   0
   3  -8  -3   43.87    1.63   0
   3  -6  -2   79.19    1.93   0
   3   1   8  342.37    4.13   0
   3   1   9  100.31    2.55   0
   4 -10  -2  104.20    2.30   0
   4  -7  -1  165.78    2.37   0
   4  -4   1  915.84    5.11   0
   4  -3   2  579.30    4.09   0
   4  -1   5   16.52    1.26   0
   4   0   8 1675.48    7.76   0
   4   0   9  490.12    4.39   0
   5  -9   0    4.09    1.44   0
   5  -7   1   72.38    2.03   0
   5  -5   2   15.00    1.26   0
   5  -4   3 1177.64    5.40   0
   5  -3   4  760.94    4.44   0
   5  -2   6    3.28    0.98   0
   5  -2   7    3.73    1.47   0
   6  -8   3   14.27    1.70   0
   6  -7   3  543.49    3.88   0
   6  -6   4  267.14    2.80   0
   6  -5   5    0.91    1.15   0
   6  -5   6    0.03    1.75   0
   6  -4   6    0.43    1.17   0
   6  -4   7    3.87    1.31   0
   6  -4   8  151.39    2.46   0
 -10  -2  -6    0.10    1.61   0
 -10  -1  -5  567.30    3.90   0
 -10   0  -4  120.13    2.51   0
  -9  -4  -8    0.52    1.51   0
  -9   0  -4   69.30    1.76   0
  -9   2  -1    2.06    1.97   0
  -8  -4  -8    8.50    1.40   0
  -8   0  -4 1300.36    5.62   0
  -8   1  -3  589.83    4.01   0
  -8   2  -1   67.81    1.76   0
  -8   3   1   26.81    2.07   0
  -8   3   2   27.96    1.60   0
  -7  -6  -9   87.00    2.22   0
  -7  -3  -7   80.42    1.85   0
  -7   0  -4  392.32    3.24   0
  -7   1  -3  831.19    4.73   0
  -7   2  -1  376.52    3.22   0
  -7   3   1  187.48    2.45   0
  -6  -2  -6  249.03    2.89   0
  -6  -1  -5  255.21    2.87   0
  -6   0  -4   10.83    1.52   0
  -6   2  -1   90.68    1.88   0
  -6   3   1  348.05    3.24   0
  -6   4   4  141.52    2.65   0
  -6   4   5  250.67    3.13   0
  -5   2  -1  379.39    3.54   0
  -5   3   1 1857.55    7.44   0
  -5   4   4   34.56    1.92   0
  -5   4   5   22.92    1.51   0
  -5   4   7   -0.08    1.65   0
  -4  -6  -8   87.32    3.03   0
  -4  -3  -6   59.77    2.25   0
  -4   4   5   31.15    1.56   0
  -4   4   8    0.18    2.21   0
  -3   4   6  239.27    3.81   0
  -3   4   7  243.70    3.97   0
  -3   4   8  111.93    3.21   0
  -2   2   1  117.43    2.80   0
  -2   3   3 1701.95    9.68   0
  -1   2   2  594.86    7.31   0
   0  -8  -6   65.18    2.43   0
   1  -8  -5    1.81    1.33   0
   1  -3  -2  302.95    4.78   0
   2  -6  -3   17.72    1.25   0
   3 -10  -3  320.97    3.54   0
   3  -9  -3   26.48    1.52   0
   3  -7  -2   61.33    2.01   0
   3  -5  -1  234.04    2.92   0
   3  -1   3 1501.23    7.40   0
   3   0   5    4.08    1.48   0
   4  -9  -1   68.23    2.23   0
   4  -8  -1  721.94    4.55   0
   4  -6   0  561.11    3.88   0
   4  -2   4   -0.15    1.43   0
   4  -1   6   41.95    1.86   0
   4  -1  10   91.41    2.56   0
   5  -9   1  565.47    4.16   0
   5  -8   1  109.39    2.17   0
   5  -6   2  148.35    2.16   0
   5  -5   3  637.88    4.14   0
   5  -4   4  398.49    3.34   0
   5  -3   5    1.95    1.11   0
   5  -2   8  269.08    3.02   0
   5  -2   9   36.01    1.64   0
   6  -7   4    9.79    1.50   0
   6  -6   5    2.20    1.41   0
   6  -6   6    0.19    1.52   0
   6  -5   7    6.71    1.57   0
 -10   1  -3   89.29    2.11   0
  -9   1  -3    2.97    1.35   0
  -8  -5  -9  108.17    2.62   0
  -8   2  -2  253.14    2.91   0
  -8   3   0  227.51    2.86   0
  -7  -4  -8   95.39    2.13   0
  -7   2  -2  652.05    4.20   0
  -7   3   0   10.87    1.71   0
  -7   4   3   73.18    2.30   0
  -7   4   4  285.55    3.24   0
  -6  -6  -9  562.42    5.60   0
  -6  -3  -7  683.24    4.86   0
  -6   1  -3   -2.34    1.19   0
  -6   3   0  155.04    2.51   0
  -6   4   3   -0.34    1.19   0
  -5  -7  -9  130.14    3.55   0
  -5  -5  -8  458.92    5.16   0
  -5  -1  -5  126.48    2.48   0
  -5   4   3   -0.68    1.52   0
  -4   1  -2 1297.42    6.40   0
  -4   3   1 3001.53    9.80   0
  -4   4   4    7.37    1.31   0
  -3   2   0  113.31    2.45   0
  -3   3   2   18.17    1.37   0
  -3   4   5   53.53    1.86   0
  -2  -2  -4 1121.59    9.78   0
  -2  -1  -3 1542.35   10.22   0
  -2   0  -2 5767.09   18.12   0
  -2   4   7    0.58    1.35   0
   0  -6  -5   23.41    1.87   0
   0  -3  -3  717.07   10.21   0
   1  -6  -4  602.17    5.49   0
   1  -2  -1 3979.27   17.00   0
   1  -1   0 2070.94   13.43   0
   1   2  10   15.25    2.07   0
   2 -10  -4   56.90    2.19   0
   2  -9  -4    0.27    1.25   0
   2   0   3    2.86    1.70   0
   3  -4   0  881.41    5.21   0
   3  -3   1 3893.88   11.12   0
   3  -2   2 4853.06   12.60   0
   3   0  10  158.52    2.99   0
   4 -10  -1   12.66    1.60   0
   4  -7   0  148.81    2.24   0
   4  -5   1  291.75    2.96   0
   4  -4   2   17.40    1.27   0
   4  -3   3    2.24    1.17   0
   4  -1   7  750.37    4.92   0
   4  -1   8  982.22    5.96   0
   4  -1   9  123.74    2.25   0
   5  -9   2   14.28    2.09   0
   5  -8   2  135.75    2.28   0
   5  -7   2  832.36    4.75   0
   5  -6   3  287.94    2.79   0
   5  -5   4   11.12    1.59   0
   5  -4   5   48.45    1.53   0
   5  -3   6   65.66    1.66   0
   5  -3   7   86.82    1.86   0
   5  -3   8   95.22    2.01   0
   5  -3   9  127.60    2.33   0
 -10  -1  -6  232.93    2.75   0
 -10   0  -5  107.08    2.14   0
  -9  -3  -8   10.09    1.48   0
  -9  -2  -7    5.11    1.34   0
  -9  -1  -6   74.51    1.85   0
  -9   0  -5    2.20    1.22   0
  -9   1  -4   17.73    1.91   0
  -9   2  -2    1.39    1.30   0
  -9   3   0   53.60    1.84   0
  -8  -2  -7    9.06    1.42   0
  -8  -1  -6   15.67    1.29   0
  -8   0  -5   11.51    1.15   0
  -8   1  -4  202.25    2.60   0
  -8   4   2    7.70    2.11   0
  -7  -7 -10   78.03    2.91   0
  -7  -5  -9  146.89    3.02   0
  -7  -1  -6   70.12    2.13   0
  -7   0  -5  149.08    2.46   0
  -7   4   2    0.40    1.26   0
  -6  -8 -10   21.85    2.52   0
  -6  -4  -8 1228.18    7.17   0
  -6   2  -2  391.82    3.27   0
  -6   4   2    4.91    1.21   0
  -5  -2  -6 3454.79   10.84   0
  -5   0  -4  534.47    4.02   0
  -5   1  -3    6.84    1.52   0
  -5   3   0 2178.35    7.81   0
  -4  -8  -9   34.68    4.44   0
  -4  -4  -7  143.22    3.16   0
  -4   2  -1  859.52    5.17   0
  -4   4   3 1043.51    6.17   0
  -3   4   4  311.80    4.00   0
  -2   4   6    5.63    1.52   0
  -2   4   8   52.37    2.83   0
  -1  -9  -7    8.65    1.88   0
  -1   3   4 1661.55   12.55   0
   0  -9  -6    3.66    1.70   0
   0   3   8   10.49    2.55   0
   1 -10  -5  240.37    3.50   0
   1  -9  -5    2.48    1.13   0
   1   1   3 1858.59   15.00   0
   2  -7  -3   15.57    1.22   0
   2  -5  -2  130.10    2.43   0
   2   1  10  235.22    3.81   0
   3 -10  -2   13.22    2.07   0
   3  -9  -2   74.20    1.91   0
   3  -8  -2  822.14    5.08   0
   3  -6  -1  709.36    4.66   0
   3  -1   4  717.82    5.18   0
   3   0   6   65.81    1.89   0
   4 -10   0    1.61    1.66   0
   4  -9   0   15.83    1.39   0
   4  -8   0   30.39    1.52   0
   4  -6   1   57.15    1.54   0
   4  -2   5   77.37    1.81   0
   4  -2   9    5.69    1.82   0
   5  -8   3   35.40    1.67   0
   5  -7   3   85.63    1.85   0
   5  -7   4   97.06    2.29   0
   5  -6   4  223.97    2.58   0
   5  -5   5  428.76    3.36   0
   5  -5   6  291.49    3.14   0
   5  -5   7  116.29    2.48   0
   5  -4   6    0.94    1.07   0
   5  -4   7  134.58    2.21   0
   5  -4   8   57.21    1.83   0
 -10   1  -4  123.62    2.21   0
  -9  -4  -9   74.44    2.14   0
  -9   2  -3   16.03    1.46   0
  -9   3  -1   80.52    1.97   0
  -8  -3  -8   23.06    1.45   0
  -8   2  -3  336.44    2.94   0
  -8   3  -1   46.52    1.63   0
  -8   4   1   10.42    1.93   0
  -7  -2  -7   63.90    1.76   0
  -7   1  -4   11.83    1.20   0
  -7   3  -1  287.13    2.92   0
  -7   4   1   11.83    1.23   0
  -6   3  -1  215.00    2.77   0
  -5  -3  -7  665.02    5.43   0
  -5   2  -2   56.45    1.92   0
  -5   4   2 2320.37    8.28   0
  -3  -5  -7   57.14    2.96   0
  -3  -1  -4 1717.43    8.96   0
  -3   0  -3 2577.24   10.35   0
  -2 -10  -8  238.99    5.41   0
  -2   1  -1  700.05    6.15   0
  -1 -10  -7  100.51    3.17   0
   0 -11  -6    8.31    2.20   0
   0 -10  -6  113.80    2.83   0
   1 -11  -5   20.52    1.78   0
   1  -7  -4    8.10    1.48   0
   2  -8  -3   -0.45    1.37   0
   2  -4  -1  381.27    4.06   0
   2  -1   2 1045.77    7.16   0
   2   1   6 1363.37    8.67   0
   2   1   9  169.72    3.19   0
   3  -7  -1  432.97    3.57   0
   3  -5   0  456.63    3.71   0
   3  -1  10  183.14    3.12   0
   3   0   7   93.41    2.14   0
   4  -9   1   31.64    2.06   0
   4  -8   1   20.02    1.64   0
   4  -7   1    9.72    1.20   0
   4  -5   2   76.07    1.69   0
   4  -4   3    2.02    1.10   0
   4  -3   4   16.13    1.14   0
   4  -3   9   45.32    2.29   0
   4  -2   6   57.74    1.67   0
   4  -2   7 1587.04    6.84   0
   4  -2   8  178.48    2.59   0
   5  -7   5   92.92    2.04   0
   5  -6   5   48.65    1.72   0
   5  -6   6  125.95    2.22   0
 -10   1  -5  114.64    2.83   0
  -9  -2  -8   67.85    2.35   0
  -9  -1  -7   -0.24    1.45   0
  -9   0  -6  213.86    2.63   0
  -9   1  -5   75.73    2.18   0
  -9   3  -2    1.69    1.43   0
  -9   4   0  101.53    2.71   0
  -8  -4  -9   42.83    1.94   0
  -8   0  -6  115.19    2.30   0
  -8   3  -2  265.87    3.17   0
  -8   4   0    0.62    1.84   0
  -7  -3  -8  219.67    2.86   0
  -7   2  -3  159.12    2.23   0
  -7   4   0   48.81    1.74   0
  -7   5   4   81.79    2.72   0
  -6  -2  -7 2421.10    8.96   0
  -6  -1  -6 1206.56    5.97   0
  -6   0  -5   79.84    1.83   0
  -6   1  -4  665.38    4.21   0
  -6   4   1  695.14    4.43   0
  -6   5   4  109.99    2.57   0
  -6   5   5  133.31    2.95   0
  -5   4   1   34.78    1.89   0
  -5   5   5  193.32    2.88   0
  -5   5   6   -0.06    1.37   0
  -5   5   7   58.85    2.83   0
  -4  -1  -5  154.95    2.81   0
  -4   0  -4    4.54    1.14   0
  -4   3   0  283.42    3.07   0
  -4   4   2   22.45    1.38   0
  -3  -2  -5 1320.81    8.46   0
  -3   1  -2 2054.19    8.85   0
  -3   3   1 1054.93    6.33   0
  -3   4   3  282.77    3.72   0
  -2  -3  -5 1848.63   15.01   0
  -2   3   2   33.88    2.12   0
  -2   4   5 1124.47    8.45   0
  -2   4   9  174.06    8.80   0
  -1 -11  -7   33.32    2.40   0
  -1   1   0 1973.98   13.26   0
  -1   3  10  103.04    6.41   0
   1  -5  -3  909.88    6.72   0
   1   2   6  577.67    7.73   0
   1   2   9   15.00    1.52   0
   2 -11  -3   36.45    1.97   0
   2 -10  -3   15.13    1.46   0
   2  -9  -3   11.64    1.31   0
   2  -6  -2  356.83    3.52   0
   2  -3   0   46.04    1.84   0
   2  -2   1  228.50    3.58   0
   2   1   7  370.37    4.47   0
   2   1   8   14.84    1.46   0
   3 -10  -1   31.89    1.67   0
   3  -9  -1  381.06    3.36   0
   3  -8  -1  266.70    3.01   0
   3  -6   0  142.59    2.47   0
   3  -4   1 1132.17    5.70   0
   3  -3   2 3135.67    9.56   0
   3  -2   3 1354.31    6.49   0
   3  -1   5  175.74    2.60   0
   3  -1   9   69.31    2.16   0
   4  -9   2   53.08    1.83   0
   4  -8   2  185.08    2.38   0
   4  -7   2  143.71    2.12   0
   4  -6   2   24.29    1.28   0
   4  -5   3  415.75    3.29   0
   4  -4   4   81.00    1.74   0
   4  -4   8   -1.50    1.98   0
   4  -3   5  689.91    4.30   0
   4  -3   6  296.03    2.96   0
   4  -3   7  240.43    2.76   0
   4  -3   8    0.59    1.34   0
 -10   2  -4   69.08    2.05   0
  -9  -3  -9  178.04    2.72   0
  -9   2  -4  160.36    2.31   0
  -9   4  -1   27.51    2.04   0
  -8  -5 -10  174.48    3.31   0
  -8  -2  -8    6.30    1.28   0
  -8  -1  -7  342.29    3.26   0
  -8   1  -5   47.91    1.48   0
  -8   2  -4    3.97    1.13   0
  -8   5   2   45.38    2.38   0
  -7  -6 -10   13.14    1.68   0
  -7  -4  -9  105.68    2.53   0
  -7   0  -6  111.74    2.31   0
  -7   1  -5  143.07    2.37   0
  -7   3  -2  878.25    4.79   0
  -7   5   2   19.57    2.00   0
  -7   5   3   84.31    1.99   0
  -6  -7 -10   47.20    2.64   0
  -6  -5  -9  416.64    4.60   0
  -6   2  -3  268.39    2.81   0
  -6   4   0    4.40    1.11   0
  -6   5   3   14.04    1.44   0
  -5  -6  -9  104.75    3.33   0
  -5  -4  -8    1.24    1.53   0
  -5   3  -1  121.26    2.10   0
  -5   5   4   10.93    1.32   0
  -4  -2  -6   85.34    2.40   0
  -4   1  -3  864.92    5.23   0
  -4   5   5   89.59    2.48   0
  -4   5   6   -0.69    1.21   0
  -4   5   7  360.74    4.56   0
  -3   2  -1 1022.91    6.10   0
  -2   2   0  218.03    3.77   0
   0  -7  -5   22.22    1.48   0
   1 -11  -4   77.52    2.49   0
   1 -10  -4   57.61    2.30   0
   1  -9  -4   43.32    1.96   0
   1  -8  -4   48.54    1.71   0
   1   2   7 3278.30   16.67   0
   1   2   8   43.66    2.33   0
   2  -7  -2    0.31    1.53   0
   2   0   4  100.15    2.47   0
   2   0  10    0.84    1.47   0
   3 -10   0    7.70    1.53   0
   3  -9   0  152.25    2.65   0
   3  -8   0  421.34    3.68   0
   3  -7   0  802.78    4.64   0
   3  -5   1  568.99    4.20   0
   3  -2   4    1.51    1.42   0
   3  -2   9  100.62    2.50   0
   3  -1   6    2.13    1.02   0
   3  -1   7  152.02    2.47   0
   3  -1   8  277.65    3.25   0
   4  -8   3    4.42    1.43   0
   4  -8   4  140.67    2.19   0
   4  -7   3  171.65    2.36   0
   4  -7   4  197.75    2.75   0
   4  -7   5  312.30    3.31   0
   4  -6   3    3.50    1.23   0
   4  -6   4   29.15    1.38   0
   4  -6   5  900.38    5.06   0
   4  -6   6  319.63    3.43   0
   4  -5   4  258.37    2.70   0
   4  -5   5  331.70    3.13   0
   4  -5   6  532.38    4.01   0
   4  -5   7   50.56    1.69   0
   4  -4   5   -1.51    1.00   0
   4  -4   6 1323.30    5.90   0
   4  -4   7  115.42    2.05   0
  -9   0  -7  175.17    2.78   0
  -9   1  -6   30.14    1.99   0
  -9   3  -3   43.23    1.70   0
  -8  -3  -9   11.27    1.50   0
  -8   3  -3  106.37    1.98   0
  -8   4  -1  501.73    3.76   0
  -8   5   1  157.32    2.34   0
  -7  -2  -8  247.42    3.08   0
  -7  -1  -7  250.70    2.86   0
  -7   2  -4    1.03    1.23   0
  -7   4  -1  208.42    2.47   0
  -7   5   1   25.25    1.92   0
  -6  -3  -8  195.21    2.88   0
  -6   3  -2    7.46    1.15   0
  -6   5   2   21.37    1.50   0
  -5  -1  -6  508.27    4.19   0
  -5   0  -5 4228.42   11.20   0
  -5   1  -4  137.48    2.27   0
  -5   2  -3   76.17    2.15   0
  -5   4   0   64.24    2.04   0
  -5   5   3   82.19    2.07   0
  -4  -5  -8    2.18    1.40   0
  -4   2  -2 1342.91    6.28   0
  -4   4   1  209.63    2.95   0
  -4   5   4   91.24    2.12   0
  -4   5   8  215.17    4.30   0
  -3  -3  -6  107.30    3.03   0
  -2   4   4 1740.66    9.95   0
  -1  -7  -6    7.28    1.74   0
   0  -8  -5  106.86    2.68   0
   0  -5  -4   71.23    2.63   0
   0  -2  -2 4790.00   29.68   0
   1  -6  -3   71.60    2.24   0
   1  -4  -2  226.16    3.74   0
   1   1  10   11.53    1.81   0
   2 -10  -2   53.55    1.73   0
   2  -9  -2   99.15    2.08   0
   2  -8  -2   37.10    1.57   0
   2  -5  -1  398.75    3.70   0
   2  -1  10  296.21    3.70   0
   3  -9   1   -1.51    1.78   0
   3  -6   1  258.68    2.74   0
   3  -4   2  889.84    4.98   0
   3  -3   3  793.70    4.79   0
   3  -3   9   12.85    1.60   0
   3  -2   5   -0.59    1.45   0
   3  -2   8  126.59    2.39   0
  -9  -2  -9  189.49    3.09   0
  -9  -1  -8  306.31    3.22   0
  -9   2  -5    6.35    1.41   0
  -9   3  -4   60.59    2.15   0
  -9   4  -2    4.71    1.58   0
  -8   0  -7   97.21    2.02   0
  -8   1  -6  228.69    2.73   0
  -8   2  -5   11.39    1.85   0
  -8   4  -2  506.35    3.70   0
  -8   5   0   78.29    1.95   0
  -7  -5 -10   38.31    2.16   0
  -7   3  -3   60.90    1.62   0
  -6   0  -6 5564.92   12.44   0
  -6   1  -5 1105.25    5.43   0
  -6   2  -4   26.43    1.78   0
  -6   4  -1   33.41    1.40   0
  -6   5   1  173.13    2.42   0
  -5  -2  -7   37.38    1.87   0
  -5   3  -2  151.25    2.45   0
  -5   5   2  169.66    2.50   0
  -4   3  -1 1054.71    5.57   0
  -4   5   3  253.15    3.34   0
  -3   3   0 1097.11    6.18   0
  -3   4   2   27.84    1.49   0
  -3   5   5  169.50    3.21   0
  -3   5   6  808.02    6.82   0
  -3   5   7    9.38    1.82   0
  -2  -7  -7  158.64    5.03   0
  -1   3   3 1823.56   12.45   0
   0 -11  -5  604.44    5.03   0
   0 -10  -5  154.68    2.74   0
   0  -9  -5   28.37    1.73   0
   0   2  10   13.37    2.04   0
   1 -11  -3   31.73    1.83   0
   2 -10  -1   70.77    1.85   0
   2  -6  -1   86.32    1.91   0
   2  -4   0  146.34    2.43   0
   2  -1   3 2642.73   10.50   0
   2   0   5  269.68    3.59   0
   2   0   6  129.09    2.71   0
   3  -9   2   21.59    1.54   0
   3  -8   1   49.70    1.53   0
   3  -8   2    1.72    1.48   0
   3  -7   1  191.48    2.39   0
   3  -7   2    1.54    1.61   0
   3  -6   2   31.85    1.72   0
   3  -5   2  239.53    2.71   0
   3  -4   3   14.45    1.23   0
   3  -4   8   43.37    1.74   0
   3  -3   4  355.17    3.31   0
   3  -3   7  387.44    3.56   0
   3  -3   8    3.75    1.28   0
   3  -2   6  815.62    4.95   0
   3  -2   7   76.19    1.88   0
  -9   4  -3   50.91    1.85   0
  -8  -4 -10   80.28    2.18   0
  -8  -1  -8  114.04    2.18   0
  -8   3  -4   21.98    1.45   0
  -8   5  -1  397.80    3.68   0
  -7  -3  -9   12.96    1.37   0
  -7   1  -6  243.89    2.93   0
  -7   2  -5   -1.80    1.52   0
  -7   4  -2  308.16    2.94   0
  -7   5   0    1.18    1.34   0
  -7   6   3   -0.01    1.55   0
  -6  -6 -10    8.35    1.82   0
  -6  -4  -9    0.51    1.16   0
  -6  -1  -7  641.49    4.53   0
  -6   3  -3  432.74    3.37   0
  -6   6   3   17.67    1.75   0
  -6   6   4   38.32    1.69   0
  -6   6   5  139.76    2.69   0
  -5   5   1  566.17    4.33   0
  -5   6   5    6.00    1.84   0
  -5   6   6    0.50    1.99   0
  -4  -3  -7  475.37    5.02   0
  -3   5   8   89.01    3.44   0
  -2   3   1  312.52    4.13   0
  -1 -11  -6   87.05    2.35   0
  -1 -10  -6   -0.10    1.83   0
  -1  -8  -6   15.51    1.86   0
  -1   2   1 3746.35   16.70   0
   0   2   3   60.01    6.85   0
   1 -11  -2   32.36    2.47   0
   1 -10  -3    0.28    1.37   0
   1  -9  -3  354.92    3.50   0
   1  -8  -3  180.20    2.59   0
   1  -7  -3  318.07    3.47   0
   1  -3  -1 2420.06   11.26   0
   1   0  10  481.71    4.83   0
   1   1   4 2621.76   15.08   0
   1   1   9    2.97    1.28   0
   2 -10   0    0.39    1.48   0
   2  -9  -1   51.30    1.74   0
   2  -8  -1  165.72    2.44   0
   2  -7  -1  325.14    3.20   0
   2  -5   0  579.24    4.44   0
   2  -3   1  850.91    5.56   0
   2  -2   2 1149.81    6.63   0
   2  -2   9   -0.02    1.87   0
   2  -1   9  294.94    3.42   0
   3  -8   3  104.59    1.98   0
   3  -8   4   96.61    2.05   0
   3  -7   3    9.48    1.20   0
   3  -7   4   57.93    1.71   0
   3  -7   5   11.67    1.52   0
   3  -6   3   92.22    1.87   0
   3  -6   4   39.05    1.79   0
   3  -6   5   20.45    1.83   0
   3  -6   6   63.20    1.82   0
   3  -5   3    6.41    1.12   0
   3  -5   4    2.23    1.55   0
   3  -5   5   27.36    1.83   0
   3  -5   6  170.19    2.49   0
   3  -5   7   39.78    1.69   0
   3  -4   4    5.91    1.08   0
   3  -4   5  759.76    4.50   0
   3  -4   6   85.75    1.84   0
   3  -4   7   59.94    1.69   0
   3  -3   5  179.42    2.46   0
   3  -3   6  403.07    3.43   0
  -9   0  -8   75.82    1.97   0
  -9   1  -7  402.65    3.46   0
  -9   2  -6   92.76    1.98   0
  -9   3  -5  103.99    2.12   0
  -9   5  -2   25.23    2.30   0
  -8  -2  -9  177.27    2.69   0
  -8   4  -3   66.94    1.74   0
  -8   6   1    0.39    1.63   0
  -7  -1  -8   -3.37    1.65   0
  -7   0  -7  178.41    2.43   0
  -7   3  -4   26.33    1.29   0
  -7   5  -1  705.51    4.33   0
  -7   6   2    0.90    1.40   0
  -6  -2  -8   15.90    1.49   0
  -6   4  -2  157.27    2.16   0
  -6   5   0    4.16    1.15   0
  -6   6   2  525.04    4.40   0
  -5  -5  -9  288.10    4.75   0
  -5  -3  -8  197.09    3.32   0
  -5   1  -5  391.17    3.70   0
  -5   2  -4 4051.64   10.55   0
  -5   4  -1    3.93    1.18   0
  -5   6   4   44.92    1.77   0
  -4   0  -5  723.14    5.06   0
  -4   1  -4  293.28    3.17   0
  -4   2  -3   27.73    1.36   0
  -4   4   0   81.75    1.90   0
  -4   5   2 1539.89    7.06   0
  -3   0  -4  209.17    3.11   0
  -3   1  -3 1492.98    7.45   0
  -3   2  -2 5194.99   13.21   0
  -3   4   1  225.07    3.14   0
  -3   5   4  126.81    2.57   0
  -2   0  -3    2.71    1.92   0
  -2   4   3  563.57    5.37   0
  -1  -9  -6    2.89    1.19   0
  -1  -5  -5  336.96    6.49   0
   0 -11  -4   21.96    1.67   0
   0  -6  -4   11.99    1.74   0
   1 -10  -2   54.31    2.01   0
   1  -5  -2 1299.57    7.22   0
   1  -1   1    0.87    2.57   0
   1   1   8  280.68    3.99   0
   2 -10   1   36.46    1.88   0
   2  -9   0  148.27    2.30   0
   2  -9   1  136.36    2.45   0
   2  -8   0  428.88    3.46   0
   2  -7   0   89.46    2.04   0
   2  -6   0  435.93    3.60   0
   2  -4   1 1317.87    6.41   0
   2  -3   9  150.69    2.55   0
   2  -2   8  197.71    2.93   0
   2  -1   4 2094.87    8.98   0
   2  -1   7  183.56    2.90   0
   2  -1   8    9.58    1.22   0
  -9  -1  -9  158.73    2.58   0
  -9   4  -4   32.62    1.74   0
  -8  -3 -10  147.17    2.71   0
  -8   0  -8  560.31    4.17   0
  -8   1  -7  101.47    2.00   0
  -8   2  -6    3.91    1.33   0
  -8   3  -5   26.57    1.48   0
  -8   5  -2  328.86    3.16   0
  -8   6   0  244.12    2.96   0
  -7  -4 -10   72.25    2.54   0
  -7   4  -3  109.94    1.87   0
  -7   6   1   30.95    1.64   0
  -6   1  -6  746.68    4.82   0
  -6   2  -5 2939.52    8.61   0
  -6   5  -1  116.47    2.41   0
  -5   0  -6    1.21    1.25   0
  -5   3  -3  582.23    4.00   0
  -5   5   0    0.35    1.53   0
  -5   6   3 1628.28    7.37   0
  -4  -1  -6  215.29    3.06   0
  -4   3  -2  571.33    4.13   0
  -4   6   5    9.52    1.71   0
  -4   6   6   48.25    2.19   0
  -4   6   7  167.88    3.54   0
  -3  -1  -5  425.39    4.62   0
  -3   3  -1 4109.75   11.56   0
  -3   5   3  128.33    2.68   0
  -2 -10  -7   21.01    1.82   0
  -2  -9  -7   86.41    2.88   0
  -2  -8  -7 1155.26    9.69   0
  -2   1  -2 1097.03    7.27   0
  -2   2  -1  242.77    3.74   0
  -1 -11  -5    1.22    2.08   0
   0 -11  -3    0.19    2.13   0
   0 -10  -4  176.50    2.74   0
   0  -9  -4 1189.35    6.57   0
   0  -8  -4   81.66    2.33   0
   0  -7  -4  397.14    4.32   0
   0   1  10    4.86    1.61   0
   0   2   9  223.40    4.10   0
   1 -10  -1    2.13    1.70   0
   1  -9  -2   -0.10    1.12   0
   1  -8  -2  134.86    2.42   0
   1  -7  -2  689.24    4.95   0
   1  -6  -2  632.97    4.77   0
   1   1   7  867.83    6.99   0
   2  -9   2   38.78    1.70   0
   2  -8   1   34.69    1.36   0
   2  -8   2  333.52    3.23   0
   2  -8   3   29.44    1.96   0
   2  -8   4   11.73    1.59   0
   2  -7   1  176.34    2.45   0
   2  -6   1   69.25    1.90   0
   2  -5   1   93.38    1.91   0
   2  -5   7   58.16    2.28   0
   2  -4   8    1.57    1.55   0
   2  -3   2 1871.94    7.74   0
   2  -3   8  283.17    3.10   0
   2  -2   3  177.59    2.68   0
   2  -2   7   91.73    2.21   0
   2  -1   5  437.39    4.08   0
   2  -1   6  393.47    3.77   0
  -9   1  -8  201.85    3.02   0
  -9   2  -7  145.17    2.33   0
  -9   3  -6  227.99    3.08   0
  -9   5  -3  187.31    2.68   0
  -8  -1  -9  197.01    2.80   0
  -8   4  -4   21.58    1.49   0
  -8   5  -3   13.57    1.82   0
  -8   6  -1  277.56    2.99   0
  -7  -2  -9    0.83    1.33   0
  -7   1  -7    5.86    1.64   0
  -7   2  -6  314.70    3.02   0
  -7   3  -5  141.00    2.52   0
  -7   5  -2   23.63    1.52   0
  -7   6   0  114.21    2.18   0
  -7   7   3   16.82    1.79   0
  -6  -5 -10    3.24    1.68   0
  -6  -3  -9    1.66    1.18   0
  -6   0  -7   89.21    2.01   0
  -6   3  -4  596.83    3.94   0
  -6   4  -3    1.71    1.15   0
  -6   6   1    9.06    1.29   0
  -6   7   4   88.42    2.48   0
  -6   7   5   50.53    2.64   0
  -5  -1  -7  723.15    5.07   0
  -5   4  -2  224.70    2.63   0
  -5   6   2   65.22    1.89   0
  -4  -8  -9   51.69    4.41   0
  -4   4  -1  873.48    5.05   0
  -4   5   1  254.18    2.93   0
  -4   6   4  610.34    5.02   0
  -3 -10  -8   11.39    2.08   0
  -3  -9  -8   63.64    2.94   0
  -3  -8  -8  448.55    7.83   0
  -2  -1  -4 2588.33   13.17   0
  -2   4   2   11.82    1.79   0
  -1 -10  -5   38.76    2.18   0
  -1   2  10   12.51    2.49   0
  -1   3   9  378.31    7.04   0
  -1   4   6   47.52    3.60   0
   0 -10  -3   30.99    1.99   0
   0  -4  -3  332.69    5.03   0
   1 -10   0   62.38    1.93   0
   1  -9  -1    5.78    1.32   0
   1  -4  -1 3462.64   12.03   0
   1  -2   9  309.81    3.47   0
   1  -1   9    2.57    1.41   0
   1   1   5 2810.49   13.91   0
   1   1   6 2423.39   12.04   0
   2  -7   2  110.10    2.04   0
   2  -7   3   60.50    1.67   0
   2  -7   4   64.85    1.75   0
   2  -7   5   11.51    1.57   0
   2  -6   2   78.05    1.73   0
   2  -6   3  390.40    3.53   0
   2  -6   4  132.80    2.39   0
   2  -6   5   18.49    1.40   0
   2  -6   6   21.32    1.56   0
   2  -5   2    2.99    1.11   0
   2  -5   6    2.14    1.22   0
   2  -4   2  234.80    2.74   0
   2  -4   6  104.54    2.19   0
   2  -4   7  280.80    3.00   0
   2  -3   3  162.69    2.35   0
   2  -3   6    3.66    1.46   0
   2  -3   7   50.52    1.62   0
   2  -2   4  484.01    4.08   0
   2  -2   5  745.26    4.94   0
   2  -2   6  121.82    2.19   0
  -9   4  -5  114.04    2.27   0
  -8  -2 -10  147.48    2.99   0
  -8   2  -7  164.41    2.67   0
  -8   3  -6    3.92    1.90   0
  -7  -3 -10   63.59    2.28   0
  -7   0  -8   87.98    2.04   0
  -7   4  -4    2.82    1.23   0
  -7   6  -1  182.23    2.48   0
  -7   7   2   25.32    1.73   0
  -6  -1  -8    6.37    1.24   0
  -6   5  -2  122.44    2.05   0
  -6   6   0    5.51    1.24   0
  -6   7   3  102.06    2.22   0
  -5   5  -1   51.16    1.57   0
  -5   6   1   20.06    1.33   0
  -4  -9  -9    2.25    2.10   0
  -4  -4  -8  149.34    3.48   0
  -4  -2  -7  285.38    3.73   0
  -4   6   3   32.34    1.55   0
  -3  -4  -7    0.72    1.61   0
  -3  -2  -6    7.70    1.54   0
  -3   4   0  892.92    5.37   0
  -3   5   2    4.28    1.24   0
  -2 -11  -6   65.89    2.49   0
  -2   3   0   44.84    1.94   0
  -2   4   9  168.14    8.69   0
  -2   5   5 1094.78    8.64   0
  -2   5   6  172.53    4.03   0
  -2   5   7  172.17    5.15   0
  -1 -11  -4   38.07    2.10   0
  -1  -9  -5  686.99    5.46   0
  -1   3   2  318.75    4.94   0
  -1   4   5  751.16    9.82   0
   0 -10  -2   30.22    2.04   0
   0  -9  -3   78.32    2.08   0
   0   1   9  302.66    4.12   0
   0   2   8  221.76    4.15   0
   1  -9   0   69.98    1.84   0
   1  -9   1  269.76    2.92   0
   1  -9   2  202.97    2.67   0
   1  -8  -1    1.75    1.14   0
   1  -8   4   31.22    2.40   0
   1  -7  -1   39.03    1.49   0
   1  -6  -1   24.95    1.78   0
   1  -5  -1  290.16    3.33   0
   1  -4   8  153.14    2.54   0
   1  -3   8   79.66    2.35   0
   1  -2   8  143.60    2.64   0
   1  -1   8    5.49    1.45   0
   2  -5   3   84.73    1.84   0
   2  -5   4  132.86    2.07   0
   2  -5   5   91.26    1.86   0
   2  -4   3   60.78    1.78   0
   2  -4   4  910.11    5.02   0
   2  -4   5   56.00    1.54   0
   2  -3   4  766.60    4.83   0
   2  -3   5  223.65    2.73   0
  -8   0  -9   91.15    2.49   0
  -8   1  -8  165.67    2.48   0
  -8   4  -5   40.25    1.60   0
  -8   5  -4   69.87    1.87   0
  -8   6  -2   64.71    1.95   0
  -7  -1  -9  412.01    3.82   0
  -7   5  -3  184.52    2.54   0
  -7   7   1   38.54    1.80   0
  -6   2  -6   31.05    1.45   0
  -6   3  -5  348.23    3.22   0
  -6   4  -4 1719.07    6.81   0
  -6   6  -1   66.60    2.06   0
  -6   7   2   63.15    1.91   0
  -5  -4  -9  113.72    2.86   0
  -5  -2  -8    6.50    1.16   0
  -5   1  -6  444.01    3.76   0
  -5   2  -5  133.12    2.19   0
  -5   3  -4  761.68    4.56   0
  -5   4  -3 1252.23    5.81   0
  -5   7   3  295.73    3.64   0
  -5   7   4  106.89    2.35   0
  -5   7   5   -0.45    1.44   0
  -5   7   6   -0.45    1.64   0
  -4   1  -5   18.05    1.32   0
  -4   2  -4    2.67    1.03   0
  -4   3  -3    0.01    1.24   0
  -4   5   0   31.62    1.43   0
  -4   6   2   52.22    1.79   0
  -3   1  -4  731.95    5.29   0
  -3   2  -3 1384.66    6.67   0
  -3   6   5  200.38    3.47   0
  -3   6   6    0.62    1.53   0
  -2 -10  -6   35.67    2.27   0
  -2   5   4 2558.26   11.78   0
  -1 -11  -3   85.99    2.50   0
  -1 -10  -4   85.07    2.32   0
  -1  -8  -5  183.50    3.05   0
  -1  -7  -5   31.35    1.97   0
  -1  -6  -5  512.53    5.87   0
  -1   0  -2 3517.66   17.67   0
  -1   1  -1    1.45    1.96   0
   0 -10  -1    2.62    1.43   0
   0 -10   0   79.56    2.58   0
   0  -9  -2   15.26    1.79   0
   0  -8  -3  149.97    2.44   0
   0  -7  -3 2672.20    9.84   0
   0  -6  -3 2577.11   10.53   0
   0  -5  -3 2794.93   11.90   0
   0  -1   9  118.54    2.80   0
   1  -8   0   57.27    1.65   0
   1  -8   1  674.53    4.19   0
   1  -8   2  556.92    3.96   0
   1  -8   3  135.79    2.21   0
   1  -7   0   98.16    2.14   0
   1  -7   4    0.41    1.81   0
   1  -7   5    0.77    1.61   0
   1  -6   6   79.97    2.05   0
   1  -5   7    2.71    1.55   0
   1  -4   7   27.14    1.56   0
   1  -3   0 2880.35   11.29   0
   1  -1   7  375.77    3.87   0
  -8  -1 -10  200.32    3.14   0
  -8   6  -3    1.18    1.61   0
  -7  -5 -11  131.94    3.17   0
  -7   1  -8  517.85    4.26   0
  -7   2  -7   -1.49    1.33   0
  -7   3  -6   84.36    1.85   0
  -7   4  -5  226.67    2.67   0
  -7   5  -4  184.83    2.68   0
  -7   6  -2  107.93    2.21   0
  -7   7   0  312.41    3.22   0
  -6  -4 -10    5.13    1.85   0
  -6  -2  -9    6.18    1.25   0
  -6   0  -8   14.57    1.55   0
  -6   1  -7    1.95    1.23   0
  -6   5  -3  823.65    4.61   0
  -6   7   1   68.44    1.93   0
  -5   0  -7  162.30    2.51   0
  -5   5  -2   16.63    1.21   0
  -5   6   0   -1.49    1.27   0
  -5   7   2  483.79    4.25   0
  -4   0  -6    2.48    1.07   0
  -4   4  -2   19.92    1.24   0
  -4   6   1    4.87    1.57   0
  -3   0  -5    8.78    1.73   0
  -3   3  -2 3280.51    9.95   0
  -3   5   1  232.41    3.01   0
  -3   6   4  103.27    2.32   0
  -3   6   7  153.41    3.95   0
  -2 -11  -5   13.06    1.74   0
  -2  -9  -6   33.92    2.11   0
  -2  -2  -5  806.67    8.63   0
  -2   4   1  370.63    3.97   0
  -1   4   4  756.62    8.29   0
   0  -9  -1   52.78    2.03   0
   0  -9   2  143.94    2.72   0
   0  -8  -2   68.90    2.13   0
   0   1   8  900.49    6.95   0
   1  -7   1  159.76    2.30   0
   1  -7   2  173.03    2.35   0
   1  -7   3  441.55    3.50   0
   1  -6   0  321.95    3.18   0
   1  -6   1   21.72    1.68   0
   1  -6   4    2.80    1.55   0
   1  -6   5   31.57    1.60   0
   1  -5   0  655.57    4.58   0
   1  -5   5   36.02    1.82   0
   1  -5   6    0.94    1.35   0
   1  -4   0   14.56    1.35   0
   1  -4   6   28.47    1.71   0
   1  -3   7   50.56    1.70   0
   1  -2   1  593.37    5.55   0
   1  -2   7    2.56    1.19   0
   1  -1   2 3939.88   14.82   0
  -8   1  -9  213.95    3.06   0
  -8   2  -8  146.99    2.44   0
  -8   3  -7   83.40    2.00   0
  -8   4  -6   80.96    1.95   0
  -8   5  -5  122.99    2.29   0
  -7  -2 -10   36.83    1.77   0
  -7   0  -9  211.45    3.17   0
  -7   6  -3   22.15    1.64   0
  -7   7  -1    1.94    1.47   0
  -6   6  -2   44.73    1.60   0
  -6   7   0   16.64    1.42   0
  -6   8   3  274.39    3.71   0
  -6   8   4    1.37    1.72   0
  -5  -1  -8   13.22    1.81   0
  -5   6  -1  164.16    2.65   0
  -5   7   1   31.35    1.86   0
  -4  -3  -8    2.50    1.54   0
  -4  -1  -7    3.30    1.55   0
  -4   5  -1  295.26    3.05   0
  -4   7   4   -1.52    1.27   0
  -4   7   5   11.62    1.42   0
  -4   7   6  110.61    2.65   0
  -3 -10  -7   42.57    2.44   0
  -3   4  -1 1143.82    5.87   0
  -3   6   3    6.10    1.18   0
  -2 -11  -4    3.39    1.77   0
  -2 -10  -5   13.02    2.00   0
  -2   1  -3 2708.43   10.85   0
  -2   2  -2 1184.76    6.91   0
  -2   3  -1  882.12    5.94   0
  -2   5   3   57.57    1.87   0
  -1 -10  -3  143.68    2.42   0
  -1 -10  -2   62.71    2.32   0
  -1  -9  -4   79.26    1.94   0
  -1   2   9 1167.50    8.82   0
   0  -9   0    7.50    1.33   0
   0  -9   1   34.00    1.65   0
   0  -8  -1  116.00    2.42   0
   0  -8   3   37.85    1.75   0
   0  -7  -2  243.31    3.25   0
   0  -6   6   49.65    2.01   0
   0  -4   7   58.07    2.37   0
   0  -3  -2 1679.40   11.61   0
   0  -3   8   33.26    1.79   0
   0  -2   8   41.70    1.72   0
   0  -1   8  284.07    3.53   0
   0   2   7  259.26    4.51   0
   1  -6   2 1342.79    5.91   0
   1  -6   3  145.38    2.29   0
   1  -5   1  192.93    2.57   0
   1  -5   2  166.24    2.59   0
   1  -5   3  303.99    3.27   0
   1  -5   4 1209.41    5.65   0
   1  -4   1   28.15    1.44   0
   1  -4   5  116.79    2.15   0
   1  -3   1    1.52    1.39   0
   1  -3   5 3445.61   10.14   0
   1  -3   6  140.97    2.30   0
   1  -2   2   58.43    2.50   0
   1  -2   6   71.20    1.95   0
   1  -1   3  729.49    6.08   0
   1  -1   5 1583.28    7.82   0
   1  -1   6 1235.43    6.65   0
  -8   6  -4  115.52    2.35   0
  -7  -4 -11   62.01    2.39   0
  -7   3  -7   40.81    2.14   0
  -7   4  -6   13.83    1.49   0
  -7   5  -5    6.97    1.84   0
  -7   7  -2   -1.56    2.12   0
  -7   8   0   41.24    2.59   0
  -6  -3 -10   67.84    2.55   0
  -6  -1  -9   45.26    1.80   0
  -6   2  -7    0.63    1.25   0
  -6   3  -6   52.37    1.70   0
  -6   4  -5  147.78    2.28   0
  -6   5  -4 1192.71    5.49   0
  -6   7  -1   30.77    2.07   0
  -6   8   2    2.90    1.60   0
  -5  -3  -9   51.41    2.06   0
  -5   2  -6    3.62    1.09   0
  -5   3  -5    0.44    1.17   0
  -5   4  -4  386.85    3.31   0
  -5   5  -3  661.28    4.55   0
  -5   8   4  784.44    5.96   0
  -5   8   5   58.83    2.61   0
  -4   2  -5   75.79    1.85   0
  -4   3  -4   16.45    1.31   0
  -4   4  -3    3.60    1.16   0
  -4   6   0  565.40    4.08   0
  -4   7   3  493.60    4.28   0
  -4   7   7   29.61    2.51   0
  -3  -1  -6  118.60    2.79   0
  -3   5   0  481.60    3.97   0
  -3   6   2   82.00    1.97   0
  -2  -8  -6   29.51    1.72   0
  -2   0  -4  106.13    2.91   0
  -2   5   2  148.59    2.92   0
  -1 -10  -1   17.88    1.56   0
  -1 -10   0    9.04    1.81   0
  -1  -9  -3   12.43    1.35   0
  -1  -8  -4  235.68    3.12   0
  -1  -1  -3 1920.29   15.69   0
  -1   1   9  302.67    4.01   0
  -1   3   1 2428.60   11.58   0
  -1   3   8  586.78    7.81   0
  -1   4   3  552.76    6.29   0
   0  -8   0    1.53    1.23   0
   0  -8   1   89.48    1.89   0
   0  -8   2  124.03    2.13   0
   0  -7  -1   85.94    2.22   0
   0  -7   3   24.93    1.94   0
   0  -7   4    1.74    1.49   0
   0  -6  -2 1685.45    7.64   0
   0  -6   5  427.77    3.56   0
   0  -5  -2 6493.44   16.48   0
   0  -5   6  153.22    2.32   0
   0  -4  -2 9826.72   22.95   0
   0  -3   7  378.96    3.67   0
   1  -4   2   25.26    1.37   0
   1  -4   3 4271.14   11.00   0
   1  -4   4  645.35    4.35   0
   1  -3   2   57.34    1.77   0
   1  -3   3  462.20    4.02   0
   1  -3   4 2004.55    7.81   0
   1  -2   3   96.11    2.16   0
   1  -2   4 3823.60   11.31   0
   1  -2   5  628.12    4.58   0
   1  -1   4  953.94    6.30   0
  -8   4  -7  140.70    2.54   0
  -7  -3 -11   42.53    2.45   0
  -7  -1 -10   40.86    1.89   0
  -7   2  -8   21.77    1.59   0
  -7   6  -4  140.67    2.31   0
  -6   1  -8   21.05    1.47   0
  -6   6  -3  801.16    4.74   0
  -6   8   1   75.01    2.00   0
  -5   1  -7  226.38    2.79   0
  -5   6  -2  139.07    2.31   0
  -5   7   0    0.56    1.30   0
  -5   8   3  288.13    3.51   0
  -4 -10  -8   14.99    1.85   0
  -4   1  -6   42.94    1.64   0
  -4   5  -2   74.08    1.79   0
  -4   7   2  139.34    2.40   0
  -3 -10  -6   82.09    2.56   0
  -3  -9  -7  465.45    5.06   0
  -3  -3  -7  149.49    3.85   0
  -3   2  -4    2.62    1.18   0
  -3   3  -3  855.05    5.09   0
  -3   4  -2  934.10    5.25   0
  -2 -10  -4   37.51    1.72   0
  -2 -10  -3   58.67    2.33   0
  -2  -9  -5   13.29    1.42   0
  -2  -7  -6  321.55    4.64   0
  -2  -6  -6  715.08    8.12   0
  -2   4   0  156.80    2.60   0
  -1  -9  -2   80.22    1.93   0
  -1  -9  -1  284.52    3.05   0
  -1  -9   0    2.41    1.36   0
  -1  -9   1    0.93    1.54   0
  -1  -8  -3  100.59    2.30   0
  -1  -8   3  570.18    4.01   0
  -1  -7  -4 1313.08    7.32   0
  -1  -4   7  134.33    2.88   0
  -1  -2   8   14.34    2.21   0
   0  -7   0   16.63    1.34   0
   0  -7   1    8.47    1.32   0
   0  -7   2  564.89    3.93   0
   0  -6  -1   88.73    2.32   0
   0  -6   4  110.89    2.16   0
   0  -5   5   33.30    1.60   0
   0  -4   6  848.41    5.00   0
   0  -2   7  305.64    3.24   0
   0  -1   7  330.65    3.72   0
   0   1   7  410.10    4.68   0
   0   2   6 1498.44   11.56   0
  -7   1  -9   -2.68    1.48   0
  -7   7  -3   43.56    1.90   0
  -7   8  -1    1.03    1.82   0
  -6   4  -6    0.46    1.28   0
  -6   7  -2  175.62    2.52   0
  -6   8   0   50.28    1.86   0
  -5  -2  -9   42.62    1.82   0
  -5   0  -8  271.05    3.20   0
  -5   4  -5   51.90    1.65   0
  -5   7  -1   71.08    1.83   0
  -5   8   2   81.75    2.10   0
  -4   6  -1   58.28    1.74   0
  -4   7   1  172.06    2.70   0
  -3   1  -5  186.94    2.78   0
  -3   5  -1  560.29    4.16   0
  -3   6   1  762.92    5.00   0
  -3   7   5   98.36    2.45   0
  -2 -10  -2  161.32    2.52   0
  -2 -10  -1   37.01    1.89   0
  -1  -8   2  214.48    2.62   0
  -1  -7   4   70.67    2.05   0
  -1  -6  -4  132.42    2.75   0
  -1  -6   5   26.72    1.76   0
  -1  -5   6  551.21    4.12   0
  -1  -1   8  141.74    2.54   0
   0  -6   0   21.95    1.33   0
   0  -6   2  301.36    3.07   0
   0  -6   3   45.28    1.61   0
   0  -5   4   74.23    1.78   0
   0  -4   5  151.09    2.29   0
   0  -3   6  556.03    4.17   0
  -6  -8 -10   22.50    1.74   0
  -6  -7  -9  930.44    4.80   0
  -6  -6  -9  584.58    3.90   0
  -6  -5  -9  445.30    3.73   0
  -6  -4  -9    0.60    1.54   0
  -6  -3  -9    4.07    1.16   0
  -6  -2 -11   19.68    2.26   0
  -6  -2 -10    0.04    1.34   0
  -5  -7  -7   86.38    1.87   0
  -5  -1  -7  755.92    4.60   0
  -5   0  -9  418.55    4.00   0
  -5   0  -8  269.03    2.98   0
  -4  -8  -6  361.77    3.28   0
  -4  -6  -5   65.40    1.78   0
  -4  -1  -5  160.63    2.69   0
  -3 -10  -6   74.67    2.37   0
  -3  -3  -3 1413.05    6.75   0
  -2  -9  -4   27.57    1.52   0
  -2  -7  -3   60.05    1.88   0
  -2  -4  -2   -0.96    1.25   0
  -2  -1  -2  813.18    6.73   0
  -1  -9  -3   10.11    1.38   0
  -1  -7  -2  408.61    4.83   0
  -1  -4  -1    1.91    1.66   0
   2   2   1   19.84    1.69   0
   2   5  -2   87.39    2.73   0
   3  -4   2  946.08    8.40   0
   3   1   2 3341.89   11.31   0
   3   3   1  397.69    3.93   0
   3   5  -1  127.18    2.81   0
   4  -8   1   19.53    2.52   0
   4   4   1   11.62    1.59   0
   5  -3   3  590.14    4.64   0
   5   0   3   39.91    1.58   0
   5   1   3  354.35    3.52   0
   5   3   2 2016.26    7.40   0
   5   4   1  270.40    3.00   0
   5   5   0    6.56    1.66   0
   6  -5   3  817.45    6.17   0
   6   2   3   86.23    2.16   0
   6   5   0  274.34    2.98   0
   7   2   3   35.34    1.46   0
   7   5   0  620.75    4.89   0
   8  -6   3    1.64    1.91   0
   8   2   3  196.69    2.35   0
   8   3   2  317.94    2.96   0
   8   4   1    3.87    1.46   0
   9   2   3  142.75    2.46   0
   9   3   2  173.74    2.48   0
  10   1   3    2.04    1.63   0
  -6  -7 -10   38.02    1.78   0
  -6  -6 -10    3.94    1.34   0
  -6  -5 -10   -0.24    1.66   0
  -6  -4 -10    5.84    1.27   0
  -6  -3 -10   61.28    1.88   0
  -5  -8  -8  185.05    2.52   0
  -5  -7  -8  804.07    4.81   0
  -5  -6  -7   29.70    1.47   0
  -5  -5  -7  446.61    3.42   0
  -5  -4  -7 1243.79    5.59   0
  -5  -3  -7  653.69    4.10   0
  -5  -2  -7   35.96    1.52   0
  -5  -1  -8   12.40    1.24   0
  -4  -9  -7   70.96    2.08   0
  -4  -7  -6  113.93    2.50   0
  -4  -5  -5  165.40    2.29   0
  -4  -4  -5  464.47    3.75   0
  -4  -3  -5  235.19    2.98   0
  -4  -2  -5   97.59    1.90   0
  -4   0  -6    1.84    1.51   0
  -4   1  -7  774.34    5.26   0
  -3  -8  -5  261.58    3.24   0
  -3  -6  -4  197.65    2.65   0
  -3   2  -6  864.63    6.41   0
  -2  -3  -2    0.96    1.34   0
  -2  -2  -2  185.97    3.27   0
  -2   3  -5  230.02    4.39   0
   1  -2   1  592.60   11.64   0
   1  -1   1    1.38    2.04   0
   1   5  -3   15.01    2.07   0
   3  -7   1  174.41    6.09   0
   4  -6   2   23.98    2.04   0
   4  -1   3  885.25    5.86   0
   4   3   2  548.42    4.30   0
   4   5   0    3.90    1.55   0
   4   6  -3  317.91    4.46   0
   5  -7   2  821.57    7.95   0
   5  -4   3 1210.45    7.08   0
   5   2   3   87.03    2.17   0
   5   6  -2   86.62    2.56   0
   6   4   2  152.79    2.24   0
   7  -6   3   30.12    1.66   0
   7  -2   4   -1.49    1.30   0
   7  -1   4   12.03    1.24   0
   7   0   4  385.32    3.24   0
   7   3   3  177.89    2.62   0
   7   4   2   83.23    1.84   0
   7   5   1  191.98    2.84   0
   8  -3   4   24.52    1.59   0
   8  -2   4    1.97    1.20   0
   8  -1   4  189.22    2.43   0
   8   0   4 1363.46    5.78   0
   8   1   4 1075.96    5.18   0
   8   3   3    0.45    1.27   0
   8   4   2    1.14    1.28   0
   9  -4   4   37.43    2.07   0
   9  -3   4   60.85    1.83   0
   9  -2   4  148.81    2.33   0
   9  -1   4   23.04    1.49   0
   9   0   4   71.32    1.71   0
   9   1   4   21.25    1.80   0
   9   3   3  107.60    2.21   0
  10  -2   4   74.13    2.01   0
  10  -1   4  122.92    2.23   0
  10   0   4  122.50    2.56   0
  -6  -6 -11    1.48    1.49   0
  -6  -5 -11    2.17    1.53   0
  -6  -4 -11   14.43    1.57   0
  -5  -8  -9   76.00    1.98   0
  -5  -6  -8  268.76    2.72   0
  -5  -3  -8  198.08    2.65   0
  -5  -2  -8    4.23    1.13   0
  -5  -1 -11   -4.56    2.46   0
  -5  -1 -10   20.37    1.78   0
  -5  -1  -9  185.95    2.50   0
  -4  -8  -7   69.08    1.77   0
  -4  -6  -6  208.90    2.86   0
  -4   1  -9  123.47    2.33   0
  -4   1  -8  996.21    6.02   0
  -3  -9  -6  106.39    2.11   0
  -3  -5  -4  120.78    2.39   0
  -3   0  -4  201.90    2.91   0
  -3   1  -5  186.47    3.17   0
  -2  -8  -4   77.13    2.28   0
  -2  -6  -3   77.61    2.30   0
  -1 -11  -5   -0.84    1.84   0
  -1  -3  -1 2191.38   11.85   0
  -1   2  -2   55.16    3.45   0
  -1   3  -3  443.55    8.82   0
   0 -11  -4   10.95    2.46   0
   0  -3   0 1310.97   13.59   0
   1  -6   0  330.51    7.14   0
   2   4   0 5519.56   16.55   0
   3   2   2   10.98    1.52   0
   3   6  -4    1.09    2.23   0
   3   6  -3   81.63    2.68   0
   4  -3   3    1.41    1.54   0
   4   0   3  282.89    3.19   0
   4   1   3 1140.07    6.08   0
   4   6  -2  235.24    3.70   0
   5  -9   1  475.57    8.42   0
   5   4   2  551.79    4.08   0
   5   5   1   10.51    1.34   0
   5   6  -1    2.72    1.90   0
   6  -8   2   61.79    2.67   0
   6  -2   4   28.04    1.92   0
   6  -1   4  650.79    4.38   0
   6   0   4    9.94    1.21   0
   6   3   3    3.21    1.12   0
   6   5   1   21.94    1.45   0
   7  -3   4   21.84    1.38   0
   7   1   4  599.87    3.88   0
   7   2   4 1830.05    6.64   0
   8  -4   4   23.96    1.60   0
   8   2   4  196.99    2.35   0
   9   2   4   14.65    1.40   0
  10   1   4   34.97    1.74   0
  10   2   4   -1.17    1.97   0
  -5  -8 -10   63.09    1.88   0
  -5  -7  -9  142.15    2.20   0
  -5  -6  -9  108.19    2.37   0
  -5  -5  -8  472.13    3.37   0
  -5  -4  -8    3.90    1.16   0
  -5  -3  -9   51.34    1.88   0
  -5  -2 -11    3.44    1.93   0
  -5  -2 -10  295.17    3.16   0
  -5  -2  -9   45.65    1.53   0
  -4  -9  -8   -3.54    1.41   0
  -4  -7  -7   18.62    1.78   0
  -4  -5  -6  249.94    2.68   0
  -4  -4  -6    7.57    1.61   0
  -4  -2  -6   88.04    2.26   0
  -4  -1  -6  216.49    2.68   0
  -4   0  -7  313.34    3.28   0
  -3 -10  -7   41.72    1.78   0
  -3  -7  -5  116.41    2.18   0
  -3  -4  -4 1589.49    6.83   0
  -3  -1  -4 1765.19    7.75   0
  -3   2  -9  110.32    2.76   0
  -3   2  -8  133.00    2.79   0
  -3   2  -7   80.53    2.11   0
  -2  -9  -5   13.95    1.70   0
  -2   2  -4  496.58    5.69   0
  -2   3  -9  103.98    4.37   0
  -2   3  -6    2.94    1.48   0
  -1  -8  -3   92.51    2.45   0
  -1  -6  -2  557.55    5.33   0
  -1  -2  -1  184.99    3.95   0
  -1  -1  -1 1131.20    9.85   0
  -1   4  -7   27.25    2.51   0
  -1   4  -6   29.71    2.38   0
   0  -8  -2   64.92    2.42   0
   1  -8  -1    0.45    1.73   0
   1   4  -1 3307.25   16.79   0
   2   3   1 1571.83    8.69   0
   2   5  -1  375.85    4.80   0
   3   4   1  225.77    3.16   0
   3   5   0   69.54    2.33   0
   4   2   3  240.72    3.10   0
   4   5   1  832.11    5.45   0
   4   6  -1  105.92    2.70   0
   5  -5   3  625.67    5.65   0
   5   3   3  467.82    3.74   0
   5   6   0  419.89    4.14   0
   6  -6   3  632.71    5.62   0
   6  -3   4  588.61    4.55   0
   6   1   4   66.49    1.73   0
   6   2   4   46.37    1.95   0
   6   4   3   66.66    2.11   0
   6   5   2   40.39    2.00   0
   6   6   0   49.79    1.88   0
   7  -7   3   41.40    2.48   0
   7  -4   4   -0.06    1.24   0
   7   4   3   95.05    1.90   0
   7   5   2   -1.97    1.34   0
   8  -5   4   67.44    2.07   0
   8   3   4  198.58    2.35   0
   8   4   3  248.46    2.68   0
   8   5   2    0.50    1.48   0
   9  -2   5    8.86    1.75   0
   9  -1   5   70.97    1.83   0
   9   0   5   -0.57    1.21   0
   9   3   4    1.53    1.38   0
   9   4   3    2.98    1.52   0
  10  -1   5  173.02    2.53   0
  10   0   5  118.90    2.52   0
  -5  -7 -11    1.26    1.82   0
  -5  -7 -10    3.05    1.40   0
  -5  -6 -10  115.66    2.01   0
  -5  -5 -10   39.96    1.93   0
  -5  -5  -9  304.13    2.75   0
  -5  -4 -10  172.39    2.48   0
  -5  -4  -9  122.77    1.99   0
  -5  -3 -11   32.10    1.61   0
  -5  -3 -10   91.25    1.88   0
  -4  -9  -9    1.79    1.44   0
  -4  -8  -8   13.91    1.32   0
  -4  -6  -7   29.71    1.67   0
  -4  -3  -6   55.93    1.63   0
  -4  -1  -7    7.22    1.18   0
  -4   0 -10   13.78    1.45   0
  -4   0  -9  536.64    4.15   0
  -4   0  -8 1635.86    7.11   0
  -3 -10  -8   14.44    2.09   0
  -3  -9  -7  483.27    4.08   0
  -3  -8  -6  582.65    4.19   0
  -3  -6  -5  395.61    3.43   0
  -3  -3  -4 4088.78   10.85   0
  -3  -2  -4 4396.18   11.44   0
  -3   1  -6    0.36    1.46   0
  -2 -10  -6   39.12    1.63   0
  -2  -7  -4  146.89    2.64   0
  -2  -5  -3 1018.33    6.01   0
  -2   3  -8  289.46    4.33   0
  -2   3  -7   56.33    2.21   0
  -1  -9  -4   83.59    2.43   0
   0  -6  -1   78.94    2.70   0
   1   3   0  691.94    7.32   0
   2  -1   2 1105.54    8.54   0
   2   0   2 5616.59   17.68   0
   3  -5   2  239.15    5.18   0
   3   3   2   55.23    1.81   0
   3   6  -2  314.59    4.29   0
   4  -4   3    2.01    1.53   0
   4   4   2 3044.98    9.56   0
   5  -2   4 4077.52   11.87   0
   5  -1   4  133.41    2.35   0
   5   0   4  549.79    4.07   0
   5   1   4   78.02    2.13   0
   5   5   2 1836.73    7.37   0
   6  -4   4 1635.33    8.25   0
   6   3   4  256.99    2.91   0
   6   6   1  731.18    5.08   0
   7  -5   4  175.22    2.86   0
   7  -1   5  149.41    2.56   0
   7   0   5  140.97    2.35   0
   7   3   4  558.31    3.77   0
   7   5   3    9.44    1.73   0
   7   6   1   19.04    1.61   0
   8  -3   5   24.78    1.70   0
   8  -2   5   18.00    1.48   0
   8  -1   5   41.84    1.55   0
   8   0   5   13.20    1.17   0
   8   1   5  295.30    2.83   0
   8   2   5  840.16    4.61   0
   8   4   4   80.33    2.17   0
   8   5   3   43.07    2.05   0
   9  -3   5   99.09    2.09   0
   9   1   5    1.74    1.20   0
   9   2   5   96.04    1.90   0
   9   4   4   24.03    2.16   0
  10   1   5  545.23    3.74   0
  10   2   5   50.74    1.84   0
  -5  -6 -11  110.14    2.09   0
  -5  -5 -11  133.99    2.21   0
  -5  -4 -11  139.48    2.25   0
  -4  -9 -10    1.44    1.60   0
  -4  -8  -9   59.40    1.71   0
  -4  -7  -8   15.58    1.31   0
  -4  -5  -7   54.93    1.60   0
  -4  -4  -7  141.24    2.06   0
  -4  -3  -7  484.94    3.57   0
  -4  -2  -7  283.98    2.92   0
  -4  -1 -11   75.06    2.28   0
  -4  -1 -10   18.46    1.87   0
  -4  -1  -9  611.07    4.36   0
  -4  -1  -8 1025.67    5.39   0
  -3  -7  -6 1043.16    5.51   0
  -3  -5  -5  629.69    4.46   0
  -3   0  -5    4.92    1.16   0
  -2  -4  -3  125.85    2.64   0
  -2   0  -3    1.67    1.35   0
  -1 -11  -6   94.76    2.29   0
  -1 -10  -5   34.82    1.72   0
   0  -9  -3   75.05    2.42   0
   2  -9  -1   54.63    3.12   0
   2  -2   2 1224.82    9.88   0
   2   1   2  815.33    6.69   0
   2   6  -4   30.82    2.82   0
   3   0   3 2640.92   10.39   0
   3   6  -1  308.83    4.20   0
   4   3   3  292.00    3.02   0
   4   6   0    8.47    1.33   0
   5  -3   4  766.53    5.60   0
   5   2   4   17.72    1.31   0
   5   4   3 2511.16    8.11   0
   5   6   1    9.07    1.28   0
   6   5   3  753.36    4.52   0
   7  -2   5    2.89    1.17   0
   7   1   5  320.14    2.93   0
   7   2   5    5.03    1.20   0
   7   4   4  109.03    1.91   0
   7   6   2  425.65    3.66   0
   8  -6   4  101.50    2.43   0
   8  -4   5   35.02    1.90   0
   8   3   5  219.26    2.74   0
   9  -4   5  103.35    2.34   0
   9   3   5    1.54    1.28   0
  10   0   6  211.83    2.86   0
  -4  -8 -10   32.94    1.63   0
  -4  -7  -9   38.84    1.50   0
  -4  -6  -8   92.83    1.78   0
  -4  -5  -8    2.64    1.15   0
  -4  -4  -8  169.23    2.43   0
  -4  -3  -8    3.15    1.42   0
  -4  -2 -11    0.26    1.74   0
  -4  -2 -10   94.79    2.29   0
  -4  -2  -9  423.68    3.73   0
  -4  -2  -8  437.19    3.47   0
  -3 -10  -9  133.31    2.33   0
  -3  -9  -8   68.38    1.86   0
  -3  -8  -7  244.86    2.79   0
  -3  -6  -6  123.77    2.42   0
  -3  -4  -5 1024.51    5.33   0
  -3  -3  -5 2490.40    8.37   0
  -3  -2  -5 1474.66    6.69   0
  -3  -1  -5  436.64    3.84   0
  -3   0  -6   76.31    2.19   0
  -3   1  -9   70.30    1.91   0
  -3   1  -8  279.65    3.33   0
  -3   1  -7  148.33    2.47   0
  -2 -10  -7   22.30    1.59   0
  -2  -9  -6   34.60    1.65   0
  -2  -8  -5    0.25    1.18   0
  -2  -6  -4  263.74    3.24   0
  -2  -3  -3    1.04    1.94   0
  -2  -1  -3 1546.35    8.33   0
  -2   2  -5  766.09    6.46   0
  -1  -7  -3  377.43    3.93   0
  -1  -5  -2  357.71    4.15   0
   0 -11  -5  621.97    5.54   0
   0 -10  -4  182.26    3.37   0
   0  -2   0    8.09    2.82   0
   1  -9  -2   -0.11    1.59   0
   1   1   1 1138.67    9.87   0
   2   6  -3  218.61    5.03   0
   3 -10  -1   31.66    3.02   0
   3  -1   3 1540.96    8.29   0
   3   1   3 1588.88    7.64   0
   3   4   2   18.06    1.69   0
   3   5   1  105.66    2.58   0
   4   5   2  269.68    3.11   0
   5  -6   3  274.45    4.65   0
   5   3   4  288.83    2.95   0
   5   7  -1  106.56    2.95   0
   6  -7   3  504.50    6.33   0
   6  -5   4 1119.30    7.58   0
   6  -1   5 1117.72    5.71   0
   6   0   5   82.05    1.93   0
   6   1   5  261.55    2.81   0
   6   4   4  106.33    1.99   0
   6   6   2  159.88    2.38   0
   7  -6   4  125.91    3.05   0
   7  -3   5  145.09    2.40   0
   7   3   5  167.21    2.32   0
   7   5   4    0.02    1.61   0
   7   6   3   29.05    2.01   0
   8   0   6  123.20    2.23   0
   8   4   5  114.18    2.31   0
   8   5   4   30.34    1.54   0
   8   6   3    9.46    1.61   0
   9  -2   6   86.81    2.46   0
   9  -1   6   33.51    1.60   0
   9   0   6  201.86    2.56   0
   9   1   6   71.64    1.87   0
   9   2   6    8.48    1.75   0
   9   4   5   -0.23    1.47   0
   9   5   4   95.15    2.13   0
  10   1   6  246.90    2.71   0
  10   2   6    2.34    1.62   0
  -4  -7 -11  205.78    2.52   0
  -4  -7 -10   23.47    1.51   0
  -4  -6 -11  284.80    3.06   0
  -4  -6 -10  228.12    2.54   0
  -4  -6  -9   58.15    1.57   0
  -4  -5 -11  379.89    3.49   0
  -4  -5 -10 1045.45    5.31   0
  -4  -5  -9    2.87    1.15   0
  -4  -4 -11  251.39    3.06   0
  -4  -4 -10  467.52    3.81   0
  -4  -4  -9  357.84    3.10   0
  -4  -3 -11    2.65    1.36   0
  -4  -3 -10  212.34    2.61   0
  -4  -3  -9  807.06    4.57   0
  -3  -9  -9    9.92    1.39   0
  -3  -8  -8  495.19    3.69   0
  -3  -7  -7  262.47    2.81   0
  -3  -5  -6  417.28    3.56   0
  -3   0 -10  157.86    2.83   0
  -3   0  -7   96.16    2.41   0
  -2 -10  -8  247.97    3.26   0
  -2  -7  -5   99.52    2.38   0
  -2  -2  -3  609.12    4.99   0
  -2   2  -9    0.94    1.69   0
  -1 -11  -7   30.85    1.86   0
  -1  -8  -4  236.22    3.24   0
   1 -11  -4   82.35    2.58   0
   1 -10  -3   -0.29    1.71   0
   1   5  -2  232.85    5.65   0
   2 -11  -3   45.13    2.74   0
   2 -10  -2   53.18    2.69   0
   2   2   2  184.74    3.20   0
   2   4   1  211.32    3.33   0
   2   5   0 1568.04    9.24   0
   3  -2   3 1380.94    8.35   0
   3   2   3 2027.30    8.33   0
   3   6   0  143.79    2.97   0
   4  -1   4  289.02    3.61   0
   4   0   4    0.75    1.17   0
   4   1   4  761.17    4.85   0
   4   4   3    2.61    1.17   0
   4   6   1   92.65    2.17   0
   5  -8   2  121.47    5.03   0
   5  -4   4  379.37    4.49   0
   5   4   4   -3.32    1.53   0
   5   5   3  246.53    2.77   0
   5   6   2   44.49    1.67   0
   5   7   0   18.70    2.04   0
   6  -2   5 2863.12    9.46   0
   6   2   5   51.61    1.57   0
   6   3   5  883.56    4.88   0
   6   5   4   29.67    1.81   0
   6   6   3   16.05    1.72   0
   6   7   1   78.11    2.18   0
   7  -4   5  217.93    3.04   0
   7   4   5 1428.08    5.86   0
   7   7   2    5.44    2.49   0
   8  -5   5  113.14    2.94   0
   8  -2   6    3.09    1.65   0
   8  -1   6  230.32    2.76   0
   8   1   6   15.50    1.28   0
   8   2   6   -1.84    1.15   0
   8   5   5  213.60    2.81   0
   8   6   4   43.83    2.33   0
   9  -3   6  199.17    2.80   0
   9   3   6   64.25    1.73   0
   9   5   5   36.66    1.75   0
  -3  -9 -10    0.61    1.50   0
  -3  -8  -9   56.23    1.74   0
  -3  -7  -8    9.22    1.61   0
  -3  -6  -7  599.61    3.91   0
  -3  -4  -6  869.41    4.86   0
  -3  -3  -6  106.74    2.28   0
  -3  -2  -6    8.43    1.19   0
  -3  -1 -11   16.26    1.64   0
  -3  -1  -6  113.18    2.15   0
  -3   0  -9  206.68    2.80   0
  -3   0  -8  168.65    2.56   0
  -2 -10  -9   65.43    2.43   0
  -2  -9  -7   85.02    2.04   0
  -2  -8  -6   33.55    1.63   0
  -2  -5  -4  328.11    3.34   0
  -2   2  -8  202.21    3.13   0
  -2   2  -7   88.50    2.37   0
  -2   2  -6  119.02    2.50   0
  -1 -10  -6    2.54    1.31   0
  -1  -9  -5  683.80    4.84   0
  -1  -4  -2 1219.89    7.74   0
  -1   3  -4 2089.75   13.56   0
   0  -7  -2  223.62    3.49   0
   0  -5  -1  278.01    4.52   0
   2  -3   2 1991.34   14.92   0
   2   6  -2   81.35    3.03   0
   3   3   3 1346.84    6.71   0
   4  -5   3  426.96    5.92   0
   4  -2   4    0.65    1.53   0
   4   2   4  836.95    4.92   0
   5   0   5 4449.19   11.51   0
   5   1   5  117.04    2.52   0
   5   7   1    4.08    1.89   0
   6  -3   5  350.74    3.68   0
   6   4   5   -2.07    1.58   0
   6   7   2   -0.60    1.86   0
   7  -1   6  238.55    2.76   0
   7   0   6  111.13    2.05   0
   7   1   6   67.38    1.72   0
   7   2   6   -0.44    1.15   0
   7   5   5  252.17    2.89   0
   7   6   4   11.44    1.33   0
   8  -3   6    2.13    1.86   0
   8   3   6   62.14    1.77   0
   8   4   6  480.53    3.71   0
   9   0   7  173.90    2.63   0
   9   1   7    5.96    1.65   0
  -3  -8 -11  100.51    2.16   0
  -3  -8 -10   84.09    2.00   0
  -3  -7 -11   51.49    2.27   0
  -3  -7 -10  194.31    2.66   0
  -3  -7  -9    3.53    1.37   0
  -3  -6  -8   -0.58    1.26   0
  -3  -5  -7   63.94    1.61   0
  -3  -4  -7    0.93    1.59   0
  -3  -3  -7  154.50    2.48   0
  -3  -2 -11    0.37    1.44   0
  -3  -2  -7  154.77    2.54   0
  -3  -1 -10   58.66    1.74   0
  -3  -1  -9  104.79    2.07   0
  -3  -1  -8  342.64    3.25   0
  -3  -1  -7  125.75    2.21   0
  -2  -9  -8   77.76    1.96   0
  -2  -8  -7 1266.31    5.93   0
  -2  -7  -6  337.05    3.44   0
  -2  -6  -5  123.15    2.19   0
  -2  -4  -4  391.53    3.66   0
  -2   0  -4  100.38    2.41   0
  -2   1 -10  286.75    3.65   0
  -1 -10  -7  111.23    2.64   0
  -1  -6  -3  614.37    4.88   0
  -1   3  -8   79.15    2.47   0
   0 -11  -6   10.95    1.62   0
   0 -10  -5  157.06    2.94   0
   0  -9  -4 1246.03    7.05   0
   0  -8  -3  146.67    2.92   0
   1  -7  -1   38.11    2.32   0
   1   2   1  182.99    3.97   0
   2   3   2    0.30    1.31   0
   3  -3   3  801.70    7.27   0
   3   5   2   36.99    1.95   0
   4  -7   2  132.28    5.80   0
   4   3   4 1260.03    5.86   0
   4   5   3  111.23    2.14   0
   4   6   2  285.53    3.21   0
   4   7   0   12.81    1.35   0
   5  -1   5  371.33    3.56   0
   5   2   5  114.45    2.08   0
   5   3   5    1.76    1.47   0
   5   5   4   49.44    1.59   0
   5   6   3  174.12    2.55   0
   6  -6   4  257.30    4.36   0
   6   6   4  124.15    2.10   0
   7  -5   5    3.50    1.85   0
   7  -2   6  307.33    3.31   0
   7   3   6   99.37    1.95   0
   7   4   6   19.98    1.71   0
   7   7   3    1.08    1.49   0
   8   1   7  354.06    3.40   0
   8   5   6  532.66    3.91   0
   8   6   5  122.34    2.15   0
   9  -1   7  379.19    3.51   0
   9   2   7    7.99    1.35   0
   9   3   7   17.52    1.47   0
   9   5   6    1.20    1.44   0
  -3  -6 -11  223.64    2.64   0
  -3  -6 -10   54.16    1.66   0
  -3  -6  -9    0.46    1.16   0
  -3  -5 -11   77.46    1.87   0
  -3  -5 -10   28.37    1.76   0
  -3  -5  -9   31.61    1.43   0
  -3  -5  -8   58.50    1.59   0
  -3  -4 -11   16.72    1.51   0
  -3  -4 -10  402.90    3.48   0
  -3  -4  -9   68.04    2.05   0
  -3  -4  -8   11.91    1.23   0
  -3  -3 -11  121.33    2.13   0
  -3  -3 -10   32.82    1.64   0
  -3  -3  -9  298.82    3.04   0
  -3  -3  -8  427.88    3.40   0
  -3  -2 -10    2.72    1.36   0
  -3  -2  -9  487.04    3.72   0
  -3  -2  -8  508.10    3.77   0
  -2  -9 -10    3.28    1.57   0
  -2  -9  -9  133.50    2.20   0
  -2  -8  -8   15.73    1.91   0
  -2  -5  -5  553.29    4.22   0
  -2  -3  -4 2044.34    8.10   0
  -2  -2  -4 1110.96    6.39   0
  -2  -1  -4 2599.35    9.84   0
  -2   0 -10    1.35    1.95   0
  -2   1  -9  309.65    3.51   0
  -2   1  -8    7.15    1.58   0
  -2   1  -6  415.42    4.15   0
  -1 -10  -8    3.46    2.00   0
  -1  -9  -6    1.64    1.19   0
  -1  -8  -5  188.99    2.65   0
  -1  -7  -4 1253.89    6.44   0
  -1  -3  -2 3508.01   13.02   0
  -1   3  -7   49.65    1.97   0
  -1   3  -6  142.17    3.16   0
  -1   3  -5 3466.45   15.45   0
   0   4  -7   60.75    2.79   0
   1 -11  -5   23.11    1.78   0
   1   4   0  663.64    7.11   0
   2   6  -1  228.38    4.20   0
   3   4   3  205.63    2.96   0
   3   6   1   80.08    2.10   0
   3   7  -2  134.76    3.83   0
   4  -3   4   15.64    1.73   0
   4   4   4  168.69    2.41   0
   4   7   1    1.12    1.56   0
   5  -2   5  134.71    2.40   0
   5   4   5    2.83    1.68   0
   5   7   2   51.76    1.75   0
   6  -4   5  140.12    2.64   0
   6  -1   6  755.66    4.94   0
   6   0   6 5720.49   12.37   0
   6   1   6 1216.34    5.59   0
   6   2   6  251.40    2.67   0
   6   3   6    3.29    1.23   0
   6   5   5    2.01    1.14   0
   6   7   3   17.71    1.36   0
   7  -3   6   83.40    2.43   0
   7   5   6  357.97    3.23   0
   7   6   5   25.80    1.41   0
   7   7   4   -0.97    1.41   0
   8  -4   6   77.12    2.12   0
   8  -1   7  100.55    2.04   0
   8   0   7   95.87    1.95   0
   8   2   7    8.97    1.41   0
   8   3   7   17.09    1.33   0
   9  -2   7  130.43    2.34   0
   9   4   7   33.97    1.62   0
  -2  -8 -10    8.31    1.84   0
  -2  -8  -9   84.50    1.95   0
  -2  -7  -7  174.09    2.42   0
  -2  -6  -6  707.22    4.38   0
  -2  -4  -5 1007.17    5.46   0
  -2   0  -9   53.10    2.16   0
  -2   0  -5  266.19    3.31   0
  -2   1  -7  172.27    2.73   0
  -1 -10  -9   20.77    1.79   0
  -1  -9  -7    8.71    1.69   0
  -1  -5  -3 1327.04    7.01   0
  -1   2  -9  320.70    4.02   0
  -1   2  -3   90.16    3.16   0
   0 -10  -6  123.72    2.47   0
   0  -6  -2 1684.98    8.96   0
   1 -10  -4   62.28    2.12   0
   1  -9  -3  379.71    4.44   0
   1  -8  -2  131.14    2.99   0
   2 -11  -4   10.92    2.30   0
   2  -7   0   97.21    3.85   0
   2   5   1  609.52    5.41   0
   3   7  -3   82.77    3.96   0
   3   7  -1  134.46    3.28   0
   4   6   3 1273.43    6.23   0
   5  -5   4   12.56    1.40   0
   5   6   4  736.19    4.50   0
   5   7   3  525.92    4.28   0
   6  -2   6   35.51    1.79   0
   6   4   6   81.64    1.73   0
   6   6   5   16.12    1.31   0
   6   7   4  241.34    2.78   0
   6   8   2  746.83    5.65   0
   7   0   7  175.73    2.64   0
   7   1   7  250.34    2.75   0
   7   2   7   60.89    1.66   0
   7   3   7   85.82    2.14   0
   7   7   5   -0.37    1.62   0
   8  -2   7  167.40    2.59   0
   8   4   7   -0.36    1.23   0
   8   5   7  133.25    2.40   0
   8   6   6  402.82    3.38   0
   8   7   5   85.49    2.12   0
   9   0   8   66.26    2.28   0
   9   1   8  304.46    3.07   0
   9   2   8   76.38    1.90   0
   9   3   8    6.75    1.93   0
   9   5   7   11.13    1.51   0
  -2  -7 -11   45.06    1.69   0
  -2  -7 -10    1.47    1.41   0
  -2  -7  -9  156.80    2.28   0
  -2  -7  -8  140.43    2.21   0
  -2  -6 -11    0.44    1.73   0
  -2  -6  -7    3.50    1.21   0
  -2  -5  -6   33.64    1.48   0
  -2  -3 -11   37.81    1.98   0
  -2  -3  -5 1857.02    7.29   0
  -2  -2 -11   11.57    1.53   0
  -2  -2  -5  774.61    5.08   0
  -2  -1 -10  238.38    2.87   0
  -2  -1  -9  168.11    2.69   0
  -2  -1  -5 2289.03    8.73   0
  -2   0  -8    3.78    1.14   0
  -2   0  -7  270.27    3.36   0
  -2   0  -6  132.83    2.38   0
  -1  -9  -9   55.74    2.25   0
  -1  -9  -8  116.59    2.19   0
  -1  -8  -6   16.30    1.38   0
  -1  -7  -5   31.49    1.52   0
  -1  -6  -4  135.74    2.40   0
  -1  -1  -2    0.75    1.81   0
  -1   0  -2 3278.13   15.63   0
  -1   2  -8  148.17    2.80   0
   0 -10  -7    4.06    1.94   0
   0  -9  -5   35.09    1.46   0
   0  -8  -4   75.79    2.40   0
   0  -7  -3 2655.81   10.14   0
   0  -4  -1 1598.17   10.59   0
   0   4  -6  798.91    8.05   0
   1  -5   0  678.00    8.68   0
   1   3   1 2109.63   11.57   0
   1   5  -6  454.02    8.49   0
   1   5  -1  593.65    8.00   0
   2 -10  -3   14.96    1.98   0
   2   4   2    1.02    1.32   0
   2   6   0 1155.43    8.45   0
   3   0   4  214.14    3.06   0
   3   1   4 1720.01    7.65   0
   3   2   4 4581.88   11.86   0
   3   5   3  188.72    2.82   0
   3   6   2   57.23    2.19   0
   3   7   0  205.55    3.61   0
   4   0   5  728.65    4.92   0
   4   1   5  156.81    2.35   0
   4   2   5  103.91    1.97   0
   4   3   5  237.15    2.91   0
   4   5   4   16.34    1.23   0
   4   7   2  300.55    3.47   0
   5  -3   5    1.21    1.21   0
   5   1   6  542.62    4.20   0
   5   2   6 3624.95    9.75   0
   5   5   5    0.49    1.10   0
   5   8   1   74.98    2.21   0
   6   5   6  289.91    2.95   0
   6   8   3   72.83    2.47   0
   7  -6   5   29.84    2.18   0
   7  -4   6   11.86    1.53   0
   7  -1   7    6.49    1.28   0
   7   4   7    9.35    1.17   0
   7   6   6  737.84    4.35   0
   8  -3   7   80.88    2.46   0
   8   1   8  107.90    2.39   0
   8   2   8   12.61    1.67   0
   8   3   8   24.69    1.77   0
   8   6   7  392.08    3.56   0
   8   7   6   37.21    1.76   0
   9  -1   8  187.11    2.65   0
   9   4   8    1.44    1.47   0
   9   5   8   15.44    2.04   0
  -2  -6 -10   61.91    1.70   0
  -2  -6  -9   28.88    1.41   0
  -2  -6  -8   30.95    1.55   0
  -2  -5 -11  144.04    2.20   0
  -2  -5 -10   33.82    1.45   0
  -2  -5  -9  170.28    2.50   0
  -2  -5  -8  510.19    3.62   0
  -2  -5  -7  168.94    2.27   0
  -2  -4 -11   33.05    1.62   0
  -2  -4 -10    3.48    1.23   0
  -2  -4  -7  163.55    2.59   0
  -2  -4  -6  103.54    2.10   0
  -2  -3 -10  330.96    3.12   0
  -2  -3  -6  126.01    2.12   0
  -2  -2 -10  111.52    2.01   0
  -2  -2  -9  180.11    2.66   0
  -2  -2  -6 1180.95    6.03   0
  -2  -1  -8   13.54    1.29   0
  -2  -1  -7  359.76    3.62   0
  -2  -1  -6 1297.11    6.36   0
  -1  -8  -8  117.52    2.51   0
  -1  -8  -7   11.32    1.24   0
  -1  -4  -3 2398.34    9.50   0
  -1   0 -10  514.15    4.51   0
  -1   1  -9    6.06    1.40   0
  -1   2  -7    3.85    1.56   0
   0 -10  -8    7.44    1.58   0
   0  -9  -6    4.39    1.77   0
   0   3  -8   34.89    2.23   0
   0   3  -1 1383.54   25.00   0
   0   4  -3   24.49    2.96   0
   1 -10  -5  233.65    3.05   0
   2  -9  -2   98.62    2.77   0
   2  -8  -1  175.93    3.82   0
   2   0   3    0.35    1.44   0
   2   1   3 1559.10    8.25   0
   2   2   3  586.10    4.95   0
   3  -4   3   13.07    1.81   0
   3  -1   4  683.17    5.49   0
   3   3   4 4054.86   10.97   0
   4  -1   5   14.49    1.36   0
   4   4   5  455.82    3.60   0
   4   6   4  162.13    2.57   0
   5  -7   3   72.61    4.18   0
   5   0   6    6.42    1.16   0
   5   3   6  886.68    4.77   0
   5   4   6  162.99    2.52   0
   5   6   5    0.95    1.05   0
   5   7   4  150.41    2.31   0
   5   8   2   97.65    2.26   0
   6  -8   3    9.83    3.02   0
   6  -5   5    0.54    1.19   0
   6  -3   6   49.75    2.09   0
   6   1   7  635.71    4.16   0
   6   2   7 2460.17    7.79   0
   6   3   7  699.41    4.13   0
   6   6   6   41.35    1.47   0
   6   7   5   -1.84    1.24   0
   6   8   4  112.46    2.54   0
   7  -2   7    0.31    1.26   0
   7   5   7  445.79    3.40   0
   7   7   6  247.78    2.79   0
   7   8   5   15.20    2.13   0
   8   0   8  561.39    4.11   0
   8   4   8   12.27    1.31   0
   8   5   8    8.64    1.66   0
  -2  -4  -9  152.57    2.18   0
  -2  -4  -8   15.73    1.34   0
  -2  -3  -9    8.12    1.21   0
  -2  -3  -8  108.80    1.98   0
  -2  -3  -7 1484.54    6.17   0
  -2  -2  -8    8.21    1.23   0
  -2  -2  -7   60.41    1.67   0
  -1  -8 -10  612.63    4.12   0
  -1  -8  -9  342.81    3.18   0
  -1  -7 -10   57.34    2.19   0
  -1  -7  -7   68.84    2.02   0
  -1  -7  -6    9.26    1.24   0
  -1  -6 -11    1.16    2.08   0
  -1  -6  -5  534.71    3.99   0
  -1  -5  -4   50.44    1.65   0
  -1  -3  -3 1669.67    8.23   0
  -1  -1 -10   12.02    1.88   0
  -1   1  -8    4.62    1.62   0
  -1   2  -6   69.06    2.26   0
  -1   2  -5  633.84    5.83   0
  -1   2  -4 3769.11   15.25   0
   0  -9  -7    0.32    1.77   0
   0  -8  -5  117.80    2.46   0
   0   4  -5  141.99    3.70   0
   0   4  -4  190.86    4.96   0
   1 -10  -6   18.38    1.97   0
   1  -9  -4   46.42    1.68   0
   2  -1   3 2750.78   12.72   0
   2   3   3    0.85    1.41   0
   2   5   2  139.64    2.82   0
   3 -10  -2   16.73    1.75   0
   3  -7   1  194.44    6.34   0
   3   4   4 1536.54    6.73   0
   3   7   1    1.06    1.11   0
   4  -4   4   72.68    2.47   0
   4   5   5  159.58    2.47   0
   4   7   3   94.34    2.07   0
   4   8   0   91.18    2.52   0
   4   8   1   63.37    2.35   0
   5  -4   5   49.43    2.16   0
   5  -1   6  438.44    3.86   0
   5   5   6  397.81    3.26   0
   5   8   3  195.89    2.86   0
   6   0   7   93.47    1.98   0
   6   4   7  533.85    3.75   0
   6   5   7   31.24    1.78   0
   7   1   8    0.73    1.13   0
   7   2   8  249.51    2.71   0
   7   3   8  219.12    2.48   0
   7   4   8  103.87    2.32   0
   7   6   7   22.72    1.43   0
   8  -4   7  134.11    3.13   0
   8  -1   8  167.21    2.53   0
   8   6   8   -1.45    1.97   0
   8   7   7  324.77    3.12   0
   9   1   9  163.49    2.55   0
   9   2   9  199.09    2.62   0
   9   3   9  172.70    2.47   0
   9   4   9   83.24    2.03   0
  -1  -7  -9  318.78    3.06   0
  -1  -7  -8  715.03    4.19   0
  -1  -6 -10   23.99    1.45   0
  -1  -6  -6   56.89    1.75   0
  -1  -5 -11   97.16    1.99   0
  -1  -5  -5  353.64    3.53   0
  -1  -4 -11    0.14    1.49   0
  -1  -4  -4  497.83    4.29   0
  -1  -3 -11    3.78    1.55   0
  -1  -2 -10   15.69    1.74   0
  -1   0  -9  132.95    2.32   0
  -1   1  -7  377.19    3.88   0
   0  -9  -9   68.02    1.90   0
   0  -9  -8    0.76    1.31   0
   0  -8  -6   71.66    2.14   0
   0  -7  -4  391.47    3.75   0
   0  -6  -3 2625.65   10.01   0
   0  -5  -2 6444.54   17.16   0
   0   3  -7  358.12    4.49   0
   1 -10  -7  122.49    2.27   0
   1  -8  -3  200.61    2.98   0
   1  -7  -2  678.16    5.83   0
   1  -6  -1   25.73    2.10   0
   1   4  -7  127.59    3.39   0
   1   4   1    0.98    1.77   0
   1   5  -5  297.90    6.03   0
   2 -10  -4   54.57    1.90   0
   2   6   1 2231.79   10.76   0
   3  -9  -1  384.49    5.17   0
   3  -8   0  426.04    6.46   0
   3  -2   4    1.91    1.17   0
   3   5   4  122.94    2.41   0
   3   6   3   21.06    1.37   0
   3   7   2  105.15    2.46   0
   4 -10  -1   11.60    2.07   0
   4  -2   5   75.17    1.98   0
   4   8   2   -1.45    1.63   0
   5  -2   6    2.45    1.39   0
   5   6   6   37.12    1.82   0
   5   7   5   50.14    1.69   0
   5   8   4  583.37    4.58   0
   6  -1   7    1.53    1.07   0
   6   6   7  138.34    2.35   0
   6   7   6   47.86    1.60   0
   6   8   5   22.05    1.52   0
   7  -5   6  102.56    2.66   0
   7  -3   7   43.04    1.72   0
   7   0   8   86.56    1.95   0
   7   5   8    7.86    1.25   0
   7   7   7  204.47    2.60   0
   7   8   6  123.94    2.22   0
   8  -2   8  138.12    2.45   0
   8   1   9  195.80    2.89   0
   8   2   9  181.59    2.53   0
   8   3   9   12.52    1.46   0
   8   4   9   50.48    1.62   0
   8   7   8   32.79    2.33   0
  -1  -6  -9 1210.84    5.28   0
  -1  -6  -8   65.54    1.77   0
  -1  -6  -7   52.95    1.62   0
  -1  -5 -10    6.14    1.30   0
  -1  -5  -9   15.12    1.40   0
  -1  -5  -8  165.45    2.60   0
  -1  -5  -6   31.53    1.82   0
  -1  -4 -10    2.71    1.27   0
  -1  -4  -9    4.45    1.57   0
  -1  -3 -10    3.48    1.30   0
  -1  -3  -9  145.69    2.41   0
  -1  -2  -9   19.12    1.56   0
  -1  -2  -3   62.82    2.12   0
  -1  -1  -9    4.58    1.31   0
  -1  -1  -3 1867.69    9.50   0
  -1   0  -8    5.98    1.20   0
  -1   0  -3 1400.03    8.77   0
  -1   1  -6 1249.26    7.09   0
   0  -8 -10   12.16    1.61   0
   0  -8  -9  566.82    3.96   0
   0  -8  -8    3.09    1.60   0
   0  -8  -7   79.20    1.76   0
   0  -7  -5   25.71    1.82   0
   0   1  -9  112.05    2.35   0
   1  -9  -5    1.91    1.16   0
   1   1   2    0.16    1.95   0
   1   5   0  959.94    8.81   0
   2 -10  -5    2.02    1.84   0
   2  -9  -3    9.11    1.71   0
   2   4   3  116.64    2.37   0
   3   1   5  455.10    4.06   0
   3   2   5 1339.49    6.43   0
   3   3   5 2525.97    8.44   0
   4  -9   0   19.15    2.20   0
   4   1   6  219.89    2.72   0
   4   2   6   86.97    1.86   0
   4   3   6   65.41    1.77   0
   4   4   6    2.46    1.59   0
   4   6   5   63.87    1.73   0
   4   7   4  152.26    2.38   0
   4   8   3   98.80    2.43   0
   5   1   7  717.77    4.50   0
   5   2   7   37.95    1.56   0
   5   3   7  668.79    4.14   0
   5   4   7 1214.21    5.36   0
   6  -7   4   11.11    2.31   0
   6  -4   6   -0.06    1.21   0
   6  -2   7    0.84    1.15   0
   6   2   8   16.71    1.35   0
   6   3   8  198.80    2.50   0
   6   4   8 1213.20    5.65   0
   6   7   7  169.06    2.47   0
   6   8   6   44.57    2.06   0
   7  -1   8  495.47    4.01   0
   7   6   8  138.26    2.08   0
   7   8   7  135.05    2.63   0
   8   0   9   91.82    2.09   0
   8   5   9  115.62    2.06   0
   8   6   9   81.71    2.39   0
  -1  -5  -7 1279.79    5.55   0
  -1  -4  -8 1868.88    6.72   0
  -1  -4  -7   48.69    1.95   0
  -1  -4  -6  241.87    3.04   0
  -1  -4  -5  124.92    2.10   0
  -1  -3  -8  344.59    3.24   0
  -1  -3  -4    0.97    1.22   0
  -1  -2  -8   50.00    1.54   0
  -1  -1  -8  271.16    2.94   0
  -1   0  -7    8.66    1.25   0
  -1   0  -6  735.71    5.14   0
   0  -7 -10  128.69    2.20   0
   0  -7  -9  130.35    2.17   0
   0  -7  -8   60.05    2.06   0
   0  -7  -6    7.02    1.43   0
   0  -6 -10   35.43    1.83   0
   0  -6  -4    7.86    1.75   0
   0  -3  -1 1527.62   10.66   0
   0  -2 -10   15.85    1.97   0
   0  -1 -10    5.84    1.53   0
   0   0  -9   45.14    2.07   0
   0   3  -6  530.09    5.33   0
   1  -9  -9    1.35    1.66   0
   1  -9  -8    8.33    1.53   0
   1  -9  -7   92.14    1.98   0
   1  -9  -6   59.05    1.74   0
   1  -8  -4   52.39    1.66   0
   1   0   2 3447.23   16.23   0
   2 -10  -6  139.65    2.68   0
   2  -2   3  182.17    4.02   0
   2   5   3 1034.63    6.21   0
   2   6   2   83.65    2.40   0
   3 -10  -3  319.19    4.00   0
   3   0   5    4.10    1.59   0
   3   4   5  994.13    5.29   0
   3   6   4  188.01    2.64   0
   3   7   3    0.51    1.60   0
   4  -6   3    5.02    2.63   0
   4  -3   5  712.32    6.22   0
   4   0   6    4.89    1.06   0
   4   5   6  233.72    2.64   0
   4   7   5  181.64    2.70   0
   5  -9   1  418.12    9.28   0
   5  -6   4  219.09    5.46   0
   5   0   7  169.38    2.45   0
   5   5   7  445.48    3.37   0
   5   7   6   -0.88    1.19   0
   5   8   5  436.32    3.70   0
   5   9   3  116.78    2.51   0
   6   0   8   14.94    1.68   0
   6   1   8    9.35    1.14   0
   6   5   8 1690.88    6.30   0
   6   6   8  675.60    4.38   0
   6   9   5   18.73    1.73   0
   7  -4   7   38.74    2.30   0
   7  -2   8   18.63    1.89   0
   7   1   9  447.39    3.75   0
   7   2   9    1.82    1.27   0
   7   3   9   16.84    1.34   0
   7   4   9  122.09    2.10   0
   7   5   9  148.61    2.21   0
   7   7   8   96.15    1.98   0
   8  -1   9  212.91    2.90   0
  -1  -3  -7 1974.24    7.15   0
  -1  -3  -6 3849.16   10.13   0
  -1  -3  -5  651.10    4.45   0
  -1  -2  -7 3197.58    9.26   0
  -1  -2  -6  582.45    4.33   0
  -1  -2  -5  919.29    5.38   0
  -1  -2  -4    7.44    1.40   0
  -1  -1  -7  902.58    5.08   0
  -1  -1  -6 2396.37    8.62   0
  -1  -1  -5 3022.28   10.12   0
  -1  -1  -4 2579.32   10.03   0
  -1   0  -5  447.83    4.21   0
  -1   0  -4 1456.29    7.92   0
   0  -7  -7   -0.90    1.29   0
   0  -6  -9   71.39    1.73   0
   0  -6  -5   22.37    1.73   0
   0  -5 -10   66.08    1.73   0
   0  -5  -3 2876.74   10.23   0
   0  -4 -10   78.90    1.89   0
   0  -4  -2 9323.23   21.01   0
   0  -3 -10  194.17    2.50   0
   0  -1  -9  315.20    3.32   0
   0   1  -8  266.61    3.17   0
   1  -8  -9   56.73    1.88   0
   1  -8  -5    1.04    1.20   0
   1  -7 -10   33.74    2.31   0
   1  -7  -3  350.31    3.86   0
   1   3   2 3433.99   12.95   0
   1   4  -6  408.70    5.17   0
   2 -10  -7  219.62    2.94   0
   2  -9  -4    0.84    1.25   0
   2  -8  -2   42.66    1.84   0
   2   1   4 2603.16    9.96   0
   2   2   4 1096.84    6.25   0
   2   3   4 1975.99    8.04   0
   2   7  -1  104.79    3.97   0
   2   7   0   77.56    2.74   0
   3 -10  -4    3.26    1.92   0
   3  -9  -2   75.00    2.63   0
   3   5   5  618.14    4.23   0
   3   8   0    1.59    1.75   0
   3   8   1   38.61    2.12   0
   4 -10  -2  107.08    3.08   0
   4  -8   1   19.34    2.32   0
   4  -1   6   41.78    1.95   0
   4   6   6  194.96    2.48   0
   4   8   4  543.51    4.34   0
   5  -3   6   65.23    1.98   0
   5  -1   7  210.44    2.99   0
   5   6   7   32.03    1.49   0
   5   8   6    6.89    1.77   0
   5   9   4  165.06    2.76   0
   6  -6   5    2.41    1.95   0
   6  -3   7   20.13    1.92   0
   6   7   8   75.92    2.22   0
   6   8   7   40.06    1.59   0
   6   9   6   19.33    1.62   0
   7   0   9  212.49    3.02   0
   7   6   9   78.54    1.95   0
   7   8   8   -1.40    1.55   0
   8   1  10  215.95    3.08   0
   8   2  10  153.61    2.35   0
   8   3  10  167.53    2.42   0
   8   4  10   86.67    1.98   0
   8   5  10  192.29    2.53   0
   0  -6  -8 1460.52    5.83   0
   0  -6  -7   22.29    1.34   0
   0  -6  -6   -0.02    1.21   0
   0  -5  -9    2.21    1.32   0
   0  -5  -8   43.47    1.89   0
   0  -5  -4   68.83    2.14   0
   0  -4  -9   -1.88    1.26   0
   0  -3  -9  548.18    3.86   0
   0  -2  -9  245.02    2.72   0
   0   0  -8  113.70    2.13   0
   0   1  -7  308.31    3.59   0
   0   3  -5  384.58    4.70   0
   1  -8  -8    1.98    1.36   0
   1  -8  -7  158.38    2.32   0
   1  -8  -6   90.33    1.86   0
   1  -7  -9    0.55    1.37   0
   1  -6 -10  205.08    2.48   0
   1  -6  -2  680.70    5.68   0
   1  -5 -10  160.38    2.67   0
   1  -2 -10    9.47    2.25   0
   1   3  -7  684.04    5.80   0
   1   4   2 1196.39    7.68   0
   1   5  -4   26.18    2.23   0
   1   5   1 2141.91   11.33   0
   2  -9  -8   32.17    1.75   0
   2  -9  -7  111.15    2.48   0
   2  -9  -6  155.83    2.72   0
   2  -9  -5   28.37    1.46   0
   2  -7  -1  304.43    4.46   0
   2   0   4  105.99    2.85   0
   2   4   4  392.90    3.70   0
   2   6   3   72.55    2.25   0
   2   7   1  919.29    7.33   0
   3 -10  -5   12.98    1.94   0
   3  -3   4  344.79    4.86   0
   3  -1   5  170.33    2.91   0
   3   6   5  396.16    3.67   0
   3   7   4  117.23    2.23   0
   3   8  -1  108.90    4.16   0
   3   8   2  104.41    2.69   0
   4  -7   2  136.02    5.97   0
   4   2   7  274.95    2.89   0
   4   3   7  500.23    3.64   0
   4   4   7  134.05    2.08   0
   4   7   6  108.75    2.37   0
   4   8   5   16.32    1.85   0
   4   9   1   28.12    2.42   0
   4   9   2   26.29    2.21   0
   5  -5   5  408.04    6.01   0
   5   2   8    4.03    1.08   0
   5   3   8  197.22    2.41   0
   5   4   8    1.84    1.25   0
   5   5   8  470.81    3.52   0
   5   7   7   82.13    1.74   0
   5   9   5  256.37    3.09   0
   6  -1   8   15.01    1.42   0
   6   2   9    7.22    1.61   0
   6   3   9    3.51    1.16   0
   6   4   9   -2.01    1.23   0
   6   5   9  428.12    3.44   0
   6   9   7   75.12    2.23   0
   7  -3   8   -0.38    1.97   0
   7  -1   9   -1.50    1.69   0
   7   3  10   58.75    2.07   0
   7   4  10   78.42    2.26   0
   7   5  10   37.30    1.96   0
   7   7   9   27.50    1.63   0
   0  -5  -7  306.05    2.94   0
   0  -5  -6  429.35    3.50   0
   0  -5  -5  232.33    2.74   0
   0  -4  -8   12.24    1.31   0
   0  -4  -3  354.18    3.94   0
   0  -3  -8   12.30    1.23   0
   0  -2  -8  218.24    2.66   0
   0  -1  -8  903.70    5.08   0
   0   2   0   10.34    2.88   0
   0   3  -4 3463.40   15.07   0
   1  -7  -8   11.04    1.34   0
   1  -7  -7   69.08    1.99   0
   1  -7  -6  523.74    4.09   0
   1  -7  -5   -0.85    1.66   0
   1  -7  -4    7.58    1.10   0
   1  -6  -9   25.35    1.44   0
   1  -5  -1  304.07    4.52   0
   1  -4 -10  282.84    2.87   0
   1  -3 -10  136.06    2.25   0
   1  -1   2 4030.75   20.10   0
   1   0  -9    2.09    1.47   0
   2  -8  -3   -0.85    1.10   0
   2  -6   0  480.71    6.21   0
   2   5   4  317.08    3.31   0
   2   6  -4   25.98    2.79   0
   2   7   2  336.74    4.21   0
   3  -9  -3   28.03    1.96   0
   3  -8  -1  263.51    4.32   0
   3   2   6    7.47    1.18   0
   3   3   6  109.26    2.00   0
   3   4   6  859.56    4.82   0
   3   8   3   18.00    1.84   0
   4 -10  -3   47.53    2.21   0
   4  -5   4  253.69    5.91   0
   4  -2   6   61.42    2.19   0
   4   1   7    5.45    1.25   0
   4   5   7   51.03    1.55   0
   4   6   7   27.97    1.65   0
   4   9   3    9.00    1.41   0
   4   9   4   91.97    2.49   0
   5  -8   2  119.22    5.22   0
   5  -2   7    3.70    1.55   0
   5   1   8   17.75    1.39   0
   5   6   8  262.11    2.67   0
   5   8   7   41.53    1.56   0
   5   9   6   18.42    1.99   0
   6  -5   6    1.57    1.81   0
   6  -2   8    2.57    1.55   0
   6   1   9   46.31    1.66   0
   6   6   9  562.37    3.85   0
   6   7   9  928.11    5.10   0
   6   8   8   91.11    1.97   0
   7   1  10   35.51    2.13   0
   7   2  10   42.50    1.70   0
   7   6  10   16.20    1.53   0
   7   7  10   64.55    2.77   0
   0  -4  -7 2141.51    7.15   0
   0  -4  -6   -0.08    1.48   0
   0  -4  -4   55.95    2.07   0
   0  -3  -7  389.84    3.31   0
   0  -3  -2 1619.17    9.07   0
   0  -2  -7  275.23    3.03   0
   0  -1  -7  405.39    3.61   0
   0   0  -7   12.58    1.22   0
   0   1  -6 1637.23    7.80   0
   1  -6  -8    3.92    1.30   0
   1  -6  -3   62.51    2.19   0
   1  -5  -9  141.53    2.20   0
   1  -4  -9  149.74    2.17   0
   1  -4   0   15.17    1.70   0
   1  -3  -9  373.32    3.39   0
   1  -2  -9 1197.03    5.84   0
   1  -1  -9  295.29    3.19   0
   1   1  -8  132.38    2.48   0
   1   2   3   69.42    2.75   0
   1   4  -5  706.90    6.75   0
   2  -8  -8    1.55    1.46   0
   2  -8  -7   47.14    1.67   0
   2  -8  -6  130.36    2.68   0
   2  -8  -5   76.39    2.16   0
   2  -8  -4   56.97    1.71   0
   2  -7  -9    0.92    1.47   0
   2  -5   1   88.42    4.00   0
   2  -1   4 2097.87   10.27   0
   2   6   4  248.62    3.18   0
   3  -9  -7   48.85    2.29   0
   3  -9  -4   16.84    1.74   0
   3   1   6  118.69    2.20   0
   3   5   6  413.30    3.38   0
   3   6   6  120.96    2.32   0
   3   7   5  112.75    2.10   0
   3   8   4   46.27    1.94   0
   4 -10  -4   29.49    1.85   0
   4  -9  -1   68.74    2.34   0
   4   0   7  310.95    3.25   0
   4   7   7   17.39    1.74   0
   4   8   6  320.03    3.19   0
   4   9   5  171.99    2.80   0
   5  -4   6    2.57    1.61   0
   5   0   8  261.33    2.95   0
   5   4   9  125.71    2.28   0
   5   7   8  727.20    4.34   0
   5   9   7    0.00    1.68   0
   6   0   9  152.20    2.42   0
   6   4  10    5.77    1.76   0
   6   5  10    1.66    1.59   0
   6   8   9   68.97    2.56   0
   6   9   8   27.72    1.82   0
   7  -2   9   54.07    2.36   0
   0  -4  -5    1.00    1.10   0
   0  -3  -6  402.74    3.46   0
   0  -2  -6 1507.77    6.64   0
   0   0  -6  162.58    2.55   0
   0   3  -3    7.26    1.64   0
   1  -6  -7   50.80    1.67   0
   1  -6  -6  228.24    2.66   0
   1  -6  -5  458.36    3.90   0
   1  -6  -4  582.40    4.24   0
   1  -5  -8   19.19    1.26   0
   1  -4  -8   33.99    1.71   0
   1  -1  -8  699.33    4.51   0
   1   0  -8  784.30    4.91   0
   1   1   3 1825.79    9.38   0
   1   3  -6  821.63    6.09   0
   1   3   3 1588.44    8.03   0
   1   4   3 2302.35    9.52   0
   1   5   2  344.32    4.15   0
   1   6   0 1370.93   11.40   0
   2  -7  -8  152.50    2.23   0
   2  -7  -2    1.35    1.18   0
   2  -6  -9    3.66    1.40   0
   2  -5  -9  104.96    2.39   0
   2  -1  -9   40.89    2.32   0
   2   2   5  756.15    4.89   0
   2   3  -7    0.78    1.54   0
   2   3   5 1861.94    7.33   0
   2   4  -6   51.92    2.43   0
   2   4   5  918.38    5.12   0
   2   5  -5  290.04    4.86   0
   2   5   5  494.17    4.02   0
   2   7   3   55.96    1.81   0
   3  -9  -6   39.69    1.70   0
   3  -9  -5   16.24    1.44   0
   3  -8  -8   57.78    1.93   0
   3  -2   5    0.00    1.10   0
   3   0   6   68.67    1.86   0
   4  -4   5    1.43    1.52   0
   4   2   8  438.72    3.73   0
   4   3   8    2.54    1.18   0
   4   4   8  149.54    2.08   0
   4   5   8    3.54    1.10   0
   4   6   8   85.97    2.14   0
   4   8   7   60.94    1.90   0
   5  -1   8  351.88    3.77   0
   5   2   9   45.51    1.48   0
   5   3   9   48.68    1.55   0
   5   5   9  297.10    2.81   0
   5   6   9  109.55    2.03   0
   5   7   9  133.73    2.41   0
   5   8   8  160.23    2.42   0
   6  -8   3   12.60    3.39   0
   6  -4   7    5.76    1.38   0
   6  -1   9   91.75    2.35   0
   6   2  10    0.08    1.39   0
   6   3  10   63.27    1.77   0
   6   6  10    1.59    1.35   0
   6   7  10   54.49    2.26   0
   7   0  10  170.40    2.73   0
   7   3  11   40.26    1.83   0
   7   4  11   70.78    1.93   0
   7   5  11  139.81    2.34   0
   0  -3  -5    3.57    1.09   0
   0  -3  -4  105.61    2.16   0
   0  -3  -3  702.84    5.33   0
   0  -2  -5  312.15    3.37   0
   0  -1  -6 1056.34    5.54   0
   0   1  -5 2928.06   10.68   0
   0   2  -4   51.68    2.23   0
   1  -5  -7   87.57    1.85   0
   1  -5  -6   11.17    1.66   0
   1  -5  -2 1281.19    7.42   0
   1  -4  -7   24.50    1.65   0
   1  -3  -8  574.76    3.83   0
   1  -2  -8  249.69    2.73   0
   1   1  -7  485.32    4.05   0
   1   5  -3   15.35    2.17   0
   1   6   1    5.18    1.54   0
   2  -7  -7   40.50    1.57   0
   2  -7  -6   78.91    1.88   0
   2  -7  -5  542.26    4.19   0
   2  -7  -4    4.09    1.59   0
   2  -7  -3   12.92    1.22   0
   2  -6  -8   25.19    1.45   0
   2  -3  -9   81.70    1.90   0
   2  -2  -9   -0.51    1.49   0
   2   1  -8    0.26    1.51   0
   2   1   5 2235.77    8.66   0
   2   6   5  118.51    2.45   0
   2   7   4  138.28    2.64   0
   3  -8  -7    2.86    1.41   0
   3  -8  -6   21.24    1.93   0
   3  -8  -2  843.21    6.02   0
   3  -7  -8   64.55    2.32   0
   3  -7   0  852.91    7.50   0
   3   2   7  156.06    2.46   0
   3   3   7  152.74    2.23   0
   3   4   7    1.14    1.12   0
   3   5   7   58.75    1.64   0
   3   7   6  979.26    5.15   0
   3   8   5  257.44    2.96   0
   3   9   2    0.96    1.79   0
   3   9   3  197.97    3.31   0
   4  -9  -6   -0.08    2.20   0
   4  -9  -3  140.28    2.81   0
   4  -9  -2   67.99    2.09   0
   4  -8   0   30.33    2.25   0
   4  -1   7  718.61    5.12   0
   4   1   8 1072.73    5.68   0
   4   7   8   14.58    1.30   0
   4   9   6  149.09    2.50   0
   4  10   3   10.59    2.32   0
   4  10   4   99.22    2.70   0
   5  -9   0   -0.15    1.49   0
   5  -3   7   83.29    2.53   0
   5   1   9  194.09    2.58   0
   5   8   9   78.45    2.24   0
   5   9   8    5.67    1.44   0
   6  -3   8   16.20    2.02   0
   6   1  10  135.79    2.32   0
   6   8  10   26.29    1.77   0
   7   2  11  144.46    2.42   0
   0  -2  -4  270.10    3.24   0
   0  -2  -3   56.04    2.53   0
   0  -2  -2 4582.71   15.73   0
   0  -1  -5  944.10    5.53   0
   0   0  -5 1069.71    6.17   0
   0   3  -2  583.34    9.83   0
   0   3   0 1263.43   13.51   0
   1  -5  -5 1498.64    6.35   0
   1  -5  -4   22.33    1.77   0
   1  -5  -3  914.12    5.65   0
   1  -4  -6   44.68    1.82   0
   1  -3  -7  178.73    2.30   0
   1  -2  -7    4.01    1.35   0
   1  -1  -7  827.20    4.76   0
   1   0  -7  120.87    2.12   0
   1   0   3 1476.90    9.09   0
   1   3  -5  173.09    3.16   0
   1   5   3 1279.48    6.96   0
   1   6   2  544.63    5.26   0
   2  -6  -7    0.83    1.16   0
   2  -6  -1   92.25    2.65   0
   2  -5  -8  154.05    2.12   0
   2  -4  -8   52.45    1.68   0
   2  -3  -8   39.70    1.92   0
   2  -3   3  161.55    4.63   0
   2  -1  -8   94.23    2.35   0
   2   0  -8    2.04    1.36   0
   2   0   5  264.82    3.33   0
   2   3   6  124.68    2.39   0
   2   4   6  108.75    2.30   0
   2   8   1  186.45    3.89   0
   2   8   2  254.63    3.88   0
   3  -8  -5  125.09    2.19   0
   3  -8  -4   63.44    1.78   0
   3  -8  -3   47.05    1.67   0
   3  -7  -7  133.45    2.41   0
   3  -6  -8  133.89    2.33   0
   3  -1   6    0.80    1.00   0
   3   1   7  129.82    2.53   0
   3   6   7  592.12    3.91   0
   3   7   7  273.09    3.14   0
   3   8   6  530.48    4.05   0
   3   9   1   55.38    2.66   0
   3   9   4    3.22    1.32   0
   4  -9  -5   20.74    1.58   0
   4  -9  -4   31.79    1.62   0
   4  -8  -7   30.24    2.14   0
   4  -3   6  315.20    4.21   0
   4   4   9  365.03    3.35   0
   4   5   9    5.48    1.60   0
   4   8   8   12.60    1.38   0
   4   9   7   79.65    1.92   0
   4  10   5   55.35    1.93   0
   5   0   9  423.61    4.05   0
   5   3  10   96.69    2.23   0
   5   4  10  172.39    2.39   0
   5   5  10   38.74    1.44   0
   5   6  10  119.83    2.10   0
   5   7  10   -0.06    1.90   0
   5   9   9  512.22    4.08   0
   6   0  10   94.61    2.47   0
   6   3  11   93.82    2.46   0
   6   4  11   17.96    1.58   0
   6   5  11    2.57    1.59   0
   6   6  11    3.49    1.48   0
   0  -1  -4   77.42    2.01   0
   0  -1  -1 6139.42   25.18   0
   0   0  -4  420.10    4.22   0
   1   1  -6  802.33    5.15   0
   1   2   4   10.40    1.50   0
   1   3   4    0.90    1.26   0
   1   4  -4    4.55    1.14   0
   1   4   4  485.53    4.08   0
   2  -6  -6  645.38    4.11   0
   2  -5  -7  170.72    2.30   0
   2  -2  -8  152.29    2.15   0
   2   1  -7  240.54    2.92   0
   2   2   6 1093.29    5.65   0
   2   5   6   33.69    1.45   0
   2   7   5   86.41    1.94   0
   2   8   3   11.79    1.37   0
   3  -7  -6   29.58    1.56   0
   3  -5  -8   98.59    1.96   0
   3   0  -8    2.86    1.62   0
   3   4   8   14.91    1.23   0
   3   5   8   56.31    1.58   0
   3   9   5   45.60    1.71   0
   4  -8  -6   63.67    1.85   0
   4   0   8 1664.33    7.20   0
   4   3   9  819.38    4.62   0
   4   6   9   61.99    1.60   0
   4   7   9   33.84    1.46   0
   4  10   6    1.20    1.47   0
   5  -9  -1    0.91    1.50   0
   5  -2   8  273.44    3.51   0
   5   2  10  294.54    3.03   0
   5   8  10   61.26    1.90   0
   6  -2   9   98.67    2.44   0
   6   2  11   24.99    1.67   0
;
_shelx_hkl_checksum              24482
loop_
_space_group_symop_operation_xyz
'x, y, z'
'-x, -y, -z'
loop_
_atom_site_label
_atom_site_type_symbol
_atom_site_fract_x
_atom_site_fract_y
_atom_site_fract_z
_atom_site_U_iso_or_equiv
_atom_site_adp_type
_atom_site_occupancy
_atom_site_site_symmetry_order
_atom_site_calc_flag
_atom_site_refinement_flags_posn
_atom_site_refinement_flags_adp
_atom_site_refinement_flags_occupancy
_atom_site_disorder_assembly
_atom_site_disorder_group
Si1 Si 0.90065(4) 0.53394(4) -0.07587(4) 0.02157(10) Uani 1 1 d . . . . .
O1 O 0.67879(11) 0.42483(11) 0.15495(10) 0.02708(19) Uani 1 1 d . . . . .
O2 O 0.86859(11) 0.35772(11) 0.30069(10) 0.02700(19) Uani 1 1 d . . . . .
N1 N 0.54441(13) 0.29138(13) 0.45864(12) 0.0236(2) Uani 1 1 d . . . . .
C1 C 0.70195(15) 0.36016(14) 0.30035(14) 0.0215(2) Uani 1 1 d . . . . .
C2 C 0.55713(17) 0.22434(15) 0.63160(14) 0.0261(2) Uani 1 1 d . . . . .
H2A H 0.5175 0.3073 0.6875 0.031 Uiso 1 1 calc R U . . .
H2B H 0.6924 0.2115 0.6115 0.031 Uiso 1 1 calc R U . . .
C3 C 0.42777(17) 0.05037(15) 0.75761(15) 0.0277(2) Uani 1 1 d . . . . .
H3A H 0.4276 0.0130 0.8775 0.033 Uiso 1 1 calc R U . . .
H3B H 0.4798 -0.0368 0.7104 0.033 Uiso 1 1 calc R U . . .
C4 C 0.22171(17) 0.05973(17) 0.77672(16) 0.0306(3) Uani 1 1 d . . . . .
H4A H 0.1438 -0.0572 0.8511 0.037 Uiso 1 1 calc R U . . .
H4B H 0.1635 0.1351 0.8388 0.037 Uiso 1 1 calc R U . . .
C5 C 0.21768(16) 0.13067(15) 0.59339(15) 0.0266(2) Uani 1 1 d . . . . .
H5A H 0.2602 0.0477 0.5379 0.032 Uiso 1 1 calc R U . . .
H5B H 0.0839 0.1446 0.6084 0.032 Uiso 1 1 calc R U . . .
C6 C 0.34901(15) 0.30409(15) 0.47016(15) 0.0246(2) Uani 1 1 d . . . . .
H6A H 0.3538 0.3425 0.3485 0.030 Uiso 1 1 calc R U . . .
H6B H 0.2960 0.3914 0.5169 0.030 Uiso 1 1 calc R U . . .
C7 C 0.83226(17) 0.38542(15) -0.16055(16) 0.0267(2) Uani 1 1 d . . . . .
H7A H 0.6913 0.3617 -0.1122 0.040 Uiso 1 1 calc R U . . .
H7B H 0.8817 0.2767 -0.1213 0.040 Uiso 1 1 calc R U . . .
H7C H 0.8881 0.4404 -0.2923 0.040 Uiso 1 1 calc R U . . .
C8 C 0.79449(17) 0.73908(15) -0.12462(16) 0.0272(2) Uani 1 1 d . . . . .
H8A H 0.8587 0.8132 -0.2538 0.041 Uiso 1 1 calc R U . . .
H8B H 0.8133 0.7996 -0.0573 0.041 Uiso 1 1 calc R U . . .
H8C H 0.6561 0.7114 -0.0882 0.041 Uiso 1 1 calc R U . . .
loop_
_atom_site_aniso_label
_atom_site_aniso_U_11
_atom_site_aniso_U_22
_atom_site_aniso_U_33
_atom_site_aniso_U_23
_atom_site_aniso_U_13
_atom_site_aniso_U_12
Si1 0.01762(16) 0.02749(17) 0.01796(16) -0.00629(12) -0.00897(12) 0.00165(11)
O1 0.0174(4) 0.0390(5) 0.0163(4) -0.0037(3) -0.0062(3) -0.0014(3)
O2 0.0168(4) 0.0389(5) 0.0166(4) -0.0039(3) -0.0061(3) -0.0010(3)
N1 0.0172(4) 0.0300(5) 0.0158(4) -0.0032(4) -0.0053(3) -0.0019(3)
C1 0.0186(5) 0.0232(5) 0.0174(5) -0.0055(4) -0.0054(4) -0.0006(4)
C2 0.0231(5) 0.0328(6) 0.0162(5) -0.0051(4) -0.0070(4) -0.0023(4)
C3 0.0275(6) 0.0271(5) 0.0186(5) -0.0037(4) -0.0060(4) 0.0019(4)
C4 0.0232(6) 0.0334(6) 0.0200(5) -0.0039(5) -0.0015(4) -0.0051(5)
C5 0.0193(5) 0.0307(6) 0.0238(5) -0.0098(5) -0.0049(4) -0.0029(4)
C6 0.0172(5) 0.0279(5) 0.0220(5) -0.0061(4) -0.0061(4) 0.0010(4)
C7 0.0261(5) 0.0279(5) 0.0255(5) -0.0092(4) -0.0122(5) 0.0032(4)
C8 0.0260(6) 0.0299(6) 0.0258(5) -0.0108(5) -0.0119(5) 0.0040(4)
loop_
_atom_type_symbol
_atom_type_description
_atom_type_scat_dispersion_real
_atom_type_scat_dispersion_imag
_atom_type_scat_source
C C 0.0033 0.0016 'International Tables Vol C Tables 4.2.6.8 and 6.1.1.4'
H H 0.0000 0.0000 'International Tables Vol C Tables 4.2.6.8 and 6.1.1.4'
N N 0.0061 0.0033 'International Tables Vol C Tables 4.2.6.8 and 6.1.1.4'
O O 0.0106 0.0060 'International Tables Vol C Tables 4.2.6.8 and 6.1.1.4'
Si Si 0.0817 0.0704 'International Tables Vol C Tables 4.2.6.8 and 6.1.1.4'
loop_
_geom_angle_atom_site_label_1
_geom_angle_atom_site_label_2
_geom_angle_atom_site_label_3
_geom_angle
_geom_angle_site_symmetry_1
_geom_angle_site_symmetry_3
_geom_angle_publ_flag
C8 Si1 C7 113.43(5) . . ?
C8 Si1 O1 90.09(5) . . ?
C7 Si1 O1 91.37(5) . . ?
C8 Si1 O2 91.16(5) . 2_765 ?
C7 Si1 O2 90.61(5) . 2_765 ?
O1 Si1 O2 177.02(3) . 2_765 ?
C8 Si1 Si1 123.98(4) . 2_765 ?
C7 Si1 Si1 122.59(4) . 2_765 ?
O1 Si1 Si1 88.62(3) . 2_765 ?
O2 Si1 Si1 88.44(3) 2_765 2_765 ?
C1 O1 Si1 120.12(7) . . ?
C1 O2 Si1 120.11(7) . 2_765 ?
C1 N1 C6 121.89(9) . . ?
C1 N1 C2 122.13(9) . . ?
C6 N1 C2 115.27(9) . . ?
O2 C1 O1 122.64(10) . . ?
O2 C1 N1 118.81(10) . . ?
O1 C1 N1 118.55(10) . . ?
N1 C2 C3 110.53(9) . . ?
N1 C2 H2A 109.5 . . ?
C3 C2 H2A 109.5 . . ?
N1 C2 H2B 109.5 . . ?
C3 C2 H2B 109.5 . . ?
H2A C2 H2B 108.1 . . ?
C2 C3 C4 111.38(10) . . ?
C2 C3 H3A 109.4 . . ?
C4 C3 H3A 109.4 . . ?
C2 C3 H3B 109.4 . . ?
C4 C3 H3B 109.4 . . ?
H3A C3 H3B 108.0 . . ?
C5 C4 C3 110.91(9) . . ?
C5 C4 H4A 109.5 . . ?
C3 C4 H4A 109.5 . . ?
C5 C4 H4B 109.5 . . ?
C3 C4 H4B 109.5 . . ?
H4A C4 H4B 108.0 . . ?
C6 C5 C4 110.87(9) . . ?
C6 C5 H5A 109.5 . . ?
C4 C5 H5A 109.5 . . ?
C6 C5 H5B 109.5 . . ?
C4 C5 H5B 109.5 . . ?
H5A C5 H5B 108.1 . . ?
N1 C6 C5 110.80(9) . . ?
N1 C6 H6A 109.5 . . ?
C5 C6 H6A 109.5 . . ?
N1 C6 H6B 109.5 . . ?
C5 C6 H6B 109.5 . . ?
H6A C6 H6B 108.1 . . ?
Si1 C7 H7A 109.5 . . ?
Si1 C7 H7B 109.5 . . ?
H7A C7 H7B 109.5 . . ?
Si1 C7 H7C 109.5 . . ?
H7A C7 H7C 109.5 . . ?
H7B C7 H7C 109.5 . . ?
Si1 C8 H8A 109.5 . . ?
Si1 C8 H8B 109.5 . . ?
H8A C8 H8B 109.5 . . ?
Si1 C8 H8C 109.5 . . ?
H8A C8 H8C 109.5 . . ?
H8B C8 H8C 109.5 . . ?
loop_
_geom_bond_atom_site_label_1
_geom_bond_atom_site_label_2
_geom_bond_distance
_geom_bond_site_symmetry_2
_geom_bond_publ_flag
Si1 C8 1.8781(12) . ?
Si1 C7 1.8796(12) . ?
Si1 O1 1.9380(9) . ?
Si1 O2 1.9435(9) 2_765 ?
Si1 Si1 2.3464(6) 2_765 ?
O1 C1 1.2824(13) . ?
O2 C1 1.2788(13) . ?
O2 Si1 1.9434(9) 2_765 ?
N1 C1 1.3451(14) . ?
N1 C6 1.4644(14) . ?
N1 C2 1.4669(14) . ?
C2 C3 1.5202(16) . ?
C2 H2A 0.9900 . ?
C2 H2B 0.9900 . ?
C3 C4 1.5231(17) . ?
C3 H3A 0.9900 . ?
C3 H3B 0.9900 . ?
C4 C5 1.5212(17) . ?
C4 H4A 0.9900 . ?
C4 H4B 0.9900 . ?
C5 C6 1.5206(15) . ?
C5 H5A 0.9900 . ?
C5 H5B 0.9900 . ?
C6 H6A 0.9900 . ?
C6 H6B 0.9900 . ?
C7 H7A 0.9800 . ?
C7 H7B 0.9800 . ?
C7 H7C 0.9800 . ?
C8 H8A 0.9800 . ?
C8 H8B 0.9800 . ?
C8 H8C 0.9800 . ?
loop_
_geom_torsion_atom_site_label_1
_geom_torsion_atom_site_label_2
_geom_torsion_atom_site_label_3
_geom_torsion_atom_site_label_4
_geom_torsion
_geom_torsion_site_symmetry_1
_geom_torsion_site_symmetry_2
_geom_torsion_site_symmetry_3
_geom_torsion_site_symmetry_4
_geom_torsion_publ_flag
Si1 O2 C1 O1 3.48(15) 2_765 . . . ?
Si1 O2 C1 N1 -176.89(8) 2_765 . . . ?
Si1 O1 C1 O2 -2.91(15) . . . . ?
Si1 O1 C1 N1 177.46(8) . . . . ?
C6 N1 C1 O2 174.04(10) . . . . ?
C2 N1 C1 O2 4.18(17) . . . . ?
C6 N1 C1 O1 -6.31(16) . . . . ?
C2 N1 C1 O1 -176.17(10) . . . . ?
C1 N1 C2 C3 -134.83(11) . . . . ?
C6 N1 C2 C3 54.68(13) . . . . ?
N1 C2 C3 C4 -53.14(13) . . . . ?
C2 C3 C4 C5 54.44(14) . . . . ?
C3 C4 C5 C6 -54.54(14) . . . . ?
C1 N1 C6 C5 134.27(11) . . . . ?
C2 N1 C6 C5 -55.22(13) . . . . ?
C4 C5 C6 N1 53.84(13) . . . . ?
