#------------------------------------------------------------------------------
#$Date: 2023-12-01 18:11:06 +0200 (Fri, 01 Dec 2023) $
#$Revision: 287938 $
#$URL: file:///home/coder/svn-repositories/cod/cif/4/51/90/4519032.cif $
#------------------------------------------------------------------------------
#
# This file is available in the Crystallography Open Database (COD),
# http://www.crystallography.net/
#
# All data on this site have been placed in the public domain by the
# contributors.
#
data_4519032
loop_
_publ_author_name
'Hojamberdiev, Mirabbos'
'Mora-Hernandez, J. Manuel'
'Vargas, Ronald'
'Yamakata, Akira'
'Yubuta, Kunio'
'Heppke, Eva Maria'
'Torres-Mart\'inez, Leticia M.'
'Teshima, Katsuya'
'Lerch, Martin'
_publ_section_title
;
 Time-Retrenched Synthesis of BaTaO2N by Localizing an NH3 Delivery System
 for Visible-Light-Driven Photoelectrochemical Water Oxidation at Neutral
 pH: Solid-State Reaction or Flux Method?
;
_journal_issue                   9
_journal_name_full               'ACS Applied Energy Materials'
_journal_page_first              9315
_journal_page_last               9327
_journal_paper_doi               10.1021/acsaem.1c01539
_journal_volume                  4
_journal_year                    2021
_chemical_compound_source        synthetic
_chemical_formula_iupac          'Ba Ta O2.42 N0.58'
_chemical_formula_structural     'Ba Ta O2.42 N0.58'
_chemical_formula_sum            'Ba N0.58 O2.42 Ta'
_chemical_formula_weight         365.130334
_chemical_name_common            'barium tantalum oxynitride'
_chemical_name_systematic        'barium tantalum dioxide nitride'
_space_group_IT_number           221
_space_group_name_Hall           '-P 4 2 3'
_space_group_name_H-M_alt        'P m -3 m'
_symmetry_cell_setting           cubic
_symmetry_space_group_name_Hall  '-P 4 2 3'
_symmetry_space_group_name_H-M   'P m -3 m'
_atom_sites_solution_primary     other
_atom_sites_solution_secondary   difmap
_cell_angle_alpha                90.0000
_cell_angle_beta                 90.0000
_cell_angle_gamma                90.0000
_cell_formula_units_Z            1
_cell_length_a                   4.11158(6)
_cell_length_b                   4.11158(6)
_cell_length_c                   4.11158(6)
_cell_measurement_temperature    293
_cell_volume                     69.5066(18)
_computing_cell_refinement       'FullProf (Rodr\'iguez-Carvajal, 1993)'
_computing_data_collection       'X'Pert Data Collector (PANalytical, 2008)'
_computing_data_reduction        'X'Pert Data Collector (PANalytical, 2008)'
_computing_molecular_graphics    'Diamond (Brandenburg, 2013)'
_computing_publication_material  'WinPLOTR (Roisnel, 2001)'
_computing_structure_refinement  'FULLPROF (Rodr\'iguez-Carvajal, 1993)'
_computing_structure_solution    'ICSD (Bergerhoff, 1987)'
_diffrn_ambient_temperature      293
_diffrn_detector                 'solid-state RTMS detector'
_diffrn_detector_type            'PANalytical PIXcel'
_diffrn_measurement_device       '\q-\q geometry diffractometer'
_diffrn_measurement_device_type  'PANalytical X'Pert Pro'
_diffrn_measurement_method       'profile data from \q/2\q scans'
_diffrn_radiation_monochromator  none
_diffrn_radiation_probe          x-ray
_diffrn_radiation_type           'Cu K\a'
_diffrn_source                   'sealed X-ray tube'
_diffrn_source_target            Cu
_diffrn_source_type              'Philips PW3373-10'
_exptl_absorpt_coefficient_mu    178.873
_exptl_absorpt_correction_type   refdelf
_exptl_absorpt_process_details
;
roughness/microabsorption correction according to Pitschke, Hermann, and
Mattern (Pitschke et al., 1993):  P~0~ = 0.708(10), C = 1.9224, \t = 0.0101
;
_exptl_crystal_density_diffrn    8.714
_exptl_crystal_density_method    'not measured'
_exptl_crystal_description       powder
_exptl_crystal_F_000             152
_pd_calc_method                  'Rietveld refinement'
_pd_char_colour                  red
_pd_instr_geometry               Bragg-Brentano
_pd_meas_2theta_range_inc        0.026008
_pd_meas_2theta_range_max        119.96713
_pd_meas_2theta_range_min        10.16913
_pd_meas_number_of_points        4224
_pd_meas_scan_method             step
_pd_proc_2theta_range_inc        0.026008
_pd_proc_2theta_range_max        119.9671
_pd_proc_2theta_range_min        10.1691
_pd_proc_ls_background_function
;
linear interpolation between 18 manually defined background points
with refined heights
;
_pd_proc_ls_peak_cutoff          0.005
_pd_proc_ls_profile_function
;
pseudo-Voigt function with U = 0.299(11), V = -0.0146(131), W = 0.0234(4), 
\h~0~ = 0.460(13), X = 0.0031(2),
asymmetry correction (whole profile):
A~S~(z) = 1+[P~1~F~a~(z)+P~2~F~b~(z)]/tanh(\q~h~)
with P~1~ = 0.0127(6), P~2~ = 0.0445(12)
;
_pd_proc_ls_prof_R_factor        0.020239
_pd_proc_ls_prof_wR_expected     0.017972
_pd_proc_ls_prof_wR_factor       0.028232
_pd_proc_number_of_points        4224
_pd_proc_wavelength              1.540560
_pd_spec_mounting                'drifted powder on off-cut Si'
_pd_spec_mount_mode              reflection
_pd_spec_size_axial              10
_pd_spec_size_thick              0.2
_refine_ls_extinction_method     none
_refine_ls_goodness_of_fit_all   1.57
_refine_ls_matrix_type           fullcycle
_refine_ls_number_constraints    1
_refine_ls_number_parameters     32
_refine_ls_number_reflns         44
_refine_ls_number_restraints     0
_refine_ls_R_I_factor            0.014299
_refine_ls_structure_factor_coef Inet
_refine_ls_weighting_scheme      sigma
_refine_ls_wR_factor_all         0.0248
_cod_data_source_file            ae1c01539_si_002.cif
_cod_data_source_block           BaTaO2Nflux
_cod_original_cell_volume        69.5065(16)
_cod_database_code               4519032
_pd_proc_ls_prof_cr_factor       0.092337
_pd_proc_ls_prof_cwr_factor      0.066578
_pd_proc_ls_prof_cwr_expected    0.042384
_pd_proc_ls_prof_chi2            2.4675
_pd_proc_ls_prof_echi2           3.1469
loop_
_symmetry_equiv_pos_as_xyz
x,y,z
x,-y,-z
-x,y,-z
-x,-y,z
y,z,x
-y,-z,x
y,-z,-x
-y,z,-x
z,x,y
-z,x,-y
-z,-x,y
z,-x,-y
y,x,z
-y,x,-z
y,-x,-z
-y,-x,z
z,y,x
-z,-y,x
-z,y,-x
z,-y,-x
x,z,y
x,-z,-y
-x,-z,y
-x,z,-y
-x,-y,-z
-x,y,z
x,-y,z
x,y,-z
-y,-z,-x
y,z,-x
-y,z,x
y,-z,x
-z,-x,-y
z,-x,y
z,x,-y
-z,x,y
-y,-x,-z
y,-x,z
-y,x,z
y,x,-z
-z,-y,-x
z,y,-x
z,-y,x
-z,y,x
-x,-z,-y
-x,z,y
x,z,-y
x,-z,y
loop_
_atom_site_label
_atom_site_fract_x
_atom_site_fract_y
_atom_site_fract_z
_atom_site_U_iso_or_equiv
_atom_site_occupancy
_atom_site_adp_type
_atom_site_type_symbol
_atom_site_constraints
Ba1 0.00000 0.00000 0.00000 0.0030(4) 1.00000 Uiso Ba .
Ta1 0.50000 0.50000 0.50000 0.0047(4) 1.00000 Uiso Ta .
O1 0.50000 0.50000 0.00000 0.01267 0.80032 Uiso O .
N1 0.50000 0.50000 0.00000 0.01267 0.19175 Uiso N U=U(O1)
loop_
_atom_type_symbol
_atom_type_scat_Cromer_Mann_a1
_atom_type_scat_Cromer_Mann_b1
_atom_type_scat_Cromer_Mann_a2
_atom_type_scat_Cromer_Mann_b2
_atom_type_scat_Cromer_Mann_a3
_atom_type_scat_Cromer_Mann_b3
_atom_type_scat_Cromer_Mann_a4
_atom_type_scat_Cromer_Mann_b4
_atom_type_scat_Cromer_Mann_c
_atom_type_scat_dispersion_real
_atom_type_scat_dispersion_imag
_atom_type_scat_source
Ba 20.33610 3.21600 19.29700 0.27560 10.88800 20.20730 2.69590 167.20200 2.77310
-1.33400 8.46000
International_Tables_for_Crystallography_Vol.C(1991)_Tables_6.1.1.4_and_6.1.1.5
Ta 29.20240 1.77333 15.22930 9.37046 14.51350 0.29598 4.76492 63.36440 9.24354
-6.35100 5.27100
International_Tables_for_Crystallography_Vol.C(1991)_Tables_6.1.1.4_and_6.1.1.5
O 3.04850 13.27710 2.28680 5.70110 1.54630 0.32390 0.86700 32.90890 0.25080
0.04700 0.03200
International_Tables_for_Crystallography_Vol.C(1991)_Tables_6.1.1.4_and_6.1.1.5
N 12.21260 0.00570 3.13220 9.89330 2.01250 28.99750 1.16630 0.58260 -11.52900
0.02900 0.01800
International_Tables_for_Crystallography_Vol.C(1991)_Tables_6.1.1.4_and_6.1.1.5
loop_
_diffrn_radiation_wavelength_id
_diffrn_radiation_wavelength
_diffrn_radiation_wavelength_wt
_diffrn_radiation_wavelength_determination
\a1 1.54060 0.6667 fundamental
\a2 1.54439 0.3333 fundamental
loop_
_geom_angle_atom_site_label_1
_geom_angle_atom_site_label_2
_geom_angle_atom_site_label_3
_geom_angle
_geom_angle_site_symmetry_1
_geom_angle_site_symmetry_3
_geom_angle_publ_flag
Ta1 Ba1 Ta1 70.5288(13) 1_444 1_445 ?
Ta1 Ba1 Ta1 70.5288(13) 1_444 1_454 ?
Ta1 Ba1 Ta1 109.4712(17 1_444 1_455 ?
Ta1 Ba1 Ta1 70.5288(13) 1_444 1_544 ?
Ta1 Ba1 Ta1 109.4712(17 1_444 1_545 ?
Ta1 Ba1 Ta1 109.4712(17 1_444 1_554 ?
Ta1 Ba1 Ta1 180.000(2) 1_444 1_555 ?
Ta1 Ba1 O1 90.0000(16) 1_444 1_455 ?
Ta1 Ba1 O1 90.0000(16) 1_444 1_545 ?
Ta1 Ba1 O1 144.736(2) 1_444 1_555 ?
Ta1 Ba1 O1 90.0000(16) 1_444 5_455 ?
Ta1 Ba1 O1 90.0000(16) 1_444 5_554 ?
Ta1 Ba1 O1 144.736(2) 1_444 5_555 ?
Ta1 Ba1 O1 90.0000(16) 1_444 9_545 ?
Ta1 Ba1 O1 90.0000(16) 1_444 9_554 ?
Ta1 Ba1 O1 144.736(2) 1_444 9_555 ?
Ta1 Ba1 N1 90.0000(16) 1_444 1_455 ?
Ta1 Ba1 N1 90.0000(16) 1_444 1_545 ?
Ta1 Ba1 N1 144.736(2) 1_444 1_555 ?
Ta1 Ba1 N1 90.0000(16) 1_444 5_455 ?
Ta1 Ba1 N1 90.0000(16) 1_444 5_554 ?
Ta1 Ba1 N1 144.736(2) 1_444 5_555 ?
Ta1 Ba1 N1 90.0000(16) 1_444 9_545 ?
Ta1 Ba1 N1 90.0000(16) 1_444 9_554 ?
Ta1 Ba1 N1 144.736(2) 1_444 9_555 ?
Ta1 Ba1 Ta1 109.4712(17 1_445 1_454 ?
Ta1 Ba1 Ta1 70.5288(13) 1_445 1_455 ?
Ta1 Ba1 Ta1 109.4712(17 1_445 1_544 ?
Ta1 Ba1 Ta1 70.5288(13) 1_445 1_545 ?
Ta1 Ba1 Ta1 180.000(2) 1_445 1_554 ?
Ta1 Ba1 Ta1 109.4712(17 1_445 1_555 ?
Ta1 Ba1 O1 90.0000(16) 1_445 1_455 ?
Ta1 Ba1 O1 90.0000(16) 1_445 1_545 ?
Ta1 Ba1 O1 144.736(2) 1_445 1_555 ?
Ta1 Ba1 O1 90.0000(16) 1_445 5_454 ?
Ta1 Ba1 O1 144.736(2) 1_445 5_554 ?
Ta1 Ba1 O1 90.0000(16) 1_445 5_555 ?
Ta1 Ba1 O1 90.0000(16) 1_445 9_544 ?
Ta1 Ba1 O1 144.736(2) 1_445 9_554 ?
Ta1 Ba1 O1 90.0000(16) 1_445 9_555 ?
Ta1 Ba1 N1 90.0000(16) 1_445 1_455 ?
Ta1 Ba1 N1 90.0000(16) 1_445 1_545 ?
Ta1 Ba1 N1 144.736(2) 1_445 1_555 ?
Ta1 Ba1 N1 90.0000(16) 1_445 5_454 ?
Ta1 Ba1 N1 144.736(2) 1_445 5_554 ?
Ta1 Ba1 N1 90.0000(16) 1_445 5_555 ?
Ta1 Ba1 N1 90.0000(16) 1_445 9_544 ?
Ta1 Ba1 N1 144.736(2) 1_445 9_554 ?
Ta1 Ba1 N1 90.0000(16) 1_445 9_555 ?
Ta1 Ba1 Ta1 70.5288(13) 1_454 1_455 ?
Ta1 Ba1 Ta1 109.4712(17 1_454 1_544 ?
Ta1 Ba1 Ta1 180.000(2) 1_454 1_545 ?
Ta1 Ba1 Ta1 70.5288(13) 1_454 1_554 ?
Ta1 Ba1 Ta1 109.4712(17 1_454 1_555 ?
Ta1 Ba1 O1 90.0000(16) 1_454 1_445 ?
Ta1 Ba1 O1 144.736(2) 1_454 1_545 ?
Ta1 Ba1 O1 90.0000(16) 1_454 1_555 ?
Ta1 Ba1 O1 90.0000(16) 1_454 5_455 ?
Ta1 Ba1 O1 90.0000(16) 1_454 5_554 ?
Ta1 Ba1 O1 144.736(2) 1_454 5_555 ?
Ta1 Ba1 O1 90.0000(16) 1_454 9_544 ?
Ta1 Ba1 O1 144.736(2) 1_454 9_545 ?
Ta1 Ba1 O1 90.0000(16) 1_454 9_555 ?
Ta1 Ba1 N1 90.0000(16) 1_454 1_445 ?
Ta1 Ba1 N1 144.736(2) 1_454 1_545 ?
Ta1 Ba1 N1 90.0000(16) 1_454 1_555 ?
Ta1 Ba1 N1 90.0000(16) 1_454 5_455 ?
Ta1 Ba1 N1 90.0000(16) 1_454 5_554 ?
Ta1 Ba1 N1 144.736(2) 1_454 5_555 ?
Ta1 Ba1 N1 90.0000(16) 1_454 9_544 ?
Ta1 Ba1 N1 144.736(2) 1_454 9_545 ?
Ta1 Ba1 N1 90.0000(16) 1_454 9_555 ?
Ta1 Ba1 Ta1 180.000(2) 1_455 1_544 ?
Ta1 Ba1 Ta1 109.4712(17 1_455 1_545 ?
Ta1 Ba1 Ta1 109.4712(17 1_455 1_554 ?
Ta1 Ba1 Ta1 70.5288(13) 1_455 1_555 ?
Ta1 Ba1 O1 90.0000(16) 1_455 1_445 ?
Ta1 Ba1 O1 144.736(2) 1_455 1_545 ?
Ta1 Ba1 O1 90.0000(16) 1_455 1_555 ?
Ta1 Ba1 O1 90.0000(16) 1_455 5_454 ?
Ta1 Ba1 O1 144.736(2) 1_455 5_554 ?
Ta1 Ba1 O1 90.0000(16) 1_455 5_555 ?
Ta1 Ba1 O1 144.736(2) 1_455 9_544 ?
Ta1 Ba1 O1 90.0000(16) 1_455 9_545 ?
Ta1 Ba1 O1 90.0000(16) 1_455 9_554 ?
Ta1 Ba1 N1 90.0000(16) 1_455 1_445 ?
Ta1 Ba1 N1 144.736(2) 1_455 1_545 ?
Ta1 Ba1 N1 90.0000(16) 1_455 1_555 ?
Ta1 Ba1 N1 90.0000(16) 1_455 5_454 ?
Ta1 Ba1 N1 144.736(2) 1_455 5_554 ?
Ta1 Ba1 N1 90.0000(16) 1_455 5_555 ?
Ta1 Ba1 N1 144.736(2) 1_455 9_544 ?
Ta1 Ba1 N1 90.0000(16) 1_455 9_545 ?
Ta1 Ba1 N1 90.0000(16) 1_455 9_554 ?
Ta1 Ba1 Ta1 70.5288(13) 1_544 1_545 ?
Ta1 Ba1 Ta1 70.5288(13) 1_544 1_554 ?
Ta1 Ba1 Ta1 109.4712(17 1_544 1_555 ?
Ta1 Ba1 O1 90.0000(16) 1_544 1_445 ?
Ta1 Ba1 O1 144.736(2) 1_544 1_455 ?
Ta1 Ba1 O1 90.0000(16) 1_544 1_555 ?
Ta1 Ba1 O1 90.0000(16) 1_544 5_454 ?
Ta1 Ba1 O1 144.736(2) 1_544 5_455 ?
Ta1 Ba1 O1 90.0000(16) 1_544 5_555 ?
Ta1 Ba1 O1 90.0000(16) 1_544 9_545 ?
Ta1 Ba1 O1 90.0000(16) 1_544 9_554 ?
Ta1 Ba1 O1 144.736(2) 1_544 9_555 ?
Ta1 Ba1 N1 90.0000(16) 1_544 1_445 ?
Ta1 Ba1 N1 144.736(2) 1_544 1_455 ?
Ta1 Ba1 N1 90.0000(16) 1_544 1_555 ?
Ta1 Ba1 N1 90.0000(16) 1_544 5_454 ?
Ta1 Ba1 N1 144.736(2) 1_544 5_455 ?
Ta1 Ba1 N1 90.0000(16) 1_544 5_555 ?
Ta1 Ba1 N1 90.0000(16) 1_544 9_545 ?
Ta1 Ba1 N1 90.0000(16) 1_544 9_554 ?
Ta1 Ba1 N1 144.736(2) 1_544 9_555 ?
Ta1 Ba1 Ta1 109.4712(17 1_545 1_554 ?
Ta1 Ba1 Ta1 70.5288(13) 1_545 1_555 ?
Ta1 Ba1 O1 90.0000(16) 1_545 1_445 ?
Ta1 Ba1 O1 144.736(2) 1_545 1_455 ?
Ta1 Ba1 O1 90.0000(16) 1_545 1_555 ?
Ta1 Ba1 O1 144.736(2) 1_545 5_454 ?
Ta1 Ba1 O1 90.0000(16) 1_545 5_455 ?
Ta1 Ba1 O1 90.0000(16) 1_545 5_554 ?
Ta1 Ba1 O1 90.0000(16) 1_545 9_544 ?
Ta1 Ba1 O1 144.736(2) 1_545 9_554 ?
Ta1 Ba1 O1 90.0000(16) 1_545 9_555 ?
Ta1 Ba1 N1 90.0000(16) 1_545 1_445 ?
Ta1 Ba1 N1 144.736(2) 1_545 1_455 ?
Ta1 Ba1 N1 90.0000(16) 1_545 1_555 ?
Ta1 Ba1 N1 144.736(2) 1_545 5_454 ?
Ta1 Ba1 N1 90.0000(16) 1_545 5_455 ?
Ta1 Ba1 N1 90.0000(16) 1_545 5_554 ?
Ta1 Ba1 N1 90.0000(16) 1_545 9_544 ?
Ta1 Ba1 N1 144.736(2) 1_545 9_554 ?
Ta1 Ba1 N1 90.0000(16) 1_545 9_555 ?
Ta1 Ba1 Ta1 70.5288(13) 1_554 1_555 ?
Ta1 Ba1 O1 144.736(2) 1_554 1_445 ?
Ta1 Ba1 O1 90.0000(16) 1_554 1_455 ?
Ta1 Ba1 O1 90.0000(16) 1_554 1_545 ?
Ta1 Ba1 O1 90.0000(16) 1_554 5_454 ?
Ta1 Ba1 O1 144.736(2) 1_554 5_455 ?
Ta1 Ba1 O1 90.0000(16) 1_554 5_555 ?
Ta1 Ba1 O1 90.0000(16) 1_554 9_544 ?
Ta1 Ba1 O1 144.736(2) 1_554 9_545 ?
Ta1 Ba1 O1 90.0000(16) 1_554 9_555 ?
Ta1 Ba1 N1 144.736(2) 1_554 1_445 ?
Ta1 Ba1 N1 90.0000(16) 1_554 1_455 ?
Ta1 Ba1 N1 90.0000(16) 1_554 1_545 ?
Ta1 Ba1 N1 90.0000(16) 1_554 5_454 ?
Ta1 Ba1 N1 144.736(2) 1_554 5_455 ?
Ta1 Ba1 N1 90.0000(16) 1_554 5_555 ?
Ta1 Ba1 N1 90.0000(16) 1_554 9_544 ?
Ta1 Ba1 N1 144.736(2) 1_554 9_545 ?
Ta1 Ba1 N1 90.0000(16) 1_554 9_555 ?
Ta1 Ba1 O1 144.736(2) 1_555 1_445 ?
Ta1 Ba1 O1 90.0000(16) 1_555 1_455 ?
Ta1 Ba1 O1 90.0000(16) 1_555 1_545 ?
Ta1 Ba1 O1 144.736(2) 1_555 5_454 ?
Ta1 Ba1 O1 90.0000(16) 1_555 5_455 ?
Ta1 Ba1 O1 90.0000(16) 1_555 5_554 ?
Ta1 Ba1 O1 144.736(2) 1_555 9_544 ?
Ta1 Ba1 O1 90.0000(16) 1_555 9_545 ?
Ta1 Ba1 O1 90.0000(16) 1_555 9_554 ?
Ta1 Ba1 N1 144.736(2) 1_555 1_445 ?
Ta1 Ba1 N1 90.0000(16) 1_555 1_455 ?
Ta1 Ba1 N1 90.0000(16) 1_555 1_545 ?
Ta1 Ba1 N1 144.736(2) 1_555 5_454 ?
Ta1 Ba1 N1 90.0000(16) 1_555 5_455 ?
Ta1 Ba1 N1 90.0000(16) 1_555 5_554 ?
Ta1 Ba1 N1 144.736(2) 1_555 9_544 ?
Ta1 Ba1 N1 90.0000(16) 1_555 9_545 ?
Ta1 Ba1 N1 90.0000(16) 1_555 9_554 ?
O1 Ba1 O1 90.0000(19) 1_445 1_455 ?
O1 Ba1 O1 90.0000(19) 1_445 1_545 ?
O1 Ba1 O1 180.000(3) 1_445 1_555 ?
O1 Ba1 O1 60.0000(10) 1_445 5_454 ?
O1 Ba1 O1 60.0000(10) 1_445 5_455 ?
O1 Ba1 O1 120.0000(20 1_445 5_554 ?
O1 Ba1 O1 120.0000(20 1_445 5_555 ?
O1 Ba1 O1 60.0000(10) 1_445 9_544 ?
O1 Ba1 O1 60.0000(10) 1_445 9_545 ?
O1 Ba1 O1 120.0000(20 1_445 9_554 ?
O1 Ba1 O1 120.0000(20 1_445 9_555 ?
O1 Ba1 N1 90.0000(19) 1_445 1_455 ?
O1 Ba1 N1 90.0000(19) 1_445 1_545 ?
O1 Ba1 N1 180.000(3) 1_445 1_555 ?
O1 Ba1 N1 60.0000(10) 1_445 5_454 ?
O1 Ba1 N1 60.0000(10) 1_445 5_455 ?
O1 Ba1 N1 120.0000(20 1_445 5_554 ?
O1 Ba1 N1 120.0000(20 1_445 5_555 ?
O1 Ba1 N1 60.0000(10) 1_445 9_544 ?
O1 Ba1 N1 60.0000(10) 1_445 9_545 ?
O1 Ba1 N1 120.0000(20 1_445 9_554 ?
O1 Ba1 N1 120.0000(20 1_445 9_555 ?
O1 Ba1 O1 180.000(3) 1_455 1_545 ?
O1 Ba1 O1 90.0000(19) 1_455 1_555 ?
O1 Ba1 O1 60.0000(10) 1_455 5_454 ?
O1 Ba1 O1 60.0000(10) 1_455 5_455 ?
O1 Ba1 O1 120.0000(20 1_455 5_554 ?
O1 Ba1 O1 120.0000(20 1_455 5_555 ?
O1 Ba1 O1 120.0000(20 1_455 9_544 ?
O1 Ba1 O1 120.0000(20 1_455 9_545 ?
O1 Ba1 O1 60.0000(10) 1_455 9_554 ?
O1 Ba1 O1 60.0000(10) 1_455 9_555 ?
O1 Ba1 N1 90.0000(19) 1_455 1_445 ?
O1 Ba1 N1 180.000(3) 1_455 1_545 ?
O1 Ba1 N1 90.0000(19) 1_455 1_555 ?
O1 Ba1 N1 60.0000(10) 1_455 5_454 ?
O1 Ba1 N1 60.0000(10) 1_455 5_455 ?
O1 Ba1 N1 120.0000(20 1_455 5_554 ?
O1 Ba1 N1 120.0000(20 1_455 5_555 ?
O1 Ba1 N1 120.0000(20 1_455 9_544 ?
O1 Ba1 N1 120.0000(20 1_455 9_545 ?
O1 Ba1 N1 60.0000(10) 1_455 9_554 ?
O1 Ba1 N1 60.0000(10) 1_455 9_555 ?
O1 Ba1 O1 90.0000(19) 1_545 1_555 ?
O1 Ba1 O1 120.0000(20 1_545 5_454 ?
O1 Ba1 O1 120.0000(20 1_545 5_455 ?
O1 Ba1 O1 60.0000(10) 1_545 5_554 ?
O1 Ba1 O1 60.0000(10) 1_545 5_555 ?
O1 Ba1 O1 60.0000(10) 1_545 9_544 ?
O1 Ba1 O1 60.0000(10) 1_545 9_545 ?
O1 Ba1 O1 120.0000(20 1_545 9_554 ?
O1 Ba1 O1 120.0000(20 1_545 9_555 ?
O1 Ba1 N1 90.0000(19) 1_545 1_445 ?
O1 Ba1 N1 180.000(3) 1_545 1_455 ?
O1 Ba1 N1 90.0000(19) 1_545 1_555 ?
O1 Ba1 N1 120.0000(20 1_545 5_454 ?
O1 Ba1 N1 120.0000(20 1_545 5_455 ?
O1 Ba1 N1 60.0000(10) 1_545 5_554 ?
O1 Ba1 N1 60.0000(10) 1_545 5_555 ?
O1 Ba1 N1 60.0000(10) 1_545 9_544 ?
O1 Ba1 N1 60.0000(10) 1_545 9_545 ?
O1 Ba1 N1 120.0000(20 1_545 9_554 ?
O1 Ba1 N1 120.0000(20 1_545 9_555 ?
O1 Ba1 O1 120.0000(20 1_555 5_454 ?
O1 Ba1 O1 120.0000(20 1_555 5_455 ?
O1 Ba1 O1 60.0000(10) 1_555 5_554 ?
O1 Ba1 O1 60.0000(10) 1_555 5_555 ?
O1 Ba1 O1 120.0000(20 1_555 9_544 ?
O1 Ba1 O1 120.0000(20 1_555 9_545 ?
O1 Ba1 O1 60.0000(10) 1_555 9_554 ?
O1 Ba1 O1 60.0000(10) 1_555 9_555 ?
O1 Ba1 N1 180.000(3) 1_555 1_445 ?
O1 Ba1 N1 90.0000(19) 1_555 1_455 ?
O1 Ba1 N1 90.0000(19) 1_555 1_545 ?
O1 Ba1 N1 120.0000(20 1_555 5_454 ?
O1 Ba1 N1 120.0000(20 1_555 5_455 ?
O1 Ba1 N1 60.0000(10) 1_555 5_554 ?
O1 Ba1 N1 60.0000(10) 1_555 5_555 ?
O1 Ba1 N1 120.0000(20 1_555 9_544 ?
O1 Ba1 N1 120.0000(20 1_555 9_545 ?
O1 Ba1 N1 60.0000(10) 1_555 9_554 ?
O1 Ba1 N1 60.0000(10) 1_555 9_555 ?
O1 Ba1 O1 90.0000(19) 5_454 5_455 ?
O1 Ba1 O1 90.0000(19) 5_454 5_554 ?
O1 Ba1 O1 180.000(3) 5_454 5_555 ?
O1 Ba1 O1 60.0000(10) 5_454 9_544 ?
O1 Ba1 O1 120.0000(20 5_454 9_545 ?
O1 Ba1 O1 60.0000(10) 5_454 9_554 ?
O1 Ba1 O1 120.0000(20 5_454 9_555 ?
O1 Ba1 N1 60.0000(10) 5_454 1_445 ?
O1 Ba1 N1 60.0000(10) 5_454 1_455 ?
O1 Ba1 N1 120.0000(20 5_454 1_545 ?
O1 Ba1 N1 120.0000(20 5_454 1_555 ?
O1 Ba1 N1 90.0000(19) 5_454 5_455 ?
O1 Ba1 N1 90.0000(19) 5_454 5_554 ?
O1 Ba1 N1 180.000(3) 5_454 5_555 ?
O1 Ba1 N1 60.0000(10) 5_454 9_544 ?
O1 Ba1 N1 120.0000(20 5_454 9_545 ?
O1 Ba1 N1 60.0000(10) 5_454 9_554 ?
O1 Ba1 N1 120.0000(20 5_454 9_555 ?
O1 Ba1 O1 180.000(3) 5_455 5_554 ?
O1 Ba1 O1 90.0000(19) 5_455 5_555 ?
O1 Ba1 O1 120.0000(20 5_455 9_544 ?
O1 Ba1 O1 60.0000(10) 5_455 9_545 ?
O1 Ba1 O1 120.0000(20 5_455 9_554 ?
O1 Ba1 O1 60.0000(10) 5_455 9_555 ?
O1 Ba1 N1 60.0000(10) 5_455 1_445 ?
O1 Ba1 N1 60.0000(10) 5_455 1_455 ?
O1 Ba1 N1 120.0000(20 5_455 1_545 ?
O1 Ba1 N1 120.0000(20 5_455 1_555 ?
O1 Ba1 N1 90.0000(19) 5_455 5_454 ?
O1 Ba1 N1 180.000(3) 5_455 5_554 ?
O1 Ba1 N1 90.0000(19) 5_455 5_555 ?
O1 Ba1 N1 120.0000(20 5_455 9_544 ?
O1 Ba1 N1 60.0000(10) 5_455 9_545 ?
O1 Ba1 N1 120.0000(20 5_455 9_554 ?
O1 Ba1 N1 60.0000(10) 5_455 9_555 ?
O1 Ba1 O1 90.0000(19) 5_554 5_555 ?
O1 Ba1 O1 60.0000(10) 5_554 9_544 ?
O1 Ba1 O1 120.0000(20 5_554 9_545 ?
O1 Ba1 O1 60.0000(10) 5_554 9_554 ?
O1 Ba1 O1 120.0000(20 5_554 9_555 ?
O1 Ba1 N1 120.0000(20 5_554 1_445 ?
O1 Ba1 N1 120.0000(20 5_554 1_455 ?
O1 Ba1 N1 60.0000(10) 5_554 1_545 ?
O1 Ba1 N1 60.0000(10) 5_554 1_555 ?
O1 Ba1 N1 90.0000(19) 5_554 5_454 ?
O1 Ba1 N1 180.000(3) 5_554 5_455 ?
O1 Ba1 N1 90.0000(19) 5_554 5_555 ?
O1 Ba1 N1 60.0000(10) 5_554 9_544 ?
O1 Ba1 N1 120.0000(20 5_554 9_545 ?
O1 Ba1 N1 60.0000(10) 5_554 9_554 ?
O1 Ba1 N1 120.0000(20 5_554 9_555 ?
O1 Ba1 O1 120.0000(20 5_555 9_544 ?
O1 Ba1 O1 60.0000(10) 5_555 9_545 ?
O1 Ba1 O1 120.0000(20 5_555 9_554 ?
O1 Ba1 O1 60.0000(10) 5_555 9_555 ?
O1 Ba1 N1 120.0000(20 5_555 1_445 ?
O1 Ba1 N1 120.0000(20 5_555 1_455 ?
O1 Ba1 N1 60.0000(10) 5_555 1_545 ?
O1 Ba1 N1 60.0000(10) 5_555 1_555 ?
O1 Ba1 N1 180.000(3) 5_555 5_454 ?
O1 Ba1 N1 90.0000(19) 5_555 5_455 ?
O1 Ba1 N1 90.0000(19) 5_555 5_554 ?
O1 Ba1 N1 120.0000(20 5_555 9_544 ?
O1 Ba1 N1 60.0000(10) 5_555 9_545 ?
O1 Ba1 N1 120.0000(20 5_555 9_554 ?
O1 Ba1 N1 60.0000(10) 5_555 9_555 ?
O1 Ba1 O1 90.0000(19) 9_544 9_545 ?
O1 Ba1 O1 90.0000(19) 9_544 9_554 ?
O1 Ba1 O1 180.000(3) 9_544 9_555 ?
O1 Ba1 N1 60.0000(10) 9_544 1_445 ?
O1 Ba1 N1 120.0000(20 9_544 1_455 ?
O1 Ba1 N1 60.0000(10) 9_544 1_545 ?
O1 Ba1 N1 120.0000(20 9_544 1_555 ?
O1 Ba1 N1 60.0000(10) 9_544 5_454 ?
O1 Ba1 N1 120.0000(20 9_544 5_455 ?
O1 Ba1 N1 60.0000(10) 9_544 5_554 ?
O1 Ba1 N1 120.0000(20 9_544 5_555 ?
O1 Ba1 N1 90.0000(19) 9_544 9_545 ?
O1 Ba1 N1 90.0000(19) 9_544 9_554 ?
O1 Ba1 N1 180.000(3) 9_544 9_555 ?
O1 Ba1 O1 180.000(3) 9_545 9_554 ?
O1 Ba1 O1 90.0000(19) 9_545 9_555 ?
O1 Ba1 N1 60.0000(10) 9_545 1_445 ?
O1 Ba1 N1 120.0000(20 9_545 1_455 ?
O1 Ba1 N1 60.0000(10) 9_545 1_545 ?
O1 Ba1 N1 120.0000(20 9_545 1_555 ?
O1 Ba1 N1 120.0000(20 9_545 5_454 ?
O1 Ba1 N1 60.0000(10) 9_545 5_455 ?
O1 Ba1 N1 120.0000(20 9_545 5_554 ?
O1 Ba1 N1 60.0000(10) 9_545 5_555 ?
O1 Ba1 N1 90.0000(19) 9_545 9_544 ?
O1 Ba1 N1 180.000(3) 9_545 9_554 ?
O1 Ba1 N1 90.0000(19) 9_545 9_555 ?
O1 Ba1 O1 90.0000(19) 9_554 9_555 ?
O1 Ba1 N1 120.0000(20 9_554 1_445 ?
O1 Ba1 N1 60.0000(10) 9_554 1_455 ?
O1 Ba1 N1 120.0000(20 9_554 1_545 ?
O1 Ba1 N1 60.0000(10) 9_554 1_555 ?
O1 Ba1 N1 60.0000(10) 9_554 5_454 ?
O1 Ba1 N1 120.0000(20 9_554 5_455 ?
O1 Ba1 N1 60.0000(10) 9_554 5_554 ?
O1 Ba1 N1 120.0000(20 9_554 5_555 ?
O1 Ba1 N1 90.0000(19) 9_554 9_544 ?
O1 Ba1 N1 180.000(3) 9_554 9_545 ?
O1 Ba1 N1 90.0000(19) 9_554 9_555 ?
O1 Ba1 N1 120.0000(20 9_555 1_445 ?
O1 Ba1 N1 60.0000(10) 9_555 1_455 ?
O1 Ba1 N1 120.0000(20 9_555 1_545 ?
O1 Ba1 N1 60.0000(10) 9_555 1_555 ?
O1 Ba1 N1 120.0000(20 9_555 5_454 ?
O1 Ba1 N1 60.0000(10) 9_555 5_455 ?
O1 Ba1 N1 120.0000(20 9_555 5_554 ?
O1 Ba1 N1 60.0000(10) 9_555 5_555 ?
O1 Ba1 N1 180.000(3) 9_555 9_544 ?
O1 Ba1 N1 90.0000(19) 9_555 9_545 ?
O1 Ba1 N1 90.0000(19) 9_555 9_554 ?
N1 Ba1 N1 90.0000(19) 1_445 1_455 ?
N1 Ba1 N1 90.0000(19) 1_445 1_545 ?
N1 Ba1 N1 180.000(3) 1_445 1_555 ?
N1 Ba1 N1 60.0000(10) 1_445 5_454 ?
N1 Ba1 N1 60.0000(10) 1_445 5_455 ?
N1 Ba1 N1 120.0000(20 1_445 5_554 ?
N1 Ba1 N1 120.0000(20 1_445 5_555 ?
N1 Ba1 N1 60.0000(10) 1_445 9_544 ?
N1 Ba1 N1 60.0000(10) 1_445 9_545 ?
N1 Ba1 N1 120.0000(20 1_445 9_554 ?
N1 Ba1 N1 120.0000(20 1_445 9_555 ?
N1 Ba1 N1 180.000(3) 1_455 1_545 ?
N1 Ba1 N1 90.0000(19) 1_455 1_555 ?
N1 Ba1 N1 60.0000(10) 1_455 5_454 ?
N1 Ba1 N1 60.0000(10) 1_455 5_455 ?
N1 Ba1 N1 120.0000(20 1_455 5_554 ?
N1 Ba1 N1 120.0000(20 1_455 5_555 ?
N1 Ba1 N1 120.0000(20 1_455 9_544 ?
N1 Ba1 N1 120.0000(20 1_455 9_545 ?
N1 Ba1 N1 60.0000(10) 1_455 9_554 ?
N1 Ba1 N1 60.0000(10) 1_455 9_555 ?
N1 Ba1 N1 90.0000(19) 1_545 1_555 ?
N1 Ba1 N1 120.0000(20 1_545 5_454 ?
N1 Ba1 N1 120.0000(20 1_545 5_455 ?
N1 Ba1 N1 60.0000(10) 1_545 5_554 ?
N1 Ba1 N1 60.0000(10) 1_545 5_555 ?
N1 Ba1 N1 60.0000(10) 1_545 9_544 ?
N1 Ba1 N1 60.0000(10) 1_545 9_545 ?
N1 Ba1 N1 120.0000(20 1_545 9_554 ?
N1 Ba1 N1 120.0000(20 1_545 9_555 ?
N1 Ba1 N1 120.0000(20 1_555 5_454 ?
N1 Ba1 N1 120.0000(20 1_555 5_455 ?
N1 Ba1 N1 60.0000(10) 1_555 5_554 ?
N1 Ba1 N1 60.0000(10) 1_555 5_555 ?
N1 Ba1 N1 120.0000(20 1_555 9_544 ?
N1 Ba1 N1 120.0000(20 1_555 9_545 ?
N1 Ba1 N1 60.0000(10) 1_555 9_554 ?
N1 Ba1 N1 60.0000(10) 1_555 9_555 ?
N1 Ba1 N1 90.0000(19) 5_454 5_455 ?
N1 Ba1 N1 90.0000(19) 5_454 5_554 ?
N1 Ba1 N1 180.000(3) 5_454 5_555 ?
N1 Ba1 N1 60.0000(10) 5_454 9_544 ?
N1 Ba1 N1 120.0000(20 5_454 9_545 ?
N1 Ba1 N1 60.0000(10) 5_454 9_554 ?
N1 Ba1 N1 120.0000(20 5_454 9_555 ?
N1 Ba1 N1 180.000(3) 5_455 5_554 ?
N1 Ba1 N1 90.0000(19) 5_455 5_555 ?
N1 Ba1 N1 120.0000(20 5_455 9_544 ?
N1 Ba1 N1 60.0000(10) 5_455 9_545 ?
N1 Ba1 N1 120.0000(20 5_455 9_554 ?
N1 Ba1 N1 60.0000(10) 5_455 9_555 ?
N1 Ba1 N1 90.0000(19) 5_554 5_555 ?
N1 Ba1 N1 60.0000(10) 5_554 9_544 ?
N1 Ba1 N1 120.0000(20 5_554 9_545 ?
N1 Ba1 N1 60.0000(10) 5_554 9_554 ?
N1 Ba1 N1 120.0000(20 5_554 9_555 ?
N1 Ba1 N1 120.0000(20 5_555 9_544 ?
N1 Ba1 N1 60.0000(10) 5_555 9_545 ?
N1 Ba1 N1 120.0000(20 5_555 9_554 ?
N1 Ba1 N1 60.0000(10) 5_555 9_555 ?
N1 Ba1 N1 90.0000(19) 9_544 9_545 ?
N1 Ba1 N1 90.0000(19) 9_544 9_554 ?
N1 Ba1 N1 180.000(3) 9_544 9_555 ?
N1 Ba1 N1 180.000(3) 9_545 9_554 ?
N1 Ba1 N1 90.0000(19) 9_545 9_555 ?
N1 Ba1 N1 90.0000(19) 9_554 9_555 ?
Ba1 Ta1 Ba1 70.5288(13) 1_555 1_556 ?
Ba1 Ta1 Ba1 70.5288(13) 1_555 1_565 ?
Ba1 Ta1 Ba1 109.4712(17 1_555 1_566 ?
Ba1 Ta1 Ba1 70.5288(13) 1_555 1_655 ?
Ba1 Ta1 Ba1 109.4712(17 1_555 1_656 ?
Ba1 Ta1 Ba1 109.4712(17 1_555 1_665 ?
Ba1 Ta1 Ba1 180.000(2) 1_555 1_666 ?
Ba1 Ta1 O1 54.7356(12) 1_555 1_555 ?
Ba1 Ta1 O1 125.264(2) 1_555 1_556 ?
Ba1 Ta1 O1 54.7356(12) 1_555 5_555 ?
Ba1 Ta1 O1 125.264(2) 1_555 5_565 ?
Ba1 Ta1 O1 54.7356(12) 1_555 9_555 ?
Ba1 Ta1 O1 125.264(2) 1_555 9_655 ?
Ba1 Ta1 N1 54.7356(12) 1_555 1_555 ?
Ba1 Ta1 N1 125.264(2) 1_555 1_556 ?
Ba1 Ta1 N1 54.7356(12) 1_555 5_555 ?
Ba1 Ta1 N1 125.264(2) 1_555 5_565 ?
Ba1 Ta1 N1 54.7356(12) 1_555 9_555 ?
Ba1 Ta1 N1 125.264(2) 1_555 9_655 ?
Ba1 Ta1 Ba1 109.4712(17 1_556 1_565 ?
Ba1 Ta1 Ba1 70.5288(13) 1_556 1_566 ?
Ba1 Ta1 Ba1 109.4712(17 1_556 1_655 ?
Ba1 Ta1 Ba1 70.5288(13) 1_556 1_656 ?
Ba1 Ta1 Ba1 180.000(2) 1_556 1_665 ?
Ba1 Ta1 Ba1 109.4712(17 1_556 1_666 ?
Ba1 Ta1 O1 125.264(2) 1_556 1_555 ?
Ba1 Ta1 O1 54.7356(12) 1_556 1_556 ?
Ba1 Ta1 O1 54.7356(12) 1_556 5_555 ?
Ba1 Ta1 O1 125.264(2) 1_556 5_565 ?
Ba1 Ta1 O1 54.7356(12) 1_556 9_555 ?
Ba1 Ta1 O1 125.264(2) 1_556 9_655 ?
Ba1 Ta1 N1 125.264(2) 1_556 1_555 ?
Ba1 Ta1 N1 54.7356(12) 1_556 1_556 ?
Ba1 Ta1 N1 54.7356(12) 1_556 5_555 ?
Ba1 Ta1 N1 125.264(2) 1_556 5_565 ?
Ba1 Ta1 N1 54.7356(12) 1_556 9_555 ?
Ba1 Ta1 N1 125.264(2) 1_556 9_655 ?
Ba1 Ta1 Ba1 70.5288(13) 1_565 1_566 ?
Ba1 Ta1 Ba1 109.4712(17 1_565 1_655 ?
Ba1 Ta1 Ba1 180.000(2) 1_565 1_656 ?
Ba1 Ta1 Ba1 70.5288(13) 1_565 1_665 ?
Ba1 Ta1 Ba1 109.4712(17 1_565 1_666 ?
Ba1 Ta1 O1 54.7356(12) 1_565 1_555 ?
Ba1 Ta1 O1 125.264(2) 1_565 1_556 ?
Ba1 Ta1 O1 125.264(2) 1_565 5_555 ?
Ba1 Ta1 O1 54.7356(12) 1_565 5_565 ?
Ba1 Ta1 O1 54.7356(12) 1_565 9_555 ?
Ba1 Ta1 O1 125.264(2) 1_565 9_655 ?
Ba1 Ta1 N1 54.7356(12) 1_565 1_555 ?
Ba1 Ta1 N1 125.264(2) 1_565 1_556 ?
Ba1 Ta1 N1 125.264(2) 1_565 5_555 ?
Ba1 Ta1 N1 54.7356(12) 1_565 5_565 ?
Ba1 Ta1 N1 54.7356(12) 1_565 9_555 ?
Ba1 Ta1 N1 125.264(2) 1_565 9_655 ?
Ba1 Ta1 Ba1 180.000(2) 1_566 1_655 ?
Ba1 Ta1 Ba1 109.4712(17 1_566 1_656 ?
Ba1 Ta1 Ba1 109.4712(17 1_566 1_665 ?
Ba1 Ta1 Ba1 70.5288(13) 1_566 1_666 ?
Ba1 Ta1 O1 125.264(2) 1_566 1_555 ?
Ba1 Ta1 O1 54.7356(12) 1_566 1_556 ?
Ba1 Ta1 O1 125.264(2) 1_566 5_555 ?
Ba1 Ta1 O1 54.7356(12) 1_566 5_565 ?
Ba1 Ta1 O1 54.7356(12) 1_566 9_555 ?
Ba1 Ta1 O1 125.264(2) 1_566 9_655 ?
Ba1 Ta1 N1 125.264(2) 1_566 1_555 ?
Ba1 Ta1 N1 54.7356(12) 1_566 1_556 ?
Ba1 Ta1 N1 125.264(2) 1_566 5_555 ?
Ba1 Ta1 N1 54.7356(12) 1_566 5_565 ?
Ba1 Ta1 N1 54.7356(12) 1_566 9_555 ?
Ba1 Ta1 N1 125.264(2) 1_566 9_655 ?
Ba1 Ta1 Ba1 70.5288(13) 1_655 1_656 ?
Ba1 Ta1 Ba1 70.5288(13) 1_655 1_665 ?
Ba1 Ta1 Ba1 109.4712(17 1_655 1_666 ?
Ba1 Ta1 O1 54.7356(12) 1_655 1_555 ?
Ba1 Ta1 O1 125.264(2) 1_655 1_556 ?
Ba1 Ta1 O1 54.7356(12) 1_655 5_555 ?
Ba1 Ta1 O1 125.264(2) 1_655 5_565 ?
Ba1 Ta1 O1 125.264(2) 1_655 9_555 ?
Ba1 Ta1 O1 54.7356(12) 1_655 9_655 ?
Ba1 Ta1 N1 54.7356(12) 1_655 1_555 ?
Ba1 Ta1 N1 125.264(2) 1_655 1_556 ?
Ba1 Ta1 N1 54.7356(12) 1_655 5_555 ?
Ba1 Ta1 N1 125.264(2) 1_655 5_565 ?
Ba1 Ta1 N1 125.264(2) 1_655 9_555 ?
Ba1 Ta1 N1 54.7356(12) 1_655 9_655 ?
Ba1 Ta1 Ba1 109.4712(17 1_656 1_665 ?
Ba1 Ta1 Ba1 70.5288(13) 1_656 1_666 ?
Ba1 Ta1 O1 125.264(2) 1_656 1_555 ?
Ba1 Ta1 O1 54.7356(12) 1_656 1_556 ?
Ba1 Ta1 O1 54.7356(12) 1_656 5_555 ?
Ba1 Ta1 O1 125.264(2) 1_656 5_565 ?
Ba1 Ta1 O1 125.264(2) 1_656 9_555 ?
Ba1 Ta1 O1 54.7356(12) 1_656 9_655 ?
Ba1 Ta1 N1 125.264(2) 1_656 1_555 ?
Ba1 Ta1 N1 54.7356(12) 1_656 1_556 ?
Ba1 Ta1 N1 54.7356(12) 1_656 5_555 ?
Ba1 Ta1 N1 125.264(2) 1_656 5_565 ?
Ba1 Ta1 N1 125.264(2) 1_656 9_555 ?
Ba1 Ta1 N1 54.7356(12) 1_656 9_655 ?
Ba1 Ta1 Ba1 70.5288(13) 1_665 1_666 ?
Ba1 Ta1 O1 54.7356(12) 1_665 1_555 ?
Ba1 Ta1 O1 125.264(2) 1_665 1_556 ?
Ba1 Ta1 O1 125.264(2) 1_665 5_555 ?
Ba1 Ta1 O1 54.7356(12) 1_665 5_565 ?
Ba1 Ta1 O1 125.264(2) 1_665 9_555 ?
Ba1 Ta1 O1 54.7356(12) 1_665 9_655 ?
Ba1 Ta1 N1 54.7356(12) 1_665 1_555 ?
Ba1 Ta1 N1 125.264(2) 1_665 1_556 ?
Ba1 Ta1 N1 125.264(2) 1_665 5_555 ?
Ba1 Ta1 N1 54.7356(12) 1_665 5_565 ?
Ba1 Ta1 N1 125.264(2) 1_665 9_555 ?
Ba1 Ta1 N1 54.7356(12) 1_665 9_655 ?
Ba1 Ta1 O1 125.264(2) 1_666 1_555 ?
Ba1 Ta1 O1 54.7356(12) 1_666 1_556 ?
Ba1 Ta1 O1 125.264(2) 1_666 5_555 ?
Ba1 Ta1 O1 54.7356(12) 1_666 5_565 ?
Ba1 Ta1 O1 125.264(2) 1_666 9_555 ?
Ba1 Ta1 O1 54.7356(12) 1_666 9_655 ?
Ba1 Ta1 N1 125.264(2) 1_666 1_555 ?
Ba1 Ta1 N1 54.7356(12) 1_666 1_556 ?
Ba1 Ta1 N1 125.264(2) 1_666 5_555 ?
Ba1 Ta1 N1 54.7356(12) 1_666 5_565 ?
Ba1 Ta1 N1 125.264(2) 1_666 9_555 ?
Ba1 Ta1 N1 54.7356(12) 1_666 9_655 ?
O1 Ta1 O1 180.000(4) 1_555 1_556 ?
O1 Ta1 O1 90.0000(17) 1_555 5_555 ?
O1 Ta1 O1 90.0000(17) 1_555 5_565 ?
O1 Ta1 O1 90.0000(17) 1_555 9_555 ?
O1 Ta1 O1 90.0000(17) 1_555 9_655 ?
O1 Ta1 N1 180.000(4) 1_555 1_556 ?
O1 Ta1 N1 90.0000(17) 1_555 5_555 ?
O1 Ta1 N1 90.0000(17) 1_555 5_565 ?
O1 Ta1 N1 90.0000(17) 1_555 9_555 ?
O1 Ta1 N1 90.0000(17) 1_555 9_655 ?
O1 Ta1 O1 90.0000(17) 1_556 5_555 ?
O1 Ta1 O1 90.0000(17) 1_556 5_565 ?
O1 Ta1 O1 90.0000(17) 1_556 9_555 ?
O1 Ta1 O1 90.0000(17) 1_556 9_655 ?
O1 Ta1 N1 180.000(4) 1_556 1_555 ?
O1 Ta1 N1 90.0000(17) 1_556 5_555 ?
O1 Ta1 N1 90.0000(17) 1_556 5_565 ?
O1 Ta1 N1 90.0000(17) 1_556 9_555 ?
O1 Ta1 N1 90.0000(17) 1_556 9_655 ?
O1 Ta1 O1 180.000(4) 5_555 5_565 ?
O1 Ta1 O1 90.0000(17) 5_555 9_555 ?
O1 Ta1 O1 90.0000(17) 5_555 9_655 ?
O1 Ta1 N1 90.0000(17) 5_555 1_555 ?
O1 Ta1 N1 90.0000(17) 5_555 1_556 ?
O1 Ta1 N1 180.000(4) 5_555 5_565 ?
O1 Ta1 N1 90.0000(17) 5_555 9_555 ?
O1 Ta1 N1 90.0000(17) 5_555 9_655 ?
O1 Ta1 O1 90.0000(17) 5_565 9_555 ?
O1 Ta1 O1 90.0000(17) 5_565 9_655 ?
O1 Ta1 N1 90.0000(17) 5_565 1_555 ?
O1 Ta1 N1 90.0000(17) 5_565 1_556 ?
O1 Ta1 N1 180.000(4) 5_565 5_555 ?
O1 Ta1 N1 90.0000(17) 5_565 9_555 ?
O1 Ta1 N1 90.0000(17) 5_565 9_655 ?
O1 Ta1 O1 180.000(4) 9_555 9_655 ?
O1 Ta1 N1 90.0000(17) 9_555 1_555 ?
O1 Ta1 N1 90.0000(17) 9_555 1_556 ?
O1 Ta1 N1 90.0000(17) 9_555 5_555 ?
O1 Ta1 N1 90.0000(17) 9_555 5_565 ?
O1 Ta1 N1 180.000(4) 9_555 9_655 ?
O1 Ta1 N1 90.0000(17) 9_655 1_555 ?
O1 Ta1 N1 90.0000(17) 9_655 1_556 ?
O1 Ta1 N1 90.0000(17) 9_655 5_555 ?
O1 Ta1 N1 90.0000(17) 9_655 5_565 ?
O1 Ta1 N1 180.000(4) 9_655 9_555 ?
N1 Ta1 N1 180.000(4) 1_555 1_556 ?
N1 Ta1 N1 90.0000(17) 1_555 5_555 ?
N1 Ta1 N1 90.0000(17) 1_555 5_565 ?
N1 Ta1 N1 90.0000(17) 1_555 9_555 ?
N1 Ta1 N1 90.0000(17) 1_555 9_655 ?
N1 Ta1 N1 90.0000(17) 1_556 5_555 ?
N1 Ta1 N1 90.0000(17) 1_556 5_565 ?
N1 Ta1 N1 90.0000(17) 1_556 9_555 ?
N1 Ta1 N1 90.0000(17) 1_556 9_655 ?
N1 Ta1 N1 180.000(4) 5_555 5_565 ?
N1 Ta1 N1 90.0000(17) 5_555 9_555 ?
N1 Ta1 N1 90.0000(17) 5_555 9_655 ?
N1 Ta1 N1 90.0000(17) 5_565 9_555 ?
N1 Ta1 N1 90.0000(17) 5_565 9_655 ?
N1 Ta1 N1 180.000(4) 9_555 9_655 ?
Ba1 O1 Ba1 90.0000(19) 1_555 1_565 ?
Ba1 O1 Ba1 90.0000(19) 1_555 1_655 ?
Ba1 O1 Ba1 180.000(3) 1_555 1_665 ?
Ba1 O1 Ta1 90.0000(14) 1_555 1_554 ?
Ba1 O1 Ta1 90.0000(14) 1_555 1_555 ?
Ba1 O1 O1 60.0000(10) 1_555 5_554 ?
Ba1 O1 O1 60.0000(10) 1_555 5_555 ?
Ba1 O1 O1 120.0000(20 1_555 5_564 ?
Ba1 O1 O1 120.0000(20 1_555 5_565 ?
Ba1 O1 O1 60.0000(10) 1_555 9_554 ?
Ba1 O1 O1 60.0000(10) 1_555 9_555 ?
Ba1 O1 O1 120.0000(20 1_555 9_654 ?
Ba1 O1 O1 120.0000(20 1_555 9_655 ?
Ba1 O1 N1 60.0000(10) 1_555 5_554 ?
Ba1 O1 N1 60.0000(10) 1_555 5_555 ?
Ba1 O1 N1 120.0000(20 1_555 5_564 ?
Ba1 O1 N1 120.0000(20 1_555 5_565 ?
Ba1 O1 N1 60.0000(10) 1_555 9_554 ?
Ba1 O1 N1 60.0000(10) 1_555 9_555 ?
Ba1 O1 N1 120.0000(20 1_555 9_654 ?
Ba1 O1 N1 120.0000(20 1_555 9_655 ?
Ba1 O1 Ba1 180.000(3) 1_565 1_655 ?
Ba1 O1 Ba1 90.0000(19) 1_565 1_665 ?
Ba1 O1 Ta1 90.0000(14) 1_565 1_554 ?
Ba1 O1 Ta1 90.0000(14) 1_565 1_555 ?
Ba1 O1 O1 120.0000(20 1_565 5_554 ?
Ba1 O1 O1 120.0000(20 1_565 5_555 ?
Ba1 O1 O1 60.0000(10) 1_565 5_564 ?
Ba1 O1 O1 60.0000(10) 1_565 5_565 ?
Ba1 O1 O1 60.0000(10) 1_565 9_554 ?
Ba1 O1 O1 60.0000(10) 1_565 9_555 ?
Ba1 O1 O1 120.0000(20 1_565 9_654 ?
Ba1 O1 O1 120.0000(20 1_565 9_655 ?
Ba1 O1 N1 120.0000(20 1_565 5_554 ?
Ba1 O1 N1 120.0000(20 1_565 5_555 ?
Ba1 O1 N1 60.0000(10) 1_565 5_564 ?
Ba1 O1 N1 60.0000(10) 1_565 5_565 ?
Ba1 O1 N1 60.0000(10) 1_565 9_554 ?
Ba1 O1 N1 60.0000(10) 1_565 9_555 ?
Ba1 O1 N1 120.0000(20 1_565 9_654 ?
Ba1 O1 N1 120.0000(20 1_565 9_655 ?
Ba1 O1 Ba1 90.0000(19) 1_655 1_665 ?
Ba1 O1 Ta1 90.0000(14) 1_655 1_554 ?
Ba1 O1 Ta1 90.0000(14) 1_655 1_555 ?
Ba1 O1 O1 60.0000(10) 1_655 5_554 ?
Ba1 O1 O1 60.0000(10) 1_655 5_555 ?
Ba1 O1 O1 120.0000(20 1_655 5_564 ?
Ba1 O1 O1 120.0000(20 1_655 5_565 ?
Ba1 O1 O1 120.0000(20 1_655 9_554 ?
Ba1 O1 O1 120.0000(20 1_655 9_555 ?
Ba1 O1 O1 60.0000(10) 1_655 9_654 ?
Ba1 O1 O1 60.0000(10) 1_655 9_655 ?
Ba1 O1 N1 60.0000(10) 1_655 5_554 ?
Ba1 O1 N1 60.0000(10) 1_655 5_555 ?
Ba1 O1 N1 120.0000(20 1_655 5_564 ?
Ba1 O1 N1 120.0000(20 1_655 5_565 ?
Ba1 O1 N1 120.0000(20 1_655 9_554 ?
Ba1 O1 N1 120.0000(20 1_655 9_555 ?
Ba1 O1 N1 60.0000(10) 1_655 9_654 ?
Ba1 O1 N1 60.0000(10) 1_655 9_655 ?
Ba1 O1 Ta1 90.0000(14) 1_665 1_554 ?
Ba1 O1 Ta1 90.0000(14) 1_665 1_555 ?
Ba1 O1 O1 120.0000(20 1_665 5_554 ?
Ba1 O1 O1 120.0000(20 1_665 5_555 ?
Ba1 O1 O1 60.0000(10) 1_665 5_564 ?
Ba1 O1 O1 60.0000(10) 1_665 5_565 ?
Ba1 O1 O1 120.0000(20 1_665 9_554 ?
Ba1 O1 O1 120.0000(20 1_665 9_555 ?
Ba1 O1 O1 60.0000(10) 1_665 9_654 ?
Ba1 O1 O1 60.0000(10) 1_665 9_655 ?
Ba1 O1 N1 120.0000(20 1_665 5_554 ?
Ba1 O1 N1 120.0000(20 1_665 5_555 ?
Ba1 O1 N1 60.0000(10) 1_665 5_564 ?
Ba1 O1 N1 60.0000(10) 1_665 5_565 ?
Ba1 O1 N1 120.0000(20 1_665 9_554 ?
Ba1 O1 N1 120.0000(20 1_665 9_555 ?
Ba1 O1 N1 60.0000(10) 1_665 9_654 ?
Ba1 O1 N1 60.0000(10) 1_665 9_655 ?
Ta1 O1 Ta1 180.000(4) 1_554 1_555 ?
Ta1 O1 O1 45.0000(12) 1_554 5_554 ?
Ta1 O1 O1 135.000(3) 1_554 5_555 ?
Ta1 O1 O1 45.0000(12) 1_554 5_564 ?
Ta1 O1 O1 135.000(3) 1_554 5_565 ?
Ta1 O1 O1 45.0000(12) 1_554 9_554 ?
Ta1 O1 O1 135.000(3) 1_554 9_555 ?
Ta1 O1 O1 45.0000(12) 1_554 9_654 ?
Ta1 O1 O1 135.000(3) 1_554 9_655 ?
Ta1 O1 N1 45.0000(12) 1_554 5_554 ?
Ta1 O1 N1 135.000(3) 1_554 5_555 ?
Ta1 O1 N1 45.0000(12) 1_554 5_564 ?
Ta1 O1 N1 135.000(3) 1_554 5_565 ?
Ta1 O1 N1 45.0000(12) 1_554 9_554 ?
Ta1 O1 N1 135.000(3) 1_554 9_555 ?
Ta1 O1 N1 45.0000(12) 1_554 9_654 ?
Ta1 O1 N1 135.000(3) 1_554 9_655 ?
Ta1 O1 O1 135.000(3) 1_555 5_554 ?
Ta1 O1 O1 45.0000(12) 1_555 5_555 ?
Ta1 O1 O1 135.000(3) 1_555 5_564 ?
Ta1 O1 O1 45.0000(12) 1_555 5_565 ?
Ta1 O1 O1 135.000(3) 1_555 9_554 ?
Ta1 O1 O1 45.0000(12) 1_555 9_555 ?
Ta1 O1 O1 135.000(3) 1_555 9_654 ?
Ta1 O1 O1 45.0000(12) 1_555 9_655 ?
Ta1 O1 N1 135.000(3) 1_555 5_554 ?
Ta1 O1 N1 45.0000(12) 1_555 5_555 ?
Ta1 O1 N1 135.000(3) 1_555 5_564 ?
Ta1 O1 N1 45.0000(12) 1_555 5_565 ?
Ta1 O1 N1 135.000(3) 1_555 9_554 ?
Ta1 O1 N1 45.0000(12) 1_555 9_555 ?
Ta1 O1 N1 135.000(3) 1_555 9_654 ?
Ta1 O1 N1 45.0000(12) 1_555 9_655 ?
O1 O1 O1 90.0000(19) 5_554 5_555 ?
O1 O1 O1 90.0000(19) 5_554 5_564 ?
O1 O1 O1 180.000(3) 5_554 5_565 ?
O1 O1 O1 60.0000(10) 5_554 9_554 ?
O1 O1 O1 120.0000(20 5_554 9_555 ?
O1 O1 O1 60.0000(10) 5_554 9_654 ?
O1 O1 O1 120.0000(20 5_554 9_655 ?
O1 O1 N1 90.0000(19) 5_554 5_555 ?
O1 O1 N1 90.0000(19) 5_554 5_564 ?
O1 O1 N1 180.000(3) 5_554 5_565 ?
O1 O1 N1 60.0000(10) 5_554 9_554 ?
O1 O1 N1 120.0000(20 5_554 9_555 ?
O1 O1 N1 60.0000(10) 5_554 9_654 ?
O1 O1 N1 120.0000(20 5_554 9_655 ?
O1 O1 O1 180.000(3) 5_555 5_564 ?
O1 O1 O1 90.0000(19) 5_555 5_565 ?
O1 O1 O1 120.0000(20 5_555 9_554 ?
O1 O1 O1 60.0000(10) 5_555 9_555 ?
O1 O1 O1 120.0000(20 5_555 9_654 ?
O1 O1 O1 60.0000(10) 5_555 9_655 ?
O1 O1 N1 90.0000(19) 5_555 5_554 ?
O1 O1 N1 180.000(3) 5_555 5_564 ?
O1 O1 N1 90.0000(19) 5_555 5_565 ?
O1 O1 N1 120.0000(20 5_555 9_554 ?
O1 O1 N1 60.0000(10) 5_555 9_555 ?
O1 O1 N1 120.0000(20 5_555 9_654 ?
O1 O1 N1 60.0000(10) 5_555 9_655 ?
O1 O1 O1 90.0000(19) 5_564 5_565 ?
O1 O1 O1 60.0000(10) 5_564 9_554 ?
O1 O1 O1 120.0000(20 5_564 9_555 ?
O1 O1 O1 60.0000(10) 5_564 9_654 ?
O1 O1 O1 120.0000(20 5_564 9_655 ?
O1 O1 N1 90.0000(19) 5_564 5_554 ?
O1 O1 N1 180.000(3) 5_564 5_555 ?
O1 O1 N1 90.0000(19) 5_564 5_565 ?
O1 O1 N1 60.0000(10) 5_564 9_554 ?
O1 O1 N1 120.0000(20 5_564 9_555 ?
O1 O1 N1 60.0000(10) 5_564 9_654 ?
O1 O1 N1 120.0000(20 5_564 9_655 ?
O1 O1 O1 120.0000(20 5_565 9_554 ?
O1 O1 O1 60.0000(10) 5_565 9_555 ?
O1 O1 O1 120.0000(20 5_565 9_654 ?
O1 O1 O1 60.0000(10) 5_565 9_655 ?
O1 O1 N1 180.000(3) 5_565 5_554 ?
O1 O1 N1 90.0000(19) 5_565 5_555 ?
O1 O1 N1 90.0000(19) 5_565 5_564 ?
O1 O1 N1 120.0000(20 5_565 9_554 ?
O1 O1 N1 60.0000(10) 5_565 9_555 ?
O1 O1 N1 120.0000(20 5_565 9_654 ?
O1 O1 N1 60.0000(10) 5_565 9_655 ?
O1 O1 O1 90.0000(19) 9_554 9_555 ?
O1 O1 O1 90.0000(19) 9_554 9_654 ?
O1 O1 O1 180.000(3) 9_554 9_655 ?
O1 O1 N1 60.0000(10) 9_554 5_554 ?
O1 O1 N1 120.0000(20 9_554 5_555 ?
O1 O1 N1 60.0000(10) 9_554 5_564 ?
O1 O1 N1 120.0000(20 9_554 5_565 ?
O1 O1 N1 90.0000(19) 9_554 9_555 ?
O1 O1 N1 90.0000(19) 9_554 9_654 ?
O1 O1 N1 180.000(3) 9_554 9_655 ?
O1 O1 O1 180.000(3) 9_555 9_654 ?
O1 O1 O1 90.0000(19) 9_555 9_655 ?
O1 O1 N1 120.0000(20 9_555 5_554 ?
O1 O1 N1 60.0000(10) 9_555 5_555 ?
O1 O1 N1 120.0000(20 9_555 5_564 ?
O1 O1 N1 60.0000(10) 9_555 5_565 ?
O1 O1 N1 90.0000(19) 9_555 9_554 ?
O1 O1 N1 180.000(3) 9_555 9_654 ?
O1 O1 N1 90.0000(19) 9_555 9_655 ?
O1 O1 O1 90.0000(19) 9_654 9_655 ?
O1 O1 N1 60.0000(10) 9_654 5_554 ?
O1 O1 N1 120.0000(20 9_654 5_555 ?
O1 O1 N1 60.0000(10) 9_654 5_564 ?
O1 O1 N1 120.0000(20 9_654 5_565 ?
O1 O1 N1 90.0000(19) 9_654 9_554 ?
O1 O1 N1 180.000(3) 9_654 9_555 ?
O1 O1 N1 90.0000(19) 9_654 9_655 ?
O1 O1 N1 120.0000(20 9_655 5_554 ?
O1 O1 N1 60.0000(10) 9_655 5_555 ?
O1 O1 N1 120.0000(20 9_655 5_564 ?
O1 O1 N1 60.0000(10) 9_655 5_565 ?
O1 O1 N1 180.000(3) 9_655 9_554 ?
O1 O1 N1 90.0000(19) 9_655 9_555 ?
O1 O1 N1 90.0000(19) 9_655 9_654 ?
N1 O1 N1 90.0000(19) 5_554 5_555 ?
N1 O1 N1 90.0000(19) 5_554 5_564 ?
N1 O1 N1 180.000(3) 5_554 5_565 ?
N1 O1 N1 60.0000(10) 5_554 9_554 ?
N1 O1 N1 120.0000(20 5_554 9_555 ?
N1 O1 N1 60.0000(10) 5_554 9_654 ?
N1 O1 N1 120.0000(20 5_554 9_655 ?
N1 O1 N1 180.000(3) 5_555 5_564 ?
N1 O1 N1 90.0000(19) 5_555 5_565 ?
N1 O1 N1 120.0000(20 5_555 9_554 ?
N1 O1 N1 60.0000(10) 5_555 9_555 ?
N1 O1 N1 120.0000(20 5_555 9_654 ?
N1 O1 N1 60.0000(10) 5_555 9_655 ?
N1 O1 N1 90.0000(19) 5_564 5_565 ?
N1 O1 N1 60.0000(10) 5_564 9_554 ?
N1 O1 N1 120.0000(20 5_564 9_555 ?
N1 O1 N1 60.0000(10) 5_564 9_654 ?
N1 O1 N1 120.0000(20 5_564 9_655 ?
N1 O1 N1 120.0000(20 5_565 9_554 ?
N1 O1 N1 60.0000(10) 5_565 9_555 ?
N1 O1 N1 120.0000(20 5_565 9_654 ?
N1 O1 N1 60.0000(10) 5_565 9_655 ?
N1 O1 N1 90.0000(19) 9_554 9_555 ?
N1 O1 N1 90.0000(19) 9_554 9_654 ?
N1 O1 N1 180.000(3) 9_554 9_655 ?
N1 O1 N1 180.000(3) 9_555 9_654 ?
N1 O1 N1 90.0000(19) 9_555 9_655 ?
N1 O1 N1 90.0000(19) 9_654 9_655 ?
Ba1 N1 Ba1 90.0000(19) 1_555 1_565 ?
Ba1 N1 Ba1 90.0000(19) 1_555 1_655 ?
Ba1 N1 Ba1 180.000(3) 1_555 1_665 ?
Ba1 N1 Ta1 90.0000(14) 1_555 1_554 ?
Ba1 N1 Ta1 90.0000(14) 1_555 1_555 ?
Ba1 N1 O1 60.0000(10) 1_555 5_554 ?
Ba1 N1 O1 60.0000(10) 1_555 5_555 ?
Ba1 N1 O1 120.0000(20 1_555 5_564 ?
Ba1 N1 O1 120.0000(20 1_555 5_565 ?
Ba1 N1 O1 60.0000(10) 1_555 9_554 ?
Ba1 N1 O1 60.0000(10) 1_555 9_555 ?
Ba1 N1 O1 120.0000(20 1_555 9_654 ?
Ba1 N1 O1 120.0000(20 1_555 9_655 ?
Ba1 N1 N1 60.0000(10) 1_555 5_554 ?
Ba1 N1 N1 60.0000(10) 1_555 5_555 ?
Ba1 N1 N1 120.0000(20 1_555 5_564 ?
Ba1 N1 N1 120.0000(20 1_555 5_565 ?
Ba1 N1 N1 60.0000(10) 1_555 9_554 ?
Ba1 N1 N1 60.0000(10) 1_555 9_555 ?
Ba1 N1 N1 120.0000(20 1_555 9_654 ?
Ba1 N1 N1 120.0000(20 1_555 9_655 ?
Ba1 N1 Ba1 180.000(3) 1_565 1_655 ?
Ba1 N1 Ba1 90.0000(19) 1_565 1_665 ?
Ba1 N1 Ta1 90.0000(14) 1_565 1_554 ?
Ba1 N1 Ta1 90.0000(14) 1_565 1_555 ?
Ba1 N1 O1 120.0000(20 1_565 5_554 ?
Ba1 N1 O1 120.0000(20 1_565 5_555 ?
Ba1 N1 O1 60.0000(10) 1_565 5_564 ?
Ba1 N1 O1 60.0000(10) 1_565 5_565 ?
Ba1 N1 O1 60.0000(10) 1_565 9_554 ?
Ba1 N1 O1 60.0000(10) 1_565 9_555 ?
Ba1 N1 O1 120.0000(20 1_565 9_654 ?
Ba1 N1 O1 120.0000(20 1_565 9_655 ?
Ba1 N1 N1 120.0000(20 1_565 5_554 ?
Ba1 N1 N1 120.0000(20 1_565 5_555 ?
Ba1 N1 N1 60.0000(10) 1_565 5_564 ?
Ba1 N1 N1 60.0000(10) 1_565 5_565 ?
Ba1 N1 N1 60.0000(10) 1_565 9_554 ?
Ba1 N1 N1 60.0000(10) 1_565 9_555 ?
Ba1 N1 N1 120.0000(20 1_565 9_654 ?
Ba1 N1 N1 120.0000(20 1_565 9_655 ?
Ba1 N1 Ba1 90.0000(19) 1_655 1_665 ?
Ba1 N1 Ta1 90.0000(14) 1_655 1_554 ?
Ba1 N1 Ta1 90.0000(14) 1_655 1_555 ?
Ba1 N1 O1 60.0000(10) 1_655 5_554 ?
Ba1 N1 O1 60.0000(10) 1_655 5_555 ?
Ba1 N1 O1 120.0000(20 1_655 5_564 ?
Ba1 N1 O1 120.0000(20 1_655 5_565 ?
Ba1 N1 O1 120.0000(20 1_655 9_554 ?
Ba1 N1 O1 120.0000(20 1_655 9_555 ?
Ba1 N1 O1 60.0000(10) 1_655 9_654 ?
Ba1 N1 O1 60.0000(10) 1_655 9_655 ?
Ba1 N1 N1 60.0000(10) 1_655 5_554 ?
Ba1 N1 N1 60.0000(10) 1_655 5_555 ?
Ba1 N1 N1 120.0000(20 1_655 5_564 ?
Ba1 N1 N1 120.0000(20 1_655 5_565 ?
Ba1 N1 N1 120.0000(20 1_655 9_554 ?
Ba1 N1 N1 120.0000(20 1_655 9_555 ?
Ba1 N1 N1 60.0000(10) 1_655 9_654 ?
Ba1 N1 N1 60.0000(10) 1_655 9_655 ?
Ba1 N1 Ta1 90.0000(14) 1_665 1_554 ?
Ba1 N1 Ta1 90.0000(14) 1_665 1_555 ?
Ba1 N1 O1 120.0000(20 1_665 5_554 ?
Ba1 N1 O1 120.0000(20 1_665 5_555 ?
Ba1 N1 O1 60.0000(10) 1_665 5_564 ?
Ba1 N1 O1 60.0000(10) 1_665 5_565 ?
Ba1 N1 O1 120.0000(20 1_665 9_554 ?
Ba1 N1 O1 120.0000(20 1_665 9_555 ?
Ba1 N1 O1 60.0000(10) 1_665 9_654 ?
Ba1 N1 O1 60.0000(10) 1_665 9_655 ?
Ba1 N1 N1 120.0000(20 1_665 5_554 ?
Ba1 N1 N1 120.0000(20 1_665 5_555 ?
Ba1 N1 N1 60.0000(10) 1_665 5_564 ?
Ba1 N1 N1 60.0000(10) 1_665 5_565 ?
Ba1 N1 N1 120.0000(20 1_665 9_554 ?
Ba1 N1 N1 120.0000(20 1_665 9_555 ?
Ba1 N1 N1 60.0000(10) 1_665 9_654 ?
Ba1 N1 N1 60.0000(10) 1_665 9_655 ?
Ta1 N1 Ta1 180.000(4) 1_554 1_555 ?
Ta1 N1 O1 45.0000(12) 1_554 5_554 ?
Ta1 N1 O1 135.000(3) 1_554 5_555 ?
Ta1 N1 O1 45.0000(12) 1_554 5_564 ?
Ta1 N1 O1 135.000(3) 1_554 5_565 ?
Ta1 N1 O1 45.0000(12) 1_554 9_554 ?
Ta1 N1 O1 135.000(3) 1_554 9_555 ?
Ta1 N1 O1 45.0000(12) 1_554 9_654 ?
Ta1 N1 O1 135.000(3) 1_554 9_655 ?
Ta1 N1 N1 45.0000(12) 1_554 5_554 ?
Ta1 N1 N1 135.000(3) 1_554 5_555 ?
Ta1 N1 N1 45.0000(12) 1_554 5_564 ?
Ta1 N1 N1 135.000(3) 1_554 5_565 ?
Ta1 N1 N1 45.0000(12) 1_554 9_554 ?
Ta1 N1 N1 135.000(3) 1_554 9_555 ?
Ta1 N1 N1 45.0000(12) 1_554 9_654 ?
Ta1 N1 N1 135.000(3) 1_554 9_655 ?
Ta1 N1 O1 135.000(3) 1_555 5_554 ?
Ta1 N1 O1 45.0000(12) 1_555 5_555 ?
Ta1 N1 O1 135.000(3) 1_555 5_564 ?
Ta1 N1 O1 45.0000(12) 1_555 5_565 ?
Ta1 N1 O1 135.000(3) 1_555 9_554 ?
Ta1 N1 O1 45.0000(12) 1_555 9_555 ?
Ta1 N1 O1 135.000(3) 1_555 9_654 ?
Ta1 N1 O1 45.0000(12) 1_555 9_655 ?
Ta1 N1 N1 135.000(3) 1_555 5_554 ?
Ta1 N1 N1 45.0000(12) 1_555 5_555 ?
Ta1 N1 N1 135.000(3) 1_555 5_564 ?
Ta1 N1 N1 45.0000(12) 1_555 5_565 ?
Ta1 N1 N1 135.000(3) 1_555 9_554 ?
Ta1 N1 N1 45.0000(12) 1_555 9_555 ?
Ta1 N1 N1 135.000(3) 1_555 9_654 ?
Ta1 N1 N1 45.0000(12) 1_555 9_655 ?
O1 N1 O1 90.0000(19) 5_554 5_555 ?
O1 N1 O1 90.0000(19) 5_554 5_564 ?
O1 N1 O1 180.000(3) 5_554 5_565 ?
O1 N1 O1 60.0000(10) 5_554 9_554 ?
O1 N1 O1 120.0000(20 5_554 9_555 ?
O1 N1 O1 60.0000(10) 5_554 9_654 ?
O1 N1 O1 120.0000(20 5_554 9_655 ?
O1 N1 N1 90.0000(19) 5_554 5_555 ?
O1 N1 N1 90.0000(19) 5_554 5_564 ?
O1 N1 N1 180.000(3) 5_554 5_565 ?
O1 N1 N1 60.0000(10) 5_554 9_554 ?
O1 N1 N1 120.0000(20 5_554 9_555 ?
O1 N1 N1 60.0000(10) 5_554 9_654 ?
O1 N1 N1 120.0000(20 5_554 9_655 ?
O1 N1 O1 180.000(3) 5_555 5_564 ?
O1 N1 O1 90.0000(19) 5_555 5_565 ?
O1 N1 O1 120.0000(20 5_555 9_554 ?
O1 N1 O1 60.0000(10) 5_555 9_555 ?
O1 N1 O1 120.0000(20 5_555 9_654 ?
O1 N1 O1 60.0000(10) 5_555 9_655 ?
O1 N1 N1 90.0000(19) 5_555 5_554 ?
O1 N1 N1 180.000(3) 5_555 5_564 ?
O1 N1 N1 90.0000(19) 5_555 5_565 ?
O1 N1 N1 120.0000(20 5_555 9_554 ?
O1 N1 N1 60.0000(10) 5_555 9_555 ?
O1 N1 N1 120.0000(20 5_555 9_654 ?
O1 N1 N1 60.0000(10) 5_555 9_655 ?
O1 N1 O1 90.0000(19) 5_564 5_565 ?
O1 N1 O1 60.0000(10) 5_564 9_554 ?
O1 N1 O1 120.0000(20 5_564 9_555 ?
O1 N1 O1 60.0000(10) 5_564 9_654 ?
O1 N1 O1 120.0000(20 5_564 9_655 ?
O1 N1 N1 90.0000(19) 5_564 5_554 ?
O1 N1 N1 180.000(3) 5_564 5_555 ?
O1 N1 N1 90.0000(19) 5_564 5_565 ?
O1 N1 N1 60.0000(10) 5_564 9_554 ?
O1 N1 N1 120.0000(20 5_564 9_555 ?
O1 N1 N1 60.0000(10) 5_564 9_654 ?
O1 N1 N1 120.0000(20 5_564 9_655 ?
O1 N1 O1 120.0000(20 5_565 9_554 ?
O1 N1 O1 60.0000(10) 5_565 9_555 ?
O1 N1 O1 120.0000(20 5_565 9_654 ?
O1 N1 O1 60.0000(10) 5_565 9_655 ?
O1 N1 N1 180.000(3) 5_565 5_554 ?
O1 N1 N1 90.0000(19) 5_565 5_555 ?
O1 N1 N1 90.0000(19) 5_565 5_564 ?
O1 N1 N1 120.0000(20 5_565 9_554 ?
O1 N1 N1 60.0000(10) 5_565 9_555 ?
O1 N1 N1 120.0000(20 5_565 9_654 ?
O1 N1 N1 60.0000(10) 5_565 9_655 ?
O1 N1 O1 90.0000(19) 9_554 9_555 ?
O1 N1 O1 90.0000(19) 9_554 9_654 ?
O1 N1 O1 180.000(3) 9_554 9_655 ?
O1 N1 N1 60.0000(10) 9_554 5_554 ?
O1 N1 N1 120.0000(20 9_554 5_555 ?
O1 N1 N1 60.0000(10) 9_554 5_564 ?
O1 N1 N1 120.0000(20 9_554 5_565 ?
O1 N1 N1 90.0000(19) 9_554 9_555 ?
O1 N1 N1 90.0000(19) 9_554 9_654 ?
O1 N1 N1 180.000(3) 9_554 9_655 ?
O1 N1 O1 180.000(3) 9_555 9_654 ?
O1 N1 O1 90.0000(19) 9_555 9_655 ?
O1 N1 N1 120.0000(20 9_555 5_554 ?
O1 N1 N1 60.0000(10) 9_555 5_555 ?
O1 N1 N1 120.0000(20 9_555 5_564 ?
O1 N1 N1 60.0000(10) 9_555 5_565 ?
O1 N1 N1 90.0000(19) 9_555 9_554 ?
O1 N1 N1 180.000(3) 9_555 9_654 ?
O1 N1 N1 90.0000(19) 9_555 9_655 ?
O1 N1 O1 90.0000(19) 9_654 9_655 ?
O1 N1 N1 60.0000(10) 9_654 5_554 ?
O1 N1 N1 120.0000(20 9_654 5_555 ?
O1 N1 N1 60.0000(10) 9_654 5_564 ?
O1 N1 N1 120.0000(20 9_654 5_565 ?
O1 N1 N1 90.0000(19) 9_654 9_554 ?
O1 N1 N1 180.000(3) 9_654 9_555 ?
O1 N1 N1 90.0000(19) 9_654 9_655 ?
O1 N1 N1 120.0000(20 9_655 5_554 ?
O1 N1 N1 60.0000(10) 9_655 5_555 ?
O1 N1 N1 120.0000(20 9_655 5_564 ?
O1 N1 N1 60.0000(10) 9_655 5_565 ?
O1 N1 N1 180.000(3) 9_655 9_554 ?
O1 N1 N1 90.0000(19) 9_655 9_555 ?
O1 N1 N1 90.0000(19) 9_655 9_654 ?
N1 N1 N1 90.0000(19) 5_554 5_555 ?
N1 N1 N1 90.0000(19) 5_554 5_564 ?
N1 N1 N1 180.000(3) 5_554 5_565 ?
N1 N1 N1 60.0000(10) 5_554 9_554 ?
N1 N1 N1 120.0000(20 5_554 9_555 ?
N1 N1 N1 60.0000(10) 5_554 9_654 ?
N1 N1 N1 120.0000(20 5_554 9_655 ?
N1 N1 N1 180.000(3) 5_555 5_564 ?
N1 N1 N1 90.0000(19) 5_555 5_565 ?
N1 N1 N1 120.0000(20 5_555 9_554 ?
N1 N1 N1 60.0000(10) 5_555 9_555 ?
N1 N1 N1 120.0000(20 5_555 9_654 ?
N1 N1 N1 60.0000(10) 5_555 9_655 ?
N1 N1 N1 90.0000(19) 5_564 5_565 ?
N1 N1 N1 60.0000(10) 5_564 9_554 ?
N1 N1 N1 120.0000(20 5_564 9_555 ?
N1 N1 N1 60.0000(10) 5_564 9_654 ?
N1 N1 N1 120.0000(20 5_564 9_655 ?
N1 N1 N1 120.0000(20 5_565 9_554 ?
N1 N1 N1 60.0000(10) 5_565 9_555 ?
N1 N1 N1 120.0000(20 5_565 9_654 ?
N1 N1 N1 60.0000(10) 5_565 9_655 ?
N1 N1 N1 90.0000(19) 9_554 9_555 ?
N1 N1 N1 90.0000(19) 9_554 9_654 ?
N1 N1 N1 180.000(3) 9_554 9_655 ?
N1 N1 N1 180.000(3) 9_555 9_654 ?
N1 N1 N1 90.0000(19) 9_555 9_655 ?
N1 N1 N1 90.0000(19) 9_654 9_655 ?
loop_
_geom_bond_atom_site_label_1
_geom_bond_atom_site_label_2
_geom_bond_distance
_geom_bond_site_symmetry_2
_geom_bond_publ_flag
Ba1 Ta1 3.56073(3) 1_444 ?
Ba1 Ta1 3.56073(3) 1_445 ?
Ba1 Ta1 3.56073(3) 1_454 ?
Ba1 Ta1 3.56073(3) 1_455 ?
Ba1 Ta1 3.56073(3) 1_544 ?
Ba1 Ta1 3.56073(3) 1_545 ?
Ba1 Ta1 3.56073(3) 1_554 ?
Ba1 Ta1 3.56073(3) 1_555 ?
Ba1 O1 2.90733(3) 1_445 ?
Ba1 O1 2.90733(3) 1_455 ?
Ba1 O1 2.90733(3) 1_545 ?
Ba1 O1 2.90733(3) 1_555 ?
Ba1 O1 2.90733(3) 5_454 ?
Ba1 O1 2.90733(3) 5_455 ?
Ba1 O1 2.90733(3) 5_554 ?
Ba1 O1 2.90733(3) 5_555 ?
Ba1 O1 2.90733(3) 9_544 ?
Ba1 O1 2.90733(3) 9_545 ?
Ba1 O1 2.90733(3) 9_554 ?
Ba1 O1 2.90733(3) 9_555 ?
Ba1 N1 2.90733(3) 1_445 ?
Ba1 N1 2.90733(3) 1_455 ?
Ba1 N1 2.90733(3) 1_545 ?
Ba1 N1 2.90733(3) 1_555 ?
Ba1 N1 2.90733(3) 5_454 ?
Ba1 N1 2.90733(3) 5_455 ?
Ba1 N1 2.90733(3) 5_554 ?
Ba1 N1 2.90733(3) 5_555 ?
Ba1 N1 2.90733(3) 9_544 ?
Ba1 N1 2.90733(3) 9_545 ?
Ba1 N1 2.90733(3) 9_554 ?
Ba1 N1 2.90733(3) 9_555 ?
Ta1 Ba1 3.56073(3) 1_555 ?
Ta1 Ba1 3.56073(3) 1_556 ?
Ta1 Ba1 3.56073(3) 1_565 ?
Ta1 Ba1 3.56073(3) 1_566 ?
Ta1 Ba1 3.56073(3) 1_655 ?
Ta1 Ba1 3.56073(3) 1_656 ?
Ta1 Ba1 3.56073(3) 1_665 ?
Ta1 Ba1 3.56073(3) 1_666 ?
Ta1 O1 2.05579(3) 1_555 ?
Ta1 O1 2.05579(3) 1_556 ?
Ta1 O1 2.05579(3) 5_555 ?
Ta1 O1 2.05579(3) 5_565 ?
Ta1 O1 2.05579(3) 9_555 ?
Ta1 O1 2.05579(3) 9_655 ?
Ta1 N1 2.05579(3) 1_555 ?
Ta1 N1 2.05579(3) 1_556 ?
Ta1 N1 2.05579(3) 5_555 ?
Ta1 N1 2.05579(3) 5_565 ?
Ta1 N1 2.05579(3) 9_555 ?
Ta1 N1 2.05579(3) 9_655 ?
O1 Ba1 2.90733(3) 1_555 ?
O1 Ba1 2.90733(3) 1_565 ?
O1 Ba1 2.90733(3) 1_655 ?
O1 Ba1 2.90733(3) 1_665 ?
O1 Ta1 2.05579(3) 1_554 ?
O1 Ta1 2.05579(3) 1_555 ?
O1 O1 2.90733(3) 5_554 ?
O1 O1 2.90733(3) 5_555 ?
O1 O1 2.90733(3) 5_564 ?
O1 O1 2.90733(3) 5_565 ?
O1 O1 2.90733(3) 9_554 ?
O1 O1 2.90733(3) 9_555 ?
O1 O1 2.90733(3) 9_654 ?
O1 O1 2.90733(3) 9_655 ?
O1 N1 2.90733(3) 5_554 ?
O1 N1 2.90733(3) 5_555 ?
O1 N1 2.90733(3) 5_564 ?
O1 N1 2.90733(3) 5_565 ?
O1 N1 2.90733(3) 9_554 ?
O1 N1 2.90733(3) 9_555 ?
O1 N1 2.90733(3) 9_654 ?
O1 N1 2.90733(3) 9_655 ?
N1 Ba1 2.90733(3) 1_555 ?
N1 Ba1 2.90733(3) 1_565 ?
N1 Ba1 2.90733(3) 1_655 ?
N1 Ba1 2.90733(3) 1_665 ?
N1 Ta1 2.05579(3) 1_554 ?
N1 Ta1 2.05579(3) 1_555 ?
N1 O1 2.90733(3) 5_554 ?
N1 O1 2.90733(3) 5_555 ?
N1 O1 2.90733(3) 5_564 ?
N1 O1 2.90733(3) 5_565 ?
N1 O1 2.90733(3) 9_554 ?
N1 O1 2.90733(3) 9_555 ?
N1 O1 2.90733(3) 9_654 ?
N1 O1 2.90733(3) 9_655 ?
N1 N1 2.90733(3) 5_554 ?
N1 N1 2.90733(3) 5_555 ?
N1 N1 2.90733(3) 5_564 ?
N1 N1 2.90733(3) 5_565 ?
N1 N1 2.90733(3) 9_554 ?
N1 N1 2.90733(3) 9_555 ?
N1 N1 2.90733(3) 9_654 ?
N1 N1 2.90733(3) 9_655 ?
loop_
_pd_proc_point_id
_pd_proc_2theta_corrected
_pd_proc_intensity_total
_pd_calc_intensity_total
_pd_proc_intensity_bkg_calc
1 10.1691 8526(92) 8636.8438 8636.8438
2 10.1951 8577(93) 8624.8369 8624.8369
3 10.2211 8601(93) 8612.8311 8612.8311
4 10.2471 8628(93) 8600.8252 8600.8252
5 10.2731 8482(92) 8588.8193 8588.8193
6 10.2991 8633(93) 8576.8135 8576.8135
7 10.3251 8663(93) 8564.8076 8564.8076
8 10.3511 8507(92) 8552.8018 8552.8018
9 10.3771 8434(92) 8540.7959 8540.7959
10 10.4031 8526(92) 8528.7900 8528.7900
11 10.4291 8423(92) 8516.7842 8516.7842
12 10.4551 8466(92) 8504.7773 8504.7773
13 10.4811 8428(92) 8492.7715 8492.7715
14 10.5071 8517(92) 8480.7656 8480.7656
15 10.5331 8397(92) 8468.7598 8468.7598
16 10.5591 8458(92) 8456.7539 8456.7539
17 10.5851 8447(92) 8444.7480 8444.7480
18 10.6111 8344(91) 8432.7422 8432.7422
19 10.6371 8433(92) 8420.7363 8420.7363
20 10.6631 8409(92) 8408.7305 8408.7305
21 10.6891 8508(92) 8396.7246 8396.7246
22 10.7151 8345(91) 8384.7188 8384.7188
23 10.7411 8322(91) 8372.7129 8372.7129
24 10.7671 8301(91) 8360.7070 8360.7070
25 10.7931 8463(92) 8348.7012 8348.7012
26 10.8191 8468(92) 8336.6953 8336.6953
27 10.8451 8264(91) 8324.6895 8324.6895
28 10.8711 8331(91) 8312.6826 8312.6826
29 10.8971 8297(91) 8300.6768 8300.6768
30 10.9231 8269(91) 8288.6709 8288.6709
31 10.9491 8273(91) 8276.6650 8276.6650
32 10.9751 8222(91) 8264.6592 8264.6592
33 11.0011 8216(91) 8252.6533 8252.6533
34 11.0271 8194(91) 8240.6475 8240.6475
35 11.0531 8140(90) 8228.6416 8228.6416
36 11.0791 8161(90) 8216.6357 8216.6357
37 11.1051 8244(91) 8204.6289 8204.6289
38 11.1311 8188(90) 8192.6230 8192.6230
39 11.1571 8218(91) 8180.6177 8180.6177
40 11.1831 8223(91) 8168.6113 8168.6113
41 11.2091 8085(90) 8156.6055 8156.6055
42 11.2351 8110(90) 8144.5996 8144.5996
43 11.2611 8156(90) 8132.5938 8132.5938
44 11.2871 8105(90) 8120.5879 8120.5879
45 11.3131 8060(90) 8108.5820 8108.5820
46 11.3391 8153(90) 8096.5757 8096.5757
47 11.3651 8169(90) 8084.5698 8084.5698
48 11.3911 8127(90) 8072.5640 8072.5640
49 11.4171 8107(90) 8060.5581 8060.5581
50 11.4431 8113(90) 8048.5518 8048.5518
51 11.4691 8158(90) 8036.5459 8036.5459
52 11.4951 7994(89) 8024.5400 8024.5400
53 11.5211 7999(89) 8012.5342 8012.5342
54 11.5471 8029(90) 8000.5283 8000.5283
55 11.5731 7950(89) 7988.5225 7988.5225
56 11.5991 7922(89) 7976.5161 7976.5161
57 11.6251 7923(89) 7964.5103 7964.5103
58 11.6511 7911(89) 7952.5044 7952.5044
59 11.6771 7988(89) 7940.4985 7940.4985
60 11.7031 8033(90) 7928.4922 7928.4922
61 11.7291 7880(89) 7916.4863 7916.4863
62 11.7551 7834(89) 7904.4810 7904.4810
63 11.7811 7901(89) 7892.4751 7892.4751
64 11.8071 7962(89) 7880.4692 7880.4692
65 11.8331 7877(89) 7868.4629 7868.4629
66 11.8591 7867(89) 7856.4570 7856.4570
67 11.8851 7773(88) 7844.4512 7844.4512
68 11.9111 7774(88) 7832.4453 7832.4453
69 11.9371 7787(88) 7820.4395 7820.4395
70 11.9631 7887(89) 7808.4336 7808.4336
71 11.9891 7817(88) 7796.4272 7796.4272
72 12.0151 7841(89) 7784.4214 7784.4214
73 12.0411 7921(89) 7772.4155 7772.4155
74 12.0671 7792(88) 7760.4097 7760.4097
75 12.0931 7881(89) 7748.4033 7748.4033
76 12.1191 7868(89) 7736.3975 7736.3975
77 12.1451 7767(88) 7724.3916 7724.3916
78 12.1711 7783(88) 7712.3857 7712.3857
79 12.1971 7684(88) 7700.3799 7700.3799
80 12.2231 7874(89) 7688.3740 7688.3740
81 12.2491 7716(88) 7676.3677 7676.3677
82 12.2751 7738(88) 7664.3618 7664.3618
83 12.3011 7484(87) 7652.3560 7652.3560
84 12.3271 7633(87) 7640.3501 7640.3501
85 12.3531 7661(88) 7628.3438 7628.3438
86 12.3791 7604(87) 7616.3379 7616.3379
87 12.4051 7506(87) 7604.3320 7604.3320
88 12.4311 7520(87) 7592.3262 7592.3262
89 12.4571 7453(86) 7580.3203 7580.3203
90 12.4831 7529(87) 7568.3145 7568.3145
91 12.5091 7547(87) 7556.3081 7556.3081
92 12.5351 7682(88) 7544.3022 7544.3022
93 12.5611 7588(87) 7532.2964 7532.2964
94 12.5871 7486(87) 7520.2905 7520.2905
95 12.6131 7454(86) 7508.2842 7508.2842
96 12.6391 7399(86) 7496.2783 7496.2783
97 12.6651 7451(86) 7484.2725 7484.2725
98 12.6911 7553(87) 7472.2666 7472.2666
99 12.7171 7396(86) 7460.2607 7460.2607
100 12.7431 7465(86) 7448.2549 7448.2549
101 12.7691 7549(87) 7436.2490 7436.2490
102 12.7951 7426(86) 7424.2427 7424.2427
103 12.8211 7411(86) 7412.2368 7412.2368
104 12.8471 7461(86) 7400.2314 7400.2314
105 12.8731 7445(86) 7388.2256 7388.2256
106 12.8991 7310(85) 7376.2192 7376.2192
107 12.9251 7303(85) 7364.2134 7364.2134
108 12.9511 7271(85) 7352.2075 7352.2075
109 12.9771 7382(86) 7340.2017 7340.2017
110 13.0031 7361(86) 7328.1953 7328.1953
111 13.0291 7361(86) 7316.1895 7316.1895
112 13.0551 7217(85) 7304.1836 7304.1836
113 13.0811 7365(86) 7292.1777 7292.1777
114 13.1071 7376(86) 7280.1719 7280.1719
115 13.1331 7259(85) 7268.1660 7268.1660
116 13.1591 7121(84) 7256.1597 7256.1597
117 13.1851 7267(85) 7244.1538 7244.1538
118 13.2111 7251(85) 7232.1479 7232.1479
119 13.2371 7185(85) 7220.1421 7220.1421
120 13.2631 7273(85) 7208.1357 7208.1357
121 13.2891 7217(85) 7196.1299 7196.1299
122 13.3151 7197(85) 7184.1240 7184.1240
123 13.3411 7134(84) 7172.1182 7172.1182
124 13.3671 7126(84) 7160.1123 7160.1123
125 13.3931 7175(85) 7148.1064 7148.1064
126 13.4191 7229(85) 7136.1006 7136.1006
127 13.4451 7228(85) 7124.0942 7124.0942
128 13.4711 7113(84) 7112.0884 7112.0884
129 13.4971 7116(84) 7100.0825 7100.0825
130 13.5231 7112(84) 7088.0767 7088.0767
131 13.5491 7077(84) 7076.0703 7076.0703
132 13.5751 7070(84) 7064.0645 7064.0645
133 13.6011 7128(84) 7052.0586 7052.0586
134 13.6271 7099(84) 7040.0527 7040.0527
135 13.6531 7130(84) 7028.0469 7028.0469
136 13.6791 7089(84) 7016.0410 7016.0410
137 13.7051 7030(84) 7004.0347 7004.0347
138 13.7311 6990(84) 6992.0288 6992.0288
139 13.7571 6947(83) 6980.0229 6980.0229
140 13.7831 7006(84) 6968.0171 6968.0171
141 13.8091 7022(84) 6956.0107 6956.0107
142 13.8351 6985(84) 6944.0049 6944.0049
143 13.8611 6841(83) 6931.9990 6931.9990
144 13.8871 6890(83) 6919.9932 6919.9932
145 13.9131 6980(84) 6907.9873 6907.9873
146 13.9391 6882(83) 6895.9814 6895.9814
147 13.9651 6885(83) 6883.9756 6883.9756
148 13.9911 6963(83) 6871.9697 6871.9697
149 14.0171 6938(83) 6859.9639 6859.9639
150 14.0431 6921(83) 6847.9580 6847.9580
151 14.0691 6893(83) 6835.9521 6835.9521
152 14.0951 6766(82) 6823.9458 6823.9458
153 14.1211 6768(82) 6811.9399 6811.9399
154 14.1471 6836(83) 6799.9341 6799.9341
155 14.1731 6908(83) 6787.9282 6787.9282
156 14.1991 6935(83) 6777.1768 6777.1768
157 14.2251 6951(83) 6767.9053 6767.9053
158 14.2511 6954(83) 6758.6338 6758.6338
159 14.2771 6886(83) 6749.3623 6749.3623
160 14.3031 6823(83) 6740.0908 6740.0908
161 14.3291 6768(82) 6730.8198 6730.8198
162 14.3551 6745(82) 6721.5483 6721.5483
163 14.3811 6785(82) 6712.2769 6712.2769
164 14.4071 6833(83) 6703.0054 6703.0054
165 14.4331 6797(82) 6693.7339 6693.7339
166 14.4591 6774(82) 6684.4624 6684.4624
167 14.4851 6783(82) 6675.1909 6675.1909
168 14.5111 6715(82) 6665.9194 6665.9194
169 14.5371 6752(82) 6656.6479 6656.6479
170 14.5631 6623(81) 6647.3765 6647.3765
171 14.5891 6600(81) 6638.1050 6638.1050
172 14.6151 6627(81) 6628.8335 6628.8335
173 14.6411 6621(81) 6619.5625 6619.5625
174 14.6671 6737(82) 6610.2910 6610.2910
175 14.6931 6703(82) 6601.0195 6601.0195
176 14.7191 6565(81) 6591.7480 6591.7480
177 14.7451 6519(81) 6582.4766 6582.4766
178 14.7711 6667(82) 6573.2051 6573.2051
179 14.7971 6545(81) 6563.9336 6563.9336
180 14.8231 6565(81) 6554.6621 6554.6621
181 14.8491 6608(81) 6545.3906 6545.3906
182 14.8751 6478(80) 6536.1191 6536.1191
183 14.9011 6492(81) 6526.8477 6526.8477
184 14.9271 6528(81) 6517.5762 6517.5762
185 14.9531 6410(80) 6508.3047 6508.3047
186 14.9791 6541(81) 6499.0337 6499.0337
187 15.0051 6562(81) 6489.7622 6489.7622
188 15.0311 6595(81) 6480.4912 6480.4912
189 15.0571 6463(80) 6471.2197 6471.2197
190 15.0831 6418(80) 6461.9482 6461.9482
191 15.1091 6625(81) 6452.6768 6452.6768
192 15.1351 6404(80) 6443.4053 6443.4053
193 15.1611 6580(81) 6434.1338 6434.1338
194 15.1871 6413(80) 6424.8623 6424.8623
195 15.2131 6364(80) 6415.5908 6415.5908
196 15.2391 6243(79) 6406.3193 6406.3193
197 15.2651 6282(79) 6397.0479 6397.0479
198 15.2911 6388(80) 6387.7764 6387.7764
199 15.3171 6393(80) 6378.5049 6378.5049
200 15.3431 6241(79) 6369.2334 6369.2334
201 15.3691 6406(80) 6359.9624 6359.9624
202 15.3951 6474(80) 6350.6909 6350.6909
203 15.4211 6368(80) 6341.4194 6341.4194
204 15.4471 6304(79) 6332.1479 6332.1479
205 15.4731 6285(79) 6322.8765 6322.8765
206 15.4991 6334(80) 6313.6050 6313.6050
207 15.5251 6278(79) 6304.3335 6304.3335
208 15.5511 6256(79) 6295.0620 6295.0620
209 15.5771 6320(79) 6285.7905 6285.7905
210 15.6031 6359(80) 6276.5190 6276.5190
211 15.6291 6236(79) 6267.2476 6267.2476
212 15.6551 6213(79) 6257.9766 6257.9766
213 15.6811 6108(78) 6248.7051 6248.7051
214 15.7071 6050(78) 6239.4336 6239.4336
215 15.7331 6169(79) 6230.1621 6230.1621
216 15.7591 6257(79) 6220.8906 6220.8906
217 15.7851 6116(78) 6211.6191 6211.6191
218 15.8111 6150(78) 6202.3477 6202.3477
219 15.8371 6252(79) 6193.0762 6193.0762
220 15.8631 6166(79) 6183.8047 6183.8047
221 15.8891 6262(79) 6174.5332 6174.5332
222 15.9151 6200(79) 6165.2617 6165.2617
223 15.9411 6009(78) 6155.9902 6155.9902
224 15.9671 6038(78) 6146.7188 6146.7188
225 15.9931 6078(78) 6137.4473 6137.4473
226 16.0191 6060(78) 6128.1763 6128.1763
227 16.0451 6111(78) 6118.9048 6118.9048
228 16.0711 6200(79) 6109.6333 6109.6333
229 16.0971 6143(78) 6100.3623 6100.3623
230 16.1231 6165(79) 6091.0903 6091.0903
231 16.1491 6035(78) 6081.8193 6081.8193
232 16.1751 6096(78) 6072.5474 6072.5474
233 16.2011 6063(78) 6063.2764 6063.2764
234 16.2271 6051(78) 6054.0044 6054.0044
235 16.2531 5960(77) 6044.7334 6044.7334
236 16.2791 6010(78) 6035.4614 6035.4614
237 16.3051 6019(78) 6026.1904 6026.1904
238 16.3311 6022(78) 6016.9189 6016.9189
239 16.3571 6023(78) 6007.6475 6007.6475
240 16.3831 5901(77) 5998.3760 5998.3760
241 16.4091 5909(77) 5989.1045 5989.1045
242 16.4351 5897(77) 5979.8330 5979.8330
243 16.4611 5967(77) 5970.5620 5970.5620
244 16.4871 6008(78) 5961.2900 5961.2900
245 16.5131 5885(77) 5952.0190 5952.0190
246 16.5391 5840(76) 5942.7471 5942.7471
247 16.5651 5926(77) 5933.4761 5933.4761
248 16.5911 5917(77) 5924.2041 5924.2041
249 16.6171 5881(77) 5914.9331 5914.9331
250 16.6431 5805(76) 5905.6621 5905.6621
251 16.6691 5779(76) 5896.3901 5896.3901
252 16.6951 5851(76) 5887.1191 5887.1191
253 16.7211 5843(76) 5877.8477 5877.8477
254 16.7471 5858(77) 5868.5762 5868.5762
255 16.7731 5722(76) 5859.3047 5859.3047
256 16.7991 5675(75) 5850.0332 5850.0332
257 16.8251 5635(75) 5840.7617 5840.7617
258 16.8511 5671(75) 5831.4907 5831.4907
259 16.8771 5743(76) 5822.2188 5822.2188
260 16.9031 5766(76) 5812.9478 5812.9478
261 16.9291 5771(76) 5803.6758 5803.6758
262 16.9551 5794(76) 5794.4048 5794.4048
263 16.9811 5883(77) 5785.1328 5785.1328
264 17.0071 5806(76) 5775.8618 5775.8618
265 17.0331 5736(76) 5766.5898 5766.5898
266 17.0591 5656(75) 5757.3188 5757.3188
267 17.0851 5775(76) 5748.0474 5748.0474
268 17.1111 5821(76) 5738.7764 5738.7764
269 17.1371 5642(75) 5729.5044 5729.5044
270 17.1631 5687(75) 5720.2334 5720.2334
271 17.1891 5528(74) 5710.9614 5710.9614
272 17.2151 5592(75) 5701.6904 5701.6904
273 17.2411 5617(75) 5692.4185 5692.4185
274 17.2671 5661(75) 5683.1475 5683.1475
275 17.2931 5624(75) 5673.8755 5673.8755
276 17.3191 5661(75) 5664.6045 5664.6045
277 17.3451 5553(75) 5655.3330 5655.3330
278 17.3711 5493(74) 5646.0615 5646.0615
279 17.3971 5579(75) 5636.7900 5636.7900
280 17.4231 5562(75) 5627.5186 5627.5186
281 17.4491 5593(75) 5618.2471 5618.2471
282 17.4751 5628(75) 5608.9756 5608.9756
283 17.5011 5663(75) 5599.7041 5599.7041
284 17.5271 5644(75) 5590.4331 5590.4331
285 17.5531 5565(75) 5581.1611 5581.1611
286 17.5791 5727(76) 5571.8901 5571.8901
287 17.6051 5505(74) 5562.6182 5562.6182
288 17.6311 5506(74) 5553.3472 5553.3472
289 17.6571 5447(74) 5544.0752 5544.0752
290 17.6831 5415(74) 5534.8042 5534.8042
291 17.7091 5525(74) 5525.5332 5525.5332
292 17.7351 5493(74) 5516.2617 5516.2617
293 17.7611 5346(73) 5506.9902 5506.9902
294 17.7871 5415(74) 5497.7188 5497.7188
295 17.8131 5542(74) 5488.4473 5488.4473
296 17.8391 5402(73) 5479.1758 5479.1758
297 17.8651 5296(73) 5469.9043 5469.9043
298 17.8911 5355(73) 5460.6328 5460.6328
299 17.9171 5391(73) 5451.3618 5451.3618
300 17.9431 5398(73) 5442.0898 5442.0898
301 17.9691 5406(74) 5432.8188 5432.8188
302 17.9951 5448(74) 5423.5469 5423.5469
303 18.0211 5445(74) 5414.2759 5414.2759
304 18.0471 5387(73) 5405.0039 5405.0039
305 18.0731 5360(73) 5395.7329 5395.7329
306 18.0991 5342(73) 5386.4609 5386.4609
307 18.1251 5389(73) 5377.1904 5377.1904
308 18.1511 5322(73) 5367.9185 5367.9185
309 18.1771 5242(72) 5358.6475 5358.6475
310 18.2031 5313(73) 5349.3755 5349.3755
311 18.2291 5297(73) 5340.1045 5340.1045
312 18.2551 5291(73) 5330.8325 5330.8325
313 18.2811 5313(73) 5321.5615 5321.5615
314 18.3071 5268(73) 5312.2896 5312.2896
315 18.3331 5340(73) 5303.0186 5303.0186
316 18.3591 5326(73) 5293.7471 5293.7471
317 18.3851 5267(73) 5284.4756 5284.4756
318 18.4111 5224(72) 5275.2041 5275.2041
319 18.4371 5230(72) 5265.9326 5265.9326
320 18.4631 5151(72) 5256.6611 5256.6611
321 18.4891 5197(72) 5247.3896 5247.3896
322 18.5151 5124(72) 5238.1182 5238.1182
323 18.5411 5195(72) 5228.8472 5228.8472
324 18.5671 5229(72) 5219.5752 5219.5752
325 18.5931 5171(72) 5210.3042 5210.3042
326 18.6191 5133(72) 5201.0322 5201.0322
327 18.6451 5114(72) 5191.7612 5191.7612
328 18.6711 5187(72) 5182.4893 5182.4893
329 18.6971 5221(72) 5173.2183 5173.2183
330 18.7231 5090(71) 5163.9463 5163.9463
331 18.7491 5027(71) 5154.6753 5154.6753
332 18.7751 5085(71) 5145.4038 5145.4038
333 18.8011 5105(71) 5136.1328 5136.1328
334 18.8271 5138(72) 5126.8613 5126.8613
335 18.8531 5164(72) 5117.5898 5117.5898
336 18.8791 5142(72) 5108.3184 5108.3184
337 18.9051 5079(71) 5099.0469 5099.0469
338 18.9311 5168(72) 5089.7759 5089.7759
339 18.9571 5108(71) 5080.5039 5080.5039
340 18.9831 5008(71) 5071.2329 5071.2329
341 19.0091 5095(71) 5061.9609 5061.9609
342 19.0351 5156(72) 5052.6899 5052.6899
343 19.0611 5129(72) 5043.4180 5043.4180
344 19.0871 5052(71) 5034.1470 5034.1470
345 19.1131 5015(71) 5024.8750 5024.8750
346 19.1391 4981(71) 5015.6040 5015.6040
347 19.1651 4974(71) 5006.3325 5006.3325
348 19.1911 4977(71) 4997.0615 4997.0615
349 19.2171 5025(71) 4987.7896 4987.7896
350 19.2431 5056(71) 4978.5186 4978.5186
351 19.2691 4993(71) 4969.2466 4969.2466
352 19.2951 4988(71) 4959.9756 4959.9756
353 19.3211 4963(70) 4950.7036 4950.7036
354 19.3471 4918(70) 4941.4326 4941.4326
355 19.3731 4936(70) 4932.1606 4932.1606
356 19.3991 4956(70) 4922.8896 4922.8896
357 19.4251 4921(70) 4913.6182 4913.6182
358 19.4511 4925(70) 4904.3467 4904.3467
359 19.4771 4951(70) 4895.0752 4895.0752
360 19.5031 4988(71) 4885.8037 4885.8037
361 19.5291 4972(71) 4876.5322 4876.5322
362 19.5551 4967(70) 4867.2607 4867.2607
363 19.5811 4951(70) 4857.9893 4857.9893
364 19.6071 4933(70) 4848.7183 4848.7183
365 19.6331 4869(70) 4839.4463 4839.4463
366 19.6591 4788(69) 4830.1753 4830.1753
367 19.6851 4789(69) 4820.9033 4820.9033
368 19.7111 4860(70) 4811.6323 4811.6323
369 19.7371 4766(69) 4802.3604 4802.3604
370 19.7631 4832(70) 4793.0894 4793.0894
371 19.7891 4880(70) 4783.8179 4783.8179
372 19.8151 4773(69) 4774.5469 4774.5469
373 19.8411 4771(69) 4769.4536 4769.4536
374 19.8671 4823(69) 4764.3726 4764.3726
375 19.8931 4830(69) 4759.2915 4759.2915
376 19.9191 4797(69) 4754.2100 4754.2100
377 19.9451 4755(69) 4749.1289 4749.1289
378 19.9711 4809(69) 4744.0474 4744.0474
379 19.9971 4741(69) 4738.9663 4738.9663
380 20.0231 4829(69) 4733.8848 4733.8848
381 20.0491 4769(69) 4728.8037 4728.8037
382 20.0751 4689(68) 4723.7222 4723.7222
383 20.1011 4771(69) 4718.6411 4718.6411
384 20.1271 4789(69) 4713.5596 4713.5596
385 20.1531 4792(69) 4708.4785 4708.4785
386 20.1791 4616(68) 4703.3970 4703.3970
387 20.2051 4720(69) 4698.3159 4698.3159
388 20.2311 4719(69) 4693.2344 4693.2344
389 20.2571 4799(69) 4688.1533 4688.1533
390 20.2831 4749(69) 4683.0718 4683.0718
391 20.3091 4696(69) 4677.9907 4677.9907
392 20.3351 4688(68) 4672.9092 4672.9092
393 20.3611 4829(69) 4667.8281 4667.8281
394 20.3871 4717(69) 4662.7466 4662.7466
395 20.4131 4705(69) 4657.6655 4657.6655
396 20.4391 4842(70) 4652.5840 4652.5840
397 20.4651 4785(69) 4647.5029 4647.5029
398 20.4911 4787(69) 4642.4214 4642.4214
399 20.5171 4465(67) 4637.3398 4637.3398
400 20.5431 4818(69) 4632.2588 4632.2588
401 20.5691 4680(68) 4627.1772 4627.1772
402 20.5951 4659(68) 4622.0962 4622.0962
403 20.6211 4611(68) 4617.0146 4617.0146
404 20.6471 4649(68) 4611.9336 4611.9336
405 20.6731 4617(68) 4606.8521 4606.8521
406 20.6991 4612(68) 4601.7705 4601.7705
407 20.7251 4622(68) 4596.6895 4596.6895
408 20.7511 4538(67) 4591.6079 4591.6079
409 20.7771 4674(68) 4586.5269 4586.5269
410 20.8031 4649(68) 4589.6523 4581.4453
411 20.8291 4717(69) 4585.0913 4576.3643
412 20.8551 4536(67) 4584.6460 4571.2827
413 20.8811 4584(68) 4580.4507 4566.2017
414 20.9071 4684(68) 4576.3462 4561.1201
415 20.9331 4518(67) 4572.3457 4556.0391
416 20.9591 4541(67) 4568.4644 4550.9580
417 20.9851 4597(68) 4564.7202 4545.8765
418 21.0111 4670(68) 4561.1353 4540.7954
419 21.0371 4499(67) 4557.7354 4535.7139
420 21.0631 4517(67) 4554.5532 4530.6328
421 21.0891 4481(67) 4551.6265 4525.5513
422 21.1151 4419(66) 4549.0054 4520.4702
423 21.1411 4504(67) 4546.7480 4515.3887
424 21.1671 4500(67) 4544.9312 4510.3076
425 21.1931 4539(67) 4543.6504 4505.2261
426 21.2191 4536(67) 4543.0308 4500.1450
427 21.2451 4595(68) 4543.2344 4495.0635
428 21.2711 4572(68) 4544.4805 4489.9824
429 21.2971 4493(67) 4547.0791 4484.9009
430 21.3231 4531(67) 4551.5068 4479.8198
431 21.3491 4551(67) 4558.5869 4474.7383
432 21.3751 4583(68) 4569.8770 4469.6572
433 21.4011 4569(68) 4588.3633 4464.5757
434 21.4271 4725(69) 4619.3159 4459.4946
435 21.4531 4833(70) 4670.6152 4454.4131
436 21.4791 4844(70) 4751.7559 4449.3320
437 21.5051 5033(71) 4875.1655 4444.2505
438 21.5311 5281(73) 5070.6104 4439.1689
439 21.5571 5607(75) 5392.1230 4434.0879
440 21.5831 6086(78) 5859.4834 4429.0063
441 21.6091 6932(83) 6576.9131 4423.9253
442 21.6351 8323(91) 8077.8389 4418.8438
443 21.6611 9787(99) 10156.5859 4413.7627
444 21.6871 10227(101) 10828.0703 4408.6812
445 21.7131 9288(96) 9922.8066 4403.5996
446 21.7391 7876(89) 8292.1963 4398.5186
447 21.7651 6398(80) 6547.7241 4393.4370
448 21.7911 5261(73) 5334.6084 4388.3560
449 21.8171 4787(69) 4772.9507 4383.2744
450 21.8431 4628(68) 4585.0840 4378.1934
451 21.8691 4599(68) 4529.0962 4373.1118
452 21.8951 4547(67) 4506.7227 4368.0308
453 21.9211 4490(67) 4489.2148 4362.9492
454 21.9471 4460(67) 4470.5459 4357.8682
455 21.9731 4362(66) 4451.3003 4352.7866
456 21.9991 4375(66) 4432.9810 4347.7056
457 22.0251 4476(67) 4416.4004 4342.6240
458 22.0511 4425(67) 4401.6924 4337.5430
459 22.0771 4358(66) 4388.6455 4332.4619
460 22.1031 4314(66) 4376.9614 4327.3804
461 22.1291 4347(66) 4366.3677 4322.2993
462 22.1551 4359(66) 4356.6411 4317.2178
463 22.1811 4338(66) 4347.6118 4312.1367
464 22.2071 4365(66) 4339.1460 4307.0552
465 22.2331 4331(66) 4331.1421 4301.9741
466 22.2591 4324(66) 4323.5195 4296.8926
467 22.2851 4356(66) 4316.2153 4291.8115
468 22.3111 4278(65) 4309.1772 4286.7300
469 22.3371 4200(65) 4302.3662 4281.6489
470 22.3631 4321(66) 4295.7471 4276.5674
471 22.3891 4340(66) 4289.2935 4271.4863
472 22.4151 4234(65) 4282.9810 4266.4048
473 22.4411 4254(65) 4276.7930 4261.3237
474 22.4671 4233(65) 4270.7109 4256.2422
475 22.4931 4247(65) 4264.7241 4251.1611
476 22.5191 4257(65) 4258.8188 4246.0796
477 22.5451 4257(65) 4245.3262 4240.9980
478 22.5711 4213(65) 4239.9878 4235.9170
479 22.5971 4229(65) 4230.8354 4230.8354
480 22.6231 4197(65) 4225.7539 4225.7539
481 22.6491 4174(65) 4220.6729 4220.6729
482 22.6751 4241(65) 4215.5918 4215.5918
483 22.7011 4154(64) 4210.5103 4210.5103
484 22.7271 4111(64) 4205.4287 4205.4287
485 22.7531 4187(65) 4200.3477 4200.3477
486 22.7791 4235(65) 4195.2661 4195.2661
487 22.8051 4234(65) 4190.1851 4190.1851
488 22.8311 4292(66) 4185.1035 4185.1035
489 22.8571 4193(65) 4180.0225 4180.0225
490 22.8831 4148(64) 4174.9409 4174.9409
491 22.9091 4186(65) 4169.8599 4169.8599
492 22.9351 4136(64) 4164.7783 4164.7783
493 22.9611 4180(65) 4159.6973 4159.6973
494 22.9871 4126(64) 4154.6157 4154.6157
495 23.0131 4163(65) 4149.5347 4149.5347
496 23.0391 4033(64) 4144.4531 4144.4531
497 23.0651 4134(64) 4139.3721 4139.3721
498 23.0911 4097(64) 4134.2905 4134.2905
499 23.1171 4204(65) 4129.2095 4129.2095
500 23.1431 4170(65) 4124.1284 4124.1284
501 23.1691 4117(64) 4119.0469 4119.0469
502 23.1951 4107(64) 4113.9658 4113.9658
503 23.2211 4047(64) 4108.8843 4108.8843
504 23.2471 4094(64) 4103.8032 4103.8032
505 23.2731 4120(64) 4098.7217 4098.7217
506 23.2991 4000(63) 4093.6406 4093.6406
507 23.3251 4015(63) 4088.5591 4088.5591
508 23.3511 4096(64) 4083.4778 4083.4778
509 23.3771 4039(64) 4078.3965 4078.3965
510 23.4031 4093(64) 4073.3152 4073.3152
511 23.4291 4034(64) 4068.2339 4068.2339
512 23.4551 4135(64) 4063.1526 4063.1526
513 23.4811 4151(64) 4058.0710 4058.0710
514 23.5071 3974(63) 4052.9900 4052.9900
515 23.5331 3984(63) 4047.9084 4047.9084
516 23.5591 3958(63) 4042.8274 4042.8274
517 23.5851 4008(63) 4037.7458 4037.7458
518 23.6111 4066(64) 4032.6648 4032.6648
519 23.6371 4090(64) 4027.5833 4027.5833
520 23.6631 4033(64) 4022.5022 4022.5022
521 23.6891 4093(64) 4017.4207 4017.4207
522 23.7151 4010(63) 4012.3396 4012.3396
523 23.7411 3968(63) 4007.2581 4007.2581
524 23.7671 3922(63) 4002.1768 4002.1768
525 23.7931 3940(63) 3997.0955 3997.0955
526 23.8191 3977(63) 3992.0142 3992.0142
527 23.8451 4001(63) 3986.9329 3986.9329
528 23.8711 4033(64) 3981.8516 3981.8516
529 23.8971 3956(63) 3976.7700 3976.7700
530 23.9231 3951(63) 3971.6890 3971.6890
531 23.9491 4022(63) 3966.6074 3966.6074
532 23.9751 3978(63) 3961.5264 3961.5264
533 24.0011 3920(63) 3956.4448 3956.4448
534 24.0271 4012(63) 3951.3638 3951.3638
535 24.0531 3961(63) 3946.2822 3946.2822
536 24.0791 3943(63) 3941.2012 3941.2012
537 24.1051 3938(63) 3936.1196 3936.1196
538 24.1311 3960(63) 3931.0386 3931.0386
539 24.1571 3910(63) 3925.9570 3925.9570
540 24.1831 3841(62) 3920.8760 3920.8760
541 24.2091 3899(62) 3915.7949 3915.7949
542 24.2351 3936(63) 3910.7134 3910.7134
543 24.2611 3854(62) 3905.6323 3905.6323
544 24.2871 3919(63) 3900.5508 3900.5508
545 24.3131 3939(63) 3895.4695 3895.4695
546 24.3391 3876(62) 3890.3882 3890.3882
547 24.3651 3870(62) 3885.3069 3885.3069
548 24.3911 3834(62) 3880.2256 3880.2256
549 24.4171 3832(62) 3875.1443 3875.1443
550 24.4431 3883(62) 3870.3306 3870.3306
551 24.4691 3872(62) 3867.1663 3867.1663
552 24.4951 3870(62) 3864.0020 3864.0020
553 24.5211 3859(62) 3860.8376 3860.8376
554 24.5471 3805(62) 3857.6733 3857.6733
555 24.5731 3843(62) 3854.5090 3854.5090
556 24.5991 3908(63) 3851.3447 3851.3447
557 24.6251 3921(63) 3848.1804 3848.1804
558 24.6511 3857(62) 3845.0161 3845.0161
559 24.6771 3846(62) 3841.8521 3841.8521
560 24.7031 3852(62) 3838.6875 3838.6875
561 24.7291 3798(62) 3835.5234 3835.5234
562 24.7551 3803(62) 3832.3589 3832.3589
563 24.7811 3821(62) 3829.1948 3829.1948
564 24.8071 3861(62) 3826.0303 3826.0303
565 24.8331 3796(62) 3822.8662 3822.8662
566 24.8591 3781(61) 3819.7017 3819.7017
567 24.8851 3816(62) 3816.5376 3816.5376
568 24.9111 3843(62) 3813.3733 3813.3733
569 24.9371 3799(62) 3810.2090 3810.2090
570 24.9631 3734(61) 3807.0447 3807.0447
571 24.9891 3783(62) 3803.8804 3803.8804
572 25.0151 3745(61) 3800.7161 3800.7161
573 25.0411 3806(62) 3797.5518 3797.5518
574 25.0671 3772(61) 3794.3875 3794.3875
575 25.0931 3841(62) 3791.2231 3791.2231
576 25.1191 3830(62) 3788.0588 3788.0588
577 25.1451 3712(61) 3784.8948 3784.8948
578 25.1711 3710(61) 3781.7302 3781.7302
579 25.1971 3773(61) 3778.5662 3778.5662
580 25.2231 3844(62) 3775.4016 3775.4016
581 25.2491 3728(61) 3772.2375 3772.2375
582 25.2751 3898(62) 3769.0730 3769.0730
583 25.3011 3784(62) 3765.9089 3765.9089
584 25.3271 3710(61) 3762.7446 3762.7446
585 25.3531 3719(61) 3759.5803 3759.5803
586 25.3791 3785(62) 3756.4163 3756.4163
587 25.4051 3796(62) 3753.2517 3753.2517
588 25.4311 3741(61) 3750.0876 3750.0876
589 25.4571 3882(62) 3746.9231 3746.9231
590 25.4831 3634(60) 3743.7590 3743.7590
591 25.5091 3770(61) 3740.5945 3740.5945
592 25.5351 3729(61) 3737.4304 3737.4304
593 25.5611 3814(62) 3734.2659 3734.2659
594 25.5871 3721(61) 3731.1018 3731.1018
595 25.6131 3668(61) 3727.9375 3727.9375
596 25.6391 3713(61) 3724.7732 3724.7732
597 25.6651 3746(61) 3721.6089 3721.6089
598 25.6911 3826(62) 3718.4446 3718.4446
599 25.7171 3695(61) 3715.2803 3715.2803
600 25.7431 3784(62) 3712.1160 3712.1160
601 25.7691 3641(60) 3708.9517 3708.9517
602 25.7951 3575(60) 3705.7874 3705.7874
603 25.8211 3627(60) 3702.6230 3702.6230
604 25.8471 3703(61) 3699.4590 3699.4590
605 25.8731 3599(60) 3696.2944 3696.2944
606 25.8991 3716(61) 3693.1304 3693.1304
607 25.9251 3694(61) 3689.9658 3689.9658
608 25.9511 3634(60) 3686.8018 3686.8018
609 25.9771 3615(60) 3683.6372 3683.6372
610 26.0031 3640(60) 3680.4731 3680.4731
611 26.0291 3599(60) 3677.3086 3677.3086
612 26.0551 3546(60) 3674.1445 3674.1445
613 26.0811 3549(60) 3670.9802 3670.9802
614 26.1071 3607(60) 3667.8159 3667.8159
615 26.1331 3623(60) 3664.6516 3664.6516
616 26.1591 3519(59) 3661.4873 3661.4873
617 26.1851 3577(60) 3658.3230 3658.3230
618 26.2111 3633(60) 3655.1587 3655.1587
619 26.2371 3632(60) 3651.9944 3651.9944
620 26.2631 3639(60) 3648.8301 3648.8301
621 26.2891 3583(60) 3645.6658 3645.6658
622 26.3151 3543(60) 3642.5017 3642.5017
623 26.3411 3589(60) 3639.3372 3639.3372
624 26.3671 3618(60) 3636.1731 3636.1731
625 26.3931 3621(60) 3633.0088 3633.0088
626 26.4191 3573(60) 3629.8445 3629.8445
627 26.4451 3579(60) 3626.6802 3626.6802
628 26.4711 3637(60) 3623.5159 3623.5159
629 26.4971 3575(60) 3620.3516 3620.3516
630 26.5231 3462(59) 3617.1873 3617.1873
631 26.5491 3442(59) 3614.0229 3614.0229
632 26.5751 3547(60) 3610.8586 3610.8586
633 26.6011 3600(60) 3607.6946 3607.6946
634 26.6271 3554(60) 3604.5300 3604.5300
635 26.6531 3506(59) 3601.3660 3601.3660
636 26.6791 3518(59) 3598.2014 3598.2014
637 26.7051 3506(59) 3595.0374 3595.0374
638 26.7311 3544(60) 3591.8728 3591.8728
639 26.7571 3517(59) 3588.7087 3588.7087
640 26.7831 3497(59) 3585.5444 3585.5444
641 26.8091 3519(59) 3582.3801 3582.3801
642 26.8351 3531(59) 3579.2158 3579.2158
643 26.8611 3595(60) 3576.0515 3576.0515
644 26.8871 3550(60) 3572.8872 3572.8872
645 26.9131 3454(59) 3569.7229 3569.7229
646 26.9391 3449(59) 3566.5586 3566.5586
647 26.9651 3467(59) 3563.3943 3563.3943
648 26.9911 3495(59) 3560.2300 3560.2300
649 27.0171 3520(59) 3557.0659 3557.0659
650 27.0431 3536(59) 3553.9014 3553.9014
651 27.0691 3560(60) 3550.7373 3550.7373
652 27.0951 3599(60) 3547.5728 3547.5728
653 27.1211 3535(59) 3544.4087 3544.4087
654 27.1471 3426(59) 3541.2441 3541.2441
655 27.1731 3470(59) 3538.0801 3538.0801
656 27.1991 3475(59) 3534.9155 3534.9155
657 27.2251 3468(59) 3531.7515 3531.7515
658 27.2511 3543(60) 3528.5869 3528.5869
659 27.2771 3567(60) 3525.4229 3525.4229
660 27.3031 3581(60) 3522.2585 3522.2585
661 27.3291 3483(59) 3519.0942 3519.0942
662 27.3551 3445(59) 3515.9299 3515.9299
663 27.3811 3447(59) 3512.7656 3512.7656
664 27.4071 3476(59) 3509.6013 3509.6013
665 27.4331 3492(59) 3506.4370 3506.4370
666 27.4591 3484(59) 3503.2729 3503.2729
667 27.4851 3487(59) 3500.1084 3500.1084
668 27.5111 3568(60) 3496.9443 3496.9443
669 27.5371 3552(60) 3493.7800 3493.7800
670 27.5631 3492(59) 3490.6157 3490.6157
671 27.5891 3532(59) 3487.4514 3487.4514
672 27.6151 3473(59) 3484.2871 3484.2871
673 27.6411 3467(59) 3481.1228 3481.1228
674 27.6671 3466(59) 3477.9585 3477.9585
675 27.6931 3542(60) 3474.7942 3474.7942
676 27.7191 3612(60) 3471.6299 3471.6299
677 27.7451 3703(61) 3468.4656 3468.4656
678 27.7711 3787(62) 3465.3015 3465.3015
679 27.7971 3808(62) 3462.1370 3462.1370
680 27.8231 3744(61) 3458.9729 3458.9729
681 27.8491 3545(60) 3455.8083 3455.8083
682 27.8751 3543(60) 3452.6443 3452.6443
683 27.9011 3522(59) 3449.4797 3449.4797
684 27.9271 3415(58) 3446.3157 3446.3157
685 27.9531 3389(58) 3443.1514 3443.1514
686 27.9791 3378(58) 3439.9871 3439.9871
687 28.0051 3446(59) 3436.8228 3436.8228
688 28.0311 3415(58) 3433.6584 3433.6584
689 28.0571 3344(58) 3430.4941 3430.4941
690 28.0831 3388(58) 3427.3298 3427.3298
691 28.1091 3353(58) 3424.1655 3424.1655
692 28.1351 3297(57) 3421.0012 3421.0012
693 28.1611 3437(59) 3417.8369 3417.8369
694 28.1871 3485(59) 3414.6729 3414.6729
695 28.2131 3436(59) 3411.5083 3411.5083
696 28.2391 3236(57) 3408.3442 3408.3442
697 28.2651 3285(57) 3405.1797 3405.1797
698 28.2911 3430(59) 3402.0156 3402.0156
699 28.3171 3382(58) 3398.8511 3398.8511
700 28.3431 3413(58) 3395.6870 3395.6870
701 28.3691 3404(58) 3392.5225 3392.5225
702 28.3951 3353(58) 3389.3584 3389.3584
703 28.4211 3425(59) 3386.1938 3386.1938
704 28.4471 3419(58) 3383.0298 3383.0298
705 28.4731 3346(58) 3379.8655 3379.8655
706 28.4991 3405(58) 3376.7012 3376.7012
707 28.5251 3390(58) 3373.5369 3373.5369
708 28.5511 3340(58) 3370.3726 3370.3726
709 28.5771 3375(58) 3367.2085 3367.2085
710 28.6031 3277(57) 3364.0439 3364.0439
711 28.6291 3243(57) 3360.8799 3360.8799
712 28.6551 3266(57) 3357.7153 3357.7153
713 28.6811 3193(57) 3354.5513 3354.5513
714 28.7071 3327(58) 3351.3867 3351.3867
715 28.7331 3325(58) 3348.2227 3348.2227
716 28.7591 3313(58) 3345.0583 3345.0583
717 28.7851 3265(57) 3341.8940 3341.8940
718 28.8111 3275(57) 3338.7297 3338.7297
719 28.8371 3177(56) 3335.5654 3335.5654
720 28.8631 3293(57) 3332.4011 3332.4011
721 28.8891 3273(57) 3329.2368 3329.2368
722 28.9151 3298(57) 3326.0725 3326.0725
723 28.9411 3241(57) 3322.9082 3322.9082
724 28.9671 3257(57) 3319.7439 3319.7439
725 28.9931 3179(56) 3316.5798 3316.5798
726 29.0191 3256(57) 3313.4153 3313.4153
727 29.0451 3252(57) 3310.2512 3310.2512
728 29.0711 3262(57) 3307.0867 3307.0867
729 29.0971 3206(57) 3303.9226 3303.9226
730 29.1231 3236(57) 3300.7583 3300.7583
731 29.1491 3244(57) 3297.5940 3297.5940
732 29.1751 3239(57) 3294.4297 3294.4297
733 29.2011 3242(57) 3291.2654 3291.2654
734 29.2271 3241(57) 3288.1011 3288.1011
735 29.2531 3199(57) 3284.9368 3284.9368
736 29.2791 3272(57) 3281.7725 3281.7725
737 29.3051 3301(57) 3278.6082 3278.6082
738 29.3311 3228(57) 3275.4438 3275.4438
739 29.3571 3192(57) 3272.2798 3272.2798
740 29.3831 3166(56) 3269.1152 3269.1152
741 29.4091 3203(57) 3265.9512 3265.9512
742 29.4351 3254(57) 3262.7866 3262.7866
743 29.4611 3261(57) 3259.6226 3259.6226
744 29.4871 3271(57) 3256.4580 3256.4580
745 29.5131 3245(57) 3253.2939 3253.2939
746 29.5391 3218(57) 3250.1294 3250.1294
747 29.5651 3202(57) 3246.9653 3246.9653
748 29.5911 3153(56) 3243.8008 3243.8008
749 29.6171 3156(56) 3240.6367 3240.6367
750 29.6431 3265(57) 3237.4727 3237.4727
751 29.6691 3407(58) 3234.3081 3234.3081
752 29.6951 3540(59) 3231.1440 3231.1440
753 29.7211 3630(60) 3227.9795 3227.9795
754 29.7471 3738(61) 3224.8154 3224.8154
755 29.7731 3856(62) 3221.6509 3221.6509
756 29.7991 3855(62) 3218.4868 3218.4868
757 29.8251 3833(62) 3215.3223 3215.3223
758 29.8511 3771(61) 3212.1582 3212.1582
759 29.8771 3738(61) 3208.9937 3208.9937
760 29.9031 3815(62) 3205.8296 3205.8296
761 29.9291 3785(62) 3202.6653 3202.6653
762 29.9551 3802(62) 3444.3591 3199.5010
763 29.9811 3859(62) 3457.0369 3196.3367
764 30.0071 3824(62) 3471.2993 3193.1724
765 30.0331 3764(61) 3609.1919 3190.0081
766 30.0591 3765(61) 3635.1992 3186.8438
767 30.0851 3804(62) 3664.3645 3183.6794
768 30.1111 3825(62) 3697.1553 3180.5151
769 30.1371 3773(61) 3734.1406 3177.3508
770 30.1631 3843(62) 3775.9927 3174.1865
771 30.1891 3874(62) 3823.5386 3171.0222
772 30.2151 3918(63) 3877.7722 3167.8582
773 30.2411 3948(63) 3939.9331 3164.6936
774 30.2671 4009(63) 4011.5400 3161.5295
775 30.2931 4070(64) 4094.5183 3158.3652
776 30.3191 4140(64) 4191.2803 3155.2009
777 30.3451 4194(65) 4304.9512 3152.0366
778 30.3711 4225(65) 4439.5547 3148.8723
779 30.3971 4268(65) 4600.4736 3145.7080
780 30.4231 4461(67) 4795.0244 3142.5437
781 30.4491 4664(68) 5033.8721 3139.3794
782 30.4751 5023(71) 5333.8076 3136.2151
783 30.5011 5459(74) 5724.1748 3133.0508
784 30.5271 5999(77) 6258.6172 3129.8867
785 30.5531 6967(83) 7032.6494 3126.7222
786 30.5791 8287(91) 8197.0469 3123.5581
787 30.6051 10172(101) 9952.8164 3120.3936
788 30.6311 13074(114) 12563.4043 3117.2295
789 30.6571 17510(132) 16621.9434 3114.0649
790 30.6831 24620(157) 23652.7461 3110.9009
791 30.7091 36130(190) 35729.5625 3107.7366
792 30.7351 55693(236) 54990.3828 3104.5723
793 30.7611 89029(298) 88690.5859 3101.4080
794 30.7871 135441(368) 137761.5000 3098.2437
795 30.8131 165923(407) 159916.0312 3095.0796
796 30.8391 139566(374) 137484.1406 3091.9150
797 30.8651 104175(323) 111631.0469 3088.7510
798 30.8911 90620(301) 89944.4531 3085.5864
799 30.9171 62304(250) 59973.9023 3082.4224
800 30.9431 31411(177) 32492.5488 3079.2578
801 30.9691 17237(131) 16879.6797 3076.0938
802 30.9951 11669(108) 10582.5098 3072.9292
803 31.0211 8868(94) 8306.2871 3069.7651
804 31.0471 7264(85) 7328.4521 3066.6006
805 31.0731 6352(80) 6728.2227 3063.4365
806 31.0991 5570(75) 6238.6748 3060.2720
807 31.1251 5100(71) 5803.6504 3057.1079
808 31.1511 4703(69) 5422.6841 3053.9436
809 31.1771 4551(67) 5099.2764 3050.7793
810 31.2031 4418(66) 4829.9937 3047.6150
811 31.2291 4168(65) 4607.0195 3044.4507
812 31.2551 3992(63) 4421.6270 3041.2864
813 31.2811 4063(64) 4266.2104 3038.1221
814 31.3071 3853(62) 4134.6494 3034.9578
815 31.3331 3772(61) 4022.2505 3031.7935
816 31.3591 3693(61) 3925.3708 3028.6292
817 31.3851 3693(61) 3841.2134 3025.4651
818 31.4111 3627(60) 3767.5615 3022.3005
819 31.4371 3574(60) 3702.6821 3019.1365
820 31.4631 3488(59) 3645.1670 3015.9719
821 31.4891 3525(59) 3593.8960 3012.8079
822 31.5151 3496(59) 3547.9407 3009.6436
823 31.5411 3414(58) 3506.5505 3006.4792
824 31.5671 3439(59) 3469.0933 3003.3149
825 31.5931 3408(58) 3435.0510 3000.1506
826 31.6191 3372(58) 3403.9807 2996.9863
827 31.6451 3374(58) 3375.5166 2993.8220
828 31.6711 3282(57) 3125.1428 2990.6577
829 31.6971 3235(57) 3113.6682 2987.4934
830 31.7231 3284(57) 3102.9392 2984.3291
831 31.7491 3311(58) 2981.1650 2981.1650
832 31.7751 3283(57) 2978.0005 2978.0005
833 31.8011 3299(57) 2974.8364 2974.8364
834 31.8271 3199(57) 2971.6721 2971.6721
835 31.8531 3147(56) 2968.5078 2968.5078
836 31.8791 3124(56) 2965.3435 2965.3435
837 31.9051 3205(57) 2962.1792 2962.1792
838 31.9311 3236(57) 2959.0149 2959.0149
839 31.9571 3254(57) 2955.8506 2955.8506
840 31.9831 3226(57) 2952.6865 2952.6865
841 32.0091 3198(57) 2949.5222 2949.5222
842 32.0351 3170(56) 2946.3579 2946.3579
843 32.0611 3117(56) 2943.1934 2943.1934
844 32.0871 3035(55) 2940.0291 2940.0291
845 32.1131 3046(55) 2936.8650 2936.8650
846 32.1391 3105(56) 2933.7007 2933.7007
847 32.1651 3081(56) 2930.5361 2930.5361
848 32.1911 3042(55) 2927.3718 2927.3718
849 32.2171 3044(55) 2924.2080 2924.2080
850 32.2431 3060(55) 2921.0435 2921.0435
851 32.2691 3052(55) 2917.8789 2917.8789
852 32.2951 2994(55) 2914.7146 2914.7146
853 32.3211 3015(55) 2911.5508 2911.5508
854 32.3471 3092(56) 2908.3862 2908.3862
855 32.3731 3159(56) 2905.2219 2905.2219
856 32.3991 3126(56) 2902.0574 2902.0574
857 32.4251 2994(55) 2898.8936 2898.8936
858 32.4511 3006(55) 2895.7290 2895.7290
859 32.4771 3063(55) 2892.5647 2892.5647
860 32.5031 3054(55) 2889.4004 2889.4004
861 32.5291 3033(55) 2886.2363 2886.2363
862 32.5551 3016(55) 2883.0720 2883.0720
863 32.5811 3022(55) 2879.9075 2879.9075
864 32.6071 3027(55) 2876.7432 2876.7432
865 32.6331 2899(54) 2873.5791 2873.5791
866 32.6591 3015(55) 2870.4148 2870.4148
867 32.6851 2999(55) 2867.2505 2867.2505
868 32.7111 2958(54) 2864.0859 2864.0859
869 32.7371 2953(54) 2860.9219 2860.9219
870 32.7631 2956(54) 2857.7576 2857.7576
871 32.7891 2932(54) 2854.5933 2854.5933
872 32.8151 2840(53) 2851.4287 2851.4287
873 32.8411 2866(54) 2848.2649 2848.2649
874 32.8671 2845(53) 2845.1006 2845.1006
875 32.8931 2930(54) 2841.9360 2841.9360
876 32.9191 2868(54) 2838.7720 2838.7720
877 32.9451 2863(54) 2835.6077 2835.6077
878 32.9711 2889(54) 2832.4434 2832.4434
879 32.9971 2813(53) 2829.2788 2829.2788
880 33.0231 2831(53) 2826.1147 2826.1147
881 33.0491 2871(54) 2822.9504 2822.9504
882 33.0751 2922(54) 2819.7861 2819.7861
883 33.1011 2936(54) 2816.6216 2816.6216
884 33.1271 2924(54) 2813.4578 2813.4578
885 33.1531 2871(54) 2810.2935 2810.2935
886 33.1791 2893(54) 2807.1289 2807.1289
887 33.2051 2939(54) 2803.9644 2803.9644
888 33.2311 2893(54) 2800.8005 2800.8005
889 33.2571 2888(54) 2797.6362 2797.6362
890 33.2831 2985(55) 2794.4717 2794.4717
891 33.3091 2866(54) 2791.3074 2791.3074
892 33.3351 2860(53) 2788.1433 2788.1433
893 33.3611 2914(54) 2784.9790 2784.9790
894 33.3871 2911(54) 2781.8145 2781.8145
895 33.4131 2883(54) 2778.6501 2778.6501
896 33.4391 2900(54) 2775.4863 2775.4863
897 33.4651 2849(53) 2772.3218 2772.3218
898 33.4911 3045(55) 2769.1572 2769.1572
899 33.5171 3015(55) 2765.9929 2765.9929
900 33.5431 2910(54) 2762.8291 2762.8291
901 33.5691 2776(53) 2759.6646 2759.6646
902 33.5951 2892(54) 2756.5002 2756.5002
903 33.6211 2864(54) 2753.3359 2753.3359
904 33.6471 2804(53) 2750.1719 2750.1719
905 33.6731 2894(54) 2747.0073 2747.0073
906 33.6991 2763(53) 2743.8430 2743.8430
907 33.7251 2815(53) 2740.6787 2740.6787
908 33.7511 2703(52) 2737.5146 2737.5146
909 33.7771 2725(52) 2734.3501 2734.3501
910 33.8031 2685(52) 2731.1860 2731.1860
911 33.8291 2696(52) 2728.0215 2728.0215
912 33.8551 2752(52) 2724.8574 2724.8574
913 33.8811 2687(52) 2721.6931 2721.6931
914 33.9071 2658(52) 2718.5288 2718.5288
915 33.9331 2666(52) 2715.3643 2715.3643
916 33.9591 2672(52) 2712.2002 2712.2002
917 33.9851 2744(52) 2709.0359 2709.0359
918 34.0111 2685(52) 2705.8716 2705.8716
919 34.0371 2808(53) 2702.7075 2702.7075
920 34.0631 2671(52) 2699.5432 2699.5432
921 34.0891 2703(52) 2696.3789 2696.3789
922 34.1151 2745(52) 2693.2144 2693.2144
923 34.1411 2747(52) 2690.0503 2690.0503
924 34.1671 2699(52) 2686.8860 2686.8860
925 34.1931 2660(52) 2683.7217 2683.7217
926 34.2191 2704(52) 2680.5571 2680.5571
927 34.2451 2659(52) 2677.3931 2677.3931
928 34.2711 2662(52) 2674.2288 2674.2288
929 34.2971 2663(52) 2671.0645 2671.0645
930 34.3231 2587(51) 2667.8999 2667.8999
931 34.3491 2620(51) 2664.7361 2664.7361
932 34.3751 2652(51) 2661.5718 2661.5718
933 34.4011 2682(52) 2658.4072 2658.4072
934 34.4271 2691(52) 2655.2427 2655.2427
935 34.4531 2671(52) 2652.1755 2652.1755
936 34.4791 2614(51) 2650.0037 2650.0037
937 34.5051 2659(52) 2647.8320 2647.8320
938 34.5311 2645(51) 2645.6604 2645.6604
939 34.5571 2608(51) 2643.4890 2643.4890
940 34.5831 2613(51) 2641.3171 2641.3171
941 34.6091 2613(51) 2639.1455 2639.1455
942 34.6351 2629(51) 2636.9736 2636.9736
943 34.6611 2644(51) 2634.8022 2634.8022
944 34.6871 2643(51) 2632.6306 2632.6306
945 34.7131 2652(52) 2630.4590 2630.4590
946 34.7391 2589(51) 2628.2871 2628.2871
947 34.7651 2618(51) 2626.1157 2626.1157
948 34.7911 2598(51) 2623.9441 2623.9441
949 34.8171 2559(51) 2621.7725 2621.7725
950 34.8431 2613(51) 2619.6006 2619.6006
951 34.8691 2606(51) 2617.4292 2617.4292
952 34.8951 2571(51) 2615.2576 2615.2576
953 34.9211 2574(51) 2613.0857 2613.0857
954 34.9471 2584(51) 2610.9141 2610.9141
955 34.9731 2599(51) 2608.7427 2608.7427
956 34.9991 2580(51) 2606.5710 2606.5710
957 35.0251 2559(51) 2604.3992 2604.3992
958 35.0511 2601(51) 2602.2278 2602.2278
959 35.0771 2615(51) 2600.0562 2600.0562
960 35.1031 2598(51) 2597.8843 2597.8843
961 35.1291 2603(51) 2595.7126 2595.7126
962 35.1551 2595(51) 2593.5413 2593.5413
963 35.1811 2551(51) 2591.3696 2591.3696
964 35.2071 2526(50) 2589.1978 2589.1978
965 35.2331 2502(50) 2587.0261 2587.0261
966 35.2591 2543(50) 2584.8547 2584.8547
967 35.2851 2590(51) 2582.6831 2582.6831
968 35.3111 2583(51) 2580.5112 2580.5112
969 35.3371 2622(51) 2578.3396 2578.3396
970 35.3631 2647(51) 2576.1682 2576.1682
971 35.3891 2543(50) 2573.9963 2573.9963
972 35.4151 2528(50) 2571.8247 2571.8247
973 35.4411 2529(50) 2569.6531 2569.6531
974 35.4671 2561(51) 2567.4817 2567.4817
975 35.4931 2539(50) 2565.3098 2565.3098
976 35.5191 2555(51) 2563.1382 2563.1382
977 35.5451 2573(51) 2560.9666 2560.9666
978 35.5711 2542(50) 2558.7949 2558.7949
979 35.5971 2512(50) 2556.6233 2556.6233
980 35.6231 2502(50) 2554.4517 2554.4517
981 35.6491 2529(50) 2552.2798 2552.2798
982 35.6751 2581(51) 2550.1084 2550.1084
983 35.7011 2508(50) 2547.9368 2547.9368
984 35.7271 2437(49) 2545.7651 2545.7651
985 35.7531 2428(49) 2543.5933 2543.5933
986 35.7791 2426(49) 2541.4219 2541.4219
987 35.8051 2412(49) 2539.2502 2539.2502
988 35.8311 2476(50) 2537.0784 2537.0784
989 35.8571 2465(50) 2534.9067 2534.9067
990 35.8831 2518(50) 2532.7354 2532.7354
991 35.9091 2470(50) 2530.5637 2530.5637
992 35.9351 2457(50) 2528.3918 2528.3918
993 35.9611 2448(49) 2526.2202 2526.2202
994 35.9871 2475(50) 2524.0488 2524.0488
995 36.0131 2468(50) 2521.8770 2521.8770
996 36.0391 2538(50) 2519.7053 2519.7053
997 36.0651 2431(49) 2517.5337 2517.5337
998 36.0911 2445(49) 2515.3623 2515.3623
999 36.1171 2461(50) 2513.1904 2513.1904
1000 36.1431 2343(48) 2511.0188 2511.0188
1001 36.1691 2485(50) 2508.8474 2508.8474
1002 36.1951 2507(50) 2506.6758 2506.6758
1003 36.2211 2396(49) 2504.5039 2504.5039
1004 36.2471 2468(50) 2502.3323 2502.3323
1005 36.2731 2448(49) 2500.1609 2500.1609
1006 36.2991 2498(50) 2497.9890 2497.9890
1007 36.3251 2395(49) 2495.8174 2495.8174
1008 36.3511 2492(50) 2493.6458 2493.6458
1009 36.3771 2588(51) 2491.4744 2491.4744
1010 36.4031 2476(50) 2489.3025 2489.3025
1011 36.4291 2433(49) 2487.1309 2487.1309
1012 36.4551 2435(49) 2484.9592 2484.9592
1013 36.4811 2367(49) 2482.7876 2482.7876
1014 36.5071 2445(49) 2480.6160 2480.6160
1015 36.5331 2457(50) 2478.4443 2478.4443
1016 36.5591 2460(50) 2476.2725 2476.2725
1017 36.5851 2468(50) 2474.1011 2474.1011
1018 36.6111 2491(50) 2471.9294 2471.9294
1019 36.6371 2445(49) 2469.7578 2469.7578
1020 36.6631 2490(50) 2467.5859 2467.5859
1021 36.6891 2397(49) 2465.4146 2465.4146
1022 36.7151 2406(49) 2463.2429 2463.2429
1023 36.7411 2387(49) 2461.0713 2461.0713
1024 36.7671 2351(48) 2458.8994 2458.8994
1025 36.7931 2402(49) 2456.7280 2456.7280
1026 36.8191 2412(49) 2454.5564 2454.5564
1027 36.8451 2454(50) 2452.3845 2452.3845
1028 36.8711 2419(49) 2450.2129 2450.2129
1029 36.8971 2388(49) 2448.0415 2448.0415
1030 36.9231 2366(49) 2445.8699 2445.8699
1031 36.9491 2321(48) 2443.6980 2443.6980
1032 36.9751 2365(49) 2441.5264 2441.5264
1033 37.0011 2432(49) 2439.3550 2439.3550
1034 37.0271 2405(49) 2437.1831 2437.1831
1035 37.0531 2334(48) 2435.0115 2435.0115
1036 37.0791 2359(49) 2433.1108 2432.8398
1037 37.1051 2402(49) 2430.9565 2430.6685
1038 37.1311 2366(49) 2428.8035 2428.4966
1039 37.1571 2321(48) 2426.6526 2426.3250
1040 37.1831 2329(48) 2424.6406 2424.1533
1041 37.2091 2348(48) 2422.5032 2421.9819
1042 37.2351 2359(49) 2420.3691 2419.8101
1043 37.2611 2327(48) 2418.2393 2417.6384
1044 37.2871 2311(48) 2416.1147 2415.4670
1045 37.3131 2372(49) 2413.9956 2413.2952
1046 37.3391 2378(49) 2411.8831 2411.1235
1047 37.3651 2389(49) 2409.7786 2408.9519
1048 37.3911 2340(48) 2407.6836 2406.7805
1049 37.4171 2342(48) 2405.5991 2404.6086
1050 37.4431 2336(48) 2403.5286 2402.4370
1051 37.4691 2338(48) 2401.4739 2400.2651
1052 37.4951 2315(48) 2399.4395 2398.0938
1053 37.5211 2322(48) 2397.4299 2395.9221
1054 37.5471 2393(49) 2395.4514 2393.7505
1055 37.5731 2385(49) 2393.5129 2391.5786
1056 37.5991 2372(49) 2391.6282 2389.4072
1057 37.6251 2316(48) 2389.8171 2387.2356
1058 37.6511 2273(48) 2388.1162 2385.0640
1059 37.6771 2235(47) 2386.5889 2382.8921
1060 37.7031 2248(47) 2385.3433 2380.7207
1061 37.7291 2309(48) 2384.5393 2378.5491
1062 37.7551 2294(48) 2384.3845 2376.3772
1063 37.7811 2362(49) 2385.2012 2374.2056
1064 37.8071 2387(49) 2387.8418 2372.0342
1065 37.8331 2353(49) 2394.3376 2369.8625
1066 37.8591 2377(49) 2407.3735 2367.6907
1067 37.8851 2447(49) 2430.2344 2365.5190
1068 37.9111 2405(49) 2469.0115 2363.3477
1069 37.9371 2497(50) 2512.4246 2361.1758
1070 37.9631 2557(51) 2514.8472 2359.0042
1071 37.9891 2438(49) 2480.0486 2356.8325
1072 38.0151 2419(49) 2453.4324 2354.6611
1073 38.0411 2403(49) 2443.2305 2352.4893
1074 38.0671 2376(49) 2422.6184 2350.3176
1075 38.0931 2338(48) 2392.3953 2348.1460
1076 38.1191 2305(48) 2368.5442 2345.9746
1077 38.1451 2262(48) 2355.4229 2343.8027
1078 38.1711 2390(49) 2348.8279 2341.6311
1079 38.1971 2374(49) 2344.8291 2339.4592
1080 38.2231 2311(48) 2341.7139 2337.2878
1081 38.2491 2313(48) 2338.8972 2335.1162
1082 38.2751 2287(48) 2336.2007 2332.9446
1083 38.3011 2276(48) 2333.5806 2330.7732
1084 38.3271 2207(47) 2331.0281 2328.6013
1085 38.3531 2270(48) 2328.5386 2326.4297
1086 38.3791 2336(48) 2326.1035 2324.2578
1087 38.4051 2279(48) 2323.7141 2322.0864
1088 38.4311 2232(47) 2321.3606 2319.9148
1089 38.4571 2253(47) 2319.0361 2317.7432
1090 38.4831 2269(48) 2316.7344 2315.5713
1091 38.5091 2249(47) 2314.4519 2313.3999
1092 38.5351 2192(47) 2312.1843 2311.2283
1093 38.5611 2239(47) 2309.9294 2309.0566
1094 38.5871 2271(48) 2307.6848 2306.8848
1095 38.6131 2211(47) 2305.4495 2304.7134
1096 38.6391 2220(47) 2303.2212 2302.5417
1097 38.6651 2237(47) 2300.9988 2300.3699
1098 38.6911 2232(47) 2298.7822 2298.1982
1099 38.7171 2253(47) 2296.5708 2296.0269
1100 38.7431 2216(47) 2294.3628 2293.8552
1101 38.7691 2214(47) 2292.1582 2291.6833
1102 38.7951 2184(47) 2289.9570 2289.5117
1103 38.8211 2241(47) 2287.5017 2287.3403
1104 38.8471 2184(47) 2285.3198 2285.1685
1105 38.8731 2189(47) 2283.1389 2282.9968
1106 38.8991 2198(47) 2280.9590 2280.8252
1107 38.9251 2217(47) 2278.6538 2278.6538
1108 38.9511 2243(47) 2276.4819 2276.4819
1109 38.9771 2137(46) 2274.3103 2274.3103
1110 39.0031 2167(47) 2272.1387 2272.1387
1111 39.0291 2195(47) 2269.9673 2269.9673
1112 39.0551 2216(47) 2267.7954 2267.7954
1113 39.0811 2226(47) 2265.6238 2265.6238
1114 39.1071 2165(47) 2263.4521 2263.4521
1115 39.1331 2252(47) 2261.2805 2261.2805
1116 39.1591 2253(47) 2259.1089 2259.1089
1117 39.1851 2243(47) 2256.9373 2256.9373
1118 39.2111 2155(46) 2254.7654 2254.7654
1119 39.2371 2190(47) 2252.5940 2252.5940
1120 39.2631 2191(47) 2250.4224 2250.4224
1121 39.2891 2225(47) 2248.2505 2248.2505
1122 39.3151 2221(47) 2246.0789 2246.0789
1123 39.3411 2138(46) 2243.9075 2243.9075
1124 39.3671 2269(48) 2241.7358 2241.7358
1125 39.3931 2198(47) 2239.5640 2239.5640
1126 39.4191 2221(47) 2237.3926 2237.3926
1127 39.4451 2199(47) 2235.2209 2235.2209
1128 39.4711 2193(47) 2233.0493 2233.0493
1129 39.4971 2167(47) 2230.8774 2230.8774
1130 39.5231 2207(47) 2228.7061 2228.7061
1131 39.5491 2188(47) 2226.5344 2226.5344
1132 39.5751 2240(47) 2224.3628 2224.3628
1133 39.6011 2267(48) 2222.1909 2222.1909
1134 39.6271 2301(48) 2220.0195 2220.0195
1135 39.6531 2319(48) 2217.8479 2217.8479
1136 39.6791 2315(48) 2215.6760 2215.6760
1137 39.7051 2230(47) 2213.5044 2213.5044
1138 39.7311 2206(47) 2211.3330 2211.3330
1139 39.7571 2183(47) 2209.1611 2209.1611
1140 39.7831 2209(47) 2206.9895 2206.9895
1141 39.8091 2237(47) 2204.8179 2204.8179
1142 39.8351 2165(47) 2202.6465 2202.6465
1143 39.8611 2173(47) 2200.4746 2200.4746
1144 39.8871 2150(46) 2198.3030 2198.3030
1145 39.9131 2111(46) 2196.1313 2196.1313
1146 39.9391 2109(46) 2193.9600 2193.9600
1147 39.9651 2151(46) 2191.7881 2191.7881
1148 39.9911 2122(46) 2189.6165 2189.6165
1149 40.0171 2148(46) 2187.4448 2187.4448
1150 40.0431 2160(46) 2185.2734 2185.2734
1151 40.0691 2155(46) 2183.1016 2183.1016
1152 40.0951 2159(46) 2180.9299 2180.9299
1153 40.1211 2132(46) 2178.7581 2178.7581
1154 40.1471 2170(47) 2176.5867 2176.5867
1155 40.1731 2163(47) 2174.4150 2174.4150
1156 40.1991 2133(46) 2172.2434 2172.2434
1157 40.2251 2167(47) 2170.0715 2170.0715
1158 40.2511 2144(46) 2167.9001 2167.9001
1159 40.2771 2077(46) 2165.7285 2165.7285
1160 40.3031 2067(45) 2163.5566 2163.5566
1161 40.3291 2091(46) 2161.3850 2161.3850
1162 40.3551 2114(46) 2159.2136 2159.2136
1163 40.3811 2145(46) 2157.0420 2157.0420
1164 40.4071 2184(47) 2154.8701 2154.8701
1165 40.4331 2194(47) 2152.6985 2152.6985
1166 40.4591 2158(46) 2150.5271 2150.5271
1167 40.4851 2157(46) 2148.3555 2148.3555
1168 40.5111 2156(46) 2146.1836 2146.1836
1169 40.5371 2171(47) 2144.0122 2144.0122
1170 40.5631 2149(46) 2141.8406 2141.8406
1171 40.5891 2136(46) 2139.6687 2139.6687
1172 40.6151 2114(46) 2137.4971 2137.4971
1173 40.6411 2115(46) 2135.3257 2135.3257
1174 40.6671 2147(46) 2133.1538 2133.1538
1175 40.6931 2093(46) 2130.9822 2130.9822
1176 40.7191 2110(46) 2128.8105 2128.8105
1177 40.7451 2116(46) 2126.6392 2126.6392
1178 40.7711 2135(46) 2124.4673 2124.4673
1179 40.7971 2134(46) 2122.2957 2122.2957
1180 40.8231 2119(46) 2120.1240 2120.1240
1181 40.8491 2064(45) 2117.9526 2117.9526
1182 40.8751 2069(45) 2115.7808 2115.7808
1183 40.9011 2053(45) 2113.6091 2113.6091
1184 40.9271 2083(46) 2111.4375 2111.4375
1185 40.9531 2126(46) 2109.2661 2109.2661
1186 40.9791 2096(46) 2107.0942 2107.0942
1187 41.0051 2059(45) 2104.9226 2104.9226
1188 41.0311 2052(45) 2102.7510 2102.7510
1189 41.0571 2110(46) 2100.5793 2100.5793
1190 41.0831 2139(46) 2098.4077 2098.4077
1191 41.1091 2098(46) 2096.2358 2096.2358
1192 41.1351 2035(45) 2094.0642 2094.0642
1193 41.1611 2048(45) 2091.8928 2091.8928
1194 41.1871 2110(46) 2089.7212 2089.7212
1195 41.2131 2043(45) 2087.5493 2087.5493
1196 41.2391 2111(46) 2085.3777 2085.3777
1197 41.2651 2033(45) 2083.2063 2083.2063
1198 41.2911 2111(46) 2081.0347 2081.0347
1199 41.3171 2069(45) 2078.8628 2078.8628
1200 41.3431 2080(46) 2076.6912 2076.6912
1201 41.3691 2079(46) 2074.5198 2074.5198
1202 41.3951 2090(46) 2072.3481 2072.3481
1203 41.4211 2124(46) 2070.1763 2070.1763
1204 41.4471 2141(46) 2068.0046 2068.0046
1205 41.4731 1995(45) 2065.8333 2065.8333
1206 41.4991 2022(45) 2063.6616 2063.6616
1207 41.5251 2050(45) 2061.4897 2061.4897
1208 41.5511 2078(46) 2059.3184 2059.3184
1209 41.5771 2017(45) 2057.1465 2057.1465
1210 41.6031 2090(46) 2054.9749 2054.9749
1211 41.6291 2016(45) 2052.8032 2052.8032
1212 41.6551 2076(46) 2050.6318 2050.6318
1213 41.6811 2037(45) 2048.4600 2048.4600
1214 41.7071 2136(46) 2046.2883 2046.2883
1215 41.7331 2032(45) 2045.7103 2045.7103
1216 41.7591 2010(45) 2045.2142 2045.2142
1217 41.7851 2001(45) 2044.7180 2044.7180
1218 41.8111 2111(46) 2044.2218 2044.2218
1219 41.8371 2100(46) 2043.7256 2043.7256
1220 41.8631 2093(46) 2043.2295 2043.2295
1221 41.8891 2070(46) 2042.7334 2042.7334
1222 41.9151 2035(45) 2042.2372 2042.2372
1223 41.9411 2025(45) 2041.7410 2041.7410
1224 41.9671 2040(45) 2041.2449 2041.2449
1225 41.9931 2011(45) 2040.7487 2040.7487
1226 42.0191 2002(45) 2040.2524 2040.2524
1227 42.0451 2035(45) 2039.7563 2039.7563
1228 42.0711 2134(46) 2039.2603 2039.2603
1229 42.0971 2066(45) 2038.7640 2038.7640
1230 42.1231 2046(45) 2038.2678 2038.2678
1231 42.1491 2060(45) 2037.7716 2037.7716
1232 42.1751 2048(45) 2037.2755 2037.2755
1233 42.2011 2001(45) 2036.7793 2036.7793
1234 42.2271 2067(45) 2036.2832 2036.2832
1235 42.2531 2082(46) 2035.7870 2035.7870
1236 42.2791 2089(46) 2035.2909 2035.2909
1237 42.3051 2049(45) 2034.7947 2034.7947
1238 42.3311 2045(45) 2034.2985 2034.2985
1239 42.3571 2105(46) 2033.8024 2033.8024
1240 42.3831 2115(46) 2033.3062 2033.3062
1241 42.4091 2056(45) 2032.8101 2032.8101
1242 42.4351 2086(46) 2032.3138 2032.3138
1243 42.4611 2110(46) 2031.8176 2031.8176
1244 42.4871 2133(46) 2031.3215 2031.3215
1245 42.5131 2125(46) 2030.8253 2030.8253
1246 42.5391 2163(47) 2030.3292 2030.3292
1247 42.5651 2199(47) 2029.8330 2029.8330
1248 42.5911 2176(47) 2029.3369 2029.3369
1249 42.6171 2159(46) 2028.8407 2028.8407
1250 42.6431 2171(47) 2028.3445 2028.3445
1251 42.6691 2206(47) 2027.8484 2027.8484
1252 42.6951 2145(46) 2027.3522 2027.3522
1253 42.7211 2075(46) 2026.8561 2026.8561
1254 42.7471 2098(46) 2026.3599 2026.3599
1255 42.7731 2154(46) 2025.8638 2025.8638
1256 42.7991 2157(46) 2025.3676 2025.3676
1257 42.8251 2134(46) 2024.8713 2024.8713
1258 42.8511 2177(47) 2024.3751 2024.3751
1259 42.8771 2191(47) 2023.8790 2023.8790
1260 42.9031 2174(47) 2023.3829 2023.3829
1261 42.9291 2165(47) 2022.8867 2022.8867
1262 42.9551 2189(47) 2022.3905 2022.3905
1263 42.9811 2219(47) 2021.8944 2021.8944
1264 43.0071 2155(46) 2021.3982 2021.3982
1265 43.0331 2131(46) 2020.9020 2020.9020
1266 43.0591 2138(46) 2020.4059 2020.4059
1267 43.0851 2109(46) 2019.9098 2019.9098
1268 43.1111 2146(46) 2019.4136 2019.4136
1269 43.1371 2199(47) 2018.9174 2018.9174
1270 43.1631 2231(47) 2018.4211 2018.4211
1271 43.1891 2178(47) 2017.9250 2017.9250
1272 43.2151 2159(46) 2092.3689 2017.4288
1273 43.2411 2083(46) 2096.5664 2016.9327
1274 43.2671 2104(46) 2101.2183 2016.4365
1275 43.2931 2120(46) 2106.3840 2015.9404
1276 43.3191 2131(46) 2148.5032 2015.4442
1277 43.3451 2138(46) 2157.1724 2014.9480
1278 43.3711 2163(47) 2166.8247 2014.4519
1279 43.3971 2213(47) 2177.6040 2013.9557
1280 43.4231 2221(47) 2189.6882 2013.4596
1281 43.4491 2194(47) 2203.2847 2012.9634
1282 43.4751 2142(46) 2218.6462 2012.4672
1283 43.5011 2203(47) 2236.0791 2011.9711
1284 43.5271 2207(47) 2255.9670 2011.4749
1285 43.5531 2191(47) 2278.7771 2010.9788
1286 43.5791 2219(47) 2305.0974 2010.4825
1287 43.6051 2271(48) 2335.6672 2009.9865
1288 43.6311 2371(49) 2371.4480 2009.4902
1289 43.6571 2343(48) 2413.6748 2008.9940
1290 43.6831 2434(49) 2463.9912 2008.4978
1291 43.7091 2420(49) 2524.6426 2008.0017
1292 43.7351 2601(51) 2598.9116 2007.5056
1293 43.7611 2751(52) 2691.8860 2007.0094
1294 43.7871 2914(54) 2812.0981 2006.5133
1295 43.8131 3080(55) 2974.3567 2006.0171
1296 43.8391 3418(58) 3203.1521 2005.5209
1297 43.8651 3715(61) 3534.9480 2005.0247
1298 43.8911 4309(66) 4017.7510 2004.5286
1299 43.9171 4847(70) 4724.5586 2004.0325
1300 43.9431 5897(77) 5839.5171 2003.5363
1301 43.9691 7834(89) 7829.5571 2003.0400
1302 43.9951 11175(106) 11422.5957 2002.5439
1303 44.0211 17248(131) 17437.9258 2002.0477
1304 44.0471 26762(164) 27034.9844 2001.5515
1305 44.0731 38873(197) 38539.5039 2001.0554
1306 44.0991 42866(207) 41745.5391 2000.5592
1307 44.1251 34290(185) 34066.0664 2000.0631
1308 44.1511 25759(160) 25842.4375 1999.5669
1309 44.1771 24013(155) 23579.3633 1999.0707
1310 44.2031 24773(157) 23667.7930 1998.5746
1311 44.2291 20705(144) 19486.8828 1998.0784
1312 44.2551 13568(116) 12844.0586 1997.5823
1313 44.2811 8519(92) 7721.8438 1997.0861
1314 44.3071 5783(76) 5060.2705 1996.5900
1315 44.3331 4405(66) 3924.7268 1996.0938
1316 44.3591 3767(61) 3429.8706 1995.5975
1317 44.3851 3280(57) 3168.1189 1995.1013
1318 44.4111 2981(55) 2991.7554 1994.6052
1319 44.4371 2770(53) 2851.8367 1994.1091
1320 44.4631 2643(51) 2734.1758 1993.6129
1321 44.4891 2457(50) 2634.8889 1993.1167
1322 44.5151 2399(49) 2551.9233 1992.6206
1323 44.5411 2455(50) 2482.9587 1992.1244
1324 44.5671 2324(48) 2425.5520 1991.6282
1325 44.5931 2313(48) 2377.4546 1991.1321
1326 44.6191 2279(48) 2336.8125 1990.6360
1327 44.6451 2231(47) 2302.1497 1990.1398
1328 44.6711 2216(47) 2272.3384 1989.6436
1329 44.6971 2219(47) 2246.4973 1989.1473
1330 44.7231 2201(47) 2223.9404 1988.6512
1331 44.7491 2229(47) 2204.1152 1988.1550
1332 44.7751 2154(46) 2186.5894 1987.6589
1333 44.8011 2085(46) 2171.0125 1987.1628
1334 44.8271 2066(45) 2157.0928 1986.6666
1335 44.8531 2013(45) 2144.5969 1986.1704
1336 44.8791 2036(45) 2133.3301 1985.6742
1337 44.9051 2046(45) 2123.1306 1985.1781
1338 44.9311 2158(46) 2113.8589 1984.6819
1339 44.9571 2175(47) 2105.4011 1984.1858
1340 44.9831 2139(46) 2028.7269 1983.6896
1341 45.0091 2106(46) 2025.4110 1983.1935
1342 45.0351 2042(45) 2022.3511 1982.6973
1343 45.0611 2034(45) 2019.5175 1982.2010
1344 45.0871 2012(45) 2016.8844 1981.7050
1345 45.1131 2013(45) 1981.2087 1981.2087
1346 45.1391 2007(45) 1980.7126 1980.7126
1347 45.1651 2060(45) 1980.2164 1980.2164
1348 45.1911 2071(46) 1979.7202 1979.7202
1349 45.2171 2066(45) 1979.2241 1979.2241
1350 45.2431 2084(46) 1978.7279 1978.7279
1351 45.2691 2030(45) 1978.2318 1978.2318
1352 45.2951 1984(45) 1977.7356 1977.7356
1353 45.3211 1989(45) 1977.2395 1977.2395
1354 45.3471 1992(45) 1976.7433 1976.7433
1355 45.3731 1998(45) 1976.2471 1976.2471
1356 45.3991 2039(45) 1975.7509 1975.7509
1357 45.4251 1997(45) 1975.2548 1975.2548
1358 45.4511 1994(45) 1974.7587 1974.7587
1359 45.4771 2057(45) 1974.2625 1974.2625
1360 45.5031 2010(45) 1973.7662 1973.7662
1361 45.5291 1977(44) 1973.2701 1973.2701
1362 45.5551 1982(45) 1972.7739 1972.7739
1363 45.5811 2004(45) 1972.2777 1972.2777
1364 45.6071 1979(44) 1971.7816 1971.7816
1365 45.6331 1938(44) 1971.2855 1971.2855
1366 45.6591 1943(44) 1970.7893 1970.7893
1367 45.6851 1960(44) 1970.2931 1970.2931
1368 45.7111 1995(45) 1969.7969 1969.7969
1369 45.7371 2003(45) 1969.3008 1969.3008
1370 45.7631 2016(45) 1968.8046 1968.8046
1371 45.7891 1993(45) 1968.3085 1968.3085
1372 45.8151 1994(45) 1967.8123 1967.8123
1373 45.8411 2001(45) 1967.3162 1967.3162
1374 45.8671 1949(44) 1966.8199 1966.8199
1375 45.8931 1949(44) 1966.3237 1966.3237
1376 45.9191 2004(45) 1965.8276 1965.8276
1377 45.9451 1984(45) 1965.3314 1965.3314
1378 45.9711 1959(44) 1964.8353 1964.8353
1379 45.9971 1995(45) 1964.3391 1964.3391
1380 46.0231 1963(44) 1963.8430 1963.8430
1381 46.0491 1948(44) 1963.3468 1963.3468
1382 46.0751 1896(44) 1962.8506 1962.8506
1383 46.1011 1899(44) 1962.3545 1962.3545
1384 46.1271 1949(44) 1961.8583 1961.8583
1385 46.1531 1954(44) 1961.3622 1961.3622
1386 46.1791 1961(44) 1960.8660 1960.8660
1387 46.2051 1895(44) 1960.3698 1960.3698
1388 46.2311 1955(44) 1959.8737 1959.8737
1389 46.2571 2014(45) 1959.3774 1959.3774
1390 46.2831 1965(44) 1958.8813 1958.8813
1391 46.3091 1969(44) 1958.3851 1958.3851
1392 46.3351 1937(44) 1957.8890 1957.8890
1393 46.3611 1941(44) 1957.3928 1957.3928
1394 46.3871 1982(45) 1956.8966 1956.8966
1395 46.4131 1971(44) 1956.4004 1956.4004
1396 46.4391 1929(44) 1955.9043 1955.9043
1397 46.4651 1997(45) 1955.4082 1955.4082
1398 46.4911 1963(44) 1954.9120 1954.9120
1399 46.5171 1987(45) 1954.4158 1954.4158
1400 46.5431 1924(44) 1953.9197 1953.9197
1401 46.5691 1896(44) 1953.4235 1953.4235
1402 46.5951 1913(44) 1952.9272 1952.9272
1403 46.6211 1964(44) 1952.4312 1952.4312
1404 46.6471 1908(44) 1951.9351 1951.9351
1405 46.6731 1914(44) 1951.4388 1951.4388
1406 46.6991 1898(44) 1950.9426 1950.9426
1407 46.7251 1883(43) 1950.4464 1950.4464
1408 46.7511 1909(44) 1949.9503 1949.9503
1409 46.7771 1940(44) 1949.4541 1949.4541
1410 46.8031 1861(43) 1948.9580 1948.9580
1411 46.8291 1950(44) 1948.4618 1948.4618
1412 46.8551 2018(45) 1947.9657 1947.9657
1413 46.8811 1964(44) 1947.4695 1947.4695
1414 46.9071 1926(44) 1946.9733 1946.9733
1415 46.9331 2016(45) 1946.4771 1946.4771
1416 46.9591 1907(44) 1945.9810 1945.9810
1417 46.9851 1929(44) 1945.4849 1945.4849
1418 47.0111 1936(44) 1944.9886 1944.9886
1419 47.0371 1968(44) 1944.4926 1944.4926
1420 47.0631 1843(43) 1943.9963 1943.9963
1421 47.0891 1997(45) 1943.5001 1943.5001
1422 47.1151 1938(44) 1943.0039 1943.0039
1423 47.1411 1891(43) 1942.5078 1942.5078
1424 47.1671 1919(44) 1942.0117 1942.0117
1425 47.1931 1885(43) 1941.5155 1941.5155
1426 47.2191 1860(43) 1941.0193 1941.0193
1427 47.2451 1908(44) 1940.5232 1940.5232
1428 47.2711 1877(43) 1940.0270 1940.0270
1429 47.2971 1899(44) 1939.5308 1939.5308
1430 47.3231 1930(44) 1939.0347 1939.0347
1431 47.3491 1903(44) 1938.5386 1938.5386
1432 47.3751 1914(44) 1938.0424 1938.0424
1433 47.4011 1922(44) 1937.5461 1937.5461
1434 47.4271 1937(44) 1937.0007 1937.0007
1435 47.4531 1924(44) 1936.4196 1936.4196
1436 47.4791 1879(43) 1935.8383 1935.8383
1437 47.5051 1929(44) 1935.2570 1935.2570
1438 47.5311 1899(44) 1934.6757 1934.6757
1439 47.5571 1921(44) 1934.0944 1934.0944
1440 47.5831 1899(44) 1933.5131 1933.5131
1441 47.6091 1921(44) 1932.9318 1932.9318
1442 47.6351 1957(44) 1932.3505 1932.3505
1443 47.6611 1936(44) 1931.7693 1931.7693
1444 47.6871 1948(44) 1931.1879 1931.1879
1445 47.7131 1903(44) 1930.6066 1930.6066
1446 47.7391 1868(43) 1930.0253 1930.0253
1447 47.7651 1892(43) 1929.4441 1929.4441
1448 47.7911 1909(44) 1928.8628 1928.8628
1449 47.8171 1942(44) 1928.2815 1928.2815
1450 47.8431 1976(44) 1927.7002 1927.7002
1451 47.8691 1960(44) 1927.1189 1927.1189
1452 47.8951 2021(45) 1926.5376 1926.5376
1453 47.9211 2031(45) 1925.9563 1925.9563
1454 47.9471 1943(44) 1925.3750 1925.3750
1455 47.9731 1915(44) 1924.7937 1924.7937
1456 47.9991 1958(44) 1924.2124 1924.2124
1457 48.0251 1960(44) 1923.6311 1923.6311
1458 48.0511 1998(45) 1923.0499 1923.0499
1459 48.0771 2014(45) 1922.4686 1922.4686
1460 48.1031 1936(44) 1921.8873 1921.8873
1461 48.1291 1904(44) 1921.3060 1921.3060
1462 48.1551 1886(43) 1920.7247 1920.7247
1463 48.1811 1900(44) 1920.1434 1920.1434
1464 48.2071 1916(44) 1919.5621 1919.5621
1465 48.2331 1924(44) 1918.9808 1918.9808
1466 48.2591 1924(44) 1918.3997 1918.3997
1467 48.2851 1902(44) 1917.8182 1917.8182
1468 48.3111 1896(44) 1917.2369 1917.2369
1469 48.3371 1915(44) 1916.6556 1916.6556
1470 48.3631 1877(43) 1916.0745 1916.0745
1471 48.3891 1859(43) 1915.4932 1915.4932
1472 48.4151 1902(44) 1914.9119 1914.9119
1473 48.4411 1863(43) 1914.3306 1914.3306
1474 48.4671 1856(43) 1913.7493 1913.7493
1475 48.4931 1924(44) 1913.1680 1913.1680
1476 48.5191 1963(44) 1912.5867 1912.5867
1477 48.5451 1952(44) 1912.0054 1912.0054
1478 48.5711 1910(44) 1911.4242 1911.4242
1479 48.5971 1894(44) 1910.8428 1910.8428
1480 48.6231 1864(43) 1910.2615 1910.2615
1481 48.6491 1915(44) 1909.6802 1909.6802
1482 48.6751 1937(44) 1909.0990 1909.0990
1483 48.7011 1890(43) 1913.2395 1908.5177
1484 48.7271 1930(44) 1912.9413 1907.9364
1485 48.7531 1897(44) 1912.6692 1907.3551
1486 48.7791 1868(43) 1912.4268 1906.7738
1487 48.8051 1878(43) 1912.2177 1906.1925
1488 48.8311 1886(43) 1914.3898 1905.6112
1489 48.8571 1885(43) 1914.4021 1905.0299
1490 48.8831 1914(44) 1914.4771 1904.4487
1491 48.9091 1885(43) 1914.6235 1903.8673
1492 48.9351 1890(43) 1914.8525 1903.2860
1493 48.9611 1950(44) 1915.1771 1902.7047
1494 48.9871 1874(43) 1915.6127 1902.1235
1495 49.0131 1868(43) 1916.1786 1901.5422
1496 49.0391 1984(45) 1916.8978 1900.9609
1497 49.0651 2016(45) 1917.7993 1900.3796
1498 49.0911 1983(45) 1918.9185 1899.7983
1499 49.1171 1952(44) 1920.3009 1899.2170
1500 49.1431 1951(44) 1922.0039 1898.6357
1501 49.1691 1923(44) 1924.1013 1898.0546
1502 49.1951 1943(44) 1926.6913 1897.4731
1503 49.2211 1926(44) 1929.9065 1896.8918
1504 49.2471 1986(45) 1933.9351 1896.3105
1505 49.2731 1909(44) 1939.0631 1895.7294
1506 49.2991 1934(44) 1945.7581 1895.1481
1507 49.3251 1969(44) 1954.8037 1894.5668
1508 49.3511 1888(43) 1967.4886 1893.9855
1509 49.3771 1951(44) 1985.7482 1893.4042
1510 49.4031 1954(44) 2012.1938 1892.8229
1511 49.4291 2044(45) 2050.5220 1892.2416
1512 49.4551 2128(46) 2108.9722 1891.6603
1513 49.4811 2167(47) 2209.5159 1891.0791
1514 49.5071 2404(49) 2393.3848 1890.4977
1515 49.5331 2657(52) 2710.2666 1889.9164
1516 49.5591 3154(56) 3219.1035 1889.3351
1517 49.5851 3800(62) 3913.3418 1888.7539
1518 49.6111 4418(66) 4358.0195 1888.1726
1519 49.6371 4096(64) 4076.7668 1887.5913
1520 49.6631 3497(59) 3482.0776 1887.0100
1521 49.6891 3173(56) 3118.9148 1886.4287
1522 49.7151 3218(57) 3125.0935 1885.8474
1523 49.7411 3217(57) 3202.5942 1885.2661
1524 49.7671 3042(55) 2985.7476 1884.6848
1525 49.7931 2676(52) 2595.1025 1884.1036
1526 49.8191 2344(48) 2274.6406 1883.5222
1527 49.8451 2155(46) 2096.1140 1882.9409
1528 49.8711 2037(45) 2014.9896 1882.3596
1529 49.8971 2009(45) 1978.4204 1881.7784
1530 49.9231 1932(44) 1959.1237 1881.1971
1531 49.9491 1813(43) 1946.4500 1880.6158
1532 49.9751 1832(43) 1936.6138 1880.0345
1533 50.0011 1917(44) 1928.3799 1879.4532
1534 50.0271 1842(43) 1921.3613 1878.8719
1535 50.0531 1867(43) 1915.3889 1878.2906
1536 50.0791 1828(43) 1910.3149 1877.7094
1537 50.1051 1828(43) 1905.9885 1877.1282
1538 50.1311 1889(43) 1902.2678 1876.5468
1539 50.1571 1858(43) 1899.0350 1875.9655
1540 50.1831 1880(43) 1896.1953 1875.3842
1541 50.2091 1869(43) 1893.6748 1874.8030
1542 50.2351 1805(42) 1891.4153 1874.2217
1543 50.2611 1816(43) 1889.3717 1873.6404
1544 50.2871 1871(43) 1887.5087 1873.0591
1545 50.3131 1892(43) 1885.7970 1872.4778
1546 50.3391 1877(43) 1884.2139 1871.8965
1547 50.3651 1903(44) 1882.7402 1871.3152
1548 50.3911 1895(44) 1881.3610 1870.7340
1549 50.4171 1879(43) 1880.0626 1870.1526
1550 50.4431 1847(43) 1878.8350 1869.5713
1551 50.4691 1850(43) 1877.6687 1868.9900
1552 50.4951 1840(43) 1876.5566 1868.4088
1553 50.5211 1821(43) 1870.9229 1867.8275
1554 50.5471 1843(43) 1870.1475 1867.2462
1555 50.5731 1865(43) 1869.3896 1866.6649
1556 50.5991 1879(43) 1868.6476 1866.0836
1557 50.6251 1883(43) 1867.9193 1865.5023
1558 50.6511 1840(43) 1864.9210 1864.9210
1559 50.6771 1798(42) 1864.3397 1864.3397
1560 50.7031 1780(42) 1863.7585 1863.7585
1561 50.7291 1786(42) 1863.1771 1863.1771
1562 50.7551 1857(43) 1862.5958 1862.5958
1563 50.7811 1868(43) 1862.0145 1862.0145
1564 50.8071 1837(43) 1861.4333 1861.4333
1565 50.8331 1852(43) 1860.8521 1860.8521
1566 50.8591 1851(43) 1860.2708 1860.2708
1567 50.8851 1853(43) 1859.6895 1859.6895
1568 50.9111 1839(43) 1859.1082 1859.1082
1569 50.9371 1820(43) 1858.5269 1858.5269
1570 50.9631 1798(42) 1857.9456 1857.9456
1571 50.9891 1781(42) 1857.3643 1857.3643
1572 51.0151 1796(42) 1856.7830 1856.7830
1573 51.0411 1821(43) 1856.2017 1856.2017
1574 51.0671 1834(43) 1855.6204 1855.6204
1575 51.0931 1797(42) 1855.0391 1855.0391
1576 51.1191 1797(42) 1854.4579 1854.4579
1577 51.1451 1809(43) 1853.8766 1853.8766
1578 51.1711 1855(43) 1853.2953 1853.2953
1579 51.1971 1861(43) 1852.7140 1852.7140
1580 51.2231 1843(43) 1852.1327 1852.1327
1581 51.2491 1853(43) 1851.5514 1851.5514
1582 51.2751 1790(42) 1850.9701 1850.9701
1583 51.3011 1824(43) 1850.3889 1850.3889
1584 51.3271 1840(43) 1849.8076 1849.8076
1585 51.3531 1840(43) 1849.2262 1849.2262
1586 51.3791 1751(42) 1848.6449 1848.6449
1587 51.4051 1740(42) 1848.0637 1848.0637
1588 51.4311 1802(42) 1847.4824 1847.4824
1589 51.4571 1790(42) 1846.9011 1846.9011
1590 51.4831 1829(43) 1846.3198 1846.3198
1591 51.5091 1768(42) 1845.7385 1845.7385
1592 51.5351 1741(42) 1845.1572 1845.1572
1593 51.5611 1841(43) 1844.5759 1844.5759
1594 51.5871 1780(42) 1843.9946 1843.9946
1595 51.6131 1784(42) 1843.4135 1843.4135
1596 51.6391 1735(42) 1842.8320 1842.8320
1597 51.6651 1788(42) 1842.2507 1842.2507
1598 51.6911 1731(42) 1841.6694 1841.6694
1599 51.7171 1795(42) 1841.0883 1841.0883
1600 51.7431 1782(42) 1840.5070 1840.5070
1601 51.7691 1794(42) 1839.9257 1839.9257
1602 51.7951 1811(43) 1839.4078 1839.4078
1603 51.8211 1784(42) 1839.1052 1839.1052
1604 51.8471 1792(42) 1838.8026 1838.8026
1605 51.8731 1775(42) 1838.4999 1838.4999
1606 51.8991 1797(42) 1838.1973 1838.1973
1607 51.9251 1870(43) 1837.8947 1837.8947
1608 51.9511 1745(42) 1837.5919 1837.5919
1609 51.9771 1828(43) 1837.2893 1837.2893
1610 52.0031 1805(42) 1836.9867 1836.9867
1611 52.0291 1804(42) 1836.6840 1836.6840
1612 52.0551 1817(43) 1836.3813 1836.3813
1613 52.0811 1740(42) 1836.0787 1836.0787
1614 52.1071 1815(43) 1835.7760 1835.7760
1615 52.1331 1808(43) 1835.4734 1835.4734
1616 52.1591 1791(42) 1835.1708 1835.1708
1617 52.1851 1853(43) 1834.8680 1834.8680
1618 52.2111 1804(42) 1834.5654 1834.5654
1619 52.2371 1832(43) 1834.2628 1834.2628
1620 52.2631 1790(42) 1833.9601 1833.9601
1621 52.2891 1783(42) 1833.6575 1833.6575
1622 52.3151 1808(43) 1833.3547 1833.3547
1623 52.3411 1797(42) 1833.0521 1833.0521
1624 52.3671 1826(43) 1832.7495 1832.7495
1625 52.3931 1764(42) 1832.4468 1832.4468
1626 52.4191 1795(42) 1832.1442 1832.1442
1627 52.4451 1854(43) 1831.8416 1831.8416
1628 52.4711 1770(42) 1831.5389 1831.5389
1629 52.4971 1754(42) 1831.2362 1831.2362
1630 52.5231 1758(42) 1830.9336 1830.9336
1631 52.5491 1757(42) 1830.6310 1830.6310
1632 52.5751 1773(42) 1830.3282 1830.3282
1633 52.6011 1780(42) 1830.0256 1830.0256
1634 52.6271 1823(43) 1829.7230 1829.7230
1635 52.6531 1861(43) 1829.4203 1829.4203
1636 52.6791 1873(43) 1829.1177 1829.1177
1637 52.7051 1897(44) 1828.8149 1828.8149
1638 52.7311 1945(44) 1828.5123 1828.5123
1639 52.7571 1968(44) 1828.2097 1828.2097
1640 52.7831 1983(45) 1827.9070 1827.9070
1641 52.8091 1905(44) 1827.6044 1827.6044
1642 52.8351 1916(44) 1827.3018 1827.3018
1643 52.8611 1945(44) 1826.9990 1826.9990
1644 52.8871 1987(45) 1826.6964 1826.6964
1645 52.9131 2014(45) 1826.3938 1826.3938
1646 52.9391 1949(44) 1826.0911 1826.0911
1647 52.9651 1917(44) 1825.7885 1825.7885
1648 52.9911 1932(44) 1825.4858 1825.4858
1649 53.0171 1895(44) 1825.1831 1825.1831
1650 53.0431 1874(43) 1824.8805 1824.8805
1651 53.0691 1928(44) 1824.5779 1824.5779
1652 53.0951 1933(44) 1824.2751 1824.2751
1653 53.1211 1921(44) 1823.9725 1823.9725
1654 53.1471 1930(44) 1823.6699 1823.6699
1655 53.1731 1933(44) 1823.3672 1823.3672
1656 53.1991 1925(44) 1823.0646 1823.0646
1657 53.2251 1943(44) 1822.7618 1822.7618
1658 53.2511 1964(44) 1822.4592 1822.4592
1659 53.2771 1943(44) 1822.1566 1822.1566
1660 53.3031 1918(44) 1821.8539 1821.8539
1661 53.3291 1927(44) 1821.5513 1821.5513
1662 53.3551 1937(44) 1821.2487 1821.2487
1663 53.3811 1905(44) 1820.9459 1820.9459
1664 53.4071 1894(44) 1820.6433 1820.6433
1665 53.4331 1952(44) 1820.3407 1820.3407
1666 53.4591 1990(45) 1820.0381 1820.0381
1667 53.4851 1984(45) 1819.7354 1819.7354
1668 53.5111 1999(45) 1819.4327 1819.4327
1669 53.5371 1959(44) 1819.1301 1819.1301
1670 53.5631 1935(44) 1818.8274 1818.8274
1671 53.5891 1932(44) 1818.5248 1818.5248
1672 53.6151 1951(44) 1818.2220 1818.2220
1673 53.6411 1950(44) 1817.9194 1817.9194
1674 53.6671 1973(44) 1817.6168 1817.6168
1675 53.6931 1933(44) 1817.3141 1817.3141
1676 53.7191 1984(45) 1817.0115 1817.0115
1677 53.7451 1980(45) 1816.7089 1816.7089
1678 53.7711 2008(45) 1924.6443 1816.4061
1679 53.7971 1969(44) 1930.6100 1816.1035
1680 53.8231 1984(45) 1937.1354 1815.8008
1681 53.8491 1990(45) 1944.2882 1815.4982
1682 53.8751 2039(45) 1952.1500 1815.1956
1683 53.9011 1981(45) 1960.8119 1814.8929
1684 53.9271 1991(45) 2025.3096 1814.5902
1685 53.9531 2008(45) 2039.1244 1814.2876
1686 53.9791 1937(44) 2054.4153 1813.9850
1687 54.0051 1985(45) 2071.3933 1813.6823
1688 54.0311 2107(46) 2090.3120 1813.3796
1689 54.0571 2109(46) 2111.4712 1813.0770
1690 54.0831 2095(46) 2135.2417 1812.7743
1691 54.1091 2087(46) 2162.0625 1812.4717
1692 54.1351 2101(46) 2192.4739 1812.1689
1693 54.1611 2118(46) 2227.1365 1811.8663
1694 54.1871 2170(47) 2266.8882 1811.5637
1695 54.2131 2175(47) 2312.7649 1811.2610
1696 54.2391 2260(48) 2366.0894 1810.9584
1697 54.2651 2347(48) 2428.5586 1810.6558
1698 54.2911 2411(49) 2502.4358 1810.3530
1699 54.3171 2567(51) 2590.7625 1810.0504
1700 54.3431 2619(51) 2697.8794 1809.7478
1701 54.3691 2717(52) 2830.3425 1809.4451
1702 54.3951 3110(56) 2998.7461 1809.1425
1703 54.4211 3303(57) 3220.4221 1808.8398
1704 54.4471 3872(62) 3523.0283 1808.5371
1705 54.4731 4235(65) 3947.0444 1808.2345
1706 54.4991 4682(68) 4546.7363 1807.9319
1707 54.5251 5296(73) 5400.7256 1807.6292
1708 54.5511 6473(80) 6683.5278 1807.3265
1709 54.5771 8487(92) 8848.6123 1807.0239
1710 54.6031 12111(110) 12755.0293 1806.7212
1711 54.6291 18607(136) 19480.3828 1806.4186
1712 54.6551 29419(172) 30196.3848 1806.1160
1713 54.6811 44326(211) 44915.9492 1805.8132
1714 54.7071 56105(237) 55868.4141 1805.5106
1715 54.7331 51435(227) 51758.8984 1805.2079
1716 54.7591 36858(192) 38640.6406 1804.9053
1717 54.7851 27185(165) 28407.8535 1804.6027
1718 54.8111 26212(162) 25924.7832 1804.3000
1719 54.8371 29783(173) 29158.2168 1803.9973
1720 54.8631 30871(176) 30305.9023 1803.6947
1721 54.8891 24701(157) 24530.6758 1803.3921
1722 54.9151 16154(127) 16240.5840 1803.0894
1723 54.9411 10100(100) 9887.1875 1802.7867
1724 54.9671 6711(82) 6381.8994 1802.4841
1725 54.9931 5066(71) 4746.1807 1802.1814
1726 55.0191 4248(65) 3980.4556 1801.8788
1727 55.0451 3633(60) 3566.7114 1801.5760
1728 55.0711 3291(57) 3294.9949 1801.2734
1729 55.0971 2977(55) 3087.2085 1800.9708
1730 55.1231 2729(52) 2916.1621 1800.6681
1731 55.1491 2619(51) 2772.4729 1800.3655
1732 55.1751 2426(49) 2651.8511 1800.0629
1733 55.2011 2392(49) 2550.8655 1799.7601
1734 55.2271 2319(48) 2466.2561 1799.4575
1735 55.2531 2236(47) 2395.0117 1799.1549
1736 55.2791 2190(47) 2334.5854 1798.8522
1737 55.3051 2181(47) 2282.9019 1798.5496
1738 55.3311 2139(46) 2238.3496 1798.2469
1739 55.3571 2124(46) 2199.6587 1797.9442
1740 55.3831 2057(45) 2165.8345 1797.6416
1741 55.4091 1997(45) 2136.0723 1797.3390
1742 55.4351 2038(45) 2109.7397 1797.0363
1743 55.4611 2071(46) 2086.3206 1796.7336
1744 55.4871 2040(45) 2065.3950 1796.4310
1745 55.5131 2019(45) 2046.6096 1796.1283
1746 55.5391 2023(45) 2029.6785 1795.8257
1747 55.5651 2029(45) 2014.3600 1795.5229
1748 55.5911 2033(45) 2000.4531 1795.2203
1749 55.6171 2021(45) 1987.7817 1794.9177
1750 55.6431 1934(44) 1976.2014 1794.6150
1751 55.6691 1880(43) 1864.3839 1794.3124
1752 55.6951 1951(44) 1859.8501 1794.0098
1753 55.7211 1950(44) 1855.6876 1793.7070
1754 55.7471 1908(44) 1851.8545 1793.4044
1755 55.7731 1906(44) 1848.3147 1793.1018
1756 55.7991 1830(43) 1792.7992 1792.7992
1757 55.8251 1844(43) 1792.4965 1792.4965
1758 55.8511 1938(44) 1792.1938 1792.1938
1759 55.8771 1892(43) 1791.8912 1791.8912
1760 55.9031 1846(43) 1791.5885 1791.5885
1761 55.9291 1862(43) 1791.2859 1791.2859
1762 55.9551 1860(43) 1790.9832 1790.9832
1763 55.9811 1892(43) 1790.6805 1790.6805
1764 56.0071 1900(44) 1790.3779 1790.3779
1765 56.0331 1858(43) 1790.0752 1790.0752
1766 56.0591 1849(43) 1789.7726 1789.7726
1767 56.0851 1882(43) 1789.4700 1789.4700
1768 56.1111 1890(43) 1789.1672 1789.1672
1769 56.1371 1842(43) 1788.8646 1788.8646
1770 56.1631 1851(43) 1788.5620 1788.5620
1771 56.1891 1854(43) 1788.2593 1788.2593
1772 56.2151 1786(42) 1787.9567 1787.9567
1773 56.2411 1784(42) 1787.6541 1787.6541
1774 56.2671 1854(43) 1787.3513 1787.3513
1775 56.2931 1813(43) 1787.0487 1787.0487
1776 56.3191 1807(43) 1786.7461 1786.7461
1777 56.3451 1813(43) 1786.4434 1786.4434
1778 56.3711 1813(43) 1786.1407 1786.1407
1779 56.3971 1863(43) 1785.8381 1785.8381
1780 56.4231 1785(42) 1785.5354 1785.5354
1781 56.4491 1818(43) 1785.2328 1785.2328
1782 56.4751 1850(43) 1784.9301 1784.9301
1783 56.5011 1941(44) 1784.6274 1784.6274
1784 56.5271 1899(44) 1784.3248 1784.3248
1785 56.5531 1858(43) 1784.0221 1784.0221
1786 56.5791 1806(42) 1783.7195 1783.7195
1787 56.6051 1784(42) 1783.4169 1783.4169
1788 56.6311 1767(42) 1783.1141 1783.1141
1789 56.6571 1762(42) 1782.8115 1782.8115
1790 56.6831 1801(42) 1782.5089 1782.5089
1791 56.7091 1760(42) 1782.2062 1782.2062
1792 56.7351 1766(42) 1781.9036 1781.9036
1793 56.7611 1806(42) 1781.6010 1781.6010
1794 56.7871 1813(43) 1781.2983 1781.2983
1795 56.8131 1812(43) 1780.9956 1780.9956
1796 56.8391 1778(42) 1780.6930 1780.6930
1797 56.8651 1825(43) 1780.3903 1780.3903
1798 56.8911 1784(42) 1780.0876 1780.0876
1799 56.9171 1821(43) 1779.7850 1779.7850
1800 56.9431 1829(43) 1779.4823 1779.4823
1801 56.9691 1781(42) 1779.1797 1779.1797
1802 56.9951 1786(42) 1778.8771 1778.8771
1803 57.0211 1766(42) 1778.5743 1778.5743
1804 57.0471 1775(42) 1778.2717 1778.2717
1805 57.0731 1786(42) 1777.9690 1777.9690
1806 57.0991 1696(41) 1777.6664 1777.6664
1807 57.1251 1836(43) 1777.3638 1777.3638
1808 57.1511 1803(42) 1777.0610 1777.0610
1809 57.1771 1859(43) 1776.7584 1776.7584
1810 57.2031 1801(42) 1776.4558 1776.4558
1811 57.2291 1817(43) 1776.1532 1776.1532
1812 57.2551 1817(43) 1775.8505 1775.8505
1813 57.2811 1722(41) 1775.5479 1775.5479
1814 57.3071 1865(43) 1775.2452 1775.2452
1815 57.3331 1758(42) 1774.9425 1774.9425
1816 57.3591 1774(42) 1774.6399 1774.6399
1817 57.3851 1794(42) 1774.3372 1774.3372
1818 57.4111 1754(42) 1774.0345 1774.0345
1819 57.4371 1807(43) 1773.7319 1773.7319
1820 57.4631 1858(43) 1773.4292 1773.4292
1821 57.4891 1811(43) 1773.1266 1773.1266
1822 57.5151 1792(42) 1772.8240 1772.8240
1823 57.5411 1766(42) 1772.5212 1772.5212
1824 57.5671 1805(42) 1772.2186 1772.2186
1825 57.5931 1721(41) 1771.9160 1771.9160
1826 57.6191 1801(42) 1771.6133 1771.6133
1827 57.6451 1826(43) 1771.3107 1771.3107
1828 57.6711 1766(42) 1771.0081 1771.0081
1829 57.6971 1750(42) 1770.7053 1770.7053
1830 57.7231 1715(41) 1770.4027 1770.4027
1831 57.7491 1720(41) 1770.1001 1770.1001
1832 57.7751 1767(42) 1769.7974 1769.7974
1833 57.8011 1810(43) 1769.4948 1769.4948
1834 57.8271 1736(42) 1769.1921 1769.1921
1835 57.8531 1705(41) 1768.8894 1768.8894
1836 57.8791 1789(42) 1768.5868 1768.5868
1837 57.9051 1790(42) 1768.2842 1768.2842
1838 57.9311 1798(42) 1767.9814 1767.9814
1839 57.9571 1749(42) 1767.6788 1767.6788
1840 57.9831 1770(42) 1767.3761 1767.3761
1841 58.0091 1781(42) 1767.0735 1767.0735
1842 58.0351 1742(42) 1766.7709 1766.7709
1843 58.0611 1747(42) 1766.4681 1766.4681
1844 58.0871 1716(41) 1766.1655 1766.1655
1845 58.1131 1737(42) 1765.8629 1765.8629
1846 58.1391 1776(42) 1765.5603 1765.5603
1847 58.1651 1789(42) 1765.2576 1765.2576
1848 58.1911 1778(42) 1764.9550 1764.9550
1849 58.2171 1788(42) 1764.6523 1764.6523
1850 58.2431 1780(42) 1764.3496 1764.3496
1851 58.2691 1702(41) 1764.0470 1764.0470
1852 58.2951 1694(41) 1763.7443 1763.7443
1853 58.3211 1691(41) 1763.4417 1763.4417
1854 58.3471 1728(42) 1763.1390 1763.1390
1855 58.3731 1756(42) 1762.7036 1762.7036
1856 58.3991 1766(42) 1762.2278 1762.2278
1857 58.4251 1739(42) 1761.7520 1761.7520
1858 58.4511 1699(41) 1761.2761 1761.2761
1859 58.4771 1725(42) 1760.8003 1760.8003
1860 58.5031 1727(42) 1760.3245 1760.3245
1861 58.5291 1737(42) 1759.8486 1759.8486
1862 58.5551 1730(42) 1759.3728 1759.3728
1863 58.5811 1715(41) 1758.8970 1758.8970
1864 58.6071 1689(41) 1758.4211 1758.4211
1865 58.6331 1706(41) 1757.9454 1757.9454
1866 58.6591 1776(42) 1757.4695 1757.4695
1867 58.6851 1753(42) 1756.9937 1756.9937
1868 58.7111 1795(42) 1756.5178 1756.5178
1869 58.7371 1822(43) 1756.0421 1756.0421
1870 58.7631 1797(42) 1755.5663 1755.5663
1871 58.7891 1746(42) 1755.0905 1755.0905
1872 58.8151 1780(42) 1754.6145 1754.6145
1873 58.8411 1781(42) 1754.1388 1754.1388
1874 58.8671 1711(41) 1753.6630 1753.6630
1875 58.8931 1694(41) 1753.1871 1753.1871
1876 58.9191 1703(41) 1752.7113 1752.7113
1877 58.9451 1744(42) 1752.2355 1752.2355
1878 58.9711 1755(42) 1751.7596 1751.7596
1879 58.9971 1735(42) 1751.2838 1751.2838
1880 59.0231 1773(42) 1750.8080 1750.8080
1881 59.0491 1778(42) 1750.3322 1750.3322
1882 59.0751 1739(42) 1749.8563 1749.8563
1883 59.1011 1728(42) 1749.3805 1749.3805
1884 59.1271 1703(41) 1748.9048 1748.9048
1885 59.1531 1735(42) 1748.4288 1748.4288
1886 59.1791 1711(41) 1747.9530 1747.9530
1887 59.2051 1769(42) 1747.4772 1747.4772
1888 59.2311 1763(42) 1747.0015 1747.0015
1889 59.2571 1755(42) 1746.5256 1746.5256
1890 59.2831 1814(43) 1746.0498 1746.0498
1891 59.3091 1752(42) 1745.5739 1745.5739
1892 59.3351 1739(42) 1745.0981 1745.0981
1893 59.3611 1756(42) 1744.6223 1744.6223
1894 59.3871 1827(43) 1744.1465 1744.1465
1895 59.4131 1738(42) 1743.6707 1743.6707
1896 59.4391 1812(43) 1743.1948 1743.1948
1897 59.4651 1761(42) 1742.7190 1742.7190
1898 59.4911 1751(42) 1742.2432 1742.2432
1899 59.5171 1759(42) 1741.7673 1741.7673
1900 59.5431 1789(42) 1741.2915 1741.2915
1901 59.5691 1739(42) 1740.8157 1740.8157
1902 59.5951 1764(42) 1740.3398 1740.3398
1903 59.6211 1756(42) 1739.8640 1739.8640
1904 59.6471 1748(42) 1739.3882 1739.3882
1905 59.6731 1768(42) 1738.9124 1738.9124
1906 59.6991 1737(42) 1738.4365 1738.4365
1907 59.7251 1800(42) 1737.9607 1737.9607
1908 59.7511 1734(42) 1737.4850 1737.4850
1909 59.7771 1746(42) 1737.0092 1737.0092
1910 59.8031 1705(41) 1736.5332 1736.5332
1911 59.8291 1798(42) 1736.0574 1736.0574
1912 59.8551 1720(41) 1735.5817 1735.5817
1913 59.8811 1797(42) 1735.1058 1735.1058
1914 59.9071 1703(41) 1734.6300 1734.6300
1915 59.9331 1693(41) 1734.1541 1734.1541
1916 59.9591 1726(42) 1733.6783 1733.6783
1917 59.9851 1748(42) 1733.2025 1733.2025
1918 60.0111 1699(41) 1732.7267 1732.7267
1919 60.0371 1708(41) 1732.2509 1732.2509
1920 60.0631 1672(41) 1731.7750 1731.7750
1921 60.0891 1633(40) 1731.2992 1731.2992
1922 60.1151 1716(41) 1730.8234 1730.8234
1923 60.1411 1633(40) 1730.3475 1730.3475
1924 60.1671 1756(42) 1729.8717 1729.8717
1925 60.1931 1675(41) 1729.3959 1729.3959
1926 60.2191 1661(41) 1728.9200 1728.9200
1927 60.2451 1679(41) 1728.4443 1728.4443
1928 60.2711 1674(41) 1727.9685 1727.9685
1929 60.2971 1668(41) 1727.4926 1727.4926
1930 60.3231 1641(41) 1727.0167 1727.0167
1931 60.3491 1709(41) 1726.5410 1726.5410
1932 60.3751 1706(41) 1726.0652 1726.0652
1933 60.4011 1751(42) 1725.5894 1725.5894
1934 60.4271 1635(40) 1725.1135 1725.1135
1935 60.4531 1602(40) 1724.6377 1724.6377
1936 60.4791 1708(41) 1724.1619 1724.1619
1937 60.5051 1734(42) 1723.6860 1723.6860
1938 60.5311 1692(41) 1723.2102 1723.2102
1939 60.5571 1651(41) 1722.7344 1722.7344
1940 60.5831 1653(41) 1722.2585 1722.2585
1941 60.6091 1693(41) 1721.7827 1721.7827
1942 60.6351 1660(41) 1721.3069 1721.3069
1943 60.6611 1702(41) 1720.8311 1720.8311
1944 60.6871 1739(42) 1720.3552 1720.3552
1945 60.7131 1695(41) 1719.8794 1719.8794
1946 60.7391 1658(41) 1719.4036 1719.4036
1947 60.7651 1646(41) 1718.9277 1718.9277
1948 60.7911 1627(40) 1718.4519 1718.4519
1949 60.8171 1628(40) 1717.9761 1717.9761
1950 60.8431 1653(41) 1717.5002 1717.5002
1951 60.8691 1655(41) 1717.0245 1717.0245
1952 60.8951 1643(41) 1716.5487 1716.5487
1953 60.9211 1647(41) 1716.0728 1716.0728
1954 60.9471 1690(41) 1715.5969 1715.5969
1955 60.9731 1706(41) 1715.1212 1715.1212
1956 60.9991 1683(41) 1714.6454 1714.6454
1957 61.0251 1659(41) 1714.1696 1714.1696
1958 61.0511 1668(41) 1713.6937 1713.6937
1959 61.0771 1680(41) 1713.2179 1713.2179
1960 61.1031 1654(41) 1712.7421 1712.7421
1961 61.1291 1657(41) 1712.2662 1712.2662
1962 61.1551 1668(41) 1711.7904 1711.7904
1963 61.1811 1673(41) 1711.3146 1711.3146
1964 61.2071 1667(41) 1710.8387 1710.8387
1965 61.2331 1670(41) 1710.3629 1710.3629
1966 61.2591 1695(41) 1709.8872 1709.8872
1967 61.2851 1656(41) 1709.4113 1709.4113
1968 61.3111 1619(40) 1708.9354 1708.9354
1969 61.3371 1623(40) 1708.4596 1708.4596
1970 61.3631 1630(40) 1707.9839 1707.9839
1971 61.3891 1654(41) 1707.5081 1707.5081
1972 61.4151 1684(41) 1707.0321 1707.0321
1973 61.4411 1664(41) 1706.5563 1706.5563
1974 61.4671 1662(41) 1706.0806 1706.0806
1975 61.4931 1684(41) 1705.6047 1705.6047
1976 61.5191 1710(41) 1705.1289 1705.1289
1977 61.5451 1730(42) 1704.6531 1704.6531
1978 61.5711 1682(41) 1704.1772 1704.1772
1979 61.5971 1641(41) 1703.7014 1703.7014
1980 61.6231 1656(41) 1703.2256 1703.2256
1981 61.6491 1689(41) 1702.7498 1702.7498
1982 61.6751 1695(41) 1702.2739 1702.2739
1983 61.7011 1770(42) 1701.7981 1701.7981
1984 61.7271 1764(42) 1701.3223 1701.3223
1985 61.7531 1708(41) 1700.8464 1700.8464
1986 61.7791 1690(41) 1700.3706 1700.3706
1987 61.8051 1696(41) 1699.8948 1699.8948
1988 61.8311 1691(41) 1699.4189 1699.4189
1989 61.8571 1730(42) 1698.9431 1698.9431
1990 61.8831 1743(42) 1698.4674 1698.4674
1991 61.9091 1765(42) 1697.9915 1697.9915
1992 61.9351 1724(42) 1697.5156 1697.5156
1993 61.9611 1694(41) 1697.0398 1697.0398
1994 61.9871 1785(42) 1696.5641 1696.5641
1995 62.0131 1800(42) 1696.0883 1696.0883
1996 62.0391 1698(41) 1695.6124 1695.6124
1997 62.0651 1749(42) 1695.1365 1695.1365
1998 62.0911 1665(41) 1694.6608 1694.6608
1999 62.1171 1615(40) 1694.1849 1694.1849
2000 62.1431 1641(41) 1693.7091 1693.7091
2001 62.1691 1722(41) 1693.2333 1693.2333
2002 62.1951 1739(42) 1692.7574 1692.7574
2003 62.2211 1749(42) 1692.2816 1692.2816
2004 62.2471 1739(42) 1691.8058 1691.8058
2005 62.2731 1690(41) 1691.3300 1691.3300
2006 62.2991 1699(41) 1690.8541 1690.8541
2007 62.3251 1714(41) 1690.3783 1690.3783
2008 62.3511 1753(42) 1689.9025 1689.9025
2009 62.3771 1719(41) 1689.4268 1689.4268
2010 62.4031 1699(41) 1688.9509 1688.9509
2011 62.4291 1828(43) 1688.4750 1688.4750
2012 62.4551 1711(41) 1687.9991 1687.9991
2013 62.4811 1689(41) 1687.5234 1687.5234
2014 62.5071 1731(42) 1687.0476 1687.0476
2015 62.5331 1739(42) 1686.5718 1686.5718
2016 62.5591 1770(42) 1686.0958 1686.0958
2017 62.5851 1639(40) 1685.6201 1685.6201
2018 62.6111 1616(40) 1685.1443 1685.1443
2019 62.6371 1621(40) 1684.6685 1684.6685
2020 62.6631 1628(40) 1684.1926 1684.1926
2021 62.6891 1708(41) 1683.7168 1683.7168
2022 62.7151 1725(42) 1683.2410 1683.2410
2023 62.7411 1683(41) 1682.7651 1682.7651
2024 62.7671 1723(42) 1682.2893 1682.2893
2025 62.7931 1664(41) 1681.8135 1681.8135
2026 62.8191 1777(42) 1681.3376 1681.3376
2027 62.8451 1702(41) 1680.8618 1680.8618
2028 62.8711 1705(41) 1680.3860 1680.3860
2029 62.8971 1748(42) 1679.9102 1679.9102
2030 62.9231 1688(41) 1679.4343 1679.4343
2031 62.9491 1709(41) 1678.9585 1678.9585
2032 62.9751 1716(41) 1678.4827 1678.4827
2033 63.0011 1696(41) 1678.0070 1678.0070
2034 63.0271 1736(42) 1677.5311 1677.5311
2035 63.0531 1724(42) 1677.0552 1677.0552
2036 63.0791 1664(41) 1721.9946 1676.5793
2037 63.1051 1694(41) 1723.9924 1676.1036
2038 63.1311 1727(42) 1726.1979 1675.6278
2039 63.1571 1804(42) 1728.6348 1675.1520
2040 63.1831 1696(41) 1731.3301 1674.6761
2041 63.2091 1752(42) 1734.3151 1674.2003
2042 63.2351 1761(42) 1759.2852 1673.7245
2043 63.2611 1791(42) 1764.1193 1673.2487
2044 63.2871 1799(42) 1769.4651 1672.7728
2045 63.3131 1754(42) 1775.3929 1672.2970
2046 63.3391 1738(42) 1781.9823 1671.8212
2047 63.3651 1759(42) 1789.3281 1671.3453
2048 63.3911 1729(42) 1797.5414 1670.8695
2049 63.4171 1725(42) 1806.7592 1670.3937
2050 63.4431 1793(42) 1817.1414 1669.9178
2051 63.4691 1848(43) 1828.8835 1669.4420
2052 63.4951 1789(42) 1842.2219 1668.9663
2053 63.5211 1770(42) 1857.4534 1668.4905
2054 63.5471 1842(43) 1874.9397 1668.0145
2055 63.5731 1853(43) 1895.1377 1667.5387
2056 63.5991 1844(43) 1918.6238 1667.0630
2057 63.6251 1878(43) 1946.1548 1666.5872
2058 63.6511 1898(44) 1978.7236 1666.1113
2059 63.6771 1984(45) 2017.7019 1665.6355
2060 63.7031 2077(46) 2065.0669 1665.1597
2061 63.7291 2150(46) 2123.8489 1664.6838
2062 63.7551 2250(47) 2198.7610 1664.2080
2063 63.7811 2413(49) 2297.1267 1663.7322
2064 63.8071 2580(51) 2429.7261 1663.2563
2065 63.8331 2710(52) 2611.3555 1662.7805
2066 63.8591 2892(54) 2861.6631 1662.3047
2067 63.8851 3183(56) 3213.1150 1661.8289
2068 63.9111 3733(61) 3741.2817 1661.3530
2069 63.9371 4614(68) 4621.8423 1660.8772
2070 63.9631 6176(79) 6157.0259 1660.4014
2071 63.9891 8845(94) 8717.4541 1659.9255
2072 64.0151 13014(114) 12665.0752 1659.4498
2073 64.0411 18246(135) 17905.5977 1658.9739
2074 64.0671 21919(148) 22067.0312 1658.4980
2075 64.0931 21149(145) 21287.5195 1658.0222
2076 64.1191 16404(128) 16665.3984 1657.5464
2077 64.1451 11897(109) 12103.9414 1657.0706
2078 64.1711 10007(100) 9716.7568 1656.5948
2079 64.1971 10307(102) 9733.1211 1656.1190
2080 64.2231 11712(108) 11352.5996 1655.6432
2081 64.2491 12542(112) 12602.1357 1655.1674
2082 64.2751 11497(107) 11444.7881 1654.6915
2083 64.3011 8583(93) 8656.9678 1654.2157
2084 64.3271 6028(78) 5982.1177 1653.7397
2085 64.3531 4320(66) 4191.5898 1653.2642
2086 64.3791 3341(58) 3221.5830 1652.7882
2087 64.4051 2869(54) 2740.2666 1652.3124
2088 64.4311 2567(51) 2491.2563 1651.8365
2089 64.4571 2352(48) 2343.9573 1651.3607
2090 64.4831 2224(47) 2242.1479 1650.8849
2091 64.5091 2142(46) 2163.1094 1650.4091
2092 64.5351 1990(45) 2097.9363 1649.9332
2093 64.5611 1942(44) 2043.0480 1649.4575
2094 64.5871 1981(45) 1996.6072 1648.9817
2095 64.6131 1995(45) 1957.3206 1648.5059
2096 64.6391 1849(43) 1924.0237 1648.0300
2097 64.6651 1801(42) 1895.6719 1647.5542
2098 64.6911 1848(43) 1871.3708 1647.0782
2099 64.7171 1814(43) 1850.3875 1646.6024
2100 64.7431 1824(43) 1832.1334 1646.1266
2101 64.7691 1784(42) 1816.1461 1645.6509
2102 64.7951 1808(43) 1802.0439 1645.1750
2103 64.8211 1819(43) 1789.5334 1644.6992
2104 64.8471 1790(42) 1778.3735 1644.2234
2105 64.8731 1845(43) 1768.3671 1643.7476
2106 64.8991 1748(42) 1759.3521 1643.2717
2107 64.9251 1776(42) 1751.1946 1642.7959
2108 64.9511 1771(42) 1743.7822 1642.3201
2109 64.9771 1679(41) 1737.0228 1641.8444
2110 65.0031 1780(42) 1730.8328 1641.3685
2111 65.0291 1709(41) 1725.1462 1640.8926
2112 65.0551 1675(41) 1719.9055 1640.4167
2113 65.0811 1635(40) 1671.6981 1639.9409
2114 65.1071 1707(41) 1669.3424 1639.4651
2115 65.1331 1659(41) 1667.1484 1638.9893
2116 65.1591 1695(41) 1665.0984 1638.5134
2117 65.1851 1693(41) 1663.1771 1638.0377
2118 65.2111 1758(42) 1661.3699 1637.5619
2119 65.2371 1706(41) 1659.6655 1637.0861
2120 65.2631 1726(42) 1636.6102 1636.6102
2121 65.2891 1707(41) 1636.1344 1636.1344
2122 65.3151 1748(42) 1635.6584 1635.6584
2123 65.3411 1718(41) 1635.1826 1635.1826
2124 65.3671 1639(40) 1634.7068 1634.7068
2125 65.3931 1630(40) 1634.2311 1634.2311
2126 65.4191 1704(41) 1633.7552 1633.7552
2127 65.4451 1708(41) 1633.2794 1633.2794
2128 65.4711 1659(41) 1632.8036 1632.8036
2129 65.4971 1637(40) 1632.3278 1632.3278
2130 65.5231 1670(41) 1631.8519 1631.8519
2131 65.5491 1739(42) 1631.3761 1631.3761
2132 65.5751 1701(41) 1630.9004 1630.9004
2133 65.6011 1649(41) 1630.4246 1630.4246
2134 65.6271 1640(40) 1629.9487 1629.9487
2135 65.6531 1677(41) 1629.4729 1629.4729
2136 65.6791 1642(41) 1628.9969 1628.9969
2137 65.7051 1664(41) 1628.5211 1628.5211
2138 65.7311 1600(40) 1628.0453 1628.0453
2139 65.7571 1617(40) 1627.5695 1627.5695
2140 65.7831 1679(41) 1627.0938 1627.0938
2141 65.8091 1715(41) 1626.6179 1626.6179
2142 65.8351 1614(40) 1626.1421 1626.1421
2143 65.8611 1649(41) 1625.6663 1625.6663
2144 65.8871 1652(41) 1625.1904 1625.1904
2145 65.9131 1608(40) 1624.7146 1624.7146
2146 65.9391 1645(41) 1624.2388 1624.2388
2147 65.9651 1675(41) 1623.7629 1623.7629
2148 65.9911 1640(40) 1623.2871 1623.2871
2149 66.0171 1623(40) 1622.8113 1622.8113
2150 66.0431 1667(41) 1622.3354 1622.3354
2151 66.0691 1669(41) 1621.8596 1621.8596
2152 66.0951 1699(41) 1621.3838 1621.3838
2153 66.1211 1679(41) 1620.9080 1620.9080
2154 66.1471 1628(40) 1620.4321 1620.4321
2155 66.1731 1689(41) 1619.9563 1619.9563
2156 66.1991 1660(41) 1619.4806 1619.4806
2157 66.2251 1588(40) 1619.0048 1619.0048
2158 66.2511 1613(40) 1618.7130 1618.7130
2159 66.2771 1599(40) 1618.5990 1618.5990
2160 66.3031 1614(40) 1618.4850 1618.4850
2161 66.3291 1664(41) 1618.3711 1618.3711
2162 66.3551 1688(41) 1618.2571 1618.2571
2163 66.3811 1660(41) 1618.1431 1618.1431
2164 66.4071 1650(41) 1618.0292 1618.0292
2165 66.4331 1679(41) 1617.9152 1617.9152
2166 66.4591 1635(40) 1617.8011 1617.8011
2167 66.4851 1595(40) 1617.6873 1617.6873
2168 66.5111 1595(40) 1617.5732 1617.5732
2169 66.5371 1642(41) 1617.4592 1617.4592
2170 66.5631 1660(41) 1617.3452 1617.3452
2171 66.5891 1646(41) 1617.2313 1617.2313
2172 66.6151 1667(41) 1617.1173 1617.1173
2173 66.6411 1637(40) 1617.0034 1617.0034
2174 66.6671 1630(40) 1616.8894 1616.8894
2175 66.6931 1604(40) 1616.7754 1616.7754
2176 66.7191 1573(40) 1616.6614 1616.6614
2177 66.7451 1631(40) 1616.5475 1616.5475
2178 66.7711 1659(41) 1616.4335 1616.4335
2179 66.7971 1660(41) 1616.3195 1616.3195
2180 66.8231 1639(40) 1616.2056 1616.2056
2181 66.8491 1572(40) 1616.0916 1616.0916
2182 66.8751 1583(40) 1615.9775 1615.9775
2183 66.9011 1589(40) 1615.8635 1615.8635
2184 66.9271 1613(40) 1615.7496 1615.7496
2185 66.9531 1653(41) 1615.6356 1615.6356
2186 66.9791 1625(40) 1615.5216 1615.5216
2187 67.0051 1588(40) 1615.4077 1615.4077
2188 67.0311 1610(40) 1615.2937 1615.2937
2189 67.0571 1632(40) 1615.1797 1615.1797
2190 67.0831 1596(40) 1615.0658 1615.0658
2191 67.1091 1595(40) 1614.9518 1614.9518
2192 67.1351 1560(39) 1614.8378 1614.8378
2193 67.1611 1617(40) 1614.7238 1614.7238
2194 67.1871 1594(40) 1614.6099 1614.6099
2195 67.2131 1572(40) 1614.4958 1614.4958
2196 67.2391 1525(39) 1614.3820 1614.3820
2197 67.2651 1635(40) 1614.2679 1614.2679
2198 67.2911 1531(39) 1614.1539 1614.1539
2199 67.3171 1610(40) 1614.0399 1614.0399
2200 67.3431 1591(40) 1613.9260 1613.9260
2201 67.3691 1603(40) 1613.8120 1613.8120
2202 67.3951 1640(40) 1613.6980 1613.6980
2203 67.4211 1594(40) 1615.4720 1613.5841
2204 67.4471 1584(40) 1615.4552 1613.4701
2205 67.4731 1650(41) 1615.4462 1613.3561
2206 67.4991 1558(39) 1615.4458 1613.2422
2207 67.5251 1576(40) 1615.4547 1613.1282
2208 67.5511 1624(40) 1615.4742 1613.0142
2209 67.5771 1598(40) 1615.5056 1612.9001
2210 67.6031 1629(40) 1615.5502 1612.7863
2211 67.6291 1673(41) 1616.5773 1612.6722
2212 67.6551 1587(40) 1616.7041 1612.5582
2213 67.6811 1566(40) 1616.8541 1612.4443
2214 67.7071 1548(39) 1617.0303 1612.3303
2215 67.7331 1620(40) 1617.2363 1612.2163
2216 67.7591 1562(40) 1617.4763 1612.1023
2217 67.7851 1560(39) 1617.7555 1611.9884
2218 67.8111 1557(39) 1618.0796 1611.8744
2219 67.8371 1560(39) 1618.4563 1611.7605
2220 67.8631 1560(39) 1618.8938 1611.6465
2221 67.8891 1534(39) 1619.4030 1611.5325
2222 67.9151 1559(39) 1619.9968 1611.4185
2223 67.9411 1583(40) 1620.6918 1611.3046
2224 67.9671 1587(40) 1621.5077 1611.1906
2225 67.9931 1561(40) 1622.4707 1611.0765
2226 68.0191 1562(40) 1623.6140 1610.9626
2227 68.0451 1609(40) 1624.9829 1610.8486
2228 68.0711 1521(39) 1626.6393 1610.7346
2229 68.0971 1641(41) 1628.6738 1610.6207
2230 68.1231 1635(40) 1631.2230 1610.5067
2231 68.1491 1567(40) 1634.4967 1610.3927
2232 68.1751 1568(40) 1638.8091 1610.2787
2233 68.2011 1566(40) 1644.6056 1610.1648
2234 68.2271 1598(40) 1652.4764 1610.0508
2235 68.2531 1648(41) 1663.2335 1609.9368
2236 68.2791 1678(41) 1678.2969 1609.8229
2237 68.3051 1716(41) 1700.9583 1609.7089
2238 68.3311 1720(41) 1738.3866 1609.5948
2239 68.3571 1820(43) 1802.3374 1609.4810
2240 68.3831 1890(43) 1906.9789 1609.3669
2241 68.4091 2079(46) 2065.6277 1609.2529
2242 68.4351 2254(47) 2273.9392 1609.1390
2243 68.4611 2412(49) 2447.5088 1609.0250
2244 68.4871 2419(49) 2437.1660 1608.9110
2245 68.5131 2218(47) 2261.7866 1608.7970
2246 68.5391 2007(45) 2066.9568 1608.6831
2247 68.5651 1996(45) 1943.8733 1608.5691
2248 68.5911 1952(44) 1912.5884 1608.4551
2249 68.6171 1974(44) 1956.2878 1608.3411
2250 68.6431 2055(45) 2032.9038 1608.2272
2251 68.6691 2115(46) 2059.0281 1608.1132
2252 68.6951 2001(45) 1987.9587 1607.9993
2253 68.7211 1859(43) 1873.2444 1607.8853
2254 68.7471 1701(41) 1773.0540 1607.7712
2255 68.7731 1621(40) 1707.5573 1607.6572
2256 68.7991 1608(40) 1671.5439 1607.5433
2257 68.8251 1628(40) 1652.9601 1607.4293
2258 68.8511 1620(40) 1642.8934 1607.3153
2259 68.8771 1579(40) 1636.7227 1607.2014
2260 68.9031 1586(40) 1632.3749 1607.0874
2261 68.9291 1601(40) 1628.9728 1606.9734
2262 68.9551 1585(40) 1626.1530 1606.8595
2263 68.9811 1596(40) 1623.7596 1606.7455
2264 69.0071 1588(40) 1621.7135 1606.6315
2265 69.0331 1581(40) 1619.9607 1606.5176
2266 69.0591 1604(40) 1618.4532 1606.4036
2267 69.0851 1590(40) 1617.1504 1606.2896
2268 69.1111 1578(40) 1616.0164 1606.1755
2269 69.1371 1577(40) 1615.0216 1606.0616
2270 69.1631 1585(40) 1614.1418 1605.9476
2271 69.1891 1591(40) 1613.3577 1605.8336
2272 69.2151 1592(40) 1612.6539 1605.7197
2273 69.2411 1584(40) 1612.0179 1605.6057
2274 69.2671 1585(40) 1611.4395 1605.4917
2275 69.2931 1537(39) 1610.9105 1605.3778
2276 69.3191 1535(39) 1610.4238 1605.2638
2277 69.3451 1641(41) 1609.9741 1605.1498
2278 69.3711 1619(40) 1609.5564 1605.0358
2279 69.3971 1575(40) 1609.1670 1604.9219
2280 69.4231 1600(40) 1608.8021 1604.8079
2281 69.4491 1589(40) 1608.4591 1604.6938
2282 69.4751 1647(41) 1608.1355 1604.5800
2283 69.5011 1593(40) 1607.8289 1604.4659
2284 69.5271 1612(40) 1605.7115 1604.3519
2285 69.5531 1599(40) 1605.5201 1604.2380
2286 69.5791 1607(40) 1605.3351 1604.1240
2287 69.6051 1596(40) 1605.1556 1604.0100
2288 69.6311 1554(39) 1604.9814 1603.8960
2289 69.6571 1581(40) 1604.8120 1603.7821
2290 69.6831 1595(40) 1604.6466 1603.6681
2291 69.7091 1605(40) 1604.4849 1603.5541
2292 69.7351 1649(41) 1603.4402 1603.4402
2293 69.7611 1564(40) 1603.3262 1603.3262
2294 69.7871 1595(40) 1603.2122 1603.2122
2295 69.8131 1681(41) 1603.0983 1603.0983
2296 69.8391 1652(41) 1602.9843 1602.9843
2297 69.8651 1641(41) 1602.8702 1602.8702
2298 69.8911 1705(41) 1602.7563 1602.7563
2299 69.9171 1666(41) 1602.6423 1602.6423
2300 69.9431 1582(40) 1602.5283 1602.5283
2301 69.9691 1571(40) 1602.4143 1602.4143
2302 69.9951 1626(40) 1602.3004 1602.3004
2303 70.0211 1671(41) 1602.1864 1602.1864
2304 70.0471 1638(40) 1602.0725 1602.0725
2305 70.0731 1585(40) 1601.9585 1601.9585
2306 70.0991 1678(41) 1601.8445 1601.8445
2307 70.1251 1604(40) 1601.7305 1601.7305
2308 70.1511 1624(40) 1601.6166 1601.6166
2309 70.1771 1637(40) 1601.5026 1601.5026
2310 70.2031 1559(39) 1601.3885 1601.3885
2311 70.2291 1680(41) 1601.2745 1601.2745
2312 70.2551 1602(40) 1601.1606 1601.1606
2313 70.2811 1551(39) 1601.0466 1601.0466
2314 70.3071 1602(40) 1600.9326 1600.9326
2315 70.3331 1650(41) 1600.8187 1600.8187
2316 70.3591 1612(40) 1600.7047 1600.7047
2317 70.3851 1693(41) 1600.5907 1600.5907
2318 70.4111 1655(41) 1600.4768 1600.4768
2319 70.4371 1657(41) 1600.3628 1600.3628
2320 70.4631 1687(41) 1600.2488 1600.2488
2321 70.4891 1672(41) 1600.1349 1600.1349
2322 70.5151 1618(40) 1600.0209 1600.0209
2323 70.5411 1582(40) 1599.9069 1599.9069
2324 70.5671 1608(40) 1599.7928 1599.7928
2325 70.5931 1665(41) 1599.6790 1599.6790
2326 70.6191 1664(41) 1599.5649 1599.5649
2327 70.6451 1631(40) 1599.4509 1599.4509
2328 70.6711 1624(40) 1599.3370 1599.3370
2329 70.6971 1602(40) 1599.2230 1599.2230
2330 70.7231 1635(40) 1599.1090 1599.1090
2331 70.7491 1646(41) 1598.9951 1598.9951
2332 70.7751 1689(41) 1598.8811 1598.8811
2333 70.8011 1636(40) 1598.6906 1598.6906
2334 70.8271 1660(41) 1598.4575 1598.4575
2335 70.8531 1630(40) 1598.2246 1598.2246
2336 70.8791 1667(41) 1597.9916 1597.9916
2337 70.9051 1559(39) 1597.7585 1597.7585
2338 70.9311 1569(40) 1597.5256 1597.5256
2339 70.9571 1612(40) 1597.2926 1597.2926
2340 70.9831 1643(41) 1597.0596 1597.0596
2341 71.0091 1609(40) 1596.8265 1596.8265
2342 71.0351 1619(40) 1596.5936 1596.5936
2343 71.0611 1642(41) 1596.3606 1596.3606
2344 71.0871 1611(40) 1596.1277 1596.1277
2345 71.1131 1584(40) 1595.8947 1595.8947
2346 71.1391 1624(40) 1595.6616 1595.6616
2347 71.1651 1586(40) 1595.4287 1595.4287
2348 71.1911 1601(40) 1595.1957 1595.1957
2349 71.2171 1660(41) 1594.9626 1594.9626
2350 71.2431 1654(41) 1594.7296 1594.7296
2351 71.2691 1636(40) 1594.4967 1594.4967
2352 71.2951 1622(40) 1594.2637 1594.2637
2353 71.3211 1593(40) 1594.0308 1594.0308
2354 71.3471 1599(40) 1593.7977 1593.7977
2355 71.3731 1623(40) 1593.5647 1593.5647
2356 71.3991 1627(40) 1593.3317 1593.3317
2357 71.4251 1628(40) 1593.0988 1593.0988
2358 71.4511 1674(41) 1592.8657 1592.8657
2359 71.4771 1698(41) 1592.6328 1592.6328
2360 71.5031 1646(41) 1592.3998 1592.3998
2361 71.5291 1628(40) 1592.1667 1592.1667
2362 71.5551 1625(40) 1591.9338 1591.9338
2363 71.5811 1635(40) 1591.7008 1591.7008
2364 71.6071 1659(41) 1591.4678 1591.4678
2365 71.6331 1666(41) 1591.2347 1591.2347
2366 71.6591 1669(41) 1635.9836 1591.0018
2367 71.6851 1648(41) 1638.0026 1590.7688
2368 71.7111 1621(40) 1640.1956 1590.5359
2369 71.7371 1611(40) 1642.5801 1590.3029
2370 71.7631 1621(40) 1645.1766 1590.0698
2371 71.7891 1651(41) 1648.0088 1589.8368
2372 71.8151 1665(41) 1651.1038 1589.6039
2373 71.8411 1618(40) 1675.8279 1589.3708
2374 71.8671 1631(40) 1680.5857 1589.1378
2375 71.8931 1667(41) 1685.7898 1588.9049
2376 71.9191 1643(41) 1691.4984 1588.6719
2377 71.9451 1649(41) 1697.7747 1588.4390
2378 71.9711 1687(41) 1704.6935 1588.2059
2379 71.9971 1718(41) 1712.3428 1587.9729
2380 72.0231 1769(42) 1720.8264 1587.7399
2381 72.0491 1705(41) 1730.2671 1587.5070
2382 72.0751 1642(41) 1740.8076 1587.2739
2383 72.1011 1713(41) 1752.6299 1587.0410
2384 72.1271 1716(41) 1765.9427 1586.8080
2385 72.1531 1748(42) 1781.0043 1586.5750
2386 72.1791 1804(42) 1798.1312 1586.3420
2387 72.2051 1815(43) 1817.7163 1586.1090
2388 72.2311 1810(43) 1840.2522 1585.8760
2389 72.2571 1823(43) 1866.3677 1585.6429
2390 72.2831 1866(43) 1896.8734 1585.4100
2391 72.3091 1977(44) 1932.8928 1585.1770
2392 72.3351 1990(45) 1975.9675 1584.9441
2393 72.3611 2005(45) 2028.3572 1584.7111
2394 72.3871 2194(47) 2093.4360 1584.4780
2395 72.4131 2184(47) 2176.2371 1584.2450
2396 72.4391 2375(49) 2284.0232 1584.0121
2397 72.4651 2456(50) 2426.7058 1583.7791
2398 72.4911 2693(52) 2617.2012 1583.5461
2399 72.5171 2931(54) 2874.0654 1583.3131
2400 72.5431 3333(58) 3231.8516 1583.0801
2401 72.5691 3831(62) 3768.7632 1582.8472
2402 72.5951 4720(69) 4643.4639 1582.6141
2403 72.6211 6101(78) 6102.0840 1582.3811
2404 72.6471 8396(92) 8433.9941 1582.1481
2405 72.6731 11982(109) 11899.2334 1581.9152
2406 72.6991 15954(126) 16385.2812 1581.6821
2407 72.7251 19711(140) 20242.2168 1581.4492
2408 72.7511 19543(140) 20419.6094 1581.2162
2409 72.7771 16095(127) 16896.3828 1580.9832
2410 72.8031 12047(110) 12540.2617 1580.7501
2411 72.8291 9250(96) 9397.6611 1580.5172
2412 72.8551 8396(92) 8091.6055 1580.2842
2413 72.8811 8675(93) 8441.1123 1580.0511
2414 72.9071 10156(101) 9942.6396 1579.8182
2415 72.9331 11420(107) 11512.3262 1579.5852
2416 72.9591 10898(104) 11457.3604 1579.3523
2417 72.9851 9000(95) 9537.1885 1579.1193
2418 73.0111 6827(83) 7073.0146 1578.8862
2419 73.0371 5048(71) 5051.6650 1578.6532
2420 73.0631 4058(64) 3744.0762 1578.4203
2421 73.0891 3243(57) 3010.9341 1578.1873
2422 73.1151 2725(52) 2619.0037 1577.9543
2423 73.1411 2430(49) 2399.7314 1577.7213
2424 73.1671 2287(48) 2262.8308 1577.4883
2425 73.1931 2168(47) 2166.1396 1577.2554
2426 73.2191 2041(45) 2090.9585 1577.0223
2427 73.2451 1903(44) 2029.1111 1576.7893
2428 73.2711 1860(43) 1976.9160 1576.5563
2429 73.2971 1889(43) 1932.4924 1576.3234
2430 73.3231 1845(43) 1894.5653 1576.0903
2431 73.3491 1811(43) 1862.1317 1575.8574
2432 73.3751 1795(42) 1834.2996 1575.6244
2433 73.4011 1718(41) 1810.2947 1575.3914
2434 73.4271 1741(42) 1789.4651 1575.1583
2435 73.4531 1689(41) 1771.2750 1574.9254
2436 73.4791 1682(41) 1755.2905 1574.6924
2437 73.5051 1677(41) 1741.1648 1574.4595
2438 73.5311 1627(40) 1728.6056 1574.2264
2439 73.5571 1637(40) 1717.3860 1573.9934
2440 73.5831 1679(41) 1707.3164 1573.7605
2441 73.6091 1631(40) 1698.2394 1573.5275
2442 73.6351 1640(40) 1690.0242 1573.2944
2443 73.6611 1642(41) 1682.5610 1573.0614
2444 73.6871 1604(40) 1675.7574 1572.8285
2445 73.7131 1596(40) 1669.5361 1572.5955
2446 73.7391 1546(39) 1663.8268 1572.3625
2447 73.7651 1542(39) 1658.5732 1572.1295
2448 73.7911 1559(39) 1653.7260 1571.8965
2449 73.8171 1540(39) 1649.2418 1571.6635
2450 73.8431 1613(40) 1603.1499 1571.4305
2451 73.8691 1626(40) 1601.1732 1571.1975
2452 73.8951 1578(40) 1599.3362 1570.9645
2453 73.9211 1582(40) 1597.6249 1570.7316
2454 73.9471 1620(40) 1596.0255 1570.4985
2455 73.9731 1626(40) 1594.5277 1570.2656
2456 73.9991 1620(40) 1593.1213 1570.0326
2457 74.0251 1636(40) 1591.7980 1569.7996
2458 74.0511 1609(40) 1569.5665 1569.5665
2459 74.0771 1562(40) 1569.3336 1569.3336
2460 74.1031 1557(39) 1569.1006 1569.1006
2461 74.1291 1563(40) 1568.8677 1568.8677
2462 74.1551 1591(40) 1568.6346 1568.6346
2463 74.1811 1581(40) 1568.4016 1568.4016
2464 74.2071 1554(39) 1568.1687 1568.1687
2465 74.2331 1551(39) 1567.9357 1567.9357
2466 74.2591 1510(39) 1567.7026 1567.7026
2467 74.2851 1503(39) 1567.4696 1567.4696
2468 74.3111 1551(39) 1567.2367 1567.2367
2469 74.3371 1584(40) 1567.0037 1567.0037
2470 74.3631 1612(40) 1566.7708 1566.7708
2471 74.3891 1607(40) 1566.5377 1566.5377
2472 74.4151 1568(40) 1566.3047 1566.3047
2473 74.4411 1571(40) 1566.0717 1566.0717
2474 74.4671 1585(40) 1565.8387 1565.8387
2475 74.4931 1558(39) 1565.6057 1565.6057
2476 74.5191 1540(39) 1565.3728 1565.3728
2477 74.5451 1585(40) 1565.1398 1565.1398
2478 74.5711 1594(40) 1564.9067 1564.9067
2479 74.5971 1575(40) 1564.6738 1564.6738
2480 74.6231 1581(40) 1564.4408 1564.4408
2481 74.6491 1574(40) 1564.2078 1564.2078
2482 74.6751 1533(39) 1563.9747 1563.9747
2483 74.7011 1527(39) 1563.7418 1563.7418
2484 74.7271 1563(40) 1563.5088 1563.5088
2485 74.7531 1562(40) 1563.2759 1563.2759
2486 74.7791 1549(39) 1563.0428 1563.0428
2487 74.8051 1584(40) 1562.8098 1562.8098
2488 74.8311 1579(40) 1562.5768 1562.5768
2489 74.8571 1581(40) 1562.3439 1562.3439
2490 74.8831 1602(40) 1562.1108 1562.1108
2491 74.9091 1557(39) 1561.8778 1561.8778
2492 74.9351 1581(40) 1561.6449 1561.6449
2493 74.9611 1591(40) 1561.4119 1561.4119
2494 74.9871 1530(39) 1561.1790 1561.1790
2495 75.0131 1564(40) 1560.9459 1560.9459
2496 75.0391 1574(40) 1560.7129 1560.7129
2497 75.0651 1615(40) 1560.4799 1560.4799
2498 75.0911 1595(40) 1560.2469 1560.2469
2499 75.1171 1570(40) 1560.0139 1560.0139
2500 75.1431 1581(40) 1559.7810 1559.7810
2501 75.1691 1582(40) 1559.5480 1559.5480
2502 75.1951 1560(39) 1559.3149 1559.3149
2503 75.2211 1583(40) 1559.0820 1559.0820
2504 75.2471 1569(40) 1558.8490 1558.8490
2505 75.2731 1568(40) 1558.6160 1558.6160
2506 75.2991 1538(39) 1558.3829 1558.3829
2507 75.3251 1603(40) 1558.1500 1558.1500
2508 75.3511 1537(39) 1557.9170 1557.9170
2509 75.3771 1516(39) 1557.6841 1557.6841
2510 75.4031 1580(40) 1557.4510 1557.4510
2511 75.4291 1560(39) 1557.2180 1557.2180
2512 75.4551 1556(39) 1556.9850 1556.9850
2513 75.4811 1575(40) 1556.7521 1556.7521
2514 75.5071 1546(39) 1556.5190 1556.5190
2515 75.5331 1556(39) 1556.2861 1556.2861
2516 75.5591 1534(39) 1556.0531 1556.0531
2517 75.5851 1514(39) 1555.8201 1555.8201
2518 75.6111 1556(39) 1555.5872 1555.5872
2519 75.6371 1568(40) 1555.3541 1555.3541
2520 75.6631 1583(40) 1555.1211 1555.1211
2521 75.6891 1606(40) 1554.8881 1554.8881
2522 75.7151 1594(40) 1554.6552 1554.6552
2523 75.7411 1571(40) 1554.4221 1554.4221
2524 75.7671 1554(39) 1554.2777 1554.1892
2525 75.7931 1550(39) 1554.0488 1553.9562
2526 75.8191 1570(40) 1553.8226 1553.7255
2527 75.8451 1561(40) 1553.8586 1553.7566
2528 75.8711 1585(40) 1553.8948 1553.7876
2529 75.8971 1622(40) 1553.9315 1553.8187
2530 75.9231 1549(39) 1553.9686 1553.8497
2531 75.9491 1541(39) 1554.0062 1553.8809
2532 75.9751 1548(39) 1554.0872 1553.9119
2533 76.0011 1552(39) 1554.1281 1553.9430
2534 76.0271 1572(40) 1554.1696 1553.9740
2535 76.0531 1568(40) 1554.2120 1554.0050
2536 76.0791 1511(39) 1554.2557 1554.0361
2537 76.1051 1522(39) 1554.3004 1554.0671
2538 76.1311 1565(40) 1554.3466 1554.0983
2539 76.1571 1568(40) 1554.3942 1554.1293
2540 76.1831 1555(39) 1554.4436 1554.1604
2541 76.2091 1598(40) 1554.4949 1554.1914
2542 76.2351 1575(40) 1554.5485 1554.2225
2543 76.2611 1551(39) 1554.6046 1554.2535
2544 76.2871 1536(39) 1554.6641 1554.2847
2545 76.3131 1521(39) 1554.7268 1554.3157
2546 76.3391 1513(39) 1554.7939 1554.3468
2547 76.3651 1526(39) 1554.8661 1554.3778
2548 76.3911 1497(39) 1554.9442 1554.4089
2549 76.4171 1524(39) 1555.0295 1554.4399
2550 76.4431 1528(39) 1555.1238 1554.4711
2551 76.4691 1530(39) 1555.2291 1554.5021
2552 76.4951 1585(40) 1555.3486 1554.5331
2553 76.5211 1546(39) 1555.4871 1554.5642
2554 76.5471 1566(40) 1555.6504 1554.5952
2555 76.5731 1565(40) 1555.8488 1554.6263
2556 76.5991 1562(40) 1556.0952 1554.6573
2557 76.6251 1536(39) 1556.4077 1554.6885
2558 76.6511 1551(39) 1556.8092 1554.7195
2559 76.6771 1597(40) 1557.3335 1554.7506
2560 76.7031 1572(40) 1558.0414 1554.7816
2561 76.7291 1553(39) 1559.0664 1554.8127
2562 76.7551 1558(39) 1560.6716 1554.8438
2563 76.7811 1544(39) 1563.2716 1554.8749
2564 76.8071 1562(40) 1567.3672 1554.9059
2565 76.8331 1564(40) 1573.4351 1554.9370
2566 76.8591 1570(40) 1581.5255 1554.9680
2567 76.8851 1599(40) 1589.6880 1554.9991
2568 76.9111 1597(40) 1592.7592 1555.0302
2569 76.9371 1604(40) 1588.1981 1555.0612
2570 76.9631 1601(40) 1580.0487 1555.0923
2571 76.9891 1592(40) 1572.7963 1555.1233
2572 77.0151 1578(40) 1568.4646 1555.1544
2573 77.0411 1550(39) 1567.2795 1555.1854
2574 77.0671 1531(39) 1568.7014 1555.2166
2575 77.0931 1568(40) 1571.8489 1555.2476
2576 77.1191 1621(40) 1574.7788 1555.2787
2577 77.1451 1591(40) 1574.6292 1555.3097
2578 77.1711 1563(40) 1571.1194 1555.3408
2579 77.1971 1576(40) 1566.5582 1555.3718
2580 77.2231 1554(39) 1562.7017 1555.4030
2581 77.2491 1579(40) 1560.0992 1555.4340
2582 77.2751 1541(39) 1558.5778 1555.4651
2583 77.3011 1556(39) 1557.7466 1555.4961
2584 77.3271 1571(40) 1557.2880 1555.5272
2585 77.3531 1516(39) 1557.0159 1555.5582
2586 77.3791 1524(39) 1556.8374 1555.5892
2587 77.4051 1578(40) 1556.7092 1555.6204
2588 77.4311 1606(40) 1556.6111 1555.6514
2589 77.4571 1542(39) 1556.5337 1555.6825
2590 77.4831 1530(39) 1556.4724 1555.7135
2591 77.5091 1570(40) 1556.4244 1555.7446
2592 77.5351 1600(40) 1556.3876 1555.7756
2593 77.5611 1561(40) 1556.3604 1555.8068
2594 77.5871 1551(39) 1556.3409 1555.8378
2595 77.6131 1548(39) 1556.3282 1555.8689
2596 77.6391 1584(40) 1556.3210 1555.8999
2597 77.6651 1556(39) 1556.3187 1555.9310
2598 77.6911 1566(40) 1556.3201 1555.9620
2599 77.7171 1543(39) 1556.3250 1555.9932
2600 77.7431 1566(40) 1556.3325 1556.0242
2601 77.7691 1532(39) 1556.3425 1556.0552
2602 77.7951 1583(40) 1556.3547 1556.0863
2603 77.8211 1598(40) 1556.3687 1556.1173
2604 77.8471 1569(40) 1556.3843 1556.1484
2605 77.8731 1587(40) 1556.4012 1556.1794
2606 77.8991 1533(39) 1556.4196 1556.2106
2607 77.9251 1544(39) 1556.4388 1556.2416
2608 77.9511 1589(40) 1556.4592 1556.2727
2609 77.9771 1583(40) 1556.4803 1556.3037
2610 78.0031 1534(39) 1556.5023 1556.3348
2611 78.0291 1578(40) 1556.5249 1556.3658
2612 78.0551 1508(39) 1556.4629 1556.3970
2613 78.0811 1596(40) 1556.4904 1556.4280
2614 78.1071 1579(40) 1556.5182 1556.4591
2615 78.1331 1635(40) 1556.5461 1556.4901
2616 78.1591 1560(40) 1556.5746 1556.5212
2617 78.1851 1527(39) 1556.6030 1556.5522
2618 78.2111 1644(41) 1556.6316 1556.5833
2619 78.2371 1484(39) 1556.6605 1556.6144
2620 78.2631 1622(40) 1556.6895 1556.6454
2621 78.2891 1527(39) 1556.6765 1556.6765
2622 78.3151 1580(40) 1556.7075 1556.7075
2623 78.3411 1618(40) 1556.7386 1556.7386
2624 78.3671 1592(40) 1556.7697 1556.7697
2625 78.3931 1544(39) 1556.8008 1556.8008
2626 78.4191 1670(41) 1556.8318 1556.8318
2627 78.4451 1590(40) 1556.8629 1556.8629
2628 78.4711 1556(39) 1556.8939 1556.8939
2629 78.4971 1552(39) 1556.9250 1556.9250
2630 78.5231 1549(39) 1556.9561 1556.9561
2631 78.5491 1585(40) 1556.9872 1556.9872
2632 78.5751 1587(40) 1557.0182 1557.0182
2633 78.6011 1631(40) 1557.0492 1557.0492
2634 78.6271 1602(40) 1557.0803 1557.0803
2635 78.6531 1630(40) 1557.1113 1557.1113
2636 78.6791 1638(40) 1557.1425 1557.1425
2637 78.7051 1640(41) 1557.1735 1557.1735
2638 78.7311 1615(40) 1557.2046 1557.2046
2639 78.7571 1636(40) 1557.2356 1557.2356
2640 78.7831 1620(40) 1557.2667 1557.2667
2641 78.8091 1604(40) 1557.2977 1557.2977
2642 78.8351 1577(40) 1557.3289 1557.3289
2643 78.8611 1548(39) 1557.3599 1557.3599
2644 78.8871 1547(39) 1557.3910 1557.3910
2645 78.9131 1578(40) 1557.4220 1557.4220
2646 78.9391 1632(40) 1557.4531 1557.4531
2647 78.9651 1645(41) 1557.4841 1557.4841
2648 78.9911 1589(40) 1557.5153 1557.5153
2649 79.0171 1556(39) 1557.5463 1557.5463
2650 79.0431 1575(40) 1557.5773 1557.5773
2651 79.0691 1573(40) 1557.6084 1557.6084
2652 79.0951 1568(40) 1557.6394 1557.6394
2653 79.1211 1561(40) 1557.6705 1557.6705
2654 79.1471 1556(39) 1557.7015 1557.7015
2655 79.1731 1535(39) 1557.7327 1557.7327
2656 79.1991 1587(40) 1557.7637 1557.7637
2657 79.2251 1647(41) 1557.7948 1557.7948
2658 79.2511 1673(41) 1557.8258 1557.8258
2659 79.2771 1584(40) 1557.8569 1557.8569
2660 79.3031 1556(39) 1557.8879 1557.8879
2661 79.3291 1574(40) 1557.9191 1557.9191
2662 79.3551 1580(40) 1557.9501 1557.9501
2663 79.3811 1586(40) 1557.9812 1557.9812
2664 79.4071 1596(40) 1558.0122 1558.0122
2665 79.4331 1591(40) 1558.0433 1558.0433
2666 79.4591 1571(40) 1558.0743 1558.0743
2667 79.4851 1593(40) 1558.1053 1558.1053
2668 79.5111 1614(40) 1558.1365 1558.1365
2669 79.5371 1590(40) 1558.1675 1558.1675
2670 79.5631 1602(40) 1558.1986 1558.1986
2671 79.5891 1590(40) 1558.2296 1558.2296
2672 79.6151 1538(39) 1558.2607 1558.2607
2673 79.6411 1566(40) 1558.2917 1558.2917
2674 79.6671 1586(40) 1558.3229 1558.3229
2675 79.6931 1613(40) 1558.3539 1558.3539
2676 79.7191 1573(40) 1558.3850 1558.3850
2677 79.7451 1577(40) 1558.4160 1558.4160
2678 79.7711 1610(40) 1558.4471 1558.4471
2679 79.7971 1605(40) 1571.6117 1558.4781
2680 79.8231 1581(40) 1572.2272 1558.5093
2681 79.8491 1609(40) 1572.8823 1558.5403
2682 79.8751 1567(40) 1573.5812 1558.5714
2683 79.9011 1578(40) 1574.3275 1558.6024
2684 79.9271 1557(39) 1575.1261 1558.6334
2685 79.9531 1560(39) 1575.9824 1558.6646
2686 79.9791 1570(40) 1576.9020 1558.6956
2687 80.0051 1624(40) 1577.8914 1558.7267
2688 80.0311 1577(40) 1578.9585 1558.7577
2689 80.0571 1523(39) 1586.8643 1558.7888
2690 80.0831 1569(40) 1588.4183 1558.8198
2691 80.1091 1644(41) 1590.1008 1558.8510
2692 80.1351 1597(40) 1591.9264 1558.8820
2693 80.1611 1589(40) 1593.9124 1558.9131
2694 80.1871 1649(41) 1596.0785 1558.9441
2695 80.2131 1609(40) 1598.4470 1558.9752
2696 80.2391 1627(40) 1601.0461 1559.0062
2697 80.2651 1588(40) 1603.9066 1559.0374
2698 80.2911 1599(40) 1607.0652 1559.0684
2699 80.3171 1629(40) 1610.5659 1559.0995
2700 80.3431 1622(40) 1614.4606 1559.1305
2701 80.3691 1655(41) 1618.8119 1559.1615
2702 80.3951 1603(40) 1623.6953 1559.1926
2703 80.4211 1677(41) 1629.2008 1559.2236
2704 80.4471 1630(40) 1635.4449 1559.2548
2705 80.4731 1625(40) 1642.5668 1559.2858
2706 80.4991 1651(41) 1650.7451 1559.3169
2707 80.5251 1705(41) 1660.2115 1559.3479
2708 80.5511 1642(41) 1671.2762 1559.3790
2709 80.5771 1667(41) 1684.3665 1559.4100
2710 80.6031 1709(41) 1700.0828 1559.4412
2711 80.6291 1663(41) 1719.3029 1559.4722
2712 80.6551 1716(41) 1743.2585 1559.5033
2713 80.6811 1796(42) 1773.6567 1559.5343
2714 80.7071 1824(43) 1812.7582 1559.5654
2715 80.7331 1925(44) 1863.4805 1559.5964
2716 80.7591 1922(44) 1929.8469 1559.6276
2717 80.7851 1939(44) 2018.6948 1559.6586
2718 80.8111 2113(46) 2143.9849 1559.6896
2719 80.8371 2336(48) 2333.8484 1559.7207
2720 80.8631 2527(50) 2635.2432 1559.7517
2721 80.8891 3105(56) 3110.4624 1559.7828
2722 80.9151 3790(62) 3825.7402 1559.8138
2723 80.9411 4799(69) 4826.7651 1559.8450
2724 80.9671 6230(79) 6033.5386 1559.8760
2725 80.9931 7248(85) 6994.0698 1559.9071
2726 81.0191 7171(85) 7024.2207 1559.9381
2727 81.0451 6026(78) 6132.0044 1559.9692
2728 81.0711 4899(70) 4959.0078 1560.0002
2729 81.0971 3871(62) 3998.2725 1560.0314
2730 81.1231 3507(59) 3439.8799 1560.0624
2731 81.1491 3384(58) 3286.9492 1560.0935
2732 81.1751 3681(61) 3470.5718 1560.1245
2733 81.2011 4027(63) 3895.3223 1560.1556
2734 81.2271 4357(66) 4358.8218 1560.1866
2735 81.2531 4411(66) 4492.8242 1560.2177
2736 81.2791 4012(63) 4123.0303 1560.2488
2737 81.3051 3351(58) 3493.7854 1560.2798
2738 81.3311 2824(53) 2887.8315 1560.3109
2739 81.3571 2496(50) 2433.1702 1560.3419
2740 81.3831 2177(47) 2140.9697 1560.3730
2741 81.4091 1984(45) 1969.3291 1560.4041
2742 81.4351 1902(44) 1870.5631 1560.4352
2743 81.4611 1826(43) 1811.0623 1560.4662
2744 81.4871 1747(42) 1771.9528 1560.4973
2745 81.5131 1668(41) 1743.6588 1560.5283
2746 81.5391 1656(41) 1721.5304 1560.5594
2747 81.5651 1681(41) 1703.3229 1560.5905
2748 81.5911 1656(41) 1687.9257 1560.6216
2749 81.6171 1625(40) 1674.7417 1560.6526
2750 81.6431 1613(40) 1663.3989 1560.6836
2751 81.6691 1629(40) 1653.6088 1560.7147
2752 81.6951 1664(41) 1645.1383 1560.7457
2753 81.7211 1607(40) 1637.7830 1560.7769
2754 81.7471 1596(40) 1631.3663 1560.8079
2755 81.7731 1623(40) 1625.7404 1560.8390
2756 81.7991 1595(40) 1620.7814 1560.8700
2757 81.8251 1588(40) 1616.3893 1560.9011
2758 81.8511 1597(40) 1612.4781 1560.9321
2759 81.8771 1545(39) 1608.9807 1560.9633
2760 81.9031 1533(39) 1605.8401 1560.9943
2761 81.9291 1562(40) 1603.0093 1561.0254
2762 81.9551 1575(40) 1600.4482 1561.0564
2763 81.9811 1563(40) 1598.1239 1561.0875
2764 82.0071 1595(40) 1596.0077 1561.1185
2765 82.0331 1610(40) 1594.0760 1561.1495
2766 82.0591 1527(39) 1592.3074 1561.1807
2767 82.0851 1466(38) 1590.6841 1561.2117
2768 82.1111 1487(39) 1589.1909 1561.2428
2769 82.1371 1563(40) 1587.8143 1561.2738
2770 82.1631 1580(40) 1586.5427 1561.3049
2771 82.1891 1599(40) 1585.3657 1561.3359
2772 82.2151 1647(41) 1571.4028 1561.3671
2773 82.2411 1569(40) 1570.9208 1561.3981
2774 82.2671 1500(39) 1570.4769 1561.4292
2775 82.2931 1492(39) 1570.0676 1561.4602
2776 82.3191 1544(39) 1569.6898 1561.4913
2777 82.3451 1567(40) 1569.3403 1561.5223
2778 82.3711 1515(39) 1569.0167 1561.5535
2779 82.3971 1541(39) 1568.7166 1561.5845
2780 82.4231 1589(40) 1568.4381 1561.6156
2781 82.4491 1552(39) 1568.1793 1561.6466
2782 82.4751 1521(39) 1561.6776 1561.6776
2783 82.5011 1550(39) 1561.7087 1561.7087
2784 82.5271 1588(40) 1561.7397 1561.7397
2785 82.5531 1552(39) 1561.7709 1561.7709
2786 82.5791 1583(40) 1561.8019 1561.8019
2787 82.6051 1579(40) 1561.8330 1561.8330
2788 82.6311 1546(39) 1561.8640 1561.8640
2789 82.6571 1578(40) 1561.8951 1561.8951
2790 82.6831 1534(39) 1561.9261 1561.9261
2791 82.7091 1548(39) 1561.9573 1561.9573
2792 82.7351 1519(39) 1561.9883 1561.9883
2793 82.7611 1538(39) 1562.0194 1562.0194
2794 82.7871 1560(39) 1562.0504 1562.0504
2795 82.8131 1541(39) 1562.0815 1562.0815
2796 82.8391 1608(40) 1562.1125 1562.1125
2797 82.8651 1554(39) 1562.1437 1562.1437
2798 82.8911 1595(40) 1562.1747 1562.1747
2799 82.9171 1570(40) 1562.2057 1562.2057
2800 82.9431 1567(40) 1562.2368 1562.2368
2801 82.9691 1607(40) 1562.2678 1562.2678
2802 82.9951 1573(40) 1562.2990 1562.2990
2803 83.0211 1557(39) 1562.3300 1562.3300
2804 83.0471 1482(39) 1562.3611 1562.3611
2805 83.0731 1525(39) 1562.3921 1562.3921
2806 83.0991 1509(39) 1562.4232 1562.4232
2807 83.1251 1466(38) 1562.4542 1562.4542
2808 83.1511 1490(39) 1562.4854 1562.4854
2809 83.1771 1505(39) 1562.5164 1562.5164
2810 83.2031 1521(39) 1562.5475 1562.5475
2811 83.2291 1544(39) 1562.5785 1562.5785
2812 83.2551 1479(38) 1562.6096 1562.6096
2813 83.2811 1540(39) 1562.6406 1562.6406
2814 83.3071 1494(39) 1562.6718 1562.6718
2815 83.3331 1561(40) 1562.7028 1562.7028
2816 83.3591 1500(39) 1562.7338 1562.7338
2817 83.3851 1530(39) 1562.7649 1562.7649
2818 83.4111 1529(39) 1562.7959 1562.7959
2819 83.4371 1448(38) 1562.8270 1562.8270
2820 83.4631 1500(39) 1562.8580 1562.8580
2821 83.4891 1551(39) 1562.8892 1562.8892
2822 83.5151 1497(39) 1562.9202 1562.9202
2823 83.5411 1562(40) 1562.9513 1562.9513
2824 83.5671 1515(39) 1562.9823 1562.9823
2825 83.5931 1601(40) 1563.0134 1563.0134
2826 83.6191 1514(39) 1563.0444 1563.0444
2827 83.6451 1486(39) 1563.0756 1563.0756
2828 83.6711 1508(39) 1563.1066 1563.1066
2829 83.6971 1601(40) 1563.1377 1563.1377
2830 83.7231 1546(39) 1563.1687 1563.1687
2831 83.7491 1543(39) 1563.1998 1563.1998
2832 83.7751 1492(39) 1563.2308 1563.2308
2833 83.8011 1513(39) 1563.9194 1563.2618
2834 83.8271 1550(39) 1563.9786 1563.2930
2835 83.8531 1551(39) 1564.0396 1563.3240
2836 83.8791 1490(39) 1564.1027 1563.3551
2837 83.9051 1542(39) 1564.1677 1563.3861
2838 83.9311 1534(39) 1564.2354 1563.4172
2839 83.9571 1533(39) 1564.3055 1563.4482
2840 83.9831 1527(39) 1564.3785 1563.4794
2841 84.0091 1505(39) 1564.4547 1563.5104
2842 84.0351 1490(39) 1564.5344 1563.5415
2843 84.0611 1490(39) 1564.9464 1563.5725
2844 84.0871 1500(39) 1565.0482 1563.6036
2845 84.1131 1500(39) 1565.1556 1563.6346
2846 84.1391 1506(39) 1565.2694 1563.6658
2847 84.1651 1526(39) 1565.3900 1563.6968
2848 84.1911 1568(40) 1565.5184 1563.7279
2849 84.2171 1521(39) 1565.6556 1563.7589
2850 84.2431 1554(39) 1565.8025 1563.7899
2851 84.2691 1544(39) 1565.9606 1563.8210
2852 84.2951 1552(39) 1566.1311 1563.8521
2853 84.3211 1580(40) 1566.3159 1563.8832
2854 84.3471 1569(40) 1566.5168 1563.9142
2855 84.3731 1563(40) 1566.7366 1563.9453
2856 84.3991 1553(39) 1566.9778 1563.9763
2857 84.4251 1545(39) 1567.2439 1564.0074
2858 84.4511 1550(39) 1567.5389 1564.0385
2859 84.4771 1561(40) 1567.8683 1564.0696
2860 84.5031 1552(39) 1568.2378 1564.1006
2861 84.5291 1532(39) 1568.6558 1564.1317
2862 84.5551 1516(39) 1569.1321 1564.1627
2863 84.5811 1538(39) 1569.6801 1564.1938
2864 84.6071 1539(39) 1570.3177 1564.2249
2865 84.6331 1563(40) 1571.0704 1564.2560
2866 84.6591 1569(40) 1571.9731 1564.2870
2867 84.6851 1528(39) 1573.0747 1564.3180
2868 84.7111 1536(39) 1574.4434 1564.3491
2869 84.7371 1550(39) 1576.1670 1564.3801
2870 84.7631 1552(39) 1578.3594 1564.4113
2871 84.7891 1564(40) 1581.1702 1564.4423
2872 84.8151 1571(40) 1584.8291 1564.4734
2873 84.8411 1589(40) 1589.7651 1564.5044
2874 84.8671 1598(40) 1596.8346 1564.5355
2875 84.8931 1609(40) 1607.5701 1564.5665
2876 84.9191 1643(41) 1624.2548 1564.5977
2877 84.9451 1624(40) 1649.6259 1564.6287
2878 84.9711 1693(41) 1686.3396 1564.6598
2879 84.9971 1804(42) 1735.4132 1564.6908
2880 85.0231 1813(43) 1790.4506 1564.7219
2881 85.0491 1792(42) 1828.4250 1564.7529
2882 85.0751 1790(42) 1822.8475 1564.7839
2883 85.1011 1785(42) 1779.6562 1564.8151
2884 85.1271 1734(42) 1726.3025 1564.8461
2885 85.1531 1661(41) 1682.2952 1564.8772
2886 85.1791 1668(41) 1655.1833 1564.9082
2887 85.2051 1686(41) 1645.3127 1564.9393
2888 85.2311 1672(41) 1650.1475 1564.9703
2889 85.2571 1706(41) 1666.5166 1565.0015
2890 85.2831 1733(42) 1688.9479 1565.0325
2891 85.3091 1717(41) 1705.0072 1565.0636
2892 85.3351 1746(42) 1700.5312 1565.0946
2893 85.3611 1737(42) 1677.1479 1565.1257
2894 85.3871 1694(41) 1647.9095 1565.1567
2895 85.4131 1663(41) 1622.2927 1565.1879
2896 85.4391 1612(40) 1603.6857 1565.2189
2897 85.4651 1628(40) 1591.7186 1565.2500
2898 85.4911 1658(41) 1584.5245 1565.2810
2899 85.5171 1655(41) 1580.2351 1565.3120
2900 85.5431 1576(40) 1577.5631 1565.3431
2901 85.5691 1557(39) 1575.7650 1565.3741
2902 85.5951 1569(40) 1574.4503 1565.4053
2903 85.6211 1587(40) 1573.4207 1565.4363
2904 85.6471 1611(40) 1572.5762 1565.4674
2905 85.6731 1575(40) 1571.8645 1565.4984
2906 85.6991 1526(39) 1571.2574 1565.5295
2907 85.7251 1585(40) 1570.7362 1565.5605
2908 85.7511 1578(40) 1570.2882 1565.5917
2909 85.7771 1573(40) 1569.9022 1565.6227
2910 85.8031 1537(39) 1569.5693 1565.6538
2911 85.8291 1574(40) 1569.2812 1565.6848
2912 85.8551 1645(41) 1569.0312 1565.7159
2913 85.8811 1620(40) 1568.8136 1565.7469
2914 85.9071 1615(40) 1568.6235 1565.7780
2915 85.9331 1586(40) 1568.4570 1565.8091
2916 85.9591 1595(40) 1568.3108 1565.8401
2917 85.9851 1639(40) 1568.1823 1565.8712
2918 86.0111 1531(39) 1568.0688 1565.9022
2919 86.0371 1554(39) 1567.9690 1565.9333
2920 86.0631 1565(40) 1567.8807 1565.9644
2921 86.0891 1627(40) 1567.8030 1565.9955
2922 86.1151 1593(40) 1567.7341 1566.0265
2923 86.1411 1555(39) 1567.6737 1566.0576
2924 86.1671 1608(40) 1567.6085 1566.0768
2925 86.1931 1541(39) 1567.5016 1566.0476
2926 86.2191 1590(40) 1567.4004 1566.0184
2927 86.2451 1592(40) 1567.3047 1565.9894
2928 86.2711 1674(41) 1567.2136 1565.9602
2929 86.2971 1657(41) 1567.1270 1565.9310
2930 86.3231 1584(40) 1566.4065 1565.9020
2931 86.3491 1630(40) 1566.3524 1565.8728
2932 86.3751 1581(40) 1566.3002 1565.8436
2933 86.4011 1614(40) 1566.2498 1565.8146
2934 86.4271 1676(41) 1566.2006 1565.7854
2935 86.4531 1645(41) 1566.1527 1565.7562
2936 86.4791 1622(40) 1566.1062 1565.7271
2937 86.5051 1595(40) 1566.0608 1565.6980
2938 86.5311 1615(40) 1566.0164 1565.6688
2939 86.5571 1581(40) 1565.9729 1565.6396
2940 86.5831 1577(40) 1565.9304 1565.6106
2941 86.6091 1552(39) 1565.5814 1565.5814
2942 86.6351 1605(40) 1565.5522 1565.5522
2943 86.6611 1656(41) 1565.5231 1565.5231
2944 86.6871 1602(40) 1565.4940 1565.4940
2945 86.7131 1599(40) 1565.4648 1565.4648
2946 86.7391 1561(40) 1565.4357 1565.4357
2947 86.7651 1565(40) 1565.4066 1565.4066
2948 86.7911 1574(40) 1565.3774 1565.3774
2949 86.8171 1631(40) 1565.3483 1565.3483
2950 86.8431 1601(40) 1565.3191 1565.3191
2951 86.8691 1584(40) 1565.2900 1565.2900
2952 86.8951 1546(39) 1565.2609 1565.2609
2953 86.9211 1585(40) 1565.2317 1565.2317
2954 86.9471 1624(40) 1565.2026 1565.2026
2955 86.9731 1602(40) 1565.1735 1565.1735
2956 86.9991 1551(39) 1565.1443 1565.1443
2957 87.0251 1582(40) 1565.1151 1565.1151
2958 87.0511 1597(40) 1565.0861 1565.0861
2959 87.0771 1587(40) 1565.0569 1565.0569
2960 87.1031 1600(40) 1565.0277 1565.0277
2961 87.1291 1578(40) 1564.9987 1564.9987
2962 87.1551 1599(40) 1564.9695 1564.9695
2963 87.1811 1626(40) 1564.9403 1564.9403
2964 87.2071 1559(39) 1564.9111 1564.9111
2965 87.2331 1580(40) 1564.8821 1564.8821
2966 87.2591 1615(40) 1564.8529 1564.8529
2967 87.2851 1600(40) 1564.8237 1564.8237
2968 87.3111 1589(40) 1564.7947 1564.7947
2969 87.3371 1632(40) 1564.7655 1564.7655
2970 87.3631 1636(40) 1564.7363 1564.7363
2971 87.3891 1583(40) 1564.7073 1564.7073
2972 87.4151 1567(40) 1564.6781 1564.6781
2973 87.4411 1544(39) 1564.6489 1564.6489
2974 87.4671 1580(40) 1564.6198 1564.6198
2975 87.4931 1602(40) 1564.5907 1564.5907
2976 87.5191 1586(40) 1564.5615 1564.5615
2977 87.5451 1576(40) 1564.5323 1564.5323
2978 87.5711 1585(40) 1564.5033 1564.5033
2979 87.5971 1603(40) 1564.4741 1564.4741
2980 87.6231 1609(40) 1564.4449 1564.4449
2981 87.6491 1579(40) 1564.4158 1564.4158
2982 87.6751 1626(40) 1564.3867 1564.3867
2983 87.7011 1614(40) 1564.3575 1564.3575
2984 87.7271 1628(40) 1564.3284 1564.3284
2985 87.7531 1640(41) 1611.2748 1564.2993
2986 87.7791 1604(40) 1613.1351 1564.2701
2987 87.8051 1634(40) 1615.1117 1564.2410
2988 87.8311 1652(41) 1617.2141 1564.2118
2989 87.8571 1619(40) 1619.4532 1564.1827
2990 87.8831 1560(40) 1621.8408 1564.1536
2991 87.9091 1616(40) 1624.3901 1564.1244
2992 87.9351 1663(41) 1627.1152 1564.0953
2993 87.9611 1625(40) 1630.0339 1564.0662
2994 87.9871 1664(41) 1633.1641 1564.0370
2995 88.0131 1652(41) 1636.5261 1564.0078
2996 88.0391 1594(40) 1663.8950 1563.9788
2997 88.0651 1640(40) 1668.7534 1563.9496
2998 88.0911 1651(41) 1673.9823 1563.9204
2999 88.1171 1686(41) 1679.6202 1563.8914
3000 88.1431 1621(40) 1685.7091 1563.8622
3001 88.1691 1631(40) 1692.3024 1563.8330
3002 88.1951 1674(41) 1699.4554 1563.8038
3003 88.2211 1684(41) 1707.2336 1563.7748
3004 88.2471 1677(41) 1715.7120 1563.7456
3005 88.2731 1668(41) 1724.9778 1563.7164
3006 88.2991 1733(42) 1735.1317 1563.6874
3007 88.3251 1730(42) 1746.2880 1563.6582
3008 88.3511 1725(42) 1758.5913 1563.6290
3009 88.3771 1794(42) 1772.2013 1563.6000
3010 88.4031 1716(41) 1787.3105 1563.5708
3011 88.4291 1748(42) 1804.1494 1563.5416
3012 88.4551 1832(43) 1822.9944 1563.5125
3013 88.4811 1825(43) 1844.1818 1563.4834
3014 88.5071 1848(43) 1868.1240 1563.4542
3015 88.5331 1915(44) 1895.3276 1563.4250
3016 88.5591 1929(44) 1926.4644 1563.3960
3017 88.5851 2018(45) 1962.3809 1563.3668
3018 88.6111 2049(45) 2004.2177 1563.3376
3019 88.6371 2044(45) 2053.5281 1563.3085
3020 88.6631 2130(46) 2112.4492 1563.2794
3021 88.6891 2188(47) 2183.9102 1563.2502
3022 88.7151 2334(48) 2271.8540 1563.2211
3023 88.7411 2439(49) 2381.3975 1563.1920
3024 88.7671 2440(49) 2519.1609 1563.1628
3025 88.7931 2675(52) 2693.5508 1563.1337
3026 88.8191 2904(54) 2916.5645 1563.1045
3027 88.8451 3169(56) 3208.5972 1563.0754
3028 88.8711 3623(60) 3608.5583 1563.0463
3029 88.8971 4150(64) 4188.2090 1563.0171
3030 88.9231 4961(70) 5062.5820 1562.9880
3031 88.9491 6250(79) 6384.8306 1562.9589
3032 88.9751 8227(91) 8326.3633 1562.9297
3033 89.0011 10916(104) 11033.2598 1562.9005
3034 89.0271 14615(121) 14491.0352 1562.8715
3035 89.0531 18421(136) 18108.6367 1562.8423
3036 89.0791 20329(143) 20291.9023 1562.8131
3037 89.1051 19245(139) 19588.5605 1562.7841
3038 89.1311 15957(126) 16604.6816 1562.7549
3039 89.1571 12401(111) 13033.6807 1562.7257
3040 89.1831 9711(99) 10033.5645 1562.6965
3041 89.2091 8231(91) 8067.7925 1562.6675
3042 89.2351 7503(87) 7180.5898 1562.6383
3043 89.2611 7577(87) 7238.1436 1562.6091
3044 89.2871 8228(91) 8073.2432 1562.5801
3045 89.3131 9727(99) 9468.1152 1562.5509
3046 89.3391 10886(104) 10921.2285 1562.5217
3047 89.3651 11226(106) 11515.8789 1562.4927
3048 89.3911 10343(102) 10681.6387 1562.4635
3049 89.4171 8587(93) 8901.5010 1562.4343
3050 89.4431 6776(82) 6971.1309 1562.4052
3051 89.4691 5238(72) 5352.5815 1562.3761
3052 89.4951 4286(65) 4183.5327 1562.3469
3053 89.5211 3609(60) 3418.2612 1562.3177
3054 89.5471 3135(56) 2943.0498 1562.2887
3055 89.5731 2800(53) 2648.8130 1562.2595
3056 89.5991 2534(50) 2459.1826 1562.2303
3057 89.6251 2312(48) 2328.4124 1562.2012
3058 89.6511 2129(46) 2231.3789 1562.1721
3059 89.6771 2087(46) 2154.7568 1562.1429
3060 89.7031 2062(45) 2091.5054 1562.1138
3061 89.7291 1985(45) 2037.8298 1562.0847
3062 89.7551 1873(43) 1991.5909 1562.0555
3063 89.7811 1820(43) 1951.4229 1562.0264
3064 89.8071 1806(43) 1916.3948 1561.9972
3065 89.8331 1821(43) 1885.7595 1561.9681
3066 89.8591 1837(43) 1858.8856 1561.9390
3067 89.8851 1773(42) 1835.2284 1561.9098
3068 89.9111 1692(41) 1814.3188 1561.8807
3069 89.9371 1677(41) 1795.7572 1561.8516
3070 89.9631 1731(42) 1779.2112 1561.8224
3071 89.9891 1734(42) 1764.3893 1561.7932
3072 90.0151 1704(41) 1751.0608 1561.7642
3073 90.0411 1720(41) 1739.0280 1561.7350
3074 90.0671 1714(41) 1728.1252 1561.7058
3075 90.0931 1707(41) 1718.2129 1561.6768
3076 90.1191 1682(41) 1709.1719 1561.6476
3077 90.1451 1623(40) 1700.9012 1561.6184
3078 90.1711 1586(40) 1693.3163 1561.5892
3079 90.1971 1597(40) 1686.3383 1561.5602
3080 90.2231 1616(40) 1679.9043 1561.5310
3081 90.2491 1615(40) 1673.9585 1561.5018
3082 90.2751 1634(40) 1668.4519 1561.4728
3083 90.3011 1608(40) 1663.3413 1561.4436
3084 90.3271 1616(40) 1658.5890 1561.4144
3085 90.3531 1615(40) 1654.1632 1561.3854
3086 90.3791 1619(40) 1650.0315 1561.3562
3087 90.4051 1659(41) 1646.1691 1561.3270
3088 90.4311 1622(40) 1597.3101 1561.2979
3089 90.4571 1574(40) 1595.6045 1561.2688
3090 90.4831 1575(40) 1594.0131 1561.2396
3091 90.5091 1607(40) 1592.5256 1561.2104
3092 90.5351 1619(40) 1591.1332 1561.1813
3093 90.5611 1577(40) 1589.8284 1561.1522
3094 90.5871 1645(41) 1588.6027 1561.1230
3095 90.6131 1572(40) 1587.4502 1561.0939
3096 90.6391 1568(40) 1586.3654 1561.0648
3097 90.6651 1649(41) 1585.3424 1561.0356
3098 90.6911 1681(41) 1584.3768 1561.0065
3099 90.7171 1631(40) 1560.9774 1560.9774
3100 90.7431 1628(40) 1560.9482 1560.9482
3101 90.7691 1559(39) 1560.9191 1560.9191
3102 90.7951 1633(40) 1560.8899 1560.8899
3103 90.8211 1587(40) 1560.8608 1560.8608
3104 90.8471 1567(40) 1560.8317 1560.8317
3105 90.8731 1606(40) 1560.8025 1560.8025
3106 90.8991 1607(40) 1560.7734 1560.7734
3107 90.9251 1624(40) 1560.7443 1560.7443
3108 90.9511 1602(40) 1560.7151 1560.7151
3109 90.9771 1576(40) 1560.6859 1560.6859
3110 91.0031 1596(40) 1560.6569 1560.6569
3111 91.0291 1591(40) 1560.6277 1560.6277
3112 91.0551 1609(40) 1560.5985 1560.5985
3113 91.0811 1622(40) 1560.5695 1560.5695
3114 91.1071 1607(40) 1560.5403 1560.5403
3115 91.1331 1576(40) 1560.5111 1560.5111
3116 91.1591 1557(39) 1560.4819 1560.4819
3117 91.1851 1650(41) 1560.4529 1560.4529
3118 91.2111 1563(40) 1560.4237 1560.4237
3119 91.2371 1561(40) 1560.3945 1560.3945
3120 91.2631 1590(40) 1560.3655 1560.3655
3121 91.2891 1566(40) 1560.3363 1560.3363
3122 91.3151 1628(40) 1560.3071 1560.3071
3123 91.3411 1612(40) 1560.2780 1560.2780
3124 91.3671 1539(39) 1560.2489 1560.2489
3125 91.3931 1555(39) 1560.2197 1560.2197
3126 91.4191 1560(39) 1560.1906 1560.1906
3127 91.4451 1545(39) 1560.1615 1560.1615
3128 91.4711 1570(40) 1560.1323 1560.1323
3129 91.4971 1625(40) 1560.1031 1560.1031
3130 91.5231 1627(40) 1560.0740 1560.0740
3131 91.5491 1516(39) 1560.0449 1560.0449
3132 91.5751 1524(39) 1560.0157 1560.0157
3133 91.6011 1570(40) 1559.9866 1559.9866
3134 91.6271 1600(40) 1559.9575 1559.9575
3135 91.6531 1563(40) 1559.9283 1559.9283
3136 91.6791 1610(40) 1559.8992 1559.8992
3137 91.7051 1628(40) 1559.8701 1559.8701
3138 91.7311 1657(41) 1559.8409 1559.8409
3139 91.7571 1549(39) 1559.8118 1559.8118
3140 91.7831 1592(40) 1559.7826 1559.7826
3141 91.8091 1637(40) 1559.7535 1559.7535
3142 91.8351 1582(40) 1559.7244 1559.7244
3143 91.8611 1575(40) 1559.6952 1559.6952
3144 91.8871 1629(40) 1559.6661 1559.6661
3145 91.9131 1669(41) 1559.6370 1559.6370
3146 91.9391 1561(40) 1559.6078 1559.6078
3147 91.9651 1548(39) 1559.5786 1559.5786
3148 91.9911 1547(39) 1559.5496 1559.5496
3149 92.0171 1512(39) 1559.5204 1559.5204
3150 92.0431 1542(39) 1559.4912 1559.4912
3151 92.0691 1573(40) 1559.4622 1559.4622
3152 92.0951 1593(40) 1559.4330 1559.4330
3153 92.1211 1592(40) 1559.4038 1559.4038
3154 92.1471 1586(40) 1559.3746 1559.3746
3155 92.1731 1591(40) 1559.3456 1559.3456
3156 92.1991 1590(40) 1559.3164 1559.3164
3157 92.2251 1544(39) 1559.2872 1559.2872
3158 92.2511 1520(39) 1559.2582 1559.2582
3159 92.2771 1538(39) 1559.2290 1559.2290
3160 92.3031 1540(39) 1559.1998 1559.1998
3161 92.3291 1518(39) 1559.1707 1559.1707
3162 92.3551 1577(40) 1559.1416 1559.1416
3163 92.3811 1583(40) 1559.1124 1559.1124
3164 92.4071 1583(40) 1559.0833 1559.0833
3165 92.4331 1583(40) 1559.0542 1559.0542
3166 92.4591 1569(40) 1559.0250 1559.0250
3167 92.4851 1562(40) 1558.9958 1558.9958
3168 92.5111 1499(39) 1558.9667 1558.9667
3169 92.5371 1525(39) 1558.9376 1558.9376
3170 92.5631 1607(40) 1558.9084 1558.9084
3171 92.5891 1602(40) 1558.8793 1558.8793
3172 92.6151 1570(40) 1558.8502 1558.8502
3173 92.6411 1553(39) 1558.8210 1558.8210
3174 92.6671 1559(39) 1558.7919 1558.7919
3175 92.6931 1573(40) 1558.7628 1558.7628
3176 92.7191 1610(40) 1558.7336 1558.7336
3177 92.7451 1603(40) 1558.7045 1558.7045
3178 92.7711 1529(39) 1558.6753 1558.6753
3179 92.7971 1529(39) 1558.6462 1558.6462
3180 92.8231 1565(40) 1558.6171 1558.6171
3181 92.8491 1577(40) 1558.5879 1558.5879
3182 92.8751 1572(40) 1558.5588 1558.5588
3183 92.9011 1578(40) 1558.5297 1558.5297
3184 92.9271 1563(40) 1558.5005 1558.5005
3185 92.9531 1532(39) 1558.4713 1558.4713
3186 92.9791 1579(40) 1558.4423 1558.4423
3187 93.0051 1578(40) 1558.4131 1558.4131
3188 93.0311 1559(39) 1558.3839 1558.3839
3189 93.0571 1502(39) 1558.3549 1558.3549
3190 93.0831 1585(40) 1558.3257 1558.3257
3191 93.1091 1617(40) 1558.2965 1558.2965
3192 93.1351 1564(40) 1558.2673 1558.2673
3193 93.1611 1543(39) 1558.2383 1558.2383
3194 93.1871 1546(39) 1558.2091 1558.2091
3195 93.2131 1549(39) 1558.1799 1558.1799
3196 93.2391 1511(39) 1558.1509 1558.1509
3197 93.2651 1555(39) 1558.1217 1558.1217
3198 93.2911 1595(40) 1558.0925 1558.0925
3199 93.3171 1542(39) 1558.0634 1558.0634
3200 93.3431 1541(39) 1558.0343 1558.0343
3201 93.3691 1582(40) 1558.0051 1558.0051
3202 93.3951 1557(39) 1557.9760 1557.9760
3203 93.4211 1555(39) 1557.9469 1557.9469
3204 93.4471 1567(40) 1557.9177 1557.9177
3205 93.4731 1550(39) 1557.8885 1557.8885
3206 93.4991 1596(40) 1557.8594 1557.8594
3207 93.5251 1512(39) 1557.8303 1557.8303
3208 93.5511 1511(39) 1557.8011 1557.8011
3209 93.5771 1554(39) 1557.7720 1557.7720
3210 93.6031 1535(39) 1557.7429 1557.7429
3211 93.6291 1548(39) 1557.7137 1557.7137
3212 93.6551 1544(39) 1557.7952 1557.7952
3213 93.6811 1531(39) 1557.8931 1557.8931
3214 93.7071 1497(39) 1557.9910 1557.9910
3215 93.7331 1507(39) 1558.0889 1558.0889
3216 93.7591 1569(40) 1558.1868 1558.1868
3217 93.7851 1495(39) 1558.2845 1558.2845
3218 93.8111 1538(39) 1558.3824 1558.3824
3219 93.8371 1542(39) 1558.4803 1558.4803
3220 93.8631 1581(40) 1558.5782 1558.5782
3221 93.8891 1512(39) 1558.6761 1558.6761
3222 93.9151 1536(39) 1558.7740 1558.7740
3223 93.9411 1517(39) 1558.8719 1558.8719
3224 93.9671 1512(39) 1558.9697 1558.9697
3225 93.9931 1533(39) 1559.0676 1559.0676
3226 94.0191 1530(39) 1559.1655 1559.1655
3227 94.0451 1576(40) 1559.2634 1559.2634
3228 94.0711 1549(39) 1559.3613 1559.3613
3229 94.0971 1520(39) 1559.4592 1559.4592
3230 94.1231 1586(40) 1559.5571 1559.5571
3231 94.1491 1614(40) 1559.6550 1559.6550
3232 94.1751 1561(40) 1559.7528 1559.7528
3233 94.2011 1531(39) 1559.8507 1559.8507
3234 94.2271 1543(39) 1559.9486 1559.9486
3235 94.2531 1593(40) 1560.0465 1560.0465
3236 94.2791 1600(40) 1560.1444 1560.1444
3237 94.3051 1593(40) 1560.2423 1560.2423
3238 94.3311 1588(40) 1560.3402 1560.3402
3239 94.3571 1617(40) 1560.4381 1560.4381
3240 94.3831 1545(39) 1560.5359 1560.5359
3241 94.4091 1561(40) 1560.6338 1560.6338
3242 94.4351 1562(40) 1560.7317 1560.7317
3243 94.4611 1535(39) 1560.8296 1560.8296
3244 94.4871 1550(39) 1560.9275 1560.9275
3245 94.5131 1541(39) 1561.0254 1561.0254
3246 94.5391 1501(39) 1561.1233 1561.1233
3247 94.5651 1537(39) 1561.2212 1561.2212
3248 94.5911 1559(39) 1561.3190 1561.3190
3249 94.6171 1562(40) 1561.4169 1561.4169
3250 94.6431 1573(40) 1561.5148 1561.5148
3251 94.6691 1599(40) 1561.6127 1561.6127
3252 94.6951 1575(40) 1561.7106 1561.7106
3253 94.7211 1559(39) 1561.8085 1561.8085
3254 94.7471 1569(40) 1561.9064 1561.9064
3255 94.7731 1608(40) 1562.0043 1562.0043
3256 94.7991 1593(40) 1562.1021 1562.1021
3257 94.8251 1536(39) 1562.2000 1562.2000
3258 94.8511 1538(39) 1562.2979 1562.2979
3259 94.8771 1536(39) 1562.3958 1562.3958
3260 94.9031 1578(40) 1562.4937 1562.4937
3261 94.9291 1597(40) 1562.5916 1562.5916
3262 94.9551 1581(40) 1562.6895 1562.6895
3263 94.9811 1564(40) 1562.7874 1562.7874
3264 95.0071 1538(39) 1562.8851 1562.8851
3265 95.0331 1492(39) 1562.9830 1562.9830
3266 95.0591 1533(39) 1563.0809 1563.0809
3267 95.0851 1562(40) 1563.1788 1563.1788
3268 95.1111 1533(39) 1563.2767 1563.2767
3269 95.1371 1498(39) 1563.3746 1563.3746
3270 95.1631 1509(39) 1563.4725 1563.4725
3271 95.1891 1566(40) 1563.5703 1563.5703
3272 95.2151 1561(40) 1563.6682 1563.6682
3273 95.2411 1571(40) 1563.7661 1563.7661
3274 95.2671 1576(40) 1563.8640 1563.8640
3275 95.2931 1558(39) 1563.9619 1563.9619
3276 95.3191 1588(40) 1564.0598 1564.0598
3277 95.3451 1588(40) 1564.1577 1564.1577
3278 95.3711 1574(40) 1564.2556 1564.2556
3279 95.3971 1566(40) 1564.3534 1564.3534
3280 95.4231 1559(39) 1564.4513 1564.4513
3281 95.4491 1545(39) 1564.5492 1564.5492
3282 95.4751 1530(39) 1564.6471 1564.6471
3283 95.5011 1495(39) 1564.7450 1564.7450
3284 95.5271 1522(39) 1564.8429 1564.8429
3285 95.5531 1549(39) 1564.9408 1564.9408
3286 95.5791 1554(39) 1565.0387 1565.0387
3287 95.6051 1589(40) 1565.1365 1565.1365
3288 95.6311 1617(40) 1565.2344 1565.2344
3289 95.6571 1614(40) 1571.3164 1565.3323
3290 95.6831 1590(40) 1571.6292 1565.4302
3291 95.7091 1560(40) 1571.9537 1565.5281
3292 95.7351 1548(39) 1572.2909 1565.6260
3293 95.7611 1512(39) 1572.6416 1565.7239
3294 95.7871 1581(40) 1573.0071 1565.8218
3295 95.8131 1589(40) 1573.3881 1565.9196
3296 95.8391 1616(40) 1573.7863 1566.0175
3297 95.8651 1595(40) 1574.2030 1566.1154
3298 95.8911 1542(39) 1574.6396 1566.2133
3299 95.9171 1532(39) 1575.0980 1566.3112
3300 95.9431 1540(39) 1575.5801 1566.4091
3301 95.9691 1572(40) 1579.0544 1566.5070
3302 95.9951 1599(40) 1579.6959 1566.6049
3303 96.0211 1548(39) 1580.3737 1566.7026
3304 96.0471 1560(39) 1581.0909 1566.8005
3305 96.0731 1552(39) 1581.8519 1566.8984
3306 96.0991 1526(39) 1582.6605 1566.9963
3307 96.1251 1625(40) 1583.5216 1567.0942
3308 96.1511 1496(39) 1584.4402 1567.1921
3309 96.1771 1604(40) 1585.4226 1567.2900
3310 96.2031 1574(40) 1586.4753 1567.3879
3311 96.2291 1597(40) 1587.6063 1567.4857
3312 96.2551 1543(39) 1588.8241 1567.5836
3313 96.2811 1589(40) 1590.1394 1567.6815
3314 96.3071 1558(39) 1591.5636 1567.7794
3315 96.3331 1586(40) 1593.1101 1567.8773
3316 96.3591 1533(39) 1594.7948 1567.9752
3317 96.3851 1545(39) 1596.6357 1568.0731
3318 96.4111 1595(40) 1598.6543 1568.1709
3319 96.4371 1580(40) 1600.8759 1568.2688
3320 96.4631 1615(40) 1603.3298 1568.3667
3321 96.4891 1522(39) 1606.0535 1568.4646
3322 96.5151 1543(39) 1609.0900 1568.5625
3323 96.5411 1558(39) 1612.4930 1568.6604
3324 96.5671 1601(40) 1616.3300 1568.7583
3325 96.5931 1598(40) 1620.6868 1568.8562
3326 96.6191 1637(40) 1625.6743 1568.9540
3327 96.6451 1591(40) 1631.4392 1569.0519
3328 96.6711 1634(40) 1638.1727 1569.1498
3329 96.6971 1620(40) 1646.1338 1569.2477
3330 96.7231 1612(40) 1655.6528 1569.3456
3331 96.7491 1728(42) 1667.1545 1569.4435
3332 96.7751 1674(41) 1681.1699 1569.5414
3333 96.8011 1692(41) 1698.3621 1569.6393
3334 96.8271 1716(41) 1719.5931 1569.7371
3335 96.8531 1729(42) 1746.1060 1569.8350
3336 96.8791 1802(42) 1779.9857 1569.9329
3337 96.9051 1862(43) 1824.8788 1570.0308
3338 96.9311 1913(44) 1887.0127 1570.1287
3339 96.9571 2050(45) 1975.9452 1570.2266
3340 96.9831 2095(46) 2104.4619 1570.3245
3341 97.0091 2253(47) 2287.3628 1570.4224
3342 97.0351 2534(50) 2539.1050 1570.5201
3343 97.0611 2877(54) 2867.9043 1570.6180
3344 97.0871 3323(58) 3258.3003 1570.7159
3345 97.1131 3647(60) 3632.4380 1570.8138
3346 97.1391 3810(62) 3835.8950 1570.9117
3347 97.1651 3691(61) 3753.6133 1571.0096
3348 97.1911 3411(58) 3445.0186 1571.1075
3349 97.2171 3043(55) 3060.8232 1571.2054
3350 97.2431 2743(52) 2712.5627 1571.3032
3351 97.2691 2577(51) 2451.7458 1571.4011
3352 97.2951 2442(49) 2291.3269 1571.4990
3353 97.3211 2282(48) 2225.3501 1571.5969
3354 97.3471 2324(48) 2241.5640 1571.6948
3355 97.3731 2430(49) 2327.9268 1571.7927
3356 97.3991 2548(50) 2470.0605 1571.8906
3357 97.4251 2743(52) 2636.2358 1571.9885
3358 97.4511 2806(53) 2758.5327 1572.0863
3359 97.4771 2778(53) 2758.4365 1572.1842
3360 97.5031 2641(51) 2625.9690 1572.2821
3361 97.5291 2449(49) 2424.9246 1572.3800
3362 97.5551 2276(48) 2220.8040 1572.4779
3363 97.5811 2099(46) 2048.4583 1572.5758
3364 97.6071 1966(44) 1918.4189 1572.6737
3365 97.6331 1823(43) 1827.5583 1572.7715
3366 97.6591 1785(42) 1766.9490 1572.8694
3367 97.6851 1773(42) 1727.0852 1572.9673
3368 97.7111 1714(41) 1700.3832 1573.0652
3369 97.7371 1692(41) 1681.7422 1573.1631
3370 97.7631 1709(41) 1668.0153 1573.2610
3371 97.7891 1683(41) 1657.3600 1573.3589
3372 97.8151 1623(40) 1648.7168 1573.4568
3373 97.8411 1677(41) 1641.4738 1573.5546
3374 97.8671 1691(41) 1635.2705 1573.6525
3375 97.8931 1604(40) 1629.8870 1573.7504
3376 97.9191 1619(40) 1625.1752 1573.8483
3377 97.9451 1631(40) 1621.0337 1573.9462
3378 97.9711 1610(40) 1617.3826 1574.0441
3379 97.9971 1592(40) 1614.1558 1574.1420
3380 98.0231 1580(40) 1611.2968 1574.2399
3381 98.0491 1615(40) 1608.7565 1574.3376
3382 98.0751 1578(40) 1606.4933 1574.4355
3383 98.1011 1576(40) 1604.4692 1574.5334
3384 98.1271 1585(40) 1602.6538 1574.6313
3385 98.1531 1673(41) 1601.0205 1574.7292
3386 98.1791 1677(41) 1599.5466 1574.8271
3387 98.2051 1635(40) 1598.2128 1574.9250
3388 98.2311 1598(40) 1597.0027 1575.0229
3389 98.2571 1651(41) 1595.9020 1575.1207
3390 98.2831 1708(41) 1594.8993 1575.2186
3391 98.3091 1678(41) 1593.9832 1575.3165
3392 98.3351 1651(41) 1593.1449 1575.4144
3393 98.3611 1637(40) 1592.3767 1575.5123
3394 98.3871 1627(40) 1591.6715 1575.6102
3395 98.4131 1615(40) 1591.0233 1575.7081
3396 98.4391 1608(40) 1590.4269 1575.8060
3397 98.4651 1560(40) 1589.8771 1575.9038
3398 98.4911 1598(40) 1589.3705 1576.0017
3399 98.5171 1629(40) 1588.9026 1576.0996
3400 98.5431 1576(40) 1588.4703 1576.1975
3401 98.5691 1614(40) 1588.0708 1576.2954
3402 98.5951 1648(41) 1587.7013 1576.3933
3403 98.6211 1610(40) 1587.3595 1576.4912
3404 98.6471 1624(40) 1581.2743 1576.5891
3405 98.6731 1602(40) 1581.1743 1576.6869
3406 98.6991 1595(40) 1581.0868 1576.7848
3407 98.7251 1561(40) 1581.0105 1576.8827
3408 98.7511 1523(39) 1580.9446 1576.9806
3409 98.7771 1629(40) 1580.8882 1577.0785
3410 98.8031 1549(39) 1580.8406 1577.1764
3411 98.8291 1555(39) 1580.8011 1577.2743
3412 98.8551 1600(40) 1580.7692 1577.3721
3413 98.8811 1599(40) 1580.7444 1577.4700
3414 98.9071 1576(40) 1580.7261 1577.5679
3415 98.9331 1612(40) 1580.7139 1577.6658
3416 98.9591 1596(40) 1580.7073 1577.7637
3417 98.9851 1568(40) 1577.8616 1577.8616
3418 99.0111 1583(40) 1577.9595 1577.9595
3419 99.0371 1613(40) 1578.0574 1578.0574
3420 99.0631 1535(39) 1578.1552 1578.1552
3421 99.0891 1615(40) 1578.2531 1578.2531
3422 99.1151 1536(39) 1578.3510 1578.3510
3423 99.1411 1583(40) 1578.4489 1578.4489
3424 99.1671 1576(40) 1578.5468 1578.5468
3425 99.1931 1582(40) 1578.6447 1578.6447
3426 99.2191 1545(39) 1578.7426 1578.7426
3427 99.2451 1578(40) 1578.8405 1578.8405
3428 99.2711 1459(38) 1578.9382 1578.9382
3429 99.2971 1624(40) 1579.0361 1579.0361
3430 99.3231 1605(40) 1579.1340 1579.1340
3431 99.3491 1563(40) 1579.2319 1579.2319
3432 99.3751 1596(40) 1579.3298 1579.3298
3433 99.4011 1572(40) 1579.4277 1579.4277
3434 99.4271 1541(39) 1579.5256 1579.5256
3435 99.4531 1522(39) 1579.6235 1579.6235
3436 99.4791 1562(40) 1579.7213 1579.7213
3437 99.5051 1585(40) 1579.8192 1579.8192
3438 99.5311 1546(39) 1579.9171 1579.9171
3439 99.5571 1543(39) 1580.0150 1580.0150
3440 99.5831 1543(39) 1580.1129 1580.1129
3441 99.6091 1575(40) 1580.2108 1580.2108
3442 99.6351 1526(39) 1581.0529 1580.3087
3443 99.6611 1539(39) 1581.1758 1580.4066
3444 99.6871 1550(39) 1581.2999 1580.5044
3445 99.7131 1549(39) 1581.4255 1580.6023
3446 99.7391 1588(40) 1581.5527 1580.7002
3447 99.7651 1578(40) 1581.6814 1580.7981
3448 99.7911 1546(39) 1581.8118 1580.8960
3449 99.8171 1565(40) 1581.9440 1580.9939
3450 99.8431 1570(40) 1582.0781 1581.0918
3451 99.8691 1575(40) 1582.2145 1581.1897
3452 99.8951 1597(40) 1582.3529 1581.2875
3453 99.9211 1572(40) 1582.4939 1581.3854
3454 99.9471 1584(40) 1582.6376 1581.4833
3455 99.9731 1592(40) 1583.1550 1581.5812
3456 99.9991 1543(39) 1583.3173 1581.6791
3457 100.0251 1593(40) 1583.4834 1581.7770
3458 100.0511 1602(40) 1583.6541 1581.8749
3459 100.0771 1547(39) 1583.8293 1581.9727
3460 100.1031 1572(40) 1584.0099 1582.0706
3461 100.1291 1564(40) 1584.1962 1582.1685
3462 100.1551 1545(39) 1584.3888 1582.2664
3463 100.1811 1607(40) 1584.5881 1582.3643
3464 100.2071 1640(41) 1584.7952 1582.4622
3465 100.2331 1621(40) 1585.0104 1582.5601
3466 100.2591 1589(40) 1585.2349 1582.6580
3467 100.2851 1601(40) 1585.4692 1582.7557
3468 100.3111 1571(40) 1585.7151 1582.8536
3469 100.3371 1555(39) 1585.9736 1582.9515
3470 100.3631 1607(40) 1586.2461 1583.0494
3471 100.3891 1591(40) 1586.5344 1583.1473
3472 100.4151 1578(40) 1586.8403 1583.2452
3473 100.4411 1574(40) 1587.1664 1583.3431
3474 100.4671 1556(39) 1587.5151 1583.4410
3475 100.4931 1564(40) 1587.8896 1583.5388
3476 100.5191 1565(40) 1588.2938 1583.6367
3477 100.5451 1587(40) 1588.7322 1583.7346
3478 100.5711 1582(40) 1589.2101 1583.8325
3479 100.5971 1588(40) 1589.7343 1583.9304
3480 100.6231 1608(40) 1590.3132 1584.0283
3481 100.6491 1586(40) 1590.9574 1584.1262
3482 100.6751 1641(41) 1591.6807 1584.2241
3483 100.7011 1627(40) 1592.5006 1584.3219
3484 100.7271 1578(40) 1593.4401 1584.4198
3485 100.7531 1633(40) 1594.5293 1584.5177
3486 100.7791 1637(40) 1595.8057 1584.6156
3487 100.8051 1570(40) 1597.3163 1584.7135
3488 100.8311 1549(39) 1599.1193 1584.8114
3489 100.8571 1593(40) 1601.2869 1584.9093
3490 100.8831 1619(40) 1603.9133 1585.0072
3491 100.9091 1592(40) 1607.1348 1585.1050
3492 100.9351 1603(40) 1611.1698 1585.2029
3493 100.9611 1636(40) 1616.3932 1585.3008
3494 100.9871 1610(40) 1623.4171 1585.3987
3495 101.0131 1648(41) 1633.1669 1585.4966
3496 101.0391 1672(41) 1646.8862 1585.5945
3497 101.0651 1650(41) 1666.0492 1585.6924
3498 101.0911 1664(41) 1692.1772 1585.7903
3499 101.1171 1786(42) 1726.4487 1585.8881
3500 101.1431 1786(42) 1768.5682 1585.9860
3501 101.1691 1836(43) 1814.0338 1586.0839
3502 101.1951 1810(43) 1850.5535 1586.1818
3503 101.2211 1877(43) 1861.7019 1586.2797
3504 101.2471 1864(43) 1842.0394 1586.3776
3505 101.2731 1773(42) 1802.8208 1586.4755
3506 101.2991 1788(42) 1759.2335 1586.5732
3507 101.3251 1786(42) 1721.0306 1586.6711
3508 101.3511 1779(42) 1692.4318 1586.7690
3509 101.3771 1690(41) 1674.3975 1586.8669
3510 101.4031 1682(41) 1666.2579 1586.9648
3511 101.4291 1687(41) 1666.8269 1587.0627
3512 101.4551 1643(41) 1674.9718 1587.1606
3513 101.4811 1772(42) 1689.5205 1587.2585
3514 101.5071 1726(42) 1708.2247 1587.3563
3515 101.5331 1717(41) 1725.8407 1587.4542
3516 101.5591 1738(42) 1734.0233 1587.5521
3517 101.5851 1726(42) 1727.1757 1587.6500
3518 101.6111 1768(42) 1708.2434 1587.7479
3519 101.6371 1768(42) 1684.6803 1587.8458
3520 101.6631 1695(41) 1662.2281 1587.9437
3521 101.6891 1651(41) 1643.6149 1588.0416
3522 101.7151 1648(41) 1629.5145 1588.1394
3523 101.7411 1661(41) 1619.4884 1588.2373
3524 101.7671 1687(41) 1612.6266 1588.3352
3525 101.7931 1598(40) 1607.9938 1588.4331
3526 101.8191 1629(40) 1604.8293 1588.5310
3527 101.8451 1627(40) 1602.5988 1588.6289
3528 101.8711 1646(41) 1600.9585 1588.7268
3529 101.8971 1582(40) 1599.6981 1588.8247
3530 101.9231 1643(41) 1598.6912 1588.9225
3531 101.9491 1680(41) 1597.8622 1589.0204
3532 101.9751 1636(40) 1597.1646 1589.1183
3533 102.0011 1608(40) 1596.5695 1589.2162
3534 102.0271 1590(40) 1596.0579 1589.3141
3535 102.0531 1582(40) 1595.6166 1589.4120
3536 102.0791 1599(40) 1595.2356 1589.5099
3537 102.1051 1564(40) 1594.9070 1589.6078
3538 102.1311 1570(40) 1594.6237 1589.7056
3539 102.1571 1635(40) 1594.3804 1589.8035
3540 102.1831 1624(40) 1594.1716 1589.9014
3541 102.2091 1586(40) 1593.9933 1589.9993
3542 102.2351 1595(40) 1593.8414 1590.0972
3543 102.2611 1568(40) 1593.7129 1590.1951
3544 102.2871 1621(40) 1593.6047 1590.2930
3545 102.3131 1590(40) 1593.5146 1590.3909
3546 102.3391 1568(40) 1593.4404 1590.4886
3547 102.3651 1552(39) 1593.3804 1590.5865
3548 102.3911 1567(40) 1593.3330 1590.6844
3549 102.4171 1599(40) 1593.2969 1590.7823
3550 102.4431 1589(40) 1593.2710 1590.8802
3551 102.4691 1601(40) 1593.2542 1590.9781
3552 102.4951 1585(40) 1593.2455 1591.0760
3553 102.5211 1573(40) 1593.2443 1591.1738
3554 102.5471 1564(40) 1593.2499 1591.2717
3555 102.5731 1601(40) 1593.2616 1591.3696
3556 102.5991 1611(40) 1593.2789 1591.4675
3557 102.6251 1593(40) 1593.3014 1591.5654
3558 102.6511 1552(39) 1593.3285 1591.6633
3559 102.6771 1572(40) 1593.3600 1591.7612
3560 102.7031 1607(40) 1593.3954 1591.8591
3561 102.7291 1607(40) 1593.3781 1591.9006
3562 102.7551 1615(40) 1593.3627 1591.9408
3563 102.7811 1632(40) 1593.3506 1591.9811
3564 102.8071 1608(40) 1593.3414 1592.0214
3565 102.8331 1597(40) 1592.6328 1592.0616
3566 102.8591 1602(40) 1592.6505 1592.1018
3567 102.8851 1602(40) 1592.6697 1592.1421
3568 102.9111 1609(40) 1592.6899 1592.1824
3569 102.9371 1587(40) 1592.7114 1592.2227
3570 102.9631 1594(40) 1592.7338 1592.2628
3571 102.9891 1567(40) 1592.7572 1592.3031
3572 103.0151 1569(40) 1592.7815 1592.3434
3573 103.0411 1621(40) 1592.8065 1592.3835
3574 103.0671 1636(40) 1592.8324 1592.4238
3575 103.0931 1653(41) 1592.8590 1592.4641
3576 103.1191 1635(40) 1592.8862 1592.5044
3577 103.1451 1586(40) 1592.9142 1592.5447
3578 103.1711 1607(40) 1592.5848 1592.5848
3579 103.1971 1646(41) 1592.6251 1592.6251
3580 103.2231 1631(40) 1592.6654 1592.6654
3581 103.2491 1620(40) 1592.7056 1592.7056
3582 103.2751 1590(40) 1592.7458 1592.7458
3583 103.3011 1623(40) 1592.7861 1592.7861
3584 103.3271 1604(40) 1592.8264 1592.8264
3585 103.3531 1534(39) 1592.8666 1592.8666
3586 103.3791 1588(40) 1592.9069 1592.9069
3587 103.4051 1613(40) 1592.9471 1592.9471
3588 103.4311 1574(40) 1592.9874 1592.9874
3589 103.4571 1588(40) 1593.0276 1593.0276
3590 103.4831 1578(40) 1593.0679 1593.0679
3591 103.5091 1557(39) 1593.1082 1593.1082
3592 103.5351 1600(40) 1593.1484 1593.1484
3593 103.5611 1640(40) 1593.1886 1593.1886
3594 103.5871 1652(41) 1593.2289 1593.2289
3595 103.6131 1604(40) 1593.2692 1593.2692
3596 103.6391 1616(40) 1617.2710 1593.3094
3597 103.6651 1571(40) 1618.0575 1593.3496
3598 103.6911 1586(40) 1618.8794 1593.3899
3599 103.7171 1598(40) 1619.7390 1593.4302
3600 103.7431 1635(40) 1620.6387 1593.4705
3601 103.7691 1601(40) 1621.5807 1593.5106
3602 103.7951 1588(40) 1622.5686 1593.5509
3603 103.8211 1620(40) 1623.6053 1593.5912
3604 103.8471 1641(41) 1624.6942 1593.6315
3605 103.8731 1618(40) 1625.8389 1593.6716
3606 103.8991 1683(41) 1627.0433 1593.7119
3607 103.9251 1640(40) 1628.3121 1593.7522
3608 103.9511 1656(41) 1629.6500 1593.7925
3609 103.9771 1650(41) 1631.0616 1593.8326
3610 104.0031 1649(41) 1644.5216 1593.8729
3611 104.0291 1658(41) 1646.4708 1593.9132
3612 104.0551 1585(40) 1648.5310 1593.9535
3613 104.0811 1615(40) 1650.7106 1593.9937
3614 104.1071 1653(41) 1653.0198 1594.0339
3615 104.1331 1629(40) 1655.4691 1594.0742
3616 104.1591 1597(40) 1658.0703 1594.1145
3617 104.1851 1610(40) 1660.8358 1594.1547
3618 104.2111 1691(41) 1663.7819 1594.1949
3619 104.2371 1706(41) 1666.9240 1594.2352
3620 104.2631 1558(39) 1670.2802 1594.2755
3621 104.2891 1583(40) 1673.8707 1594.3157
3622 104.3151 1612(40) 1677.7188 1594.3560
3623 104.3411 1586(40) 1681.8497 1594.3962
3624 104.3671 1642(41) 1686.2927 1594.4365
3625 104.3931 1682(41) 1691.0789 1594.4767
3626 104.4191 1707(41) 1696.2484 1594.5170
3627 104.4451 1732(42) 1701.8424 1594.5573
3628 104.4711 1673(41) 1707.9093 1594.5974
3629 104.4971 1742(42) 1714.5051 1594.6377
3630 104.5231 1694(41) 1721.6938 1594.6780
3631 104.5491 1720(41) 1729.5503 1594.7183
3632 104.5751 1738(42) 1738.1586 1594.7584
3633 104.6011 1758(42) 1747.6260 1594.7987
3634 104.6271 1733(42) 1758.0710 1594.8390
3635 104.6531 1770(42) 1769.6385 1594.8793
3636 104.6791 1798(42) 1782.5037 1594.9194
3637 104.7051 1799(42) 1796.8816 1594.9597
3638 104.7311 1808(43) 1813.0398 1595.0000
3639 104.7571 1915(44) 1831.3145 1595.0403
3640 104.7831 1900(44) 1852.1257 1595.0804
3641 104.8091 1905(44) 1876.0294 1595.1207
3642 104.8351 1854(43) 1903.7104 1595.1610
3643 104.8611 1880(43) 1936.0397 1595.2013
3644 104.8871 1969(44) 1974.1013 1595.2415
3645 104.9131 1970(44) 2019.2271 1595.2817
3646 104.9391 1928(44) 2073.0396 1595.3220
3647 104.9651 2045(45) 2137.5425 1595.3623
3648 104.9911 2117(46) 2215.3096 1595.4025
3649 105.0171 2275(48) 2310.0642 1595.4427
3650 105.0431 2355(49) 2427.4927 1595.4830
3651 105.0691 2579(51) 2576.8777 1595.5233
3652 105.0951 2723(52) 2773.0752 1595.5635
3653 105.1211 3014(55) 3038.3462 1595.6038
3654 105.1471 3340(58) 3403.0413 1595.6440
3655 105.1731 3889(62) 3904.3799 1595.6843
3656 105.1991 4532(67) 4582.9268 1595.7245
3657 105.2251 5428(74) 5477.1235 1595.7648
3658 105.2511 6589(81) 6606.6289 1595.8051
3659 105.2771 7842(89) 7931.7271 1595.8453
3660 105.3031 9282(96) 9270.7041 1595.8855
3661 105.3291 10313(102) 10239.3740 1595.9258
3662 105.3551 10458(102) 10420.7363 1595.9661
3663 105.3811 9774(99) 9746.0918 1596.0063
3664 105.4071 8517(92) 8550.8281 1596.0465
3665 105.4331 7244(85) 7238.2905 1596.0868
3666 105.4591 6172(79) 6068.3984 1596.1271
3667 105.4851 5304(73) 5158.9678 1596.1674
3668 105.5111 4711(69) 4541.6489 1596.2075
3669 105.5371 4416(66) 4204.0664 1596.2478
3670 105.5631 4284(65) 4117.2852 1596.2881
3671 105.5891 4339(66) 4251.8120 1596.3282
3672 105.6151 4667(68) 4581.7344 1596.3685
3673 105.6411 5140(72) 5072.2759 1596.4088
3674 105.6671 5682(75) 5645.2261 1596.4491
3675 105.6931 6126(78) 6134.6211 1596.4893
3676 105.7191 6297(79) 6314.0146 1596.5295
3677 105.7451 6083(78) 6063.2632 1596.5698
3678 105.7711 5491(74) 5482.2930 1596.6101
3679 105.7971 4796(69) 4772.7637 1596.6503
3680 105.8231 4122(64) 4088.8633 1596.6906
3681 105.8491 3559(60) 3507.6899 1596.7308
3682 105.8751 3155(56) 3052.1265 1596.7711
3683 105.9011 2812(53) 2714.7529 1596.8113
3684 105.9271 2537(50) 2474.0229 1596.8516
3685 105.9531 2365(49) 2305.0991 1596.8918
3686 105.9791 2203(47) 2186.0828 1596.9321
3687 106.0051 2021(45) 2100.3779 1596.9723
3688 106.0311 2016(45) 2036.4756 1597.0126
3689 106.0571 1973(44) 1986.9534 1597.0529
3690 106.0831 1940(44) 1947.1157 1597.0931
3691 106.1091 1892(44) 1914.0348 1597.1333
3692 106.1351 1857(43) 1885.8755 1597.1736
3693 106.1611 1827(43) 1861.4684 1597.2139
3694 106.1871 1773(42) 1840.0464 1597.2542
3695 106.2131 1733(42) 1821.0914 1597.2943
3696 106.2391 1724(42) 1804.2166 1597.3346
3697 106.2651 1682(41) 1789.1407 1597.3749
3698 106.2911 1712(41) 1775.6331 1597.4152
3699 106.3171 1714(41) 1763.4993 1597.4553
3700 106.3431 1728(42) 1752.5728 1597.4956
3701 106.3691 1657(41) 1742.7079 1597.5359
3702 106.3951 1716(41) 1733.7772 1597.5762
3703 106.4211 1714(41) 1725.6719 1597.6163
3704 106.4471 1675(41) 1718.2906 1597.6566
3705 106.4731 1683(41) 1711.5521 1597.6969
3706 106.4991 1615(40) 1705.3835 1597.7372
3707 106.5251 1654(41) 1699.7219 1597.7773
3708 106.5511 1617(40) 1694.5128 1597.8176
3709 106.5771 1638(40) 1689.7086 1597.8579
3710 106.6031 1642(41) 1685.2693 1597.8982
3711 106.6291 1637(40) 1681.1559 1597.9384
3712 106.6551 1655(41) 1677.3383 1597.9786
3713 106.6811 1754(42) 1673.7883 1598.0189
3714 106.7071 1642(41) 1670.4816 1598.0592
3715 106.7331 1680(41) 1667.3959 1598.0994
3716 106.7591 1602(40) 1664.5122 1598.1396
3717 106.7851 1571(40) 1661.8131 1598.1799
3718 106.8111 1625(40) 1659.2837 1598.2201
3719 106.8371 1634(40) 1656.9089 1598.2604
3720 106.8631 1578(40) 1654.6770 1598.3007
3721 106.8891 1706(41) 1652.5765 1598.3409
3722 106.9151 1636(40) 1650.5977 1598.3812
3723 106.9411 1669(41) 1648.7310 1598.4214
3724 106.9671 1573(40) 1646.9684 1598.4617
3725 106.9931 1623(40) 1645.3024 1598.5020
3726 107.0191 1591(40) 1643.7264 1598.5421
3727 107.0451 1588(40) 1642.2334 1598.5824
3728 107.0711 1601(40) 1617.6333 1598.6227
3729 107.0971 1640(40) 1616.9694 1598.6630
3730 107.1231 1570(40) 1616.3438 1598.7031
3731 107.1491 1608(40) 1615.7539 1598.7434
3732 107.1751 1593(40) 1615.1970 1598.7837
3733 107.2011 1593(40) 1614.6711 1598.8240
3734 107.2271 1597(40) 1614.1740 1598.8641
3735 107.2531 1592(40) 1613.7036 1598.9044
3736 107.2791 1614(40) 1613.2583 1598.9447
3737 107.3051 1647(41) 1612.8365 1598.9850
3738 107.3311 1631(40) 1612.4366 1599.0251
3739 107.3571 1648(41) 1612.0574 1599.0654
3740 107.3831 1560(40) 1611.6976 1599.1057
3741 107.4091 1569(40) 1611.3560 1599.1460
3742 107.4351 1631(40) 1599.1862 1599.1862
3743 107.4611 1633(40) 1599.2264 1599.2264
3744 107.4871 1605(40) 1599.2667 1599.2667
3745 107.5131 1583(40) 1599.3070 1599.3070
3746 107.5391 1556(39) 1599.3472 1599.3472
3747 107.5651 1618(40) 1599.3875 1599.3875
3748 107.5911 1619(40) 1599.4277 1599.4277
3749 107.6171 1676(41) 1599.4680 1599.4680
3750 107.6431 1598(40) 1599.5082 1599.5082
3751 107.6691 1598(40) 1599.5485 1599.5485
3752 107.6951 1616(40) 1599.5887 1599.5887
3753 107.7211 1638(40) 1599.6807 1599.6290
3754 107.7471 1635(40) 1599.7223 1599.6692
3755 107.7731 1638(40) 1599.7642 1599.7095
3756 107.7991 1621(40) 1599.8060 1599.7498
3757 107.8251 1643(41) 1599.8480 1599.7900
3758 107.8511 1657(41) 1599.8900 1599.8302
3759 107.8771 1610(40) 1599.9321 1599.8705
3760 107.9031 1629(40) 1599.9744 1599.9108
3761 107.9291 1682(41) 1600.0167 1599.9510
3762 107.9551 1664(41) 1600.0590 1599.9912
3763 107.9811 1643(41) 1600.1016 1600.0315
3764 108.0071 1657(41) 1600.1442 1600.0718
3765 108.0331 1648(41) 1600.1869 1600.1121
3766 108.0591 1646(41) 1600.2297 1600.1522
3767 108.0851 1635(40) 1600.2727 1600.1925
3768 108.1111 1608(40) 1600.3417 1600.2328
3769 108.1371 1590(40) 1600.3857 1600.2731
3770 108.1631 1611(40) 1600.4299 1600.3132
3771 108.1891 1633(40) 1600.4745 1600.3535
3772 108.2151 1610(40) 1600.5192 1600.3938
3773 108.2411 1597(40) 1600.5641 1600.4340
3774 108.2671 1628(40) 1600.6093 1600.4742
3775 108.2931 1645(41) 1600.6549 1600.5145
3776 108.3191 1594(40) 1600.7007 1600.5548
3777 108.3451 1589(40) 1600.7468 1600.5950
3778 108.3711 1655(41) 1600.7935 1600.6353
3779 108.3971 1620(40) 1600.8405 1600.6755
3780 108.4231 1565(40) 1600.8878 1600.7158
3781 108.4491 1584(40) 1600.9357 1600.7560
3782 108.4751 1606(40) 1600.9841 1600.7963
3783 108.5011 1616(40) 1601.0331 1600.8365
3784 108.5271 1604(40) 1601.0828 1600.8768
3785 108.5531 1642(41) 1601.1331 1600.9170
3786 108.5791 1648(41) 1601.1841 1600.9573
3787 108.6051 1617(40) 1601.2361 1600.9976
3788 108.6311 1612(40) 1601.2889 1601.0378
3789 108.6571 1630(40) 1601.3428 1601.0780
3790 108.6831 1587(40) 1601.3978 1601.1183
3791 108.7091 1601(40) 1601.4542 1601.1586
3792 108.7351 1634(40) 1601.5121 1601.1989
3793 108.7611 1631(40) 1601.5714 1601.2390
3794 108.7871 1637(40) 1601.6327 1601.2793
3795 108.8131 1613(40) 1601.6962 1601.3196
3796 108.8391 1565(40) 1601.7620 1601.3599
3797 108.8651 1619(40) 1601.8304 1601.4000
3798 108.8911 1611(40) 1601.9022 1601.4403
3799 108.9171 1600(40) 1601.9778 1601.4806
3800 108.9431 1589(40) 1602.0579 1601.5209
3801 108.9691 1599(40) 1602.1431 1601.5610
3802 108.9951 1624(40) 1602.2347 1601.6013
3803 109.0211 1597(40) 1602.3341 1601.6416
3804 109.0471 1609(40) 1602.4427 1601.6819
3805 109.0731 1618(40) 1602.5626 1601.7220
3806 109.0991 1616(40) 1602.6963 1601.7623
3807 109.1251 1577(40) 1602.8467 1601.8026
3808 109.1511 1600(40) 1603.0173 1601.8429
3809 109.1771 1565(40) 1603.2125 1601.8831
3810 109.2031 1686(41) 1603.4391 1601.9233
3811 109.2291 1634(40) 1603.7061 1601.9636
3812 109.2551 1539(39) 1604.0281 1602.0039
3813 109.2811 1545(39) 1604.4279 1602.0441
3814 109.3071 1619(40) 1604.9392 1602.0844
3815 109.3331 1654(41) 1605.6085 1602.1246
3816 109.3591 1606(40) 1606.4949 1602.1649
3817 109.3851 1637(40) 1607.6661 1602.2051
3818 109.4111 1614(40) 1609.1932 1602.2454
3819 109.4371 1619(40) 1611.1356 1602.2856
3820 109.4631 1617(40) 1613.5084 1602.3258
3821 109.4891 1627(40) 1616.2052 1602.3661
3822 109.5151 1616(40) 1618.8575 1602.4064
3823 109.5411 1540(39) 1620.7701 1602.4467
3824 109.5671 1580(40) 1621.2222 1602.4869
3825 109.5931 1629(40) 1620.0685 1602.5271
3826 109.6191 1569(40) 1617.8545 1602.5674
3827 109.6451 1656(41) 1615.3046 1602.6077
3828 109.6711 1583(40) 1612.9286 1602.6478
3829 109.6971 1597(40) 1610.9817 1602.6881
3830 109.7231 1656(41) 1609.5553 1602.7284
3831 109.7491 1736(42) 1608.6504 1602.7687
3832 109.7751 1612(40) 1608.2263 1602.8088
3833 109.8011 1632(40) 1608.2330 1602.8491
3834 109.8271 1589(40) 1608.6256 1602.8894
3835 109.8531 1624(40) 1609.3634 1602.9297
3836 109.8791 1581(40) 1610.3862 1602.9698
3837 109.9051 1609(40) 1611.5571 1603.0101
3838 109.9311 1620(40) 1612.5951 1603.0504
3839 109.9571 1615(40) 1613.1069 1603.0907
3840 109.9831 1543(39) 1612.8323 1603.1309
3841 110.0091 1562(40) 1611.8694 1603.1711
3842 110.0351 1607(40) 1610.5549 1603.2114
3843 110.0611 1580(40) 1609.2017 1603.2517
3844 110.0871 1608(40) 1607.9908 1603.2919
3845 110.1131 1575(40) 1606.9983 1603.3322
3846 110.1391 1579(40) 1606.2334 1603.3724
3847 110.1651 1654(41) 1605.7540 1603.4956
3848 110.1911 1664(41) 1605.4742 1603.6555
3849 110.2171 1621(40) 1605.3165 1603.8156
3850 110.2431 1613(40) 1605.2452 1603.9755
3851 110.2691 1631(40) 1605.2335 1604.1353
3852 110.2951 1635(40) 1605.2622 1604.2952
3853 110.3211 1606(40) 1605.3187 1604.4552
3854 110.3471 1607(40) 1605.3943 1604.6151
3855 110.3731 1629(40) 1605.4836 1604.7750
3856 110.3991 1662(41) 1605.5833 1604.9349
3857 110.4251 1583(40) 1605.6907 1605.0948
3858 110.4511 1612(40) 1605.8043 1605.2548
3859 110.4771 1667(41) 1605.9231 1605.4147
3860 110.5031 1608(40) 1606.0463 1605.5746
3861 110.5291 1546(39) 1606.1732 1605.7345
3862 110.5551 1605(40) 1606.3033 1605.8944
3863 110.5811 1621(40) 1606.4364 1606.0543
3864 110.6071 1661(41) 1606.5720 1606.2142
3865 110.6331 1649(41) 1606.7100 1606.3741
3866 110.6591 1635(40) 1606.8499 1606.5341
3867 110.6851 1593(40) 1606.9915 1606.6940
3868 110.7111 1604(40) 1607.1346 1606.8539
3869 110.7371 1662(41) 1607.2793 1607.0138
3870 110.7631 1620(40) 1607.4252 1607.1737
3871 110.7891 1592(40) 1607.5721 1607.3336
3872 110.8151 1623(40) 1607.7202 1607.4937
3873 110.8411 1614(40) 1607.8691 1607.6536
3874 110.8671 1592(40) 1608.0188 1607.8135
3875 110.8931 1607(40) 1608.1691 1607.9733
3876 110.9191 1613(40) 1608.3203 1608.1333
3877 110.9451 1609(40) 1608.4719 1608.2932
3878 110.9711 1593(40) 1608.6241 1608.4531
3879 110.9971 1590(40) 1608.7769 1608.6130
3880 111.0231 1589(40) 1608.9301 1608.7729
3881 111.0491 1559(39) 1609.0836 1608.9329
3882 111.0751 1594(40) 1609.2375 1609.0928
3883 111.1011 1605(40) 1609.3920 1609.2527
3884 111.1271 1605(40) 1609.5465 1609.4126
3885 111.1531 1628(40) 1609.7015 1609.5725
3886 111.1791 1590(40) 1609.8567 1609.7324
3887 111.2051 1619(40) 1610.0122 1609.8923
3888 111.2311 1629(40) 1610.1678 1610.0522
3889 111.2571 1631(40) 1610.3239 1610.2122
3890 111.2831 1627(40) 1610.4800 1610.3721
3891 111.3091 1648(41) 1610.6362 1610.5320
3892 111.3351 1685(41) 1610.7928 1610.6919
3893 111.3611 1661(41) 1610.9495 1610.8518
3894 111.3871 1635(40) 1611.1063 1611.0117
3895 111.4131 1616(40) 1611.2130 1611.1716
3896 111.4391 1603(40) 1611.3716 1611.3317
3897 111.4651 1621(40) 1611.5302 1611.4916
3898 111.4911 1691(41) 1611.6887 1611.6514
3899 111.5171 1633(40) 1611.8474 1611.8113
3900 111.5431 1627(40) 1612.0062 1611.9713
3901 111.5691 1628(40) 1612.1650 1612.1312
3902 111.5951 1567(40) 1612.3239 1612.2911
3903 111.6211 1599(40) 1612.4828 1612.4510
3904 111.6471 1590(40) 1612.6417 1612.6110
3905 111.6731 1677(41) 1612.8008 1612.7709
3906 111.6991 1643(41) 1612.9597 1612.9308
3907 111.7251 1636(40) 1613.1188 1613.0907
3908 111.7511 1615(40) 1613.2780 1613.2506
3909 111.7771 1608(40) 1613.4371 1613.4105
3910 111.8031 1658(41) 1613.5962 1613.5704
3911 111.8291 1661(41) 1613.7303 1613.7303
3912 111.8551 1627(40) 1613.8903 1613.8903
3913 111.8811 1541(39) 1614.0502 1614.0502
3914 111.9071 1650(41) 1631.8112 1614.2101
3915 111.9331 1607(40) 1632.4425 1614.3700
3916 111.9591 1665(41) 1633.0929 1614.5299
3917 111.9851 1672(41) 1633.7635 1614.6898
3918 112.0111 1622(40) 1634.4554 1614.8497
3919 112.0371 1575(40) 1635.1702 1615.0098
3920 112.0631 1641(41) 1635.9084 1615.1697
3921 112.0891 1667(41) 1636.6718 1615.3295
3922 112.1151 1663(41) 1637.4620 1615.4894
3923 112.1411 1673(41) 1638.2806 1615.6494
3924 112.1671 1669(41) 1639.1293 1615.8093
3925 112.1931 1709(41) 1640.0096 1615.9692
3926 112.2191 1617(40) 1640.9240 1616.1292
3927 112.2451 1632(40) 1641.8743 1616.2891
3928 112.2711 1579(40) 1642.8628 1616.4490
3929 112.2971 1643(41) 1643.8920 1616.6089
3930 112.3231 1652(41) 1653.7078 1616.7688
3931 112.3491 1619(40) 1655.0587 1616.9287
3932 112.3751 1644(41) 1656.4688 1617.0886
3933 112.4011 1644(41) 1657.9417 1617.2485
3934 112.4271 1669(41) 1659.4821 1617.4084
3935 112.4531 1647(41) 1661.0945 1617.5684
3936 112.4791 1646(41) 1662.7842 1617.7283
3937 112.5051 1629(40) 1664.5560 1617.8882
3938 112.5311 1580(40) 1666.4175 1618.0481
3939 112.5571 1634(40) 1668.3745 1618.2080
3940 112.5831 1688(41) 1670.4346 1618.3679
3941 112.6091 1630(40) 1672.6056 1618.5278
3942 112.6351 1613(40) 1674.8970 1618.6879
3943 112.6611 1593(40) 1677.3179 1618.8478
3944 112.6871 1680(41) 1679.8795 1619.0077
3945 112.7131 1577(40) 1682.5929 1619.1675
3946 112.7391 1604(40) 1685.4731 1619.3275
3947 112.7651 1688(41) 1688.5342 1619.4874
3948 112.7911 1683(41) 1691.7925 1619.6473
3949 112.8171 1691(41) 1695.2666 1619.8073
3950 112.8431 1710(41) 1698.9771 1619.9672
3951 112.8691 1701(41) 1702.9471 1620.1271
3952 112.8951 1679(41) 1707.2031 1620.2870
3953 112.9211 1678(41) 1711.7732 1620.4469
3954 112.9471 1737(42) 1716.6935 1620.6068
3955 112.9731 1769(42) 1722.0010 1620.7667
3956 112.9991 1702(41) 1727.7395 1620.9266
3957 113.0251 1722(41) 1733.9594 1621.0865
3958 113.0511 1760(42) 1740.7189 1621.2465
3959 113.0771 1776(42) 1748.0862 1621.4064
3960 113.1031 1715(41) 1756.1387 1621.5663
3961 113.1291 1707(41) 1764.9760 1621.7262
3962 113.1551 1706(41) 1774.7096 1621.8861
3963 113.1811 1728(42) 1785.4768 1622.0460
3964 113.2071 1757(42) 1797.4451 1622.2059
3965 113.2331 1786(42) 1810.8190 1622.3658
3966 113.2591 1815(43) 1825.8501 1622.5259
3967 113.2851 1842(43) 1842.8467 1622.6858
3968 113.3111 1779(42) 1862.1790 1622.8456
3969 113.3371 1776(42) 1884.3151 1623.0055
3970 113.3631 1843(43) 1909.7983 1623.1655
3971 113.3891 1913(44) 1939.2842 1623.3254
3972 113.4151 1907(44) 1973.5543 1623.4854
3973 113.4411 1949(44) 2013.5547 1623.6453
3974 113.4671 2009(45) 2060.4697 1623.8052
3975 113.4931 2063(45) 2115.8711 1623.9651
3976 113.5191 2122(46) 2181.9617 1624.1250
3977 113.5451 2203(47) 2262.0806 1624.2849
3978 113.5711 2395(49) 2361.1760 1624.4448
3979 113.5971 2497(50) 2486.5498 1624.6047
3980 113.6231 2601(51) 2648.4194 1624.7646
3981 113.6491 2811(53) 2860.1707 1624.9246
3982 113.6751 3063(55) 3138.0881 1625.0845
3983 113.7011 3411(58) 3500.4814 1625.2444
3984 113.7271 3865(62) 3965.8589 1625.4043
3985 113.7531 4516(67) 4550.0713 1625.5642
3986 113.7791 5233(72) 5257.3613 1625.7241
3987 113.8051 6141(78) 6062.5791 1625.8840
3988 113.8311 7131(84) 6879.9419 1626.0439
3989 113.8571 7836(89) 7539.9912 1626.2040
3990 113.8831 8227(91) 7836.0688 1626.3639
3991 113.9091 8009(89) 7661.6440 1626.5238
3992 113.9351 7458(86) 7098.8154 1626.6836
3993 113.9611 6592(81) 6338.6206 1626.8436
3994 113.9871 5841(76) 5554.5771 1627.0035
3995 114.0131 5090(71) 4852.7065 1627.1635
3996 114.0391 4447(67) 4282.6641 1627.3234
3997 114.0651 4011(63) 3859.7969 1627.4833
3998 114.0911 3755(61) 3581.1323 1627.6432
3999 114.1171 3587(60) 3435.5767 1627.8031
4000 114.1431 3471(59) 3410.3145 1627.9630
4001 114.1691 3564(60) 3494.1245 1628.1229
4002 114.1951 3757(61) 3677.4688 1628.2828
4003 114.2211 3944(63) 3948.2056 1628.4427
4004 114.2471 4296(66) 4281.1426 1628.6027
4005 114.2731 4758(69) 4621.6504 1628.7626
4006 114.2991 4938(70) 4876.9771 1628.9225
4007 114.3251 5110(71) 4946.0376 1629.0824
4008 114.3511 4965(70) 4787.6255 1629.2423
4009 114.3771 4613(68) 4451.5176 1629.4022
4010 114.4031 4177(65) 4031.5757 1629.5621
4011 114.4291 3692(61) 3607.1230 1629.7220
4012 114.4551 3380(58) 3224.1699 1629.8821
4013 114.4811 2967(54) 2902.2104 1630.0420
4014 114.5071 2818(53) 2644.5388 1630.2019
4015 114.5331 2519(50) 2445.6013 1630.3617
4016 114.5591 2401(49) 2295.5413 1630.5217
4017 114.5851 2224(47) 2183.7039 1630.6816
4018 114.6111 2108(46) 2100.3035 1630.8416
4019 114.6371 2107(46) 2037.3735 1631.0015
4020 114.6631 1998(45) 1988.9150 1631.1614
4021 114.6891 1870(43) 1950.6465 1631.3213
4022 114.7151 1970(44) 1919.6128 1631.4812
4023 114.7411 1879(43) 1893.8179 1631.6411
4024 114.7671 1847(43) 1871.8951 1631.8010
4025 114.7931 1810(43) 1852.9360 1631.9609
4026 114.8191 1813(43) 1836.3109 1632.1208
4027 114.8451 1791(42) 1821.5785 1632.2808
4028 114.8711 1761(42) 1808.4221 1632.4407
4029 114.8971 1715(41) 1796.6071 1632.6006
4030 114.9231 1684(41) 1785.9532 1632.7605
4031 114.9491 1767(42) 1776.3199 1632.9204
4032 114.9751 1770(42) 1767.5826 1633.0803
4033 115.0011 1717(41) 1759.6438 1633.2402
4034 115.0271 1720(41) 1752.4161 1633.4001
4035 115.0531 1707(41) 1745.8229 1633.5601
4036 115.0791 1730(42) 1739.7968 1633.7201
4037 115.1051 1669(41) 1734.2775 1633.8800
4038 115.1311 1701(41) 1729.2122 1634.0399
4039 115.1571 1710(41) 1724.5555 1634.1997
4040 115.1831 1736(42) 1720.2637 1634.3597
4041 115.2091 1714(41) 1716.3014 1634.5197
4042 115.2351 1707(41) 1712.6365 1634.6796
4043 115.2611 1680(41) 1709.2406 1634.8395
4044 115.2871 1694(41) 1706.0889 1634.9994
4045 115.3131 1676(41) 1703.1587 1635.1593
4046 115.3391 1647(41) 1700.4315 1635.3192
4047 115.3651 1683(41) 1697.8878 1635.4791
4048 115.3911 1685(41) 1695.5129 1635.6390
4049 115.4171 1695(41) 1693.2927 1635.7990
4050 115.4431 1635(40) 1691.2147 1635.9589
4051 115.4691 1608(40) 1689.2675 1636.1188
4052 115.4951 1671(41) 1687.4410 1636.2787
4053 115.5211 1710(41) 1685.7260 1636.4386
4054 115.5471 1724(42) 1684.1145 1636.5985
4055 115.5731 1674(41) 1682.5981 1636.7584
4056 115.5991 1622(40) 1681.1705 1636.9183
4057 115.6251 1647(41) 1679.8254 1637.0782
4058 115.6511 1629(40) 1678.5570 1637.2382
4059 115.6771 1656(41) 1677.3604 1637.3982
4060 115.7031 1661(41) 1676.2302 1637.5581
4061 115.7291 1626(40) 1675.1626 1637.7180
4062 115.7551 1669(41) 1674.1536 1637.8778
4063 115.7811 1693(41) 1673.1992 1638.0378
4064 115.8071 1678(41) 1672.2959 1638.1978
4065 115.8331 1667(41) 1671.4408 1638.3577
4066 115.8591 1617(40) 1670.6309 1638.5176
4067 115.8851 1609(40) 1652.8193 1638.6775
4068 115.9111 1660(41) 1652.5242 1638.8374
4069 115.9371 1673(41) 1652.2505 1638.9973
4070 115.9631 1683(41) 1651.9973 1639.1572
4071 115.9891 1663(41) 1651.7628 1639.3171
4072 116.0151 1672(41) 1651.5463 1639.4771
4073 116.0411 1653(41) 1651.3466 1639.6370
4074 116.0671 1646(41) 1651.1626 1639.7969
4075 116.0931 1676(41) 1650.9937 1639.9568
4076 116.1191 1668(41) 1650.8386 1640.1167
4077 116.1451 1686(41) 1650.6969 1640.2766
4078 116.1711 1711(41) 1650.5679 1640.4365
4079 116.1971 1667(41) 1650.4504 1640.5964
4080 116.2231 1608(40) 1650.8706 1640.7563
4081 116.2491 1584(40) 1650.7881 1640.9163
4082 116.2751 1602(40) 1650.8514 1641.2114
4083 116.3011 1645(41) 1651.1366 1641.7184
4084 116.3271 1631(40) 1642.8066 1642.2252
4085 116.3531 1636(40) 1643.3285 1642.7319
4086 116.3791 1674(41) 1643.8511 1643.2389
4087 116.4051 1659(41) 1644.3743 1643.7457
4088 116.4311 1652(41) 1644.8983 1644.2527
4089 116.4571 1644(41) 1645.4229 1644.7595
4090 116.4831 1659(41) 1645.9482 1645.2665
4091 116.5091 1678(41) 1646.4744 1645.7733
4092 116.5351 1621(40) 1647.0012 1646.2802
4093 116.5611 1643(41) 1647.5289 1646.7870
4094 116.5871 1652(41) 1648.0576 1647.2938
4095 116.6131 1596(40) 1648.5874 1647.8008
4096 116.6391 1657(41) 1649.1182 1648.3076
4097 116.6651 1695(41) 1649.9094 1648.8146
4098 116.6911 1687(41) 1650.4487 1649.3214
4099 116.7171 1659(41) 1650.9894 1649.8282
4100 116.7431 1666(41) 1651.5319 1650.3352
4101 116.7691 1675(41) 1652.0757 1650.8419
4102 116.7951 1654(41) 1652.6216 1651.3489
4103 116.8211 1628(40) 1653.1692 1651.8557
4104 116.8471 1642(41) 1653.7190 1652.3627
4105 116.8731 1671(41) 1654.2709 1652.8695
4106 116.8991 1659(41) 1654.8250 1653.3763
4107 116.9251 1643(41) 1655.3816 1653.8833
4108 116.9511 1632(40) 1655.9408 1654.3901
4109 116.9771 1656(41) 1656.5028 1654.8970
4110 117.0031 1656(41) 1657.0679 1655.4038
4111 117.0291 1645(41) 1657.6362 1655.9108
4112 117.0551 1758(42) 1658.2080 1656.4176
4113 117.0811 1697(41) 1658.7836 1656.9244
4114 117.1071 1705(41) 1659.3633 1657.4314
4115 117.1331 1697(41) 1659.9474 1657.9382
4116 117.1591 1713(41) 1660.5364 1658.4452
4117 117.1851 1663(41) 1661.1302 1658.9519
4118 117.2111 1715(41) 1661.7300 1659.4589
4119 117.2371 1674(41) 1662.3357 1659.9657
4120 117.2631 1600(40) 1662.9482 1660.4725
4121 117.2891 1604(40) 1663.5681 1660.9795
4122 117.3151 1648(41) 1664.1958 1661.4863
4123 117.3411 1689(41) 1664.8325 1661.9933
4124 117.3671 1658(41) 1665.4788 1662.5001
4125 117.3931 1644(41) 1666.1356 1663.0070
4126 117.4191 1602(40) 1666.8043 1663.5138
4127 117.4451 1559(39) 1667.4862 1664.0206
4128 117.4711 1607(40) 1668.1826 1664.5276
4129 117.4971 1673(41) 1668.8954 1665.0344
4130 117.5231 1745(42) 1669.6266 1665.5414
4131 117.5491 1653(41) 1670.3783 1666.0482
4132 117.5751 1694(41) 1671.1534 1666.5551
4133 117.6011 1709(41) 1671.9554 1667.0619
4134 117.6271 1727(42) 1672.7882 1667.5687
4135 117.6531 1686(41) 1673.6567 1668.0757
4136 117.6791 1654(41) 1674.5664 1668.5825
4137 117.7051 1671(41) 1675.5245 1669.0895
4138 117.7311 1702(41) 1676.5392 1669.5963
4139 117.7571 1741(42) 1677.6205 1670.1033
4140 117.7831 1661(41) 1678.7799 1670.6100
4141 117.8091 1797(42) 1680.0321 1671.1168
4142 117.8351 1760(42) 1681.3933 1671.6238
4143 117.8611 1695(41) 1682.8828 1672.1306
4144 117.8871 1674(41) 1684.5245 1672.6376
4145 117.9131 1706(41) 1686.3478 1673.1444
4146 117.9391 1678(41) 1688.3915 1673.6514
4147 117.9651 1613(40) 1690.7091 1674.1582
4148 117.9911 1720(41) 1693.3771 1674.6649
4149 118.0171 1791(42) 1696.5083 1675.1719
4150 118.0431 1765(42) 1700.2600 1675.6787
4151 118.0691 1765(42) 1704.8491 1676.1857
4152 118.0951 1733(42) 1710.5564 1676.6925
4153 118.1211 1746(42) 1717.7272 1677.1995
4154 118.1471 1753(42) 1726.7576 1677.7063
4155 118.1731 1773(42) 1738.0723 1678.2133
4156 118.1991 1820(43) 1752.0739 1678.7200
4157 118.2251 1798(42) 1769.0637 1679.2268
4158 118.2511 1733(42) 1789.0020 1679.7338
4159 118.2771 1810(43) 1811.0902 1680.2406
4160 118.3031 1845(43) 1833.1281 1680.7476
4161 118.3291 1866(43) 1851.1445 1681.2544
4162 118.3551 1902(44) 1860.4194 1681.7614
4163 118.3811 1931(44) 1858.2085 1682.2682
4164 118.4071 1885(43) 1845.7649 1682.7749
4165 118.4331 1833(43) 1827.1917 1683.2819
4166 118.4591 1796(42) 1806.7899 1683.7887
4167 118.4851 1756(42) 1787.5399 1684.2957
4168 118.5111 1771(42) 1771.0426 1684.8025
4169 118.5371 1805(42) 1757.9633 1685.3094
4170 118.5631 1743(42) 1748.4275 1685.8163
4171 118.5891 1748(42) 1742.2847 1686.3230
4172 118.6151 1771(42) 1739.2664 1686.8300
4173 118.6411 1732(42) 1739.0995 1687.3368
4174 118.6671 1708(41) 1741.5511 1687.8438
4175 118.6931 1684(41) 1746.4260 1688.3506
4176 118.7191 1723(42) 1753.4969 1688.8575
4177 118.7451 1762(42) 1762.3285 1689.3644
4178 118.7711 1761(42) 1771.9838 1689.8713
4179 118.7971 1755(42) 1780.7329 1690.3781
4180 118.8231 1791(42) 1786.2266 1690.8849
4181 118.8491 1803(42) 1786.5245 1691.3918
4182 118.8751 1736(42) 1781.3979 1691.8987
4183 118.9011 1720(41) 1772.4020 1692.4056
4184 118.9271 1724(42) 1761.6968 1692.9125
4185 118.9531 1729(42) 1751.0024 1693.4194
4186 118.9791 1704(41) 1741.3230 1693.9263
4187 119.0051 1682(41) 1733.1057 1694.4330
4188 119.0311 1699(41) 1726.4434 1694.9399
4189 119.0571 1734(42) 1721.2386 1695.4468
4190 119.0831 1753(42) 1717.2932 1695.9537
4191 119.1091 1753(42) 1714.3732 1696.4606
4192 119.1351 1729(42) 1712.2521 1696.9675
4193 119.1611 1729(42) 1710.7329 1697.4744
4194 119.1871 1730(42) 1709.6578 1697.9812
4195 119.2131 1728(42) 1708.9073 1698.4880
4196 119.2391 1711(41) 1708.3931 1698.9949
4197 119.2651 1745(42) 1708.0532 1699.5018
4198 119.2911 1692(41) 1707.8438 1700.0087
4199 119.3171 1679(41) 1707.7339 1700.5156
4200 119.3431 1735(42) 1707.7017 1701.0225
4201 119.3691 1693(41) 1707.7319 1701.5293
4202 119.3951 1725(42) 1707.8136 1702.0363
4203 119.4211 1715(41) 1707.9380 1702.5430
4204 119.4471 1684(41) 1708.0992 1703.0499
4205 119.4731 1677(41) 1708.2924 1703.5568
4206 119.4991 1717(41) 1708.5134 1704.0637
4207 119.5251 1704(41) 1708.7593 1704.5706
4208 119.5511 1757(42) 1709.0273 1705.0774
4209 119.5771 1790(42) 1709.3152 1705.5844
4210 119.6031 1704(41) 1709.6207 1706.0911
4211 119.6291 1735(42) 1709.9425 1706.5980
4212 119.6551 1695(41) 1710.2786 1707.1049
4213 119.6811 1695(41) 1710.6277 1707.6118
4214 119.7071 1661(41) 1710.9885 1708.1187
4215 119.7331 1609(40) 1711.3599 1708.6255
4216 119.7591 1656(41) 1711.7411 1709.1324
4217 119.7851 1729(42) 1712.1307 1709.6393
4218 119.8111 1712(41) 1712.5284 1710.1461
4219 119.8371 1746(42) 1712.9333 1710.6530
4220 119.8631 1742(42) 1713.3448 1711.1599
4221 119.8891 1680(41) 1713.7623 1711.6667
4222 119.9151 1618(40) 1714.1853 1712.1736
4223 119.9411 1677(41) 1714.3846 1712.4518
4224 119.9671 1729(42) 1714.3105 1712.4518
loop_
_refln_index_h
_refln_index_k
_refln_index_l
_refln_mult
_pd_refln_phase_id
_refln_observed_status
_refln_F_squared_meas
_refln_F_squared_calc
_refln_phase_calc
_refln_d_spacing
1 0 0 6 1 o 377.3694 377.4105 170.56 4.11158
1 1 0 12 1 o 9505.8936 9490.3105 8.08 2.90732
1 1 1 8 1 o 23.4489 23.4489 42.89 2.37382
2 0 0 6 1 o 11338.7549 11283.5674 7.40 2.05579
2 1 0 24 1 o 228.6458 234.3799 168.00 1.83875
2 1 1 24 1 o 6621.4375 6687.1475 9.48 1.67854
2 2 0 12 1 o 7849.4912 7840.5083 8.74 1.45366
3 0 0 6 1 o 133.6058 156.2198 165.26 1.37053
2 2 1 24 1 o 133.6059 156.2199 165.26 1.37053
3 1 0 24 1 o 5104.8525 5174.8428 10.60 1.30019
3 1 1 24 1 o 10.6797 11.7496 107.07 1.23969
2 2 2 8 1 o 5954.6924 5961.6738 9.86 1.18691
3 2 0 24 1 o 90.1558 106.9741 162.12 1.14035
3 2 1 48 1 o 4151.9346 4183.1055 11.61 1.09887
4 0 0 6 1 o 4782.4585 4761.2842 10.86 1.02789
3 2 2 24 1 o 78.1558 76.9408 158.81 0.99720
4 1 0 24 1 o 78.1558 76.9408 158.81 0.99720
3 3 0 12 1 o 3450.8201 3471.1052 12.54 0.96911
4 1 1 24 1 o 3450.8218 3471.1047 12.54 0.96911
3 3 1 24 1 o 17.8729 11.4908 106.17 0.94326
4 2 0 24 1 o 3946.4600 3920.0259 11.77 0.91938
4 2 1 48 1 o 65.8221 57.8105 155.41 0.89722
