#------------------------------------------------------------------------------
#$Date: 2022-01-03 23:44:45 +0200 (Mon, 03 Jan 2022) $
#$Revision: 271748 $
#$URL: file:///home/coder/svn-repositories/cod/cif/4/51/92/4519253.cif $
#------------------------------------------------------------------------------
#
# This file is available in the Crystallography Open Database (COD),
# http://www.crystallography.net/
#
# All data on this site have been placed in the public domain by the
# contributors.
#
data_4519253
loop_
_publ_author_name
'Mohan, Midhun'
'Essalhi, Mohamed'
'Zaye, Sarah'
'Rana, Love Karan'
'Maris, Thierry'
'Duong, Adam'
_publ_section_title
;
 Hydrogen Bond Patterns of Dipyridone and Bis(Hydroxypyridinium) Cations
;
_journal_issue                   51
_journal_name_full               'ACS Omega'
_journal_page_first              35649
_journal_page_last               35656
_journal_paper_doi               10.1021/acsomega.1c05561
_journal_volume                  6
_journal_year                    2021
_chemical_formula_moiety         'C15 H11 N3 O2, 2(H2 O1)'
_chemical_formula_sum            'C15 H15 N3 O4'
_chemical_formula_weight         301.30
_space_group_crystal_system      monoclinic
_space_group_IT_number           14
_space_group_name_Hall           '-P 2yn'
_space_group_name_H-M_alt        'P 1 21/n 1'
_atom_sites_solution_hydrogens   mixed
_atom_sites_solution_primary     dual
_audit_creation_date             2021-09-16
_audit_creation_method
;
Olex2 1.5
(compiled 2021.08.20 svn.r13c46975 for OlexSys, GUI svn.r6396)
;
_cell_angle_alpha                90
_cell_angle_beta                 104.613(7)
_cell_angle_gamma                90
_cell_formula_units_Z            2
_cell_length_a                   13.2786(15)
_cell_length_b                   3.7845(5)
_cell_length_c                   14.1350(17)
_cell_measurement_reflns_used    1144
_cell_measurement_temperature    298.15
_cell_measurement_theta_max      72.566
_cell_measurement_theta_min      6.892
_cell_volume                     687.35(15)
_computing_molecular_graphics    'Olex2 1.5 (Dolomanov et al., 2009)'
_computing_publication_material  'Olex2 1.5 (Dolomanov et al., 2009)'
_computing_structure_refinement  'XL  (Sheldrick, 2008)'
_diffrn_ambient_temperature      298.15
_diffrn_measured_fraction_theta_full 0.982
_diffrn_measured_fraction_theta_max 0.981
_diffrn_measurement_device_type  'Bruker AXS D8 Discovery'
_diffrn_measurement_method       '\f and \w scans'
_diffrn_radiation_type           CuK\a
_diffrn_radiation_wavelength     1.54178
_diffrn_reflns_av_R_equivalents  0.0786
_diffrn_reflns_av_unetI/netI     0.0558
_diffrn_reflns_Laue_measured_fraction_full 0.982
_diffrn_reflns_Laue_measured_fraction_max 0.981
_diffrn_reflns_limit_h_max       16
_diffrn_reflns_limit_h_min       -16
_diffrn_reflns_limit_k_max       3
_diffrn_reflns_limit_k_min       -4
_diffrn_reflns_limit_l_max       17
_diffrn_reflns_limit_l_min       -17
_diffrn_reflns_number            8690
_diffrn_reflns_point_group_measured_fraction_full 0.982
_diffrn_reflns_point_group_measured_fraction_max 0.981
_diffrn_reflns_theta_full        67.679
_diffrn_reflns_theta_max         72.566
_diffrn_reflns_theta_min         6.892
_exptl_absorpt_coefficient_mu    0.900
_exptl_absorpt_correction_T_max  0.94
_exptl_absorpt_correction_T_min  0.84
_exptl_absorpt_correction_type   multi-scan
_exptl_absorpt_process_details   'Bruker AXScale'
_exptl_crystal_colour            colorless
_exptl_crystal_density_diffrn    1.456
_exptl_crystal_description       block
_exptl_crystal_F_000             316
_exptl_crystal_size_max          0.2
_exptl_crystal_size_mid          0.08
_exptl_crystal_size_min          0.07
_refine_diff_density_max         0.190
_refine_diff_density_min         -0.317
_refine_diff_density_rms         0.055
_refine_ls_extinction_method     none
_refine_ls_goodness_of_fit_ref   1.093
_refine_ls_hydrogen_treatment    mixed
_refine_ls_matrix_type           full
_refine_ls_number_parameters     110
_refine_ls_number_reflns         1344
_refine_ls_number_restraints     3
_refine_ls_restrained_S_all      1.092
_refine_ls_R_factor_all          0.0735
_refine_ls_R_factor_gt           0.0654
_refine_ls_shift/su_max          0.000
_refine_ls_shift/su_mean         0.000
_refine_ls_structure_factor_coef Fsqd
_refine_ls_weighting_details
'w=1/[\s^2^(Fo^2^)+(0.1141P)^2^+0.2080P] where P=(Fo^2^+2Fc^2^)/3'
_refine_ls_weighting_scheme      calc
_refine_ls_wR_factor_gt          0.1851
_refine_ls_wR_factor_ref         0.1995
_reflns_Friedel_coverage         0.000
_reflns_number_gt                1144
_reflns_number_total             1344
_reflns_threshold_expression     'I > 2\s(I)'
_cod_data_source_file            ao1c05561_si_003.cif
_cod_data_source_block           2011734
_cod_database_code               4519253
_shelx_shelxl_version_number     2018/3
_shelx_space_group_comment
;
The symmetry employed for this shelxl refinement is uniquely defined
by the following loop, which should always be used as a source of
symmetry information in preference to the above space-group names.
They are only intended as comments.
;
_shelx_estimated_absorpt_t_max   0.940
_shelx_estimated_absorpt_t_min   0.840
_olex2_refinement_description
;
1. Fixed Uiso
 At 1.2 times of:
  All C(H) groups, All N(H) groups
 At 1.5 times of:
  All O(H,H) groups
2. Shared sites
{N9, C9}
3. Restrained distances
 O1W-H1WA = O1W-H1WB
 0.85 with sigma of 0.002
 H1WA-H1WA_$1
 2.3 with sigma of 0.02
4. Uiso/Uaniso restraints and constraints
Uanis(N9) = Uanis(C9)
5. Others
 Fixed Sof: N9(0.5) C9(0.5) H9(0.5) O1W(0.89) H1WA(0.89) H1WB(0.89) O2W(0.11)
 H2WA(0.11) H2WB(0.11)
6.a Riding coordinates:
 O2W(H2WA,H2WB)
6.b Aromatic/amide H refined with riding coordinates:
 C10(H10), N3(H3), C4(H4), C6(H6), C7(H7), C9(H9)
;
_shelx_res_file
;
TITL s1_a.res in P2(1)/n
    2011734.res
    created by SHELXL-2018/3 at 14:26:08 on 16-Sep-2021
REM Old TITL s1 in P2/n
REM SHELXT solution in P2(1)/n
REM R1 0.174, Rweak 0.002, Alpha 0.051, Orientation as input
REM Formula found by SHELXT: C8 N2 O
CELL 1.54178 13.2786 3.7845 14.135 90 104.613 90
ZERR 2 0.0015 0.0005 0.0017 0 0.007 0
LATT 1
SYMM 0.5-X,0.5+Y,0.5-Z
SFAC C H N O
UNIT 30 30 6 8
EQIV $1 1.5-X,-0.5+Y,1.5-Z
EQIV $2 1.5-X,0.5+Y,1.5-Z
EADP N9 C9
DFIX 0.85 0.002 O1W H1Wa O1W H1Wb
DFIX 2.3 H1Wa H1Wa_$1
EXYZ N9 C9

L.S. 50
PLAN  13
SIZE 0.07 0.08 0.2
TEMP 25
CONF
HTAB O1W O1W_$2
HTAB O1W O1
HTAB
BOND $H
MORE -1
fmap 2
acta
OMIT -1 0 1
OMIT -2 1 3
REM <olex2.extras>
REM <HklSrc "%.\\2011734.hkl">
REM </olex2.extras>

WGHT    0.114100    0.208000
FVAR       2.35976
O1    4    0.534082    0.209831    0.613624    11.00000    0.04586    0.08125 =
         0.07058   -0.01081    0.01492    0.00733
C10   1   -0.048004    0.527059    0.572884    11.00000    0.05266    0.06735 =
         0.05304    0.00526    0.02068    0.00899
AFIX  43
H10   2   -0.081433    0.546213    0.623092    11.00000   -1.20000
AFIX   0
C2    1    0.438280    0.270727    0.597521    11.00000    0.04569    0.04762 =
         0.05669    0.00302    0.01665    0.00284
N3    3    0.372758    0.170777    0.510744    11.00000    0.04558    0.05164 =
         0.05085   -0.00167    0.02060    0.00609
AFIX  43
H3    2    0.399596    0.067664    0.468686    11.00000   -1.20000
AFIX   0
C4    1    0.268651    0.222687    0.486380    11.00000    0.04620    0.04280 =
         0.04804    0.00147    0.01616    0.00338
AFIX  43
H4    2    0.229270    0.145838    0.425822    11.00000   -1.20000
AFIX   0
C5    1    0.220313    0.385438    0.548847    11.00000    0.04807    0.03548 =
         0.04932    0.00449    0.01910    0.00492
C6    1    0.284665    0.494819    0.639709    11.00000    0.05612    0.04361 =
         0.05236   -0.00044    0.02187    0.00745
AFIX  43
H6    2    0.254598    0.606849    0.684373    11.00000   -1.20000
AFIX   0
C7    1    0.389111    0.441015    0.663648    11.00000    0.05540    0.05155 =
         0.05210   -0.00450    0.01253    0.00289
AFIX  43
H7    2    0.429070    0.516532    0.724115    11.00000   -1.20000
AFIX   0
C8    1    0.106037    0.444265    0.522901    11.00000    0.04703    0.03305 =
         0.05538    0.00454    0.01979    0.00529
PART 1
N9    3    0.056525    0.471668    0.595763    10.50000    0.05202    0.06441 =
         0.05213    0.00536    0.01701    0.00988
PART 2
C9    1    0.056525    0.471668    0.595763    10.50000    0.05202    0.06441 =
         0.05213    0.00536    0.01701    0.00988
AFIX  43
H9    2    0.093821    0.452695    0.660759    10.50000   -1.20000
AFIX   0
PART 1
O1W   4    0.682197    0.533903    0.762725    10.89000    0.10186    0.18933 =
         0.06774    0.01503   -0.00058   -0.00786
H1WA  2    0.699871    0.704126    0.731104    10.89000   -1.50000
H1WB  2    0.630019    0.475832    0.716765    10.89000   -1.50000
PART 2
O2W   4    0.777032    0.766573    0.769119    10.11000    0.16980
AFIX   3
H2WA  2    0.721221    0.761753    0.788159    10.11000   -1.50000
H2WB  2    0.756621    0.776333    0.707139    10.11000   -1.50000
AFIX   0
HKLF 4




REM  s1_a.res in P2(1)/n
REM wR2 = 0.199458, GooF = S = 1.09294, Restrained GooF = 1.09164 for all data
REM R1 = 0.065386 for 1144 Fo > 4sig(Fo) and 0.073541 for all 1344 data
REM 110 parameters refined using 3 restraints

END

WGHT      0.1129      0.2073

REM Instructions for potential hydrogen bonds
EQIV $4 -x+1, -y, -z+1
HTAB N3 O1_$4
EQIV $5 x-1/2, -y+1/2, z-1/2
HTAB C4 O1W_$5
HTAB O1W O1W_$2
HTAB O1W O1

REM Highest difference peak  0.190,  deepest hole -0.317,  1-sigma level  0.055
Q1    1   0.7160  1.0005  0.7019  11.00000  0.05    0.19
Q2    1   0.4727  0.6543  0.7083  11.00000  0.05    0.18
Q3    1   0.2533  0.0631  0.3987  11.00000  0.05    0.17
Q4    1   0.4836 -0.0360  0.6731  11.00000  0.05    0.17
Q5    1   0.0558  0.6283  0.5771  11.00000  0.05    0.16
Q6    1  -0.0767  0.2526  0.6169  11.00000  0.05    0.16
Q7    1   0.3379  0.3024  0.6654  11.00000  0.05    0.16
Q8    1   0.6236  0.4000  0.6942  11.00000  0.05    0.15
Q9    1   0.6207  0.0752  0.6776  11.00000  0.05    0.15
Q10   1   0.7740  0.8473  0.6535  11.00000  0.05    0.15
Q11   1   0.3220  0.5823  0.6159  11.00000  0.05    0.15
Q12   1   0.1455  0.3775  0.7446  11.00000  0.05    0.14
Q13   1   0.3340  0.3131  0.4846  11.00000  0.05    0.14
;
_shelx_res_checksum              9208
_shelx_hkl_file
;
   1   0   0   -0.20    0.40
  -1   0   0    0.00    0.40
   2   0   0  135.59   12.80
   3   0   0    0.00    1.60
   4   0   0  500.25   46.60
   4   0   0  534.05   47.40
   5   0   0    0.50    0.80
   5   0   0    1.90    1.90
   6   0   0 6445.76  574.54
   7   0   0   -0.50    0.90
   7   0   0   -1.30    1.70
  -8   0   0  104.79   12.60
   8   0   0  107.69   17.90
  -8   0   0  100.29   13.60
   8   0   0   83.19   13.20
   8   0   0  100.49   12.10
   9   0   0   -7.00    2.90
   9   0   0    2.90    4.70
   9   0   0    1.20    1.60
   9   0   0   -2.70    2.50
  -9   0   0   -1.50    2.60
  -9   0   0    3.10    3.20
   9   0   0   -1.20    3.10
 -10   0   0  184.18   22.50
 -10   0   0  163.68   19.80
  10   0   0  188.38   25.00
  11   0   0    3.00    4.20
 -11   0   0    4.30    3.40
 -11   0   0   -0.10    3.20
  11   0   0   -7.00    4.30
  12   0   0 1381.26  125.09
  12   0   0 1522.75  128.99
 -12   0   0 1321.57  123.79
 -12   0   0 1170.08  122.99
 -13   0   0   -0.60    2.30
  13   0   0   -1.30    3.50
  13   0   0   -5.80    4.10
 -13   0   0    4.10    3.10
 -14   0   0   20.20    4.60
  14   0   0   29.00    7.30
  14   0   0   17.80    4.80
 -14   0   0   16.40    4.30
 -15   0   0    0.60    2.20
  15   0   0    1.20    5.00
 -15   0   0   -2.80    1.70
  15   0   0   -2.30    2.00
   0  -1   0   49.50    7.70
   0  -1   0   42.20    5.90
   0   1   0   44.50    4.70
   2  -1   0 1587.64  135.29
  -2  -1   0 1476.75  136.39
   2  -1   0 1430.36  135.29
   3  -1   0 5131.69  427.86
   3  -1   0 4432.96  426.86
  -3  -1   0 4802.72  428.86
   4  -1   0  446.86   42.00
   4  -1   0  455.25   40.90
  -4  -1   0  449.36   43.30
   4   1   0  399.46   40.20
   5  -1   0 1905.11  157.68
   5  -1   0 1885.81  159.68
   5   1   0 1575.04  156.48
   5   1   0 1663.03  157.38
   6  -1   0 1643.44  175.58
   6   1   0 2233.58  174.28
   7  -1   0   95.99   13.80
   7  -1   0  117.49   13.90
   7  -1   0   90.79   13.40
   7  -1   0  136.29   12.80
  -7  -1   0  122.79   13.30
   7   1   0   96.79   11.80
  -8  -1   0  389.16   39.60
   8  -1   0  327.07   37.40
   8  -1   0  371.66   38.10
   8  -1   0  453.85   39.20
  -8  -1   0  451.85   41.00
   8   1   0  373.76   36.60
   8   1   0  388.06   42.30
  -8   1   0  339.37   37.50
  -9  -1   0   75.99   13.20
   9  -1   0  117.79   12.60
   9  -1   0  100.49   16.80
  -9  -1   0   94.09   12.40
   9  -1   0   82.59   13.00
  -9  -1   0   87.69   12.50
   9  -1   0  110.79   13.70
   9  -1   0   88.49   13.80
   9  -1   0   84.19   12.20
   9   1   0   90.39   15.00
  -9   1   0   94.59   12.50
   9   1   0   96.69   16.80
   9   1   0  108.29   11.70
  10  -1   0   28.60    7.10
 -10  -1   0   40.10    7.50
  10  -1   0   31.20    6.40
  10  -1   0   33.80    7.50
 -10  -1   0   35.40    7.40
  10  -1   0   23.40    8.80
 -10  -1   0   21.50    7.50
 -10   1   0   30.20    7.90
  10   1   0   31.80   11.40
  10   1   0   34.20   10.50
 -10   1   0   35.80    7.10
  11  -1   0  394.86   41.40
  11  -1   0  407.26   43.60
 -11  -1   0  400.56   40.40
 -11  -1   0  457.65   40.80
 -11   1   0  380.46   41.10
 -11   1   0  381.36   40.40
  11   1   0  372.36   44.60
  11   1   0  420.96   42.50
  12  -1   0  207.88   24.20
 -12  -1   0  252.67   24.10
 -12  -1   0  220.78   23.20
 -12   1   0  197.08   23.30
 -12   1   0  192.08   23.60
  12   1   0  191.38   24.80
  12   1   0  220.58   28.20
 -13  -1   0   -6.90    4.30
  13  -1   0    5.70    3.90
 -13  -1   0    8.80    4.10
  13   1   0    3.30    5.40
  13   1   0    1.80    4.10
 -13   1   0    9.80    5.20
 -13   1   0    6.60    3.20
  14  -1   0   12.20    4.60
 -14  -1   0   28.30    6.00
  14   1   0   25.90    6.50
 -14   1   0   15.20    4.50
  14   1   0   24.80    8.30
 -14   1   0   20.30    5.50
  15  -1   0    0.30    2.60
  15  -1   0    0.50    1.90
 -15  -1   0    2.30    2.10
  15   1   0    6.60    3.40
 -15   1   0    2.90    2.00
   0  -2   0 1129.79  102.99
   0  -2   0 1193.18  105.09
   0   2   0 1029.00  100.19
  -1  -2   0  648.94   66.39
   1  -2   0  677.73   66.09
   1  -2   0  731.03   65.19
  -1  -2   0  658.23   64.09
  -1   2   0  699.63   61.49
   1   2   0  670.73   62.29
   2  -2   0   26.30    7.10
   2  -2   0   23.60    6.70
  -2  -2   0   35.90    9.70
  -2   2   0   34.50    3.40
   2   2   0   21.60    4.30
   3  -2   0  467.35   43.50
  -3  -2   0  431.76   45.50
   3  -2   0  450.65   43.80
   3   2   0  383.36   40.60
  -4  -2   0  589.54   59.29
   4  -2   0  450.15   51.49
   4  -2   0  531.75   53.99
   4  -2   0  563.14   52.59
   4  -2   0  602.94   50.89
  -4  -2   0  520.85   51.99
  -4  -2   0  522.15   54.09
   4   2   0  576.94   50.99
  -5  -2   0  935.71   77.29
   5  -2   0  807.72   80.09
   5  -2   0  929.41   76.49
  -5  -2   0  778.62   79.89
   5  -2   0  760.32   79.39
  -5  -2   0  814.62   77.69
  -5  -2   0  820.82   75.79
   5  -2   0  823.52   78.19
   5   2   0  760.72   76.39
   6  -2   0   74.49    9.70
  -6  -2   0   81.19    9.50
   6  -2   0   87.99   10.30
   6  -2   0   79.29   13.30
  -6  -2   0   77.59   10.30
  -6  -2   0   56.69   11.90
   6  -2   0   84.19    9.60
   6  -2   0   67.59   11.30
  -6  -2   0   73.59   10.80
   6   2   0   58.59    9.50
   6   2   0   51.19   14.80
   7  -2   0  135.19   18.40
   7  -2   0  114.59   14.50
   7  -2   0  108.89   15.60
   7  -2   0  110.99   14.60
  -7  -2   0   91.69   16.60
  -7  -2   0  139.29   15.00
   7  -2   0  156.08   14.70
  -7  -2   0  121.89   14.10
   7   2   0  134.19   20.80
  -8  -2   0   92.19   12.40
   8  -2   0   87.89   13.60
   8  -2   0  113.69   13.80
  -8  -2   0  106.79   13.20
  -8  -2   0  105.39   16.20
   8  -2   0  117.09   13.90
   8  -2   0   86.79   15.90
   8   2   0   96.89   18.70
   9  -2   0   35.90    7.70
   9  -2   0   18.20    5.90
   9  -2   0   22.30    8.10
  -9  -2   0   30.80    6.10
   9  -2   0   25.40    6.50
  -9  -2   0   20.80    7.70
   9   2   0   28.10   11.30
  10  -2   0  198.28   27.20
 -10  -2   0  209.88   24.50
 -10  -2   0  230.58   31.00
  10  -2   0  273.57   26.90
  10  -2   0  267.27   24.90
  10   2   0  230.68   33.30
 -10   2   0  217.88   28.30
 -11  -2   0   89.19   11.30
  11  -2   0   96.39   11.70
  11  -2   0   79.29   10.90
 -11  -2   0   64.69   11.80
  11  -2   0   85.89   11.10
 -11   2   0   73.29   11.60
  11   2   0   55.09   13.00
 -12  -2   0    8.30    3.20
 -12  -2   0    9.20    3.40
  12  -2   0    2.30    3.10
  12  -2   0    7.40    3.50
  12  -2   0    6.50    3.60
  12  -2   0    5.40    5.50
 -12  -2   0    1.40    3.70
 -12   2   0    6.10    3.70
  12   2   0    9.30    6.40
  13  -2   0    2.80    4.50
 -13  -2   0    4.90    2.50
  13  -2   0    0.10    2.20
 -13  -2   0    1.00    3.20
 -13   2   0    0.80    2.30
  13   2   0    0.90    3.20
  14  -2   0    2.50    3.10
 -14  -2   0    5.20    1.80
 -14  -2   0    1.70    4.10
 -14   2   0    2.80    2.80
  14   2   0    3.10    2.80
   0  -3   0   35.00   10.20
   0  -3   0   36.20   11.20
   0  -3   0   37.60   11.00
   0  -3   0   40.60    7.10
   0  -3   0   22.30    6.20
   1  -3   0    1.90    4.80
   1  -3   0   -1.70    3.70
   1  -3   0    2.70    3.80
  -1  -3   0   -3.40    3.90
   1  -3   0   -2.80    4.80
  -1  -3   0    0.30    3.10
  -1  -3   0   -0.20    4.10
  -1  -3   0   -6.80    3.70
   1  -3   0   -1.50    5.70
  -2  -3   0  191.28   21.90
  -2  -3   0  184.48   22.00
   2  -3   0  211.78   20.80
   2  -3   0  183.58   21.90
  -2  -3   0  189.78   23.80
   2  -3   0  185.38   24.70
   2  -3   0  190.08   20.20
  -2  -3   0  176.68   21.60
   2  -3   0  170.18   22.10
   2  -3   0  201.08   23.60
   3  -3   0  483.15   51.99
  -3  -3   0  495.95   49.60
  -3  -3   0  448.46   52.19
   3  -3   0  534.45   48.70
   3  -3   0  493.95   50.49
  -3  -3   0  507.05   50.09
   3  -3   0  600.84   62.49
   3  -3   0  539.85   48.80
  -3  -3   0  509.55   50.69
   4  -3   0   17.40    6.50
  -4  -3   0   29.60    7.20
   4  -3   0   24.40    8.60
   4  -3   0   22.50    9.60
  -4  -3   0   20.40    7.90
   4  -3   0   19.00    5.00
   4  -3   0   21.90    5.20
  -4  -3   0   18.70    5.40
  -4  -3   0   11.00    5.50
  -5  -3   0  271.47   28.50
   5  -3   0  266.77   28.90
  -5  -3   0  247.48   28.40
  -5  -3   0  281.17   27.40
   5  -3   0  261.37   26.20
   5  -3   0  267.47   26.60
   5  -3   0  240.58   30.20
   5  -3   0  245.38   32.30
  -5  -3   0  217.38   29.80
   6  -3   0  260.97   25.50
  -6  -3   0  260.37   27.20
   6  -3   0  204.48   31.10
   6  -3   0  196.58   28.40
   6  -3   0  259.87   25.00
  -6  -3   0  217.58   29.00
  -6  -3   0  263.97   25.90
  -6  -3   0  241.68   27.30
   6  -3   0  238.38   27.20
   7  -3   0    8.10    4.10
   7  -3   0    6.30    3.10
  -7  -3   0    1.80    4.50
   7  -3   0   -4.50    8.40
   7  -3   0    2.40    4.40
  -7  -3   0    4.90    4.70
  -7  -3   0    5.80    5.50
   7  -3   0   -0.20    5.70
  -7  -3   0    4.50    3.80
  -8  -3   0  187.18   21.70
  -8  -3   0  164.38   22.30
   8  -3   0  165.68   23.00
   8  -3   0  207.48   21.50
   8  -3   0  207.98   19.30
   8  -3   0  137.09   19.00
   9  -3   0  419.46   40.70
  -9  -3   0  422.46   44.00
   9  -3   0  444.26   42.10
   9  -3   0  398.36   44.30
  -9  -3   0  432.86   42.80
   9   3   0  422.56   44.90
  10  -3   0    6.40    4.20
  10  -3   0   10.20    3.90
  10  -3   0   22.90   11.00
 -10  -3   0    4.60    6.00
 -10  -3   0   17.40    4.90
 -10  -3   0   12.10    4.80
  10   3   0    2.00    5.70
  11  -3   0   30.10    6.00
 -11  -3   0   51.59    7.90
  11  -3   0   44.80    8.80
 -11  -3   0   58.89    7.30
  11  -3   0   50.79    6.90
 -11  -3   0   43.00    7.60
  11   3   0   35.30    7.30
 -12  -3   0   78.89    8.30
  12  -3   0   74.09    9.60
  -2  -4   0   62.09    9.50
   2  -4   0   38.90   12.60
   2  -4   0   56.59    9.70
  -2  -4   0   56.39   10.40
  -3  -4   0   52.19    8.90
   3  -4   0   37.60    8.30
   3  -4   0   44.10    8.20
  -3  -4   0   46.00    9.50
   4  -4   0   11.90    4.40
  -4  -4   0   17.30    5.90
   4  -4   0   17.00    6.00
  -4  -4   0   30.30    6.90
   4  -4   0   18.40    4.30
   5  -4   0    4.80    2.60
  -5  -4   0   11.20    4.80
   5  -4   0    5.60    3.50
  -5  -4   0   -6.20    4.30
   5  -4   0    0.50    4.30
  -5  -4   0    4.80    5.40
  -6  -4   0   64.49   10.60
   6  -4   0   58.79    7.90
   6  -4   0   54.89    8.90
  -7  -4   0  204.08   22.10
   7  -4   0  217.48   21.00
   7  -4   0  189.58   19.90
   8  -4   0   68.89   10.00
  -8  -4   0   63.79   10.70
  -8  -4   0   63.99    8.50
 -16   0   1   -2.20    1.20
  16   0  -1    0.70    1.80
 -15   0   1    1.40    2.00
  15   0  -1    1.70    2.40
  15   0  -1   -1.40    3.30
 -15   0   1   -0.90    2.10
 -14   0   1    2.20    3.00
 -14   0   1   -1.40    2.40
  14   0  -1   -3.70    4.10
  14   0  -1   -2.00    2.90
 -13   0   1  147.49   18.20
  13   0  -1  151.58   21.80
  13   0  -1  166.38   19.80
 -13   0   1  169.68   19.10
  12   0  -1    3.20    4.40
 -12   0   1    1.00    3.20
 -12   0   1    1.60    3.10
  12   0  -1    1.50    5.60
 -11   0   1  178.78   19.70
  11   0  -1  167.88   23.90
 -11   0   1  136.79   18.70
  11   0  -1  176.08   20.60
  10   0  -1   -6.70    3.60
  10   0  -1    1.80    3.50
 -10   0   1    2.30    3.20
   9   0  -1 1089.99  104.29
   9   0  -1 1088.19  107.09
  -9   0   1 1209.48  103.69
   9   0  -1 1050.09  100.99
  -9   0   1 1154.58  103.39
   8   0  -1   -3.30    3.40
   8   0  -1   -0.50    1.10
  -8   0   1   -4.80    2.20
   8   0  -1    0.20    2.40
   8   0  -1    5.70    5.30
   7   0  -1 6911.51  658.83
   7   0  -1 7906.41  660.73
   6   0  -1   -0.30    0.80
   6   0  -1   -0.10    2.60
   5   0  -1  128.59   13.50
   4   0  -1   -0.10    1.80
   3   0  -1 4760.72  423.96
  -2   0   1    0.00    1.40
   2   0  -1    1.90    1.20
  -1   0   1    0.90    0.80
   1   0  -1    2.00    0.90
   0   0   1    0.20    0.40
   0   0  -1    0.70    0.40
   2   0   1   -0.50    0.70
  -2   0  -1    1.10    1.20
  -2   0  -1   -0.10    0.70
   3   0   1   10.30    2.30
   3   0   1   11.30    1.80
   4   0   1    1.40    0.90
   4   0   1    0.70    1.30
   5   0   1  543.15   49.20
   6   0   1    0.90    1.90
   6   0   1    0.60    0.90
   7   0   1  365.16   34.90
  -8   0  -1   -0.90    2.30
   8   0   1   -0.40    1.00
  -8   0  -1   -0.50    2.40
   8   0   1   -3.10    2.00
   8   0   1   -0.90    3.90
   9   0   1    9.50    5.40
  -9   0  -1   12.60    4.40
   9   0   1    8.40    4.50
   9   0   1    4.10    3.30
   9   0   1    1.20    5.60
  -9   0  -1   13.10    4.80
  10   0   1    2.20    3.70
 -10   0  -1    1.00    2.50
 -10   0  -1    3.50    3.90
  10   0   1    2.00    5.90
  11   0   1  239.28   27.90
  11   0   1  251.47   31.40
 -11   0  -1  263.67   27.20
 -11   0  -1  235.38   26.50
  12   0   1   -2.60    4.80
 -12   0  -1   -0.80    2.50
 -12   0  -1    1.70    4.60
  12   0   1   -2.90    3.60
  13   0   1  139.49   20.40
 -13   0  -1  170.48   17.90
  13   0   1  146.99   18.30
 -13   0  -1  125.69   16.70
 -14   0  -1   -0.50    2.30
  14   0   1   -0.50    3.80
  14   0   1    6.00    4.70
 -14   0  -1    1.80    2.70
  15   0   1    2.20    2.40
  15   0   1   -2.50    5.80
 -15   0  -1    2.70    2.40
 -15   0  -1    3.30    2.30
 -15  -1   1   13.40    3.50
  15  -1  -1   17.20    4.40
  15   1  -1   13.00    4.80
 -15   1   1   12.00    3.20
  15   1  -1   11.10    3.70
  14  -1  -1   -0.40    2.60
 -14  -1   1    0.70    2.10
 -14   1   1   -2.00    3.10
 -14   1   1    0.10    2.30
  14   1  -1    3.20    4.30
  14   1  -1    0.30    3.70
 -13  -1   1  397.16   34.60
  13  -1  -1  324.87   34.30
 -13   1   1  284.07   33.70
  13   1  -1  314.57   37.50
 -13   1   1  349.57   34.30
 -12  -1   1  178.38   19.00
 -12  -1   1  167.98   21.00
 -12  -1   1  181.18   17.90
  12  -1  -1  122.59   18.30
 -12   1   1  167.58   22.10
  12   1  -1  101.79   26.20
 -12   1   1  153.48   19.40
  12   1  -1  173.58   20.60
  11  -1  -1  101.19   17.80
  11  -1  -1  110.39   15.30
  11  -1  -1   88.89   13.10
 -11  -1   1  114.69   14.30
  11  -1  -1   90.29   16.20
 -11  -1   1  112.49   14.40
  11   1  -1  117.99   16.50
 -11   1   1  107.99   15.60
 -11   1   1  102.59   14.20
 -10  -1   1  179.28   18.90
  10  -1  -1  164.58   18.30
 -10  -1   1  174.78   18.80
  10  -1  -1  153.28   19.10
 -10  -1   1  133.69   19.40
  10  -1  -1  160.58   17.90
  10  -1  -1  163.78   20.80
 -10   1   1  138.39   19.60
  10   1  -1  147.99   22.80
 -10   1   1  160.18   18.70
  10   1  -1  151.28   20.00
  -9  -1   1   55.79   10.50
   9  -1  -1   85.59   14.30
   9  -1  -1   75.39    9.70
   9  -1  -1   52.59    9.40
  -9  -1   1   61.99    9.40
   9  -1  -1   70.59   10.70
  -9  -1   1   58.89    9.90
   9  -1  -1   62.79   11.30
   9   1  -1   48.60   12.00
  -9   1   1   55.19    9.10
   9   1  -1   50.39   11.00
   9   1  -1   60.99    9.00
   8  -1  -1  151.58   14.60
  -8  -1   1  117.29   14.80
   8  -1  -1  128.59   15.50
  -8  -1   1  133.39   14.60
   8   1  -1  116.89   17.80
   8   1  -1  129.49   13.70
  -8   1   1   92.09   14.20
   7  -1  -1 2642.44  245.98
   7  -1  -1 2977.20  244.28
   7  -1  -1 2486.05  244.78
   7   1  -1 2758.22  243.58
   6  -1  -1 1991.50  169.68
   6   1  -1 1735.53  167.08
   5  -1  -1    5.60    3.10
  -5  -1   1    6.60    5.40
   4  -1  -1  339.27   36.60
  -4  -1   1  426.06   38.60
   3  -1  -1 1428.76  117.99
   3  -1  -1 1190.48  118.99
   2  -1  -1  230.48   23.90
   2  -1  -1  246.58   24.40
  -2  -1   1  261.87   26.00
  -2   1   1  258.47   22.40
  -1  -1  -1 3131.89  279.37
   1  -1   1 3123.69  279.47
   1  -1   1 3271.67  278.77
  -1  -1  -1 2937.51  277.67
  -2  -1  -1  644.54   65.89
   2  -1   1  717.33   65.79
   2  -1   1  780.22   65.49
   2   1   1  765.42   63.99
  -2   1  -1  642.64   62.99
   3  -1   1 1042.30  101.69
   3  -1   1 1101.99  101.89
   3   1   1 1202.38  100.49
   4  -1   1 1280.97  116.79
   4  -1   1 1321.07  117.19
   4   1   1 1246.58  115.29
   5  -1   1  362.16   32.20
   5  -1   1  311.67   32.20
   5   1   1  293.87   30.30
   6  -1   1 1376.86  138.49
   6   1   1 1700.93  139.49
   7  -1   1 2204.28  178.28
  -7  -1  -1 1950.80  176.28
   7  -1   1 1680.73  179.68
   7  -1   1 2227.78  175.88
  -7   1  -1 1814.72  176.48
   7   1   1 1908.01  180.48
   7   1   1 1829.32  175.08
   8  -1   1  896.31   80.69
  -8  -1  -1  764.12   76.99
   8  -1   1  716.13   75.99
  -8  -1  -1  775.22   74.89
  -8  -1  -1  841.32   75.19
   8  -1   1  749.92   75.59
  -8  -1  -1  780.82   74.79
  -8   1  -1  893.81   75.79
   8   1   1  839.92   78.39
  -9  -1  -1   24.00    7.20
   9  -1   1   33.00    8.30
   9  -1   1   24.70    6.50
   9  -1   1   33.20    9.60
   9  -1   1   45.10   10.70
  -9  -1  -1   45.80    7.50
  -9   1  -1   35.30    7.50
  -9   1  -1   10.90    6.70
   9   1   1   10.80    6.40
 -10  -1  -1  238.78   30.50
  10  -1   1  362.76   30.20
 -10  -1  -1  273.37   29.60
  10  -1   1  263.47   31.40
  10  -1   1  272.77   33.20
 -10   1  -1  366.26   31.90
 -10   1  -1  246.08   29.50
  10   1   1  265.17   34.50
  10   1   1  307.27   32.50
  11  -1   1    2.00    3.10
  11  -1   1    6.30    5.10
 -11  -1  -1    8.00    3.70
 -11  -1  -1   14.90    4.00
  11  -1   1   -9.30    5.70
 -11  -1  -1    1.20    3.90
 -11   1  -1    6.30    5.80
  11   1   1   -1.20    5.50
 -11   1  -1    4.70    3.60
  11   1   1    8.10    6.50
  12  -1   1   60.09   11.20
 -12  -1  -1   72.19   10.60
  12  -1   1   42.20    8.20
 -12  -1  -1   59.59   10.50
  12   1   1   65.29   11.80
 -12   1  -1   69.29   10.20
  13  -1   1   28.90    7.10
 -13  -1  -1   36.20    7.10
 -13   1  -1   19.20    5.20
 -13   1  -1   36.30    7.20
  13   1   1   33.20    9.70
 -14  -1  -1    1.90    2.20
  14  -1   1    1.80    2.70
  14   1   1   -2.10    3.80
  14   1   1    0.00    3.60
 -14   1  -1    2.10    2.40
  15  -1   1    0.60    2.10
  15  -1   1    1.20    1.80
 -15  -1  -1    1.00    1.70
  15   1   1    1.60    3.00
 -15   1  -1    3.50    2.00
  14  -2  -1    9.40    4.10
 -14  -2   1    7.30    2.20
 -14  -2   1    4.50    3.00
 -14   2   1    3.40    2.10
  14   2  -1    3.00    3.40
  13  -2  -1   11.90    7.90
  13  -2  -1    8.20    3.10
  13  -2  -1   13.50    3.70
 -13  -2   1   13.20    3.70
 -13   2   1   14.00    4.40
  13   2  -1   23.30    7.10
  12  -2  -1   23.10    5.30
  12  -2  -1   20.60    7.60
 -12  -2   1   18.30    4.50
 -12  -2   1   16.70    5.60
  12  -2  -1   10.50    3.80
 -12  -2   1   16.00    4.40
  12  -2  -1   19.10    4.70
  12   2  -1   11.80    6.70
 -12   2   1   19.60    5.60
  11  -2  -1   50.69    8.50
  11  -2  -1   37.40    7.20
  11  -2  -1   41.50    7.90
 -11  -2   1   54.89    9.80
  11  -2  -1   36.10   10.40
 -11   2   1   65.59    9.80
  11   2  -1   47.00   11.40
 -10  -2   1  114.09   13.50
  10  -2  -1  100.69   13.10
 -10  -2   1   97.09   15.00
  10  -2  -1  107.99   14.00
  10  -2  -1  105.49   19.00
  10  -2  -1  108.99   13.70
 -10   2   1  101.79   14.40
  10   2  -1  109.89   19.40
  -9  -2   1   32.60    9.30
  -9  -2   1   28.80    6.10
   9  -2  -1   28.20   10.90
   9  -2  -1   36.00    6.40
   9  -2  -1   27.20    7.10
   9  -2  -1   23.50    6.40
   9  -2  -1   14.80    5.20
  -9   2   1   22.50    6.30
   9   2  -1   24.90   10.50
   8  -2  -1  328.57   36.10
   8  -2  -1  392.86   36.50
   8  -2  -1  364.86   37.10
   8  -2  -1  406.16   41.40
  -8  -2   1  339.37   39.00
  -8  -2   1  354.16   35.70
  -8   2   1  375.56   37.10
  -7  -2   1  663.33   63.49
  -7  -2   1  659.93   63.29
   7  -2  -1  762.72   63.49
   7  -2  -1  741.53   64.29
   7  -2  -1  692.13   63.89
  -7  -2   1  586.84   66.39
   7  -2  -1  749.23   68.79
   7  -2  -1  642.14   64.89
   7   2  -1  642.64   69.09
  -7   2   1  649.14   64.69
   6  -2  -1  120.69   12.30
  -6  -2   1   99.79   15.20
   6  -2  -1  135.49   13.20
  -6  -2   1   72.59   14.60
   6  -2  -1  126.49   16.80
  -6  -2   1  133.29   14.00
   6  -2  -1   99.89   15.60
   6  -2  -1   77.39   13.20
  -6  -2   1  110.99   12.10
   6  -2  -1   75.69   11.90
   6   2  -1   92.69   12.30
   5  -2  -1    4.80    2.70
  -5  -2   1    8.40    4.10
   5  -2  -1    6.90    4.70
  -5  -2   1    4.70    6.60
   5  -2  -1    4.70    4.40
   5  -2  -1    5.70    3.10
  -5  -2   1   -0.50    2.60
  -5  -2   1    4.30    4.40
   5  -2  -1    8.70    4.10
   5   2  -1    2.10    2.10
  -4  -2   1    0.90    3.30
   4  -2  -1    4.50    4.60
  -4  -2   1    2.10    3.20
  -4  -2   1    4.30    5.70
  -4  -2   1    3.10    3.60
   4  -2  -1    2.40    4.00
   4  -2  -1   -0.30    3.40
   4  -2  -1   -0.20    2.80
   4  -2  -1    1.80    2.10
   4   2  -1    2.30    1.80
   3  -2  -1  478.65   48.80
  -3  -2   1  547.75   53.09
   3  -2  -1  501.45   50.19
   3   2  -1  516.15   47.70
   2  -2  -1 1981.00  181.28
   2  -2  -1 1968.60  181.38
  -2  -2   1 2086.59  184.28
   2   2  -1 1769.82  178.68
  -2   2   1 2146.09  177.58
   1  -2  -1 9516.95  816.52
  -1  -2   1 8657.33  817.82
  -1  -2   1 9240.58  815.32
   0  -2   1   88.09   14.70
   0  -2   1   88.39   12.40
   0  -2  -1   87.89   13.80
   0  -2  -1   96.89   12.10
   0   2  -1   94.59    9.70
   0   2   1   92.59    9.60
  -1  -2  -1 3397.86  305.67
   1  -2   1 3708.83  306.67
   1  -2   1 3436.86  304.67
  -1  -2  -1 3367.26  303.47
   1   2   1 3410.86  301.67
  -1   2  -1 2973.30  300.87
   2  -2   1  914.01   82.49
  -2  -2  -1  900.21   83.69
   2  -2   1  892.51   83.29
  -2   2  -1  889.91   77.79
  -2   2  -1  749.03   77.89
   2   2   1  899.91   79.39
  -3  -2  -1  264.57   31.20
   3  -2   1  272.37   28.40
   3  -2   1  292.77   30.40
  -3  -2  -1  282.27   29.80
   3  -2   1  279.87   31.10
   3  -2   1  327.07   31.60
   3   2   1  303.97   28.10
   4  -2   1  352.96   36.60
   4  -2   1  291.07   35.90
   4  -2   1  363.76   33.70
  -4  -2  -1  370.76   34.50
   4   2   1  338.27   33.30
   5  -2   1  660.33   67.99
  -5  -2  -1  812.32   67.39
  -5  -2  -1  615.24   69.39
   5  -2   1  743.63   70.19
   5  -2   1  784.12   66.39
  -5  -2  -1  729.13   67.99
   5  -2   1  637.64   65.99
   5   2   1  722.23   66.49
  -6  -2  -1  225.78   32.00
   6  -2   1  337.57   30.30
  -6  -2  -1  316.57   31.20
  -6  -2  -1  327.57   30.40
   6  -2   1  295.37   33.40
   6  -2   1  256.97   29.40
   6  -2   1  272.77   31.10
   6  -2   1  312.27   29.40
   6   2   1  349.47   33.40
  -7  -2  -1   98.49   12.00
  -7  -2  -1   98.69   11.80
   7  -2   1   73.49   10.70
   7  -2   1   83.19   14.30
   7  -2   1   75.59   11.10
  -7   2  -1   54.59   11.20
   8  -2   1  113.59   15.40
  -8  -2  -1   92.69   16.00
   8  -2   1   97.19   17.70
  -8  -2  -1  135.99   14.40
   8  -2   1  135.99   13.70
  -8  -2  -1   91.19   13.00
   8  -2   1  106.99   14.60
   8  -2   1  109.79   14.20
   8   2   1  105.39   19.80
  -8   2  -1   95.59   14.20
  -9  -2  -1  222.58   23.00
   9  -2   1  233.88   22.80
  -9  -2  -1  183.58   22.80
   9  -2   1  181.98   23.40
   9  -2   1  187.28   26.90
  -9  -2  -1  244.98   26.90
   9  -2   1  242.08   24.20
  -9   2  -1  216.08   24.00
   9   2   1  234.38   29.90
  10  -2   1  208.68   26.10
  10  -2   1  301.17   26.90
 -10  -2  -1  239.08   28.00
  10  -2   1  229.88   31.30
  10  -2   1  222.08   25.70
 -10   2  -1  277.17   26.80
  10   2   1  204.08   30.20
  11  -2   1  857.31   73.19
 -11  -2  -1  916.71   73.69
  11  -2   1  708.13   72.89
 -11  -2  -1  758.92   74.89
  11  -2   1  675.93   72.09
 -12  -2  -1   31.10    6.40
  12  -2   1   22.60    4.90
  12  -2   1   24.40    7.10
  12  -2   1   16.60    4.20
  12   2   1   19.10    7.10
 -13  -2  -1    9.80    3.10
  13  -2   1    5.70    2.60
 -13  -2  -1    7.60    3.60
  13  -2   1    9.80    4.90
  13   2   1    4.80    3.70
 -13   2  -1    5.60    2.70
 -14  -2  -1   -3.80    2.00
 -14  -2  -1   -2.10    2.10
  14  -2   1   -3.90    2.30
 -14   2  -1   -1.30    1.40
  14   2   1    0.30    2.40
  12  -3  -1   29.10    5.60
 -12  -3   1   43.10    5.80
  12  -3  -1   40.60    7.20
 -12  -3   1   50.09    6.60
  12  -3  -1   50.39    6.40
  11  -3  -1  198.58   21.80
 -11  -3   1  202.88   20.30
 -11  -3   1  188.68   20.30
  11   3  -1  147.69   20.90
 -10  -3   1   63.99   10.90
  10  -3  -1   73.99   12.00
  10  -3  -1   68.79    9.90
 -10  -3   1   71.89   16.20
  10  -3  -1   73.69    9.40
  10   3  -1   59.29   11.00
  -9  -3   1   87.69   14.40
  -9  -3   1   92.39   14.00
   9  -3  -1   98.19   15.60
   9  -3  -1  101.09   12.40
   9  -3  -1  115.09   13.50
   9   3  -1   98.39   16.30
  -8  -3   1  314.37   36.50
   8  -3  -1  360.16   33.10
  -8  -3   1  333.97   35.60
   8  -3  -1  320.07   37.30
   8  -3  -1  333.47   34.50
   7  -3  -1   14.00   10.60
   7  -3  -1   16.80   10.50
  -7  -3   1   20.70    8.10
   7  -3  -1   15.50    4.60
   6  -3  -1   43.90    9.60
  -6  -3   1   81.89   11.40
   6  -3  -1   48.20    8.80
  -6  -3   1   61.69   14.00
   6  -3  -1   63.69    8.60
   6  -3  -1   53.69   12.90
   6  -3  -1   47.70   13.50
  -6  -3   1   60.79   12.30
   5  -3  -1   28.10    7.10
   5  -3  -1   23.40    8.80
   5  -3  -1   31.80    6.00
   5  -3  -1   22.80    5.20
   5  -3  -1   31.50    9.50
  -5  -3   1   24.20    8.40
  -5  -3   1   19.30    7.00
  -5  -3   1   34.30    8.10
   4  -3  -1   -2.80    5.00
   4  -3  -1    4.30    4.20
   4  -3  -1   10.70    6.60
   4  -3  -1    2.10    2.70
  -4  -3   1    8.70    5.80
   4  -3  -1    8.10    4.80
   4  -3  -1   10.40    3.60
  -4  -3   1   10.70    4.80
  -4  -3   1    9.40    4.60
   3  -3  -1   69.79   14.80
  -3  -3   1   94.39   30.90
   3  -3  -1   78.89    9.90
  -3  -3   1   70.79   11.00
   3  -3  -1   71.29   13.50
  -3  -3   1   88.19   12.00
  -3  -3   1   68.59   11.50
   3  -3  -1   70.79   11.40
  -3  -3   1   50.39   13.00
  -3  -3   1   72.39   10.40
   3  -3  -1   70.79   10.00
   3  -3  -1   77.19   12.20
  -2  -3   1   28.50    9.30
   2  -3  -1   33.20    8.60
  -2  -3   1   40.10   13.70
   2  -3  -1   31.10    7.60
   2  -3  -1   39.00    9.40
   2  -3  -1   24.40    5.60
   2  -3  -1   36.80    9.60
  -2  -3   1   34.10   10.70
  -2  -3   1   29.80    7.50
  -2  -3   1   41.80    8.50
   2  -3  -1   20.20    8.40
   1  -3  -1   -0.40    5.20
   1  -3  -1    9.60    4.50
  -1  -3   1    4.30    4.80
  -1  -3   1    5.90    5.20
   1  -3  -1    9.00    4.20
  -1  -3   1    6.80    5.20
   1  -3  -1    7.60    5.10
   1  -3  -1   10.20    6.70
  -1  -3   1    4.50    3.70
  -1  -3   1    4.60    4.90
   1  -3  -1    7.60    3.10
  -1  -3   1    7.00    8.10
   1  -3  -1    4.90    5.00
   0  -3  -1 1548.05  144.19
   0  -3   1 1560.24  143.49
   0  -3   1 1696.63  142.79
   0  -3   1 1335.67  144.39
   0  -3  -1 1629.24  145.29
   0  -3   1 1624.24  148.49
   0  -3  -1 1612.24  141.89
   0  -3  -1 1543.05  140.89
   0  -3  -1 1446.06  143.49
   0  -3   1 1691.23  142.79
   0  -3   1 1400.56  142.99
   0  -3  -1 1589.54  144.69
  -1  -3  -1  278.87   30.60
   1  -3   1  295.37   31.70
   1  -3   1  293.27   34.00
   1  -3   1  291.07   31.20
   1  -3   1  323.07   31.00
   1  -3   1  287.47   35.60
  -1  -3  -1  284.67   33.50
   1  -3   1  318.47   30.40
  -1  -3  -1  284.17   32.00
  -1  -3  -1  299.57   32.10
  -1  -3  -1  316.37   30.90
  -2  -3  -1   76.89   12.90
  -2  -3  -1   87.29   13.10
   2  -3   1   62.59   12.60
   2  -3   1   88.49   11.10
   2  -3   1   96.49   15.90
  -2  -3  -1   83.09   14.70
   2  -3   1   98.99   11.90
   2  -3   1   78.69   13.00
  -3  -3  -1  307.87   37.60
  -3  -3  -1  326.57   34.90
  -3  -3  -1  372.36   35.40
   3  -3   1  346.67   39.70
   3  -3   1  290.77   35.90
  -3  -3  -1  327.87   35.70
   3  -3   1  404.96   34.40
   3  -3   1  339.87   33.60
   3  -3   1  321.27   35.60
   4  -3   1  260.67   32.60
  -4  -3  -1  241.78   33.10
   4  -3   1  251.87   34.40
  -4  -3  -1  310.47   32.20
   4  -3   1  281.67   31.80
  -4  -3  -1  269.47   30.60
   4  -3   1  332.57   30.20
  -4  -3  -1  329.97   31.10
   4  -3   1  330.17   29.90
  -5  -3  -1   69.09   10.50
  -5  -3  -1   64.49   11.00
   5  -3   1   73.29    9.70
   5  -3   1   56.49   13.50
   5  -3   1   55.09   14.70
   5  -3   1   43.10   10.80
   5  -3   1   57.99    8.70
  -5  -3  -1   44.10    9.70
  -5  -3  -1   41.00   11.70
  -6  -3  -1   58.99   11.10
   6  -3   1   65.39    9.70
   6  -3   1   47.50   15.50
   6  -3   1   36.40    9.00
  -6  -3  -1   42.30   11.80
  -6  -3  -1   68.29   10.00
   6  -3   1   58.69    8.60
  -6  -3  -1   72.89   11.30
   6  -3   1   47.40   11.50
  -7  -3  -1   58.79   13.70
   7  -3   1   64.39   10.20
   7  -3   1   61.79    9.00
  -7  -3  -1   72.89   11.70
   7  -3   1   58.69   20.30
  -7  -3  -1   65.99   10.20
   7  -3   1   54.79   11.10
   8  -3   1    1.60    4.00
  -8  -3  -1    5.10    4.60
  -8  -3  -1    5.00    4.20
   8  -3   1    5.00    3.70
   8  -3   1    0.40    5.30
   8  -3   1    7.90    3.10
  -8  -3  -1   10.30    4.90
  -8  -3  -1    1.20    4.20
  -9  -3  -1   33.30    8.50
  -9  -3  -1   31.20    8.60
   9  -3   1   24.10    7.80
   9  -3   1   11.30    4.30
   9  -3   1   37.30    7.30
   9  -3   1   20.20    4.60
   9   3   1   11.20    7.40
  10  -3   1    6.20    3.60
  10  -3   1    1.00    3.70
 -10  -3  -1    5.40    3.70
 -10  -3  -1    4.10    3.80
 -10  -3  -1   -4.10    3.10
  10   3   1    3.10    6.80
  11  -3   1   43.20    6.90
 -11  -3  -1   51.89    8.00
  11  -3   1   58.89    8.90
 -11  -3  -1   44.90    7.50
  11  -3   1   58.89    7.10
  11   3   1   55.09   10.00
   8  -4  -1    4.10    2.50
  -8  -4   1    5.40    2.80
  -8  -4   1    6.10    3.10
   8  -4  -1    6.40    2.80
   8  -4  -1    0.80    1.90
  -7  -4   1  191.98   17.20
   7  -4  -1  126.59   18.30
   7  -4  -1  160.08   16.80
  -7  -4   1  140.99   16.50
  -7  -4   1  174.28   18.30
   7  -4  -1  141.59   15.70
  -6  -4   1   97.29   13.00
   6  -4  -1   76.19   12.20
  -6  -4   1  100.09   14.90
   6  -4  -1   98.49   11.70
   6  -4  -1   83.99   10.50
  -5  -4   1   72.09   10.70
   5  -4  -1   90.39   12.10
   5  -4  -1   83.09   12.50
   5  -4  -1   93.99   10.50
  -4  -4   1  135.79   15.90
  -4  -4   1  140.59   18.10
   4  -4  -1  137.09   17.80
   4  -4  -1  146.19   15.40
   4  -4  -1  165.78   17.00
   3  -4  -1   22.80    5.30
   3  -4  -1   34.80    9.40
  -3  -4   1   36.00    7.00
  -3  -4   1   29.20    7.50
   3  -4  -1   24.10    5.80
  -3  -4   1   24.20    5.70
   2  -4  -1    2.90    3.30
  -2  -4   1    6.10    5.00
   2  -4  -1   -6.30    3.50
  -2  -4   1    6.20    4.10
   2  -4  -1   -3.80    3.40
  -2  -4   1    3.70    4.00
   1  -4  -1    3.60    4.40
  -1  -4   1   11.30    4.90
   1  -4  -1    8.80    4.40
  -1  -4   1   12.00    4.50
   1  -4  -1    9.00    4.60
  -1  -4   1   12.60    4.30
   0  -4   1   43.60    7.00
   0  -4   1   43.60    8.40
   0  -4   1   20.30    5.30
   0  -4  -1   27.00    6.60
   0  -4  -1   27.20    6.80
   1  -4   1   15.70    4.90
   1  -4   1   30.20    7.90
  -1  -4  -1   15.10    5.30
   1  -4   1   19.60    4.50
  -1  -4  -1   30.40    6.70
  -1  -4  -1   20.30    6.10
  -2  -4  -1   24.90    7.80
  -2  -4  -1   31.00    9.40
   2  -4   1   21.70    6.00
  -2  -4  -1   28.10    6.90
   2  -4   1   33.70    6.10
  -3  -4  -1    8.10    4.70
   3  -4   1    9.80    3.60
   3  -4   1    6.20    3.90
  -3  -4  -1   11.40    4.70
  -3  -4  -1    0.20    3.40
   3  -4   1    5.00    3.30
   4  -4   1   48.30    7.70
  -4  -4  -1   60.49    9.40
  -4  -4  -1   40.30   10.60
   4  -4   1   38.80    8.50
  -5  -4  -1  147.39   18.40
   5  -4   1  163.88   15.60
   5  -4   1  120.79   15.50
   5  -4   1  153.48   16.90
   6  -4   1   11.10    3.60
   6  -4   1   15.10    3.60
  -6  -4  -1   17.50    4.70
   6  -4   1   20.30    5.00
  -6  -4  -1   20.60    6.40
   7  -4   1  158.38   16.20
   7  -4   1  143.89   15.30
  -7  -4  -1  147.79   17.20
 -16   0   2   -1.40    1.20
  16   0  -2    1.30    2.20
  16   0  -2   -0.70    2.40
 -16   0   2   -0.80    2.70
 -15   0   2    1.20    2.00
  15   0  -2   -0.30    2.50
  15   0  -2   -1.00    3.40
 -15   0   2    0.20    2.20
  14   0  -2   99.99   13.00
 -14   0   2   78.39   11.30
 -14   0   2   88.89   12.30
  13   0  -2    3.40    5.20
  13   0  -2    4.60    4.00
 -13   0   2    2.10    3.00
 -13   0   2   -1.40    2.80
 -12   0   2  120.29   16.70
  12   0  -2  124.39   17.80
 -12   0   2  162.78   17.40
 -11   0   2   -0.90    2.50
  11   0  -2   -1.30    4.50
  11   0  -2    1.00    4.00
 -11   0   2    1.30    3.30
  11   0  -2   -6.40    5.50
  10   0  -2   17.70    6.80
 -10   0   2    9.90    4.30
  10   0  -2   16.30    6.00
  10   0  -2   22.80    6.90
 -10   0   2   15.80    4.30
  -9   0   2   -4.30    2.40
  -9   0   2    0.30    2.50
   9   0  -2   -2.10    1.30
   9   0  -2   -5.20    3.30
   9   0  -2   -1.40    3.70
   9   0  -2   -2.20    2.30
   9   0  -2    2.10    4.90
   8   0  -2 3529.25  341.87
  -8   0   2 4004.40  338.87
   7   0  -2    3.00    3.40
   6   0  -2 1911.41  172.38
   5   0  -2    1.90    2.60
  -4   0   2  945.61   85.49
  -3   0   2    3.70    2.20
   3   0  -2   -0.30    1.40
   2   0  -2  116.69   10.80
  -2   0   2  107.09   11.80
   1   0  -2    0.30    0.90
  -1   0   2    1.10    1.90
  -1   0   2   -0.10    0.90
  -1   0  -2   -0.40    1.10
   1   0   2   -0.30    0.80
  -1   0  -2   -0.20    0.70
   3   0   2    0.60    1.40
   3   0   2    0.80    0.80
  -3   0  -2    0.60    0.70
   4   0   2  346.97   35.50
   4   0   2  422.96   35.10
   5   0   2    1.30    1.70
   5   0   2   -0.60    0.70
   6   0   2 6965.60  620.64
  -7   0  -2   -2.40    2.40
   7   0   2   -2.60    3.50
   7   0   2    2.50    3.30
   7   0   2   -0.30    0.90
   8   0   2   -0.60    1.50
  -8   0  -2   -0.50    3.10
  -8   0  -2    0.90    2.90
   8   0   2   -3.50    3.30
  -9   0  -2    0.70    2.80
  -9   0  -2    0.40    2.80
   9   0   2    3.70    4.60
   9   0   2    4.20    4.40
 -10   0  -2  624.54   61.49
  10   0   2  668.43   66.89
  11   0   2    1.10    5.50
  11   0   2   -5.20    3.80
 -11   0  -2   -1.00    3.00
 -11   0  -2   -1.00    2.90
 -12   0  -2  269.87   30.20
  12   0   2  325.07   35.00
  12   0   2  279.17   31.50
  13   0   2    1.00    4.50
 -13   0  -2    3.00    2.60
 -13   0  -2   -4.00    2.00
  13   0   2    1.80    3.30
  14   0   2   17.20    5.40
 -14   0  -2   17.70    3.90
  14   0   2   14.80    4.50
 -14   0  -2   10.20    3.30
 -15   0  -2   -0.30    1.90
 -15   0  -2   -2.50    1.30
  15   0   2    3.00    3.90
  15  -1  -2   -0.90    2.10
  15  -1  -2    2.10    2.30
 -15  -1   2    2.30    2.10
  15   1  -2    2.40    2.90
  15   1  -2    3.00    3.30
 -15   1   2    3.50    2.20
  14  -1  -2   27.60    6.10
 -14  -1   2   24.80    5.30
  14   1  -2   25.60    7.80
 -14   1   2   18.30    5.10
 -14   1   2   21.20    4.90
  14   1  -2   28.60    6.90
 -13  -1   2  182.28   19.30
 -13   1   2  162.48   19.60
  13   1  -2  180.58   23.80
  13   1  -2  134.89   20.10
 -13   1   2  173.58   19.60
  12  -1  -2  507.95   59.19
 -12  -1   2  667.03   60.49
 -12  -1   2  602.74   59.49
  12  -1  -2  588.64   57.49
  12   1  -2  600.94   64.29
 -12   1   2  507.65   58.09
  11  -1  -2   -1.70    5.60
 -11  -1   2   10.90    4.90
  11  -1  -2    7.60    4.00
 -11  -1   2   14.80    4.60
  11  -1  -2    7.60    6.40
 -11  -1   2    5.20    3.90
  11  -1  -2    7.70    5.10
  11   1  -2    3.60    4.80
  11   1  -2    6.60    6.60
 -11   1   2   -3.90    4.00
 -11   1   2    2.40    3.30
  10  -1  -2   -1.70    3.00
 -10  -1   2   -4.80    3.30
  10  -1  -2   -3.10    5.10
 -10  -1   2    3.00    3.60
 -10  -1   2   -1.10    3.00
  10  -1  -2    1.50    3.30
  10  -1  -2   -8.70    4.00
  10  -1  -2    1.10    4.10
  10   1  -2   -6.70    4.10
  10   1  -2   -2.40    4.70
 -10   1   2   -1.90    2.60
 -10   1   2   -7.00    4.30
  -9  -1   2   59.59    9.90
   9  -1  -2   60.29   11.40
   9  -1  -2   86.89   10.60
  -9  -1   2   62.89    9.80
   9  -1  -2   70.19   12.80
   9  -1  -2   67.99    9.70
   9  -1  -2   65.89   10.50
  -9   1   2   62.69    9.70
   9   1  -2   76.69   15.80
   9   1  -2   54.39    8.80
   9   1  -2   66.39   15.70
  -8  -1   2  282.27   27.80
   8  -1  -2  331.37   27.60
   8  -1  -2  270.77   31.10
  -8  -1   2  274.57   27.60
   8  -1  -2  262.27   28.20
   8  -1  -2  278.57   29.80
   8   1  -2  255.37   26.70
   8   1  -2  253.07   26.70
   8   1  -2  213.28   30.80
   7  -1  -2 1436.16  128.59
  -7  -1   2 1192.98  128.59
   7  -1  -2 1426.36  130.49
   7   1  -2 1615.04  128.59
   6  -1  -2  882.61   86.19
  -6  -1   2  963.50   87.49
  -5  -1   2  431.16   40.10
   5  -1  -2  351.66   38.10
   4  -1  -2   74.69    7.00
   3  -1  -2 3883.21  346.77
   3  -1  -2 4053.69  344.57
  -3  -1   2 3679.93  348.17
   1  -1   2  482.35   43.50
   1  -1   2  482.75   42.10
  -1   1  -2  389.86   40.10
   1   1   2  435.66   40.40
   2  -1   2 1953.60  189.48
   2  -1   2 2116.79  190.58
  -2   1  -2 2219.98  187.38
   2   1   2 2127.29  188.18
   3  -1   2 3130.09  290.07
   3   1   2 3570.44  288.57
  -3   1  -2 3007.20  287.17
   4  -1   2  152.58   17.90
   4  -1   2  164.58   17.40
   4   1   2  144.39   15.10
   5  -1   2 1321.57  114.59
   5  -1   2 1347.07  114.29
   5   1   2 1060.39  111.59
   6  -1   2   88.99   10.80
   6  -1   2   52.99    9.80
  -6  -1  -2   76.69   10.20
   6  -1   2   75.19   11.10
   6   1   2   68.49    8.20
   7  -1   2   34.70    8.00
  -7  -1  -2   26.10    6.00
  -7  -1  -2   32.40    7.00
   7  -1   2   31.30    5.80
  -7  -1  -2   20.50    5.60
   7  -1   2   23.00    6.70
   7  -1   2   27.00    6.40
   7  -1   2   30.60    7.20
   7   1   2   14.40    7.00
   7   1   2   27.30    4.80
   8  -1   2   78.29   11.80
   8  -1   2   80.39   12.30
   8  -1   2   57.79   13.20
   8  -1   2   75.69   11.20
  -8  -1  -2   82.79   10.90
  -8  -1  -2   84.19   11.00
   8  -1   2   66.89   11.80
  -8  -1  -2   61.89   12.20
  -8  -1  -2   81.49   11.00
   8  -1   2  100.29   10.60
   8   1   2   85.09    9.80
  -8   1  -2   84.49   11.20
   8   1   2   57.99   12.70
   9  -1   2  299.17   31.90
   9  -1   2  358.36   35.70
  -9  -1  -2  306.37   31.00
  -9  -1  -2  263.97   32.40
   9  -1   2  346.17   31.30
   9  -1   2  265.77   31.90
   9   1   2  293.37   32.90
  -9   1  -2  267.07   31.40
  10  -1   2  248.48   26.40
  10  -1   2  250.57   28.90
 -10  -1  -2  241.38   25.40
  10  -1   2  243.28   29.10
 -10  -1  -2  180.38   25.30
  10  -1   2  191.78   24.20
  10  -1   2  249.28   24.20
 -10  -1  -2  233.28   24.90
 -10   1  -2  231.28   25.30
  10   1   2  208.18   29.80
  10   1   2  291.77   28.60
 -10   1  -2  226.28   25.50
  11  -1   2  246.48   28.10
 -11  -1  -2  284.17   27.80
 -11  -1  -2  228.58   28.00
  11   1   2  269.77   33.20
 -11   1  -2  272.17   27.80
 -11   1  -2  222.98   30.20
 -12  -1  -2   -3.00    2.40
 -12  -1  -2   -6.00    2.90
  12  -1   2    3.10    4.00
  12   1   2   -2.70    4.20
 -12   1  -2   -1.40    2.70
  12   1   2   -4.70    4.20
 -13  -1  -2    8.30    4.00
  13  -1   2    8.00    4.30
  13   1   2   12.50    4.90
  13   1   2    5.50    5.30
 -13   1  -2    5.40    3.20
  14  -1   2   -0.90    2.30
 -14  -1  -2    1.50    2.10
  14   1   2   -1.90    3.40
 -14   1  -2   -0.20    1.70
 -14  -2   2   44.00    7.50
  14  -2  -2   42.60    8.00
 -14  -2   2   44.10    5.90
  14  -2  -2   47.90    5.90
 -14   2   2   32.80    6.30
  14   2  -2   45.30    8.30
  13  -2  -2   -0.80    2.20
  13  -2  -2   -1.30    3.60
 -13  -2   2   -3.10    2.90
 -13  -2   2   -3.50    3.20
 -13   2   2   -1.90    2.10
  13   2  -2   -0.90    4.30
  12  -2  -2   88.69   11.30
 -12  -2   2   77.79   10.50
 -12  -2   2   95.59   10.80
 -12  -2   2   71.29   11.40
  12   2  -2   60.69   13.70
 -12   2   2   68.49   11.00
 -11  -2   2   68.29    9.30
  11  -2  -2   33.00    7.70
  11  -2  -2   48.20   12.20
 -11  -2   2   45.20    9.60
  11  -2  -2   40.30    8.10
 -11  -2   2   57.29    8.80
  11  -2  -2   51.89    9.40
  11   2  -2   49.80   11.10
 -11   2   2   70.09   10.20
  10  -2  -2  449.76   38.60
  10  -2  -2  349.27   37.30
  10  -2  -2  409.76   44.00
  10  -2  -2  360.86   41.60
 -10  -2   2  356.06   39.20
  10  -2  -2  357.86   37.10
 -10  -2   2  394.16   37.60
 -10   2   2  382.26   38.90
  10   2  -2  350.56   42.50
   9  -2  -2  129.09   19.70
   9  -2  -2  103.49   15.70
   9  -2  -2  143.99   16.90
  -9  -2   2  155.48   16.70
   9  -2  -2  158.78   17.40
  -9  -2   2  136.99   18.80
   9  -2  -2  150.38   16.20
   9  -2  -2  192.38   22.50
  -9   2   2  131.29   17.50
   9   2  -2  135.49   21.70
   8  -2  -2   93.29   15.10
   8  -2  -2  105.39   11.50
  -8  -2   2   75.79   10.80
   8  -2  -2   86.19   15.40
   8  -2  -2   89.79   12.40
  -8  -2   2   64.19   13.30
   8  -2  -2   95.69   12.00
   8   2  -2   78.49   19.40
  -8   2   2   92.99   12.80
   7  -2  -2  111.99   13.30
   7  -2  -2   61.29   10.90
   7  -2  -2   84.49   11.60
  -7  -2   2   98.89   14.50
   7  -2  -2   85.09   14.20
   7  -2  -2  113.59   11.20
  -7  -2   2   86.59   11.30
  -7  -2   2   86.09   10.90
  -7   2   2   71.19   13.00
   7   2  -2   86.29   16.90
  -6  -2   2  319.17   37.20
  -6  -2   2  320.57   30.30
   6  -2  -2  301.47   30.60
  -6  -2   2  310.07   30.70
   6  -2  -2  288.17   31.70
   6  -2  -2  359.86   30.50
   6  -2  -2  285.17   33.70
  -6  -2   2  287.77   33.50
   5  -2  -2   70.19    8.90
  -5  -2   2   80.49   15.10
   5  -2  -2   72.09   10.80
  -5  -2   2   60.89   11.50
   5  -2  -2   59.59   11.30
   5  -2  -2   81.39   12.70
  -5  -2   2   90.39   10.70
   5   2  -2   69.59    9.60
   4  -2  -2   62.49   12.30
   4  -2  -2   91.89   10.10
  -4  -2   2   87.49   11.10
  -4  -2   2   73.89   12.00
  -4  -2   2   75.59   11.50
   4  -2  -2   94.19   13.10
  -4  -2   2   90.29   15.90
   4  -2  -2   87.39   11.50
   4   2  -2   92.09   10.30
  -3  -2   2  168.78   23.20
   3  -2  -2  182.78   20.10
  -3   2   2  160.98   15.60
  -2  -2   2  566.14   55.79
   2  -2  -2  460.75   51.59
  -2   2   2  577.24   48.60
   1  -2  -2  112.19   14.20
  -1  -2   2  110.39   17.70
  -1  -2   2  114.79   14.10
  -1   2   2  111.09   11.10
   0  -2   2  794.22   76.09
   0  -2   2  800.52   78.69
   0  -2  -2  797.82   75.29
   0   2  -2  759.82   73.19
   0   2   2  878.91   73.19
  -1  -2  -2   16.10    4.60
   1  -2   2   15.80    6.90
   1  -2   2   14.20    5.00
   1   2   2   14.40    2.90
  -1   2  -2   11.50    2.30
  -1   2  -2    7.10    2.20
   2  -2   2 1392.16  128.29
   2  -2   2 1370.26  126.79
   2   2   2 1434.26  123.69
  -2   2  -2 1284.77  121.99
   3  -2   2    1.10    4.90
   3  -2   2    6.10    4.40
  -3  -2  -2   -0.60    3.30
  -3  -2  -2    1.30    4.20
   3  -2   2    6.50    3.00
  -3  -2  -2    0.70    2.50
   3  -2   2    9.60    5.10
   3  -2   2    5.60    3.30
   3   2   2    7.80    2.40
   4  -2   2  415.86   45.20
  -4  -2  -2  384.76   41.60
   4  -2   2  423.46   42.00
  -4  -2  -2  470.15   44.20
  -4  -2  -2  406.86   45.70
   4  -2   2  507.45   42.80
  -4  -2  -2  397.36   43.50
   4  -2   2  452.95   45.80
   4  -2   2  437.46   44.10
   4  -2   2  482.25   46.00
   4   2   2  489.45   42.30
  -5  -2  -2 1357.06  122.29
  -5  -2  -2 1163.08  126.09
  -5  -2  -2 1511.85  123.79
   5  -2   2 1266.17  124.49
   5  -2   2 1540.25  123.59
   5  -2   2 1404.56  122.59
   5  -2   2 1337.47  126.49
  -5  -2  -2 1287.77  124.19
   5  -2   2 1170.78  124.89
   5   2   2 1414.06  122.79
   6  -2   2  154.88   15.20
   6  -2   2  141.19   17.50
  -6  -2  -2  102.49   18.20
  -6  -2  -2  117.29   14.70
   6  -2   2  152.48   19.40
   6  -2   2  126.39   15.50
  -6  -2  -2  146.19   16.90
  -6  -2  -2  171.18   16.50
   6   2   2   98.89   19.90
  -6   2  -2   98.99   16.00
   7  -2   2    1.90    4.20
  -7  -2  -2    8.60    4.20
  -7  -2  -2    2.20    3.80
   7  -2   2    1.40    4.10
  -7  -2  -2   11.80    4.50
   7  -2   2    9.20    3.50
   7  -2   2    6.30    3.70
   7  -2   2    5.00    3.60
  -7  -2  -2    4.20    3.20
   7   2   2    5.20    5.60
  -7   2  -2   -2.00    3.20
   8  -2   2   34.60    7.60
   8  -2   2   31.70    7.60
  -8  -2  -2   46.80    8.00
   8  -2   2   35.60    6.90
  -8  -2  -2   26.70    9.70
  -8  -2  -2   33.70    6.80
   8  -2   2   32.20    7.10
  -8  -2  -2   51.89    9.10
   8   2   2   35.10   11.50
  -8   2  -2   37.80    7.80
  -9  -2  -2   25.60    9.00
   9  -2   2   29.10    6.80
   9  -2   2   39.20    8.50
  -9  -2  -2   30.60    7.10
   9  -2   2   28.10   12.10
   9  -2   2   19.60    6.50
  -9  -2  -2   38.30    7.60
   9  -2   2   42.30    7.20
  -9   2  -2   23.80    6.10
   9   2   2   28.00    9.80
  10  -2   2  434.46   36.60
  10  -2   2  363.26   37.30
 -10  -2  -2  334.37   39.20
  10  -2   2  397.16   37.50
 -10  -2  -2  361.86   36.80
 -10   2  -2  336.87   37.10
  10   2   2  359.46   42.60
 -11  -2  -2    5.50    4.60
 -11  -2  -2   14.40    4.50
 -11  -2  -2    9.00    3.70
  11  -2   2   10.40    3.80
  11  -2   2    5.80    4.20
  11  -2   2   14.30    4.60
 -11   2  -2    4.60    3.00
  11   2   2    3.50    5.00
  12  -2   2   53.29   12.20
 -12  -2  -2   34.60    7.50
  12  -2   2   35.90    6.20
  12  -2   2   54.49    7.50
  12  -2   2   23.30    7.00
 -12   2  -2   48.90    7.50
  12   2   2   44.90   11.40
  13  -2   2    2.40    2.30
  13  -2   2    1.60    3.30
 -13  -2  -2    2.30    2.00
 -13  -2  -2    1.20    3.10
  13   2   2    5.40    3.30
 -13   2  -2   -1.10    1.70
 -12  -3   2    3.70    2.10
 -12  -3   2    5.20    3.30
  12  -3  -2    3.30    3.00
  12  -3  -2    2.80    2.00
  12  -3  -2    6.40    2.50
  11  -3  -2   80.29   10.70
 -11  -3   2   96.69   12.20
 -11  -3   2  121.39   12.30
 -11  -3   2  102.39   12.80
  11  -3  -2   89.39   13.60
  11   3  -2   94.69   13.50
 -10  -3   2    8.10    4.30
  10  -3  -2    1.40    2.60
 -10  -3   2    1.20    3.80
  10  -3  -2    2.70    4.90
  10  -3  -2    4.30    3.40
 -10  -3   2    5.00    4.40
  10   3  -2   -7.80    4.60
   9  -3  -2  252.47   29.90
   9  -3  -2  262.37   25.80
   9  -3  -2  239.18   26.40
  -9  -3   2  258.57   28.50
  -9  -3   2  242.88   27.90
   9   3  -2  251.47   29.90
   8  -3  -2  774.22   69.89
   8  -3  -2  779.82   71.59
  -8  -3   2  761.42   72.89
   8  -3  -2  748.43   74.69
  -8  -3   2  691.83   73.29
   6  -3  -2   81.49   16.70
  -6  -3   2  136.99   15.80
   6  -3  -2  107.69   19.50
   6  -3  -2  125.59   13.40
  -6  -3   2   99.49   16.50
  -6  -3   2  108.19   15.80
   6  -3  -2  112.09   15.30
  -5  -3   2  201.88   20.30
   5  -3  -2  138.39   21.60
  -5  -3   2  152.58   20.20
   5  -3  -2  156.48   23.30
   5  -3  -2  164.18   19.60
  -5  -3   2  142.99   20.80
   5  -3  -2  164.08   17.30
  -4  -3   2   50.59    8.90
  -4  -3   2   36.60    7.50
   4  -3  -2   42.10    9.70
  -4  -3   2   38.90    8.70
   4  -3  -2   34.80    8.30
   4  -3  -2   27.90   10.20
  -4  -3   2   53.89   15.50
   4  -3  -2   53.59   12.30
  -4  -3   2   46.10   11.30
   4  -3  -2   51.79    7.40
   3  -3  -2   62.79   14.40
  -3  -3   2   67.09   10.20
  -3  -3   2   52.49   12.30
  -3  -3   2   61.09   10.80
  -3  -3   2   66.79   10.50
   3  -3  -2   57.09    8.20
  -3  -3   2   65.89   24.90
   3  -3  -2   62.99   11.70
   3  -3  -2   67.19   11.00
   3  -3  -2   53.19   12.80
   2  -3  -2 1551.94  155.08
  -2  -3   2 1807.52  154.48
   2  -3  -2 1704.93  154.18
  -2  -3   2 1614.04  156.18
  -2  -3   2 1656.13  154.48
   2  -3  -2 1621.24  156.38
   2  -3  -2 1690.13  152.58
   2  -3  -2 1771.12  158.18
  -2  -3   2 1714.53  153.48
  -2  -3   2 1693.23  161.38
   1  -3  -2  142.79   19.80
  -1  -3   2  164.78   18.30
   1  -3  -2  143.19   20.00
   1  -3  -2  160.38   21.70
  -1  -3   2  154.98   19.30
   1  -3  -2  140.99   16.80
  -1  -3   2  179.58   20.10
  -1  -3   2  162.08   20.60
   1  -3  -2  167.18   18.70
  -1  -3   2  166.48   25.00
  -1  -3   2  169.98   19.20
   0  -3  -2    7.10    4.70
   0  -3  -2   -2.70    7.10
   0  -3  -2    9.30    6.10
   0  -3   2   11.80    5.30
   0  -3  -2    5.00    3.40
   0  -3   2   22.90    6.90
   0  -3  -2   15.50    6.70
   0  -3   2   25.90    6.30
   0  -3  -2   11.60    5.10
   0  -3   2   21.00    6.10
   0  -3   2   10.30    4.40
   1  -3   2    6.00    4.80
  -1  -3  -2    4.50    5.50
  -1  -3  -2   11.10    5.90
   1  -3   2    1.90    6.80
   1  -3   2   15.70    4.80
   1  -3   2   18.20    5.90
  -1  -3  -2   18.40    7.00
   1  -3   2    8.20    5.10
   2  -3   2   32.40    9.00
  -2  -3  -2   37.20   10.10
   2  -3   2   32.10    8.60
   2  -3   2   38.50    7.50
  -2  -3  -2   38.70    8.90
   2  -3   2   39.30    7.60
   2  -3   2   48.00    9.10
   2  -3   2   11.20   11.10
  -2  -3  -2   40.20   11.00
   3  -3   2  112.49   19.20
   3  -3   2  149.49   15.90
   3  -3   2  110.09   17.10
  -3  -3  -2  138.29   17.80
  -3  -3  -2  100.89   17.90
   3  -3   2  115.99   16.80
  -3  -3  -2  145.99   16.90
   3  -3   2  132.29   15.30
   4  -3   2   35.00    9.50
  -4  -3  -2   45.60   12.80
   4  -3   2   45.20    8.40
   4  -3   2   46.80   12.50
   4  -3   2   42.60    9.60
   4  -3   2   69.59    9.50
  -4  -3  -2   59.89    9.70
  -4  -3  -2   42.90   10.00
   5  -3   2    1.70    4.30
  -5  -3  -2    1.00    5.10
   5  -3   2    1.30    4.80
  -5  -3  -2    2.60    4.60
   5  -3   2    1.90    2.60
   5  -3   2    6.90    3.60
  -5  -3  -2    3.80    4.20
  -5  -3  -2   -5.20    2.90
   5  -3   2   -3.60    7.10
  -6  -3  -2   -2.00    3.10
  -6  -3  -2    0.00    5.70
   6  -3   2   -6.00    6.40
   6  -3   2   -3.30    5.80
  -7  -3  -2   15.60    5.20
   7  -3   2   22.50    8.30
   7  -3   2   16.30    4.40
  -7  -3  -2   20.30    6.20
   7  -3   2   20.30    5.40
   7  -3   2   24.10    7.50
  -7  -3  -2   19.90    8.30
  -8  -3  -2   13.20    5.40
  -8  -3  -2   13.80    7.20
   8  -3   2    8.50    4.00
  -8  -3  -2    9.40    4.50
   8  -3   2   12.00    5.60
   8  -3   2   10.10    6.30
  -8  -3  -2    3.00    3.10
   8  -3   2   14.00    4.10
   8   3   2    2.70    9.10
  -9  -3  -2   -2.40    3.20
   9  -3   2    3.20    3.50
   9  -3   2    7.70    3.30
  -9  -3  -2   12.10    4.50
   9  -3   2    0.80    3.30
  -9  -3  -2   -0.30    3.40
   9   3   2    8.40    5.50
  10  -3   2  238.48   23.90
  10  -3   2  209.68   22.80
  10  -3   2  227.58   25.10
 -10  -3  -2  255.57   25.90
 -11  -3  -2    9.00    3.60
  11  -3   2    8.20    3.80
  11  -3   2    7.80    2.50
  11  -3   2   12.70    3.10
 -11  -3  -2   13.40    2.70
   8  -4  -2   19.50    4.90
  -8  -4   2   19.10    3.90
   8  -4  -2   34.10    5.00
   8  -4  -2   10.60    2.80
  -7  -4   2   15.40    4.30
   7  -4  -2   22.50    4.90
  -7  -4   2   16.90    4.80
  -7  -4   2   31.40    5.60
   7  -4  -2   20.50    4.60
   7  -4  -2   18.50    5.40
   6  -4  -2   98.29   14.80
   6  -4  -2  103.09   12.60
  -6  -4   2  136.19   15.80
  -6  -4   2  147.49   14.40
  -6  -4   2  119.79   13.70
   6  -4  -2  120.99   14.10
   5  -4  -2    6.30    4.00
   5  -4  -2   -0.90    3.70
   5  -4  -2   -0.80    2.40
  -5  -4   2    1.70    3.00
  -5  -4   2    7.10    3.70
  -4  -4   2   21.60    5.90
   4  -4  -2   24.10    5.30
  -4  -4   2   17.90    5.00
  -3  -4   2   11.50    5.90
   3  -4  -2   16.20    4.90
   3  -4  -2    8.00    5.40
  -3  -4   2    9.00    4.90
   2  -4  -2   -0.80    2.70
  -2  -4   2   -2.00    3.00
  -2  -4   2   -4.90    2.30
   2  -4  -2    1.20    3.90
  -2  -4   2   -0.60    3.00
  -2  -4   2    1.60    5.30
   2  -4  -2   -1.70    4.10
  -1  -4   2  185.68   19.90
   1  -4  -2  155.68   19.10
   1  -4  -2  156.58   19.70
  -1  -4   2  171.48   18.50
   0  -4   2    5.90    3.00
   0  -4   2    4.10    4.60
   0  -4  -2    0.30    3.20
   0  -4   2    5.60    3.00
   0  -4  -2    4.10    4.00
   0  -4  -2   15.00    5.60
  -1  -4  -2   74.49   11.30
   1  -4   2   76.89    9.90
   1  -4   2   77.99   10.40
  -1  -4  -2   68.59   13.60
  -1  -4  -2   82.39   11.80
  -2  -4  -2   82.09   15.10
   2  -4   2   71.19   12.80
   2  -4   2   94.99   10.80
  -2  -4  -2   87.79   12.10
  -2  -4  -2   87.39   13.50
   3  -4   2   12.60    4.00
  -3  -4  -2   19.50    5.20
  -3  -4  -2   14.10    5.10
   3  -4   2    8.10    3.40
   3  -4   2    4.50    6.40
  -3  -4  -2   13.60    7.20
   4  -4   2    3.40    3.40
  -4  -4  -2    9.20    7.20
   4  -4   2    3.90    3.10
  -4  -4  -2    8.00    5.40
   4  -4   2    8.30    3.00
  -4  -4  -2    6.50    3.90
  -5  -4  -2    9.50    4.00
  -5  -4  -2    3.60    4.30
  -5  -4  -2    5.30    5.10
   5  -4   2    6.20    2.80
   5  -4   2    3.20    3.50
   5  -4   2   -0.40    2.90
   6  -4   2   22.40    5.20
   6  -4   2   24.90    4.50
  -6  -4  -2   15.40    5.10
   6  -4   2   11.10    3.50
  -6  -4  -2   30.70    6.00
   7  -4   2  125.79   13.60
   7  -4   2  123.79   13.10
  -7  -4  -2  121.89   14.70
 -16   0   3    0.70    2.10
 -16   0   3    0.90    1.70
  16   0  -3    1.90    2.50
  16   0  -3   -3.20    3.10
 -15   0   3   92.49   11.30
  15   0  -3   89.79   12.30
  15   0  -3  115.79   13.70
 -15   0   3   86.49   11.80
  14   0  -3   -3.50    4.10
 -14   0   3   -0.70    2.80
  14   0  -3    2.60    3.10
 -14   0   3   -1.00    1.70
  13   0  -3  816.72   77.59
 -13   0   3  875.11   77.39
 -13   0   3  748.53   76.19
 -12   0   3   -1.90    2.80
 -12   0   3   -0.90    2.90
  12   0  -3    0.90    4.10
  12   0  -3   -4.50    4.40
  11   0  -3   15.50    6.50
 -11   0   3   14.50    4.80
  11   0  -3   19.90    8.80
 -11   0   3   14.00    5.00
  11   0  -3    7.90    7.10
  10   0  -3    5.30    4.00
  10   0  -3   -3.10    4.50
  10   0  -3    5.00    4.70
 -10   0   3   -0.70    2.30
 -10   0   3   -1.70    2.80
   9   0  -3  863.21   68.19
   9   0  -3  731.03   73.09
   9   0  -3  703.23   70.09
  -9   0   3  762.02   69.59
  -9   0   3  677.83   69.09
   9   0  -3  665.83   69.59
  -8   0   3    1.40    2.60
   8   0  -3    3.20    5.40
   8   0  -3   -1.20    2.40
   8   0  -3   -0.60    3.10
   8   0  -3    2.30    5.40
   7   0  -3 2732.93  246.08
   6   0  -3    2.70    3.30
  -5   0   3  265.27   25.40
  -4   0   3    6.30    2.70
   3   0  -3    2.60    1.40
  -3   0   3    2.10    2.30
  -2   0   3   -2.20    2.40
   2   0  -3   -0.30    1.30
   0   0   3    1.40    1.30
   0   0  -3   -0.20    1.00
  -1   0  -3 2105.29  197.48
   1   0   3 2326.97  197.48
   2   0   3    0.10    0.90
  -2   0  -3    0.00    0.80
   3   0   3 1238.88  116.09
   3   0   3 1344.67  115.59
   4   0   3    0.20    0.90
   4   0   3    1.00    1.70
   5   0   3  641.24   54.19
   5   0   3  551.64   54.79
   6   0   3    0.40    1.00
   6   0   3   -2.30    2.00
  -7   0  -3  151.78   19.80
  -7   0  -3  209.38   20.80
   7   0   3  215.48   22.50
   7   0   3  178.78   23.80
   8   0   3   -7.60    4.20
  -8   0  -3   -2.30    2.30
   8   0   3   -4.60    1.60
  -8   0  -3    2.70    2.70
   8   0   3   -2.60    3.40
   9   0   3 1694.93  153.98
   9   0   3 1613.54  156.18
 -10   0  -3    1.50    3.30
  10   0   3   -2.30    4.50
 -10   0  -3    6.30    3.60
  10   0   3   -0.60    4.30
 -11   0  -3   82.39   11.90
  11   0   3   76.09   12.90
 -11   0  -3   62.39   10.90
  11   0   3   68.19   15.10
 -12   0  -3   -1.70    2.30
  12   0   3   -2.40    3.30
  12   0   3    5.40    5.90
 -12   0  -3    0.10    2.40
  13   0   3    2.50    4.70
  13   0   3    8.40    4.60
 -13   0  -3    3.70    2.80
 -13   0  -3    5.80    3.20
 -14   0  -3   -0.10    1.80
  14   0   3   -0.60    3.50
  14   0   3   -0.20    2.70
 -14   0  -3   -1.20    1.80
  15  -1  -3    0.30    2.60
  15  -1  -3    0.80    2.10
 -15  -1   3    1.50    2.40
 -15   1   3    3.20    2.20
  15   1  -3    3.30    3.70
  15   1  -3    0.10    3.40
 -14  -1   3   22.90    5.40
  14  -1  -3   19.00    5.30
  14   1  -3   26.80    8.30
 -14   1   3   26.50    5.70
  14   1  -3   13.10    5.70
 -13  -1   3  120.29   15.00
  13  -1  -3  117.09   15.60
  13   1  -3  118.69   16.50
 -13   1   3  111.19   15.30
  13   1  -3  106.89   18.60
 -13   1   3  151.78   16.70
  12  -1  -3   -6.80    7.90
  12  -1  -3   -7.70    7.70
 -12  -1   3    2.10    3.20
  12  -1  -3   -1.10    3.10
 -12  -1   3    0.90    3.30
  12  -1  -3   -2.70    2.80
  12   1  -3   -2.30    5.10
 -12   1   3   -7.10    5.00
 -12   1   3   -3.00    2.20
 -11  -1   3   24.30    6.30
  11  -1  -3   17.70    5.80
  11  -1  -3   17.10    6.90
  11  -1  -3    5.80    6.40
 -11  -1   3   28.50    6.20
 -11  -1   3   20.00    5.90
  11  -1  -3   19.80    6.40
 -11   1   3   10.00    4.60
  11   1  -3   18.10    7.70
  11   1  -3   26.40    7.10
 -11   1   3   21.70    5.80
 -10  -1   3   10.90    4.30
 -10  -1   3    2.40    6.60
  10  -1  -3   11.30    5.10
  10  -1  -3    7.80    4.70
  10  -1  -3    8.90    6.40
  10  -1  -3    2.30    4.40
  10  -1  -3    3.70    4.10
 -10  -1   3   11.80    4.60
  10   1  -3    4.00    5.80
 -10   1   3    5.60    3.50
 -10   1   3   -6.30    5.50
  10   1  -3    4.90    6.10
   9  -1  -3    3.30    3.40
  -9  -1   3   -0.90    2.80
   9  -1  -3   -7.50    5.30
   9  -1  -3    0.20    4.10
  -9  -1   3   -1.50    4.60
  -9  -1   3   -2.90    2.10
  -9  -1   3    5.50    3.90
   9  -1  -3    4.20    3.50
   9  -1  -3   -0.20    3.80
  -9   1   3   -0.20    2.60
   9   1  -3   -1.80    5.50
   9   1  -3   -0.90    3.60
   9   1  -3    0.70    2.60
   8  -1  -3  705.53   74.29
  -8  -1   3  790.02   73.99
   8  -1  -3  920.31   77.69
   8  -1  -3  868.01   73.69
  -8  -1   3  657.93   73.49
   8  -1  -3  768.42   76.39
   8   1  -3  880.11   73.79
  -8   1   3  772.02   74.79
   7  -1  -3  208.78   18.80
  -7  -1   3  165.68   18.70
  -7  -1   3  196.58   22.20
   7  -1  -3  167.78   20.80
   7  -1  -3  145.49   19.10
  -6  -1   3   44.00    9.70
   6  -1  -3   55.39   10.10
   6  -1  -3   33.70    3.80
   5  -1  -3  199.28   21.30
  -5  -1   3  183.18   22.30
   4  -1  -3 1710.53  147.29
   4  -1  -3 1698.43  149.99
  -4  -1   3 1534.55  151.28
  -3  -1   3 1336.97  118.29
   3  -1  -3 1160.78  115.99
   3  -1  -3 1330.27  114.19
   2  -1  -3   75.19    7.10
   2  -1  -3   62.49    8.90
  -2  -1   3   67.49   11.00
  -2   1   3   64.39    6.90
   0  -1   3 2307.87  199.08
   0  -1  -3 1893.21  195.18
   0  -1  -3 2202.68  194.98
   0   1   3 2335.97  194.68
  -1  -1  -3  107.89   10.70
   1  -1   3   96.59   12.20
   1  -1   3  108.09   19.10
  -1  -1  -3  113.39   11.10
   1   1   3  105.29   10.60
  -1   1  -3  112.99   10.50
   2  -1   3  856.21   80.39
   2  -1   3  772.92   78.79
  -2   1  -3  932.31   76.59
   2   1   3  850.41   77.19
   3  -1   3 2313.87  201.78
   3  -1   3 2399.56  200.58
   3   1   3 2221.18  198.28
  -3   1  -3 1954.10  197.28
   4  -1   3   50.89    8.40
   4  -1   3   64.99   10.70
   4   1   3   49.90    6.50
   5  -1   3  329.27   35.20
   5  -1   3  342.07   36.60
   5   1   3  375.16   33.10
   6  -1   3  709.73   63.99
   6  -1   3  717.43   62.39
   6  -1   3  584.44   61.79
   6   1   3  612.44   64.69
  -6   1  -3  616.54   61.89
  -7  -1  -3  135.29   15.50
   7  -1   3  127.59   21.60
   7  -1   3  130.29   15.60
   7  -1   3  147.69   21.50
  -7  -1  -3  137.59   15.60
   7  -1   3  149.39   16.90
   7  -1   3  151.98   14.80
  -7  -1  -3  135.29   15.50
  -7  -1  -3  132.59   15.70
   7  -1   3   98.09   15.30
   7  -1   3  137.49   18.30
   7   1   3  112.99   13.80
   7   1   3  139.49   19.90
  -7   1  -3  106.69   15.20
  -8  -1  -3   38.30    7.30
   8  -1   3   25.70    7.90
   8  -1   3   12.50    6.00
  -8  -1  -3   25.70    6.60
  -8  -1  -3   25.90    6.40
   8  -1   3   20.90    8.90
   8  -1   3   21.70    6.70
   8  -1   3   27.00    5.70
  -8  -1  -3   27.90    6.60
   8  -1   3   13.30    5.80
   8   1   3   18.80    7.60
  -8   1  -3   15.20    4.90
   8   1   3   18.50    7.80
   9  -1   3 1282.47  110.69
   9  -1   3 1207.88  106.59
  -9  -1  -3 1024.20  108.39
   9  -1   3 1072.49  107.79
  -9   1  -3 1080.29  106.59
   9   1   3 1084.59  108.39
  -9   1  -3 1379.26  115.19
  10  -1   3   -3.60    2.70
  10  -1   3   -3.60    5.60
 -10  -1  -3    3.40    4.30
 -10  -1  -3    4.90    3.60
 -10  -1  -3    2.20    3.70
  10  -1   3    3.40    4.30
  10  -1   3    1.40    4.50
 -10   1  -3    3.90    4.40
  10   1   3    6.90    6.80
 -10   1  -3    6.10    4.40
  10   1   3   -0.30    5.10
 -11  -1  -3  165.88   20.00
 -11  -1  -3  175.38   20.60
  11  -1   3  199.38   22.10
 -11   1  -3  186.18   20.80
 -11   1  -3  172.08   20.90
  11   1   3  164.68   22.40
  11   1   3  185.38   25.90
  12  -1   3  119.89   15.70
 -12  -1  -3  146.59   15.50
  12   1   3  112.79   19.10
 -12   1  -3  115.09   14.60
  12   1   3   99.59   16.00
 -12   1  -3   91.69   15.40
 -13  -1  -3   24.70    6.30
  13  -1   3   20.80    5.90
 -13   1  -3   19.50    5.10
 -13   1  -3   13.20    4.80
  13   1   3   22.50    5.70
  13   1   3   18.70    7.10
 -14  -1  -3   15.00    3.30
  14  -1   3    9.50    3.00
  14   1   3   31.20    7.10
  14   1   3   17.30    6.20
 -14   1  -3    9.80    3.00
  14  -2  -3   20.00    5.70
 -14  -2   3   17.70    3.50
 -14  -2   3    8.90    3.50
 -14   2   3   23.30    4.30
  14   2  -3   16.70    5.70
  13  -2  -3   21.20    7.10
 -13  -2   3   32.50    7.30
  13  -2  -3   24.90    5.20
 -13  -2   3   46.30    8.60
  13   2  -3   22.60   11.70
 -13   2   3   23.70    5.60
  12  -2  -3    1.10    2.80
  12  -2  -3    1.10    4.70
 -12  -2   3   -0.30    2.40
  12  -2  -3   -0.10    2.90
 -12  -2   3   -2.80    4.00
 -12  -2   3   -2.40    2.50
 -12   2   3    1.60    2.60
  12   2  -3    3.20    5.00
  11  -2  -3    5.40    5.40
  11  -2  -3    4.60    3.20
 -11  -2   3   11.60    4.70
 -11  -2   3    7.20    3.40
  11  -2  -3    9.20    4.10
 -11  -2   3    8.80    5.00
  11  -2  -3    4.60    3.80
  11   2  -3    4.70    5.70
 -11   2   3    6.40    3.50
  10  -2  -3  389.06   45.00
  10  -2  -3  450.65   40.40
 -10  -2   3  431.96   39.60
  10  -2  -3  390.76   43.40
  10  -2  -3  384.16   39.10
 -10  -2   3  423.56   41.70
  10  -2  -3  382.76   39.40
  10   2  -3  328.87   43.60
 -10   2   3  399.26   40.80
  -9  -2   3 1584.44  161.48
   9  -2  -3 1963.30  160.38
   9  -2  -3 1685.13  165.08
   9  -2  -3 1634.84  158.78
  -9  -2   3 1786.62  159.28
   9  -2  -3 1652.33  159.58
   9  -2  -3 1665.63  163.38
  -9   2   3 1873.21  161.18
   9   2  -3 1970.00  166.28
   8  -2  -3  119.29   15.10
   8  -2  -3  105.39   17.90
   8  -2  -3  118.49   14.80
   8  -2  -3  126.49   18.10
  -8  -2   3  105.69   16.60
   8  -2  -3  135.69   14.30
  -8  -2   3  140.89   14.50
  -8   2   3  105.49   15.70
   7  -2  -3   15.40    5.40
   7  -2  -3   21.50    4.90
  -7  -2   3   19.70   11.10
  -7  -2   3   23.40    5.10
   7  -2  -3   29.40    5.90
  -7  -2   3   33.60    6.90
   7  -2  -3   32.10   10.00
  -7  -2   3   17.30    6.50
   7  -2  -3   25.40    8.40
  -7   2   3   11.80    6.00
   7   2  -3   30.20    9.20
  -6  -2   3    7.00    4.60
   6  -2  -3    5.80    4.00
   6  -2  -3    4.50    4.90
   6  -2  -3    9.40    5.50
  -6  -2   3   12.40    7.30
  -6  -2   3   13.30    4.40
   6  -2  -3   -5.40    4.20
   6  -2  -3    8.90    3.00
  -6  -2   3    7.20    3.00
   6  -2  -3    7.30    3.50
  -5  -2   3   48.90   13.00
   5  -2  -3   43.30    8.20
   5  -2  -3   46.90   11.30
   5  -2  -3   30.80    6.80
  -5  -2   3   52.59    8.20
  -5  -2   3   49.40    9.90
  -5  -2   3   31.70    6.20
   5  -2  -3   33.40    9.40
  -5  -2   3   38.10    9.30
   5  -2  -3   48.10    6.40
  -4  -2   3    5.60    6.40
   4  -2  -3    2.90    2.60
  -4  -2   3    4.80    4.30
  -4  -2   3    3.20    4.00
   4  -2  -3    2.20    3.90
  -4  -2   3   -1.50    2.30
  -3  -2   3 2833.82  283.27
   3  -2  -3 3129.19  282.97
  -3  -2   3 3264.07  288.67
   3  -2  -3 2774.22  284.57
   3  -2  -3 3512.25  285.27
  -3   2   3 3365.46  280.37
   2  -2  -3 5791.22  520.15
  -2  -2   3 5793.22  524.05
  -2   2   3 5831.52  516.65
  -1  -2   3 1697.93  165.28
   1  -2  -3 1831.02  161.58
  -1   2   3 1780.82  158.58
   0  -2   3  527.45   56.89
   0  -2   3  572.04   54.09
   0  -2  -3  557.84   52.99
   0   2   3  557.24   50.79
   1  -2   3   59.29   10.40
  -1  -2  -3   60.09   10.70
  -1  -2  -3   55.49    8.00
   1  -2   3   70.19   14.40
  -1   2  -3   48.20    6.60
   1   2   3   57.89    6.90
   2  -2   3  481.45   46.70
  -2  -2  -3  397.36   47.40
   2  -2   3  470.25   47.40
   2  -2   3  421.66   44.50
   2  -2   3  516.55   49.99
  -2  -2  -3  422.56   45.60
   2  -2   3  518.25   45.30
  -2  -2  -3  410.86   46.10
  -2   2  -3  525.15   42.60
   2   2   3  530.95   44.30
  -3  -2  -3  665.53   62.59
   3  -2   3  644.04   60.19
   3  -2   3  659.93   60.59
  -3  -2  -3  560.34   61.79
   3  -2   3  721.63   65.49
  -3  -2  -3  542.45   63.39
   3  -2   3  651.23   62.49
   3   2   3  713.03   59.99
   4  -2   3   70.79    9.70
   4  -2   3   62.89   11.40
  -4  -2  -3   88.79   11.10
   4  -2   3   74.49   13.80
  -4  -2  -3   61.89   12.70
   4  -2   3   76.49   10.60
  -4  -2  -3   63.69   11.00
   4  -2   3   87.79   10.40
   4  -2   3   75.29   13.30
   4   2   3   74.69    9.90
   5  -2   3  118.39   13.60
  -5  -2  -3   87.29   16.50
   5  -2   3  132.49   14.10
   5  -2   3  134.49   16.40
   5  -2   3  109.49   17.70
  -5  -2  -3  119.19   14.40
  -5  -2  -3  124.49   13.60
   5  -2   3  100.99   13.80
  -5  -2  -3  107.69   14.90
   5  -2   3  124.59   17.90
  -6  -2  -3  449.26   45.10
   6  -2   3  446.06   44.10
  -6  -2  -3  458.55   49.70
  -6  -2  -3  427.26   43.40
   6  -2   3  411.46   47.20
  -6   2  -3  488.85   45.20
   6   2   3  491.25   50.09
   7  -2   3   81.69   13.80
   7  -2   3   96.99   13.20
   7  -2   3   89.09   12.70
  -7  -2  -3  105.69   13.20
  -7  -2  -3  101.89   13.50
   7  -2   3   91.49   20.20
   7  -2   3  108.79   12.10
  -7  -2  -3   82.39   11.90
  -7   2  -3   84.29   13.20
   7   2   3   93.89   18.30
   8  -2   3  153.88   25.40
   8  -2   3  197.68   23.50
  -8  -2  -3  268.17   24.50
  -8  -2  -3  199.08   22.60
   8  -2   3  235.48   22.40
  -8  -2  -3  178.08   26.20
  -8  -2  -3  212.88   23.20
   8  -2   3  221.78   23.80
   8  -2   3  229.78   24.70
  -8   2  -3  208.08   23.50
  -9  -2  -3  737.23   74.69
   9  -2   3  625.84   72.99
  -9  -2  -3  836.02   75.69
 -10  -2  -3  368.66   41.90
  10  -2   3  363.66   39.20
  10  -2   3  419.56   40.00
 -10  -2  -3  407.16   39.40
  10  -2   3  410.86   38.50
 -10   2  -3  398.06   39.90
  10   2   3  432.66   46.00
  11  -2   3  119.79   20.20
 -11  -2  -3  193.78   18.60
  11  -2   3  189.28   18.50
 -11  -2  -3  154.58   22.90
 -11   2  -3  151.38   18.10
  11   2   3  164.78   23.20
  12  -2   3    3.30    3.90
  12  -2   3    6.00    2.90
 -12  -2  -3    3.30    3.80
 -12  -2  -3    5.50    2.70
  12  -2   3    0.70    1.80
 -12  -2  -3   -2.40    3.00
  12   2   3    3.70    3.80
 -12   2  -3    5.80    3.10
  13  -2   3   10.20    4.70
 -13  -2  -3   11.70    2.70
 -13   2  -3   13.20    3.90
  13   2   3   10.00    4.00
  12  -3  -3    6.50    3.30
 -12  -3   3    5.30    2.90
 -12  -3   3    2.70    2.10
  12  -3  -3    2.20    2.10
 -11  -3   3   18.40    4.80
 -11  -3   3   27.90    5.50
  11  -3  -3   24.40    6.30
  11  -3  -3   14.60    4.10
  11  -3  -3   26.50    4.60
 -11  -3   3   22.30    5.30
  11   3  -3   25.00    6.00
  10  -3  -3   76.99   13.00
  10  -3  -3   93.29   11.00
 -10  -3   3   92.09   12.20
 -10  -3   3   80.39   12.40
  10  -3  -3   65.29    9.90
  10   3  -3   89.19   13.40
   9  -3  -3   23.00    5.40
  -9  -3   3   27.90    8.40
  -9  -3   3   31.80    7.80
   9  -3  -3   24.00    6.10
  -9  -3   3   41.40    8.00
   9  -3  -3   28.80    9.10
   9   3  -3   31.80    8.60
  -8  -3   3  306.07   35.40
   8  -3  -3  323.07   32.50
  -8  -3   3  325.67   35.60
   8  -3  -3  362.86   34.30
   8  -3  -3  337.57   37.30
   7  -3  -3  159.98   17.60
   7  -3  -3  137.39   23.60
  -7  -3   3  154.08   27.30
   7  -3  -3  176.78   25.70
   7  -3  -3  154.78   25.70
  -7  -3   3  139.79   24.30
   6  -3  -3    3.70    3.40
  -6  -3   3    1.80    4.50
   6  -3  -3   -0.40    5.30
  -6  -3   3   -2.40    3.80
   6  -3  -3    6.90    4.50
   6  -3  -3    7.70    7.30
  -6  -3   3    8.60    5.10
   6  -3  -3    3.40    5.90
  -6  -3   3    5.30    3.70
   5  -3  -3    3.40    6.10
   5  -3  -3    5.10    2.90
  -5  -3   3    7.60    4.60
   5  -3  -3    1.70    6.50
   5  -3  -3    2.20    3.50
  -5  -3   3    5.20    3.90
  -5  -3   3   -2.30    4.40
   5  -3  -3   13.00    6.30
  -5  -3   3   -6.30    8.60
  -5  -3   3    1.80    4.20
  -4  -3   3   -1.70    8.10
   4  -3  -3   -0.60    2.60
   4  -3  -3    1.20    6.10
  -4  -3   3    2.90    4.90
   4  -3  -3    1.00    3.60
  -4  -3   3   -1.50    3.30
  -4  -3   3   -4.80    2.50
   4  -3  -3    0.30    7.10
  -4  -3   3    2.50    3.60
   4  -3  -3    0.50    4.40
   3  -3  -3    3.70    5.00
  -3  -3   3   -1.40    5.30
   3  -3  -3   -0.30    2.40
   3  -3  -3    0.70    3.60
  -3  -3   3   -0.10    3.70
  -3  -3   3    4.40    4.20
   3  -3  -3    0.60    4.30
  -3  -3   3   -3.50    3.50
  -3  -3   3    2.00    3.10
  -2  -3   3   26.20    6.30
  -2  -3   3    8.40   11.60
   2  -3  -3   24.00    7.30
   2  -3  -3   23.40    8.40
   2  -3  -3   31.60    7.80
  -2  -3   3   28.40    6.80
  -2  -3   3   26.40    7.30
  -2  -3   3   25.90    8.50
   2  -3  -3   18.30    7.60
  -1  -3   3  362.26   41.20
  -1  -3   3  411.76   42.20
  -1  -3   3  422.66   41.20
   1  -3  -3  366.36   42.10
   1  -3  -3  361.56   42.10
  -1  -3   3  465.75   40.70
   1  -3  -3  459.05   44.30
  -1  -3   3  415.36   48.30
   1  -3  -3  408.16   40.30
  -1  -3   3  372.16   40.00
   0  -3  -3    0.10    3.90
   0  -3  -3   -0.80    3.20
   0  -3  -3   -2.50    4.40
   0  -3   3   -2.80    3.10
   0  -3   3   -0.80    3.60
   0  -3   3    0.40    7.10
   0  -3  -3    0.10    4.40
   0  -3  -3   -7.80    6.20
   0  -3   3   -1.20    4.50
   0  -3   3   -2.10    3.10
   0  -3   3   -6.30    3.60
  -1  -3  -3  183.28   25.00
   1  -3   3  208.48   22.80
   1  -3   3  189.38   29.70
  -1  -3  -3  194.68   21.80
  -1  -3  -3  199.88   24.10
   1  -3   3  189.58   23.70
   1  -3   3  226.28   22.70
   1  -3   3  248.28   24.40
  -1  -3  -3  187.48   24.30
   2  -3   3   -5.00    4.40
  -2  -3  -3    5.20    4.40
   2  -3   3    1.10    3.50
  -2  -3  -3    2.00    5.30
   2  -3   3   -0.90    3.60
   2  -3   3    2.00    4.40
  -2  -3  -3    7.00    4.70
   2  -3   3    6.10    3.40
  -2  -3  -3   -3.60    3.10
   3  -3   3   76.49   10.60
   3  -3   3   45.50   12.20
  -3  -3  -3   73.79   11.20
  -3  -3  -3   76.19   12.90
   3  -3   3   35.70   15.50
   3  -3   3   73.69   13.60
  -3  -3  -3   63.19   15.20
   3  -3   3   70.69   10.00
  -4  -3  -3  896.31   77.59
   4  -3   3  874.71   76.39
   4  -3   3  667.03   80.09
   4  -3   3  829.82   75.89
  -4  -3  -3  732.43   80.49
   4  -3   3  862.71   78.89
  -4  -3  -3  788.82   78.39
   5  -3   3   43.50   13.20
   5  -3   3   22.60    7.60
  -5  -3  -3   36.10   11.50
  -5  -3  -3   31.90    7.60
   5  -3   3   57.09    8.60
  -5  -3  -3   39.90    9.70
   5  -3   3   36.70    7.20
   6  -3   3   -9.80    6.60
   6  -3   3    4.10    4.90
   6  -3   3   -2.70    4.10
   6  -3   3    2.50    3.20
  -6  -3  -3   -0.40    3.50
  -6  -3  -3   -6.60    3.90
  -6  -3  -3    0.10    4.90
   6  -3   3   -0.30    2.20
  -6  -3  -3    1.30    3.40
   7  -3   3   44.70    9.80
  -7  -3  -3   60.09    9.20
  -7  -3  -3   45.10   11.60
   7  -3   3   36.70    8.70
   7  -3   3   39.70    8.00
   8  -3   3   15.90    5.80
  -8  -3  -3   15.70    4.90
  -8  -3  -3   18.90    7.00
   8  -3   3   11.50    3.60
  -8  -3  -3   19.00    5.80
   8  -3   3   14.00    6.10
   8  -3   3   12.20    4.60
   8   3   3   18.10    8.50
   9  -3   3   53.19   10.40
   9  -3   3   24.90    5.10
   9  -3   3   28.00    7.20
  -9  -3  -3   45.00   11.50
   9   3   3   20.20    7.30
 -10  -3  -3    5.50    3.70
  10  -3   3    5.90    3.00
  10  -3   3    3.80    2.40
  10  -3   3   -3.20    4.20
 -10  -3  -3    6.70    2.90
  10   3   3    7.90    4.90
 -11  -3  -3   15.00    3.80
  11  -3   3   12.20    2.60
  11  -3   3   12.20    2.80
  -8  -4   3   92.99   10.80
   8  -4  -3  102.89   10.50
   8  -4  -3   76.29   11.10
  -8  -4   3   84.59    9.80
  -7  -4   3   13.00    4.20
  -7  -4   3    7.60    3.30
   7  -4  -3   12.20    4.50
   7  -4  -3    5.40    2.50
  -7  -4   3   11.00    3.30
   7  -4  -3    9.70    3.30
   6  -4  -3   28.80    5.90
  -6  -4   3   37.10    7.50
   6  -4  -3   18.50    5.90
  -6  -4   3   32.50    6.40
  -6  -4   3   37.60    6.50
  -5  -4   3   21.60    7.00
  -5  -4   3   20.60    5.10
   5  -4  -3   10.70    5.20
   5  -4  -3   19.10    5.10
  -5  -4   3   16.80    5.00
  -4  -4   3   31.60    6.00
   4  -4  -3   36.00    9.60
  -4  -4   3   18.50    5.70
  -4  -4   3   19.80    5.70
   4  -4  -3   29.30    9.80
   3  -4  -3   24.70    5.70
  -3  -4   3   26.50    6.30
   3  -4  -3   23.60    7.00
  -3  -4   3   23.20    6.20
  -3  -4   3   35.80    6.60
   3  -4  -3   27.10    6.60
   2  -4  -3   18.50    6.30
  -2  -4   3   14.20    4.20
  -2  -4   3   11.10    4.00
   2  -4  -3   11.60    4.90
   2  -4  -3   17.60    8.50
  -2  -4   3   19.50    5.70
  -1  -4   3    6.00    3.50
  -1  -4   3   10.60    4.70
  -1  -4   3    1.30    2.80
   1  -4  -3    4.00    4.30
   1  -4  -3   -1.50    3.10
   1  -4  -3    4.20    4.20
   0  -4   3   38.70    7.40
   0  -4   3   48.90   11.00
   0  -4  -3   28.20    6.70
   0  -4  -3   27.20    7.30
   0  -4   3   44.20    7.20
   1  -4   3   26.30    5.90
  -1  -4  -3   20.80    6.40
  -1  -4  -3   45.50    8.20
   1  -4   3   22.40    4.70
  -1  -4  -3   26.00    6.50
  -2  -4  -3   12.90    5.90
  -2  -4  -3   10.00    5.90
   2  -4   3   13.70    3.80
   2  -4   3   10.90    4.40
   2  -4   3    5.00    4.00
  -2  -4  -3   10.60    4.60
   3  -4   3   59.29    8.50
  -3  -4  -3   49.50    9.60
  -3  -4  -3   51.49   11.20
   3  -4   3   44.30    8.90
  -3  -4  -3   62.79    9.20
  -4  -4  -3    3.20    3.60
   4  -4   3    1.50    2.70
   4  -4   3    2.30    3.10
   4  -4   3    2.70    2.40
  -4  -4  -3    1.20    3.20
  -4  -4  -3    3.30    4.30
  -5  -4  -3    8.30    3.50
  -5  -4  -3    5.00    3.90
   5  -4   3    4.10    2.90
   5  -4   3    6.00    2.50
   5  -4   3    3.80    3.00
  -5  -4  -3    8.40    4.00
  -6  -4  -3   32.50    7.80
   6  -4   3   32.20    6.10
   6  -4   3   41.40    5.80
  -6  -4  -3   54.49    7.80
  -7  -4  -3   15.20    3.90
   7  -4   3    8.50    2.80
   7  -4   3   11.80    3.30
  -7  -4  -3   11.80    3.90
 -16   0   4    3.60    2.00
 -16   0   4   -0.90    2.20
  16   0  -4    0.80    1.90
  15   0  -4    1.00    3.30
  15   0  -4    0.00    2.30
 -15   0   4    0.30    1.50
 -15   0   4   -2.90    2.20
 -14   0   4   64.39    9.90
  14   0  -4   60.29    9.80
  14   0  -4   61.49   11.50
 -14   0   4   51.29    8.70
 -13   0   4    0.30    3.10
 -13   0   4    0.00    2.80
  13   0  -4    4.80    5.30
  13   0  -4    1.10    3.40
 -12   0   4  288.77   32.10
  12   0  -4  300.17   35.60
 -12   0   4  338.47   33.30
  12   0  -4  319.17   33.70
  11   0  -4   -2.60    5.10
 -11   0   4   -6.10    2.70
  11   0  -4   -4.50    3.10
  11   0  -4   -3.40    4.70
 -11   0   4    0.30    3.00
  10   0  -4 2168.78  188.08
  10   0  -4 2228.08  191.58
  10   0  -4 2067.09  186.38
 -10   0   4 2078.19  187.68
  10   0  -4 1849.31  187.58
 -10   0   4 1951.20  186.68
   9   0  -4   -3.40    3.00
   9   0  -4    0.40    4.40
   9   0  -4   -4.20    2.80
  -9   0   4   -3.10    1.80
  -9   0   4   -4.80    2.40
  -8   0   4  271.97   26.10
   8   0  -4  226.98   26.20
  -8   0   4  236.08   26.20
   7   0  -4    2.90    3.50
  -6   0   4  685.83   66.69
   6   0  -4  779.22   68.19
   5   0  -4   -2.20    1.10
  -5   0   4    0.30    2.20
  -3   0   4   -1.10    2.30
   3   0  -4    0.80    1.30
  -1   0   4    0.10    1.40
   1   0  -4    0.10    1.10
   0   0   4   15.80    2.70
   0   0  -4   16.00    2.60
  -1   0  -4    0.40    0.90
  -3   0  -4    0.40    1.20
   3   0   4   -0.50    1.00
   5   0   4    0.60    1.10
   6   0   4   18.60    6.40
   6   0   4   16.30    3.20
  -6   0  -4    6.70    3.50
   6   0   4   12.00    5.50
   7   0   4   -4.70    3.10
   7   0   4   -1.00    4.60
  -7   0  -4   -1.10    2.80
   7   0   4   -0.30    1.50
   8   0   4 3843.12  322.07
  -8   0  -4 3510.05  317.07
   8   0   4 3298.07  314.47
  -8   0  -4 3193.68  316.17
   8   0   4 3779.82  318.97
   9   0   4   -0.60    4.40
  -9   0  -4   -3.10    2.60
  -9   0  -4    2.20    3.00
 -10   0  -4    5.70    3.80
  10   0   4    4.90    6.50
  10   0   4    5.00    4.90
 -10   0  -4    8.60    4.30
 -11   0  -4    0.70    3.40
  11   0   4    2.40    6.20
  11   0   4    4.80    5.10
 -11   0  -4    0.00    3.40
 -12   0  -4    8.10    3.60
  12   0   4    6.40    3.80
 -12   0  -4    7.90    3.80
  12   0   4    6.90    6.10
 -13   0  -4   -0.60    2.00
 -13   0  -4    1.60    2.50
  13   0   4    1.00    3.10
  13   0   4   -1.70    4.10
 -14   0  -4   72.09    9.20
  14   0   4   72.19    9.30
 -16  -1   4    7.40    2.20
  16  -1  -4   10.40    2.80
 -16  -1   4   12.50    3.10
 -16   1   4    5.40    2.20
  16   1  -4   10.30    3.00
 -15  -1   4    1.30    1.70
  15  -1  -4    1.80    2.50
  15  -1  -4    2.30    2.70
  15   1  -4   -5.00    3.00
 -15   1   4    4.40    2.90
  15   1  -4    3.60    3.10
  14  -1  -4   34.80    7.50
 -14  -1   4   50.19    7.60
 -14   1   4   32.70    6.70
 -14   1   4   39.70    7.00
  14   1  -4   28.50    6.80
  14   1  -4   43.50    9.80
 -13  -1   4    0.10    2.60
  13  -1  -4    2.90    3.90
 -13   1   4   -6.90    3.50
  13   1  -4   -2.40    4.50
 -13   1   4   -0.20    3.00
  12  -1  -4    0.50    8.70
  12  -1  -4   41.70    8.20
 -12  -1   4   22.60    6.30
  12  -1  -4   16.60    8.40
  12   1  -4   35.10   11.70
  12   1  -4   27.90    9.60
 -12   1   4   27.30    7.40
 -12   1   4   11.00    7.10
  11  -1  -4   85.99   15.00
 -11  -1   4   81.59   11.90
 -11  -1   4   80.39   12.60
  11  -1  -4   93.99   15.10
 -11  -1   4   87.79   11.50
  11  -1  -4   75.79   12.80
  11   1  -4   67.79   14.40
 -11   1   4   86.19   12.70
 -11   1   4   81.19   12.90
  11   1  -4   62.49   12.60
  10  -1  -4  799.72   74.29
 -10  -1   4  890.01   74.19
  10  -1  -4  883.51   72.69
  10  -1  -4  765.52   76.89
 -10  -1   4  866.71   73.89
 -10   1   4  723.23   73.79
  10   1  -4  628.44   76.69
  10   1  -4  677.43   73.09
 -10   1   4  738.63   73.99
   9  -1  -4 2429.76  206.68
   9  -1  -4 2382.56  203.38
  -9  -1   4 1949.10  203.38
   9  -1  -4 2412.96  207.78
   9  -1  -4 2485.25  205.08
   9  -1  -4 2207.38  203.28
   9   1  -4 2267.77  205.68
   9   1  -4 2123.59  203.68
  -9   1   4 2037.10  204.18
   8  -1  -4  169.88   16.60
  -8  -1   4  122.59   14.80
   8  -1  -4  110.09   14.80
   8  -1  -4  127.79   18.50
   8  -1  -4  136.69   14.80
   8   1  -4  142.89   20.30
  -8   1   4  137.09   15.80
   8   1  -4  102.99   14.40
  -7  -1   4   36.10    9.90
   7  -1  -4   43.20    8.20
  -7  -1   4   34.40    6.90
   7  -1  -4   47.70   10.10
   7  -1  -4   47.30    6.90
   6  -1  -4   58.89   11.10
  -6  -1   4   33.70    9.20
  -5  -1   4  262.87   28.40
   5  -1  -4  236.78   26.40
   4  -1  -4    7.40    1.60
  -4  -1   4    2.70    4.40
   4  -1  -4   10.60    4.60
  -3  -1   4 4862.21  414.76
   3  -1  -4 4357.16  412.06
  -2  -1   4 2545.25  247.48
   2  -1  -4 2903.31  243.78
   2  -1  -4 2675.03  244.98
  -2   1   4 2789.72  243.48
   1  -1  -4   73.79    8.20
   1  -1  -4   80.89    9.40
  -1  -1   4   89.69   12.90
  -1   1   4   76.29    7.80
   1   1  -4   65.09    8.20
   0  -1   4 1557.34  138.59
   0  -1  -4 1501.35  134.99
   0  -1  -4 1373.36  134.59
   0   1  -4 1471.25  134.49
   0   1   4 1597.74  134.29
  -1  -1  -4    7.70    2.10
   1  -1   4    5.30    5.30
   1  -1   4    2.30    2.70
  -1  -1  -4    4.20    1.80
   1   1   4    2.80    1.50
  -1   1  -4    5.10    1.50
   2  -1   4  191.98   22.10
   2  -1   4  183.28   19.70
   2   1   4  170.88   17.50
   3  -1   4  714.13   69.59
   3  -1   4  653.03   67.29
   3   1   4  708.83   65.29
  -3   1  -4  779.52   64.59
   4  -1   4   91.69   14.80
  -4   1  -4  106.89   10.10
   4   1   4   81.59   10.50
   5  -1   4 1286.77  113.49
   5  -1   4 1144.99  110.29
  -5  -1  -4 1391.36  109.99
  -5  -1  -4 1151.38  109.49
   5   1   4 1001.70  107.79
   6  -1   4  197.98   25.60
   6  -1   4  268.37   25.60
  -6  -1  -4  279.57   25.60
  -6  -1  -4  291.17   26.80
  -6  -1  -4  214.78   25.00
   6  -1   4  217.28   26.10
   6  -1   4  245.98   28.90
   6  -1   4  244.38   24.10
   6   1   4  228.18   23.80
  -6   1  -4  230.48   25.50
   6   1   4  230.18   28.70
  -7  -1  -4   63.29   11.10
  -7  -1  -4   59.29    8.80
   7  -1   4   41.90    9.60
  -7  -1  -4   57.29    8.80
   7  -1   4   44.10    8.90
   7  -1   4   49.40    7.30
   7  -1   4   35.80    9.80
   7  -1   4   41.50    8.70
   7  -1   4   41.90    9.20
  -7  -1  -4   48.30    8.50
  -7   1  -4   50.79    9.20
   7   1   4   52.29    7.10
   7   1   4   31.10    9.70
   7   1   4   42.50   11.50
  -8  -1  -4  441.36   45.20
   8  -1   4  371.96   42.50
   8  -1   4  418.56   43.60
   8  -1   4  370.76   43.20
  -8  -1  -4  447.56   42.50
   8  -1   4  466.45   46.90
  -8  -1  -4  420.36   42.50
  -8   1  -4  401.56   43.00
   8   1   4  537.15   46.70
   8   1   4  377.06   46.60
  -8   1  -4  477.15   43.50
   9  -1   4 1088.69  118.19
  -9  -1  -4 1282.17  121.29
   9  -1   4 1471.75  116.99
   9  -1   4 1197.08  119.39
   9  -1   4 1317.77  121.49
   9  -1   4 1221.38  117.99
  -9  -1  -4 1277.27  118.49
  -9  -1  -4 1308.97  118.09
   9   1   4 1292.07  120.69
  -9   1  -4 1292.97  118.69
  -9   1  -4 1317.67  118.89
   9   1   4 1275.27  124.19
  10  -1   4  439.16   48.80
 -10  -1  -4  521.85   48.60
 -10  -1  -4  399.26   53.19
  10   1   4  530.15   54.49
 -10   1  -4  554.84   49.00
  11  -1   4    0.70    3.30
  11  -1   4   -0.60    3.60
 -11  -1  -4    2.70    3.60
 -11  -1  -4    2.20    3.20
 -11   1  -4    0.10    2.60
 -11   1  -4   -4.20    4.20
  11   1   4   -3.00    4.70
  11   1   4    5.90    5.10
 -12  -1  -4   17.30    4.70
  12  -1   4   25.50    6.60
 -12  -1  -4   -1.50    5.60
 -12   1  -4   14.30    4.00
 -12   1  -4   12.60    4.40
  12   1   4    7.60    5.70
  12   1   4   10.90    6.00
  13  -1   4    4.20    3.30
 -13  -1  -4    1.50    2.60
  13   1   4    0.10    3.90
  13   1   4   -5.80    3.40
 -13   1  -4    1.10    2.10
 -14  -1  -4    2.90    2.30
  14  -1   4    3.70    3.00
  14   1   4    7.30    2.80
 -14  -2   4  152.78   14.80
  14  -2  -4  135.19   16.30
 -14  -2   4  142.09   16.20
  14   2  -4  141.29   17.30
 -14   2   4  143.19   15.80
  13  -2  -4   38.60    6.40
 -13  -2   4   43.50    8.80
  13  -2  -4   23.80    7.50
  13   2  -4   37.10   15.10
 -13   2   4   48.80    8.10
  12  -2  -4   33.60    9.40
  12  -2  -4   19.10    5.40
 -12  -2   4   21.80    6.60
  12  -2  -4   43.90    7.30
 -12   2   4   29.90    6.80
  12   2  -4   19.90    7.60
 -11  -2   4    5.20    3.00
 -11  -2   4    2.40    4.20
  11  -2  -4    3.40    3.10
 -11  -2   4   11.40    4.80
  11  -2  -4   10.90    4.70
  11  -2  -4    7.30    5.90
  11  -2  -4    9.40    4.00
 -11   2   4    4.80    3.90
  11   2  -4   -2.50    4.40
  10  -2  -4   15.30    7.10
  10  -2  -4   -0.80    6.50
 -10  -2   4   10.40    3.90
 -10  -2   4    4.60    4.60
 -10  -2   4   16.00    5.60
  10  -2  -4   10.90    4.00
  10  -2  -4    5.00    3.80
  10  -2  -4   14.00    4.90
  10  -2  -4   33.40   10.90
 -10   2   4    8.20    4.30
  10   2  -4   10.00    6.20
   9  -2  -4 1268.17  130.99
   9  -2  -4 1404.76  127.99
  -9  -2   4 1373.16  129.79
   9  -2  -4 1390.96  133.79
   9  -2  -4 1308.37  127.69
  -9  -2   4 1526.15  127.79
   9  -2  -4 1372.46  127.29
  -9   2   4 1484.55  129.59
   9   2  -4 1423.16  133.49
   8  -2  -4  855.01   80.79
   8  -2  -4  798.32   85.19
   8  -2  -4  851.71   84.09
  -8  -2   4  793.52   82.49
   8  -2  -4  865.01   79.79
  -8  -2   4  979.40   80.39
   8   2  -4  885.71   87.09
   7  -2  -4   12.30    6.50
   7  -2  -4   11.70    4.80
  -7  -2   4   26.70   11.50
  -7  -2   4   12.90    4.10
   7  -2  -4    9.70    4.20
   7  -2  -4   16.00    8.20
   7  -2  -4   15.90    4.20
  -7  -2   4   14.40    6.30
   7   2  -4   21.10    9.30
  -7   2   4    7.40    4.50
   6  -2  -4   23.30    6.10
  -6  -2   4   23.80    9.20
   6  -2  -4   37.10   10.50
  -6  -2   4   23.70    6.80
   6  -2  -4   29.80    6.10
   6  -2  -4   25.30    8.00
  -6  -2   4   15.20    4.50
   6  -2  -4   35.50    6.00
  -6  -2   4   16.20    6.30
   5  -2  -4   40.60   10.20
   5  -2  -4   47.20    7.50
  -5  -2   4   57.09   11.00
   5  -2  -4   58.69    7.20
  -5  -2   4   44.00   13.20
   5  -2  -4   46.20   10.50
   5  -2  -4   50.69    8.50
  -5  -2   4   36.00    9.20
   4  -2  -4   10.20    5.40
   4  -2  -4   16.20    6.60
  -4  -2   4   16.40    4.90
   4  -2  -4   21.70    4.60
  -4  -2   4   25.10    9.60
   4  -2  -4   13.80    4.40
  -4  -2   4   16.70    6.20
  -4  -2   4   23.50    5.50
   3  -2  -4   26.50    8.20
   3  -2  -4   27.30    8.40
  -3  -2   4   40.60   15.60
  -3  -2   4   27.20    7.30
  -3  -2   4   30.30    6.90
   3  -2  -4   30.70    6.30
  -3  -2   4   37.90    7.70
   3  -2  -4   41.80    9.40
  -3   2   4   29.10    4.30
   2  -2  -4 4783.32  399.16
  -2  -2   4 4231.28  397.76
   2  -2  -4 4210.08  399.16
  -2  -2   4 4479.25  397.46
  -2  -2   4 4046.20  398.16
   2  -2  -4 4271.97  396.96
  -2  -2   4 4966.10  404.46
   2  -2  -4 4526.85  399.66
  -1  -2   4  790.72   77.69
  -1  -2   4  832.12   77.49
  -1  -2   4  799.42   82.69
   1  -2  -4  766.22   79.09
  -1  -2   4  869.11   78.79
   1  -2  -4  796.72   79.09
   1  -2  -4  831.42   78.29
  -1   2   4  960.00   75.79
   0  -2  -4  167.28   20.40
   0  -2   4  173.68   19.20
   0  -2   4  165.78   20.70
   0  -2   4  204.28   25.20
   0  -2   4  176.78   19.50
   0  -2  -4  172.58   20.80
   0  -2  -4  200.88   19.90
   0   2   4  176.18   17.60
  -1  -2  -4   38.30    6.40
   1  -2   4   24.90    5.90
   1  -2   4   31.00    9.80
  -1  -2  -4   17.50    6.10
   1  -2   4   28.30    6.20
   1  -2   4   34.70    7.90
   1  -2   4   23.80    6.10
  -1  -2  -4   28.00    7.30
  -1   2  -4   24.60    4.30
   1   2   4   21.00    4.10
   2  -2   4   85.19   12.60
   2  -2   4   75.79   12.00
   2  -2   4   85.79   15.70
   2  -2   4   60.09    9.40
  -2  -2  -4   54.49   11.00
   2  -2   4   98.99   11.70
  -2  -2  -4   72.09   10.70
   2  -2   4   71.49   10.10
   2   2   4   73.69    9.00
  -3  -2  -4 1501.35  129.29
   3  -2   4 1391.06  127.89
   3  -2   4 1404.36  130.09
   3  -2   4 1237.08  127.69
   3  -2   4 1401.76  131.29
  -3  -2  -4 1294.97  129.69
   3  -2   4 1424.56  127.89
   3   2   4 1574.94  127.79
   4  -2   4  129.19   16.90
   4  -2   4  153.98   18.60
   4  -2   4  164.88   18.20
  -4  -2  -4  151.68   17.40
   4  -2   4  150.18   22.00
   4  -2   4  167.58   16.80
   4  -2   4  127.99   16.10
  -4  -2  -4  145.69   16.20
   4  -2   4  143.59   19.70
  -4  -2  -4  135.09   17.90
   4   2   4  151.18   16.30
   4   2   4  133.99   22.00
  -5  -2  -4   69.29    9.40
   5  -2   4   42.20   10.70
   5  -2   4   44.40    7.10
   5  -2   4   36.80    8.20
   5  -2   4   28.00    9.90
  -5  -2  -4   53.29   10.40
   5  -2   4   49.70    8.00
  -5  -2  -4   44.80   12.50
  -5  -2  -4   54.19    8.80
   5  -2   4   59.09   11.80
  -5   2  -4   38.00    7.60
   5   2   4   47.20   12.00
   6  -2   4  378.96   43.90
   6  -2   4  455.35   43.40
   6  -2   4  433.86   47.80
  -6  -2  -4  524.75   45.20
  -6  -2  -4  357.76   47.50
  -6  -2  -4  452.05   45.30
  -6  -2  -4  477.75   44.00
   6  -2   4  444.56   46.20
   6  -2   4  537.95   44.90
  -6   2  -4  437.96   44.70
  -7  -2  -4   44.70    9.10
   7  -2   4   54.89   13.90
  -7  -2  -4   47.60    8.50
  -7  -2  -4   52.29   13.20
   7  -2   4   40.40    8.00
  -7  -2  -4   36.80    7.40
   7  -2   4   45.10    8.80
   7  -2   4   41.70    7.40
   7  -2   4   33.60    8.60
   7   2   4   20.20    9.20
  -7   2  -4   23.50    6.80
   8  -2   4    1.40    2.80
  -8  -2  -4   -0.60    3.20
  -8  -2  -4    1.50    4.60
   8  -2   4    3.40    4.30
   8  -2   4   -0.60    3.40
   8  -2   4    8.90    6.90
  -8  -2  -4    2.30    4.80
  -8  -2  -4    2.60    3.30
   8  -2   4    2.90    4.00
  -8   2  -4    3.30    3.90
   8   2   4   -2.30    6.00
   9  -2   4    3.40    4.10
  -9  -2  -4    6.60    5.60
  -9  -2  -4    7.50    4.00
   9  -2   4    2.70    3.60
   9  -2   4    8.00    4.60
  -9  -2  -4   12.90    5.20
  -9  -2  -4    2.80    3.90
   9  -2   4   11.90    3.70
   9   2   4    9.20    6.80
  -9   2  -4    3.20    3.20
  10  -2   4    1.50    3.30
 -10  -2  -4    3.30    3.30
 -10  -2  -4   -2.70    4.40
  10  -2   4   -1.70    3.00
  10  -2   4   -0.20    3.80
 -10  -2  -4    0.60    3.50
  10  -2   4    2.10    2.90
  10   2   4   -1.10    3.50
 -10   2  -4    2.80    2.80
  11  -2   4   15.60    5.90
  11  -2   4   16.20    4.30
 -11  -2  -4   13.10    4.80
 -11  -2  -4   15.20    3.80
  11  -2   4   12.40    5.40
  11  -2   4   11.10    3.40
 -11   2  -4    5.70    3.20
  11   2   4    8.20    5.70
  12  -2   4    9.00    4.00
 -12  -2  -4    4.10    2.20
  12  -2   4    2.10    2.70
  12   2   4    2.40    3.20
 -12   2  -4    4.90    2.30
 -12  -3   4   14.30    4.20
  12  -3  -4   13.00    4.40
 -12  -3   4    9.60    3.10
  12  -3  -4   19.00    3.40
 -11  -3   4   17.10    4.50
  11  -3  -4   21.50    4.10
 -11  -3   4   20.00    5.60
  11  -3  -4   21.50    6.40
 -11  -3   4   29.10    5.70
  11   3  -4   19.30    5.50
  10  -3  -4  128.09   18.30
 -10  -3   4  146.69   18.20
 -10  -3   4  170.18   16.60
 -10  -3   4  131.79   17.30
  10  -3  -4  133.39   15.60
  10   3  -4  130.79   17.70
  -9  -3   4   87.89   13.20
   9  -3  -4   72.39   13.60
  -9  -3   4   81.39   13.20
  -9  -3   4  103.99   12.50
   9  -3  -4   89.69   11.70
   8  -3  -4  303.37   30.40
   8  -3  -4  270.57   33.10
  -8  -3   4  327.37   32.60
  -8  -3   4  280.57   32.00
   8  -3  -4  283.67   29.10
  -7  -3   4   15.80    5.20
  -7  -3   4   36.90    9.30
   7  -3  -4   20.20    4.90
   7  -3  -4   31.40    9.40
   7  -3  -4   30.40    7.40
   7  -3  -4   11.80    5.70
   7  -3  -4   12.80    9.80
  -7  -3   4   26.60    7.70
   6  -3  -4  -10.20    5.50
  -6  -3   4    3.00    4.30
   6  -3  -4    2.10    3.90
  -6  -3   4    2.20    4.40
  -6  -3   4   -0.50    3.10
  -6  -3   4    3.10    4.20
   6  -3  -4    2.00    2.70
   6  -3  -4    0.70    3.70
   5  -3  -4   11.50    6.90
  -5  -3   4   14.10    5.40
   5  -3  -4   11.90    8.00
  -5  -3   4   38.30    7.90
   5  -3  -4   12.10    4.40
  -5  -3   4   23.20   12.40
  -5  -3   4   18.50    6.50
  -5  -3   4   18.80    7.10
   5  -3  -4   19.00    6.60
   5  -3  -4   19.30    8.00
  -4  -3   4  124.99   24.90
  -4  -3   4  142.99   17.60
   4  -3  -4  124.89   19.00
   4  -3  -4  149.19   15.70
   4  -3  -4  121.79   18.90
   4  -3  -4  158.08   18.00
   4  -3  -4  155.48   22.40
  -4  -3   4  155.18   19.60
  -4  -3   4  133.39   18.50
  -3  -3   4  111.59   16.30
   3  -3  -4  108.89   14.30
  -3  -3   4   89.89   14.90
   3  -3  -4   98.89   16.50
  -3  -3   4  122.29   14.80
   3  -3  -4  106.29   18.00
   3  -3  -4   96.59   16.40
  -3  -3   4  143.89   15.10
   2  -3  -4  631.84   67.89
   2  -3  -4  691.93   69.39
   2  -3  -4  706.83   65.49
  -2  -3   4  674.13   65.69
   2  -3  -4  619.34   67.69
  -2  -3   4  647.94   74.19
  -2  -3   4  768.72   67.09
  -2  -3   4  744.43   67.89
  -1  -3   4  264.67   26.20
  -1  -3   4  236.78   25.20
  -1  -3   4  262.97   27.10
   1  -3  -4  188.68   26.60
  -1  -3   4  210.68   33.00
   1  -3  -4  222.08   27.10
  -1  -3   4  213.38   25.70
   1  -3  -4  243.38   24.90
   1  -3  -4  216.58   27.20
   0  -3  -4    2.30    3.00
   0  -3   4   -0.80    3.20
   0  -3   4   -6.70    3.60
   0  -3  -4   -2.50    2.80
   0  -3   4   -2.00    7.20
   0  -3   4    1.30    3.10
   0  -3  -4   -0.20    4.50
   0  -3  -4   -1.50    4.40
   0  -3   4    0.30    3.80
  -1  -3  -4   17.50    5.60
  -1  -3  -4   25.30    7.50
  -1  -3  -4   20.90    8.30
   1  -3   4   21.70    5.80
   1  -3   4   13.90   10.30
   1  -3   4   18.90    7.50
  -1  -3  -4   27.60    9.90
   1  -3   4   26.40    6.70
   1  -3   4   33.90    8.10
  -2  -3  -4   33.70   11.50
   2  -3   4   28.80    6.90
   2  -3   4   26.10   12.40
  -2  -3  -4   44.90   11.20
  -2  -3  -4   37.50    9.00
   2  -3   4   46.90    8.80
   2  -3   4   35.40    9.60
   2  -3   4   37.80    7.80
  -3  -3  -4   17.60    7.40
   3  -3   4   19.50    5.60
  -3  -3  -4   15.80    5.70
   3  -3   4    2.10   11.50
   3  -3   4   15.50    6.60
   3  -3   4   18.30    5.60
  -3  -3  -4   14.10    8.40
   4  -3   4   12.90    4.50
   4  -3   4   -1.10    6.60
  -4  -3  -4   22.10    7.40
   4  -3   4   16.90    5.10
  -4  -3  -4   15.80    7.90
  -4  -3  -4   23.90    6.70
   4  -3   4   10.30    5.40
  -5  -3  -4  300.27   28.90
   5  -3   4  247.68   29.70
   5  -3   4  304.87   28.50
  -5  -3  -4  210.28   31.20
  -5  -3  -4  247.88   29.00
   5  -3   4  253.67   27.20
  -6  -3  -4   29.90    7.60
  -6  -3  -4   22.60    8.30
  -6  -3  -4   37.70    8.10
   6  -3   4   46.60    6.90
   6  -3   4   27.80    6.10
   6  -3   4   24.60    7.10
  -7  -3  -4    6.40    6.10
  -7  -3  -4    9.60    4.80
   7  -3   4    5.40    3.80
  -7  -3  -4   10.80    4.80
   7  -3   4   -3.00    4.10
   7  -3   4    8.80    5.10
   7  -3   4    6.20    3.00
   7   3   4   -9.60    6.80
  -8  -3  -4   33.00    9.00
   8  -3   4   53.49    7.60
  -8  -3  -4   72.69    9.80
   8  -3   4   51.89   10.00
  -8  -3  -4   51.49    8.60
   8   3   4   39.90   10.00
   9  -3   4   22.10    4.50
  -9  -3  -4   19.70    6.90
   9  -3   4   10.70    4.80
   9  -3   4   23.60    6.00
   9   3   4   23.80    7.00
  10  -3   4  135.89   14.60
  10  -3   4  166.48   15.70
 -10  -3  -4  138.59   16.60
  10   3   4  148.69   20.80
  -8  -4   4   65.09    7.70
  -8  -4   4   54.19    7.10
  -8  -4   4   70.19    9.00
   8  -4  -4   72.59    8.40
   8  -4  -4   55.19    9.00
  -7  -4   4    2.70    2.20
  -7  -4   4    2.70    2.50
   7  -4  -4    1.20    2.40
   7  -4  -4    2.20    2.60
  -7  -4   4   -0.50    2.00
   6  -4  -4   10.70    4.70
   6  -4  -4    8.80    3.40
  -6  -4   4   11.60    3.50
  -6  -4   4    9.60    3.90
  -6  -4   4   10.80    3.60
   5  -4  -4   13.00    4.50
  -5  -4   4   22.80    5.60
  -5  -4   4   22.00    4.50
   5  -4  -4   18.60    4.50
  -5  -4   4   18.70    5.60
   4  -4  -4    3.80    5.10
  -4  -4   4    0.50    3.90
   4  -4  -4    1.90    2.70
  -4  -4   4    2.00    2.50
   4  -4  -4    1.30    3.90
  -4  -4   4    3.00    2.80
  -4  -4   4    2.20    3.00
   3  -4  -4   50.29    9.80
   3  -4  -4   61.69    9.50
   3  -4  -4   50.19    9.80
  -3  -4   4   70.79   11.10
  -3  -4   4   62.39   10.00
  -3  -4   4   59.79    8.60
   2  -4  -4   18.70    4.50
   2  -4  -4   21.90    9.20
   2  -4  -4    7.10    4.70
  -2  -4   4   25.10    6.50
  -2  -4   4   14.50    4.80
  -2  -4   4   11.90    4.10
  -1  -4   4    6.50    4.20
   1  -4  -4    6.30    3.60
   1  -4  -4   11.10    4.70
   1  -4  -4   14.60    5.50
  -1  -4   4    9.60    3.60
   0  -4   4  214.38   20.40
   0  -4   4  180.38   19.50
   0  -4  -4  176.38   20.40
   0  -4  -4  158.98   20.50
   0  -4   4  166.18   19.10
   1  -4   4  258.77   25.20
  -1  -4  -4  200.88   24.10
  -1  -4  -4  247.68   26.90
  -1  -4  -4  232.18   25.10
   1  -4   4  236.98   23.30
   1  -4   4  191.78   22.90
   2  -4   4    2.20    3.00
   2  -4   4    4.00    3.10
  -2  -4  -4    6.20    5.80
  -2  -4  -4   -1.40    3.70
   2  -4   4    3.20    3.70
  -2  -4  -4    6.80    4.10
  -3  -4  -4    0.80    3.60
   3  -4   4    3.30    2.90
   3  -4   4    0.40    2.00
  -3  -4  -4    4.40    3.40
  -3  -4  -4    0.70    4.00
   3  -4   4    0.20    3.30
   4  -4   4   -0.10    1.80
  -4  -4  -4    0.70    3.00
   4  -4   4    1.80    2.80
  -4  -4  -4   -0.40    3.70
  -4  -4  -4   -0.20    2.80
   4  -4   4    3.60    3.50
   5  -4   4   13.80    4.00
  -5  -4  -4   15.60    5.40
  -5  -4  -4   16.50    5.30
   5  -4   4    7.50    3.50
   5  -4   4   15.10    3.40
  -5  -4  -4   11.80    3.80
  -6  -4  -4   68.39    8.30
   6  -4   4   53.89    8.30
   6  -4   4   46.90    6.70
  -6  -4  -4   53.39   12.10
 -16   0   5   -4.00    2.00
  16   0  -5    3.20    2.50
 -16   0   5   -1.00    1.40
 -15   0   5    2.30    2.70
  15   0  -5    1.90    4.00
  15   0  -5   -1.70    3.00
 -15   0   5    0.90    1.60
  15   0  -5    3.20    2.70
  14   0  -5    2.70    4.10
 -14   0   5    0.70    3.00
  14   0  -5   -0.50    2.60
 -14   0   5   -1.20    2.10
 -13   0   5   22.00    5.60
  13   0  -5   40.00    9.70
  13   0  -5   29.80    7.40
 -13   0   5   19.10    5.30
  12   0  -5   -1.30    4.50
 -12   0   5   -6.00    3.10
  12   0  -5    2.90    4.10
 -12   0   5    0.00    3.00
  12   0  -5   -2.50    8.10
  11   0  -5  734.43   65.79
 -11   0   5  537.85   60.39
 -11   0   5  693.93   61.09
  11   0  -5  582.54   61.29
 -10   0   5    3.10    3.80
  10   0  -5    4.20    8.20
  10   0  -5    7.20    5.80
 -10   0   5    3.80    3.10
  10   0  -5    1.90    3.50
  -9   0   5   -0.60    3.30
  -9   0   5   -0.80    2.50
   9   0  -5    2.60    4.90
   9   0  -5   -1.00    4.20
   9   0  -5    2.00    3.50
  -8   0   5   -3.20    2.30
   8   0  -5    1.60    4.20
   8   0  -5    2.30    3.40
  -8   0   5    1.50    2.40
   8   0  -5    1.00    5.10
   7   0  -5  207.08   22.50
  -6   0   5   -0.30    2.30
  -5   0   5  724.53   67.29
   4   0  -5    2.80    1.70
  -4   0   5    2.00    3.10
   3   0  -5 5457.45  456.85
  -3   0   5 4799.32  458.15
  -2   0   5    1.30    2.90
   2   0  -5   -1.20    1.00
  -2   0   5    0.30    1.50
  -1   0   5 3443.06  359.86
   1   0  -5 4640.04  360.16
   0   0   5    0.30    1.40
   0   0  -5    0.50    1.00
  -1   0  -5 1047.40   94.39
   2   0   5    1.30    1.40
  -3   0  -5    8.30    2.20
   3   0   5    6.80    1.80
   4   0   5   -1.90    1.10
   5   0   5  258.77   30.30
  -5   0  -5  266.07   27.40
  -6   0  -5    1.30    3.10
   6   0   5   -1.70    1.40
   6   0   5   -1.00    3.20
   6   0   5    1.70    3.80
   6   0   5   -0.60    4.50
  -7   0  -5   27.50    6.70
  -7   0  -5   24.90    6.70
   7   0   5   26.90    8.20
   8   0   5    5.20    5.80
  -8   0  -5    9.90    4.20
   8   0   5    3.40    5.10
  -8   0  -5    4.40    3.80
   9   0   5  326.77   33.60
  -9   0  -5  311.87   31.50
  -9   0  -5  254.77   30.90
  10   0   5   -1.70    5.50
 -10   0  -5    1.30    3.40
  10   0   5   -3.60    3.90
 -10   0  -5    1.10    2.90
 -11   0  -5  159.48   17.40
  11   0   5   91.79   18.90
  11   0   5  143.79   18.30
 -11   0  -5  136.19   16.60
  12   0   5   -1.50    3.20
 -12   0  -5   -0.30    2.40
 -12   0  -5    2.00    2.50
  12   0   5   -3.90    4.10
  13   0   5   10.30    4.20
 -13   0  -5   10.30    3.30
  13   0   5    6.60    4.20
 -13   0  -5    7.20    2.60
  14   0   5    0.50    1.80
 -14   0  -5    2.90    1.80
 -16  -1   5  124.99   11.70
  16  -1  -5  105.99   11.10
 -16  -1   5   88.39   11.00
 -16   1   5  101.29   11.40
  16   1  -5  113.49   12.10
 -15  -1   5   58.29    8.00
  15  -1  -5   55.19    8.20
  15  -1  -5   63.89    8.70
  15   1  -5   49.40    8.90
  15   1  -5   84.99   11.30
  14  -1  -5   27.20    8.60
  14  -1  -5   34.20    6.50
 -14  -1   5   22.10    5.20
  14   1  -5   38.30    7.30
 -14   1   5   29.70    6.40
  14   1  -5   34.30    8.60
 -14   1   5   17.70    4.90
 -13  -1   5   15.70    4.50
  13  -1  -5   12.20    5.20
  13  -1  -5   15.10    5.00
 -13   1   5   11.50    5.40
  13   1  -5   15.90    6.60
  13   1  -5   14.70    5.80
 -13   1   5   18.50    5.40
 -12  -1   5  310.67   30.70
  12  -1  -5  277.17   34.30
  12   1  -5  266.27   31.00
  11  -1  -5 1059.29   97.09
  11  -1  -5 1099.69   94.59
 -11  -1   5 1006.00   92.19
 -11  -1   5  955.90   91.69
  11  -1  -5  958.50   92.99
 -11  -1   5 1017.70   92.39
 -11   1   5  926.11   92.59
 -11   1   5  912.71   92.69
  11   1  -5  984.10   93.79
  11   1  -5  959.70   96.99
  10  -1  -5 2286.57  189.08
 -10  -1   5 2438.96  190.58
  10  -1  -5 2192.38  191.28
  10  -1  -5 1984.10  191.78
  10  -1  -5 1893.11  193.58
 -10  -1   5 2206.98  190.38
  10   1  -5 1847.32  194.28
 -10   1   5 2097.99  191.08
 -10   1   5 2014.20  190.78
  10   1  -5 1876.61  194.28
   9  -1  -5  328.17   30.30
  -9  -1   5  347.97   31.20
   9  -1  -5  329.57   32.00
   9  -1  -5  296.47   33.10
   9   1  -5  285.27   32.20
  -9   1   5  240.68   30.70
   9   1  -5  299.87   31.20
  -9   1   5  287.07   31.90
   9   1  -5  281.57   35.10
   8  -1  -5  115.49   15.60
  -8  -1   5  111.09   12.40
   8  -1  -5   89.79   12.50
   8  -1  -5   78.39   11.20
  -8  -1   5   92.59   12.60
  -8  -1   5   82.09   15.10
   8  -1  -5  118.79   12.90
   8   1  -5  125.59   18.10
  -8   1   5   68.59   12.10
  -7  -1   5    2.10    4.90
  -7  -1   5    2.30    4.30
   7  -1  -5    3.00    3.10
   7  -1  -5    2.00    4.40
   7  -1  -5   -0.40    2.20
  -7  -1   5    1.70    3.80
   6  -1  -5   35.60    8.50
  -6  -1   5   33.10    9.40
   6  -1  -5   35.10    4.90
   5  -1  -5  879.91   80.79
  -5  -1   5  781.42   81.89
   5  -1  -5  900.01   77.69
  -4  -1   5 4087.99  390.26
   4  -1  -5 3908.71  387.96
  -4   1   5 4969.80  386.06
  -3  -1   5  117.29   16.90
   3  -1  -5  137.19   12.70
   3  -1  -5  127.59   14.70
  -3   1   5  104.49   12.20
   2  -1  -5 3747.23  302.47
  -2  -1   5 3046.10  304.87
  -2   1   5 3717.13  300.67
   2   1  -5 2960.00  300.97
   1  -1  -5  258.67   24.50
  -1  -1   5  253.87   29.00
   1   1  -5  222.68   24.30
  -1   1   5  283.07   24.20
   0  -1  -5 1949.70  177.78
   0  -1   5 1781.92  181.18
   0   1   5 2221.88  177.18
   0   1  -5 1950.70  177.18
   1  -1   5 3700.03  300.57
   1   1   5 2934.61  294.87
   2  -1   5 5910.71  496.15
   2   1   5 5701.53  490.85
  -2   1  -5 4931.01  490.15
   3  -1   5   32.00    9.50
   3  -1   5   34.90    7.80
   3   1   5   17.40    3.70
  -3   1  -5   23.40    3.40
  -4  -1  -5  692.73   59.19
  -4  -1  -5  540.55   58.49
   4  -1   5  690.33   63.59
   4  -1   5  543.75   59.19
   4  -1   5  706.23   60.49
   4   1   5  575.54   57.29
   5  -1   5   92.99   12.20
   5  -1   5   85.19   12.20
   5  -1   5   85.99   15.00
  -5  -1  -5   82.59   10.80
   5  -1   5   73.19   10.60
  -5  -1  -5   72.49   10.40
  -5  -1  -5   69.39   10.90
   5   1   5   56.69   13.10
   5   1   5   74.89    9.20
  -6  -1  -5    9.30    4.50
  -6  -1  -5   -3.50    4.90
   6  -1   5    7.40    3.40
  -6  -1  -5   15.50    4.90
   6  -1   5    7.00    6.90
  -6  -1  -5   15.10    5.10
   6  -1   5   16.70    6.10
   6  -1   5   14.90    5.40
   6   1   5    6.60    7.40
   6   1   5   25.00    8.70
  -6   1  -5    8.30    4.20
   6   1   5    3.90    2.50
   7  -1   5  639.24   53.09
   7  -1   5  580.14   58.79
   7  -1   5  507.05   58.59
   7  -1   5  510.55   54.89
  -7  -1  -5  636.94   55.09
  -7  -1  -5  538.95   54.69
   7  -1   5  562.34   56.09
  -7  -1  -5  567.54   55.79
  -7   1  -5  501.25   54.79
   7   1   5  594.54   58.09
  -8  -1  -5 1923.11  158.58
   8  -1   5 1717.83  159.88
   8  -1   5 1590.94  158.28
   8  -1   5 1737.73  161.68
  -8  -1  -5 1795.52  158.68
   8  -1   5 1836.92  156.48
   8   1   5 1711.53  163.98
  -8   1  -5 1717.43  158.78
  -8   1  -5 1524.25  158.28
  -9  -1  -5  818.92   70.49
   9  -1   5  614.74   68.79
  -9  -1  -5  792.12   69.49
   9  -1   5  672.53   67.39
   9   1   5  742.93   75.69
  -9   1  -5  718.03   69.99
  -9   1  -5  699.73   69.69
   9   1   5  815.12   72.79
 -10  -1  -5    7.00    4.10
  10  -1   5    3.30    4.40
 -10  -1  -5    4.20    4.90
 -10  -1  -5    3.60    3.80
  10  -1   5  -10.50    6.50
  10  -1   5    9.50    5.50
 -10   1  -5    4.00    3.40
 -10   1  -5    6.50    4.70
  10   1   5    5.60    6.40
  10   1   5   10.60    6.10
  11  -1   5   71.29   12.00
 -11  -1  -5   88.19   12.00
 -11   1  -5   70.09   11.10
  11   1   5   86.69   13.70
  11   1   5   64.29   14.40
  12  -1   5   -1.00    3.20
 -12  -1  -5    1.30    2.60
 -12   1  -5   -5.10    3.50
 -12   1  -5    3.30    2.40
  12   1   5    5.70    4.60
  12   1   5    2.50    4.10
 -13  -1  -5   18.10    3.70
  13  -1   5   18.80    4.40
  13   1   5   20.30    5.90
  13   1   5   21.00    6.00
 -13   1  -5   15.80    3.50
  14  -2  -5    2.10    2.70
 -14  -2   5    2.50    2.80
 -14  -2   5    2.20    2.00
  14  -2  -5   10.00    2.90
  14   2  -5    5.10    3.90
 -14   2   5    6.80    2.50
 -13  -2   5  167.18   18.60
  13  -2  -5  160.08   16.10
  13  -2  -5  177.48   22.50
 -13  -2   5  127.99   17.30
  13   2  -5  194.38   24.10
 -13   2   5  116.89   16.80
 -12  -2   5    2.40    2.50
 -12  -2   5    4.60    4.00
  12  -2  -5   -0.50    3.60
  12  -2  -5    0.60    2.70
  12  -2  -5    1.30    3.50
 -12  -2   5    0.30    3.10
 -12   2   5   -0.60    3.00
  12   2  -5   -3.00    4.10
 -11  -2   5    0.20    3.00
  11  -2  -5    0.00    2.90
 -11  -2   5    0.30    2.50
 -11  -2   5   -5.00    2.90
 -11  -2   5    6.80    4.90
  11  -2  -5   -3.90    2.40
  11  -2  -5   -3.80    2.60
  11  -2  -5   -1.60    4.10
  11   2  -5   -3.10    4.30
 -11   2   5    0.10    3.10
 -10  -2   5   98.59   13.50
  10  -2  -5   97.09   12.50
 -10  -2   5  107.19   12.60
 -10  -2   5   67.59   12.80
  10  -2  -5   52.89   14.30
  10  -2  -5   86.99   11.60
  10  -2  -5   78.79   14.40
 -10  -2   5   79.39   11.20
  10   2  -5   65.19   14.80
 -10   2   5   93.19   13.30
  -9  -2   5 1543.95  143.59
  -9  -2   5 1642.44  141.19
   9  -2  -5 1274.97  145.99
   9  -2  -5 1556.74  145.09
   9  -2  -5 1452.55  141.19
   9  -2  -5 1780.62  142.09
  -9   2   5 1629.74  143.29
   9   2  -5 1461.75  146.19
   8  -2  -5    7.80    4.50
   8  -2  -5   -4.50    6.60
  -8  -2   5   -6.00    7.50
   8  -2  -5    5.00    3.30
   8  -2  -5    3.50    4.70
  -8  -2   5    0.20    2.50
   8  -2  -5    0.00    2.70
  -8  -2   5    0.40    3.80
  -8  -2   5    4.60    4.10
  -8  -2   5    4.30    4.20
  -8   2   5    2.30    3.80
   8   2  -5    4.10    5.80
  -7  -2   5   -0.50    6.50
   7  -2  -5    2.30    3.90
   7  -2  -5   -1.30    2.70
   7  -2  -5   -0.40    4.30
   7  -2  -5    4.90    4.80
  -7  -2   5    1.30    4.20
  -7  -2   5    0.50    3.60
   7   2  -5   -2.20    5.40
  -7   2   5   -2.60    3.70
   6  -2  -5    1.70    2.40
  -6  -2   5    2.40    3.80
  -6  -2   5   -0.50    2.20
  -6  -2   5   -0.80    5.60
  -6  -2   5    1.60    3.80
   6  -2  -5    2.70    4.30
  -6  -2   5   -2.20    3.70
   6  -2  -5    4.60    4.40
   6  -2  -5    0.00    2.60
   6  -2  -5    2.30    3.00
   6   2  -5  -10.50    5.40
   5  -2  -5   -3.20    3.30
   5  -2  -5   10.30    5.50
  -5  -2   5    0.10    3.50
   5  -2  -5    2.60    2.50
  -5  -2   5    1.20    3.60
   5  -2  -5    1.80    3.00
  -5  -2   5   -2.20    2.40
  -5  -2   5    2.80    3.70
  -5  -2   5    5.90    6.60
   5  -2  -5    2.00    2.60
   4  -2  -5  647.94   59.39
   4  -2  -5  585.34   61.29
   4  -2  -5  613.24   57.99
  -4  -2   5  569.64   57.99
   4  -2  -5  644.04   58.39
   4  -2  -5  600.04   61.89
  -4  -2   5  588.34   60.09
  -4  -2   5  657.33   60.99
  -4  -2   5  749.42   68.19
  -3  -2   5 3206.08  306.87
   3  -2  -5 3165.98  307.77
   3  -2  -5 3504.85  305.67
  -3  -2   5 3575.64  306.97
   3  -2  -5 3635.14  308.47
  -3  -2   5 3507.25  313.27
  -3  -2   5 3470.45  306.27
   3  -2  -5 3511.15  308.77
  -3   2   5 3078.99  303.77
   2  -2  -5 1358.06  132.99
   2  -2  -5 1392.46  133.59
  -2  -2   5 1507.65  132.49
  -2  -2   5 1433.76  131.79
  -2  -2   5 1338.07  131.19
  -2  -2   5 1471.05  138.19
   2  -2  -5 1403.56  132.59
  -2   2   5 1586.54  131.49
  -1  -2   5 3257.37  299.37
   1  -2  -5 3183.88  300.07
  -1  -2   5 3369.26  304.67
   1  -2  -5 3497.95  298.87
  -1  -2   5 3307.27  298.17
   1  -2  -5 3567.24  297.57
   1  -2  -5 2958.40  300.07
  -1   2   5 3352.36  296.07
   0  -2   5  139.79   17.20
   0  -2  -5  135.09   18.80
   0  -2   5  192.68   24.70
   0  -2  -5  167.98   17.50
   0  -2  -5  149.09   18.70
   0  -2   5  150.48   17.40
   0  -2  -5  162.88   17.70
   0   2   5  168.58   16.20
   1  -2   5  270.37   30.30
  -1  -2  -5  335.67   30.50
  -1  -2  -5  247.18   31.80
  -1  -2  -5  283.97   31.60
   1  -2   5  309.97   37.20
  -1  -2  -5  344.67   30.10
   1  -2   5  346.77   33.00
   1  -2   5  263.97   30.10
   1   2   5  328.37   29.50
   2  -2   5   92.99   12.10
  -2  -2  -5   88.49   12.20
   2  -2   5  107.19   12.20
  -2  -2  -5   88.79   12.70
   2  -2   5  118.39   13.70
   2  -2   5  117.39   19.50
  -2  -2  -5   83.49   13.70
  -2  -2  -5   79.29   11.30
   2  -2   5   83.59   13.70
   2   2   5  102.69   11.20
  -3  -2  -5 1023.60  101.69
   3  -2   5 1308.57  103.49
  -3  -2  -5 1130.99  101.99
   3  -2   5 1226.68  102.49
   3  -2   5 1161.98  109.79
   3  -2   5 1066.09  102.49
   3  -2   5 1119.29  104.59
  -3  -2  -5  997.90  103.89
  -3  -2  -5 1251.27  103.79
   3  -2   5 1044.10  101.89
   3   2   5  931.31  101.29
   3   2   5 1053.99  106.39
  -4  -2  -5  353.36   31.40
   4  -2   5  271.27   36.20
   4  -2   5  292.37   29.50
   4  -2   5  323.47   32.80
   4  -2   5  315.77   33.80
   4  -2   5  260.67   30.10
  -4  -2  -5  258.67   31.30
   4  -2   5  351.16   30.40
  -4  -2  -5  280.77   29.60
   4   2   5  264.47   34.40
  -4   2  -5  265.37   30.40
   5  -2   5   59.29   11.60
   5  -2   5   62.29    8.90
  -5  -2  -5   40.20    7.80
  -5  -2  -5   58.39    9.40
  -5  -2  -5   53.29    9.70
   5  -2   5   48.90   11.80
   5  -2   5   61.69   10.00
   5  -2   5   38.50    7.70
  -5   2  -5   40.80    9.10
   5   2   5   56.79   13.20
  -6  -2  -5  168.18   18.30
  -6  -2  -5  118.19   16.90
   6  -2   5  161.18   17.70
   6  -2   5  187.88   21.90
  -6  -2  -5  120.29   21.00
   6  -2   5  145.29   16.40
   6  -2   5  179.58   18.80
  -6  -2  -5  144.39   18.10
   6  -2   5  124.39   18.90
  -6   2  -5  152.98   18.50
   6   2   5  142.69   23.40
  -7  -2  -5  442.56   46.00
  -7  -2  -5  425.36   50.79
   7  -2   5  499.65   45.30
   7  -2   5  483.65   46.70
  -7  -2  -5  531.15   47.20
  -7  -2  -5  517.25   47.10
   7  -2   5  485.95   47.10
   7  -2   5  432.86   47.90
   7   2   5  468.55   52.39
  -7   2  -5  423.46   46.50
   8  -2   5    9.70    3.80
  -8  -2  -5    3.40    5.00
  -8  -2  -5   12.50    4.60
   8  -2   5   14.50    6.10
  -8  -2  -5   10.60    6.40
   8  -2   5   10.90    4.50
  -8  -2  -5    8.10    4.90
  -8   2  -5    4.10    3.80
   8   2   5    2.60    5.30
  -9  -2  -5  505.05   55.99
   9  -2   5  576.04   51.39
   9  -2   5  594.14   53.29
   9  -2   5  539.35   53.59
  -9  -2  -5  536.85   52.69
  -9   2  -5  522.15   52.99
   9   2   5  565.84   58.89
  10  -2   5   50.69    8.60
 -10  -2  -5   53.79   10.70
  10  -2   5   30.00    9.10
  10  -2   5   66.59    9.20
 -10  -2  -5   54.29    8.40
  10  -2   5   83.99   12.20
 -10   2  -5   52.79    8.50
  10   2   5   46.40   12.30
 -11  -2  -5   80.09   11.30
  11  -2   5   74.19    9.80
 -11  -2  -5   92.59   10.20
  11  -2   5   64.49    9.40
  11  -2   5  103.29   10.20
  11  -2   5   66.29   11.20
 -11   2  -5   79.69   10.30
  11   2   5   86.49   13.80
 -12  -2  -5   -1.60    1.70
  12  -2   5   -1.80    2.60
  12   2   5   -3.60    2.40
 -12   2  -5    1.10    2.10
  12  -3  -5    7.30    3.30
  12  -3  -5    8.10    3.00
 -12  -3   5    5.40    3.00
  11  -3  -5   -0.70    3.10
  11  -3  -5    1.40    2.30
 -11  -3   5    0.80    2.40
 -11  -3   5   -0.60    2.80
 -11  -3   5    0.70    2.30
  10  -3  -5   13.20    5.40
 -10  -3   5   15.50    4.80
 -10  -3   5   18.90    6.60
 -10  -3   5    6.80    3.80
  10  -3  -5   10.80    3.80
  10  -3  -5    8.30    3.90
  10   3  -5    9.70    5.30
  -9  -3   5  602.64   56.09
  -9  -3   5  620.84   54.89
  -9  -3   5  531.65   55.89
   9  -3  -5  626.94   54.69
   9  -3  -5  500.25   56.49
   9   3  -5  536.75   56.29
   8  -3  -5   23.90    5.50
   8  -3  -5   40.70   10.20
  -8  -3   5   29.30    7.00
  -8  -3   5   28.10    6.40
   8  -3  -5   26.30    6.00
  -8  -3   5   48.90    9.30
  -7  -3   5   16.10    6.10
  -7  -3   5   11.70    5.60
   7  -3  -5   21.40    8.50
  -7  -3   5   13.60    5.00
   7  -3  -5   14.30    6.60
   7  -3  -5    7.40    3.50
   7  -3  -5   22.30    6.30
  -7  -3   5   25.20    6.50
   6  -3  -5   16.60   14.90
  -6  -3   5   30.90    9.40
   6  -3  -5   29.10    6.90
  -6  -3   5   33.10   19.60
   6  -3  -5   36.20   12.20
   6  -3  -5   36.10   15.30
  -6  -3   5   45.60   10.40
  -5  -3   5   14.80    6.50
  -5  -3   5   17.40   11.00
   5  -3  -5   10.70    3.70
  -5  -3   5   11.30    5.00
   5  -3  -5    9.20   10.40
   5  -3  -5   15.80    4.80
   5  -3  -5    9.80    5.70
   5  -3  -5   16.70    7.20
  -5  -3   5   16.20    6.40
  -5  -3   5   28.40    6.60
   4  -3  -5  488.95   56.19
   4  -3  -5  563.44   53.89
   4  -3  -5  574.64   59.29
  -4  -3   5  513.25   63.19
  -4  -3   5  566.44   55.89
  -4  -3   5  587.74   55.59
   4  -3  -5  548.85   56.89
  -4  -3   5  586.04   54.69
  -3  -3   5  652.43   74.69
  -3  -3   5  757.12   67.29
  -3  -3   5  667.13   65.89
   3  -3  -5  664.23   67.99
   3  -3  -5  724.13   70.09
   3  -3  -5  624.04   67.19
   3  -3  -5  637.24   64.39
  -3  -3   5  701.13   65.39
  -2  -3   5   34.30    8.30
  -2  -3   5   24.30   11.50
   2  -3  -5   33.90    7.10
   2  -3  -5   25.80    8.30
  -2  -3   5   48.90    9.40
   2  -3  -5   51.99   11.70
   2  -3  -5   48.30   13.10
   1  -3  -5  166.88   22.40
  -1  -3   5  170.38   19.60
  -1  -3   5  184.18   20.90
  -1  -3   5  170.78   19.90
  -1  -3   5  141.69   19.90
  -1  -3   5  174.08   29.90
   1  -3  -5  146.69   20.90
   1  -3  -5  168.38   19.00
   0  -3  -5   -0.80    5.10
   0  -3  -5    0.70    3.10
   0  -3   5   -6.00    3.70
   0  -3   5    1.30    7.80
   0  -3   5    8.40    4.90
   0  -3  -5    4.70    5.20
   0  -3   5   -0.10    3.30
   0  -3   5    9.80    4.60
   0  -3  -5    2.80    4.00
  -1  -3  -5   30.60    9.00
   1  -3   5   33.20    7.30
  -1  -3  -5   32.40    8.60
  -1  -3  -5   31.60    6.40
   1  -3   5   33.20   12.40
   1  -3   5   32.60    9.20
   1  -3   5   35.70    7.70
  -1  -3  -5   32.20   10.50
  -2  -3  -5   92.09   18.20
   2  -3   5  138.29   15.70
   2  -3   5  114.29   17.50
  -2  -3  -5  117.49   17.90
  -2  -3  -5  117.69   16.30
   2  -3   5  153.08   16.70
   2  -3   5  125.99   15.40
   3  -3   5    2.10    3.30
  -3  -3  -5    4.30    5.00
  -3  -3  -5    4.30    4.20
   3  -3   5    6.00    4.80
  -3  -3  -5    7.30    5.40
   3  -3   5    4.80    3.40
   3  -3   5    3.60    3.50
   4  -3   5   69.29   10.00
   4  -3   5   66.39   13.30
  -4  -3  -5   46.70   10.80
  -4  -3  -5   61.79   14.00
  -4  -3  -5   43.40   13.20
   4  -3   5   48.90   10.80
  -5  -3  -5  180.58   27.00
  -5  -3  -5  218.08   25.00
   5  -3   5  200.08   25.30
   5  -3   5  231.68   23.60
  -5  -3  -5  266.57   25.10
   5  -3   5  198.28   22.60
  -6  -3  -5    2.00    3.70
   6  -3   5    2.90    3.30
   6  -3   5    2.80    4.70
   6  -3   5    1.70    2.50
  -6  -3  -5   10.90    4.80
  -6  -3  -5   -0.40    4.20
  -7  -3  -5  123.69   15.00
  -7  -3  -5   98.09   17.30
   7  -3   5  109.49   14.80
   7  -3   5  116.39   16.00
   7  -3   5  122.39   13.40
  -7  -3  -5  153.28   15.90
   7   3   5  106.59   18.80
   8  -3   5  353.26   31.70
  -8  -3  -5  290.57   35.00
   8   3   5  345.87   40.80
   9  -3   5    2.00    2.70
   9  -3   5    1.10    2.30
  -9  -3  -5    3.40    2.80
   9  -3   5    3.80    3.10
  -9  -3  -5    1.30    3.40
   9   3   5    5.60    4.60
  10  -3   5    4.50    1.80
  10  -3   5    4.60    2.30
 -10  -3  -5    7.30    3.10
  -8  -4   5   34.60    5.60
  -8  -4   5   26.70    4.80
   8  -4  -5   33.20    5.10
   8  -4  -5   29.60    5.30
  -7  -4   5   14.50    3.60
  -7  -4   5   19.50    3.60
   7  -4  -5   18.40    4.00
   7  -4  -5   17.30    4.90
  -7  -4   5   21.20    5.00
   6  -4  -5   14.20    4.50
  -6  -4   5   35.20    6.20
  -6  -4   5   22.00    3.90
   6  -4  -5   23.60    4.50
  -5  -4   5   65.29    8.00
   5  -4  -5   66.39    9.50
  -5  -4   5   69.09    9.30
   5  -4  -5   75.89   11.00
  -5  -4   5   79.09   10.00
   4  -4  -5    2.20    3.50
   4  -4  -5   -2.70    3.60
  -4  -4   5   -0.90    2.50
   4  -4  -5    1.80    2.60
  -4  -4   5    1.90    2.70
  -4  -4   5   -4.60    4.50
  -4  -4   5    3.60    3.40
   3  -4  -5   53.99   10.70
  -3  -4   5   83.39   11.50
  -3  -4   5   71.39    9.70
   3  -4  -5   73.19    9.80
  -3  -4   5   94.89   12.70
   2  -4  -5   35.50    6.50
  -2  -4   5   40.80    7.80
   2  -4  -5   34.80    8.10
  -2  -4   5   28.20    5.60
   2  -4  -5   28.90    8.80
   1  -4  -5   82.09   13.80
  -1  -4   5  122.09   13.50
   1  -4  -5   90.89   11.80
   1  -4  -5  109.09   16.50
  -1  -4   5   99.39   14.10
  -1  -4   5  105.49   12.80
   0  -4   5    0.60    2.90
   0  -4   5    4.80    4.10
   1  -4   5  190.18   22.20
  -1  -4  -5  246.68   24.00
  -1  -4  -5  207.28   26.10
   1  -4   5  236.98   22.60
  -1  -4  -5  218.68   23.40
   2  -4   5   31.10    6.80
   2  -4   5   48.80    6.90
  -2  -4  -5   31.00    7.70
  -2  -4  -5   54.99    8.40
   2  -4   5   52.19    7.50
  -2  -4  -5   44.30    8.70
  -3  -4  -5   74.49   10.80
  -3  -4  -5   89.89   10.50
   3  -4   5   80.59   10.00
   3  -4   5   61.99   10.00
  -3  -4  -5   68.59   11.10
   3  -4   5   73.19    9.20
  -4  -4  -5   54.09    8.10
   4  -4   5   42.20    6.90
   4  -4   5   48.40    6.40
  -4  -4  -5   52.29    7.30
  -4  -4  -5   33.80    7.80
   4  -4   5   33.70    6.80
  -5  -4  -5    9.80    3.30
   5  -4   5   14.10    2.90
  -5  -4  -5   13.80    3.70
   5  -4   5   11.50    3.80
  -5  -4  -5   22.60    7.30
   5  -4   5    8.40    4.30
 -16   0   6   31.20    5.60
 -16   0   6   42.90    5.80
 -15   0   6   -2.80    2.10
  15   0  -6    1.60    3.10
  15   0  -6    1.10    2.60
 -15   0   6   -1.00    1.60
  14   0  -6   47.10    9.50
 -14   0   6   60.99    8.90
 -14   0   6   64.19    9.90
  14   0  -6   48.30    9.90
 -13   0   6   -0.10    2.60
  13   0  -6   -4.00    2.80
  13   0  -6   -2.00    3.80
 -13   0   6    1.40    2.90
  12   0  -6  165.58   23.20
  12   0  -6  125.89   22.80
 -12   0   6  188.78   20.90
 -12   0   6  160.38   19.70
  12   0  -6  203.78   21.90
  11   0  -6   -7.00    6.00
 -11   0   6    1.10    3.40
  11   0  -6    4.90    4.60
  11   0  -6    8.10    5.60
 -11   0   6    5.00    4.10
  10   0  -6 2272.57  212.88
  10   0  -6 2356.86  212.28
 -10   0   6 2014.50  211.28
  10   0  -6 2482.55  215.38
 -10   0   6 2512.05  211.98
  -9   0   6    1.80    2.80
   9   0  -6    1.40    4.00
   9   0  -6   -1.10    4.80
   9   0  -6    3.00    3.70
  -9   0   6    0.70    2.50
  -8   0   6  238.28   25.10
   8   0  -6  270.97   26.50
   8   0  -6  223.28   25.40
   8   0  -6  234.18   28.00
  -8   0   6  206.08   24.30
  -7   0   6   -3.20    3.40
  -7   0   6    0.00    2.40
   7   0  -6   -0.20    3.90
   7   0  -6   -0.40    4.20
  -6   0   6  480.55   46.20
  -5   0   6   -0.80    2.90
  -3   0   6    0.30    2.90
   3   0  -6    0.50    1.50
  -2   0   6 2825.82  252.87
  -1   0   6   -1.90    1.30
   0   0  -6  315.27   26.90
   0   0   6  246.18   26.50
   1   0   6   -1.10    1.50
   2   0   6 4709.93  420.06
   3   0   6    0.40    1.40
  -4   0  -6  188.38   22.00
   4   0   6  225.18   25.50
   4   0   6  210.28   23.10
   5   0   6   -1.40    1.60
   5   0   6   -4.10    3.90
   5   0   6    6.10    5.00
  -5   0  -6    0.50    2.80
   5   0   6   -0.30    4.60
  -6   0  -6  138.09   16.40
  -6   0  -6  111.79   15.50
   6   0   6  115.89   18.90
   6   0   6  145.59   17.70
   6   0   6  114.99   13.90
   7   0   6    0.50    5.80
   7   0   6   -3.10    4.40
  -7   0  -6    1.70    3.70
  -7   0  -6    1.60    6.10
   8   0   6 8037.10  839.02
   8   0   6 9941.01  843.42
  -8   0  -6 9547.75  838.32
  -8   0  -6 9999.00  838.12
  -9   0  -6   -0.50    3.80
   9   0   6    1.80    4.80
   9   0   6   -8.30   11.80
  -9   0  -6    4.90    3.70
 -10   0  -6  194.38   23.00
  10   0   6  168.38   26.50
  10   0   6  228.68   25.30
 -10   0  -6  227.48   24.00
 -11   0  -6   -4.10    2.80
 -11   0  -6    1.20    2.40
  11   0   6   -2.90    2.40
  11   0   6    3.70    5.10
 -12   0  -6   44.00    7.60
  12   0   6   38.20    7.60
  12   0   6   46.90    9.30
 -12   0  -6   45.70    7.60
 -13   0  -6   -1.90    1.90
 -13   0  -6    1.20    1.90
  13   0   6   -0.60    1.90
  15  -1  -6    3.60    2.50
 -15  -1   6    0.30    1.90
 -15  -1   6   -0.80    1.60
  15  -1  -6   -2.00    2.10
  15   1  -6    1.20    3.00
 -15   1   6    0.00    1.70
 -14  -1   6   66.59    8.90
  14  -1  -6   67.99    9.70
  14  -1  -6   57.39    9.00
  14   1  -6   48.40    8.90
 -14   1   6   74.19    9.90
 -14   1   6   56.89    9.20
  14   1  -6   39.70    9.30
  13  -1  -6  138.49   19.30
  13  -1  -6  184.18   19.80
  13   1  -6  172.48   20.40
  13   1  -6  210.38   24.10
 -13   1   6  161.28   19.90
 -13   1   6  168.08   19.80
  12  -1  -6   -1.10    6.60
 -12  -1   6   -0.60    3.40
  12  -1  -6    0.50    4.20
 -12  -1   6    1.30    2.80
  12  -1  -6   -1.40    2.90
  12   1  -6   -2.30    4.70
 -12   1   6    4.10    3.20
 -12   1   6   -2.20    3.50
  12   1  -6    1.50    4.60
  11  -1  -6  410.06   42.80
  11  -1  -6  408.16   39.70
 -11  -1   6  421.36   38.50
  11  -1  -6  345.97   39.10
 -11  -1   6  338.37   37.20
  11  -1  -6  399.96   38.90
 -11   1   6  347.17   38.30
  11   1  -6  389.86   39.60
  11   1  -6  390.36   42.60
 -11   1   6  367.76   38.70
  11   1  -6  303.17   39.00
  10  -1  -6 2594.74  253.47
  10  -1  -6 2927.21  248.88
 -10  -1   6 2970.20  247.88
 -10  -1   6 2781.02  247.78
  10  -1  -6 2502.55  248.78
 -10  -1   6 2917.61  248.28
  10  -1  -6 2493.35  249.08
  10  -1  -6 2904.21  249.78
 -10   1   6 2732.13  249.38
  10   1  -6 2476.65  248.58
 -10   1   6 3131.19  249.58
  10   1  -6 2599.54  248.18
  10   1  -6 2563.74  252.07
   9  -1  -6   -5.50    4.30
   9  -1  -6   -1.50    4.30
  -9  -1   6    6.10    4.80
  -9  -1   6    7.20    4.30
   9  -1  -6    7.40    4.20
   9  -1  -6    3.60    3.90
   9  -1  -6    4.00    5.70
  -9  -1   6    2.50    3.00
   9  -1  -6   -4.10    2.80
   9   1  -6  -12.00    5.10
   9   1  -6   -4.40    3.20
  -8  -1   6  154.18   15.40
   8  -1  -6   88.79   13.60
   8  -1  -6  102.49   16.50
  -8  -1   6  111.39   15.30
  -8  -1   6  132.99   14.90
   8  -1  -6  119.89   15.30
   8  -1  -6  149.19   18.90
   8  -1  -6  110.69   16.20
   8  -1  -6  121.79   14.60
  -8  -1   6  169.48   20.20
  -8   1   6  120.79   15.60
   8   1  -6  115.19   18.70
   8   1  -6  124.79   17.80
  -7  -1   6   11.30    4.80
  -7  -1   6   10.70    5.90
   7  -1  -6    9.00    3.80
  -7  -1   6   23.10    5.40
  -7  -1   6    9.20    3.60
   7  -1  -6    7.60    6.10
   7  -1  -6    5.50    3.80
   7  -1  -6    7.70    3.40
   7  -1  -6    2.60    5.20
   7  -1  -6    9.20    5.80
   7   1  -6    8.90    5.80
  -7   1   6    6.90    3.80
  -6  -1   6   -0.20    2.70
   6  -1  -6   -1.30    2.60
  -6  -1   6   -2.30    3.50
   6  -1  -6    3.20    4.30
  -6  -1   6    0.60    2.30
   6  -1  -6    0.00    2.70
   6   1  -6   -2.40    6.30
   5  -1  -6  361.66   37.20
  -4  -1   6 2183.48  200.38
   4  -1  -6 2347.67  198.08
  -4   1   6 2014.00  195.68
  -3  -1   6 1812.52  175.98
  -3   1   6 1990.40  171.08
   2  -1  -6  179.28   18.10
  -2  -1   6  167.58   21.40
  -2   1   6  133.19   15.50
   1  -1  -6  368.96   35.60
  -1  -1   6  351.16   39.40
  -1   1   6  375.06   34.30
   0  -1   6  424.26   47.20
   0  -1  -6  406.56   42.80
   0   1   6  535.55   42.50
  -1  -1  -6 1202.98  103.09
   1  -1   6 1229.78  109.09
   1   1   6  982.90  103.79
   2  -1   6 3468.35  319.97
   2   1   6 3562.84  314.27
   3  -1   6  418.06   42.80
  -3  -1  -6  384.56   42.20
  -3  -1  -6  468.25   43.10
   3  -1   6  470.15   47.80
   3   1   6  458.65   41.40
  -4  -1  -6  211.38   24.10
  -4  -1  -6  208.88   23.60
   4  -1   6  212.08   24.50
   4  -1   6  266.87   30.60
  -4  -1  -6  235.98   23.90
   4   1   6  232.08   22.60
   4   1   6  209.28   26.80
  -5  -1  -6  208.38   25.20
   5  -1   6  162.58   24.30
   5  -1   6  237.78   21.40
   5  -1   6  215.18   27.20
   5  -1   6  211.68   22.50
  -5  -1  -6  160.98   20.80
  -5  -1  -6  188.68   21.20
   5   1   6  193.68   19.80
   5   1   6  180.48   24.50
   5   1   6  133.99   23.30
  -5   1  -6  177.98   21.10
   6  -1   6   10.10    4.40
   6  -1   6   -0.90    6.90
  -6  -1  -6   17.30    6.00
   6  -1   6   11.20    3.80
  -6  -1  -6   18.20    5.30
   6   1   6   12.10    7.80
  -6   1  -6    8.00    4.00
  -6   1  -6   21.50    7.20
   6   1   6    9.30    6.50
  -7  -1  -6  844.82   72.69
   7  -1   6  732.03   78.09
   7  -1   6  729.43   75.79
   7  -1   6  658.33   71.99
  -7  -1  -6  871.81   73.49
  -7   1  -6  654.83   72.39
   7   1   6  854.31   78.89
   7   1   6  724.63   75.99
  -7   1  -6  811.62   74.49
   8  -1   6   28.80    7.70
   8  -1   6   65.59   12.10
  -8  -1  -6   49.30    8.70
   8  -1   6   28.90    7.00
   8  -1   6   43.50    9.20
  -8  -1  -6   66.49   10.40
   8   1   6   67.49   14.70
   8   1   6   41.60   11.40
  -8   1  -6   47.20    9.80
   9  -1   6   70.19   12.20
  -9  -1  -6   95.99   13.00
  -9   1  -6   87.19   13.90
   9   1   6  115.29   16.40
  10  -1   6   69.59   11.50
 -10  -1  -6   75.19   12.30
  10  -1   6   62.99   10.40
 -10  -1  -6   64.49   10.70
 -10   1  -6   67.49   10.70
  10   1   6   69.69   12.60
 -10   1  -6   45.60    9.60
  10   1   6   46.40   12.10
 -11  -1  -6   71.89    9.80
 -11  -1  -6   46.60    9.40
  11  -1   6   42.50    9.00
 -11   1  -6   59.89    9.50
 -11   1  -6   49.90    8.80
  11   1   6   51.29    9.30
  11   1   6   36.20    9.60
 -12  -1  -6   -1.40    2.30
  12  -1   6   -0.40    2.90
  12   1   6    0.20    4.20
 -12   1  -6    2.30    2.20
  12   1   6   -7.40    3.20
  13  -1   6   21.80    4.60
 -13  -1  -6   11.60    3.20
  13   1   6   17.40    4.10
 -13   1  -6   20.40    5.00
 -14  -2   6    0.90    2.40
  14  -2  -6    0.30    2.10
 -14  -2   6    0.80    1.70
  14  -2  -6   -0.20    1.80
  14   2  -6   -0.60    2.30
 -14   2   6   -1.90    1.80
  13  -2  -6   22.60    6.00
 -13  -2   6   30.70    5.30
 -13  -2   6   38.50    6.10
 -13  -2   6   45.90   11.90
  13  -2  -6   37.80    6.10
  13   2  -6   33.60    8.20
 -13   2   6   27.30    6.10
 -12  -2   6  176.18   19.50
 -12  -2   6  141.49   17.20
  12  -2  -6  152.38   19.60
  12  -2  -6  164.48   16.60
  12  -2  -6  178.48   18.00
 -12  -2   6  132.79   17.30
  12   2  -6  165.98   21.30
 -12   2   6  199.38   20.00
 -11  -2   6   69.99    9.70
  11  -2  -6   61.89   11.60
 -11  -2   6   72.59    9.90
 -11  -2   6   47.60   10.60
  11  -2  -6   67.19    8.90
 -11  -2   6   68.29   10.00
  11  -2  -6   61.29    9.60
  11   2  -6   43.40   11.10
 -11   2   6   68.19   11.70
  10  -2  -6 1234.18  111.09
  10  -2  -6  967.60  114.69
 -10  -2   6 1369.86  111.69
 -10   2   6 1088.39  111.59
  -9  -2   6  968.70   80.59
  -9  -2   6  862.01   78.49
   9  -2  -6  970.40   86.39
  -9  -2   6  754.22   79.99
   9  -2  -6  879.71   78.79
   9  -2  -6  681.53   80.39
   9  -2  -6  819.32   78.29
   9   2  -6  810.12   83.09
  -9   2   6  824.42   80.19
  -8  -2   6   20.20    5.60
  -8  -2   6   13.30    5.80
   8  -2  -6    4.80    5.20
   8  -2  -6   13.80    5.00
   8  -2  -6    4.40    3.50
  -8  -2   6    2.10    8.30
   8  -2  -6   11.80    3.90
   8  -2  -6    4.60    6.60
  -8  -2   6    5.40    3.20
  -8  -2   6    7.50    5.20
  -8   2   6    2.80    4.00
   8   2  -6    3.90    5.60
   7  -2  -6    8.10    3.70
   7  -2  -6   10.90    6.60
  -7  -2   6    8.10    7.20
   7  -2  -6    8.80    4.10
  -7  -2   6   10.60    5.30
   7  -2  -6   11.00    4.30
  -7  -2   6    7.20    5.30
   7  -2  -6    7.90    5.70
  -7  -2   6   17.90    5.80
  -7  -2   6    5.10    3.70
  -7   2   6    0.30    4.30
   7   2  -6    9.20    9.20
  -6  -2   6   90.69   13.20
   6  -2  -6   99.89   16.10
  -6  -2   6   90.89   21.20
   6  -2  -6   76.39   11.10
   6  -2  -6   80.29   10.40
   6  -2  -6  115.29   16.80
   6  -2  -6   67.89   13.30
  -6  -2   6   75.29   10.80
   6   2  -6   85.09   15.30
  -6   2   6   79.89   13.10
  -5  -2   6   13.00    5.30
   5  -2  -6    6.90    3.40
   5  -2  -6    9.90    6.70
  -5  -2   6   16.40    8.80
  -5  -2   6   14.30    5.60
   5  -2  -6    5.10    5.30
  -5  -2   6   12.70    3.80
  -5  -2   6   14.80    5.00
   5  -2  -6   11.80    4.20
   5  -2  -6    7.80    3.30
   5   2  -6   20.80    7.20
   4  -2  -6  377.76   34.70
   4  -2  -6  304.87   33.50
  -4  -2   6  321.57   33.60
  -4  -2   6  337.67   41.70
  -4  -2   6  338.87   35.50
   4  -2  -6  328.27   36.70
   4  -2  -6  372.16   38.00
  -4  -2   6  385.16   36.30
  -3  -2   6  469.25   40.70
  -3  -2   6  421.96   41.70
   3  -2  -6  353.36   42.60
  -3  -2   6  355.66   41.50
  -3  -2   6  405.36   48.40
   3  -2  -6  433.96   44.50
   3  -2  -6  425.46   41.00
   3  -2  -6  453.05   44.30
  -3  -2   6  481.75   43.00
  -3   2   6  412.26   39.70
  -2  -2   6  455.05   40.70
   2  -2  -6  393.56   40.90
   2  -2  -6  313.97   40.10
  -2  -2   6  385.86   39.50
  -2  -2   6  408.76   46.70
   2  -2  -6  423.76   39.00
   2  -2  -6  392.26   42.00
  -2  -2   6  427.06   38.90
  -2   2   6  387.66   37.60
  -1  -2   6  272.17   26.60
   1  -2  -6  221.48   27.10
   1  -2  -6  258.07   27.00
   1  -2  -6  249.88   28.70
  -1  -2   6  236.68   24.90
  -1  -2   6  275.37   27.10
  -1  -2   6  226.58   25.80
   1  -2  -6  262.77   25.60
  -1  -2   6  256.97   33.50
  -1   2   6  231.78   24.30
   0  -2  -6   53.19    8.10
   0  -2   6   61.99    9.10
   0  -2  -6   51.99    9.90
   0  -2   6   66.19    9.90
   0  -2  -6   57.89   11.00
   0  -2   6   57.19    8.90
   0  -2  -6   72.29    9.20
   0  -2   6   58.69   15.90
   0   2   6   53.39    7.60
   1  -2   6   55.49   14.50
   1  -2   6   77.59   10.80
  -1  -2  -6   79.49   10.20
  -1  -2  -6   87.69   12.30
   1  -2   6   81.19   10.80
  -1  -2  -6   74.49   10.80
   1  -2   6   77.49   10.80
  -1  -2  -6   85.39   12.80
   1   2   6   49.40   18.80
   1   2   6   98.79   10.40
  -2  -2  -6   -1.70    4.10
  -2  -2  -6    4.10    3.10
   2  -2   6   -2.40    2.30
  -2  -2  -6    0.40    3.50
   2  -2   6   -0.80    3.20
  -2  -2  -6   -5.60    3.30
   2  -2   6    0.50    3.10
   2  -2   6    3.70    6.60
   2   2   6    0.70    6.60
   2   2   6    1.90    2.60
  -2   2  -6   -9.10    4.10
   3  -2   6  182.68   21.40
   3  -2   6  222.08   22.40
   3  -2   6  225.78   23.10
  -3  -2  -6  205.28   23.50
  -3  -2  -6  190.18   23.90
   3  -2   6  226.08   25.60
   3  -2   6  198.18   29.80
  -3  -2  -6  217.68   22.20
   3  -2   6  226.48   23.20
  -3  -2  -6  163.38   21.60
   3   2   6  205.18   27.00
  -4  -2  -6   37.00    9.10
   4  -2   6   32.90    9.40
  -4  -2  -6   37.80    8.50
   4  -2   6   35.60    6.90
   4  -2   6   17.10    9.20
   4  -2   6   37.30    8.20
  -4  -2  -6   32.90    7.10
   4  -2   6   34.10    7.00
   4   2   6   27.80    9.60
  -4   2  -6   29.40    7.20
   5  -2   6  129.39   24.40
  -5  -2  -6  150.08   16.80
  -5  -2  -6  124.49   16.60
   5  -2   6  120.39   16.60
   5  -2   6  155.88   19.10
  -5  -2  -6  140.09   16.10
   5  -2   6  127.39   14.70
  -5   2  -6   98.39   15.80
   5   2   6  121.19   21.00
  -6  -2  -6   20.20    6.40
   6  -2   6    4.60    3.80
   6  -2   6    6.40    4.90
   6  -2   6    3.00    4.50
  -6  -2  -6    8.30    3.60
  -6  -2  -6    6.30    5.90
   6  -2   6    3.00    2.90
  -6  -2  -6    9.30    5.30
  -6   2  -6    1.30    3.70
   6   2   6    0.20    6.90
  -7  -2  -6  229.68   24.60
   7  -2   6  200.88   23.30
   7  -2   6  184.18   25.70
   7  -2   6  254.57   24.80
  -7  -2  -6  172.88   26.80
   7  -2   6  156.38   25.10
  -7  -2  -6  242.78   23.90
   8  -2   6   49.20    7.00
  -8  -2  -6   50.49    9.00
  -8  -2  -6   37.00    7.50
  -8  -2  -6   20.50    8.70
   8  -2   6   38.90    7.60
  -8  -2  -6   38.20    8.30
   8  -2   6   43.60    9.70
  -8   2  -6   39.60    7.90
   8   2   6   47.10   12.40
   9  -2   6    5.90    3.60
   9  -2   6    1.20    4.70
   9  -2   6    5.40    3.10
  -9  -2  -6    3.30    5.20
  -9  -2  -6    5.10    3.70
   9  -2   6    8.60    4.40
   9  -2   6    6.20    3.60
  -9   2  -6    8.90    4.00
   9   2   6    1.20    6.10
  10  -2   6    1.90    3.00
  10  -2   6   -3.90    2.10
  10  -2   6    1.90    3.50
 -10  -2  -6   -3.00    2.70
  10  -2   6    1.20    2.90
  10   2   6   -4.00    4.70
 -10   2  -6   -0.30    2.20
  11  -2   6   -2.40    3.50
 -11  -2  -6   -1.20    2.70
  11  -2   6    6.30    4.50
  11  -2   6    1.50    2.90
 -11  -2  -6    4.30    2.30
 -11   2  -6   -0.80    1.40
  11   2   6   -0.60    2.80
 -12  -3   6   57.29    7.40
  12  -3  -6   48.00    8.60
 -11  -3   6  239.08   22.50
  11  -3  -6  174.68   22.30
 -11  -3   6  206.58   22.30
  11  -3  -6  217.88   20.90
  11   3  -6  216.98   22.60
  10  -3  -6    5.00    5.50
 -10  -3   6    0.60    2.50
  10  -3  -6    7.70    3.10
 -10  -3   6    3.00    3.20
 -10  -3   6    7.10    3.70
 -10  -3   6    4.40    3.20
  -9  -3   6   42.30    9.90
   9  -3  -6   26.50    7.20
   9  -3  -6   48.50    7.60
   9  -3  -6   27.10    5.40
  -9  -3   6   39.50    8.30
   9   3  -6   39.40    8.10
   8  -3  -6   20.50    7.40
   8  -3  -6    8.00    5.50
  -8  -3   6   20.40    6.10
  -8  -3   6   23.00    5.80
   8  -3  -6   19.00    5.30
  -8  -3   6   12.60    4.70
  -8  -3   6   25.30    6.70
   7  -3  -6   64.49    9.40
  -7  -3   6   65.19    9.40
  -7  -3   6   46.10    9.80
  -7  -3   6   60.59   10.80
  -7  -3   6   30.20    8.70
   7  -3  -6   41.60   10.80
   7  -3  -6   46.60   11.10
  -6  -3   6   14.80    5.60
   6  -3  -6    8.20    6.50
   6  -3  -6    2.80    2.20
   6  -3  -6    8.80    5.90
  -6  -3   6   10.70    5.30
   6  -3  -6   13.60    4.80
  -6  -3   6    5.20   12.10
  -6  -3   6    6.00    3.90
  -6  -3   6    8.20    4.10
   6  -3  -6    6.30   11.10
  -5  -3   6   52.49   10.10
   5  -3  -6   20.70    7.80
  -5  -3   6   27.60    7.40
  -5  -3   6    2.30   13.60
   5  -3  -6   45.20   12.30
  -5  -3   6   27.30    7.10
   5  -3  -6   33.30    7.00
   4  -3  -6  242.58   25.90
  -4  -3   6  294.37   25.90
  -4  -3   6  283.77   28.40
   4  -3  -6  225.48   28.70
   4  -3  -6  201.18   27.70
   4  -3  -6  222.68   32.00
  -4  -3   6  196.88   34.30
  -4  -3   6  225.88   27.00
  -4  -3   6  234.78   26.60
  -3  -3   6  490.05   44.60
  -3  -3   6  430.86   43.50
   3  -3  -6  430.26   42.00
  -3  -3   6  424.56   53.09
  -3  -3   6  411.16   42.60
   3  -3  -6  378.76   44.20
   3  -3  -6  453.05   48.30
   3  -3  -6  370.56   45.10
   2  -3  -6   15.00    5.40
   2  -3  -6    5.40    6.50
  -2  -3   6    4.80   10.00
   2  -3  -6    4.10    6.50
  -2  -3   6    3.70    4.10
  -2  -3   6   -1.60    5.30
  -2  -3   6    8.80    4.90
  -2  -3   6   11.30    5.10
   2  -3  -6    7.80    5.50
  -2  -3   6   -9.90    5.70
  -1  -3   6  723.83   65.49
   1  -3  -6  640.94   66.89
  -1  -3   6  678.23   65.49
  -1  -3   6  606.04   65.49
  -1  -3   6  651.23   75.19
   1  -3  -6  667.23   68.19
   1  -3  -6  767.82   64.79
   0  -3   6  529.75   49.40
   0  -3   6  542.25   49.40
   0  -3  -6  490.95   48.20
   0  -3   6  475.15   50.19
   0  -3  -6  494.95   51.89
   0  -3  -6  437.26   51.39
   0  -3  -6  526.35   51.19
   0  -3   6  474.65   59.59
  -1  -3  -6   66.69   11.60
   1  -3   6   64.59   10.30
   1  -3   6   80.19   21.10
  -1  -3  -6   56.19    9.40
   1  -3   6   69.39   10.00
  -1  -3  -6   49.50   12.10
  -1  -3  -6   44.80   12.50
   1  -3   6   43.70   10.10
   2  -3   6   91.69   12.80
   2  -3   6   76.49   11.50
   2  -3   6   72.49   28.70
  -2  -3  -6   72.99   13.90
   2  -3   6   83.69   11.90
  -2  -3  -6   86.09   12.70
   2  -3   6   62.39   13.00
  -2  -3  -6   73.79   16.90
   3  -3   6  151.28   16.70
   3  -3   6  146.49   15.80
  -3  -3  -6  101.89   18.90
  -3  -3  -6  133.89   18.10
  -3  -3  -6  154.68   17.50
   3  -3   6  131.99   18.40
   3  -3   6  102.59   15.50
   4  -3   6   23.40    5.70
   4  -3   6   30.50    6.40
  -4  -3  -6   32.50    8.70
  -4  -3  -6   28.10    7.30
  -4  -3  -6   29.20   10.20
   4  -3   6   18.70    6.70
   5  -3   6  146.39   15.90
   5  -3   6  111.39   16.90
  -5  -3  -6  104.99   18.30
  -5  -3  -6  113.79   15.80
   5  -3   6  126.99   14.40
  -5  -3  -6  143.29   16.30
  -6  -3  -6   63.29   13.90
   6  -3   6   71.39   10.80
  -6  -3  -6   85.69   11.50
   6  -3   6   78.79   10.00
  -6  -3  -6   96.79   12.10
   6   3   6   55.49   13.20
  -7  -3  -6   22.50    7.50
   7  -3   6   19.90    5.70
  -7  -3  -6   24.90    6.00
   7  -3   6   15.90    4.60
   7  -3   6   16.00    4.80
   7   3   6   13.50    6.60
  -8  -3  -6   14.90    4.00
   8  -3   6   14.30    4.40
   8  -3   6   10.30    3.00
  -8  -3  -6    9.30    5.30
   8  -3   6    5.70    3.60
   8   3   6   -1.60    4.20
   9  -3   6   16.10    4.00
  -9  -3  -6   14.90    5.20
   9  -3   6   14.50    3.00
   7  -4  -6  110.69   12.10
  -7  -4   6  113.49   12.50
  -7  -4   6  103.49   12.70
  -6  -4   6    9.60    2.90
   6  -4  -6    9.90    3.90
   6  -4  -6   18.90    4.10
  -6  -4   6   14.00    3.80
  -5  -4   6   10.70    3.90
   5  -4  -6   10.10    3.50
   5  -4  -6    3.30    4.00
  -5  -4   6    4.50    3.70
   5  -4  -6    8.60    4.20
  -5  -4   6    9.10    3.40
  -4  -4   6   10.00    3.90
   4  -4  -6   17.10    5.00
   4  -4  -6    9.90    3.40
  -4  -4   6   15.20    4.50
   4  -4  -6    4.80    3.50
  -4  -4   6   13.40    3.70
   3  -4  -6   45.00    8.90
   3  -4  -6   58.09    9.50
  -3  -4   6   48.90    8.00
  -3  -4   6   56.99    7.90
   3  -4  -6   53.59    7.60
  -2  -4   6  148.59   14.80
   2  -4  -6  105.59   15.30
  -2  -4   6  128.29   14.20
   2  -4  -6  108.59   14.90
  -2  -4   6  142.59   15.30
   2  -4  -6  112.69   13.60
  -1  -4   6   54.89    7.70
   1  -4  -6   42.30    8.00
   1  -4  -6   28.90    6.50
   1  -4  -6   38.50    8.30
  -1  -4   6   42.10    7.60
  -1  -4   6   52.49    7.30
   0  -4  -6    6.50    4.50
   0  -4   6    5.60    3.50
   0  -4  -6    7.20    4.30
   0  -4   6    4.20    2.70
   0  -4   6    2.50    2.40
  -1  -4  -6  161.58   16.70
   1  -4   6  157.28   15.70
   1  -4   6  145.99   15.30
  -1  -4  -6  137.39   17.00
   1  -4   6  106.49   14.80
  -2  -4  -6  194.88   19.20
   2  -4   6  144.49   20.40
  -2  -4  -6  143.59   18.60
  -2  -4  -6  177.38   19.90
   2  -4   6  183.18   18.20
   2  -4   6  207.68   18.90
  -3  -4  -6   30.50    5.50
   3  -4   6   15.20    5.00
  -3  -4  -6   18.90    5.30
   3  -4   6   26.10    4.60
  -3  -4  -6   17.70    4.80
   4  -4   6   22.40    4.60
   4  -4   6   34.10    4.50
  -4  -4  -6   23.20    5.10
   4  -4   6   19.20    4.20
 -16   0   7   -2.10    1.30
  16   0  -7    1.70    2.00
  15   0  -7    5.30    2.60
  15   0  -7    2.20    3.20
 -15   0   7    7.40    2.90
 -15   0   7    3.80    2.10
 -14   0   7   -2.50    1.90
  14   0  -7    1.60    3.50
 -14   0   7   -2.30    2.50
  14   0  -7   -1.80    3.20
 -13   0   7  346.37   33.60
  13   0  -7  292.67   34.60
  13   0  -7  342.37   34.00
 -13   0   7  295.97   32.50
  12   0  -7    1.80    6.00
  12   0  -7    6.30    9.50
 -12   0   7   -0.10    4.70
 -12   0   7    4.60    4.10
  12   0  -7    0.90    5.00
  11   0  -7 6192.98  563.94
  11   0  -7 6834.32  565.44
  11   0  -7 6275.17  562.34
 -11   0   7 5785.22  561.64
 -10   0   7    2.00    3.10
  10   0  -7   -1.30    3.60
  10   0  -7    4.90    5.30
 -10   0   7    0.20    3.20
  10   0  -7   -6.40    4.50
  -9   0   7   15.90    5.00
   9   0  -7   27.00    8.20
   9   0  -7   39.10    9.50
   9   0  -7   22.40    7.10
  -9   0   7   29.90    7.20
   8   0  -7   -0.50    3.40
  -8   0   7    0.10    2.80
   8   0  -7    6.00    5.80
  -8   0   7   -2.40    2.20
   8   0  -7   -0.20    4.00
  -7   0   7  188.98   20.70
  -7   0   7  147.99   19.50
   7   0  -7  217.78   22.10
   7   0  -7  194.48   22.90
  -6   0   7   -3.70    2.20
  -6   0   7    3.20    3.60
  -5   0   7 2529.85  229.28
  -4   0   7    0.30    3.40
  -3   0   7 2900.01  262.37
  -2   0   7    5.40    4.70
  -1   0   7   56.39    7.90
  -1   0   7   75.89   12.50
   0   0   7    1.00    1.80
   2   0   7   -0.80    1.50
   3   0   7  392.66   41.70
   3   0   7  378.06   39.50
   3   0   7  373.46   37.50
  -3   0  -7  433.36   39.60
  -4   0  -7   -2.10    2.80
   4   0   7   -2.50    2.70
   4   0   7   -2.80    3.90
  -4   0  -7   -2.90    3.10
   4   0   7   -0.50    2.20
   5   0   7    1.90    5.20
   5   0   7   -5.30    2.20
   5   0   7   10.60    5.30
  -5   0  -7    2.20    3.60
   5   0   7   -1.80    3.60
  -5   0  -7   -1.40    2.80
  -6   0  -7   -1.70    3.00
   6   0   7   -1.10    6.70
   6   0   7   -7.90    3.20
  -6   0  -7   -4.80    2.80
   6   0   7   -3.00    5.60
   7   0   7  389.36   40.00
  -7   0  -7  257.87   33.10
  -7   0  -7  351.76   34.80
   7   0   7  320.67   36.20
   8   0   7   -6.40    9.10
   8   0   7    3.10    5.50
  -8   0  -7    6.10    4.10
  -8   0  -7    3.20    3.60
   8   0   7    4.40    5.40
   9   0   7  184.38   24.00
  -9   0  -7  183.48   22.50
  -9   0  -7  216.78   22.80
  10   0   7   -2.20    5.20
 -10   0  -7    2.90    3.40
 -10   0  -7    0.30    2.70
  10   0   7    1.10    3.80
 -11   0  -7   21.80    5.30
  11   0   7   17.90    8.80
  11   0   7   24.10    6.80
 -11   0  -7   20.10    7.80
 -12   0  -7    0.40    1.90
 -12   0  -7   -0.50    1.70
  12   0   7    0.20    4.10
  12   0   7   -0.70    2.70
  15  -1  -7   23.60    4.60
 -15   1   7   11.90    3.40
  15   1  -7   14.40    4.20
  15   1  -7   15.70    4.20
  14  -1  -7    9.30    3.60
  14  -1  -7   14.70    4.60
 -14  -1   7   15.50    4.20
 -14  -1   7   10.70    3.70
  14   1  -7   12.20    5.30
 -14   1   7   14.60    4.70
  14   1  -7    6.80    4.10
 -14   1   7   15.50    4.50
  13  -1  -7    4.60    3.80
 -13  -1   7    1.80    2.70
  13  -1  -7    0.20    3.90
 -13   1   7    2.50    6.40
 -13   1   7    7.40    4.20
  13   1  -7    5.40    4.80
  13   1  -7    0.20    4.80
 -12  -1   7   83.79   12.40
  12  -1  -7   93.69   12.40
 -12  -1   7   86.69   11.70
  12  -1  -7   76.19   12.20
 -12   1   7   78.09   12.30
 -12   1   7   56.99   11.50
  12   1  -7   49.10   11.50
  12   1  -7   79.99   13.20
  11  -1  -7  324.47   43.10
 -11  -1   7  413.16   40.10
 -11  -1   7  428.66   39.80
  11  -1  -7  324.47   40.00
  11  -1  -7  417.56   40.60
 -11   1   7  402.86   41.00
 -11   1   7  407.56   40.90
  11   1  -7  371.86   40.70
  11   1  -7  485.75   45.70
  10  -1  -7 2326.67  213.08
  10  -1  -7 2446.36  211.08
 -10  -1   7 2499.25  213.08
  10  -1  -7 2439.86  213.88
  10  -1  -7 2388.36  217.28
 -10  -1   7 2611.84  212.78
 -10   1   7 2426.96  213.88
  10   1  -7 2009.80  212.88
  10   1  -7 2219.68  216.68
 -10   1   7 2219.38  213.18
  10   1  -7 2145.89  213.08
  -9  -1   7  125.79   20.10
   9  -1  -7  139.59   20.30
   9  -1  -7  175.98   16.40
  -9  -1   7  146.49   16.80
   9  -1  -7   90.79   20.70
  -9  -1   7  162.48   16.90
   9  -1  -7  139.39   17.10
   9   1  -7  113.69   20.10
   9   1  -7  139.59   17.50
  -9   1   7  147.59   17.90
   9   1  -7  109.29   17.60
  -9   1   7  110.09   17.40
  -8  -1   7    4.10    2.80
  -8  -1   7    0.50    3.30
  -8  -1   7    2.50    2.60
   8  -1  -7    0.30    4.40
   8  -1  -7    1.90    3.20
   8  -1  -7    6.20    5.20
   8  -1  -7    1.80    4.50
   8  -1  -7   -0.50    2.50
  -8  -1   7   -4.10    4.60
   8   1  -7    3.00    4.70
  -8   1   7    3.00    3.30
  -8   1   7   -3.80    4.40
   7  -1  -7   -4.00    3.40
   7  -1  -7    4.80    3.80
   7  -1  -7   -4.70    2.70
  -7  -1   7    2.60    2.60
  -7  -1   7   -1.20    3.70
   7  -1  -7   -1.80    2.20
   7  -1  -7   -1.60    4.10
  -7  -1   7   -2.00    1.90
  -7  -1   7   -2.20    3.50
  -7   1   7   -1.10    3.20
   7   1  -7   -2.00    3.70
  -6  -1   7   16.10    5.30
   6  -1  -7   19.70    6.20
  -6  -1   7   10.90    4.90
  -6  -1   7   21.30    8.70
  -6  -1   7   27.90    6.50
   6  -1  -7   16.30    6.80
   6  -1  -7   11.50    5.50
  -6  -1   7   21.60    5.60
  -6  -1   7   21.70    5.50
   6  -1  -7   12.00    6.50
   6   1  -7   14.00    9.70
   5  -1  -7 2429.76  199.18
  -5  -1   7 2047.30  198.98
  -5  -1   7 2481.65  199.48
  -5  -1   7 2129.79  203.48
   5  -1  -7 1999.00  199.28
   5   1  -7 2129.19  202.18
  -4  -1   7  424.66   38.50
   4  -1  -7  319.77   37.70
  -4  -1   7  451.15   43.40
   4  -1  -7  431.66   39.90
  -4   1   7  343.77   37.90
   3  -1  -7  937.81   84.79
  -3  -1   7  968.10   89.09
  -3   1   7  813.22   82.89
  -2  -1   7 1994.30  183.48
   2  -1  -7 2071.99  179.18
  -2   1   7 1835.12  179.98
  -1  -1   7   69.19   14.00
   1  -1  -7   75.09   10.50
  -1   1   7   67.39    8.50
   0  -1   7   20.60    8.40
   0  -1  -7   33.10    6.90
   0   1   7   24.10    4.50
  -1  -1  -7 2982.60  263.77
   1  -1   7 2743.23  264.77
   1  -1   7 3183.68  270.87
  -1  -1  -7 2584.14  264.47
   1   1   7 3251.77  264.17
   2  -1   7  642.44   56.49
  -2  -1  -7  507.05   54.59
   2  -1   7  617.04   65.89
   2   1   7  660.33   54.49
  -2   1  -7  538.55   55.69
   2   1   7  523.95   57.49
  -3  -1  -7  272.27   29.20
  -3  -1  -7  292.17   27.70
   3  -1   7  270.97   33.00
   3  -1   7  316.07   32.10
  -3  -1  -7  236.68   27.20
   3  -1   7  256.87   27.90
  -3   1  -7  212.28   27.10
   3   1   7  279.37   26.50
   3   1   7  277.67   30.80
  -4  -1  -7  111.59   15.30
   4  -1   7  139.99   16.40
  -4  -1  -7  132.99   15.20
   4  -1   7  135.89   15.00
  -4  -1  -7  114.99   15.60
  -4  -1  -7  116.19   15.70
   4  -1   7  108.69   19.40
   4  -1   7  123.59   20.40
   4   1   7  122.59   14.10
   4   1   7  134.89   19.10
   4   1   7  108.19   18.20
  -4   1  -7  121.79   15.60
   5  -1   7   -6.00    5.30
   5  -1   7   -3.80    3.10
   5  -1   7  -10.90    6.00
   5  -1   7   -0.50    3.00
  -5  -1  -7    3.40    3.60
   5   1   7    1.80    5.80
  -5   1  -7   -2.50    3.00
  -5   1  -7  -11.30    4.50
   5   1   7   -0.80    6.50
  -6  -1  -7   29.80    7.10
   6  -1   7   32.30    6.10
  -6  -1  -7   24.50    6.20
   6  -1   7   30.10    7.90
   6  -1   7   21.10    6.00
  -6  -1  -7   16.40    5.40
   6  -1   7   16.20    8.00
   6   1   7   24.90    9.00
  -6   1  -7   15.80    7.00
  -6   1  -7   16.10    5.60
   7  -1   7 1029.30  105.49
  -7  -1  -7 1123.19  102.59
   7  -1   7  991.00  102.39
   7   1   7 1323.37  110.29
  -7   1  -7 1051.99  103.29
  -7   1  -7 1130.19  103.19
   7   1   7 1116.09  105.89
  -8  -1  -7  112.59   15.30
   8  -1   7  108.19   16.20
   8  -1   7  122.29   16.80
  -8   1  -7  113.69   15.20
   8   1   7   86.19   18.60
  -9  -1  -7   -4.30    3.40
   9  -1   7   -1.10    4.00
   9  -1   7    1.30    4.30
  -9  -1  -7    3.30    3.70
  -9   1  -7   -7.00    4.40
   9   1   7    0.40    5.50
   9   1   7   -9.20    4.80
  -9   1  -7    5.20    3.80
  10  -1   7   24.90    6.10
 -10  -1  -7   24.40    7.00
 -10  -1  -7   19.50    5.30
  10  -1   7   35.10    8.00
 -10   1  -7   22.60    6.40
  10   1   7   46.80   12.70
 -10   1  -7   26.80    5.90
  10   1   7   20.30    8.10
 -11  -1  -7   13.80    5.20
 -11  -1  -7   22.60    5.50
  11  -1   7   27.60    6.20
 -11   1  -7   28.40    8.20
  11   1   7   20.60    6.30
  11   1   7   20.80    7.60
  12  -1   7    8.60    3.10
 -12  -1  -7    9.90    3.10
  12   1   7    5.10    3.80
  12   1   7   -1.30    5.80
 -12   1  -7    7.80    2.70
  14  -2  -7    2.40    1.90
 -14  -2   7   -1.70    1.80
  14   2  -7   -0.70    2.10
 -14   2   7   -0.30    2.00
 -13  -2   7   26.80    5.00
  13  -2  -7   21.60    5.60
 -13  -2   7   30.70    5.40
  13  -2  -7   28.30    4.90
 -13  -2   7   31.20    6.50
 -13   2   7   25.10    6.00
  13   2  -7   40.80    8.10
  12  -2  -7    5.30    3.70
  12  -2  -7   13.50    3.70
 -12  -2   7    4.40    3.50
  12  -2  -7    7.50    3.20
 -12  -2   7    4.30    2.80
 -12   2   7    8.10    3.50
  12   2  -7    8.90    4.70
  11  -2  -7    5.40    3.00
 -11  -2   7   10.90    4.90
 -11  -2   7    4.30    3.20
 -11  -2   7   10.50    4.30
 -11  -2   7    6.90    4.50
  11  -2  -7   14.40    4.40
  11  -2  -7    7.60    4.40
 -11   2   7    6.10    3.90
  11   2  -7    6.20    4.30
 -10  -2   7  107.09   16.40
  10  -2  -7   92.69   16.90
 -10  -2   7  161.28   16.50
 -10  -2   7  134.19   15.70
 -10  -2   7  135.69   15.70
  10  -2  -7  129.89   15.00
  10  -2  -7  158.18   16.20
  10   2  -7  114.79   19.10
 -10   2   7  116.79   16.90
  -9  -2   7   22.10    6.00
  -9  -2   7   13.70    4.50
   9  -2  -7   12.70    4.20
   9  -2  -7   12.80    4.10
   9  -2  -7   16.00    7.50
  -9  -2   7   32.30    7.70
  -9  -2   7   19.40    6.90
  -9  -2   7   -2.30   12.80
   9  -2  -7   26.10    6.10
   9  -2  -7   26.90   11.30
   9   2  -7   15.30    7.30
  -9   2   7   17.00    5.70
   8  -2  -7   49.80   10.00
  -8  -2   7   57.99   12.10
   8  -2  -7   63.79   13.50
  -8  -2   7   87.99   11.20
  -8  -2   7   85.79   12.40
   8  -2  -7   73.59   10.70
   8  -2  -7   78.79   11.10
  -8  -2   7   58.49   10.20
   8   2  -7  107.69   15.90
  -8   2   7   73.19   12.40
  -7  -2   7    5.00    3.70
  -7  -2   7    4.10    3.00
   7  -2  -7    0.50    4.70
  -7  -2   7    2.70    3.30
   7  -2  -7    4.20    4.00
   7  -2  -7   -1.60    5.80
  -7  -2   7    1.50    4.00
   7  -2  -7    3.60    3.00
   7  -2  -7   -2.00    2.40
  -7  -2   7    3.90    9.90
  -7   2   7    2.70    3.80
   7   2  -7    7.00    5.80
   6  -2  -7  180.78   23.10
  -6  -2   7  192.98   22.30
  -6  -2   7  224.98   30.00
   6  -2  -7  206.68   21.00
   6  -2  -7  233.78   26.70
   6  -2  -7  142.89   19.70
  -6  -2   7  242.38   21.50
  -6   2   7  162.88   22.30
   6   2  -7  149.88   23.50
   5  -2  -7  354.96   34.60
  -5  -2   7  356.66   38.90
   5  -2  -7  399.36   40.20
  -5  -2   7  347.17   43.20
  -5  -2   7  332.07   34.40
   5  -2  -7  312.27   36.50
  -5   2   7  356.76   36.80
   5   2  -7  336.37   37.80
   4  -2  -7   40.60    9.50
   4  -2  -7   40.40    7.60
  -4  -2   7   38.70    6.90
  -4  -2   7   34.80    8.40
   4  -2  -7   51.49   11.70
   4  -2  -7   26.80    5.80
  -4  -2   7   26.50    7.20
  -4  -2   7   38.10   13.90
  -4  -2   7   22.20    6.30
  -4  -2   7   26.50    6.20
  -4   2   7   13.70    6.50
   4   2  -7   33.20    8.50
   3  -2  -7   95.09   11.20
  -3  -2   7   98.39   11.20
  -3  -2   7  104.49   13.10
   3  -2  -7   84.49   11.10
   3  -2  -7   81.29   14.20
  -3  -2   7   79.99   11.90
  -3  -2   7   64.49   17.10
   3  -2  -7   57.89   12.30
   3  -2  -7  103.19   19.00
  -3  -2   7   71.49   11.70
  -3  -2   7   91.89   11.00
  -2  -2   7   82.29   12.30
   2  -2  -7  122.09   17.10
  -2  -2   7  114.49   14.20
   2  -2  -7   95.39   14.50
  -2  -2   7  124.89   21.80
   2  -2  -7  133.79   13.90
  -2  -2   7  118.69   14.30
   2  -2  -7  106.79   13.10
  -2   2   7  112.29   12.80
   2   2  -7   99.59   16.70
  -2   2   7  128.69   25.20
  -1  -2   7    7.70    3.60
   1  -2  -7   -3.20    3.90
   1  -2  -7    0.40    2.60
  -1  -2   7    6.20    3.70
   1  -2  -7    9.40    3.60
  -1  -2   7   -1.50    2.60
  -1  -2   7    6.50    4.00
   1  -2  -7    7.30    4.70
  -1  -2   7   -0.30    6.00
   1  -2  -7    6.20    5.60
  -1   2   7    0.40    2.30
   1   2  -7   -3.80    5.10
   0  -2  -7  586.14   51.19
   0  -2   7  514.55   51.59
   0  -2   7  544.25   60.59
   0  -2   7  513.75   51.49
   0  -2  -7  455.15   52.39
   0  -2  -7  633.74   51.89
   0  -2  -7  505.65   54.29
   0   2   7  582.44   55.19
   0   2   7  500.75   50.49
  -1  -2  -7  748.83   71.49
   1  -2   7  842.12   72.19
  -1  -2  -7  633.14   73.59
   1  -2   7  652.13   71.29
   1  -2   7  813.72   81.89
   1  -2   7  735.63   71.69
  -1  -2  -7  777.02   71.79
  -1  -2  -7  878.41   73.99
   1  -2   7  882.11   73.39
   1   2   7  673.13   74.89
   2  -2   7   10.10    4.30
   2  -2   7   13.60    4.60
  -2  -2  -7   17.50    8.60
   2  -2   7   16.50    7.90
  -2  -2  -7   15.60    5.50
   2  -2   7   25.40   12.40
  -2  -2  -7   15.30    4.90
   2   2   7    2.80    6.30
  -2   2  -7   22.40    6.10
   3  -2   7    2.90    2.70
   3  -2   7    4.50    7.10
  -3  -2  -7    5.70    5.20
   3  -2   7    7.60    4.30
   3  -2   7   10.50    5.00
  -3  -2  -7    6.80    4.50
   3  -2   7    3.20    3.10
  -3  -2  -7    0.80    3.20
  -3   2  -7    7.80    4.90
   3   2   7    0.00    7.80
   4  -2   7    8.40    4.30
   4  -2   7    6.00    8.50
   4  -2   7   11.40    5.80
   4  -2   7    7.10    3.60
  -4  -2  -7    7.80    4.40
   4  -2   7    7.50    4.10
  -4  -2  -7    8.50    5.10
  -4  -2  -7    7.80    4.60
   4  -2   7    1.80    3.40
   4   2   7    5.70    6.20
  -4   2  -7    0.20    3.70
  -5  -2  -7   -2.30    3.90
   5  -2   7   -0.90    2.50
  -5  -2  -7    0.30    2.60
   5  -2   7   -1.20    3.30
   5  -2   7    2.60    3.30
   5  -2   7   -2.10    3.90
  -5  -2  -7    4.50    4.00
   5  -2   7    0.50    8.50
   5   2   7    0.90    6.40
  -5   2  -7   -5.50    3.20
   6  -2   7  395.36   35.00
   6  -2   7  315.87   36.10
  -6  -2  -7  381.06   36.10
  -6  -2  -7  382.86   38.10
  -6  -2  -7  377.66   36.50
   6  -2   7  352.26   35.80
   6  -2   7  306.57   37.20
   6   2   7  335.27   42.70
  -6   2  -7  299.87   37.00
   7  -2   7  643.04   54.79
  -7  -2  -7  631.54   56.49
   7  -2   7  525.35   57.39
  -7  -2  -7  689.83   56.19
  -7  -2  -7  601.14   56.69
  -7  -2  -7  506.95   60.39
   7  -2   7  525.45   55.99
   7  -2   7  521.85   56.29
  -7   2  -7  580.64   56.79
   7   2   7  594.04   62.29
   8  -2   7    4.00    3.90
   8  -2   7   -9.00    5.90
   8  -2   7    5.10    3.60
   8  -2   7    1.50    4.00
  -8  -2  -7    2.30    3.50
  -8  -2  -7    0.60    4.40
   8  -2   7    5.20    3.20
  -8  -2  -7    6.50    3.90
  -8   2  -7    5.00    3.50
   8   2   7    2.30    4.30
   9  -2   7  158.88   14.90
  -9  -2  -7  167.08   16.60
  -9  -2  -7  133.49   18.80
   9  -2   7  125.69   19.30
  -9   2  -7  123.29   20.00
   9   2   7  138.39   20.90
  10  -2   7   29.50    5.30
 -10  -2  -7   45.10    6.00
 -10  -2  -7   17.20    5.80
  10  -2   7   31.20    5.00
  10   2   7   19.00    6.40
 -10   2  -7   47.00    6.60
 -11  -2  -7    4.20    1.70
  11   2   7    3.60    4.20
 -11   2  -7    1.60    1.60
 -12  -3   7   10.70    2.90
  12  -3  -7   11.70    3.40
  11  -3  -7   26.80    4.20
  11  -3  -7   11.20    3.60
 -11  -3   7   17.80    4.10
 -11  -3   7   25.80    4.70
  11   3  -7   15.60    6.00
 -10  -3   7   24.30    5.60
 -10  -3   7   41.40    6.40
 -10  -3   7   31.60    6.70
  10  -3  -7   35.20    5.80
  10  -3  -7   18.70    5.20
  10   3  -7   25.60    6.50
  -9  -3   7  234.68   25.50
  -9  -3   7  322.07   31.90
   9  -3  -7  245.68   24.50
   9  -3  -7  236.18   25.70
   9  -3  -7  201.68   25.90
  -9  -3   7  251.47   24.50
   9   3  -7  225.48   25.70
  -8  -3   7   56.69    8.60
   8  -3  -7   70.29    9.70
   8  -3  -7   57.99   11.60
  -8  -3   7   54.09   10.50
   8  -3  -7   52.49   10.50
  -8  -3   7   52.39   10.10
  -7  -3   7   19.80    5.70
   7  -3  -7   17.40    6.70
  -7  -3   7   25.40    7.00
  -7  -3   7   32.20    7.50
   7  -3  -7   40.60    7.60
  -7  -3   7   37.10    6.70
   7  -3  -7   21.70    8.00
   6  -3  -7  116.09   17.30
   6  -3  -7  136.39   15.90
  -6  -3   7  113.79   16.20
  -6  -3   7  129.59   16.80
  -6  -3   7  123.49   15.90
  -6  -3   7  146.29   15.50
   6  -3  -7  111.59   18.20
  -5  -3   7   84.89   10.70
   5  -3  -7   59.79   14.20
  -5  -3   7   66.29   12.10
  -5  -3   7  100.89   13.70
   5  -3  -7   84.49   11.70
   5  -3  -7   60.89   12.60
  -5  -3   7   74.29   12.10
   4  -3  -7   45.30   11.60
   4  -3  -7   78.39   22.10
  -3  -3   7  417.16   61.09
  -3  -3   7  529.85   46.10
  -3  -3   7  427.26   45.40
   3  -3  -7  405.16   46.60
   3  -3  -7  508.05   44.90
   3  -3  -7  418.36   48.20
   2  -3  -7  577.04   60.69
   2  -3  -7  639.74   58.59
   2  -3  -7  586.34   62.19
  -2  -3   7  648.64   59.79
  -2  -3   7  622.64   70.99
  -2  -3   7  585.04   59.09
  -1  -3   7   43.10    9.30
  -1  -3   7   61.19    9.70
   1  -3  -7   49.50   12.90
   1  -3  -7   45.80   10.90
  -1  -3   7   52.99   19.60
  -1  -3   7   65.09   10.90
   1  -3  -7   55.99    8.90
   0  -3  -7  358.76   45.40
   0  -3   7  456.85   44.00
   0  -3  -7  457.15   46.00
   0  -3   7  407.66   43.30
   0  -3   7  502.65   46.80
   1  -3   7  165.08   21.70
   1  -3   7  197.78   23.60
   1  -3   7  189.88   20.70
  -1  -3  -7  202.18   23.40
   1  -3   7  181.28   23.70
  -1  -3  -7  143.39   24.90
  -1  -3  -7  142.49   22.70
  -1  -3  -7  159.18   19.00
  -2  -3  -7   14.40    8.30
   2  -3   7   16.80    5.40
   2  -3   7   13.90    5.40
  -2  -3  -7   21.30    7.90
   2  -3   7   22.70    6.20
   2  -3   7   19.60    7.80
  -2  -3  -7   26.30    7.90
   3  -3   7   21.20    5.60
  -3  -3  -7   31.30    8.60
  -3  -3  -7   37.90    8.50
  -3  -3  -7   24.90    9.70
   3  -3   7   34.00    9.90
   3  -3   7   30.90    6.90
   4  -3   7   12.40    5.90
  -4  -3  -7   15.60    5.60
   4  -3   7   10.00    4.10
  -4  -3  -7   12.50    6.30
   4  -3   7   11.80    3.80
  -4  -3  -7   14.30    5.60
   4   3   7  -17.80   10.10
   5  -3   7   49.70    7.20
   5  -3   7   53.89    8.90
  -5  -3  -7   61.29    9.80
  -5  -3  -7   36.90   10.70
   5  -3   7   30.10    8.30
  -5  -3  -7   56.59    9.30
   6  -3   7    9.50    4.70
  -6  -3  -7   17.90    5.10
   6  -3   7   13.20    4.60
  -6  -3  -7   18.80    5.30
  -6  -3  -7   11.30    6.10
   6  -3   7   12.70    4.30
   6   3   7   16.00    7.00
  -7  -3  -7   -0.30    3.30
   7  -3   7    3.50    3.40
   7  -3   7    0.70    3.30
  -7  -3  -7   -0.50    2.60
   7  -3   7    3.60    2.20
  -7  -3  -7    1.30    3.10
   7   3   7    2.20    4.50
   8  -3   7   81.79    9.40
   8  -3   7   90.89   11.00
  -8  -3  -7   90.19   12.50
   8   3   7   96.59   16.50
  -6  -4   7    1.10    3.20
  -6  -4   7    7.00    2.70
  -6  -4   7    6.60    3.20
   6  -4  -7    6.60    2.70
   6  -4  -7    4.50    2.90
   5  -4  -7   93.89   12.20
   5  -4  -7   91.79   11.00
   5  -4  -7   92.69   11.40
  -5  -4   7  104.99   11.40
  -5  -4   7  105.79   10.90
   4  -4  -7  105.09   13.40
  -4  -4   7  102.39   12.00
   4  -4  -7  114.19   12.40
  -4  -4   7  101.59   12.60
  -4  -4   7  131.09   13.70
   4  -4  -7  112.69   13.60
   3  -4  -7    9.20    4.20
  -3  -4   7    5.50    3.00
   3  -4  -7    8.70    3.20
   3  -4  -7    6.80    4.60
  -3  -4   7    8.70    3.20
  -3  -4   7   12.50    4.20
   2  -4  -7   40.50    8.30
  -2  -4   7   43.10    7.20
  -2  -4   7   37.90    6.30
   2  -4  -7   25.80    6.30
   2  -4  -7   36.20    7.00
  -2  -4   7   44.80    6.50
   1  -4  -7  100.59   12.20
  -1  -4   7   89.89   11.40
  -1  -4   7   96.79   11.10
  -1  -4   7  107.39   11.40
   1  -4  -7   75.19   10.70
   1  -4  -7   89.29   12.60
   0  -4   7   53.39   10.30
   0  -4  -7   73.49   10.00
   0  -4   7   87.89    9.60
   0  -4  -7   64.89   10.50
   0  -4   7   68.29    8.80
  -1  -4  -7   63.29    8.70
  -1  -4  -7   49.00    8.50
   1  -4   7   49.40    7.20
   1  -4   7   54.09    7.80
  -2  -4  -7   17.00    4.70
   2  -4   7   18.90    3.70
   2  -4   7   20.70    4.50
   2  -4   7   18.10    5.00
  -3  -4  -7    8.50    3.50
   3  -4   7    6.00    3.30
   3  -4   7    4.40    2.20
  -3  -4  -7    2.90    4.10
   3  -4   7   -1.40    3.00
 -16   0   8   14.20    2.90
  16   0  -8   18.50    3.60
 -15   0   8   -0.70    2.00
  15   0  -8    0.20    1.90
  15   0  -8   -2.60    2.30
 -15   0   8    0.80    1.50
  14   0  -8   28.30    6.90
  14   0  -8   34.30    8.10
 -14   0   8   49.20    8.10
 -14   0   8   41.50    6.50
 -14   0   8   42.90    9.20
 -13   0   8   -0.80    2.20
  13   0  -8    1.40    3.60
 -13   0   8    1.70    3.30
  13   0  -8   -3.20    3.30
 -12   0   8  247.28   26.60
  12   0  -8  246.58   27.50
 -12   0   8  251.57   27.30
  12   0  -8  224.88   28.70
 -11   0   8    9.30    4.50
  11   0  -8   13.30    5.80
  11   0  -8   23.00    6.10
  11   0  -8   14.40    7.70
  10   0  -8   66.89   13.90
 -10   0   8   97.89   13.10
  10   0  -8   89.69   13.50
 -10   0   8   91.69   13.60
  -9   0   8   -2.00    2.70
  -9   0   8   -3.80    2.50
   9   0  -8   -1.90    3.20
   9   0  -8    2.00    6.00
   9   0  -8   -3.80    3.20
  -8   0   8   89.79   12.60
   8   0  -8  101.39   15.30
  -8   0   8   69.99   11.30
   8   0  -8   90.09   13.80
   8   0  -8   87.59   12.80
  -7   0   8   -4.90    4.50
   7   0  -8   -6.10    2.90
  -7   0   8   -3.10    2.60
  -7   0   8   -1.20    2.40
   7   0  -8   -2.60    3.60
   7   0  -8   -2.70    3.80
  -6   0   8  402.26   38.20
  -6   0   8  337.77   38.00
   6   0  -8  392.06   39.60
  -5   0   8   -1.20    2.40
   5   0  -8    9.70    4.90
  -5   0   8   -5.60    2.60
  -5   0   8   -0.30    4.10
   5   0  -8   -1.00    3.00
  -4   0   8  367.46   41.60
  -4   0   8  494.25   44.20
   4   0  -8  408.06   43.50
  -3   0   8   -3.90    3.10
  -2   0   8  141.79   18.80
  -1   0   8    0.20    4.40
  -1   0   8   -1.00    1.60
   0   0  -8 3398.76  314.57
   0   0   8 2962.50  306.27
   0   0   8 3922.61  312.37
   1   0   8   -0.20    3.40
   1   0   8   10.10    5.70
  -1   0  -8    0.60    3.00
   1   0   8   -0.80    1.70
   2   0   8  108.39   14.50
  -2   0  -8   66.39   10.10
  -2   0  -8   78.59   11.50
   2   0   8   89.29   12.10
   2   0   8   65.39    9.50
   3   0   8   -4.40    1.90
   3   0   8    0.20    3.60
  -3   0  -8   -1.60    2.50
  -3   0  -8   -0.40    2.80
   3   0   8   -0.70    4.00
   4   0   8   71.49   11.00
  -4   0  -8   47.90    9.60
   4   0   8   49.20   11.50
  -4   0  -8   59.49   10.00
  -5   0  -8    1.30    3.60
   5   0   8   -5.90    4.60
  -5   0  -8   -2.40    2.90
   6   0   8    8.00    6.60
   6   0   8   17.60   13.50
   6   0   8   15.30    7.40
  -6   0  -8   11.90    5.90
  -6   0  -8    9.10    4.80
   7   0   8    3.80    5.30
  -7   0  -8    2.10    3.50
   7   0   8    9.30    8.10
  -7   0  -8    1.80    3.60
   7   0   8    6.40    5.70
   8   0   8  141.09   22.30
  -8   0  -8  145.99   20.30
  -8   0  -8  118.09   16.70
   8   0   8  116.29   18.80
   9   0   8   -3.30    4.90
  -9   0  -8    0.60    3.10
  -9   0  -8    3.30    3.20
   9   0   8    1.40    3.90
  10   0   8   39.60    8.80
 -10   0  -8   42.40    8.40
  10   0   8   55.29   11.70
 -10   0  -8   60.29    9.20
 -11   0  -8   -1.70    2.20
  11   0   8    1.20    3.90
 -11   0  -8    1.30    2.40
  11   0   8    0.60    3.20
  12   0   8    2.50    2.30
 -12   0  -8   -3.30    2.40
 -12   0  -8   -2.10    1.60
  15  -1  -8    5.70    2.40
 -15  -1   8    5.10    2.20
 -15  -1   8    6.30    2.60
 -15   1   8    9.10    3.10
  15   1  -8    6.50    3.20
 -14  -1   8    0.50    3.60
  14  -1  -8    3.90    4.40
 -14  -1   8   -1.00    2.00
 -14   1   8    2.30    3.00
 -14   1   8    1.80    3.60
  14   1  -8   -3.40    2.80
  13  -1  -8    2.20    3.40
 -13  -1   8   -2.20    2.60
 -13  -1   8    2.50    3.00
 -13   1   8   -1.40    3.00
  13   1  -8   -1.00    3.50
  13   1  -8   -2.20    3.80
 -13   1   8    3.10    3.50
  12  -1  -8  413.16   41.20
  12  -1  -8  347.17   40.30
 -12  -1   8  447.66   41.00
 -12  -1   8  388.56   40.40
  12   1  -8  445.46   41.90
 -12   1   8  402.46   41.40
  12   1  -8  415.46   44.10
 -12   1   8  405.16   41.70
  11  -1  -8  976.10   93.29
 -11  -1   8  962.30   92.09
 -11   1   8  942.31   93.49
 -11   1   8  933.31   93.89
  11   1  -8 1129.19   97.99
 -10  -1   8  938.21   78.09
  10  -1  -8  686.23   74.99
 -10  -1   8  677.83   76.39
  10  -1  -8  819.52   77.59
  10  -1  -8  698.53   77.09
  10  -1  -8  924.81   82.89
 -10  -1   8  875.81   77.39
  10   1  -8  807.52   78.49
 -10   1   8  880.51   78.79
 -10   1   8  867.61   78.39
  10   1  -8  850.01   78.29
   9  -1  -8    6.70    5.10
   9  -1  -8    6.60    7.70
   9  -1  -8    8.90    4.10
  -9  -1   8    5.30    4.00
  -9  -1   8   10.70    5.00
   9  -1  -8    4.60    5.40
   9  -1  -8   11.90    5.10
  -9  -1   8   14.90    4.80
  -9   1   8   13.90    6.40
   9   1  -8    9.20    5.40
  -9   1   8   11.30    4.80
   9   1  -8   13.00    6.70
   8  -1  -8   -0.30    4.50
   8  -1  -8    5.00    3.70
  -8  -1   8   -1.80    5.50
  -8  -1   8    0.40    3.70
   8  -1  -8   -0.50    2.50
   8  -1  -8    1.20    5.50
  -8  -1   8    0.20    3.10
   8  -1  -8   -2.00    4.00
  -8  -1   8    1.10    2.70
   8   1  -8   -0.90    4.20
  -8   1   8    0.80    3.10
   8   1  -8    5.40    5.40
   7  -1  -8   16.10    6.50
  -7  -1   8   36.10    7.40
   7  -1  -8   22.70    5.70
  -7  -1   8   27.20    8.90
   7  -1  -8   28.10    5.80
   7  -1  -8   24.10    7.90
  -7  -1   8   24.20    6.30
  -7  -1   8   26.90    6.00
  -7  -1   8   26.10    6.40
   7  -1  -8   34.50    8.10
  -7   1   8   15.30    5.60
   7   1  -8   26.40    8.50
   7   1  -8   19.10    7.80
   6  -1  -8    4.50    3.40
  -6  -1   8   -5.80    3.30
  -6  -1   8   -3.60    4.20
   6  -1  -8    2.30    3.50
  -6  -1   8    4.70    2.80
  -6  -1   8    2.20    2.70
   6  -1  -8    1.30    2.60
   6  -1  -8    1.50    5.20
  -6  -1   8   -3.50    2.90
   6   1  -8   -2.10    3.80
  -5  -1   8 1482.35  142.99
   5  -1  -8 1541.05  142.09
  -5  -1   8 1749.82  148.19
  -5  -1   8 1563.84  141.49
   5  -1  -8 1334.07  142.49
  -5  -1   8 1547.35  141.89
   5  -1  -8 1741.63  144.69
  -5   1   8 1568.54  142.99
   5   1  -8 1632.94  144.89
  -5   1   8 1423.26  141.99
   4  -1  -8 2524.95  248.38
   4  -1  -8 2977.10  243.08
   4  -1  -8 2626.34  245.28
   4  -1  -8 2633.84  243.38
  -4   1   8 2850.81  245.38
   4   1  -8 2549.65  245.38
  -3  -1   8   10.90    7.60
  -3  -1   8   13.50    4.70
   3  -1  -8   10.00    5.50
  -3   1   8    4.80    3.90
   3   1  -8    6.10    5.00
  -3   1   8    7.40    3.00
  -2  -1   8    2.80    7.80
  -2  -1   8    1.20    3.60
   2  -1  -8    4.90    3.80
  -2  -1   8    3.50    3.70
   2  -1  -8    0.20    2.90
   2  -1  -8   -5.60    4.20
  -2   1   8    0.90    3.50
  -2   1   8    1.30    2.00
   2   1  -8    2.50    4.20
  -1  -1   8  451.85   48.10
   1  -1  -8  504.35   43.10
  -1  -1   8  430.16   46.00
  -1   1   8  348.87   43.10
   1   1  -8  459.75   44.20
  -1   1   8  402.76   41.00
   0  -1   8  178.18   21.00
   0  -1  -8  119.29   16.90
   0  -1   8  145.69   21.90
   0  -1  -8  172.28   18.70
   0  -1  -8  141.29   16.90
   0  -1  -8  136.29   16.60
   0  -1  -8  136.79   16.30
   0  -1   8  135.99   16.20
   0   1   8  160.38   16.00
   0   1   8  165.38   19.40
   0   1  -8  140.39   17.80
   1  -1   8  494.45   40.90
   1  -1   8  429.86   44.20
   1  -1   8  466.35   47.70
  -1  -1  -8  489.25   41.60
   1  -1   8  442.46   42.40
   1  -1   8  348.47   39.80
  -1  -1  -8  479.65   42.10
   1  -1   8  357.66   40.70
  -1  -1  -8  345.77   41.80
  -1  -1  -8  376.16   40.80
  -1  -1  -8  441.96   41.40
  -1   1  -8  453.35   42.60
   1   1   8  403.16   40.20
   1   1   8  370.46   43.00
  -2  -1  -8  526.25   58.49
   2  -1   8  638.84   64.89
   2  -1   8  535.05   56.89
   2  -1   8  650.13   58.89
   2  -1   8  601.04   57.49
  -2  -1  -8  605.44   58.29
  -2  -1  -8  659.93   58.89
   2   1   8  715.83   57.99
   2   1   8  669.03   62.09
  -2   1  -8  550.34   58.69
  -3  -1  -8   94.59   12.70
  -3  -1  -8   95.09   11.90
   3  -1   8   89.49   12.40
   3  -1   8   71.09   10.30
   3  -1   8  106.39   16.80
   3  -1   8   64.69   11.60
   3  -1   8   85.49   16.90
   3   1   8   83.09   16.20
  -3   1  -8   69.39   11.20
   3   1   8   87.49   14.90
   4  -1   8    0.60    3.50
   4  -1   8    4.20    4.00
   4  -1   8    1.20    4.20
   4  -1   8   10.80    7.40
  -4  -1  -8    4.00    4.40
  -4  -1  -8    6.70    4.50
  -4  -1  -8    9.80    4.50
   4  -1   8   -4.90    6.70
  -4   1  -8   -4.40    5.40
   4   1   8    2.00    6.10
   5  -1   8  541.85   49.20
   5  -1   8  452.15   52.39
  -5  -1  -8  532.45   49.20
   5  -1   8  500.65   50.69
   5  -1   8  512.65   56.69
  -5  -1  -8  480.85   49.20
  -5   1  -8  500.95   50.29
  -5   1  -8  477.35   49.60
   5   1   8  544.65   54.89
   5   1   8  423.46   54.99
  -6  -1  -8   30.80    7.60
   6  -1   8   13.70    5.50
   6  -1   8   30.90    9.00
   6  -1   8    8.40    9.90
  -6  -1  -8   29.00    7.50
  -6  -1  -8   30.60    7.10
   6   1   8   17.20    7.90
   6   1   8   33.40    9.80
  -6   1  -8   20.40    7.30
  -7  -1  -8 1255.87  122.49
   7  -1   8 1566.74  125.49
  -7  -1  -8 1510.75  122.59
   7   1   8 1304.67  127.69
   7   1   8 1117.29  124.39
  -7   1  -8 1110.89  124.19
  -7   1  -8 1378.06  123.29
  -8  -1  -8  427.16   44.20
  -8  -1  -8  488.05   45.80
   8  -1   8  459.45   45.40
   8  -1   8  455.95   46.80
  -8   1  -8  487.45   45.90
   8   1   8  416.56   49.50
   8   1   8  497.05   48.10
  -8   1  -8  414.56   45.10
  -9  -1  -8   16.10    5.10
   9  -1   8   18.90    6.00
   9  -1   8   19.00    5.60
  -9   1  -8    7.50    5.50
   9   1   8   15.20    7.20
  -9   1  -8   23.60    5.60
  10  -1   8    8.10    3.90
 -10  -1  -8   20.80    5.50
 -10  -1  -8   10.40    4.60
  10   1   8   21.30    5.30
 -10   1  -8   17.70    4.60
  10   1   8   10.20    5.00
 -10   1  -8   13.40    4.50
 -11  -1  -8   61.09    7.60
  11  -1   8   50.69    7.90
 -11   1  -8   58.59    7.50
  11   1   8   34.30    7.30
  11   1   8   31.70    8.20
 -14  -2   8   29.30    4.50
 -14  -2   8   33.00    4.90
 -14   2   8   37.20    5.90
 -13  -2   8   92.99   11.70
  13  -2  -8   93.79   10.70
 -13  -2   8   96.29   11.40
  13   2  -8  124.19   14.50
 -13   2   8   95.59   12.50
 -12  -2   8  500.55   50.09
  12  -2  -8  487.15   49.99
 -12  -2   8  450.95   48.80
  12  -2  -8  598.44   51.99
  12  -2  -8  529.95   48.20
  12  -2  -8  528.25   50.49
  12   2  -8  590.84   53.49
  11  -2  -8    0.80    3.80
 -11  -2   8    3.00    3.10
 -11  -2   8   -4.60    3.50
  11  -2  -8    2.40    2.80
 -11  -2   8    7.10    4.00
  11  -2  -8   -1.40    2.20
  11   2  -8    4.90    4.50
 -11   2   8    4.50    3.60
  10  -2  -8  344.37   32.90
  10  -2  -8  351.96   32.40
 -10  -2   8  296.27   32.50
 -10  -2   8  321.37   33.90
  10  -2  -8  306.37   34.50
 -10   2   8  332.67   35.10
  -9  -2   8  102.29   14.60
   9  -2  -8  109.09   16.50
  -9  -2   8   57.09   20.40
   9   2  -8  130.99   21.90
   8  -2  -8   35.90    8.90
  -8  -2   8   32.10    8.00
   8  -2  -8   33.80    6.90
   8  -2  -8   43.20    7.90
  -8  -2   8   46.00    8.00
  -8  -2   8   39.80    7.90
   8  -2  -8   29.40   10.30
   8   2  -8   27.10    9.20
  -8   2   8   34.30    8.60
  -7  -2   8  151.38   16.20
  -7  -2   8   84.09   21.90
   7  -2  -8  129.79   21.10
   7  -2  -8  111.99   16.70
   7  -2  -8  157.18   16.50
  -7  -2   8  107.69   16.40
   7  -2  -8  135.59   15.80
  -7   2   8  135.09   17.80
   7   2  -8  128.59   18.80
  -6  -2   8  140.69   14.70
  -6  -2   8  105.49   15.30
  -6  -2   8  115.69   14.50
  -6  -2   8  110.29   22.60
   6  -2  -8  122.89   14.70
   6  -2  -8  138.79   15.40
   6  -2  -8   98.29   15.50
   6  -2  -8  163.88   28.00
   6   2  -8  115.29   17.80
  -6   2   8   96.09   16.30
   5  -2  -8   17.30    4.80
   5  -2  -8   21.20    5.80
  -5  -2   8   10.50    4.70
  -5  -2   8   13.60    4.50
  -5  -2   8   16.30    4.90
  -5  -2   8    4.80    6.70
   5  -2  -8   17.50    6.80
   5  -2  -8    5.40    7.60
  -5  -2   8   25.40    7.20
  -4  -2   8   92.19   11.20
  -4  -2   8  119.89   14.00
  -4  -2   8   80.69   12.50
   4  -2  -8   91.89   12.20
   4  -2  -8   84.29   13.50
   4  -2  -8   83.49   11.60
  -4  -2   8   53.99   15.50
   4  -2  -8   96.69   17.00
  -4  -2   8   92.69   12.90
   4   2  -8   57.39   12.60
  -4   2   8   94.99   14.60
  -3  -2   8  252.67   25.60
  -3  -2   8  282.67   27.40
   3  -2  -8  236.28   28.90
  -3  -2   8  259.07   34.80
   3  -2  -8  238.78   29.10
  -3  -2   8  233.18   26.10
   3  -2  -8  281.57   25.90
   3  -2  -8  222.98   25.60
   3   2  -8  185.98   26.80
  -3   2   8  207.08   27.40
   2  -2  -8  380.76   41.10
  -2  -2   8  286.67   43.30
  -2  -2   8  360.06   35.80
   2  -2  -8  329.07   38.50
  -2  -2   8  367.06   38.80
  -2  -2   8  383.46   40.20
   2  -2  -8  397.66   40.90
  -2  -2   8  417.76   39.40
   2  -2  -8  363.06   35.90
   2  -2  -8  342.57   38.40
   2   2  -8  378.36   38.80
  -2   2   8  364.46   39.40
  -1  -2   8  390.36   43.80
  -1  -2   8  313.57   33.40
   1  -2  -8  336.67   37.20
  -1  -2   8  303.67   32.00
   1   2  -8  297.07   34.00
  -1   2   8  318.77   35.90
   0  -2  -8  321.57   37.70
   0  -2   8  374.06   45.30
   0  -2  -8  378.36   36.20
   0  -2   8  335.47   35.20
   0  -2  -8  325.37   36.20
   0  -2  -8  367.96   35.60
   0  -2   8  373.36   35.40
   0   2  -8  345.97   36.40
   0   2   8  329.17   38.50
   1  -2   8   71.99   10.60
   1  -2   8   57.19    9.60
  -1  -2  -8   63.59   10.00
  -1  -2  -8   60.39   12.80
   1  -2   8   68.99   19.40
   1  -2   8   76.29   11.10
  -1  -2  -8   68.49   10.00
  -1  -2  -8   59.49   10.50
   1  -2   8   62.79    9.60
  -1   2  -8   47.80   10.10
   2  -2   8   62.79    9.20
   2  -2   8   57.59    8.70
  -2  -2  -8   39.30    7.90
  -2  -2  -8   60.09   12.20
   2  -2   8   62.59   10.10
  -2  -2  -8   44.80    8.90
   2  -2   8   49.50    9.50
  -2  -2  -8   69.39   10.70
  -2   2  -8   36.20    8.60
   2   2   8   46.10   11.60
   3  -2   8   14.80    4.80
  -3  -2  -8   16.10    4.90
   3  -2   8    8.70    8.80
   3  -2   8   12.30    5.50
   3  -2   8   15.90    4.90
  -3  -2  -8   15.00    5.80
  -3  -2  -8   17.00    6.90
   3  -2   8   22.40    6.30
  -3   2  -8   23.80    6.10
   3   2   8   11.80    7.70
   4  -2   8    1.00    3.60
  -4  -2  -8    1.20    3.40
   4  -2   8    2.20    4.80
   4  -2   8    4.20    3.20
   4  -2   8   -6.90    9.00
  -4  -2  -8    9.80    5.20
  -4  -2  -8    2.50    5.20
   4  -2   8    2.20    3.10
   4   2   8    2.70    5.30
  -4   2  -8    3.00    3.90
   5  -2   8   15.00    5.40
   5  -2   8   10.60    5.80
   5  -2   8  -26.70   15.80
  -5  -2  -8    9.20    4.60
  -5  -2  -8   21.60    6.60
   5  -2   8    3.30    4.50
   5   2   8   10.10   10.30
  -6  -2  -8  215.48   30.60
  -6  -2  -8  263.87   26.90
   6  -2   8  232.48   28.00
  -6  -2  -8  258.07   26.20
   6  -2   8  223.48   26.20
   6  -2   8  249.38   24.70
  -6  -2  -8  254.37   26.60
  -6   2  -8  264.47   27.40
   6   2   8  254.77   32.10
   7  -2   8   11.00    4.60
  -7  -2  -8   18.30    5.50
  -7  -2  -8    7.70    6.30
  -7  -2  -8   12.00    5.30
   7  -2   8   17.40    7.10
   7  -2   8   19.50    5.70
   7  -2   8   19.70    4.10
   7   2   8   10.60    7.30
  -7   2  -8   10.80    4.00
  -8  -2  -8  117.89   13.30
   8  -2   8  115.19   14.40
  -8  -2  -8   94.49   15.90
   8  -2   8  120.59   13.40
   8  -2   8   80.19   11.40
  -8   2  -8  113.49   13.80
   8   2   8  105.99   17.50
   9  -2   8   -0.80    2.70
  -9  -2  -8    1.10    2.20
  -9  -2  -8    2.20    3.90
   9  -2   8    0.10    2.50
  -9   2  -8   -0.50    1.90
   9   2   8    1.70    4.00
 -10  -2  -8   22.60    5.30
  10  -2   8   23.10    4.50
 -10  -2  -8   39.70    6.00
  10   2   8   20.10    6.00
 -11  -3   8  282.77   28.90
  11  -3  -8  297.27   28.00
 -11  -3   8  316.37   29.20
  10  -3  -8   10.50    4.20
  10  -3  -8   10.10    3.10
 -10  -3   8   10.70    3.60
 -10  -3   8   12.50    3.80
  10  -3  -8   15.90    4.90
 -10  -3   8    5.20    2.70
  10   3  -8    8.30    3.90
  -9  -3   8    2.90    3.20
  -9  -3   8    2.40    4.00
   9  -3  -8   -0.80    3.60
   9  -3  -8    0.60    4.20
  -9  -3   8    2.60    2.80
   9   3  -8    1.80    5.30
   8  -3  -8  124.49   13.10
   8  -3  -8   84.29   13.30
  -8  -3   8   85.79   11.60
  -8  -3   8   94.89   13.00
  -8  -3   8   99.99   12.90
   8  -3  -8   92.59   14.00
   8   3  -8  112.79   14.20
   7  -3  -8   20.80    7.90
  -7  -3   8   29.30    6.90
  -7  -3   8   21.80    6.00
  -7  -3   8   17.10    4.80
   7  -3  -8   40.20    7.40
   7  -3  -8   17.20    5.50
  -7  -3   8   33.00    7.30
  -6  -3   8   13.80    5.40
  -6  -3   8   16.40    4.60
   6  -3  -8   11.90    4.50
  -6  -3   8   10.40    4.70
   6  -3  -8   18.90    8.60
   6  -3  -8    3.80    3.70
  -6  -3   8   12.20    4.30
   5  -3  -8   66.39   14.40
   5  -3  -8   75.69   10.70
  -5  -3   8   70.49   11.40
   5  -3  -8   58.29   11.90
  -5  -3   8   83.19   11.70
   4  -3  -8    3.90    6.50
  -4  -3   8    6.90    4.10
  -4  -3   8    6.90    4.30
   4  -3  -8    4.30    4.00
  -4  -3   8    3.90    3.70
   4  -3  -8    3.70    4.50
   3  -3  -8  153.38   18.50
  -3  -3   8  161.88   19.40
  -3  -3   8  194.38   20.60
   3  -3  -8  138.19   21.70
   3  -3  -8  153.98   20.40
  -3  -3   8  161.98   19.40
  -2  -3   8   -0.20   13.80
   2  -3  -8   12.50    6.00
  -2  -3   8   10.70    5.10
   2  -3  -8    9.90    7.80
  -2  -3   8   12.10    6.10
  -2  -3   8   -1.10    4.30
  -2  -3   8   12.30    5.40
   2  -3  -8   10.30    4.30
   1  -3  -8   12.70    4.50
   1  -3  -8   12.60    6.80
  -1  -3   8   29.50    7.50
  -1  -3   8   21.40    6.70
   1  -3  -8   11.10    5.80
  -1  -3   8   12.50    5.10
  -1  -3   8   18.90    5.80
   0  -3  -8  593.74   60.59
   0  -3  -8  659.23   59.29
   0  -3   8  606.24   61.09
   0  -3  -8  561.64   61.89
   0  -3   8  719.33   60.89
   0  -3   8  626.74   59.59
   0  -3   8  605.14   59.39
   0  -3  -8  569.24   62.09
  -1  -3  -8  218.28   26.20
   1  -3   8  230.08   23.40
   1  -3   8  196.28   24.90
   1  -3   8  217.68   24.10
  -1  -3  -8  186.88   26.10
   1  -3   8  211.08   23.00
  -1  -3  -8  196.88   22.70
  -1  -3  -8  239.38   24.80
  -2  -3  -8    9.10    4.80
   2  -3   8    3.50    3.70
  -2  -3  -8    7.00    6.00
  -2  -3  -8    6.40    5.00
   2  -3   8    8.20    4.80
   2  -3   8   13.60    4.80
   2  -3   8    8.20    3.80
  -3  -3  -8   51.39    8.90
  -3  -3  -8   33.10    8.60
   3  -3   8   39.20    7.70
   3  -3   8   27.10    8.60
   3  -3   8   36.40    7.20
  -3  -3  -8   29.00   10.10
   3   3   8   40.80   12.00
  -4  -3  -8    5.60    4.30
   4  -3   8   -1.30    3.80
   4  -3   8   -0.50    2.50
  -4  -3  -8    0.70    4.50
   4  -3   8   -0.80    1.80
  -4  -3  -8    2.90    3.70
   5  -3   8    3.70    3.80
  -5  -3  -8    2.10    3.10
  -5  -3  -8   -3.80    3.60
   5  -3   8   -1.00    1.80
   5  -3   8    0.80    2.90
  -5  -3  -8   -0.70    2.70
   6  -3   8  245.48   25.50
   6  -3   8  240.98   24.40
  -6  -3  -8  221.68   24.30
  -6  -3  -8  211.68   26.80
   6  -3   8  263.37   23.10
   7  -3   8    0.90    2.30
   7  -3   8    3.70    2.10
  -7  -3  -8    5.20    4.30
   7  -3   8    2.70    3.10
   7   3   8  -13.30    5.60
   5  -4  -8   35.60    5.70
  -5  -4   8   32.40    6.00
   5  -4  -8   31.80    5.50
  -5  -4   8   29.60    4.90
  -5  -4   8   30.90    5.10
   5  -4  -8   33.00    6.10
   4  -4  -8  117.89   14.90
  -4  -4   8  148.29   15.90
   4  -4  -8  152.78   16.80
  -4  -4   8  154.28   15.50
   4  -4  -8  170.98   16.40
  -3  -4   8   -3.20    1.60
  -3  -4   8   -0.30    1.90
   3  -4  -8   -2.20    2.80
   3  -4  -8   -1.20    2.10
  -3  -4   8   -1.50    1.90
   3  -4  -8    2.90    2.70
  -2  -4   8   49.90    7.40
   2  -4  -8   66.59    8.50
   2  -4  -8   43.30    8.20
  -2  -4   8   60.39    7.50
  -2  -4   8   51.79    7.20
   1  -4  -8   23.10    5.00
  -1  -4   8   15.20    4.10
  -1  -4   8   21.10    4.10
  -1  -4   8   22.80    4.40
   1  -4  -8   15.90    4.60
   0  -4  -8   69.89    8.80
   0  -4   8   68.59    7.90
   0  -4  -8   57.59    8.90
   0  -4   8   62.29    8.20
   1  -4   8    2.00    2.10
  -1  -4  -8    2.00    2.20
   1  -4   8    3.20    2.00
  -1  -4  -8    0.60    2.60
  15   0  -9   12.70    3.30
 -15   0   9   16.10    5.00
 -15   0   9   10.30    3.30
  15   0  -9   13.50    3.70
 -14   0   9    3.70    2.50
 -14   0   9   -1.20    2.10
  14   0  -9    0.90    2.60
 -13   0   9   60.59   10.50
 -13   0   9   58.09    9.60
  13   0  -9   58.49    9.90
  12   0  -9   -3.80    3.40
 -12   0   9    1.60    2.60
 -12   0   9   -4.10    2.60
  12   0  -9    1.30    3.40
  11   0  -9 3701.03  379.26
  11   0  -9 4751.82  388.06
 -11   0   9 4459.35  379.96
 -11   0   9 3998.20  379.96
  10   0  -9    0.60    4.40
 -10   0   9    0.00    3.50
  10   0  -9    3.60    6.50
 -10   0   9   -0.20    3.20
  10   0  -9    0.00    3.60
   9   0  -9    1.90    7.20
  -9   0   9    1.60    3.30
  -9   0   9   -2.40    3.00
   9   0  -9    1.90    4.50
   9   0  -9    1.90    3.60
   8   0  -9   -2.20    4.70
   8   0  -9   -3.70    3.90
  -8   0   9   -0.70    3.00
   7   0  -9  161.98   19.20
   7   0  -9  115.39   15.70
  -7   0   9  130.89   16.70
  -7   0   9  109.89   15.20
   6   0  -9   -0.80    3.50
  -6   0   9   -8.90    4.70
  -6   0   9   -1.30    2.60
  -6   0   9    0.00    3.00
   6   0  -9    0.60    3.40
   6   0  -9   -0.60    3.00
   5   0  -9 2046.00  178.98
  -5   0   9 2001.80  179.48
  -5   0   9 1694.33  177.08
   5   0  -9 2031.90  177.08
   4   0  -9   -2.60    3.50
  -4   0   9   -0.50    3.90
  -4   0   9   -3.20    2.80
   3   0  -9  112.99   14.50
   3   0  -9   99.29   12.40
  -3   0   9   69.19   13.50
  -3   0   9   99.49   13.40
  -3   0   9   69.99   11.80
  -2   0   9    2.00    2.90
  -2   0   9    2.30    4.80
   2   0  -9    2.20    3.60
   2   0  -9    3.50    3.20
  -2   0   9   -1.20    2.70
  -2   0   9   -1.50    3.20
  -1   0   9  279.57   30.60
   1   0  -9  280.67   29.90
   1   0  -9  242.88   28.10
  -1   0   9  325.17   37.00
  -1   0   9  275.97   29.00
   0   0   9   -0.20    2.10
   0   0  -9    5.30    3.50
   0   0   9    1.00    4.00
   0   0   9   -0.10    4.00
   0   0   9   -1.10    2.90
   1   0   9  729.83   66.59
   1   0   9  661.63   65.09
   1   0   9  778.32   69.49
   1   0   9  646.34   70.39
  -1   0  -9  665.83   65.59
   2   0   9   -1.70    2.40
   2   0   9    2.40    3.30
  -2   0  -9    2.00    3.10
   2   0   9   -1.50    4.60
  -2   0  -9   -0.70    2.40
   2   0   9   -1.40    4.00
   3   0   9  312.17   34.10
  -3   0  -9  283.77   30.10
   3   0   9  306.67   31.40
   3   0   9  246.38   35.00
   4   0   9    1.00    4.40
  -4   0  -9   -2.40    3.10
   4   0   9   -3.80    4.50
   4   0   9    0.80    5.70
  -4   0  -9    2.50    3.90
  -5   0  -9    8.70    5.40
   5   0   9    3.30    7.60
   5   0   9   13.60    6.50
   5   0   9   14.10    8.10
  -5   0  -9   11.40    5.20
   6   0   9    0.30    4.80
   6   0   9   -1.10    7.50
  -6   0  -9   -0.30    2.90
  -6   0  -9    0.90    3.60
   6   0   9    2.80    5.00
   7   0   9  480.05   60.19
   7   0   9  474.65   52.69
  -7   0  -9  486.65   49.30
  -7   0  -9  506.65   55.89
  -8   0  -9    4.30    3.30
   8   0   9   -7.20    3.60
   8   0   9    1.20    4.40
  -8   0  -9    0.50    3.20
   8   0   9   -6.50    4.90
  -9   0  -9   25.30    6.20
   9   0   9   23.20    7.10
  -9   0  -9   16.90    4.80
   9   0   9   26.00    8.70
  10   0   9    1.00    3.30
 -10   0  -9    1.20    2.20
  10   0   9   -1.10    4.20
 -10   0  -9    1.00    2.60
 -11   0  -9   16.50    3.40
 -11   0  -9    9.50    2.80
  11   0   9   15.70    4.10
  15  -1  -9    2.00    1.70
 -15  -1   9   -2.40    1.30
  15   1  -9    1.60    2.30
 -15   1   9    0.10    1.50
  14  -1  -9   -0.20    2.20
 -14  -1   9   -2.50    3.80
 -14  -1   9    2.20    2.00
  14   1  -9   -1.30    2.70
  14   1  -9    1.40    3.10
 -14   1   9   -2.00    2.10
 -13  -1   9  193.98   23.00
  13  -1  -9  237.98   23.80
  13   1  -9  210.28   25.60
 -13   1   9  255.47   25.00
  13   1  -9  208.68   23.70
  12  -1  -9  424.46   39.90
 -12  -1   9  433.86   39.90
 -12  -1   9  346.47   38.50
 -12   1   9  356.36   39.80
  12   1  -9  441.86   42.90
  12   1  -9  432.46   40.50
 -12   1   9  345.87   40.00
  11  -1  -9   64.49   19.00
  11  -1  -9   91.09   12.10
  11  -1  -9   55.89   11.30
  11   1  -9   96.19   15.80
 -11   1   9   92.49   13.20
 -11   1   9   54.29   10.60
  10  -1  -9   11.20    5.60
 -10  -1   9   26.70    6.60
  10  -1  -9   23.60    7.50
  10  -1  -9   35.70    8.30
  10  -1  -9   23.40    5.40
 -10  -1   9   28.20    6.60
 -10  -1   9   18.30    6.40
  10  -1  -9    5.80    7.30
  10   1  -9   39.90    8.50
  10   1  -9   20.00    7.20
 -10   1   9   27.30    7.40
  10   1  -9    7.90    9.10
 -10   1   9    9.20    6.10
  -9  -1   9    9.80    4.70
   9  -1  -9    4.60    5.60
   9  -1  -9   11.10    4.70
   9  -1  -9    9.70    5.20
   9  -1  -9    0.50    5.90
  -9  -1   9    7.80    4.80
  -9  -1   9    6.50    4.10
   9  -1  -9   10.10    4.20
  -9   1   9    9.40    4.70
   9   1  -9   14.70    7.50
  -9   1   9    9.20    5.20
   9   1  -9    3.40    4.70
   8  -1  -9   21.90    5.40
  -8  -1   9   33.80    7.80
  -8  -1   9   20.50   11.40
   8  -1  -9   29.70    7.80
  -8  -1   9   19.30    5.90
   8  -1  -9   14.90    5.10
  -8  -1   9    8.30    4.60
   8   1  -9   18.60   11.60
   8   1  -9   22.40    7.70
  -8   1   9   14.60    5.30
   7  -1  -9    3.20    3.60
  -7  -1   9   -6.30    3.70
  -7  -1   9   -0.80    2.60
   7  -1  -9   -3.80    6.00
   7  -1  -9   -0.20    5.60
   7  -1  -9    2.50    4.60
  -7  -1   9   -3.90    5.40
  -7  -1   9    1.80    3.30
   7  -1  -9    0.50    4.20
  -7  -1   9    1.70    3.40
   7   1  -9    3.10    4.40
  -7   1   9    3.20    3.90
   6  -1  -9  355.86   38.10
   6  -1  -9  387.16   38.00
  -6  -1   9  378.56   42.90
  -6  -1   9  395.26   37.50
  -6  -1   9  322.77   37.20
   6   1  -9  349.87   38.40
  -6   1   9  375.96   39.50
  -6   1   9  403.06   39.20
   6   1  -9  428.06   41.10
  -5  -1   9  241.18   29.70
   5  -1  -9  272.87   24.40
   5  -1  -9  171.58   25.00
  -5  -1   9  184.48   25.10
   5  -1  -9  260.17   27.30
   5  -1  -9  202.68   23.90
   5  -1  -9  230.58   25.40
   5   1  -9  235.88   26.60
  -5   1   9  223.28   25.20
  -5   1   9  245.18   26.40
   5   1  -9  207.78   25.50
  -4  -1   9   14.10    8.60
   4  -1  -9    9.20    3.80
   4  -1  -9   12.20    6.80
   4  -1  -9   30.10    8.60
  -4  -1   9   15.50    4.50
  -4  -1   9   13.30    4.90
  -4  -1   9   14.80    5.20
   4  -1  -9   12.30    5.50
  -4  -1   9   24.80    6.80
   4  -1  -9   15.90    4.90
  -4   1   9    6.30    4.50
   4   1  -9    9.50    5.50
  -4   1   9   14.80    5.80
   3  -1  -9    1.70    4.10
  -3  -1   9   17.00    5.10
   3  -1  -9   16.30    5.40
   3  -1  -9   12.40    4.40
  -3  -1   9    0.00    5.10
  -3  -1   9   13.60    4.90
  -3  -1   9    8.90    4.20
   3  -1  -9    8.20    5.60
  -3  -1   9   16.40    8.70
   3  -1  -9   14.50    6.80
  -3   1   9    6.10    3.60
  -3   1   9   14.80    5.30
   3   1  -9    9.60    4.60
  -2  -1   9  740.83   67.29
   2  -1  -9  681.63   68.09
   2  -1  -9  791.42   69.09
   2  -1  -9  657.13   67.29
  -2  -1   9  648.14   66.49
  -2  -1   9  832.92   75.69
   2  -1  -9  764.32   67.59
  -2  -1   9  721.33   67.69
   2  -1  -9  629.44   67.09
  -2   1   9  729.63   69.79
   1  -1  -9   -4.50    4.20
  -1  -1   9    3.60    4.20
  -1  -1   9    0.60    2.50
  -1  -1   9    8.20    6.30
   1  -1  -9    9.90    4.00
   1  -1  -9   -2.00    2.80
   1  -1  -9    0.70    3.50
   1  -1  -9   -0.70    5.20
  -1  -1   9    9.90    6.00
  -1  -1   9   -2.90    3.00
  -1  -1   9    1.80    3.50
   1   1  -9    2.10    3.90
  -1   1   9    3.60    3.90
  -1   1   9    0.60    2.40
   0  -1  -9  989.90   95.49
   0  -1  -9 1117.89   94.39
   0  -1   9  909.41   92.89
   0  -1  -9 1083.59   94.19
   0  -1   9  955.20   93.79
   0  -1   9 1076.79   95.39
   0  -1  -9  916.61   93.69
   0  -1   9 1090.49   97.29
   0  -1   9 1043.80  100.99
   0   1  -9 1056.59   95.69
   0   1   9  941.81   96.29
   0   1   9  898.61   93.09
   0   1   9 1088.59   95.89
  -1  -1  -9   86.19   12.00
   1  -1   9  109.69   12.00
   1  -1   9   95.49   17.90
  -1  -1  -9   91.99   13.20
  -1  -1  -9  103.59   13.90
  -1  -1  -9  109.99   13.00
   1  -1   9   84.19   12.30
   1  -1   9   94.99   16.20
   1  -1   9   65.99   11.10
   1  -1   9   67.99   12.60
   1   1   9  106.19   15.80
  -1   1  -9   90.29   13.30
   2  -1   9   -0.10    3.50
   2  -1   9   -0.70    3.60
  -2  -1  -9   -0.20    3.30
  -2  -1  -9    5.10    4.80
   2  -1   9   -6.50    5.10
  -2  -1  -9   -2.20    4.40
   2  -1   9   -0.90    3.00
  -2  -1  -9    0.20    3.40
   2  -1   9   -1.50    2.80
   2   1   9   -0.40    4.70
  -2   1  -9    1.20    5.20
   2   1   9   -8.20    4.90
  -2   1  -9   -2.50    3.10
   3  -1   9   -1.00    3.50
   3  -1   9    5.40    6.10
  -3  -1  -9    1.70    3.60
   3  -1   9    0.40    3.40
   3  -1   9    2.60    3.60
   3  -1   9   -2.40    6.00
   3   1   9    3.20    6.10
  -3   1  -9  -11.20    5.00
  -3   1  -9    5.70    4.10
   3   1   9   -1.80    4.90
   4  -1   9    1.40    6.60
   4  -1   9    0.20    7.50
  -4  -1  -9    5.30    4.30
  -4  -1  -9   -3.30    3.90
   4  -1   9    3.80    4.40
  -4  -1  -9    0.90    3.50
   4  -1   9   11.60    4.40
  -4   1  -9    5.90    4.40
  -4   1  -9    7.40    5.60
   4   1   9   11.30    6.00
   4   1   9    2.50    5.50
   5  -1   9   -6.40    7.10
  -5  -1  -9    4.80    3.80
  -5  -1  -9   -1.70    2.80
  -5  -1  -9   -8.20    3.50
   5  -1   9  -10.20    6.80
   5  -1   9   -1.20    4.20
   5  -1   9   -1.30    4.70
   5   1   9    0.00    5.40
  -5   1  -9   -1.80    3.90
   5   1   9   -5.10    5.20
  -6  -1  -9   33.70    8.90
  -6  -1  -9   38.00    8.90
   6  -1   9   23.90    8.10
   6   1   9   50.19   16.30
   6   1   9   29.30   10.10
  -6   1  -9   35.70    8.10
   7  -1   9  466.95   44.90
  -7  -1  -9  348.77   41.10
   7  -1   9  427.86   43.20
  -7  -1  -9  473.55   43.40
   7   1   9  374.86   46.50
  -7   1  -9  444.06   43.00
  -7   1  -9  425.26   43.20
   7   1   9  463.45   45.80
  -8  -1  -9   61.49   10.50
   8  -1   9   67.99   12.20
   8  -1   9   59.19   10.50
   8   1   9   72.99   13.30
  -8   1  -9   69.19   10.80
  -8   1  -9   41.80    9.90
  -9  -1  -9   -2.70    2.40
  -9  -1  -9   -1.10    3.20
   9  -1   9   -3.60    3.10
   9  -1   9   -0.50    2.90
  -9   1  -9    0.70    2.30
  -9   1  -9   -0.30    6.90
   9   1   9   -2.10    4.50
 -10  -1  -9    6.30    3.00
  10  -1   9    7.20    3.70
 -10  -1  -9    2.50    3.20
  10   1   9    1.80    4.10
  10   1   9    4.20    3.70
 -10   1  -9    5.10    2.70
  11  -1   9   62.69    7.40
 -11  -1  -9   51.29    7.10
 -11   1  -9   54.19    7.00
  11   1   9   58.89    8.60
 -13  -2   9   63.99    8.50
 -13  -2   9   61.69    7.80
 -13  -2   9   72.29    8.50
  13  -2  -9   54.79    8.90
  13  -2  -9   70.29   11.90
  13   2  -9   82.09   10.70
 -13   2   9   69.59    9.80
  12  -2  -9    7.90    4.60
  12  -2  -9    0.60    2.80
  12  -2  -9   -3.50    3.60
 -12  -2   9    6.80    2.90
  12  -2  -9    8.40    2.90
 -12  -2   9    5.60    3.60
 -12   2   9    9.90    3.90
  12   2  -9    6.40    4.40
  11  -2  -9   12.10    7.60
  11  -2  -9   16.50    6.00
 -11  -2   9   19.00    5.30
  11  -2  -9   10.50    3.60
 -11   2   9    5.40    4.50
  11   2  -9    5.40    4.50
 -10  -2   9   27.00    6.00
  10  -2  -9   27.70    7.00
  10   2  -9   30.00    7.30
 -10   2   9   35.40    8.30
  -9  -2   9    3.70    4.40
  -9  -2   9    8.70    4.00
   9  -2  -9    5.30    3.40
   9  -2  -9    4.70    4.00
   9  -2  -9    6.20    3.50
  -9   2   9    5.60    4.80
   9   2  -9    0.60    3.80
  -8  -2   9    5.60    5.60
  -8  -2   9   12.00    6.80
  -8  -2   9   -7.50   10.10
   8  -2  -9    6.90    5.20
   8  -2  -9   11.40    5.90
   7  -2  -9  131.89   18.30
   7  -2  -9  190.48   18.60
  -7  -2   9  140.99   17.20
  -7  -2   9  170.68   18.00
  -7  -2   9  126.89   17.60
   7  -2  -9  168.08   24.00
  -7  -2   9  144.79   26.80
   7   2  -9  117.59   19.60
  -7   2   9  161.58   20.10
   6  -2  -9  200.78   25.90
  -6  -2   9  155.48   28.70
  -6  -2   9  173.38   20.40
  -6  -2   9  177.68   19.60
   6  -2  -9  134.99   20.40
  -6   2   9  239.48   23.80
   6   2  -9  175.58   22.80
  -5  -2   9  130.59   15.90
   5  -2  -9  126.39   21.70
  -5  -2   9  168.48   17.70
   5  -2  -9  116.29   17.30
  -5  -2   9  126.09   24.10
   5  -2  -9  131.79   15.90
  -5  -2   9  138.29   17.30
   5  -2  -9  151.78   16.90
  -5   2   9  120.89   18.20
   5   2  -9  159.28   19.90
  -4  -2   9   -3.20    6.40
  -4  -2   9   11.70    5.30
   4  -2  -9    3.20    4.40
   4  -2  -9    9.70    3.70
   4  -2  -9    5.10    3.80
  -4  -2   9    2.00    3.10
   4  -2  -9    3.00    6.30
   4  -2  -9   -1.30    8.80
  -4  -2   9    7.40    3.70
  -4  -2   9    7.40    4.60
   4   2  -9    2.80    4.80
  -4   2   9   12.80    5.30
   3  -2  -9   26.10    6.00
  -3  -2   9   23.30    6.20
   3  -2  -9   24.10   10.80
  -3  -2   9   33.80   17.50
  -3  -2   9   35.90    8.10
  -3  -2   9   18.80    5.30
   3  -2  -9   17.20    5.10
  -3  -2   9   20.90    6.00
   3  -2  -9   27.10    7.20
   3   2  -9   18.30    6.20
  -3   2   9   19.20    7.10
  -2  -2   9  330.87   36.20
   2  -2  -9  398.46   36.70
   2  -2  -9  366.46   36.60
   2  -2  -9  369.86   40.60
  -2  -2   9  358.76   37.00
   2  -2  -9  323.87   37.40
  -2  -2   9  412.56   36.70
  -2   2   9  340.07   39.50
   2   2  -9  377.06   38.80
   1  -2  -9 1807.12  181.08
   1  -2  -9 1981.10  180.18
  -1  -2   9 2047.40  197.98
  -1  -2   9 1975.60  180.18
  -1  -2   9 2030.30  180.28
   1  -2  -9 2030.80  180.48
  -1  -2   9 1818.62  180.28
   1  -2  -9 1906.01  183.68
   1   2  -9 2018.30  182.18
  -1   2   9 2261.97  185.18
   0  -2  -9   19.00    6.70
   0  -2  -9   14.90    5.70
   0  -2   9   23.50   12.40
   0  -2   9   15.00    5.10
   0  -2  -9   21.90    6.30
   0  -2   9   18.40    6.40
   0  -2  -9   17.70    7.90
   0  -2   9   18.10    5.40
   0   2   9   18.00    7.10
   0   2  -9   12.30    5.70
   1  -2   9   74.69   12.10
  -1  -2  -9   91.19   12.60
   1  -2   9   71.99   10.30
   1  -2   9   82.39   10.90
  -1  -2  -9   66.39   11.10
  -1  -2  -9   70.29   13.30
   1  -2   9   70.19   11.40
   1  -2   9   62.29   18.00
   1   2   9   63.49   14.10
  -1   2  -9   69.69   11.70
   2  -2   9   17.30   10.60
  -2  -2  -9   26.90    7.20
   2  -2   9   19.00    5.30
   2  -2   9   18.60    6.60
   2  -2   9   12.50    4.10
   2  -2   9   19.10    6.50
  -2  -2  -9   21.40    8.20
  -2  -2  -9    8.80    4.50
  -2   2  -9   13.50    4.70
   2   2   9    8.30    6.30
  -3  -2  -9    3.70    4.00
  -3  -2  -9   -4.30    2.60
   3  -2   9   -3.00    2.90
   3  -2   9   -0.70    8.00
   3  -2   9    1.20    3.00
   3  -2   9   -0.30    3.70
   3  -2   9   -0.70    2.50
  -3  -2  -9    4.70    4.90
  -3   2  -9   -6.30    2.90
   3   2   9   -7.60    4.90
   4  -2   9   15.00    9.10
   4  -2   9   -5.30    9.00
   4  -2   9    7.00    5.00
   4  -2   9   10.70    3.60
  -4  -2  -9   13.80    5.70
  -4  -2  -9   15.10    5.70
   4  -2   9   17.70    6.10
  -4   2  -9    6.20    4.20
   4   2   9    9.60    7.30
   5  -2   9  202.58   20.90
  -5  -2  -9  209.88   23.00
   5  -2   9  164.08   22.70
   5  -2   9  215.38   22.70
  -5  -2  -9  224.78   23.10
  -5  -2  -9  197.28   23.30
   5  -2   9  215.58   25.10
   5   2   9  183.88   27.00
  -5   2  -9  226.88   23.60
  -6  -2  -9  367.36   40.90
  -6  -2  -9  395.26   36.20
  -6  -2  -9  316.27   35.70
   6  -2   9  353.16   37.60
   6  -2   9  406.56   34.20
   6  -2   9  309.57   35.30
  -6   2  -9  357.16   36.40
   6   2   9  361.56   40.90
   7  -2   9   -0.90    2.60
  -7  -2  -9    0.80    2.90
   7  -2   9   -1.40    2.60
   7  -2   9    4.30    4.30
  -7  -2  -9   -1.70    4.60
  -7   2  -9    0.40    2.70
   7   2   9    1.50    4.80
   8  -2   9   -0.50    2.40
   8  -2   9   -2.80    2.50
  -8  -2  -9    3.00    2.50
  -8  -2  -9    0.00    3.10
  -8   2  -9   -1.20    2.00
   9  -2   9   -2.50    2.30
  -9  -2  -9   -0.80    2.60
  -9  -2  -9    0.30    1.90
   9   2   9   -2.80    2.60
  -9   2  -9    0.40    1.60
 -11  -3   9   35.70    5.20
 -11  -3   9   39.60    5.60
  11  -3  -9   35.20    5.50
 -10  -3   9   30.00    4.70
 -10  -3   9   21.30    4.40
  10  -3  -9   27.90    4.90
  10  -3  -9   21.30    4.90
 -10  -3   9   23.20    4.50
  10  -3  -9   14.90    4.00
  -9  -3   9   13.10    4.20
   9  -3  -9    9.30    3.70
   9  -3  -9   10.50    5.00
   9  -3  -9   11.20    3.50
  -9  -3   9    7.80    3.40
  -9  -3   9   12.40    3.50
   9   3  -9    0.70    4.00
  -8  -3   9  112.19   15.90
   8  -3  -9  122.49   13.90
  -8  -3   9  122.49   14.70
  -8  -3   9  127.69   16.30
   8  -3  -9  112.29   15.90
  -7  -3   9   11.30    4.00
   7  -3  -9    6.70    5.70
  -7  -3   9   19.40    5.60
   7  -3  -9   17.20    5.00
  -7  -3   9    7.90    3.60
   7  -3  -9   12.60    4.60
   7   3  -9    9.40    5.10
  -6  -3   9   12.70    4.30
  -6  -3   9   14.30    5.00
   6  -3  -9    9.30    4.60
  -6  -3   9   14.50    4.60
   6  -3  -9   14.00    4.80
   6  -3  -9   12.40    6.80
   5  -3  -9    0.70    2.20
  -5  -3   9    1.10    2.30
  -5  -3   9    2.40    3.50
   5  -3  -9    0.70    3.20
  -5  -3   9   -1.10    3.20
   5  -3  -9   -3.20    4.10
   4  -3  -9   52.19    9.90
  -4  -3   9   47.70    9.30
   4  -3  -9   41.00   11.80
  -4  -3   9   55.19    9.40
  -4  -3   9   78.89   10.90
   4  -3  -9   62.29    9.50
  -3  -3   9   80.29   12.10
  -3  -3   9   85.39   12.20
   3  -3  -9   82.09   13.30
   3  -3  -9   73.79   14.40
  -3  -3   9  112.69   13.60
  -2  -3   9   46.80    9.40
   2  -3  -9   36.10   10.30
  -2  -3   9   57.09    9.70
  -2  -3   9   59.59    9.30
   2  -3  -9   52.19   10.80
   2  -3  -9   54.19    9.00
  -1  -3   9  219.38   22.80
   1  -3  -9  193.88   22.60
  -1  -3   9  185.48   22.50
  -1  -3   9  197.68   21.50
  -1  -3   9  196.98   21.90
   1  -3  -9  187.58   24.40
   1  -3  -9  181.78   21.20
   0  -3  -9  108.09   13.80
   0  -3  -9  113.59   15.00
   0  -3   9  108.19   15.80
   0  -3   9  108.19   14.10
   0  -3   9  116.39   14.90
   0  -3   9  135.19   14.50
   0  -3  -9   86.79   15.70
   0  -3  -9  116.29   16.60
   1  -3   9  137.99   15.40
   1  -3   9  161.48   15.90
  -1  -3  -9  142.69   16.40
  -1  -3  -9  119.49   17.30
   1  -3   9  105.09   15.50
  -1  -3  -9  107.79   17.80
   1  -3   9  132.99   17.40
   1   3   9  114.29   20.60
  -2  -3  -9    2.00    3.70
  -2  -3  -9    0.30    4.30
   2  -3   9    2.00    2.40
  -2  -3  -9    1.30    3.80
   2  -3   9    1.30    3.20
   2  -3   9    0.40    2.30
   2  -3   9   -0.80    3.80
   3  -3   9    2.90    2.40
   3  -3   9    2.20    2.60
  -3  -3  -9    0.70    3.20
  -3  -3  -9    0.70    3.80
   3  -3   9    2.80    3.60
  -3  -3  -9   -0.20    4.10
   3   3   9   -9.40    7.10
   4  -3   9    4.30    2.60
  -4  -3  -9    2.20    3.20
  -4  -3  -9   10.50    5.50
  -4  -3  -9    5.70    5.60
   4   3   9   -0.60    7.00
   5  -3   9   22.70    5.30
   5  -3   9   32.20    5.00
   5  -3   9   29.20    7.20
  -5  -3  -9   34.80    6.50
  -5  -3  -9   18.20    6.10
  -5  -3  -9   38.50    6.10
   6  -3   9    3.00    2.50
   6  -3   9    3.20    3.30
  -6  -3  -9    2.20    2.70
   6  -3   9   -0.70    1.70
  -6  -3  -9    3.20    3.40
   6   3   9   -0.90    6.50
   3  -4  -9   23.10    4.10
   3  -4  -9   17.00    4.40
  -3  -4   9   12.60    2.90
  -3  -4   9   14.40    2.90
  -3  -4   9    7.90    3.10
  -2  -4   9    0.90    1.70
   2  -4  -9    0.90    2.30
  -2  -4   9   -1.20    1.70
   2  -4  -9    2.00    2.60
  -2  -4   9    1.80    2.00
  15   0 -10   -0.80    1.70
 -15   0  10   -3.70    2.60
  14   0 -10   -0.40    2.20
  14   0 -10   -0.60    2.70
 -14   0  10    0.60    2.10
 -14   0  10    2.60    2.90
  13   0 -10   -1.20    3.50
  13   0 -10    1.20    2.60
 -13   0  10   -0.40    2.40
 -13   0  10    2.80    3.00
  12   0 -10   26.40    7.80
 -12   0  10   24.10    6.80
 -12   0  10   34.20    7.70
  12   0 -10   20.10    5.60
  11   0 -10   -2.70    3.20
 -11   0  10    2.50    3.40
 -11   0  10   -0.90    3.20
  11   0 -10    3.80    3.80
  10   0 -10  317.07   32.40
  10   0 -10  267.97   32.50
  10   0 -10  248.88   29.40
 -10   0  10  268.67   29.80
   9   0 -10   -4.00    5.50
  -9   0  10   -1.20    2.80
   9   0 -10   -6.60    3.20
   9   0 -10   -0.10    3.00
  -9   0  10    1.00    3.50
   8   0 -10   17.40    5.90
  -8   0  10   16.40    4.70
   8   0 -10   25.40    9.10
  -8   0  10   11.10    4.60
   8   0 -10    8.90    4.90
  -7   0  10    0.50    2.90
   7   0 -10   -0.20    4.20
   7   0 -10    7.30    5.70
  -7   0  10   -4.00    3.10
  -6   0  10    5.80    3.80
   6   0 -10    2.20    3.30
   6   0 -10   -0.10    4.40
  -6   0  10   -7.60    6.80
  -5   0  10   -0.70    2.80
  -5   0  10    1.50    3.00
  -5   0  10    2.30    5.70
   5   0 -10    2.00    3.40
   5   0 -10   -1.00    4.00
  -4   0  10  677.03   71.99
  -4   0  10  757.42   70.99
   4   0 -10  780.42   69.69
   4   0 -10  770.52   71.29
  -4   0  10  654.93   68.99
   3   0 -10    0.10    3.30
  -3   0  10   -1.60    3.20
  -3   0  10   -0.10    2.80
   3   0 -10    1.40    3.10
  -3   0  10    3.70    4.70
  -2   0  10 3080.99  299.17
  -2   0  10 3395.66  301.57
  -2   0  10 3550.24  303.67
   2   0 -10 3254.17  300.67
  -1   0  10    1.90    4.90
  -1   0  10    2.80    3.80
   1   0 -10   -0.90    3.10
  -1   0  10    3.10    4.60
   0   0 -10  201.78   21.90
   0   0  10  193.18   21.90
   0   0  10  151.88   24.70
   0   0  10  247.38   25.80
   0   0 -10  188.68   22.60
   1   0  10   -1.70    3.10
  -1   0 -10   -2.00    3.10
   1   0  10    1.90    4.70
  -1   0 -10   -0.50    2.70
   1   0  10   -1.20    4.00
   2   0  10  583.04   63.79
  -2   0 -10  689.53   61.79
   2   0  10  540.55   62.49
   2   0  10  694.83   67.89
   3   0  10   -4.50    3.50
  -3   0 -10    2.30    4.00
   3   0  10   -1.10    5.20
  -3   0 -10   -0.90    3.70
   3   0  10   -1.30    5.50
  -4   0 -10  665.63   59.79
  -4   0 -10  598.74   59.59
   4   0  10  552.94   64.89
   4   0  10  681.23   64.29
   4   0  10  533.75   59.99
  -5   0 -10    2.20    3.60
   5   0  10   -4.80    7.30
  -5   0 -10    0.20    3.70
   5   0  10   -4.40    4.40
   5   0  10   -7.00    4.60
   6   0  10  147.89   21.50
   6   0  10  138.49   19.50
  -6   0 -10  112.79   17.00
  -6   0 -10  149.88   18.50
  -7   0 -10    2.50    3.10
   7   0  10   -4.50    3.80
  -7   0 -10   -1.80    3.00
  -8   0 -10    1.00    2.70
   8   0  10    4.90    4.70
   8   0  10   -5.40    3.10
  -8   0 -10   -3.70    2.90
   9   0  10   -2.70    2.80
  -9   0 -10    0.60    2.40
   9   0  10   -4.60    4.10
 -10   0 -10  376.76   39.20
  10   0  10  438.16   39.50
  14  -1 -10   58.89    7.70
 -14   1  10   54.59    8.40
  14   1 -10   48.80    8.60
  14   1 -10   53.59    8.90
  13  -1 -10   29.10    6.00
 -13  -1  10   17.90    4.50
 -13  -1  10   15.80    6.50
 -13   1  10   31.80    6.70
  13   1 -10   24.70    6.60
  13   1 -10   19.30    5.50
  12  -1 -10  595.84   56.79
 -12  -1  10  640.44   57.09
 -12  -1  10  498.45   55.69
 -12   1  10  583.04   57.89
  12   1 -10  653.53   58.09
 -11  -1  10    0.10    3.50
  11  -1 -10   -2.40    4.60
 -11  -1  10    0.60    3.30
  11  -1 -10    5.70    3.40
 -11  -1  10    1.30    4.40
 -11   1  10    2.20    3.90
  11   1 -10    0.60    4.00
  11   1 -10    5.20    4.40
 -10  -1  10   18.70    6.70
  10  -1 -10   26.40    7.10
 -10  -1  10   30.50    7.60
 -10  -1  10   19.80    6.00
  10  -1 -10    0.80    8.40
  10  -1 -10   29.90    6.10
  10   1 -10   28.90    7.20
 -10   1  10   25.10    6.90
  10   1 -10   24.80    8.50
  10   1 -10   12.50    9.60
  -9  -1  10    1.00    4.80
   9  -1 -10    4.60    3.50
   9  -1 -10    5.90    5.00
  -9  -1  10   -2.60    4.00
   9  -1 -10   11.80    4.90
  -9  -1  10    7.10    3.90
   9   1 -10    6.10    5.20
  -9   1  10   10.80    4.80
   9   1 -10   10.00    5.30
  -8  -1  10  153.08   19.30
  -8  -1  10  138.89   18.20
  -8  -1  10  176.78   21.30
   8  -1 -10  190.08   19.40
   8  -1 -10  195.68   20.40
   8  -1 -10  142.19   22.80
   8  -1 -10  189.08   20.90
  -8  -1  10  190.58   19.70
   8   1 -10  178.48   23.00
  -8   1  10  134.99   20.40
  -8   1  10  132.39   20.10
   8   1 -10  170.18   20.00
  -7  -1  10   42.00   13.80
   7  -1 -10   82.39   10.60
  -7  -1  10   72.09   11.10
   7  -1 -10   73.29   10.70
   7  -1 -10   38.80   11.10
  -7  -1  10   47.90   10.40
  -7  -1  10   54.39    9.70
   7  -1 -10   72.69   12.20
  -7   1  10   76.19   12.40
   7   1 -10   53.69   11.60
   7   1 -10   77.09   12.50
  -7   1  10   85.79   13.60
  -6  -1  10  124.99   14.70
   6  -1 -10  131.29   17.10
   6  -1 -10  120.89   14.00
  -6  -1  10  152.58   22.10
  -6  -1  10   77.09   19.40
   6  -1 -10  125.69   14.90
  -6   1  10   76.49   14.40
   6   1 -10  115.19   16.70
  -6   1  10   70.49   14.50
   6   1 -10   85.49   15.40
  -5  -1  10   93.79   13.20
   5  -1 -10  111.99   14.80
   5  -1 -10   76.19   12.50
   5  -1 -10   92.29   15.70
  -5  -1  10  119.59   14.40
  -5  -1  10  106.69   19.40
   5  -1 -10   97.89   14.60
   5   1 -10  118.49   16.60
  -5   1  10   79.89   13.90
  -5   1  10   75.49   14.10
   5   1 -10   90.79   14.50
  -4  -1  10  176.48   26.30
   4  -1 -10  204.48   21.90
  -4  -1  10  151.08   19.10
   4  -1 -10  174.38   22.60
  -4  -1  10  198.68   22.50
  -4   1  10  173.38   21.90
  -4   1  10  193.18   22.50
   4   1 -10  192.68   23.10
   4   1 -10  188.28   21.40
  -4   1  10  149.29   21.40
   3  -1 -10  105.99   15.50
  -3  -1  10  108.39   15.00
  -3  -1  10   91.19   13.20
  -3  -1  10   80.89   11.80
  -3  -1  10   66.39   11.10
   3  -1 -10   80.59   12.90
  -3  -1  10  102.39   21.60
   3  -1 -10   99.89   12.50
   3  -1 -10   82.19   12.10
   3   1 -10   62.29   13.20
   3   1 -10   77.99   13.10
  -3   1  10   86.89   14.20
  -3   1  10   96.89   13.30
   2  -1 -10  630.44   60.89
  -2  -1  10  608.24   60.09
  -2  -1  10  681.33   62.19
   2  -1 -10  710.13   62.69
   2  -1 -10  639.04   60.89
  -2  -1  10  592.44   62.69
   2  -1 -10  664.33   61.49
  -2  -1  10  736.53   69.79
  -2   1  10  639.14   63.39
   2   1 -10  523.85   61.89
  -2   1  10  589.24   63.99
  -2   1  10  622.74   61.79
   2   1 -10  636.34   61.59
   1  -1 -10 1310.57  116.69
   1  -1 -10 1322.67  118.49
   1  -1 -10 1225.08  117.29
  -1  -1  10 1230.08  114.79
  -1  -1  10 1322.37  124.39
  -1  -1  10 1139.69  118.19
  -1  -1  10 1189.88  115.19
   1  -1 -10 1222.78  119.79
   1   1 -10 1468.25  119.19
  -1   1  10 1248.78  117.59
  -1   1  10 1349.86  119.69
   1   1 -10 1105.99  116.19
   0  -1  10  161.08   23.80
   0  -1 -10  137.29   18.40
   0  -1  10  196.38   22.60
   0  -1 -10  149.39   17.70
   0  -1 -10  128.69   16.80
   0  -1  10  115.09   17.40
   0  -1  10  168.58   16.60
   0  -1  10  153.08   17.70
   0  -1  10  137.49   16.00
   0   1  10  149.29   19.30
   0   1  10  101.69   25.20
   0   1 -10  119.89   18.00
  -1  -1 -10   17.40    8.60
   1  -1  10   23.40    9.70
  -1  -1 -10   58.29    9.00
   1  -1  10   48.10    7.90
   1  -1  10   49.70   10.80
   1  -1  10   33.90    9.10
  -1  -1 -10   28.90    6.60
   1  -1  10   43.70    8.70
   1  -1  10   43.80    7.30
  -1  -1 -10   55.59   10.50
  -1   1 -10   36.00    8.20
  -1   1 -10   25.20    7.80
   1   1  10   42.90    9.80
   1   1  10   21.90    8.90
  -2  -1 -10   -4.40    5.30
   2  -1  10    0.90    3.20
  -2  -1 -10   -4.20    2.80
  -2  -1 -10   -2.20    3.20
   2  -1  10    6.30    6.80
   2  -1  10   -4.60    3.30
  -2  -1 -10   -2.10    3.20
  -2   1 -10    2.50    3.70
   2   1  10   -2.90    5.20
   2   1  10   -5.30    3.40
  -3  -1 -10   53.09    9.80
  -3  -1 -10   67.79   10.90
  -3  -1 -10   48.80    9.40
   3  -1  10   64.19    9.80
   3  -1  10   79.19   12.20
   3  -1  10   44.20   11.50
  -3   1 -10   31.10    8.40
   3   1  10   43.50   10.70
  -3   1 -10   47.40    9.90
   3   1  10   51.59   13.30
  -4  -1 -10    1.80    4.40
  -4  -1 -10   -0.80    3.50
   4  -1  10    4.50    6.60
  -4  -1 -10    2.90    3.50
   4  -1  10   -3.70    3.40
   4  -1  10    2.10    4.60
   4  -1  10   -7.30    5.60
   4   1  10    5.00    5.80
  -4   1 -10    0.90    3.80
   4   1  10   -2.20    5.70
  -5  -1 -10  107.99   16.20
  -5  -1 -10  119.79   22.60
   5  -1  10   96.59   20.70
  -5   1 -10   87.19   17.30
   5   1  10  119.89   17.80
  -5   1 -10  102.49   15.40
   5   1  10   65.59   19.60
   6  -1  10   12.40    6.00
  -6  -1 -10   18.10    5.90
  -6  -1 -10    6.30    4.10
   6  -1  10  -18.30   16.00
   6  -1  10    4.20    3.90
   6   1  10    8.50    7.50
  -6   1 -10    2.20    5.50
  -6   1 -10    9.60    4.50
   6   1  10    6.40    5.90
   7  -1  10   73.09   12.20
  -7  -1 -10   79.49   12.10
   7  -1  10   78.19   13.40
   7   1  10  100.49   16.90
  -7   1 -10   76.59   12.30
   7   1  10  108.29   15.70
  -7   1 -10   80.89   13.10
   8  -1  10   35.20    7.80
  -8  -1 -10   70.89    9.70
   8   1  10   59.79   12.40
  -8   1 -10   51.19    9.70
   8   1  10   37.50    8.90
  -8   1 -10   66.89    9.50
  -9  -1 -10   -0.70    2.40
   9  -1  10   -0.20    2.90
  -9  -1 -10   -2.30    2.90
   9   1  10   -7.90    3.10
   9   1  10   -2.60    3.40
  -9   1 -10    0.70    2.00
  10  -1  10    2.30    2.20
 -10  -1 -10    1.50    2.00
 -10   1 -10    3.70    2.10
  10   1  10    3.00    3.30
 -13  -2  10  262.37   25.10
 -13  -2  10  248.18   22.30
 -13   2  10  196.08   24.90
  13   2 -10  237.58   24.30
 -12  -2  10  249.28   28.10
  12  -2 -10  282.57   27.80
  12  -2 -10  273.07   29.60
 -12  -2  10  312.37   29.20
 -12   2  10  357.66   31.00
  12   2 -10  305.27   30.70
 -11  -2  10   13.00    3.80
 -11  -2  10   18.90    5.60
  11  -2 -10    4.60    5.60
 -11  -2  10   23.60    6.80
  11  -2 -10   10.60    3.60
  11  -2 -10   11.00    4.10
 -11   2  10   22.10    8.80
 -10  -2  10    4.20    3.10
  10  -2 -10   -0.50    2.40
  10  -2 -10    1.50    4.30
  10  -2 -10    2.40    2.50
 -10  -2  10    1.30    2.40
 -10  -2  10    4.90    3.50
 -10   2  10    4.60    3.90
  10   2 -10    8.10    4.00
  -9  -2  10   87.99   13.50
   9  -2 -10  108.59   13.40
  -9  -2  10  112.89   13.90
   9  -2 -10  136.59   14.10
  -9  -2  10  118.59   13.90
  -9   2  10   99.79   15.70
   9   2 -10  102.39   16.10
  -8  -2  10   16.90    4.90
   8  -2 -10   11.00    3.90
  -8  -2  10    9.00    4.50
   8  -2 -10    9.50    4.20
   8  -2 -10    4.90    4.10
  -8  -2  10   14.30    4.90
  -8   2  10   11.70    4.90
   8   2 -10   12.90    6.10
   7  -2 -10   24.60   11.40
  -7  -2  10    4.50   12.10
   7  -2 -10   22.40    9.10
  -7  -2  10   35.10    7.20
   7  -2 -10   21.30    7.70
  -7  -2  10   45.00   13.70
   7  -2 -10   27.50    7.20
  -7   2  10   44.10   10.10
   7   2 -10   28.30    7.80
   6  -2 -10  241.58   28.40
   6  -2 -10  299.27   28.40
   6  -2 -10  281.97   27.80
   6  -2 -10  240.98   33.00
  -6  -2  10  264.27   27.80
  -6  -2  10  219.08   27.30
  -6  -2  10  265.07   28.90
   6   2 -10  270.07   30.50
  -6   2  10  316.47   31.60
   5  -2 -10  230.78   26.70
  -5  -2  10  222.98   25.90
   5  -2 -10  250.37   31.20
  -5  -2  10  242.58   26.20
  -5  -2  10  232.58   35.30
  -5  -2  10  241.68   27.00
   5  -2 -10  271.87   26.60
   5  -2 -10  256.27   26.10
   5  -2 -10  234.78   31.80
   5   2 -10  281.37   29.40
  -5   2  10  234.38   29.00
  -4  -2  10   88.99   12.30
  -4  -2  10   57.09    9.90
  -4  -2  10   66.89   10.90
   4  -2 -10   64.49   15.70
   4  -2 -10   71.69   10.70
  -4  -2  10   64.59   10.10
   4  -2 -10   62.39   10.80
  -4  -2  10   61.89   18.20
   4  -2 -10   75.89   10.70
  -4   2  10   56.59   11.90
   4   2 -10   48.30   11.10
  -3  -2  10  106.39   14.90
   3  -2 -10  130.19   15.00
   3  -2 -10   97.49   17.80
   3  -2 -10  106.29   15.10
  -3  -2  10  123.29   14.70
   3  -2 -10  134.99   15.30
  -3  -2  10  127.39   27.30
  -3  -2  10  152.28   16.90
  -3  -2  10   90.19   13.90
  -3   2  10  106.39   18.00
   3   2 -10  113.19   16.50
  -2  -2  10  198.38   35.20
  -2  -2  10  254.97   27.30
  -2  -2  10  232.98   27.30
   2  -2 -10  230.98   30.70
  -2  -2  10  319.87   29.90
   2  -2 -10  285.87   27.90
  -2  -2  10  248.28   27.90
   2  -2 -10  281.07   28.90
   2  -2 -10  264.87   27.90
   2   2 -10  299.87   30.20
  -2   2  10  239.18   31.20
  -1  -2  10  975.00  102.49
   1  -2 -10 1103.59   91.39
  -1  -2  10  978.30   91.09
  -1  -2  10 1095.79   92.79
   1  -2 -10  872.61   93.69
  -1  -2  10  987.30   91.19
  -1  -2  10  963.70   90.39
   1  -2 -10  827.32   90.49
   1  -2 -10  932.31   91.29
   1   2 -10 1000.40   92.59
  -1   2  10  982.60   95.19
   0  -2  10  707.33   75.89
   0  -2 -10  732.33   75.09
   0  -2  10  934.81   76.39
   0  -2  10  707.03   85.49
   0  -2  10  875.91   74.89
   0  -2 -10  915.11   75.89
   0  -2  10  841.82   75.29
   0  -2 -10  721.33   77.49
   0  -2 -10  891.11   76.19
   0   2  10  636.64   78.19
   0   2 -10  762.72   76.19
   1  -2  10   -1.70    3.60
  -1  -2 -10    3.50    3.60
   1  -2  10    8.70    4.20
   1  -2  10    4.20    3.50
   1  -2  10   -4.30    7.80
   1  -2  10    0.60    2.70
  -1  -2 -10   -3.70    2.60
  -1  -2 -10    1.90    4.90
  -1   2 -10   -4.20    2.90
   1   2  10    2.80    5.10
  -2  -2 -10    1.60    7.40
   2  -2  10    0.60    5.00
   3  -2  10   35.90    7.00
   3  -2  10   27.20    5.40
  -3  -2 -10   31.70    8.50
   3  -2  10   22.10    6.50
  -3  -2 -10   29.00    7.00
  -3  -2 -10   21.70    6.10
   3   2  10   20.50    8.30
  -3   2 -10   28.70    7.20
  -4  -2 -10  172.78   19.60
   4  -2  10  140.69   19.50
  -4  -2 -10  183.48   19.30
   4  -2  10  174.38   17.70
   4  -2  10  159.98   21.20
   4  -2  10  161.28   18.70
  -4  -2 -10  181.08   19.60
  -4   2 -10  151.98   19.70
   4   2  10  155.88   23.90
   5  -2  10   16.80    6.40
   5  -2  10   18.00    4.80
  -5  -2 -10   18.80    5.30
  -5  -2 -10   21.00    5.80
   5  -2  10   12.30    4.50
   5  -2  10   19.20    5.70
  -5   2 -10   17.70    5.30
   5   2  10   11.00    7.20
   6  -2  10  271.37   30.50
  -6  -2 -10  317.57   28.50
  -6  -2 -10  227.08   31.30
   6  -2  10  295.27   30.10
   6   2  10  278.87   33.00
  -6   2 -10  269.77   30.70
  -7  -2 -10   91.09   14.80
  -7  -2 -10   99.09   11.80
   7  -2  10   99.09   13.30
   7  -2  10  128.09   12.20
   7   2  10   93.69   15.90
  -7   2 -10   96.39   12.50
   8  -2  10    2.50    2.80
  -8  -2 -10    3.60    2.10
  -8  -2 -10    2.40    3.00
   8   2  10    1.50    3.60
  -8   2 -10    1.60    1.80
  10  -3 -10    5.70    2.80
 -10  -3  10    9.40    2.50
  10  -3 -10    4.10    3.50
 -10  -3  10    9.30    2.80
  10  -3 -10    7.70    2.50
   9  -3 -10   -0.20    3.30
   9  -3 -10    0.30    1.90
   9  -3 -10    5.20    2.80
  -9  -3  10    4.20    2.60
  -9  -3  10    1.60    1.70
  -9  -3  10    1.20    2.20
   8  -3 -10    5.50    2.80
   8  -3 -10    4.50    4.50
  -8  -3  10    5.30    3.10
  -8  -3  10   12.90    4.00
   8  -3 -10    5.80    2.80
   8   3 -10   12.90    4.20
  -7  -3  10  219.48   21.30
   7  -3 -10  195.18   26.20
   7  -3 -10  190.88   21.10
  -7  -3  10  219.78   23.20
   7   3 -10  174.18   21.40
  -7   3  10  156.48   27.70
  -6  -3  10    8.40    3.80
  -6  -3  10    4.10    3.70
   6  -3 -10    4.50    3.40
   6  -3 -10    3.80    3.00
  -6  -3  10    4.00    2.80
   6  -3 -10    4.50    4.40
  -6   3  10  -12.20    8.20
   5  -3 -10    5.20    3.90
   5  -3 -10    8.10    6.10
   5  -3 -10    7.90    3.90
  -5  -3  10    6.90    4.00
  -5  -3  10    7.90    3.60
  -5  -3  10    7.70    4.00
  -5   3  10   -8.00    9.00
  -4  -3  10   34.90    7.10
   4  -3 -10   18.60    5.60
  -4  -3  10   24.40    5.60
   4  -3 -10   29.00    9.00
  -4  -3  10   43.50    8.40
   4  -3 -10   22.80    5.20
   3  -3 -10   17.30    5.80
  -3  -3  10   20.00    6.40
   3  -3 -10   14.20    7.00
   3  -3 -10   23.90    6.20
  -3  -3  10   16.50    4.80
  -3  -3  10   14.40    5.30
  -3   3  10    2.40    9.90
   2  -3 -10  118.49   18.20
   2  -3 -10  161.18   17.10
  -2  -3  10  139.79   16.30
  -2  -3  10  144.49   17.10
  -2  -3  10  139.09   15.60
   2  -3 -10  107.39   15.30
   1  -3 -10   84.29   11.50
  -1  -3  10   90.19   11.30
   1  -3 -10   75.19   13.40
   1  -3 -10   94.79   12.40
  -1  -3  10   89.39   11.90
  -1  -3  10   83.49   12.50
   0  -3 -10   54.39    8.70
   0  -3  10   49.30    7.90
   0  -3  10   54.19    8.20
   0  -3 -10   38.20    9.30
   0  -3  10   43.00    9.50
   0  -3 -10   44.70   10.90
   0   3  10   28.60   11.20
  -1  -3 -10    3.90    3.50
   1  -3  10   -0.10    4.20
   1  -3  10    0.10    2.40
   1  -3  10    3.70    2.90
  -1  -3 -10   -3.30    4.00
  -1  -3 -10   -1.70    3.90
   1  -3  10    0.40    2.80
   1   3  10   -9.30    6.00
  -2  -3 -10    0.40    3.70
  -2  -3 -10    2.30    4.10
  -2  -3 -10    1.50    3.10
   2  -3  10    3.40    5.60
   2  -3  10    6.10    3.90
   2   3  10   -6.70    6.40
  -3  -3 -10   17.00    5.00
   3  -3  10   21.90    4.20
  -3  -3 -10   16.20    4.30
  -3  -3 -10   17.20    6.00
   3  -3  10   16.80    4.10
   3  -3  10   19.30    5.60
   3   3  10   19.80    7.60
  -4  -3 -10   56.79    8.60
  -4  -3 -10   43.30    9.30
  -4  -3 -10   63.89    8.30
   4  -3  10   57.59    6.70
   4  -3  10   60.09    8.10
   4  -3  10   44.10    8.60
   4   3  10   31.70    9.30
   5  -3  10   22.50    3.60
   5  -3  10   26.50    5.30
  -5  -3 -10   29.10    5.40
  -5  -3 -10   18.40    5.10
   5  -3  10   14.60    3.80
 -14   0  11   -1.10    2.60
  14   0 -11   -0.20    1.70
  14   0 -11   -1.00    2.50
 -14   0  11   -1.00    1.90
 -13   0  11  113.39   14.90
  13   0 -11  132.49   14.80
 -12   0  11   -2.70    3.20
  12   0 -11   -5.20    3.20
  12   0 -11    2.80    2.60
  11   0 -11    7.90    4.30
 -11   0  11    3.90    3.60
 -11   0  11    3.70    3.70
  11   0 -11    3.00    4.40
  10   0 -11    2.80    4.00
 -10   0  11    3.00    3.70
  10   0 -11   -0.30    3.30
 -10   0  11   -1.30    2.90
  10   0 -11   -1.40    7.40
  -9   0  11  488.95   48.00
   9   0 -11  468.65   46.50
   9   0 -11  516.65   48.90
   9   0 -11  387.76   47.90
   8   0 -11   -0.90    6.00
   8   0 -11    2.80    4.60
   8   0 -11    0.90    3.30
  -8   0  11   -2.80    3.00
   7   0 -11   -1.40    3.70
  -7   0  11    1.10    3.40
   7   0 -11   -4.30    5.10
   7   0 -11    4.90    3.80
  -7   0  11    4.40    4.00
   6   0 -11   -2.50    2.60
  -6   0  11   -9.20    7.50
  -6   0  11   -0.50    3.20
   6   0 -11   -2.30    3.90
  -6   0  11   -3.10    2.70
  -5   0  11   69.89   11.10
  -5   0  11   59.99   11.10
   5   0 -11   44.90    9.90
  -5   0  11   62.99   14.10
   5   0 -11   63.79   10.80
  -4   0  11    3.70    4.70
  -4   0  11   -2.80    4.40
   4   0 -11   -3.80    3.60
  -3   0  11 1726.23  171.98
  -3   0  11 1563.44  169.08
  -3   0  11 1696.93  167.78
   3   0 -11 2083.79  171.28
   3   0 -11 2022.90  168.18
   2   0 -11   -3.90    3.50
  -2   0  11   -0.40    4.00
  -2   0  11    4.40    5.30
  -1   0  11   17.50    6.40
  -1   0  11   12.10    6.90
  -1   0  11   19.30    7.40
   1   0 -11   30.80    8.20
   0   0 -11   -1.90    2.70
   0   0  11   -4.70    4.30
   0   0  11    2.30    3.70
   0   0 -11   -4.30    3.20
   0   0  11    4.10    5.80
   1   0  11   71.29   12.00
   1   0  11   39.80   17.00
   1   0  11   92.89   16.60
  -1   0 -11   75.79   12.60
  -1   0 -11   72.59   11.30
   2   0  11   -2.00    4.00
   2   0  11   -2.90    5.70
  -2   0 -11    0.70    4.30
   2   0  11   -0.70    4.60
  -2   0 -11   -4.30    2.90
   3   0  11   13.90    7.30
  -3   0 -11    5.30    4.70
   3   0  11    8.10    5.60
   3   0  11    4.80    7.30
  -3   0 -11    4.70    4.10
   4   0  11   -9.70    7.00
  -4   0 -11   -4.00    3.50
   4   0  11   -0.90    5.30
   4   0  11   -4.40    4.50
  -4   0 -11   -2.30    3.10
   5   0  11   40.00   11.00
   5   0  11   31.60    8.50
   5   0  11    6.60   11.70
  -5   0 -11   41.00    8.60
  -5   0 -11   25.90    7.10
   6   0  11   -2.40    4.20
  -6   0 -11   -2.20    2.80
  -6   0 -11    3.90    3.70
   6   0  11   -0.70    4.00
  -7   0 -11   23.90    5.60
  -7   0 -11   18.00    5.10
   7   0  11   36.80    9.50
   7   0  11   18.30    6.80
  -8   0 -11   -3.10    2.60
   8   0  11    0.70    3.30
   8   0  11   -0.10    4.40
  -8   0 -11   -1.50    2.20
  -9   0 -11    1.30    2.50
  -9   0 -11   -1.80    2.80
   9   0  11    0.70    2.40
 -14  -1  11  384.46   33.40
  14  -1 -11  348.87   32.90
  14   1 -11  296.57   33.40
 -14   1  11  359.66   34.00
 -13  -1  11  157.28   18.50
  13  -1 -11  156.78   18.30
 -13   1  11  196.18   19.40
  13   1 -11  200.98   20.40
 -13   1  11  168.98   19.70
  12  -1 -11   91.69   12.10
  12   1 -11   78.09   12.60
 -12   1  11   85.89   13.10
  12   1 -11   94.89   14.10
 -12   1  11  115.99   13.90
  11  -1 -11   98.19   13.00
  11   1 -11   89.39   14.60
  11   1 -11   98.59   15.50
 -11   1  11   96.59   14.40
 -10  -1  11    4.20    4.60
  10  -1 -11    6.90    4.00
  10  -1 -11    7.90    4.90
 -10  -1  11    5.10    5.10
 -10   1  11   16.90    6.10
  10   1 -11    8.60    4.90
  10   1 -11   13.20    5.60
 -10   1  11    9.60    4.60
   9  -1 -11   21.00    5.40
  -9  -1  11    2.70    5.00
   9  -1 -11   15.50    5.40
  -9  -1  11   14.10    5.30
   9   1 -11   24.10    6.50
  -9   1  11   17.90    6.80
   9   1 -11   12.20    5.30
   9   1 -11   13.00    9.30
  -9   1  11   35.90    8.50
   8  -1 -11  330.37   34.80
  -8  -1  11  379.16   36.20
  -8  -1  11  326.07   34.80
   8  -1 -11  345.97   34.80
  -8  -1  11  296.77   35.50
   8  -1 -11  356.96   34.10
  -8  -1  11  272.17   33.50
  -8   1  11  389.76   37.30
   8   1 -11  380.66   38.00
  -8   1  11  300.97   35.10
   8   1 -11  343.07   35.40
  -7  -1  11   15.80    5.70
   7  -1 -11   32.60    7.10
   7  -1 -11   21.70    7.00
   7  -1 -11   36.60    8.40
  -7  -1  11   26.70    7.70
  -7  -1  11    5.30   10.70
  -7  -1  11   28.00    6.70
   7   1 -11   30.60    7.60
   7   1 -11   42.90    9.60
  -7   1  11   15.60    7.30
  -7   1  11   26.10    8.00
  -6  -1  11   85.79   14.70
  -6  -1  11   78.39   13.00
   6  -1 -11   91.29   13.10
  -6  -1  11   95.19   19.50
   6  -1 -11   87.09   13.90
  -6  -1  11   85.59   13.10
   6  -1 -11  127.29   14.40
   6   1 -11   83.19   14.10
   6   1 -11   95.49   15.30
  -6   1  11  119.89   14.90
  -6   1  11   82.29   14.40
   5  -1 -11   11.60    5.30
  -5  -1  11   13.30    5.20
   5  -1 -11   18.50    5.50
  -5  -1  11   19.10    7.20
  -5  -1  11   16.10    5.90
   5  -1 -11   15.50    5.60
  -5   1  11   13.70    5.90
   5   1 -11   11.00    6.00
   5   1 -11   19.40    7.10
  -5   1  11    6.50    5.00
   4  -1 -11  128.79   16.60
  -4  -1  11  134.49   16.70
   4  -1 -11  139.29   16.00
  -4  -1  11  126.99   15.80
   4  -1 -11  109.59   15.40
  -4  -1  11  117.69   22.60
  -4  -1  11  133.99   18.70
  -4   1  11  116.99   20.30
  -4   1  11   99.29   17.90
  -4   1  11  119.19   17.70
   4   1 -11   94.49   16.70
   3  -1 -11  643.64   58.49
   3  -1 -11  639.24   58.09
  -3  -1  11  600.24   60.39
  -3  -1  11  588.04   65.59
  -3  -1  11  647.34   58.39
   3  -1 -11  604.74   57.89
  -3  -1  11  574.04   56.89
  -3  -1  11  554.24   58.49
   3   1 -11  534.35   59.39
  -3   1  11  520.45   59.79
  -3   1  11  702.23   61.69
   3   1 -11  574.94   61.09
   2  -1 -11 1861.91  179.88
  -2  -1  11 2121.29  180.78
  -2  -1  11 1863.01  188.88
   2  -1 -11 2057.29  180.58
  -2  -1  11 2126.99  183.18
  -2  -1  11 1643.44  180.38
   2  -1 -11 2174.88  180.78
  -2  -1  11 1825.92  179.08
  -2   1  11 2245.58  184.38
   2   1 -11 2142.39  182.98
   2   1 -11 1737.13  181.48
  -1  -1  11  373.16   47.00
   1  -1 -11  498.05   45.40
  -1  -1  11  430.16   43.50
   1  -1 -11  538.25   47.40
  -1  -1  11  363.86   45.00
   1  -1 -11  482.55   45.40
  -1  -1  11  484.95   45.50
   1  -1 -11  372.66   46.60
  -1   1  11  552.04   50.09
   1   1 -11  410.26   46.10
  -1   1  11  515.95   47.10
   0  -1  11   -0.50    3.20
   0  -1 -11   -6.20    4.70
   0  -1  11   -4.90    6.40
   0  -1 -11    1.00    3.20
   0  -1  11   -1.40    2.90
   0  -1  11    3.10    6.90
   0  -1  11   -0.50    4.50
   0  -1 -11   -6.20    3.70
   0  -1 -11   -1.70    3.70
   0   1 -11   -9.20    3.90
   0   1  11    9.20    5.60
   0   1  11   -6.60    5.70
   0   1  11   -3.40    4.50
   0   1 -11   -3.40    3.30
   1  -1  11    0.70    3.40
  -1  -1 -11    3.60    5.30
  -1  -1 -11    1.00    3.90
  -1  -1 -11   -3.00    3.30
   1  -1  11   -8.20    3.20
   1  -1  11   -0.20    6.00
  -1  -1 -11   -1.00    3.50
   1  -1  11   -3.00    6.00
  -1   1 -11   -7.80    4.30
   1   1  11   -0.40    5.10
   1   1  11   -0.20    4.60
  -1   1 -11    1.20    4.30
   2  -1  11    4.10    4.30
  -2  -1 -11    1.50    4.30
   2  -1  11   -3.60    6.60
  -2  -1 -11    1.40    3.10
  -2  -1 -11    3.80    3.90
   2  -1  11    1.70    6.10
  -2   1 -11   -5.50    4.80
   2   1  11    5.40    5.80
  -2   1 -11    4.50    4.10
   2   1  11   11.70    7.00
  -3  -1 -11   13.40    5.60
   3  -1  11   -0.20    6.20
   3  -1  11   16.50    6.60
   3  -1  11    5.80    5.50
  -3  -1 -11   14.20    6.00
  -3  -1 -11   15.40    4.60
  -3   1 -11   14.60    6.20
   3   1  11    8.00    6.60
   3   1  11   19.00    7.70
  -3   1 -11   11.10    5.50
   4  -1  11  304.37   35.50
  -4  -1 -11  285.87   34.30
  -4  -1 -11  390.86   34.40
   4   1  11  340.07   37.00
  -4   1 -11  319.87   34.80
   4   1  11  379.86   40.00
  -4   1 -11  291.67   34.40
   5  -1  11    1.80    4.60
  -5  -1 -11    2.80    4.00
  -5   1 -11    4.00    4.00
  -5   1 -11   -8.70    4.70
   5   1  11   -0.60    6.20
   5   1  11    3.80    5.40
   6  -1  11  126.89   16.00
  -6  -1 -11   92.59   13.30
   6   1  11   81.39   16.30
  -6   1 -11   73.59   13.30
  -6   1 -11  115.09   14.40
   7  -1  11   16.70    5.90
   7  -1  11    7.20    4.00
  -7  -1 -11   12.00    4.40
   7   1  11   13.40    5.60
  -7   1 -11   -7.30    6.40
   7   1  11    4.90    4.80
  -7   1 -11    3.90    3.00
   8  -1  11   10.10    3.80
   8  -1  11   20.50    5.60
  -8  -1 -11   10.40    3.50
  -8  -1 -11   15.00    5.80
  -8   1 -11   16.80    4.20
   8   1  11    7.40    4.40
   9  -1  11   50.69    7.40
  -9  -1 -11   48.60    7.50
  -9  -1 -11   62.39    7.40
   9   1  11   44.90    9.90
  -9   1 -11   58.79    7.30
 -12  -2  11   25.20    4.30
  12  -2 -11   22.10    4.60
 -12  -2  11   25.00    5.00
  12  -2 -11   16.50    4.80
 -12  -2  11   30.10    4.30
  12   2 -11   23.70    5.40
 -12   2  11   23.30    5.50
 -11  -2  11  220.68   24.70
  11  -2 -11  191.88   23.70
 -11  -2  11  294.37   24.50
 -11  -2  11  274.57   24.30
  11  -2 -11  232.98   23.70
  11  -2 -11  211.08   25.90
  11   2 -11  246.48   26.50
 -11   2  11  306.27   27.50
  10  -2 -11   -7.20    4.50
 -10  -2  11   -3.00    2.90
 -10  -2  11   -1.80    2.30
  10  -2 -11    0.50    2.70
 -10  -2  11   -2.80    1.70
  10  -2 -11   -3.40    2.10
 -10  -2  11    0.80    3.00
 -10   2  11    1.40    4.70
  10   2 -11   -1.00    2.50
  -9  -2  11    8.50    3.50
  -9  -2  11   14.70    4.90
   9  -2 -11    3.30    4.20
   9  -2 -11   16.00    4.20
   9  -2 -11    9.10    3.70
  -9  -2  11   16.10    4.30
  -9  -2  11   10.70    4.30
  -9   2  11   16.00    6.10
   9   2 -11   13.00    5.50
   8  -2 -11  204.08   22.40
   8  -2 -11  203.98   22.00
  -8  -2  11  193.18   23.00
   8  -2 -11  227.78   23.00
  -8  -2  11  183.08   21.90
  -8  -2  11  210.38   22.20
  -8  -2  11  244.38   23.50
   8   2 -11  181.78   24.20
  -8   2  11  225.68   25.60
  -7  -2  11   59.59    8.70
   7  -2 -11   62.39    9.40
   7  -2 -11   57.39    8.50
  -7  -2  11   39.50    8.00
   7  -2 -11   30.40    7.70
   7   2 -11   42.90    9.20
  -7   2  11   33.80    9.00
  -6  -2  11    4.20    4.10
  -6  -2  11    2.90    3.10
   6  -2 -11    0.40    4.00
   6  -2 -11    2.90    3.00
  -6  -2  11    6.20    3.40
   6  -2 -11   -7.10    5.80
   6  -2 -11    4.50    3.60
  -6  -2  11    2.30    3.50
  -6   2  11    3.80    4.30
   6   2 -11    4.20    4.40
  -5  -2  11  321.47   32.00
   5  -2 -11  320.87   32.70
   5  -2 -11  327.97   37.70
  -5  -2  11  266.77   32.00
   5  -2 -11  325.37   32.30
  -5  -2  11  274.87   42.50
  -5  -2  11  369.76   36.80
  -5  -2  11  294.17   33.40
  -5   2  11  313.37   35.50
   5   2 -11  347.67   35.30
   4  -2 -11   10.10    7.60
  -4  -2  11   22.20    7.00
  -4  -2  11   23.80    9.00
   4  -2 -11   23.20    6.40
   4  -2 -11   18.90    8.30
  -4  -2  11   25.50   19.90
   3  -2 -11    9.60    4.20
   3  -2 -11   18.50    8.90
  -3  -2  11   14.50    4.80
  -3  -2  11   21.30   18.10
  -3  -2  11   15.60    7.30
  -3  -2  11   25.10    7.10
  -3  -2  11   18.30    5.70
   3  -2 -11   14.10    4.40
  -3   2  11    9.70    8.30
   3   2 -11   11.20    6.70
   2  -2 -11    3.70    5.50
  -2  -2  11    8.90    5.30
   2  -2 -11    6.50    4.20
  -2  -2  11    9.20    5.60
   2  -2 -11    4.50    3.80
  -2  -2  11    3.10   12.10
  -2  -2  11    6.50    3.70
   2  -2 -11   10.40    7.40
  -2  -2  11    8.10    4.30
   2   2 -11    3.00    5.50
  -2   2  11    7.40    7.10
   1  -2 -11  300.27   38.10
  -1  -2  11  385.26   40.40
   0  -2 -11   10.90    6.60
   0  -2  11   11.30    4.60
   0  -2  11    9.50    5.70
   0  -2  11   17.30    4.70
   0  -2  11    6.40    4.20
   0  -2  11   16.90   11.50
   0  -2 -11   14.90    5.30
   0  -2 -11   13.10    4.90
   0   2 -11   14.10    5.30
   0   2  11   13.10    7.70
   1  -2  11   59.99    9.30
  -1  -2 -11   62.39   11.60
  -1  -2 -11   69.39   10.40
   1  -2  11   74.89    9.90
   1  -2  11   72.49   11.80
  -1  -2 -11   74.29   11.30
   1  -2  11   48.20   10.40
  -1   2 -11   69.09   10.70
   2  -2  11    4.60    3.40
  -2  -2 -11    2.60    4.40
   2  -2  11   -3.40    2.10
  -2  -2 -11   -0.90    3.20
  -2  -2 -11   -1.90    3.10
   2  -2  11   -0.30    3.20
  -2   2 -11   -1.50    3.40
   2   2  11    0.20    5.20
   3  -2  11   -2.30    2.10
  -3  -2 -11   -0.10    4.30
  -3  -2 -11   -0.80    3.20
   3  -2  11    0.50    3.40
   3  -2  11   -0.80    3.40
   3  -2  11    1.30    3.10
  -3  -2 -11   -1.70    2.40
  -3   2 -11   -4.60    2.80
   3   2  11   -6.20    4.30
   4  -2  11   46.30    7.00
  -4  -2 -11   63.79    9.20
   4  -2  11   50.79    9.90
  -4  -2 -11   53.59    8.40
   4  -2  11   33.60    6.70
  -4   2 -11   36.30    7.60
   4   2  11   66.19   13.60
  -5  -2 -11   67.89   11.10
   5  -2  11   44.50    8.70
   5  -2  11   54.29   10.70
  -5  -2 -11   49.30   12.00
   5   2  11   42.60   15.00
  -5   2 -11   71.09    9.90
  -6  -2 -11   38.30    6.10
   6  -2  11   33.00    5.60
   6  -2  11   27.10    6.20
  -6  -2 -11   31.00    8.80
  -6   2 -11   26.50    5.80
   6   2  11   33.10    8.90
  -7  -2 -11  184.28   17.00
  -7  -2 -11  184.78   19.60
   7  -2  11  140.69   17.00
  -7   2 -11  143.19   16.90
  -9  -3  11    1.70    2.20
   9  -3 -11   -2.00    2.50
  -9  -3  11    1.60    1.80
  -9  -3  11    0.50    1.80
   8  -3 -11   -3.60    2.50
  -8  -3  11   -0.70    1.80
   8  -3 -11    0.70    2.40
   8  -3 -11   -0.40    2.30
  -8  -3  11   -2.60    2.10
  -8  -3  11    0.20    2.00
   7  -3 -11   13.40    4.40
  -7  -3  11   16.10    4.70
  -7  -3  11   16.00    4.10
   7  -3 -11   22.40    6.50
   7  -3 -11   15.20    4.10
  -7  -3  11   15.20    3.80
  -6  -3  11   57.09    8.50
   6  -3 -11   55.89    8.20
   6  -3 -11   53.99   11.00
  -6  -3  11   60.69    9.00
  -6  -3  11   46.50    7.50
   6  -3 -11   51.99    8.00
   6   3 -11   45.20    8.80
  -6   3  11   37.30    9.30
  -5  -3  11   21.30    6.50
   5  -3 -11   20.40    8.80
   5  -3 -11    5.00    5.40
  -5  -3  11   17.40    4.40
  -5  -3  11   10.80    5.10
   5  -3 -11   18.90    4.80
  -5   3  11    3.20    6.60
   4  -3 -11   21.60    5.00
  -4  -3  11   12.30    3.90
  -4  -3  11   12.10    4.50
   4  -3 -11   11.20    3.90
   4  -3 -11   15.70    6.70
  -4  -3  11   13.80    4.50
  -4   3  11    9.20   10.10
  -3  -3  11   16.50    5.00
   3  -3 -11   30.60    7.10
   3  -3 -11   32.20    6.60
  -3  -3  11   25.80    6.00
  -3  -3  11   23.30    6.50
   3  -3 -11   22.20    7.00
  -3   3  11   12.10    9.50
  -2  -3  11   53.49    8.80
  -2  -3  11   41.00    7.70
   2  -3 -11   57.09    9.80
  -2  -3  11   58.79    9.20
   2  -3 -11   39.70   10.00
  -2   3  11   49.90   12.10
   1  -3 -11  327.67   30.60
  -1  -3  11  283.77   29.30
  -1  -3  11  352.06   33.30
  -1  -3  11  290.47   29.90
   1  -3 -11  276.47   33.30
  -1   3  11  261.57   38.60
   0  -3  11   22.30    4.50
   0  -3  11   21.40    4.40
   0  -3  11   11.40    4.30
   0  -3 -11   30.20    7.20
   0  -3  11   18.40    5.40
   0  -3 -11   38.40    6.40
   0   3  11   42.40   12.40
  -1  -3 -11   25.40    6.10
  -1  -3 -11   12.70    5.10
   1  -3  11   27.70    5.20
   1  -3  11   17.70    3.90
  -1  -3 -11   38.20    6.20
   1  -3  11   23.80    5.70
   1   3  11    9.60    6.90
   2  -3  11   19.00    5.80
   2  -3  11   16.40    3.40
  -2  -3 -11   28.20    5.80
  -2  -3 -11   16.00    5.10
   2  -3  11   25.10    4.70
  -2  -3 -11   18.40    4.10
   2   3  11   11.00    7.10
  -3  -3 -11   50.39    6.70
  -3  -3 -11   43.60    6.50
   3  -3  11   49.00    7.60
   3  -3  11   52.39    5.80
   3  -3  11   36.10    6.40
  -3  -3 -11   39.50    8.40
   3   3  11   24.20    9.20
   4  -3  11   28.20    6.80
  -4  -3 -11   42.80    7.60
  -4  -3 -11   42.50    5.80
  14   0 -12    0.30    1.70
 -14   0  12    3.40    4.10
 -14   0  12    3.40    2.30
 -13   0  12    1.40    2.10
 -13   0  12    0.50    2.80
  13   0 -12    2.50    2.50
  13   0 -12    0.70    2.50
 -12   0  12    6.00    4.10
  12   0 -12    1.40    3.20
 -12   0  12   12.40    7.10
  12   0 -12    1.00    5.70
 -11   0  12    3.30    4.20
  11   0 -12    0.80    3.30
  11   0 -12    0.00    2.70
 -11   0  12   -2.00    2.70
  10   0 -12    4.50    3.80
 -10   0  12    8.70    5.40
  10   0 -12    6.40    4.40
 -10   0  12    5.60    4.00
   9   0 -12    1.50    3.70
  -9   0  12    3.30    3.90
   9   0 -12   -4.00    8.20
  -9   0  12    1.50    3.50
   9   0 -12   -0.20    3.40
  -8   0  12    5.50    4.30
  -8   0  12   12.50    5.10
   8   0 -12   11.10    4.90
   8   0 -12    9.50    5.50
   8   0 -12   12.90    8.40
   7   0 -12   -3.40    5.70
   7   0 -12    2.70    3.70
  -7   0  12    1.20    3.60
  -7   0  12   -5.20    3.30
   7   0 -12   -1.40    3.80
   6   0 -12  311.17   34.50
   6   0 -12  297.57   32.50
   6   0 -12  346.27   34.70
  -6   0  12  306.97   34.40
  -6   0  12  282.57   32.30
  -5   0  12    2.10    3.40
   5   0 -12   -4.90    3.40
  -5   0  12    5.80   11.70
  -5   0  12    0.50    4.10
   5   0 -12   -1.60    3.00
  -4   0  12  147.69   21.20
   4   0 -12  185.08   23.60
   4   0 -12  194.58   21.90
  -4   0  12  247.28   25.70
  -3   0  12    1.40    4.90
  -3   0  12   -1.40    2.70
   3   0 -12    2.90    4.40
   3   0 -12   -0.40    3.40
  -3   0  12    6.00    7.80
  -2   0  12  836.02   78.49
   2   0 -12  696.73   74.29
  -2   0  12  800.52   80.19
  -2   0  12  758.52   74.89
   2   0 -12  838.72   76.49
   1   0 -12   -3.20    3.20
  -1   0  12   -5.60    4.90
  -1   0  12    0.40    3.90
   1   0 -12    1.80    4.40
  -1   0  12    6.30    6.90
   0   0  12  433.06   44.20
   0   0  12  396.86   46.50
   0   0 -12  468.95   44.80
   0   0  12  473.65   50.29
   0   0 -12  382.16   43.10
   1   0  12   -3.40    4.50
   1   0  12   -3.20    3.30
  -1   0 -12    0.60    3.80
   1   0  12    1.00    6.80
  -1   0 -12   -1.00    3.90
   2   0  12   60.89   12.70
   2   0  12   34.70   12.00
  -2   0 -12   44.20    9.50
   2   0  12   73.79   13.40
  -2   0 -12   64.69   11.50
  -3   0 -12   -0.20    4.00
   3   0  12    0.90    5.40
   3   0  12   -1.70    4.20
  -3   0 -12   -5.70    3.20
  -4   0 -12  225.48   23.00
   4   0  12  175.38   23.10
   4   0  12  181.48   25.30
  -4   0 -12  162.38   21.40
  -5   0 -12   -0.50    2.70
   5   0  12   -1.50    4.20
  -5   0 -12    0.00    2.90
   5   0  12    1.00    5.50
  -6   0 -12  253.57   30.00
   6   0  12  362.06   34.40
  -6   0 -12  293.57   30.20
   6   0  12  285.07   31.70
   7   0  12   -1.40    2.90
   7   0  12   -6.20    3.30
  -7   0 -12    0.20    2.40
  -7   0 -12    1.10    2.40
  -8   0 -12    2.00    2.50
  -8   0 -12   -2.40    3.70
   8   0  12   -3.30    2.40
  13  -1 -12   18.10    3.90
 -13  -1  12   16.30    4.10
  13   1 -12   13.00    3.90
 -13   1  12   18.50    4.30
  13   1 -12    3.70    4.70
 -12  -1  12  185.68   18.40
  12  -1 -12  140.09   17.50
  12   1 -12  135.19   19.20
 -12   1  12  192.08   18.90
 -12   1  12  200.68   20.10
  12   1 -12  136.69   18.80
  11  -1 -12  206.18   21.40
 -11  -1  12  187.08   21.00
  11   1 -12  186.28   21.60
  11   1 -12  217.48   23.50
 -11   1  12  189.58   21.80
 -11   1  12  170.28   22.20
 -10  -1  12   76.69   11.50
  10  -1 -12   81.59   11.70
 -10   1  12   70.99   13.00
  10   1 -12   86.29   14.60
  10   1 -12   90.69   14.30
   9  -1 -12   86.89   12.30
  -9  -1  12  105.09   13.00
  -9   1  12   84.79   14.10
   9   1 -12   88.39   13.40
  -9   1  12   57.79   11.40
   9   1 -12   97.29   14.80
  -8  -1  12   30.70    7.40
   8   1 -12   56.39   10.90
   7  -1 -12    4.00    5.40
  -7  -1  12   -0.30    3.30
   7  -1 -12   -2.80    3.80
   7  -1 -12   -1.00    3.00
  -7  -1  12    3.20    7.70
   7   1 -12   -5.20    3.50
  -7   1  12   -1.40    4.10
  -7   1  12    4.40    4.50
   6  -1 -12   34.00    7.40
  -6  -1  12   19.50    6.40
  -6  -1  12   34.20    8.50
   6  -1 -12   24.90    6.50
  -6  -1  12   28.10   13.30
  -6  -1  12   31.40    8.40
   6  -1 -12   31.00    7.50
  -6   1  12   24.90    7.10
  -6   1  12   25.80    8.30
   6   1 -12   29.40    8.60
   6   1 -12   19.20    6.20
  -5  -1  12  160.28   21.90
   5  -1 -12  205.08   22.20
   5  -1 -12  183.28   21.50
  -5  -1  12  191.98   21.90
  -5  -1  12  211.48   24.70
   5  -1 -12  151.28   20.80
  -5  -1  12  228.48   30.30
   5   1 -12  219.78   24.60
  -5   1  12  181.28   23.70
   5   1 -12  197.98   22.30
  -5   1  12  175.18   22.40
   4  -1 -12  133.29   17.00
  -4  -1  12  135.99   17.30
  -4  -1  12  130.19   20.30
  -4  -1  12  126.89   15.80
   4  -1 -12  122.79   17.10
  -4  -1  12  140.99   25.60
  -4  -1  12  114.89   17.30
  -4   1  12  132.19   19.30
   4   1 -12  172.18   20.40
   4   1 -12  154.18   18.20
  -4   1  12  145.69   18.20
  -3  -1  12  960.10  109.19
   3  -1 -12 1140.29  102.29
   3  -1 -12 1106.39  101.69
  -3  -1  12 1063.69  103.99
  -3  -1  12 1125.69  102.29
  -3  -1  12  963.80  100.39
  -3   1  12 1228.18  105.99
   3   1 -12 1136.09  102.39
   3   1 -12  957.40  103.09
  -3   1  12 1252.57  103.69
   2  -1 -12 1595.64  133.79
  -2  -1  12 1464.05  136.19
  -2  -1  12 1319.57  141.79
  -2  -1  12 1591.44  134.59
   2  -1 -12 1394.76  135.29
  -2  -1  12 1417.36  132.39
   2  -1 -12 1683.63  134.69
  -2   1  12 1477.25  135.19
   2   1 -12 1392.96  135.29
  -2   1  12 1222.18  136.79
   2   1 -12 1184.68  133.19
  -2   1  12 1699.33  138.59
  -1  -1  12   27.60    5.90
  -1  -1  12   35.20   10.90
  -1  -1  12   33.30   13.50
  -1  -1  12   42.40    9.40
   1  -1 -12   33.10    7.20
   1  -1 -12   42.30   10.20
   1  -1 -12   34.60    8.10
   1   1 -12   36.60    9.10
   1   1 -12   21.60    6.70
  -1   1  12   36.50   10.10
  -1   1  12   24.50    8.10
   0  -1  12  106.99   14.80
   0  -1 -12  114.59   14.70
   0  -1  12   81.69   12.90
   0  -1 -12   85.89   14.40
   0  -1  12   88.29   21.20
   0  -1 -12  116.89   14.40
   0   1  12  118.39   18.20
   0   1  12   93.69   15.90
   0   1 -12   91.69   15.00
   0   1 -12   88.09   15.20
  -1  -1 -12   79.69   15.70
   1  -1  12   79.29   12.40
  -1  -1 -12   74.09   11.50
   1  -1  12   42.90   14.40
   1   1  12   63.79   13.50
  -1   1 -12   42.40    9.60
   1   1  12   40.70   17.50
  -2  -1 -12   24.00    6.10
  -2  -1 -12   33.70    7.90
   2  -1  12   10.80   11.20
   2  -1  12    2.20    7.70
   2  -1  12   50.69    9.70
   2   1  12   37.20    9.30
  -2   1 -12   24.90    6.70
  -2   1 -12   27.50    7.50
   2   1  12   17.10    7.10
   3  -1  12   86.99   14.70
  -3  -1 -12   95.89   13.40
   3   1  12   62.19   14.40
  -3   1 -12   96.89   14.00
  -3   1 -12   93.49   14.40
   3   1  12   96.89   17.20
   4  -1  12   58.39   11.50
  -4  -1 -12   51.99    9.70
   4   1  12   42.30    9.80
  -4   1 -12   37.80    9.10
   4   1  12   33.00   10.20
  -4   1 -12   67.29   10.70
  -5  -1 -12   72.79   11.10
   5  -1  12   62.59   12.10
  -5   1 -12   72.09   10.90
  -5   1 -12   45.90   10.00
   5   1  12   53.39   11.10
  -6  -1 -12    2.50    4.20
   6  -1  12    2.60    4.90
   6  -1  12   -0.20    3.40
  -6   1 -12    4.90    4.50
   6   1  12   -2.60    4.00
   6   1  12   -6.30    4.30
  -6   1 -12   -0.30    3.30
  -7  -1 -12    3.10    3.10
   7  -1  12   -0.70    2.60
   7  -1  12    0.60    3.00
   7   1  12   -0.80    4.10
  -7   1 -12   -0.70    2.10
   7   1  12    0.50    3.50
   8  -1  12   -2.10    3.10
  -8  -1 -12   -1.70    2.20
  -8  -1 -12    0.40    2.30
  -8   1 -12   -1.20    1.80
   8   1  12   -2.00    2.60
  12  -2 -12    6.70    3.40
 -12   2  12    7.00    3.10
  12   2 -12    8.40    3.00
  11  -2 -12   22.10    3.70
  11  -2 -12   12.70    5.20
 -11  -2  12   17.10    3.30
 -11  -2  12   16.30    4.10
 -11   2  12   16.40    4.80
  11   2 -12    9.60    3.60
 -10  -2  12   26.80    4.90
  10  -2 -12   37.30    5.40
  10  -2 -12   25.20    7.20
 -10  -2  12   26.60    5.60
 -10   2  12   35.10    6.80
  10   2 -12   27.60    6.00
  -9  -2  12   17.30    4.40
   9  -2 -12   11.10    4.20
   9  -2 -12   14.50    7.50
  -9  -2  12   17.60    4.90
  -9  -2  12   15.00    5.40
   8  -2 -12  108.39   12.50
  -8  -2  12  111.29   13.50
  -8  -2  12  101.39   12.20
   8  -2 -12   99.19   13.10
   8  -2 -12   92.89   16.20
  -8  -2  12  104.09   12.60
  -8   2  12  140.09   17.00
   8   2 -12   99.59   14.90
   7  -2 -12   25.00    6.20
  -7  -2  12   17.50    4.50
  -7  -2  12   19.50    5.70
   7  -2 -12   16.10    8.20
  -7  -2  12   20.60    4.70
   7  -2 -12   29.00    5.50
   7  -2 -12   10.80    4.30
  -7  -2  12   24.40    6.60
  -7   2  12   15.80    6.10
   7   2 -12   21.70    5.90
   6  -2 -12   15.10    4.40
  -6  -2  12   11.40    3.60
   6  -2 -12   12.80    5.60
  -6  -2  12   15.00    5.30
  -6  -2  12    8.10    3.90
   6  -2 -12   12.60    4.60
  -6  -2  12   16.80    5.40
   6  -2 -12   10.40    7.80
  -6   2  12   13.20    5.80
   6   2 -12   11.00    5.00
   5  -2 -12   43.10    8.90
  -5  -2  12   51.29    8.60
   5  -2 -12   46.30   12.30
  -5  -2  12   64.19    8.40
  -5  -2  12   61.19   10.30
   5  -2 -12   46.60    8.60
   5  -2 -12   47.30    8.20
  -5  -2  12   30.90    8.00
   5   2 -12   53.39   10.90
  -5   2  12   53.89   11.80
  -4  -2  12   60.19    8.80
   4  -2 -12   69.99   10.40
   4  -2 -12   49.10   13.10
  -4  -2  12   65.49    9.90
  -4  -2  12   63.79   11.10
   4  -2 -12   43.30    9.30
  -4  -2  12   63.29   10.00
   4  -2 -12   87.69   10.30
  -4   2  12   46.90   11.20
   4   2 -12   75.89   12.00
   3  -2 -12  125.69   14.00
  -3  -2  12  116.09   14.20
  -3  -2  12  112.39   13.80
   3  -2 -12  105.99   16.40
   3  -2 -12   94.69   13.50
  -3  -2  12   82.99   14.20
   3  -2 -12   96.09   14.00
  -3  -2  12  126.69   13.10
   3   2 -12   98.59   15.20
  -3   2  12  122.09   18.70
   2  -2 -12  920.41   85.89
   2  -2 -12  823.52   88.09
   2  -2 -12 1003.90   85.59
  -2  -2  12  835.62   85.39
  -2  -2  12 1035.00   86.79
  -2  -2  12 1007.40   84.79
  -2   2  12 1002.50   90.99
   2   2 -12  737.03   86.49
   1  -2 -12  214.88   28.10
   1  -2 -12  250.67   26.70
  -1  -2  12  241.58   25.70
   1  -2 -12  269.17   26.20
  -1  -2  12  292.07   25.80
  -1  -2  12  272.07   27.30
  -1   2  12  246.98   30.70
   1   2 -12  203.18   27.00
   0  -2  12    0.70    3.00
   0  -2 -12    1.20    3.00
   0  -2  12    3.00    2.60
   0  -2  12    2.60    4.00
   0  -2  12   -0.80    3.50
   0  -2 -12    1.70    3.90
   0  -2 -12    1.60    3.70
   0   2  12   -2.70    3.90
   0   2 -12    0.90    3.30
  -1  -2 -12    2.60    3.30
   1  -2  12    2.30    3.10
   1  -2  12   -1.60    2.90
   1  -2  12   -4.80    2.40
  -1  -2 -12    0.40    3.10
  -1  -2 -12    0.90    4.30
  -1   2 -12    3.30    3.60
  -2  -2 -12   23.90    5.90
   2  -2  12   26.20    6.50
  -2  -2 -12   37.60    6.50
   2  -2  12   25.00    7.30
  -2  -2 -12   35.50    6.90
   2  -2  12   26.60    7.60
   2  -2  12   34.90    5.40
   2   2  12   23.20    7.50
  -2   2 -12   27.30    6.20
   3  -2  12   19.70    6.70
   3  -2  12   23.10    7.30
  -3  -2 -12   18.30    4.80
  -3  -2 -12   21.50    4.80
   3  -2  12   10.40    4.40
  -3   2 -12    9.70    5.20
   3   2  12   18.00    7.50
   4  -2  12   54.29    8.10
   4  -2  12   57.79   10.60
  -4  -2 -12   53.99    7.70
  -4  -2 -12   35.70    9.00
  -4   2 -12   41.30    7.80
   4   2  12   35.70    9.30
  -5  -2 -12   23.90    4.30
  -5  -2 -12   11.10    5.00
   5  -2  12   34.60    5.20
   5  -2  12   24.50    6.10
  -5   2 -12   19.60    4.70
   5   2  12   32.20    7.70
  -6  -2 -12   -1.80    1.60
   6  -2  12   -2.70    2.10
  -6  -2 -12    0.20    2.50
   6   2  12   -1.30    3.20
  -6   2 -12    1.10    1.90
   8  -3 -12   -1.80    2.30
  -8  -3  12   -1.30    2.60
  -8  -3  12    0.40    1.70
   8  -3 -12   -1.10    1.80
   7  -3 -12   76.89   10.50
  -7  -3  12   84.59    9.40
  -7  -3  12   94.69    8.70
  -7  -3  12   64.09    9.30
   7  -3 -12   68.89    9.10
  -6  -3  12   43.50    7.80
   6  -3 -12   50.39    7.60
  -6  -3  12   64.69    8.00
   6  -3 -12   54.89    9.10
   6  -3 -12   65.99    7.40
  -5  -3  12   10.40    4.00
  -5  -3  12   20.70    3.60
   5  -3 -12   13.70    5.00
   5  -3 -12   24.10    6.60
   5  -3 -12   19.50    4.90
  -5  -3  12   18.40    4.00
  -5   3  12   10.60    8.10
   4  -3 -12   68.89   11.20
   4  -3 -12   76.99    9.50
  -4  -3  12   79.19    9.80
  -4  -3  12   84.79    9.20
  -4   3  12   76.09   13.10
  -3  -3  12  241.98   20.70
  -3  -3  12  168.38   21.50
  -3  -3  12  234.38   21.40
   3  -3 -12  190.48   22.50
  -3   3  12  204.08   23.50
  -2  -3  12   -1.60    2.20
  -2  -3  12    4.40    2.70
  -2  -3  12    2.10    2.00
   2  -3 -12   -0.40    3.00
   2  -3 -12   -0.40    2.00
  -1  -3  12    1.10    2.50
  -1  -3  12    2.00    3.90
  -1  -3  12    4.90    2.40
   1  -3 -12    2.50    2.60
  -1  -3  12    8.20    2.60
   1  -3 -12    2.80    3.50
   0  -3  12    3.60    2.10
   0  -3  12   -1.70    2.60
   0  -3 -12    1.90    2.60
   0  -3  12    2.20    2.90
   0  -3 -12    3.20    3.00
   0   3  12  -12.80    7.80
  -1  -3 -12    6.90    3.20
  -1  -3 -12   11.50    3.60
   1  -3  12    9.20    2.20
   1  -3  12    2.20    2.40
   1  -3  12    9.90    3.50
   2  -3  12   -0.40    3.10
   2  -3  12    9.10    3.30
  -2  -3 -12    6.70    2.40
  13   0 -13   96.39   10.90
 -13   0  13  100.89   12.90
  13   0 -13   86.99   11.20
  12   0 -13    3.50    2.70
 -12   0  13   -2.80    2.00
 -12   0  13   -1.10    2.60
  12   0 -13    0.80    2.50
  11   0 -13   -6.00    2.50
 -11   0  13   -0.50    3.30
 -11   0  13    0.90    4.10
  11   0 -13   -0.70    3.70
  10   0 -13   -1.80    2.60
  10   0 -13   -0.90    3.20
 -10   0  13    2.00    3.20
 -10   0  13   -2.60    3.20
  -9   0  13  664.93   64.09
   9   0 -13  631.44   63.59
   9   0 -13  688.63   64.99
  -9   0  13  678.83   65.39
  -8   0  13   -4.90    2.60
   8   0 -13    1.60    3.70
  -8   0  13   -0.10    3.60
   8   0 -13   -2.50    3.10
   7   0 -13    1.30    3.00
  -7   0  13   -2.50    2.70
  -7   0  13    1.30    4.00
   7   0 -13   -7.70    6.50
   7   0 -13    3.20    4.00
  -6   0  13   -3.10    5.90
   6   0 -13   -3.50    4.90
   5   0 -13   15.10    6.30
   5   0 -13   21.10    6.10
   5   0 -13   13.00    8.50
  -5   0  13   27.10    7.30
  -5   0  13   19.40    6.80
  -4   0  13    0.70    3.10
  -4   0  13    5.30    5.00
   4   0 -13   -1.70    3.50
   4   0 -13    3.70    7.00
   4   0 -13    0.10    4.10
   3   0 -13 5523.65  433.66
  -3   0  13 4009.90  436.26
   3   0 -13 4428.86  431.36
  -3   0  13 5542.35  432.86
  -3   0  13 4521.85  434.26
   2   0 -13   -3.10    3.60
  -2   0  13   -3.50    5.20
   2   0 -13   -6.50    2.80
  -2   0  13   -1.30    4.20
  -2   0  13   -5.80    6.20
  -1   0  13    2.90    6.70
  -1   0  13    1.10    4.00
  -1   0  13   -4.10    4.60
   1   0 -13   -0.60    3.60
   1   0 -13   -3.50    3.50
   0   0  13    5.50   10.20
   1   0  13   38.80   11.80
   1   0  13   46.00   11.90
   1   0  13   81.99   13.70
  -1   0 -13   46.20    9.50
  -1   0 -13   73.79   11.60
  -2   0 -13   -0.70    3.60
  -2   0 -13    0.50    3.30
   2   0  13    4.30    4.50
   2   0  13    0.50    5.50
  -3   0 -13  434.16   45.90
   3   0  13  498.65   48.00
   3   0  13  469.65   49.40
  -3   0 -13  448.26   45.90
   4   0  13   -2.80    4.70
  -4   0 -13    0.00    3.00
   4   0  13   -2.20    4.00
  -4   0 -13   -1.20    3.70
  -5   0 -13   52.29    9.00
   5   0  13   42.30    9.50
   6   0  13    2.30    3.30
  -6   0 -13    1.00    2.40
  -6   0 -13    0.80    2.40
  -7   0 -13    4.70    2.20
  -7   0 -13    5.70    2.90
   7   0  13    3.80    4.00
 -13  -1  13   11.10    3.70
  13   1 -13   12.10    3.30
 -13   1  13   11.70    4.10
 -12  -1  13   32.00    5.70
  12  -1 -13   21.90    4.70
  12   1 -13   20.90    6.50
 -12   1  13   24.50    5.30
 -11  -1  13    0.30    2.60
  11  -1 -13   -0.30    2.20
 -11   1  13   -2.50    3.70
  11   1 -13   -3.10    3.90
 -11   1  13    1.00    3.00
  11   1 -13    1.80    3.20
 -10  -1  13    9.50    3.70
  10  -1 -13   14.80    4.80
  10   1 -13   15.80    5.80
 -10   1  13   18.80    6.00
 -10   1  13   14.40    4.60
  10   1 -13    1.50    4.10
   9  -1 -13   36.10    6.70
  -9  -1  13   18.60    5.70
   9   1 -13   53.59    9.30
   9   1 -13   24.60    6.40
  -9   1  13   40.10    7.30
  -9   1  13   52.19   10.30
  -8  -1  13    4.50    3.30
   8  -1 -13   -7.90    4.70
  -8  -1  13    3.50    8.90
   8  -1 -13    6.20    3.50
   8   1 -13   -3.30    3.70
  -8   1  13   -0.60    3.40
  -8   1  13    7.60    5.10
   8   1 -13    4.10    4.60
   7  -1 -13    7.50    3.90
  -7  -1  13    6.30    3.50
  -7  -1  13   -9.10    5.60
  -7   1  13    6.80    4.60
   7   1 -13    9.00    5.30
  -7   1  13    3.40    4.30
   7   1 -13    6.20    4.50
  -6  -1  13   -8.10    5.60
   6  -1 -13   11.70    4.70
  -6  -1  13    7.90    3.80
  -6  -1  13    8.60    3.80
  -6   1  13   14.60    5.80
  -6   1  13    8.00    5.20
   6   1 -13    9.50    5.30
   6   1 -13   15.30    5.80
  -5  -1  13   -2.80    5.40
   5  -1 -13   -1.40    3.30
   5  -1 -13    0.70    3.00
  -5  -1  13   -3.50    2.70
  -5  -1  13    0.50    2.80
   5   1 -13   -4.70    3.60
   5   1 -13   -0.90    3.60
  -5   1  13    4.40    4.50
  -5   1  13   -5.70    3.50
  -4  -1  13  112.29   23.60
  -4  -1  13   87.89   11.70
  -4  -1  13   99.79   14.00
   4  -1 -13   93.99   13.50
   4  -1 -13   89.89   12.80
   4   1 -13  119.69   17.50
  -4   1  13   88.49   14.10
  -4   1  13   56.69   15.30
   4   1 -13   79.09   13.60
   3  -1 -13   30.70    9.90
  -3  -1  13   22.90   14.70
  -3  -1  13   36.00    6.80
   3  -1 -13   51.69   11.30
   3  -1 -13   44.00    7.90
  -3   1  13   51.59   17.70
  -3   1  13   54.69   11.20
   3   1 -13   45.50   13.50
   3   1 -13   36.10    7.90
  -2  -1  13  520.65   62.69
  -2  -1  13  487.05   51.39
   2  -1 -13  640.14   53.39
  -2  -1  13  505.95   54.19
   2  -1 -13  598.94   54.59
   2  -1 -13  495.35   54.09
   2   1 -13  645.14   56.49
   2   1 -13  473.55   53.29
  -2   1  13  607.54   60.69
  -2   1  13  539.85   54.99
  -1  -1  13  125.69   27.20
   1  -1 -13  151.18   19.30
   1  -1 -13  160.18   18.60
  -1  -1  13  159.88   19.60
   1  -1 -13  166.48   19.50
  -1   1  13  154.68   21.00
  -1   1  13  202.68   24.90
   1   1 -13  143.79   19.60
   1   1 -13  171.88   20.60
   0  -1  13    1.40    3.80
   0  -1  13  -10.50    6.90
   0  -1 -13   -0.30    3.60
   0  -1 -13    3.20    4.50
   0   1  13   14.20    7.00
   0   1 -13    8.00    5.30
   0   1 -13    2.60    3.70
   0   1  13    0.10    4.40
  -1  -1 -13    8.80    4.60
   1  -1  13    8.20    5.30
  -1  -1 -13   -2.80    3.60
   1   1  13   14.90    7.60
  -1   1 -13    8.60    4.70
   1   1  13   15.50    6.50
  -1   1 -13    6.00    5.70
  -2  -1 -13   -2.40    3.10
   2  -1  13    3.60    4.50
   2   1  13    0.10    5.60
  -2   1 -13   -2.30    2.90
   2   1  13    2.00    4.90
   3  -1  13   19.20    6.50
  -3  -1 -13   23.30    6.40
  -3   1 -13   42.10    9.00
   3   1  13   39.80   10.40
   3   1  13   24.90    7.90
  -3   1 -13   33.40    7.20
  -4  -1 -13    0.90    3.10
   4  -1  13   -0.10    3.30
   4   1  13   -3.70    5.10
   4   1  13   -3.00    4.90
  -4   1 -13   -2.60    4.10
  -4   1 -13    3.50    3.30
   5  -1  13   19.00    5.60
  -5  -1 -13   16.50    4.40
   5  -1  13   16.40    5.00
   5   1  13   14.20    6.00
   5   1  13   15.50    5.60
  -5   1 -13   21.40    5.00
  -6  -1 -13   40.10    6.90
   6  -1  13   39.80    6.90
   6   1  13   46.90    9.40
   6   1  13   37.90    8.30
  -6   1 -13   41.00    6.90
  11  -2 -13    2.40    3.30
 -11  -2  13    3.90    2.30
  11   2 -13    1.70    2.20
 -11   2  13    4.30    2.70
 -10  -2  13   -1.40    1.60
 -10  -2  13    1.00    2.00
  10  -2 -13   -3.60    2.90
  10  -2 -13    2.40    2.70
 -10   2  13   -1.10    2.80
  10   2 -13    0.70    2.00
   9  -2 -13   -0.40    2.00
  -9  -2  13   -0.20    1.90
  -9  -2  13    2.80    2.10
   9  -2 -13   -2.60    3.70
  -9   2  13   -1.50    3.10
   9   2 -13    0.20    2.50
  -8  -2  13  157.58   18.40
   8  -2 -13  144.09   15.50
   8  -2 -13  129.39   21.40
  -8  -2  13  149.69   15.80
   8   2 -13  145.99   17.50
  -8   2  13  151.38   18.70
  -7  -2  13   12.90    4.00
   7  -2 -13   25.40    5.20
   7  -2 -13   10.50    6.10
  -7  -2  13   15.20    5.40
   7  -2 -13   17.60    4.60
  -7  -2  13   12.00    3.70
  -7   2  13   13.60    6.10
   7   2 -13    8.80    5.40
   6  -2 -13   12.90    5.00
  -6  -2  13   16.50    5.50
  -6  -2  13   11.20    3.80
   6  -2 -13   13.30    3.70
   6  -2 -13   12.30    7.00
  -6  -2  13   12.60    3.70
  -6   2  13   18.70    6.40
   6   2 -13   11.00    4.20
  -5  -2  13   24.10    5.70
   5  -2 -13   19.50    7.20
  -5  -2  13   36.40    6.50
  -5  -2  13   29.30    6.50
   5  -2 -13   32.50    6.20
  -5  -2  13   31.20    7.70
   5   2 -13   33.70    7.80
  -5   2  13   34.60    9.20
  -4  -2  13   31.20    5.90
  -4  -2  13   28.50    7.10
   4  -2 -13   35.00    8.40
  -4  -2  13   23.20    5.50
   4   2 -13   53.99    9.30
  -4   2  13   48.40   10.70
  -3  -2  13   14.30    5.10
   3  -2 -13   25.10    5.90
  -3  -2  13   14.70    4.00
  -3  -2  13   22.70    5.60
  -3  -2  13   11.00    4.70
  -3  -2  13   22.20    4.60
   3  -2 -13   19.60    7.30
   3  -2 -13   26.90    6.00
  -3   2  13   18.80    7.00
   3   2 -13   14.40    5.00
  -2  -2  13   25.70    5.60
  -2  -2  13   22.40    4.90
   2  -2 -13   26.90    6.30
  -2  -2  13   19.00    5.30
  -2  -2  13   16.10    6.00
   2  -2 -13   25.60    7.10
   2  -2 -13   27.70    5.70
   2   2 -13   27.00    6.80
   1  -2 -13    2.10    2.80
  -1  -2  13   -7.20    3.30
  -1  -2  13   -1.50    3.00
   1  -2 -13    3.40    4.20
  -1  -2  13    2.00    3.00
   1  -2 -13   -1.10    3.10
   1   2 -13   -0.80    3.00
  -1   2  13   -0.20    4.20
   0  -2  13    8.80    3.00
   0  -2  13    4.20    3.60
   0  -2  13   12.60    5.20
   0  -2 -13    8.20    3.70
   0  -2 -13    7.20    4.80
   0  -2 -13   13.90    4.20
   0   2  13   11.90    5.60
   0   2 -13    1.50    2.80
   1  -2  13   -5.90    3.70
  -1  -2 -13    6.00    3.10
  -1  -2 -13    5.80    4.60
   1  -2  13    3.90    4.40
  -1   2 -13    5.00    4.70
   1   2  13    4.80    5.50
   2  -2  13   30.80    7.40
   2  -2  13   32.60    6.60
  -2  -2 -13   48.40    7.30
  -2  -2 -13   27.30    7.80
  -2   2 -13   54.59    8.40
   2   2  13   37.10    8.80
   3  -2  13   33.30    5.70
  -3  -2 -13   26.90    7.50
  -3  -2 -13   28.90    5.30
   3  -2  13   20.70    5.90
   3   2  13   20.70    6.70
  -3   2 -13   29.30    5.70
   4  -2  13   -2.40    2.30
  -4  -2 -13   -2.50    2.50
  -4  -2 -13    2.10    1.90
   4  -2  13   -2.00    2.10
  -4   2 -13    0.10    2.00
   4   2  13   -5.60    3.10
   5  -2  13    0.60    2.20
  -5  -2 -13    2.70    2.60
   5   2  13    0.60    3.00
  -5   2 -13   -0.20    1.60
   6  -3 -13   67.89    9.20
  -6  -3  13   69.79    7.90
  -5  -3  13   13.40    4.30
   5  -3 -13   23.00    5.20
  -5  -3  13   24.10    5.30
  -4  -3  13    0.40    1.80
  -4  -3  13   -0.80    2.10
   4  -3 -13    0.80    2.70
  -3  -3  13   -0.60    1.80
   3  -3 -13    4.30    2.90
  -2  -3  13   -0.10    1.40
   2  -3 -13    0.10    2.50
   1  -3 -13   57.49    7.40
  -1  -3  13   56.59    6.40
 -12   0  14   36.00    6.20
  12   0 -14   38.50    5.50
  12   0 -14   34.60    5.90
 -12   0  14   36.30    5.90
 -11   0  14    0.80    2.90
 -11   0  14   -3.50    2.80
  11   0 -14    0.50    2.40
  11   0 -14    0.10    2.10
 -10   0  14   23.60    5.40
 -10   0  14   39.50    7.50
  10   0 -14   23.30    5.30
  10   0 -14   19.50    4.90
   9   0 -14   -1.90    3.00
  -9   0  14    0.00    2.60
   9   0 -14   -0.20    2.40
  -9   0  14    1.40    3.10
  -8   0  14   -3.60    3.20
   8   0 -14   -3.80    2.60
   8   0 -14   -4.00    2.50
  -8   0  14   -0.50    3.10
   7   0 -14   -1.30    2.80
   7   0 -14    2.70    2.90
  -7   0  14   -2.90    3.60
  -7   0  14   -0.70    3.10
   6   0 -14   13.70    5.20
  -6   0  14   20.30    7.50
   6   0 -14   15.80    6.20
  -6   0  14    8.30    4.10
  -6   0  14   16.60    5.90
   5   0 -14   -1.90    2.70
  -5   0  14   -0.30    3.40
   5   0 -14    1.10    3.10
  -5   0  14    1.60    4.50
  -4   0  14   19.80    7.00
   4   0 -14   34.00    7.60
   4   0 -14   19.60    5.20
  -4   0  14   28.70    7.00
   3   0 -14    2.90    3.10
  -3   0  14    0.90    3.80
  -3   0  14    0.90    5.20
   3   0 -14    2.40    3.50
  -2   0  14  406.26   43.30
  -2   0  14  387.16   45.60
   2   0 -14  426.36   43.00
   2   0 -14  485.85   43.90
  -1   0  14   -0.30    4.30
   1   0 -14   -0.50    3.00
  -1   0  14    1.70    3.80
   1   0 -14    0.50    3.40
   0   0 -14   10.60    4.40
   0   0  14   11.20    5.50
   0   0 -14    3.50    3.80
   0   0  14    5.00    5.60
  -1   0 -14   -0.80    3.20
  -1   0 -14    0.00    3.30
   1   0  14   -2.70    3.50
   1   0  14   -1.70    5.00
   2   0  14   -0.50    5.10
   2   0  14    1.50    4.90
  -2   0 -14    0.90    3.50
  -2   0 -14    2.60    3.50
   3   0  14   -0.10    3.90
  -3   0 -14   -1.70    3.60
  -3   0 -14   -3.20    2.80
   3   0  14   -3.30    8.30
  -4   0 -14    5.70    2.80
   4   0  14   -3.10    3.50
  -4   0 -14    1.10    2.70
   4   0  14   -2.60    4.40
   5   0  14   -1.40    2.20
  -5   0 -14   -1.00    2.30
  -5   0 -14    0.30    2.10
  -6   0 -14   -1.70    1.90
   6   0  14   -1.10    1.90
 -12  -1  14    0.70    2.70
 -12  -1  14   -0.60    1.50
  12  -1 -14    2.80    2.70
  12   1 -14    2.40    2.30
 -11  -1  14    2.50    2.10
  11  -1 -14   -0.40    1.80
 -11  -1  14    1.40    2.10
  11   1 -14    5.80    3.40
  11   1 -14    1.60    2.30
 -11   1  14   -0.70    2.70
  10  -1 -14  137.69   16.20
 -10  -1  14  137.39   16.40
 -10  -1  14  126.29   15.70
 -10   1  14  183.78   19.30
  10   1 -14  180.08   18.40
 -10   1  14  173.68   17.30
  10   1 -14  131.99   16.10
  -9  -1  14  148.39   18.10
  -9  -1  14  158.78   18.80
   9  -1 -14  199.08   19.10
  -9   1  14  186.58   21.20
  -9   1  14  192.48   19.90
   9   1 -14  159.38   18.60
  -8  -1  14    0.40    2.80
   8  -1 -14   -0.80    2.60
  -8  -1  14   -2.00    2.20
   8   1 -14   -1.40    3.10
  -8   1  14    0.10    3.60
   8   1 -14   -4.70    3.40
  -8   1  14   -2.70    4.20
  -7  -1  14   15.30    4.40
  -7  -1  14   10.50    3.40
   7  -1 -14   10.80    4.30
   7   1 -14   19.60    5.50
  -7   1  14   12.70    5.20
   7   1 -14   14.80    5.80
  -7   1  14   17.10    6.10
   6  -1 -14    1.40    2.70
  -6  -1  14    0.20    2.50
  -6  -1  14   -1.20    2.80
  -6   1  14   -4.60    4.30
  -6   1  14    1.40    4.10
   6   1 -14    0.00    3.40
   6   1 -14   -8.60    4.90
   5  -1 -14   16.00    4.90
   5  -1 -14   30.40    8.90
  -5  -1  14   24.90    5.00
  -5  -1  14   18.70    5.40
  -5   1  14   21.40    7.00
  -5   1  14   30.20    8.40
   5   1 -14   34.30    7.80
   5   1 -14   23.90    7.30
   4  -1 -14  473.35   47.80
   4  -1 -14  450.95   46.50
  -4  -1  14  486.15   47.00
  -4  -1  14  407.56   44.70
   4   1 -14  534.55   47.70
  -4   1  14  503.35   48.20
   4   1 -14  524.25   48.50
  -4   1  14  445.86   49.40
  -3  -1  14  356.46   33.90
  -3  -1  14  257.47   30.70
   3  -1 -14  347.47   34.20
   3  -1 -14  344.17   33.40
  -3   1  14  294.67   34.10
   3   1 -14  293.27   33.90
  -3   1  14  375.56   37.10
   3   1 -14  329.07   33.70
   2  -1 -14  187.48   20.40
   2  -1 -14  156.58   19.80
  -2  -1  14  170.68   20.40
   2   1 -14  182.28   21.20
  -2   1  14  209.58   24.40
  -2   1  14  176.58   22.00
   2   1 -14  137.49   20.50
   1  -1 -14   22.60    6.80
  -1  -1  14   21.30    6.20
  -1   1  14   25.10    6.90
   1   1 -14    7.20    8.90
   1   1 -14   18.70    5.80
  -1   1  14   17.00    6.40
   0  -1  14    1.80    3.90
   0  -1 -14    3.70    3.10
   0  -1 -14   -7.40    3.80
   0   1 -14    0.60    5.20
   0   1  14    1.30    4.40
   0   1 -14    2.50    3.40
   1  -1  14   11.20    5.40
  -1  -1 -14    8.60    4.70
  -1   1 -14   13.20    4.70
   1   1  14    5.00    5.20
   1   1  14   14.50    6.80
  -1   1 -14    8.20    5.70
  -2  -1 -14   16.20    5.20
   2  -1  14   22.50    7.10
   2   1  14   22.20    7.80
  -2   1 -14   11.40    4.40
   2   1  14   22.20    7.80
  -2   1 -14   22.30    6.00
   3  -1  14   61.39   10.20
  -3  -1 -14   52.39    9.10
   3   1  14   47.30   10.40
  -3   1 -14   61.29   10.00
   3   1  14   60.29   11.10
  -3   1 -14   57.99    9.20
  -4  -1 -14   72.09   10.30
   4  -1  14   76.29   11.30
  -4   1 -14   93.09   11.00
   4   1  14   73.29   11.80
   4   1  14   71.99   12.70
   5  -1  14    1.20    3.20
   5  -1  14   -1.70    2.10
  -5  -1 -14    1.60    2.00
  -5   1 -14    1.50    2.10
   5   1  14   -2.00    3.00
 -10  -2  14   43.10    5.60
  10  -2 -14   33.50    6.20
  10   2 -14   44.50    6.40
 -10   2  14   44.50    7.20
   9  -2 -14    1.70    1.60
  -9  -2  14    0.00    1.70
  -9  -2  14   -0.50    1.60
   9  -2 -14    1.40    2.80
  -9   2  14   -0.80    2.40
   9   2 -14    1.00    2.00
  -8  -2  14   15.90    3.20
   8  -2 -14   17.80    6.10
   8  -2 -14   14.70    3.20
  -8  -2  14   14.10    3.50
  -8   2  14   19.30    5.40
   8   2 -14   16.00    4.20
  -7  -2  14   14.70    3.50
   7  -2 -14   14.10    3.30
  -7  -2  14   12.00    3.50
   7  -2 -14   16.00    6.20
  -7   2  14   17.10    6.40
   7   2 -14    7.40    3.50
  -6  -2  14   -2.30    1.80
  -6  -2  14    0.40    2.00
   6  -2 -14   -0.50    2.00
   6  -2 -14   -0.50    3.00
  -6   2  14   -0.40    3.50
   5  -2 -14   79.99   13.10
   5  -2 -14  108.29   11.70
  -5  -2  14  102.79   11.70
  -5  -2  14   99.19   11.50
  -5   2  14  103.09   14.90
   5   2 -14   91.19   12.70
   4  -2 -14  328.87   36.00
  -4  -2  14  340.47   34.00
  -4  -2  14  360.26   34.70
   4  -2 -14  418.06   34.80
   4   2 -14  381.76   36.00
  -4   2  14  295.87   37.20
   3  -2 -14    6.30    4.30
   3  -2 -14    5.50    3.20
  -3  -2  14    6.70    2.70
  -3  -2  14    7.50    3.80
  -3  -2  14    8.90    3.60
  -3   2  14    6.70    5.10
   3   2 -14    6.20    3.30
  -2  -2  14   64.39    8.90
   2  -2 -14   69.39    8.90
  -2  -2  14   52.79    7.10
  -2  -2  14   42.90    8.40
   2  -2 -14   52.49    8.70
   2   2 -14   51.79    8.70
  -2   2  14   74.09   12.30
   1  -2 -14   28.50    5.30
   1  -2 -14   17.10    5.20
   1  -2 -14    8.20    5.30
  -1  -2  14   22.70    5.80
  -1  -2  14   19.60    4.00
  -1  -2  14   27.80    5.50
   1   2 -14   20.00    5.20
  -1   2  14   21.40    7.20
   0  -2 -14   14.40    3.80
   0  -2  14   10.00    4.40
   0  -2  14   13.90    4.10
   0   2 -14   19.80    4.60
   0   2  14    8.40    5.10
  -1  -2 -14   33.00    5.20
   1  -2  14   21.40    4.40
  -1  -2 -14   13.30    4.80
   1  -2  14   25.20    6.10
  -1   2 -14   20.30    4.50
   1   2  14   31.60    7.90
   2  -2  14    1.30    1.90
   2  -2  14   -0.10    2.30
  -2  -2 -14   -2.80    2.60
  -2  -2 -14   -0.80    1.80
   2   2  14   -5.60    2.80
  -2   2 -14   -1.90    1.60
  -3  -2 -14    1.70    1.80
   3  -2  14    0.00    3.40
  -3  -2 -14    0.80    2.60
  -3   2 -14    1.20    1.90
   3   2  14    1.20    3.60
 -11   0  15  108.39   12.20
  11   0 -15   88.69   12.40
 -11   0  15   70.39   11.30
  10   0 -15   -0.30    2.10
 -10   0  15   -3.40    2.10
 -10   0  15    0.90    3.10
  10   0 -15    1.00    2.00
 -10   0  15    2.70    2.30
  -9   0  15   41.20    7.50
   9   0 -15   48.80    7.60
  -9   0  15   41.90    7.80
  -9   0  15   33.60    5.80
   9   0 -15   52.89    7.90
   8   0 -15   -3.10    2.70
   8   0 -15   -0.30    2.90
  -8   0  15    2.90    4.20
  -8   0  15   -3.10    2.80
   7   0 -15    3.40    3.10
   7   0 -15    5.20    3.50
  -7   0  15    6.40    3.80
  -7   0  15    3.30    4.20
  -6   0  15   -1.40    2.80
  -6   0  15    0.40    3.30
   6   0 -15   -1.70    2.50
   6   0 -15   -0.70    2.80
  -5   0  15  234.58   25.80
  -5   0  15  217.28   27.60
   5   0 -15  248.48   25.20
   5   0 -15  244.78   25.80
   5   0 -15  256.87   26.20
  -4   0  15   -2.70    2.60
  -4   0  15   -1.60    4.20
   4   0 -15   -0.40    2.90
   4   0 -15    0.00    3.10
  -3   0  15  875.01   84.89
  -3   0  15 1053.19   87.99
   3   0 -15  845.42   84.29
   3   0 -15  860.41   84.29
   2   0 -15   -1.20    2.80
   2   0 -15    0.20    3.50
  -2   0  15   -3.90    4.10
  -2   0  15    2.40    3.20
   1   0 -15    7.20    3.90
   1   0 -15    4.80    4.40
  -1   0  15    4.20    3.70
  -1   0  15    1.40    5.10
   0   0  15   -3.00    3.00
   0   0 -15    0.80    2.80
   0   0  15   -9.10    3.90
   0   0 -15   -1.60    3.00
  -1   0 -15    1.30    2.70
  -1   0 -15    0.20    3.00
   1   0  15   -0.20    3.10
   1   0  15    3.10    4.80
  -2   0 -15    1.40    2.30
  -2   0 -15   -1.90    2.40
   2   0  15    2.80    3.60
   2   0  15   -3.60    4.20
  -3   0 -15   17.10    3.70
  -3   0 -15    7.40    3.20
   3   0  15   13.40    4.40
   3   0  15   12.00    5.20
  -4   0 -15   -1.10    2.30
  -4   0 -15   -1.20    1.70
   4   0  15    1.90    3.40
 -11  -1  15    7.20    1.70
  11  -1 -15   -1.10    2.70
 -11   1  15    4.90    2.70
 -10  -1  15   13.80    3.00
 -10  -1  15   15.10    3.80
  10  -1 -15   13.40    3.30
  10  -1 -15   13.10    4.80
 -10   1  15   13.50    4.50
  10   1 -15   10.80    3.20
   9  -1 -15   35.30    5.90
  -9  -1  15   24.30    5.10
  -9  -1  15   37.00    5.40
  -9   1  15   31.70    8.90
   9   1 -15   28.10    7.50
   9   1 -15   35.60    6.50
  -9   1  15   34.30    7.40
   8  -1 -15   -7.60    3.70
   8  -1 -15   -0.40    1.90
  -8  -1  15   -0.90    2.00
  -8  -1  15   -1.80    1.90
   8   1 -15   -6.00    3.00
  -8   1  15    4.10    4.10
   8   1 -15    3.30    3.10
  -8   1  15   -0.30    3.60
  -7  -1  15    5.10    4.00
  -7  -1  15    3.20    2.40
   7  -1 -15   -6.40    3.20
   7  -1 -15    1.10    4.00
   7   1 -15    4.30    4.10
   7   1 -15   -3.30    4.40
  -7   1  15   -3.80    4.10
  -7   1  15    1.10    5.10
  -6  -1  15   25.70    5.00
   6  -1 -15   27.90    7.30
  -6  -1  15   41.80    7.70
   6  -1 -15   45.10    7.60
   6   1 -15   35.90    7.50
  -6   1  15   37.90    7.00
   6   1 -15   27.90    6.50
  -6   1  15   28.30    8.10
  -5  -1  15   33.50    6.90
   5  -1 -15   52.49    8.00
   5  -1 -15   47.70    9.10
  -5  -1  15   41.90    6.40
  -5   1  15   53.79   10.20
   5   1 -15   59.79    9.30
   5   1 -15   36.50    7.10
  -5   1  15   31.20    7.40
   4  -1 -15  330.47   32.30
   4  -1 -15  279.57   31.90
  -4  -1  15  325.77   32.60
  -4   1  15  294.27   34.70
   4   1 -15  335.07   32.70
   4   1 -15  342.37   33.20
  -4   1  15  333.07   33.50
   3  -1 -15  121.29   14.30
  -3  -1  15  123.19   14.70
   3  -1 -15   97.59   13.20
  -3   1  15  106.29   15.70
   3   1 -15  125.89   14.90
  -3   1  15  106.89   16.90
   3   1 -15  116.99   14.80
  -2  -1  15   22.60    6.50
   2  -1 -15   28.10    6.20
   2   1 -15   31.70    6.70
  -2   1  15   39.10    8.30
  -2   1  15   20.30    7.20
   2   1 -15   18.30    5.80
  -1  -1  15   -2.00    3.10
   1  -1 -15    0.00    3.10
   1   1 -15    8.10    4.60
   1   1 -15    1.60    2.70
  -1   1  15   -3.50    3.80
   0   1  15   10.90    5.20
   0   1 -15   -0.10    4.60
   1  -1  15    2.90    3.80
  -1  -1 -15    0.60    3.00
   1   1  15   -1.30    3.00
   1   1  15    5.90    5.40
  -1   1 -15    0.70    2.80
   2  -1  15   22.20    5.50
   2   1  15   30.30    6.90
   2   1  15   37.60    7.80
  -2   1 -15   22.40    4.80
   3  -1  15   -2.40    2.20
   3  -1  15   -2.40    2.30
  -3  -1 -15   -0.30    1.90
   3   1  15    0.80    3.30
  -3   1 -15    2.10    2.30
   8  -2 -15    2.90    2.50
  -8  -2  15   -0.60    1.50
   8   2 -15   -0.70    1.70
  -8   2  15   -3.60    2.30
   7  -2 -15   -1.00    1.70
  -7  -2  15   -3.10    1.50
   7  -2 -15    1.70    2.60
   7   2 -15   -2.30    1.90
  -7   2  15   -2.50    3.40
   6  -2 -15   -1.00    2.20
  -6  -2  15   -2.00    1.50
   6  -2 -15   -0.50    2.80
  -6  -2  15    1.80    2.00
  -6   2  15    8.10    3.40
   6   2 -15    5.30    2.20
   5  -2 -15    3.50    3.00
   5  -2 -15    5.50    2.30
  -5  -2  15   10.70    4.50
  -5  -2  15    4.60    2.00
  -5   2  15    6.40    3.40
   5   2 -15    5.70    2.90
  -4  -2  15    0.80    2.90
   4  -2 -15    0.70    2.10
  -4  -2  15    1.50    1.80
   4  -2 -15    0.80    3.10
   4   2 -15    1.60    2.30
  -4   2  15    4.10    3.00
   3  -2 -15   53.89    6.70
   3  -2 -15   45.30    6.80
  -3  -2  15   50.09    7.40
   3   2 -15   47.40    7.40
  -2  -2  15    1.30    2.70
   2  -2 -15    2.10    2.10
  -2  -2  15    2.10    2.80
   2   2 -15    1.10    2.30
  -2   2  15    2.40    3.50
  -1  -2  15    1.90    2.80
  -1  -2  15   -0.90    2.30
   1  -2 -15    1.30    2.80
  -1   2  15    0.40    2.90
   1   2 -15    1.90    2.20
   0  -2 -15    0.70    1.60
   0  -2  15   -2.00    2.40
   0   2 -15    0.30    2.00
   0   2  15   -0.40    3.90
   1   2  15   72.69   11.00
 -10   0  16  101.39   11.40
  10   0 -16  102.89   11.10
  -9   0  16   -2.30    2.10
  -9   0  16   -5.30    2.80
   9   0 -16    3.40    2.40
   9   0 -16   -4.60    1.90
  -8   0  16    0.70    3.40
  -8   0  16    0.40    2.70
   8   0 -16   -2.30    2.10
   8   0 -16   -0.60    1.90
   7   0 -16    0.40    2.40
   7   0 -16   -1.00    2.00
  -7   0  16   -0.90    2.50
   7   0 -16    9.80    3.40
  -7   0  16   -1.10    3.30
  -6   0  16   14.20    5.10
   6   0 -16   16.10    4.40
   6   0 -16   18.10    4.30
  -6   0  16   19.30    5.00
   5   0 -16   -0.90    2.20
  -5   0  16    0.70    2.60
   5   0 -16    1.60    2.50
  -5   0  16   -3.60    3.30
  -4   0  16   21.00    6.20
   4   0 -16   28.00    5.80
  -4   0  16   24.80    5.50
   4   0 -16   25.50    5.40
   3   0 -16   -0.70    2.20
  -3   0  16    2.80    2.60
  -3   0  16    9.20    4.80
   3   0 -16   -1.90    2.70
  -2   0  16   69.39   10.50
   2   0 -16   82.09    9.90
  -2   0  16   71.39   12.40
   2   0 -16   57.19    9.70
  -1   0  16   -1.20    3.20
   1   0 -16    0.70    3.10
  -1   0  16    6.40    4.40
   0   0  16   19.80    5.50
   0   0 -16   23.90    4.90
   0   0  16   24.30    5.50
   0   0 -16   20.10    4.40
  -1   0 -16    2.30    3.10
  -1   0 -16   -0.50    2.00
  -2   0 -16    9.60    3.30
   2   0  16   23.00    5.10
  -2   0 -16   13.50    4.20
   9  -1 -16    1.40    2.30
  -9  -1  16    0.20    2.50
   9  -1 -16   -0.80    1.50
   9   1 -16    0.90    2.10
  -9   1  16    1.80    2.80
   8  -1 -16    2.20    2.30
   8  -1 -16    1.00    3.00
  -8  -1  16    4.30    2.50
  -8   1  16   -1.10    2.70
   8   1 -16    3.80    2.20
   7  -1 -16    6.60    4.00
   7  -1 -16    4.50    2.30
  -7  -1  16    2.40    2.40
  -7   1  16   -5.30    6.30
  -7   1  16    2.40    3.40
   7   1 -16    3.60    2.30
   6  -1 -16    1.40    2.20
  -6  -1  16    0.30    2.50
   6  -1 -16   -0.60    3.20
  -6   1  16    1.10    3.20
  -6   1  16   14.00    5.70
   6   1 -16   -0.50    1.90
   6   1 -16   10.70    4.80
   5  -1 -16    1.10    1.90
   5  -1 -16   -2.10    3.00
  -5  -1  16    2.70    2.70
  -5   1  16   -2.20    2.80
  -5   1  16   -6.00    3.70
   5   1 -16   -1.30    2.00
   4  -1 -16  221.08   24.70
  -4   1  16  259.37   26.20
  -4   1  16  300.27   28.00
   4   1 -16  231.68   25.10
   4   1 -16  236.58   26.90
  -3  -1  16   28.30    5.90
  -3   1  16   26.40    7.10
  -3   1  16   36.80    7.40
   3   1 -16   55.09   11.50
   2  -1 -16    4.60    3.10
  -2  -1  16    6.00    3.50
  -2   1  16    5.70    3.70
  -2   1  16   -4.30    4.20
   2   1 -16    6.50    2.90
   1  -1 -16   17.90    4.30
  -1  -1  16    8.80    3.60
  -1   1  16    7.10    7.40
  -1   1  16   12.20    5.40
   1   1 -16   13.80    3.70
   0  -1  16   66.59    9.70
   0  -1 -16   65.39    9.10
   0   1  16   68.49   11.10
   0   1 -16   79.69    9.40
   1  -1  16    6.20    2.80
  -1  -1 -16    5.90    2.70
   1   1  16    6.00    4.70
  -1   1 -16    4.70    2.10
   7   0 -17  120.19   13.00
  -7   0  17  126.99   13.60
  -6   0  17    0.90    2.50
   6   0 -17   -1.40    1.80
   6   0 -17   -4.90    2.70
  -5   0  17   33.90    6.40
   5   0 -17   32.60    4.90
   5   0 -17   22.10    5.90
   4   0 -17    0.40    2.40
   4   0 -17   -1.50    1.80
  -4   0  17   -1.10    2.20
   3   0 -17   17.70    4.90
  -3   0  17   25.40    5.30
   3   0 -17   28.70    4.60
  -2   0  17   -1.90    3.00
   2   0 -17    1.30    2.00
   2   0 -17   -4.40    2.40
   1   0 -17  116.19   12.20
  -1   0  17   99.19   12.30
   5  -1 -17   22.30    4.10
  -5  -1  17   24.50    4.40
  -5   1  17   11.70    4.10
   5   1 -17   11.80    3.00
   4  -1 -17   -0.80    2.90
  -4  -1  17   -1.10    2.20
  -4   1  17   -2.30    2.60
   4   1 -17    3.00    2.00
  -3  -1  17   28.20    5.60
   3   1 -17   42.80    5.60
  -3   1  17   25.70    5.60
   0   0   0    0.00    0.00
;
_shelx_hkl_checksum              97673
_olex2_submission_special_instructions 'No special instructions were received'
loop_
_space_group_symop_operation_xyz
'x, y, z'
'-x+1/2, y+1/2, -z+1/2'
'-x, -y, -z'
'x-1/2, -y-1/2, z-1/2'
loop_
_atom_site_label
_atom_site_type_symbol
_atom_site_fract_x
_atom_site_fract_y
_atom_site_fract_z
_atom_site_U_iso_or_equiv
_atom_site_adp_type
_atom_site_occupancy
_atom_site_site_symmetry_order
_atom_site_calc_flag
_atom_site_refinement_flags_posn
_atom_site_refinement_flags_adp
_atom_site_refinement_flags_occupancy
_atom_site_disorder_assembly
_atom_site_disorder_group
O1 O 0.53408(11) 0.2098(5) 0.61362(12) 0.0659(6) Uani 1 1 d . . . . .
C10 C -0.04800(17) 0.5271(7) 0.57288(15) 0.0564(6) Uani 1 1 d . . . . .
H10 H -0.081433 0.546213 0.623092 0.068 Uiso 1 1 calc R U . A 1
C2 C 0.43828(16) 0.2707(6) 0.59752(16) 0.0493(5) Uani 1 1 d . . . . .
N3 N 0.37276(12) 0.1708(5) 0.51074(12) 0.0478(5) Uani 1 1 d . . . . .
H3 H 0.399596 0.067664 0.468686 0.057 Uiso 1 1 calc R U . . .
C4 C 0.26865(15) 0.2227(5) 0.48638(14) 0.0449(5) Uani 1 1 d . . . . .
H4 H 0.229270 0.145838 0.425822 0.054 Uiso 1 1 calc R U . . .
C5 C 0.22031(15) 0.3854(5) 0.54885(14) 0.0431(5) Uani 1 1 d . . . . .
C6 C 0.28466(16) 0.4948(5) 0.63971(15) 0.0492(6) Uani 1 1 d . . . . .
H6 H 0.254598 0.606849 0.684373 0.059 Uiso 1 1 calc R U . . .
C7 C 0.38911(17) 0.4410(6) 0.66365(16) 0.0532(6) Uani 1 1 d . . . . .
H7 H 0.429070 0.516532 0.724115 0.064 Uiso 1 1 calc R U . . .
C8 C 0.10604(15) 0.4443(5) 0.52290(15) 0.0439(5) Uani 1 1 d . . . . .
N9 N 0.05652(15) 0.4717(6) 0.59576(14) 0.0555(6) Uani 0.5 1 d . . P B 1
C9 C 0.05652(15) 0.4717(6) 0.59576(14) 0.0555(6) Uani 0.5 1 d . . P B 2
H9 H 0.093821 0.452695 0.660759 0.067 Uiso 0.5 1 calc R U P B 2
O1W O 0.6822(2) 0.5339(13) 0.76272(19) 0.1236(13) Uani 0.89 1 d D . P C 1
H1WA H 0.6999(15) 0.704(12) 0.731(4) 0.185 Uiso 0.89 1 d D U P D 1
H1WB H 0.630(3) 0.48(2) 0.717(3) 0.185 Uiso 0.89 1 d D U P E 1
O2W O 0.777(4) 0.767(13) 0.769(3) 0.170(14) Uiso 0.11 1 d . . P F 2
H2WA H 0.721221 0.761753 0.788159 0.255 Uiso 0.11 1 d R U P F 2
H2WB H 0.756621 0.776333 0.707139 0.255 Uiso 0.11 1 d R U P F 2
loop_
_atom_site_aniso_label
_atom_site_aniso_U_11
_atom_site_aniso_U_22
_atom_site_aniso_U_33
_atom_site_aniso_U_23
_atom_site_aniso_U_13
_atom_site_aniso_U_12
O1 0.0459(9) 0.0813(12) 0.0706(11) -0.0108(8) 0.0149(7) 0.0073(7)
C10 0.0527(12) 0.0674(14) 0.0530(12) 0.0053(10) 0.0207(9) 0.0090(10)
C2 0.0457(10) 0.0476(11) 0.0567(11) 0.0030(8) 0.0167(8) 0.0028(8)
N3 0.0456(9) 0.0516(10) 0.0508(9) -0.0017(7) 0.0206(7) 0.0061(7)
C4 0.0462(10) 0.0428(10) 0.0480(10) 0.0015(8) 0.0162(8) 0.0034(7)
C5 0.0481(11) 0.0355(9) 0.0493(10) 0.0045(7) 0.0191(8) 0.0049(7)
C6 0.0561(12) 0.0436(10) 0.0524(11) -0.0004(8) 0.0219(9) 0.0075(8)
C7 0.0554(12) 0.0515(12) 0.0521(11) -0.0045(9) 0.0125(9) 0.0029(9)
C8 0.0470(10) 0.0330(9) 0.0554(11) 0.0045(7) 0.0198(8) 0.0053(7)
N9 0.0520(11) 0.0644(12) 0.0521(10) 0.0054(9) 0.0170(8) 0.0099(9)
C9 0.0520(11) 0.0644(12) 0.0521(10) 0.0054(9) 0.0170(8) 0.0099(9)
O1W 0.102(2) 0.189(4) 0.0677(16) 0.015(2) -0.0006(14) -0.008(3)
loop_
_atom_type_symbol
_atom_type_description
_atom_type_scat_dispersion_real
_atom_type_scat_dispersion_imag
_atom_type_scat_source
C C 0.0181 0.0091 'International Tables Vol C Tables 4.2.6.8 and 6.1.1.4'
H H 0.0000 0.0000 'International Tables Vol C Tables 4.2.6.8 and 6.1.1.4'
N N 0.0311 0.0180 'International Tables Vol C Tables 4.2.6.8 and 6.1.1.4'
O O 0.0492 0.0322 'International Tables Vol C Tables 4.2.6.8 and 6.1.1.4'
loop_
_geom_angle_atom_site_label_1
_geom_angle_atom_site_label_2
_geom_angle_atom_site_label_3
_geom_angle
_geom_angle_site_symmetry_1
_geom_angle_site_symmetry_3
_geom_angle_publ_flag
C8 C10 H10 119.1 3_566 . ?
N9 C10 H10 119.1 . . ?
N9 C10 C8 121.89(19) . 3_566 ?
C9 C10 C8 121.89(19) . 3_566 ?
O1 C2 N3 119.90(19) . . ?
O1 C2 C7 125.2(2) . . ?
N3 C2 C7 114.93(18) . . ?
C2 N3 H3 117.7 . . ?
C4 N3 C2 124.55(17) . . ?
C4 N3 H3 117.7 . . ?
N3 C4 H4 119.4 . . ?
N3 C4 C5 121.27(18) . . ?
C5 C4 H4 119.4 . . ?
C4 C5 C6 116.46(18) . . ?
C4 C5 C8 121.78(19) . . ?
C6 C5 C8 121.76(17) . . ?
C5 C6 H6 119.1 . . ?
C7 C6 C5 121.88(18) . . ?
C7 C6 H6 119.1 . . ?
C2 C7 H7 119.5 . . ?
C6 C7 C2 120.9(2) . . ?
C6 C7 H7 119.5 . . ?
C10 C8 C5 122.40(18) 3_566 . ?
N9 C8 C10 118.7(2) . 3_566 ?
N9 C8 C5 118.95(19) . . ?
C9 C8 C5 118.95(19) . . ?
C8 N9 C10 119.5(2) . . ?
C10 C9 H9 120.3 . . ?
C8 C9 C10 119.5(2) . . ?
C8 C9 H9 120.3 . . ?
H1WA O1W H1WB 94(5) . . ?
H2WA O2W H2WB 104.5 . . ?
loop_
_geom_bond_atom_site_label_1
_geom_bond_atom_site_label_2
_geom_bond_distance
_geom_bond_site_symmetry_2
_geom_bond_publ_flag
O1 C2 1.256(2) . ?
C10 H10 0.9300 . ?
C10 C8 1.383(3) 3_566 ?
C10 N9 1.360(3) . ?
C10 C9 1.360(3) . ?
C2 N3 1.366(3) . ?
C2 C7 1.422(3) . ?
N3 H3 0.8600 . ?
N3 C4 1.352(2) . ?
C4 H4 0.9300 . ?
C4 C5 1.363(3) . ?
C5 C6 1.413(3) . ?
C5 C8 1.485(3) . ?
C6 H6 0.9300 . ?
C6 C7 1.357(3) . ?
C7 H7 0.9300 . ?
C8 N9 1.358(3) . ?
C8 C9 1.358(3) . ?
C9 H9 0.9300 . ?
O1W H1WA 0.850(2) . ?
O1W H1WB 0.850(2) . ?
O2W H2WA 0.8501 . ?
O2W H2WB 0.8500 . ?
loop_
_geom_hbond_atom_site_label_D
_geom_hbond_atom_site_label_H
_geom_hbond_atom_site_label_A
_geom_hbond_distance_DH
_geom_hbond_distance_HA
_geom_hbond_distance_DA
_geom_hbond_angle_DHA
_geom_hbond_site_symmetry_A
_geom_hbond_publ_flag
O1W H1WA O1W 0.850(2) 1.987(18) 2.698(5) 141(2) 2_656 yes
O1W H1WB O1 0.850(2) 1.96(2) 2.779(4) 163(7) . yes
loop_
_geom_torsion_atom_site_label_1
_geom_torsion_atom_site_label_2
_geom_torsion_atom_site_label_3
_geom_torsion_atom_site_label_4
_geom_torsion
_geom_torsion_site_symmetry_1
_geom_torsion_site_symmetry_2
_geom_torsion_site_symmetry_3
_geom_torsion_site_symmetry_4
_geom_torsion_publ_flag
O1 C2 N3 C4 179.75(18) . . . . ?
O1 C2 C7 C6 -179.9(2) . . . . ?
C10 C8 N9 C10 -0.2(4) 3_566 . . . ?
C10 C8 C9 C10 -0.2(4) 3_566 . . . ?
C2 N3 C4 C5 0.3(3) . . . . ?
N3 C2 C7 C6 0.1(3) . . . . ?
N3 C4 C5 C6 -0.1(3) . . . . ?
N3 C4 C5 C8 179.95(16) . . . . ?
C4 C5 C6 C7 0.0(3) . . . . ?
C4 C5 C8 C10 -26.2(3) . . . 3_566 ?
C4 C5 C8 N9 153.9(2) . . . . ?
C4 C5 C8 C9 153.9(2) . . . . ?
C5 C6 C7 C2 0.0(3) . . . . ?
C5 C8 N9 C10 179.7(2) . . . . ?
C5 C8 C9 C10 179.7(2) . . . . ?
C6 C5 C8 C10 153.9(2) . . . 3_566 ?
C6 C5 C8 N9 -26.0(3) . . . . ?
C6 C5 C8 C9 -26.0(3) . . . . ?
C7 C2 N3 C4 -0.2(3) . . . . ?
C8 C10 N9 C8 0.2(4) 3_566 . . . ?
C8 C10 C9 C8 0.2(4) 3_566 . . . ?
C8 C5 C6 C7 179.92(18) . . . . ?
