#------------------------------------------------------------------------------
#$Date: 2022-03-03 21:54:07 +0200 (Thu, 03 Mar 2022) $
#$Revision: 273232 $
#$URL: file:///home/coder/svn-repositories/cod/cif/4/51/93/4519322.cif $
#------------------------------------------------------------------------------
#
# This file is available in the Crystallography Open Database (COD),
# http://www.crystallography.net/
#
# All data on this site have been placed in the public domain by the
# contributors.
#
data_4519322
loop_
_publ_author_name
'Zhang, Guojie'
'Yi, Zhenxin'
'Cheng, Guangbin'
'Yang, Wei'
'Yang, Hongwei'
_publ_section_title
;
 Polynitro-Functionalized Azopyrazole with High Performance and Low
 Sensitivity as Novel Energetic Materials.
;
_journal_issue                   8
_journal_name_full               'ACS applied materials &amp; interfaces'
_journal_page_first              10594
_journal_page_last               10604
_journal_paper_doi               10.1021/acsami.2c00154
_journal_volume                  14
_journal_year                    2022
_chemical_formula_moiety         '0.5(C12 K4 N20 O16)'
_chemical_formula_sum            'C6 K2 N10 O8'
_chemical_formula_weight         418.36
_space_group_crystal_system      monoclinic
_space_group_IT_number           14
_space_group_name_Hall           '-P 2ybc'
_space_group_name_H-M_alt        'P 1 21/c 1'
_atom_sites_solution_primary     dual
_audit_creation_date             2019-09-29
_audit_creation_method
;
Olex2 1.2
(compiled 2018.05.29 svn.r3508 for OlexSys, GUI svn.r5506)
;
_cell_angle_alpha                90
_cell_angle_beta                 99.744(2)
_cell_angle_gamma                90
_cell_formula_units_Z            2
_cell_length_a                   8.9980(5)
_cell_length_b                   4.7624(3)
_cell_length_c                   15.5601(10)
_cell_measurement_reflns_used    3454
_cell_measurement_temperature    170
_cell_measurement_theta_max      27.489
_cell_measurement_theta_min      3.204
_cell_volume                     657.16(7)
_computing_cell_refinement       'SAINT V8.38A (?, 2016)'
_computing_data_reduction        'SAINT V8.38A (?, 2016)'
_computing_molecular_graphics    'Olex2 (Dolomanov et al., 2009)'
_computing_publication_material  'Olex2 (Dolomanov et al., 2009)'
_computing_structure_refinement  'ShelXL (Sheldrick, 2015)'
_computing_structure_solution    'ShelXT (Sheldrick, 2015)'
_diffrn_ambient_temperature      170.0
_diffrn_measured_fraction_theta_full 0.987
_diffrn_measured_fraction_theta_max 0.988
_diffrn_measurement_device_type  'bruker d8 venture'
_diffrn_measurement_method       '\f and \w scans'
_diffrn_radiation_type           MoK\a
_diffrn_radiation_wavelength     0.71073
_diffrn_reflns_av_R_equivalents  0.0298
_diffrn_reflns_av_unetI/netI     0.0277
_diffrn_reflns_Laue_measured_fraction_full 0.987
_diffrn_reflns_Laue_measured_fraction_max 0.988
_diffrn_reflns_limit_h_max       11
_diffrn_reflns_limit_h_min       -11
_diffrn_reflns_limit_k_max       6
_diffrn_reflns_limit_k_min       -6
_diffrn_reflns_limit_l_max       19
_diffrn_reflns_limit_l_min       -20
_diffrn_reflns_number            6109
_diffrn_reflns_point_group_measured_fraction_full 0.987
_diffrn_reflns_point_group_measured_fraction_max 0.988
_diffrn_reflns_theta_full        25.242
_diffrn_reflns_theta_max         27.502
_diffrn_reflns_theta_min         2.297
_diffrn_standards_number         0
_exptl_absorpt_coefficient_mu    0.799
_exptl_absorpt_correction_T_max  0.7456
_exptl_absorpt_correction_T_min  0.6785
_exptl_absorpt_correction_type   multi-scan
_exptl_absorpt_process_details
'SADABS-2016/2 (Bruker,2016/2) was used for absorption correction. wR2(int) was 0.0537 before and 0.0474 after correction. The Ratio of minimum to maximum transmission is 0.9100. The \l/2 correction factor is Not present.'
_exptl_crystal_colour            red
_exptl_crystal_colour_primary    red
_exptl_crystal_density_diffrn    2.114
_exptl_crystal_description       block
_exptl_crystal_F_000             416
_exptl_crystal_size_max          0.15
_exptl_crystal_size_mid          0.12
_exptl_crystal_size_min          0.08
_refine_diff_density_max         0.363
_refine_diff_density_min         -0.311
_refine_diff_density_rms         0.059
_refine_ls_extinction_method     none
_refine_ls_goodness_of_fit_ref   1.027
_refine_ls_hydrogen_treatment    undef
_refine_ls_matrix_type           full
_refine_ls_number_parameters     118
_refine_ls_number_reflns         1487
_refine_ls_number_restraints     0
_refine_ls_restrained_S_all      1.027
_refine_ls_R_factor_all          0.0349
_refine_ls_R_factor_gt           0.0292
_refine_ls_shift/su_max          0.001
_refine_ls_shift/su_mean         0.000
_refine_ls_structure_factor_coef Fsqd
_refine_ls_weighting_details
'w=1/[\s^2^(Fo^2^)+(0.0382P)^2^+0.4452P] where P=(Fo^2^+2Fc^2^)/3'
_refine_ls_weighting_scheme      calc
_refine_ls_wR_factor_gt          0.0734
_refine_ls_wR_factor_ref         0.0780
_reflns_Friedel_coverage         0.000
_reflns_number_gt                1317
_reflns_number_total             1487
_reflns_threshold_expression     'I > 2\s(I)'
_iucr_refine_instructions_details
;
TITL 220191011_0m_a.res in P2(1)/c
    220191011_0m.res
    created by SHELXL-2018/3 at 16:10:09 on 29-Sep-2019
REM Old TITL 220191011_0m in P2(1)/c
REM SHELXT solution in P2(1)/c
REM R1 0.090, Rweak 0.002, Alpha 0.032, Orientation as input
REM Formula found by SHELXT: C9 N O2 Cl
CELL 0.71073 8.998 4.7624 15.5601 90 99.744 90
ZERR 2 0.0005 0.0003 0.001 0 0.002 0
LATT 1
SYMM -X,0.5+Y,0.5-Z
SFAC C K N O
UNIT 12 4 20 16

L.S. 4
PLAN  20
SIZE 0.15 0.12 0.08
TEMP -103.15
list 4
fmap 2
acta
REM <olex2.extras>
REM <HklSrc "%.\\220191011_0m.hkl">
REM </olex2.extras>

WGHT    0.038200    0.445200
FVAR       1.26338
K1    2    0.806721    0.766849    0.397669    11.00000    0.01634    0.02430 =
         0.02161   -0.00404    0.00281   -0.00245
O4    4    0.565698    0.426888    0.363978    11.00000    0.01408    0.02099 =
         0.02473   -0.00053    0.00188    0.00000
O3    4    0.390305    0.421829    0.250024    11.00000    0.02615    0.03253 =
         0.01530   -0.00692    0.00263   -0.00433
O2    4   -0.041180    0.258431    0.354845    11.00000    0.01596    0.02366 =
         0.03013    0.00243    0.00234   -0.00589
O1    4    0.137174    0.138557    0.284809    11.00000    0.02954    0.02298 =
         0.02807   -0.00934    0.00617   -0.00665
N5    3    0.434820    0.463645    0.327537    11.00000    0.01681    0.01421 =
         0.01777   -0.00190    0.00345   -0.00287
N3    3    0.122501    0.670690    0.436790    11.00000    0.01564    0.01980 =
         0.01825   -0.00328    0.00159   -0.00303
N1    3    0.500436    0.914396    0.468875    11.00000    0.01603    0.01417 =
         0.01447   -0.00046    0.00024   -0.00145
N2    3    0.232835    0.842938    0.474715    11.00000    0.01527    0.01973 =
         0.01810   -0.00400    0.00134   -0.00175
N4    3    0.085555    0.289040    0.336254    11.00000    0.01790    0.01627 =
         0.01669    0.00125   -0.00101   -0.00371
C1    1    0.179004    0.509423    0.379345    11.00000    0.01432    0.01526 =
         0.01581   -0.00005    0.00009   -0.00200
C2    1    0.330653    0.571690    0.380168    11.00000    0.01427    0.01511 =
         0.01327    0.00135    0.00134   -0.00075
C3    1    0.360448    0.781516    0.443100    11.00000    0.01458    0.01530 =
         0.01449    0.00040    0.00104   -0.00112
HKLF 4




REM  220191011_0m_a.res in P2(1)/c
REM wR2 = 0.0780, GooF = S = 1.027, Restrained GooF = 1.027 for all data
REM R1 = 0.0292 for 1317 Fo > 4sig(Fo) and 0.0349 for all 1487 data
REM 118 parameters refined using 0 restraints

END  
     
WGHT      0.0384      0.4424 

REM Highest difference peak  0.363,  deepest hole -0.311,  1-sigma level  0.059
Q1    1   0.3804  0.5075  0.3627  11.00000  0.05    0.36
Q2    1   0.2601  0.5094  0.3750  11.00000  0.05    0.33
Q3    1   0.1411  0.5895  0.4026  11.00000  0.05    0.33
Q4    1   0.1348  0.4081  0.3607  11.00000  0.05    0.31
Q5    1   0.4259  0.8293  0.4603  11.00000  0.05    0.31
Q6    1   0.2983  0.8170  0.4607  11.00000  0.05    0.30
Q7    1   0.3638  0.6495  0.4141  11.00000  0.05    0.29
Q8    1   0.7996  0.9191  0.4588  11.00000  0.05    0.25
Q9    1   0.0411  0.6630  0.4462  11.00000  0.05    0.22
Q10   1   0.2173  0.9558  0.4996  11.00000  0.05    0.21
Q11   1   0.2307  0.8678  0.5171  11.00000  0.05    0.19
Q12   1   0.7330  0.9211  0.4018  11.00000  0.05    0.19
Q13   1   0.1839  0.7797  0.4564  11.00000  0.05    0.18
Q14   1   0.5000  1.0000  0.5000  10.50000  0.05    0.18
Q15   1   0.5588  0.5090  0.4245  11.00000  0.05    0.17
Q16   1  -0.0171  0.3470  0.4013  11.00000  0.05    0.15
Q17   1   0.1978  0.1881  0.2785  11.00000  0.05    0.15
Q18   1  -0.0139  0.1688  0.3307  11.00000  0.05    0.15
Q19   1   0.5577  0.8495  0.4604  11.00000  0.05    0.14
Q20   1   0.2143  0.5955  0.3068  11.00000  0.05    0.14

  REM The information below was added by Olex2.
  REM
  REM R1 = 0.0292 for 1317 Fo > 4sig(Fo) and 0.0349 for all 6512 data
  REM n/a parameters refined using n/a restraints
  REM Highest difference peak 0.36, deepest hole -0.31
  REM Mean Shift 0, Max Shift -0.001.

  REM +++ Tabular Listing of Refinement Information +++
  REM R1_all = 0.0349
  REM R1_gt = 0.0292
  REM wR_ref = 0.0780
  REM GOOF = 1.027
  REM Shift_max = -0.001
  REM Shift_mean = 0
  REM Reflections_all = 6512
  REM Reflections_gt = 1317
  REM Parameters = n/a
  REM Hole = -0.31
  REM Peak = 0.36
  REM Flack = n/a

  
;
_cod_data_source_file            am2c00154_si_002.cif
_cod_data_source_block           220191011_0m
_cod_database_code               4519322
_shelx_shelxl_version_number     2018/3
_shelx_space_group_comment
;
The symmetry employed for this shelxl refinement is uniquely defined
by the following loop, which should always be used as a source of
symmetry information in preference to the above space-group names.
They are only intended as comments.
;
_shelx_estimated_absorpt_t_max   0.939
_shelx_estimated_absorpt_t_min   0.890
_olex2_refinement_description
;
;
_olex2_submission_special_instructions 'No special instructions were received'
loop_
_space_group_symop_operation_xyz
'x, y, z'
'-x, y+1/2, -z+1/2'
'-x, -y, -z'
'x, -y-1/2, z-1/2'
loop_
_atom_site_label
_atom_site_type_symbol
_atom_site_fract_x
_atom_site_fract_y
_atom_site_fract_z
_atom_site_U_iso_or_equiv
_atom_site_adp_type
_atom_site_occupancy
_atom_site_site_symmetry_order
_atom_site_calc_flag
_atom_site_refinement_flags_posn
_atom_site_refinement_flags_adp
_atom_site_refinement_flags_occupancy
_atom_site_disorder_assembly
_atom_site_disorder_group
K1 K 0.80672(4) 0.76685(8) 0.39767(3) 0.02080(14) Uani 1 1 d . . . . .
O4 O 0.56570(13) 0.4269(3) 0.36398(8) 0.0201(3) Uani 1 1 d . . . . .
O3 O 0.39031(14) 0.4218(3) 0.25002(8) 0.0248(3) Uani 1 1 d . . . . .
O2 O -0.04118(14) 0.2584(3) 0.35485(9) 0.0234(3) Uani 1 1 d . . . . .
O1 O 0.13717(15) 0.1386(3) 0.28481(9) 0.0267(3) Uani 1 1 d . . . . .
N5 N 0.43482(15) 0.4636(3) 0.32754(9) 0.0162(3) Uani 1 1 d . . . . .
N3 N 0.12250(16) 0.6707(3) 0.43679(10) 0.0180(3) Uani 1 1 d . . . . .
N1 N 0.50044(15) 0.9144(3) 0.46887(9) 0.0152(3) Uani 1 1 d . . . . .
N2 N 0.23284(15) 0.8429(3) 0.47472(10) 0.0179(3) Uani 1 1 d . . . . .
N4 N 0.08556(16) 0.2890(3) 0.33625(10) 0.0174(3) Uani 1 1 d . . . . .
C1 C 0.17900(18) 0.5094(3) 0.37934(11) 0.0154(3) Uani 1 1 d . . . . .
C2 C 0.33065(17) 0.5717(3) 0.38017(11) 0.0143(3) Uani 1 1 d . . . . .
C3 C 0.36045(18) 0.7815(3) 0.44310(11) 0.0150(3) Uani 1 1 d . . . . .
loop_
_atom_site_aniso_label
_atom_site_aniso_U_11
_atom_site_aniso_U_22
_atom_site_aniso_U_33
_atom_site_aniso_U_23
_atom_site_aniso_U_13
_atom_site_aniso_U_12
K1 0.0163(2) 0.0243(2) 0.0216(2) -0.00404(15) 0.00281(15) -0.00245(14)
O4 0.0141(6) 0.0210(6) 0.0247(7) -0.0005(5) 0.0019(5) 0.0000(5)
O3 0.0262(7) 0.0325(7) 0.0153(6) -0.0069(5) 0.0026(5) -0.0043(5)
O2 0.0160(6) 0.0237(6) 0.0301(8) 0.0024(5) 0.0023(5) -0.0059(5)
O1 0.0295(7) 0.0230(7) 0.0281(7) -0.0093(6) 0.0062(6) -0.0066(5)
N5 0.0168(6) 0.0142(6) 0.0178(7) -0.0019(5) 0.0034(6) -0.0029(5)
N3 0.0156(7) 0.0198(7) 0.0183(7) -0.0033(6) 0.0016(6) -0.0030(6)
N1 0.0160(6) 0.0142(6) 0.0145(7) -0.0005(5) 0.0002(5) -0.0014(5)
N2 0.0153(7) 0.0197(7) 0.0181(7) -0.0040(6) 0.0013(6) -0.0018(5)
N4 0.0179(7) 0.0163(7) 0.0167(7) 0.0013(6) -0.0010(6) -0.0037(5)
C1 0.0143(7) 0.0153(7) 0.0158(8) 0.0000(6) 0.0001(6) -0.0020(6)
C2 0.0143(7) 0.0151(7) 0.0133(8) 0.0013(6) 0.0013(6) -0.0008(6)
C3 0.0146(7) 0.0153(7) 0.0145(8) 0.0004(6) 0.0010(6) -0.0011(6)
loop_
_atom_type_symbol
_atom_type_description
_atom_type_scat_dispersion_real
_atom_type_scat_dispersion_imag
_atom_type_scat_source
C C 0.0033 0.0016 'International Tables Vol C Tables 4.2.6.8 and 6.1.1.4'
K K 0.2009 0.2494 'International Tables Vol C Tables 4.2.6.8 and 6.1.1.4'
N N 0.0061 0.0033 'International Tables Vol C Tables 4.2.6.8 and 6.1.1.4'
O O 0.0106 0.0060 'International Tables Vol C Tables 4.2.6.8 and 6.1.1.4'
loop_
_geom_angle_atom_site_label_1
_geom_angle_atom_site_label_2
_geom_angle_atom_site_label_3
_geom_angle
_geom_angle_site_symmetry_1
_geom_angle_site_symmetry_3
_geom_angle_publ_flag
K1 K1 K1 117.314(9) 1_545 3_776 ?
K1 K1 K1 62.687(9) 1_565 3_776 ?
K1 K1 K1 180.0 1_545 1_565 ?
O4 K1 K1 52.93(3) . 1_545 ?
O4 K1 K1 127.07(3) . 1_565 ?
O4 K1 K1 150.65(3) . 3_776 ?
O4 K1 O3 67.32(4) . 2_655 ?
O4 K1 O2 148.67(4) . 1_665 ?
O4 K1 O2 81.34(4) . 1_655 ?
O4 K1 O1 87.28(4) . 2_655 ?
O4 K1 N3 133.63(4) . 1_655 ?
O4 K1 N3 79.28(4) . 3_666 ?
O4 K1 N1 59.23(4) . . ?
O4 K1 N2 110.17(4) . 3_676 ?
O3 K1 K1 74.46(3) 2_655 1_565 ?
O3 K1 K1 135.67(3) 2_655 3_776 ?
O3 K1 K1 105.54(3) 2_655 1_545 ?
O3 K1 O2 81.46(4) 2_655 1_665 ?
O3 K1 O2 107.02(4) 2_655 1_655 ?
O3 K1 O1 57.17(4) 2_655 2_655 ?
O3 K1 N3 146.58(4) 2_655 3_666 ?
O3 K1 N3 134.52(4) 2_655 1_655 ?
O3 K1 N1 76.17(4) 2_655 . ?
O3 K1 N2 105.91(4) 2_655 3_676 ?
O2 K1 K1 146.21(3) 1_655 1_565 ?
O2 K1 K1 145.31(3) 1_665 1_545 ?
O2 K1 K1 34.69(3) 1_665 1_565 ?
O2 K1 K1 102.63(3) 1_655 3_776 ?
O2 K1 K1 57.06(3) 1_665 3_776 ?
O2 K1 K1 33.79(3) 1_655 1_545 ?
O2 K1 O2 111.52(4) 1_665 1_655 ?
O2 K1 O1 77.50(4) 1_665 2_655 ?
O2 K1 O1 57.23(4) 1_655 2_655 ?
O2 K1 N3 131.83(4) 1_665 3_666 ?
O2 K1 N3 67.45(4) 1_655 3_666 ?
O2 K1 N1 112.01(4) 1_665 . ?
O2 K1 N1 136.32(4) 1_655 . ?
O1 K1 K1 78.36(3) 2_655 1_545 ?
O1 K1 K1 101.64(3) 2_655 1_565 ?
O1 K1 K1 119.61(3) 2_655 3_776 ?
O1 K1 N3 124.41(4) 2_655 3_666 ?
O1 K1 N1 130.94(4) 2_655 . ?
N3 K1 K1 129.29(3) 3_666 1_565 ?
N3 K1 K1 99.28(3) 1_655 1_565 ?
N3 K1 K1 75.71(3) 3_666 3_776 ?
N3 K1 K1 49.57(3) 1_655 3_776 ?
N3 K1 K1 80.72(3) 1_655 1_545 ?
N3 K1 K1 50.71(3) 3_666 1_545 ?
N3 K1 O2 54.79(4) 1_655 1_655 ?
N3 K1 O2 71.32(4) 1_655 1_665 ?
N3 K1 O1 81.32(4) 1_655 2_655 ?
N3 K1 N3 71.10(4) 1_655 3_666 ?
N3 K1 N1 147.73(4) 1_655 . ?
N1 K1 K1 103.61(3) . 3_776 ?
N1 K1 K1 77.38(3) . 1_565 ?
N1 K1 K1 102.62(3) . 1_545 ?
N1 K1 N3 86.12(4) . 3_666 ?
N2 K1 K1 48.17(3) 3_676 1_565 ?
N2 K1 K1 52.36(3) 3_676 3_776 ?
N2 K1 K1 131.84(3) 3_676 1_545 ?
N2 K1 O2 147.03(4) 3_676 1_655 ?
N2 K1 O2 75.10(4) 3_676 1_665 ?
N2 K1 O1 149.80(4) 3_676 2_655 ?
N2 K1 N3 101.46(4) 3_676 1_655 ?
N2 K1 N3 84.01(4) 3_676 3_666 ?
N2 K1 N1 52.31(4) 3_676 . ?
N5 O4 K1 133.05(10) . . ?
N5 O3 K1 157.63(11) . 2_645 ?
K1 O2 K1 111.52(4) 1_445 1_455 ?
N4 O2 K1 116.41(10) . 1_455 ?
N4 O2 K1 130.78(10) . 1_445 ?
N4 O1 K1 129.59(11) . 2_645 ?
O4 N5 C2 116.95(14) . . ?
O3 N5 O4 124.09(14) . . ?
O3 N5 C2 118.93(14) . . ?
K1 N3 K1 108.90(4) 1_455 3_666 ?
N2 N3 K1 90.69(10) . 3_666 ?
N2 N3 K1 129.28(11) . 1_455 ?
C1 N3 K1 115.31(10) . 1_455 ?
C1 N3 K1 96.55(10) . 3_666 ?
C1 N3 N2 107.85(13) . . ?
N1 N1 K1 121.35(14) 3_676 . ?
N1 N1 C3 112.74(17) 3_676 . ?
C3 N1 K1 125.57(10) . . ?
N3 N2 K1 123.08(10) . 3_676 ?
N3 N2 C3 108.48(14) . . ?
C3 N2 K1 128.38(11) . 3_676 ?
O2 N4 C1 117.94(15) . . ?
O1 N4 O2 123.62(14) . . ?
O1 N4 C1 118.43(14) . . ?
N3 C1 N4 118.08(14) . . ?
N3 C1 C2 110.65(14) . . ?
C2 C1 N4 130.82(16) . . ?
C1 C2 N5 130.46(15) . . ?
C3 C2 N5 126.14(14) . . ?
C3 C2 C1 103.33(14) . . ?
N2 C3 N1 124.92(15) . . ?
N2 C3 C2 109.63(14) . . ?
C2 C3 N1 125.44(15) . . ?
loop_
_geom_bond_atom_site_label_1
_geom_bond_atom_site_label_2
_geom_bond_distance
_geom_bond_site_symmetry_2
_geom_bond_publ_flag
K1 K1 4.7624(3) 1_545 ?
K1 K1 4.8396(8) 3_776 ?
K1 K1 4.7624(3) 1_565 ?
K1 O4 2.6860(12) . ?
K1 O3 2.7550(13) 2_655 ?
K1 O2 2.8472(13) 1_665 ?
K1 O2 2.9135(14) 1_655 ?
K1 O1 3.0292(15) 2_655 ?
K1 N3 2.8405(15) 1_655 ?
K1 N3 3.2904(16) 3_666 ?
K1 N1 3.2172(14) . ?
K1 N2 2.7862(15) 3_676 ?
O4 N5 1.2300(18) . ?
O3 N5 1.2212(19) . ?
O2 N4 1.2317(19) . ?
O1 N4 1.223(2) . ?
N5 C2 1.440(2) . ?
N3 N2 1.345(2) . ?
N3 C1 1.342(2) . ?
N1 N1 1.267(3) 3_676 ?
N1 C3 1.406(2) . ?
N2 C3 1.355(2) . ?
N4 C1 1.438(2) . ?
C1 C2 1.394(2) . ?
C2 C3 1.393(2) . ?
loop_
_refln_index_h
_refln_index_k
_refln_index_l
_refln_F_squared_meas
_refln_F_squared_sigma
1 0 0 2.7 1.3
1 0 0 1.9 1.1
-1 0 0 1.3 1
-1 0 0 1.9 1.1
2 0 0 9.2 2.9
2 0 0 16.7 3.3
-2 0 0 15.8 3.7
-2 0 0 13.9 3
-4 0 0 1953.8 49.3
4 0 0 1994.1 51.99
4 0 0 1991 50.29
-4 0 0 1922.11 52.19
5 0 0 3229.08 78.29
5 0 0 3255.57 76.39
-5 0 0 3261.07 75.79
6 0 0 185.18 15.3
6 0 0 160.08 15.3
-6 0 0 165.68 14.3
7 0 0 672.03 34.4
-7 0 0 631.74 31.6
7 0 0 623.84 31.4
-8 0 0 841.12 39.4
8 0 0 819.42 39.6
8 0 0 843.92 41.9
9 0 0 42.7 11.7
9 0 0 47.8 10.4
-9 0 0 28.3 9.1
10 0 0 189.08 21.8
-10 0 0 170.08 15.2
-10 0 0 203.48 21.5
11 0 0 24.2 10.6
-11 0 0 22.7 7.3
-11 0 0 31.8 9.9
0 -1 0 2.1 1.3
0 -1 0 0.1 1.5
0 1 0 -0.1 0.9
0 1 0 0.2 1.4
1 -1 0 1164.18 26.5
1 -1 0 1196.18 31.1
-1 -1 0 1187.78 28.4
-1 -1 0 1250.97 22.8
1 -1 0 1164.18 30.2
-1 1 0 1185.08 30.5
-1 1 0 1161.98 26.3
-1 1 0 1168.88 30.9
1 1 0 1230.58 28.7
1 1 0 1189.38 22.5
2 -1 0 4564.44 90.19
-2 -1 0 4540.05 81.99
2 -1 0 4513.45 82.39
-2 1 0 4526.95 89.59
-2 1 0 4519.15 88.39
-2 1 0 4568.44 82.39
3 -1 0 366.46 19.1
3 -1 0 379.66 15.8
-3 -1 0 400.86 12.2
-3 1 0 340.17 17
3 1 0 391.86 12.2
3 1 0 391.26 20
-3 1 0 358.16 15.5
-3 1 0 361.06 18.9
4 -1 0 4753.22 103.19
4 -1 0 4769.62 95.49
-4 -1 0 4703.63 87.19
-4 1 0 4860.51 96.19
-4 1 0 4723.83 105.19
4 1 0 4771.52 87.99
4 1 0 4555.54 116.39
5 -1 0 685.13 32
5 -1 0 694.63 28.6
-5 -1 0 715.03 24.3
5 1 0 744.53 25.2
-5 1 0 718.43 32.1
-5 1 0 705.53 29.3
5 1 0 747.63 33.8
6 -1 0 191.68 17.3
-6 -1 0 202.98 13.5
6 -1 0 157.28 14.6
6 1 0 200.78 13.7
-6 1 0 176.68 15.6
-6 1 0 209.38 18.2
6 1 0 209.28 18.7
-7 -1 0 183.08 16.8
7 -1 0 213.98 18.3
-7 1 0 183.28 15.7
7 1 0 210.18 20
7 1 0 189.18 15
-7 1 0 189.48 18.6
-7 1 0 166.18 16.3
8 -1 0 56.69 12
-8 -1 0 38.9 8.1
8 -1 0 47 10.9
-8 1 0 55.29 10.7
8 1 0 43.3 9.4
8 1 0 38.3 10.2
-8 1 0 42.8 11.1
9 -1 0 2207.78 74.79
-9 -1 0 2282.37 66.99
9 1 0 2248.18 81.59
9 1 0 2221.48 67.39
-9 1 0 2212.78 68.39
-9 1 0 2150.18 77.59
10 -1 0 661.73 40
-10 -1 0 709.43 35.6
-10 1 0 685.43 42.3
-10 1 0 689.23 35.8
10 1 0 673.63 44.6
10 1 0 670.83 35.4
-11 -1 0 286.67 23.9
11 -1 0 308.67 29.4
11 1 0 256.57 42.5
-11 1 0 288.97 23.3
-11 1 0 290.47 28.5
0 -2 0 3233.78 67.69
0 -2 0 3232.38 74.29
0 2 0 3383.76 68.49
0 2 0 3264.47 74.29
0 2 0 3269.47 69.49
2 -2 0 1671.53 41.4
-2 -2 0 1680.53 45.2
2 -2 0 1670.23 48.8
-2 2 0 1691.33 48.7
-2 2 0 1686.83 41.5
2 2 0 1722.43 33
-2 2 0 1607.54 49.2
2 2 0 1734.43 45
-3 -2 0 188.98 12.5
3 -2 0 186.58 11.8
3 -2 0 190.48 15.7
-3 2 0 168.78 11.1
-3 2 0 186.88 15.2
-3 2 0 190.38 15.3
4 -2 0 4.5 2.8
4 -2 0 6.8 4.4
-4 -2 0 11.8 3.7
-4 2 0 1.2 2.5
-4 2 0 4.6 3.6
-4 2 0 2.8 2.1
5 -2 0 306.97 18.5
-5 -2 0 330.27 17.1
5 -2 0 320.87 23.6
5 2 0 363.76 25.4
-5 2 0 316.37 18.3
-5 2 0 301.17 21.4
5 2 0 325.67 10.3
-5 2 0 299.27 22.7
-6 -2 0 115.69 9.8
6 -2 0 104.19 11.5
6 -2 0 111.89 15.1
6 2 0 108.19 7.3
-6 2 0 108.59 12
6 2 0 106.29 17.2
-6 2 0 125.09 14.4
-6 2 0 102.99 13.8
-7 -2 0 1494.35 43.4
7 -2 0 1491.85 51.09
7 2 0 1504.35 38
7 2 0 1535.55 63.09
-7 2 0 1403.86 50.49
-7 2 0 1453.05 55.29
-7 2 0 1483.85 59.99
8 -2 0 107.49 13
-8 2 0 77.39 16.7
-8 2 0 93.69 16
-8 2 0 97.69 18.3
8 2 0 64.69 15
8 2 0 90.49 8.7
9 -2 0 -0.6 4.6
9 2 0 3.4 4.9
-9 2 0 -4.3 3.4
-9 2 0 9.5 4.1
-9 2 0 3.3 5.6
9 2 0 5.3 3.2
10 -2 0 207.88 21.4
-10 2 0 188.68 21.4
10 2 0 191.58 14.9
-10 2 0 211.08 25.6
10 2 0 192.38 25.1
0 -3 0 4.9 3.3
0 -3 0 3.7 2.3
0 3 0 -0.6 2.2
0 3 0 -3.1 1.9
0 3 0 1 2.1
1 -3 0 1085.59 43.3
-1 -3 0 1087.39 32.7
-1 -3 0 1081.09 41.6
1 -3 0 1084.49 39.2
-1 3 0 1095.59 43.5
1 3 0 1110.59 32.9
1 3 0 1055.89 40.7
-1 3 0 1064.39 38.7
-1 3 0 1141.89 36.9
-2 -3 0 855.61 36
2 -3 0 908.31 37.9
2 3 0 855.91 24.7
2 3 0 861.91 35.5
-2 3 0 941.81 40.6
-2 3 0 891.41 38.1
-2 3 0 862.41 36.7
3 -3 0 1192.68 46.9
3 -3 0 1135.39 37.4
-3 -3 0 1163.78 42
-3 3 0 1145.49 45.9
-3 3 0 1115.79 46.7
3 3 0 1167.38 22.5
-4 -3 0 1189.78 42.5
4 -3 0 1258.97 40.1
-4 3 0 1201.48 50.09
-4 3 0 1287.07 40
-4 3 0 1235.18 50.49
-5 -3 0 5.1 3.5
5 -3 0 2.1 3.5
5 -3 0 4.3 5.6
-5 3 0 10.9 5.2
-5 3 0 8.7 4.3
5 3 0 6.6 5.3
-5 3 0 9.5 6
6 -3 0 26.7 6.6
-6 -3 0 38.7 8.3
-6 3 0 17.8 7.8
-6 3 0 39.1 10.6
6 3 0 11.3 6.6
-6 3 0 31.5 8.1
-7 -3 0 599.24 28.2
7 -3 0 618.84 31.1
-7 3 0 619.64 40.6
7 3 0 632.94 41.6
-7 3 0 639.44 31.5
-7 3 0 628.44 38.4
-8 -3 0 544.25 26.3
8 -3 0 513.45 30
-8 3 0 570.24 37.7
-8 3 0 453.05 35.4
8 3 0 570.94 41.7
-8 3 0 509.85 38.3
9 -3 0 1388.76 55.39
-9 -3 0 1413.86 44.3
-9 3 0 1523.95 65.89
-9 3 0 1488.05 70.79
-9 3 0 1496.15 58.19
9 3 0 1509.25 76.19
10 -3 0 12.1 8.3
10 3 0 14.5 9.1
-10 3 0 18.2 11
-10 3 0 1.7 7.9
0 -4 0 926.11 44.8
0 -4 0 922.61 37.3
0 4 0 944.51 44.6
0 4 0 931.51 37.1
0 4 0 923.31 38.9
1 -4 0 416.36 26.2
-1 -4 0 394.56 27.9
-1 -4 0 438.06 22.3
1 4 0 372.86 25.1
-1 4 0 430.26 30
1 4 0 438.66 21.9
-1 4 0 402.76 25.3
1 4 0 408.46 28.1
-1 4 0 421.96 24.6
-2 -4 0 158.78 17.5
2 -4 0 150.48 16.5
-2 4 0 157.08 18.3
2 4 0 157.88 16.9
-2 4 0 128.49 13.1
-2 4 0 145.29 16.2
2 4 0 162.48 11.3
3 -4 0 52.69 12.3
-3 4 0 58.49 10.2
3 4 0 51.09 4.5
-3 4 0 54.99 12.4
-4 -4 0 8.7 7.3
-4 4 0 17.7 10.5
-4 4 0 8.4 6.5
-4 4 0 2.2 4.3
-5 -4 0 1089.99 46.5
5 -4 0 1144.29 42.3
-5 4 0 1166.78 55.69
-5 4 0 1127.09 56.09
-5 4 0 1096.89 40.6
6 -4 0 124.69 13.9
-6 -4 0 110.39 14.1
-6 4 0 124.59 13.5
6 4 0 128.89 22.8
-6 4 0 129.19 18.3
-6 4 0 158.98 19.7
-7 -4 0 320.07 24.1
7 -4 0 293.27 22
-7 4 0 327.17 31.4
-7 4 0 295.17 21.4
7 4 0 380.86 34.2
-7 4 0 285.97 29.5
8 -4 0 1238.78 48.7
-8 -4 0 1217.68 47.2
-8 4 0 1271.67 64.49
-8 4 0 1307.87 67.49
-8 4 0 1206.38 49.7
8 4 0 1322.57 69.09
0 -5 0 -2.5 4.4
0 5 0 -2.6 4.8
0 5 0 11.9 4.8
0 5 0 9 5.8
-1 -5 0 313.37 21.4
1 -5 0 339.87 25.6
-1 5 0 325.07 29.1
1 5 0 319.57 20.7
1 5 0 298.57 27.2
-1 5 0 321.77 23.6
-1 5 0 331.67 25.2
2 5 0 185.38 13.8
-2 5 0 192.18 18
-2 5 0 231.08 25
-2 5 0 203.78 21.5
2 5 0 186.78 20.8
3 5 0 178.08 9
-3 5 0 186.18 22.2
-3 5 0 168.78 16.5
-3 5 0 158.98 21.8
-4 5 0 721.53 47.7
-4 5 0 713.33 33.6
-4 5 0 719.43 44.5
-5 5 0 4.1 5.7
5 5 0 31.7 10.8
-5 5 0 -0.7 6.1
-5 5 0 2.5 5.7
-6 5 0 101.39 13
-6 5 0 111.29 21.9
-6 5 0 94.29 20.6
0 6 0 467.05 30.5
0 6 0 507.05 40.4
-1 6 0 112.19 15.8
-1 6 0 155.58 27.1
1 6 0 126.19 14.8
-2 6 0 41.9 11.5
2 6 0 26.6 6.6
-2 6 0 27.8 11.8
-11 0 1 2.3 4.7
11 0 -1 6 7.7
-11 0 1 0.8 5.1
10 0 -1 1.5 4.5
-10 0 1 -0.9 4.5
-10 0 1 4.3 3.6
9 0 -1 5.2 5.1
9 0 -1 5.9 4.3
-9 0 1 -3 2.5
-8 0 1 -3.5 2.8
8 0 -1 1.2 3.2
8 0 -1 0.4 3.1
7 0 -1 -0.7 2.5
7 0 -1 2.1 2.9
-7 0 1 -3.4 2.5
-6 0 1 0.8 1.5
6 0 -1 2.8 2.9
6 0 -1 -1 2.8
-6 0 1 -2.8 2.3
-5 0 1 1.1 2.2
5 0 -1 2.4 2.6
-5 0 1 3.6 3.2
5 0 -1 0.3 2.2
-4 0 1 2 2
4 0 -1 0.2 1.6
-4 0 1 -1.2 1.5
4 0 -1 -1.2 0.8
3 0 -1 1.7 2.4
-3 0 1 3.8 2.5
3 0 -1 3.6 2.1
-3 0 1 3.1 2.2
2 0 -1 1.7 1.8
-2 0 1 -1.1 1.1
-2 0 1 4 2.3
2 0 -1 1.8 1.7
1 0 -1 -0.1 0.7
1 0 -1 0.7 0.8
-1 0 1 0.5 0.8
1 0 -1 1.4 0.5
-1 0 1 0.2 0.4
-1 0 1 3.5 1.4
-1 0 -1 0.1 0.8
1 0 1 0.2 0.8
-2 0 -1 -0.1 1.3
2 0 1 -0.3 1.6
2 0 1 4.1 2.3
3 0 1 1.3 1.8
3 0 1 3.3 2.1
-3 0 -1 1.7 1.5
4 0 1 0.5 1.6
4 0 1 -1.1 1.8
-4 0 -1 -1.5 1.8
5 0 1 0.7 2.3
5 0 1 0.8 2.6
-5 0 -1 3.4 2.7
-6 0 -1 5.4 3.3
6 0 1 1.2 3.6
6 0 1 -1.6 2.2
-7 0 -1 0.9 3.5
7 0 1 -1.7 3
8 0 1 -2.7 3.6
-8 0 -1 -2.3 2
9 0 1 3.2 4.4
-9 0 -1 -2 3.5
9 0 1 -3 3.5
-10 0 -1 -1.9 3.8
10 0 1 10.5 5.4
-11 0 -1 -3.6 4.7
-11 0 -1 1.4 4.5
11 -1 -1 17.7 10.5
-11 -1 1 15.1 4.2
-11 -1 1 25.2 8.4
-11 1 1 31.7 10.6
-11 1 1 19 8.3
-10 -1 1 7.6 3.5
-10 -1 1 0.4 4.2
10 -1 -1 16.9 7.2
10 1 -1 -6.3 5.6
-10 1 1 2.5 6.4
-10 1 1 -0.5 4.3
10 1 -1 1.2 6.8
-9 -1 1 489.65 27.8
9 -1 -1 396.46 30.9
9 1 -1 465.55 27.9
-9 1 1 456.75 32.7
9 1 -1 531.85 36.8
-9 1 1 431.56 26
8 -1 -1 442.16 30.7
-8 -1 1 481.65 25.9
8 -1 -1 492.45 30.4
8 1 -1 483.65 26.2
-8 1 1 484.15 31.8
-8 1 1 439.76 29.4
-8 1 1 470.85 26.1
8 1 -1 441.16 33.5
-7 -1 1 523.15 26.4
7 -1 -1 626.84 55.39
7 -1 -1 634.84 32.6
-7 1 1 613.74 28.6
7 1 -1 510.85 25.6
-7 1 1 589.54 31.6
7 1 -1 490.55 31.4
-7 1 1 612.94 33.6
6 -1 -1 736.33 33
-6 -1 1 758.22 28.5
6 -1 -1 722.43 35.6
6 1 -1 720.63 28.5
6 1 -1 737.33 36.1
-6 1 1 757.12 32
-6 1 1 765.02 34
-6 1 1 767.82 35.9
-5 -1 1 276.97 14.6
5 -1 -1 224.98 19.7
5 -1 -1 269.77 19.5
5 1 -1 288.47 15.1
5 1 -1 298.77 20.6
-5 1 1 260.77 16.2
-5 1 1 248.18 18.5
-5 1 1 252.37 17.1
-4 -1 1 1100.99 30.3
4 -1 -1 1227.28 36.8
4 -1 -1 1230.68 41.2
-4 1 1 1154.98 35.6
4 1 -1 1087.29 30.1
-4 1 1 1129.39 40.5
-4 1 1 1205.38 36.6
3 -1 -1 -0.1 1.5
-3 -1 1 2 1.2
3 -1 -1 1.1 2.1
3 1 -1 0.4 1.1
-3 1 1 1.6 2.1
-3 1 1 2.6 2.1
-3 1 1 2.3 2.2
3 1 -1 2 2.2
2 -1 -1 1627.94 37.9
2 -1 -1 1673.13 41.8
-2 -1 1 1461.55 32.8
2 -1 -1 1632.84 39.8
-2 1 1 1669.43 37.7
-2 1 1 1593.84 39.7
-2 1 1 1595.74 40.9
2 1 -1 1499.95 40.5
1 -1 -1 1252.17 31.3
-1 -1 1 1281.57 29
1 -1 -1 1222.38 29.7
1 -1 -1 1247.08 32.1
-1 1 1 1222.28 29.6
-1 1 1 1211.68 31.8
1 1 -1 1272.67 26.7
1 1 -1 1317.77 29.2
-1 1 1 1163.98 30.4
0 -1 -1 758.62 19.1
0 -1 -1 760.32 22.4
0 -1 1 805.52 21.3
0 1 1 735.83 18.8
0 1 -1 794.72 21.2
0 1 -1 785.12 22.3
0 1 1 802.32 22.9
0 1 1 752.62 21.6
1 -1 1 1759.22 40.6
1 -1 1 1738.03 32.3
-1 -1 -1 1651.43 29.1
-1 -1 -1 1640.74 38.1
-1 1 -1 1728.23 32.2
-1 1 -1 1715.73 40.3
2 -1 1 783.62 26.7
2 -1 1 756.82 19.4
-2 1 -1 771.02 26.5
-2 1 -1 769.62 19.6
3 -1 1 667.73 27
3 -1 1 643.44 21
-3 -1 -1 713.63 17.4
-3 1 -1 687.93 27.2
-3 1 -1 662.83 21.4
3 1 1 700.13 17.4
4 -1 1 1909.61 54.29
4 -1 1 1867.01 46
-4 -1 -1 1767.32 40
4 1 1 1698.03 39.7
4 1 1 1741.83 53.59
-4 1 -1 1893.81 47.1
5 -1 1 1.1 2.4
5 -1 1 3.7 2.9
-5 -1 -1 0.2 1.4
-5 1 -1 -0.8 1.2
-5 1 -1 0.7 1.7
5 1 1 -1.9 1.7
5 1 1 1.7 1.8
-6 -1 -1 74.89 8.2
6 -1 1 84.69 10.2
6 -1 1 88.69 12
6 1 1 69.19 8.3
-6 1 -1 100.89 12.9
6 1 1 86.59 14.7
-6 1 -1 91.09 11.2
7 -1 1 669.93 44.3
-7 -1 -1 643.54 28.4
7 -1 1 674.93 32.4
7 1 1 665.73 37.1
7 1 1 665.53 28.6
-7 1 -1 677.23 35.9
-8 -1 -1 530.25 26.7
8 -1 1 552.64 31.6
8 -1 1 591.94 36.4
-8 1 -1 523.05 33.6
8 1 1 509.75 27.1
8 1 1 507.65 36.1
9 -1 1 0.8 4.4
-9 -1 -1 1.6 3.6
9 1 1 7.4 6.4
-9 1 -1 -4.3 4.2
-9 1 -1 -0.1 3.7
9 1 1 -2 4.3
10 -1 1 215.88 22.5
-10 -1 -1 173.28 17.4
10 1 1 184.38 23.8
-10 1 -1 206.38 22.8
10 1 1 179.98 18.1
-10 1 -1 198.98 19.1
-11 -1 -1 72.19 14.8
11 -1 1 92.99 18.5
-11 1 -1 106.79 20.6
11 1 1 98.09 20.6
-10 -2 1 1.5 2.2
10 -2 -1 0.7 5.3
-10 2 1 2.4 6
-10 2 1 4.4 5.9
10 2 -1 6.9 4.7
10 2 -1 -1.1 6.1
9 -2 -1 8.9 5.4
-9 2 1 -1.4 4.5
9 2 -1 9.9 4.6
-9 2 1 -0.6 4.8
9 2 -1 9.2 5.4
-8 -2 1 279.97 14.2
8 -2 -1 262.77 21.8
-8 2 1 258.67 22.2
8 2 -1 292.07 16.8
-8 2 1 266.37 25
8 2 -1 293.87 26.9
-8 2 1 236.48 20.4
-7 -2 1 421.86 18.3
7 -2 -1 447.96 26.7
-7 2 1 462.25 27.5
-7 2 1 455.15 28.7
-7 2 1 476.15 31.9
7 2 -1 429.36 31.6
7 2 -1 432.36 18.9
6 -2 -1 154.98 14.5
-6 -2 1 115.99 8.9
6 -2 -1 167.48 17.4
-6 2 1 139.39 13.6
6 2 -1 115.89 8.4
6 2 -1 128.49 15.8
-6 2 1 130.09 14.4
-6 2 1 138.39 16.2
-5 -2 1 1970.4 47.2
5 -2 -1 1882.31 63.09
5 -2 -1 1856.11 54.19
5 2 -1 1985.8 41.1
-5 2 1 1768.62 60.99
5 2 -1 2084.59 65.59
-5 2 1 1957.5 60.19
-5 2 1 1839.22 53.49
4 -2 -1 344.17 18.6
4 -2 -1 367.36 23.7
-4 -2 1 345.27 16.5
4 2 -1 337.87 11.4
-4 2 1 381.06 22.7
4 2 -1 352.26 23.1
-4 2 1 358.46 22.8
3 -2 -1 232.68 17.4
-3 -2 1 292.67 15
3 -2 -1 225.98 14
-3 2 1 222.78 16.4
-3 2 1 232.58 16.9
3 2 -1 267.77 9.7
-3 2 1 235.28 14.1
2 -2 -1 209.78 14.9
-2 -2 1 200.58 12.9
2 -2 -1 210.78 12.9
2 -2 -1 211.78 15.4
2 2 -1 207.48 9.5
-2 2 1 204.48 14.6
-2 2 1 214.08 15.6
2 2 -1 212.18 13.1
-2 2 1 212.58 13
1 -2 -1 3782.02 76.69
-1 -2 1 3558.84 77.89
1 -2 -1 3610.24 81.89
-1 -2 1 3467.65 70.29
1 -2 -1 3615.64 77.09
-1 2 1 3636.74 77.09
1 2 -1 3412.46 69.89
1 2 -1 3476.25 76.99
-1 2 1 3729.33 82.19
-1 2 1 3686.23 75.79
0 -2 -1 837.22 30.9
0 -2 1 926.31 31.7
0 -2 -1 843.72 25.9
0 -2 1 911.81 28.5
0 2 1 832.72 30.8
0 2 -1 896.21 31.2
0 2 1 800.92 28.3
0 2 -1 924.61 28.4
0 2 1 845.32 25.9
-1 -2 -1 1097.39 35.5
1 -2 1 1080.89 34.8
-1 -2 -1 1059.09 26.1
1 2 1 1072.89 35
-1 2 -1 1100.09 28.9
1 2 1 1072.49 26.1
-1 2 -1 1139.39 35.7
-1 2 -1 1083.59 37
-2 -2 -1 1486.05 41.4
2 -2 1 1352.46 43.4
2 -2 1 1331.67 33.4
-2 2 -1 1222.18 50.59
2 2 1 1449.55 23.9
-2 2 -1 1307.67 42.9
-2 2 -1 1339.87 33.2
-3 -2 -1 974 32.4
3 -2 1 887.91 26.8
3 -2 1 939.71 37.2
-3 2 -1 922.21 26.9
-3 2 -1 937.21 37
-3 2 -1 917.21 36.7
4 -2 1 12.4 5.1
-4 -2 -1 7.5 3.3
4 -2 1 11.1 3.6
-4 2 -1 13.4 5.4
-4 2 -1 1.9 3.2
-4 2 -1 8.2 3.4
5 -2 1 105.19 13.4
-5 -2 -1 97.59 9.9
5 -2 1 122.59 11
-5 2 -1 140.39 14.2
-5 2 -1 133.79 14.5
-5 2 -1 107.89 13.5
5 2 1 99.79 13.6
6 -2 1 1542.15 47
6 -2 1 1483.25 58.39
-6 -2 -1 1437.26 43.8
6 2 1 1450.55 31.8
6 2 1 1429.36 58.29
-6 2 -1 1521.45 47.5
-6 2 -1 1416.46 56.39
-6 2 -1 1563.84 55.69
-7 -2 -1 11.1 4.6
7 -2 1 2.2 3.2
-7 2 -1 6.4 4.4
-7 2 -1 5 4.9
7 2 1 8.6 2.9
-8 -2 -1 55.19 9.5
8 -2 1 74.19 13
8 2 1 61.19 7
8 2 1 60.09 14.1
-8 2 -1 64.59 13.8
-8 2 -1 81.29 16.7
-9 -2 -1 83.89 10.9
9 -2 1 87.39 15.2
-9 2 -1 91.99 18.6
-9 2 -1 90.79 16.9
9 2 1 84.29 18.8
-10 -2 -1 137.59 13.4
10 -2 1 141.89 18
10 2 1 140.19 25.4
-10 2 -1 145.39 21.1
-10 2 -1 184.78 20.6
10 2 1 139.89 12.4
10 -3 -1 28.8 11.2
-10 3 1 19.3 9.6
-10 3 1 31.9 10.2
10 3 -1 10.8 8.2
9 -3 -1 35.5 10.2
-9 -3 1 30 6.4
-9 3 1 21.7 10.7
-9 3 1 21.5 8.8
9 3 -1 48.7 15.1
8 -3 -1 345.67 25.1
-8 -3 1 321.17 20.6
-8 3 1 321.87 30.4
-8 3 1 345.17 28.2
8 3 -1 343.77 31.3
-8 3 1 331.77 24.9
-7 -3 1 169.88 13.7
7 -3 -1 178.48 17.2
-7 3 1 164.88 20.6
7 3 -1 165.68 20.9
-7 3 1 171.08 37.3
-7 3 1 173.88 17
6 -3 -1 134.99 13.9
-6 -3 1 108.89 11.5
-6 3 1 123.09 16.4
-6 3 1 109.39 18.2
-6 3 1 112.69 12.7
5 -3 -1 1225.18 53.69
-5 -3 1 1188.38 41.1
5 -3 -1 1273.37 43.8
5 3 -1 1211.18 53.29
-5 3 1 1297.87 54.09
-5 3 1 1317.17 44.2
-5 3 1 1302.17 53.09
4 -3 -1 565.84 38.7
-4 -3 1 520.55 26.1
4 -3 -1 603.14 27.6
-4 3 1 587.34 26.8
-4 3 1 587.74 33.2
-4 3 1 574.34 32.9
3 -3 -1 257.27 18.4
3 -3 -1 263.97 20.5
-3 -3 1 250.67 17.8
3 3 -1 270.57 11.4
-3 3 1 265.17 20.4
-3 3 1 266.57 17.2
-3 3 1 293.57 22.5
3 3 -1 237.18 17.1
2 -3 -1 402.66 24.1
-2 -3 1 340.17 21.4
2 -3 -1 434.76 26.5
-2 3 1 371.96 25
-2 3 1 425.16 21.8
2 3 -1 341.97 15.8
-2 3 1 404.06 23.5
2 3 -1 345.27 21.4
1 -3 -1 765.82 35.7
-1 -3 1 735.63 33.1
1 -3 -1 810.82 32.3
-1 -3 1 728.13 27.1
-1 3 1 770.02 35.4
-1 3 1 825.92 31.7
1 3 -1 745.93 27.4
1 3 -1 702.63 32.1
0 -3 -1 1020.4 33.9
0 -3 1 935.11 34.4
0 -3 -1 1053.79 41.6
0 -3 1 956 39.5
0 3 -1 987.2 34.4
0 3 1 1017.5 40.5
0 3 1 1048.6 33.9
0 3 -1 976.6 39.9
0 3 -1 983.3 35.3
0 3 1 1023.9 37.4
-1 -3 -1 22.5 6.4
-1 -3 -1 18.1 4.3
1 -3 1 30.1 7.3
-1 3 -1 28.3 7.9
-1 3 -1 29.4 7.3
1 3 1 17.2 6.2
1 3 1 20.7 4.6
1 3 1 23 6.7
-1 3 -1 26.5 6
-2 -3 -1 1028.5 25.9
2 -3 1 977 40.2
-2 -3 -1 1012.4 39.7
-2 3 -1 1023.3 32.1
-2 3 -1 1013.9 40.6
2 3 1 996 25.2
-2 3 -1 956.5 41.8
3 -3 1 15.1 5.5
3 -3 1 17.3 4.9
-3 -3 -1 32 7.9
-3 3 -1 18.8 6.9
-3 3 -1 18.4 4.8
-3 3 -1 15.3 6.4
4 -3 1 15.8 5.7
-4 -3 -1 16.8 5.8
4 -3 1 40 7.1
-4 3 -1 25.8 8.4
-4 3 -1 18.6 6.9
-4 3 -1 39.6 6.9
5 -3 1 443.76 22
5 -3 1 400.26 29.3
-5 -3 -1 451.45 25.2
-5 3 -1 452.65 30.8
-5 3 -1 451.75 21.9
-5 3 -1 448.16 31.2
6 -3 1 10.1 4.4
-6 -3 -1 2.4 3
-6 3 -1 -2.4 2.9
-6 3 -1 1.3 2.5
-6 3 -1 4.5 2.8
7 -3 1 39.8 9
-7 -3 -1 41.1 8.9
7 3 1 41.9 12.1
-7 3 -1 39.7 11.6
-7 3 -1 28 10.2
-7 3 -1 34.3 8
8 -3 1 -4 4.8
-8 -3 -1 1.8 5.1
8 3 1 7.2 6.8
-8 3 -1 -1.7 3.8
-8 3 -1 6.6 4.7
9 -3 1 106.19 17.1
-9 -3 -1 81.59 12.3
-9 3 -1 95.89 18.8
-9 3 -1 150.68 29.7
8 -4 -1 212.28 20.6
-8 -4 1 204.68 17.3
-8 4 1 196.58 25.8
8 4 -1 197.98 26.1
-8 4 1 176.98 17.8
-8 4 1 161.98 22.2
-7 -4 1 530.25 29.1
7 -4 -1 547.75 31.1
7 4 -1 542.15 40.7
-7 4 1 512.15 39.4
-7 4 1 565.14 40.3
-7 4 1 544.25 35.1
6 -4 -1 146.29 15.8
-6 -4 1 231.68 18.8
6 4 -1 217.08 24.6
-6 4 1 173.18 21.9
-6 4 1 168.88 16
-6 4 1 188.08 22.2
5 -4 -1 0.8 4.4
-5 -4 1 4.1 4.2
5 4 -1 6.1 5.3
-5 4 1 4.2 4.6
-5 4 1 8.9 6.4
-5 4 1 2.8 5.6
-4 -4 1 293.47 22.3
-4 4 1 274.37 25.7
-4 4 1 271.77 24.6
-4 4 1 305.17 20.5
3 -4 -1 44.1 10.7
-3 -4 1 51.99 11
3 4 -1 34.3 4.9
-3 4 1 42.3 10.8
-3 4 1 40.5 9.1
-3 4 1 56.19 21.6
3 4 -1 41.2 10.1
2 -4 -1 1614.54 57.99
2 4 -1 1552.14 57.09
-2 4 1 1616.64 57.39
-2 4 1 1592.44 52.59
2 4 -1 1590.94 44.7
-2 4 1 1620.24 63.19
-1 -4 1 789.72 31.8
1 -4 -1 736.53 40.3
1 -4 -1 755.92 35.4
-1 -4 1 766.82 39.4
-1 4 1 693.43 33.5
1 4 -1 763.52 38.7
-1 4 1 717.23 39.5
1 4 -1 768.52 35.1
1 4 -1 739.73 35.1
-1 4 1 700.53 33.6
0 -4 1 17.8 5.7
0 -4 -1 38.9 8
0 -4 -1 15.2 7.4
0 4 -1 15.3 6.1
0 4 1 34.4 9
0 4 1 35 7.9
0 4 -1 29.2 7.6
0 4 1 32.5 9.4
0 4 -1 21.9 8.1
-1 -4 -1 362.36 22
-1 -4 -1 396.56 28
1 -4 1 351.86 24.1
1 4 1 371.06 26.8
1 4 1 353.56 25
1 4 1 351.16 19
-1 4 -1 352.36 27.3
-1 4 -1 363.66 24.3
-1 4 -1 370.86 22
-2 -4 -1 10.9 5.6
-2 4 -1 6.7 4.4
2 4 1 8.3 3.3
2 4 1 14.5 6.1
-2 4 -1 4.8 3.9
3 -4 1 22.4 7.6
-3 -4 -1 24 7.2
-3 4 -1 22.6 9.6
-3 4 -1 20.5 7.9
-4 -4 -1 9.3 6.8
-4 4 -1 -1.3 3.4
-4 4 -1 7.8 5.3
-4 4 -1 8.4 5.6
-5 -4 -1 52.89 12
-5 4 -1 56.99 14.4
-5 4 -1 45.6 8.6
-5 4 -1 33.1 11.9
-6 -4 -1 100.99 13.7
6 -4 1 99.09 11.7
-6 4 -1 117.69 11.9
-6 4 -1 132.79 22.3
6 4 1 107.19 21
-6 4 -1 84.39 18
-7 -4 -1 312.37 24.3
7 -4 1 374.96 23
-7 4 -1 367.06 32.8
-7 4 -1 362.06 22.8
-7 4 -1 363.56 33.5
7 4 1 339.27 33.1
8 -4 1 7.8 7.2
-8 -4 -1 9.7 9
-8 4 -1 15.7 6.3
-8 4 -1 3.5 7.3
8 4 1 9.5 8.6
-8 4 -1 18.9 9.6
-6 5 1 -0.7 6.1
6 5 -1 -4.8 7
-6 5 1 8.4 8.1
5 5 -1 365.26 32.7
-5 5 1 345.17 24.4
-5 5 1 407.86 33.7
-5 5 1 417.66 36.1
-4 5 1 255.57 27.7
-4 5 1 260.17 20.7
-4 5 1 259.37 25.9
-3 5 1 141.79 15.7
-3 5 1 177.48 23.2
-3 5 1 147.49 19
3 5 -1 140.69 10.1
-2 5 1 3.8 3.7
2 5 -1 10.5 6.8
2 5 -1 14.4 4.9
-2 5 1 3.5 5.8
-2 5 1 10.2 5.2
-1 -5 1 48 10.2
1 -5 -1 41.2 10.6
-1 5 1 36.6 9.7
1 5 -1 51.49 13
-1 5 1 42.6 12
1 5 -1 48.9 10.7
1 5 -1 48.6 10.1
-1 5 1 46.5 10.5
0 -5 -1 1.5 4.3
0 -5 1 3.7 4.8
0 5 1 3.8 6
0 5 -1 3.6 3.5
0 5 -1 3.9 3.8
0 5 -1 -5.1 4.2
0 5 1 9.5 5.6
0 5 1 3.6 3.5
-1 -5 -1 264.87 18.6
1 -5 1 264.37 23.5
-1 5 -1 273.07 23.6
1 5 1 276.57 26.3
1 5 1 258.97 18.3
-1 5 -1 302.07 21.7
-1 5 -1 264.07 26
2 5 1 1079.49 33.9
-2 5 -1 1086.59 60.89
-2 5 -1 1048.4 42.3
-2 5 -1 1153.48 58.19
-3 5 -1 49.2 13.3
-3 5 -1 50.99 10.1
-3 5 -1 44.5 11.9
-4 5 -1 133.99 13.3
-4 5 -1 142.79 25
-4 5 -1 181.68 21.8
-5 5 -1 104.69 20.5
-5 5 -1 132.99 24.1
-5 5 -1 121.09 12.5
-6 5 -1 10.6 10.5
-6 5 -1 4.6 6.4
6 5 1 6.5 10.2
-2 6 1 29.7 11.6
2 6 -1 42.9 12.4
-2 6 1 48.5 12.9
2 6 -1 26.6 7.2
1 6 -1 16.7 5.8
-1 6 1 22.1 9
-1 6 1 5.2 10.7
0 -6 -1 402.06 29.1
0 6 1 376.26 26.8
0 6 1 395.56 35.9
0 6 -1 416.76 33
0 6 -1 467.65 38.4
-1 6 -1 120.39 24.5
1 6 1 73.89 12.3
-1 6 -1 80.59 16.2
-2 6 -1 72.59 18.6
-2 6 -1 82.99 17.6
2 6 1 122.19 10.7
11 0 -2 398.76 33.8
-11 0 2 394.56 19.6
-11 0 2 367.16 30.1
10 0 -2 2.1 5.5
-10 0 2 2.2 5.4
-10 0 2 5.7 3.8
9 0 -2 358.96 28.7
-9 0 2 375.96 18.8
9 0 -2 383.16 27.8
-9 0 2 358.86 26.8
8 0 -2 487.35 31.7
-8 0 2 538.55 30.9
-8 0 2 487.25 21.1
8 0 -2 477.45 29.6
-7 0 2 45.2 10.5
-7 0 2 48.1 6
7 0 -2 42.6 10.1
7 0 -2 40.6 9.8
-7 0 2 43.2 9.5
-6 0 2 6724.13 143.19
-6 0 2 6680.63 120.09
6 0 -2 6440.96 136.49
6 0 -2 6705.83 141.19
-6 0 2 6541.35 135.99
-5 0 2 1405.66 33.7
5 0 -2 1470.95 45
5 0 -2 1476.75 47
-5 0 2 1350.46 46
-5 0 2 1412.56 43.8
4 0 -2 3 2.4
-4 0 2 -0.9 0.8
-4 0 2 0.5 1.8
-4 0 2 0.2 1.5
4 0 -2 -0.7 1.1
-3 0 2 5422.76 102.99
3 0 -2 5169.48 99.59
3 0 -2 5127.09 101.39
-2 0 2 1296.67 32.5
2 0 -2 1283.57 32.3
-2 0 2 1251.37 24
2 0 -2 1279.77 24.1
2 0 -2 1224.98 31
-2 0 2 1242.48 31.2
1 0 -2 1052.59 24.6
1 0 -2 1010.6 24
-1 0 2 1004.5 24.1
0 0 2 214.98 7.5
0 0 -2 203.28 7.4
-1 0 -2 169.48 8.2
1 0 2 172.18 8.2
2 0 2 4279.97 79.79
-2 0 -2 4170.28 79.09
3 0 2 4.6 2.5
3 0 2 6.5 2.5
-3 0 -2 8.8 3
5 0 2 2602.84 65.89
5 0 2 2596.44 67.69
-5 0 -2 2594.84 65.19
6 0 2 466.65 26.1
6 0 2 458.65 25
-6 0 -2 454.35 24.5
7 0 2 5218.08 120.39
-7 0 -2 5301.17 119.39
7 0 2 5355.16 123.49
-8 0 -2 13.3 6.1
8 0 2 7.2 5.2
9 0 2 846.52 42.6
-9 0 -2 867.41 42.4
9 0 2 915.21 46.5
10 0 2 149.99 19.7
-10 0 -2 155.78 18.6
-11 0 -2 412.06 31.2
11 0 2 377.36 33.1
11 -1 -2 102.79 19.1
11 1 -2 88.59 22
-11 1 2 128.99 14.4
-11 1 2 83.99 17
10 -1 -2 1001 51.49
-10 -1 2 1001.1 44.7
-10 1 2 1051.39 41.4
10 1 -2 990.2 45.5
10 1 -2 1013.7 55.29
-10 1 2 1096.49 54.19
-9 -1 2 445.86 27.2
-9 -1 2 468.15 14.9
9 -1 -2 414.16 35.8
9 1 -2 468.75 27.9
-9 1 2 447.66 25.4
9 1 -2 481.25 34.8
-9 1 2 459.15 33.4
8 -1 -2 268.87 23.8
-8 -1 2 245.78 18.6
8 -1 -2 278.37 23.1
-8 1 2 233.28 21.3
-8 1 2 261.77 18.3
-8 1 2 258.87 23.3
8 1 -2 256.87 19.2
7 -1 -2 3628.64 95.09
-7 -1 2 3755.12 87.49
-7 1 2 3735.33 99.49
-7 1 2 3639.24 96.69
7 1 -2 3680.33 87.59
7 1 -2 3784.02 101.69
-7 1 2 3795.82 86.89
-6 -1 2 944.61 33.6
6 -1 -2 886.61 40.2
6 -1 -2 934.81 38.2
-6 1 2 931.71 40.4
6 1 -2 948.51 41.5
6 1 -2 953.6 33.6
-6 1 2 913.61 33.5
-6 1 2 953.7 38.8
-5 -1 2 657.33 24.9
5 -1 -2 607.24 30.2
5 -1 -2 699.23 29.6
-5 -1 2 658.03 16.3
-5 1 2 658.03 29
-5 1 2 649.74 26.1
-5 1 2 656.43 30.9
5 1 -2 645.14 31.2
5 1 -2 646.44 24.5
-4 -1 2 20.4 2.3
4 -1 -2 37 7.9
4 -1 -2 24.6 6.2
4 1 -2 19.6 4.3
4 1 -2 19 7
-4 1 2 31.7 6.1
-3 -1 2 561.74 14.1
3 -1 -2 595.94 22.6
3 -1 -2 596.34 24.9
3 -1 -2 549.25 21.2
3 1 -2 576.64 18.6
-3 1 2 534.55 23.5
-3 1 2 539.15 21.7
-3 1 2 560.94 21.4
3 1 -2 543.95 23.7
1 -1 -2 1634.14 38.7
1 -1 -2 1589.24 39.1
1 -1 -2 1654.73 38.5
-1 1 2 1652.23 38.8
1 1 -2 1646.04 36.3
-1 1 2 1647.54 38.5
1 1 -2 1639.34 36.8
-1 1 2 1642.94 39.4
1 1 -2 1615.54 35.4
0 -1 -2 2037.2 40.6
0 -1 2 1994.4 44.1
0 -1 -2 2001.3 45.1
0 -1 -2 1981.8 44.9
0 1 2 1987 44.8
0 1 2 1984.1 40.3
0 1 -2 2040.9 44.4
4 -1 2 123.19 9.5
-4 -1 -2 99.29 7.2
4 -1 2 128.79 12.6
-4 1 -2 104.79 11.3
-4 1 -2 121.79 9.7
4 1 2 101.09 7.5
5 -1 2 2759.12 76.09
5 -1 2 2775.72 66.49
-5 -1 -2 2923.71 61.99
5 1 2 2826.72 77.69
-5 1 -2 2820.52 75.59
5 1 2 2894.41 62.59
-6 -1 -2 2865.21 66.59
6 -1 2 2964 73.49
6 -1 2 2854.51 81.69
-6 1 -2 3006.3 82.09
6 1 2 2828.52 81.69
6 1 2 2898.81 67.59
-7 -1 -2 12 5.1
7 -1 2 14.1 5.9
7 -1 2 2.8 4.1
-7 1 -2 12.8 5.7
7 1 2 4.2 3.4
7 1 2 3.1 4.2
-8 -1 -2 18.2 5.1
8 -1 2 9.6 4.8
8 1 2 14.5 10.9
-8 1 -2 9.9 6
8 1 2 4.4 4.1
-9 -1 -2 147.59 15
9 -1 2 132.09 16.9
-9 1 -2 168.58 19.7
9 1 2 123.99 20.8
9 1 2 164.08 15.9
10 -1 2 260.67 24.1
-10 -1 -2 304.47 22.6
10 1 2 319.47 24.5
10 1 2 287.47 28.5
-10 1 -2 314.87 28.2
-10 1 -2 262.77 23.2
-11 -1 -2 270.37 23.5
11 -1 2 323.97 29.1
-11 1 -2 330.07 26.9
11 1 2 297.27 31.2
-11 2 2 315.57 31.9
-11 2 2 320.97 26.7
11 2 -2 340.67 35.7
10 -2 -2 39 12.1
-10 2 2 46.9 12.2
10 2 -2 40.9 13.7
-10 2 2 37.2 13.5
10 2 -2 38 8.6
9 2 -2 262.97 18.5
9 2 -2 251.07 26.6
-9 2 2 325.17 24.5
-9 2 2 356.46 30.7
8 -2 -2 24.1 7.2
-8 -2 2 25 3.6
-8 2 2 21.1 7.7
-8 2 2 17.5 8.8
8 2 -2 19.7 6
8 2 -2 32.7 10.2
-8 2 2 22.4 7.5
7 -2 -2 2981.6 82.59
-7 -2 2 2808.92 57.69
-7 2 2 2872.71 89.69
-7 2 2 2914.01 81.79
7 2 -2 2901.61 66.69
7 2 -2 2926.11 91.09
-7 2 2 3010.8 82.19
6 -2 -2 1630.24 53.69
6 -2 -2 1682.03 62.19
-6 -2 2 1639.64 38.4
6 2 -2 1621.44 41.3
-6 2 2 1575.04 53.89
-6 2 2 1624.54 53.19
6 2 -2 1554.74 59.59
-6 2 2 1539.45 58.59
5 -2 -2 956.7 42.9
5 -2 -2 937.61 36.9
-5 -2 2 1004.4 28.1
5 2 -2 990 27.7
-5 2 2 1003.1 39.6
-5 2 2 899.11 40.9
5 2 -2 980.9 42.6
-5 2 2 974.7 36.9
4 -2 -2 4170.98 99.59
4 -2 -2 3917.31 88.49
-4 -2 2 3985.6 79.29
-4 2 2 4202.28 95.09
-4 2 2 3972.2 96.99
4 2 -2 3895.71 95.69
4 2 -2 3871.91 75.09
-4 2 2 3971.5 88.79
3 -2 -2 1247.28 38.9
3 -2 -2 1257.77 43.8
3 -2 -2 1223.08 42.3
-3 -2 2 1283.37 35.2
-3 2 2 1234.08 42.9
-3 2 2 1218.08 44.9
3 2 -2 1253.87 34.5
-3 2 2 1311.37 43.5
3 2 -2 1211.08 43.2
3 2 -2 1238.08 31
2 -2 -2 125.19 11.6
2 -2 -2 116.69 10.4
2 -2 -2 124.19 11.9
-2 -2 2 114.09 9.5
-2 2 2 133.09 11.8
-2 2 2 114.99 10.3
-2 2 2 127.29 12
2 2 -2 111.59 9.2
2 2 -2 126.49 8.5
-1 -2 2 1144.99 32.6
1 -2 -2 1178.88 36.4
1 -2 -2 1186.88 39.1
1 -2 -2 1195.38 35.9
-1 2 2 1178.88 38.9
-1 2 2 1159.88 35.2
-1 2 2 1179.18 36.1
1 2 -2 1146.19 32.5
1 2 -2 1195.58 35.9
0 -2 -2 1535.75 38.4
0 -2 -2 1506.65 46.8
0 -2 2 1548.05 41.8
0 2 2 1541.85 45.1
0 2 2 1523.85 43.5
0 2 2 1548.74 38.3
0 2 -2 1515.95 41.6
0 2 -2 1551.34 44.6
-1 -2 -2 6155.38 106.69
1 -2 2 6239.08 122.39
1 2 2 6079.19 106.29
-1 2 -2 6158.38 121.79
-1 2 -2 6152.88 107.39
-1 2 -2 6108.29 124.09
-2 -2 -2 3425.56 89.99
2 -2 2 3678.43 85.19
2 -2 2 3641.34 67.39
-2 2 -2 3647.44 96.09
-2 2 -2 3686.03 66.89
-2 2 -2 3743.23 86.79
3 -2 2 1012.1 39.9
-3 -2 -2 1063.19 35.8
3 -2 2 1060.19 27.3
-3 2 -2 1019 26.7
-3 2 -2 1044.6 40
-3 2 -2 1023.5 40
-4 -2 -2 709.53 28.8
4 -2 2 728.43 35.1
4 -2 2 698.83 23.3
-4 2 -2 734.33 35.1
-4 2 -2 723.93 34
-4 2 -2 694.13 23.5
5 -2 2 1063.89 33.8
5 -2 2 1028.9 45.5
-5 2 -2 1122.69 45.4
-5 2 -2 1073.39 45.8
-5 2 -2 1121.69 34.8
6 -2 2 2213.28 57.99
6 -2 2 2103.99 73.09
6 2 2 2155.08 74.59
-6 2 -2 2072.79 68.69
-6 2 -2 2201.68 58.99
-6 2 -2 2185.58 73.09
7 -2 2 2705.43 71.19
-7 2 -2 2802.22 83.89
7 2 2 2459.45 100.59
7 2 2 2641.74 54.99
-7 2 -2 2899.71 133.59
8 -2 2 132.19 14.8
8 2 2 124.29 9.5
-8 2 -2 125.39 16
-8 2 -2 154.58 18.8
8 2 2 112.19 20.5
9 -2 2 864.61 41
-9 -2 -2 845.82 35.6
9 2 2 846.82 51.49
9 2 2 850.41 29.4
-9 2 -2 870.41 49.9
10 -2 2 22.6 9.9
-10 -2 -2 29.9 8.5
-10 2 -2 27.1 9
10 2 2 29.2 6.3
-10 2 -2 30.8 10.6
10 -3 -2 70.49 16.4
-10 3 2 81.69 16.9
-10 3 2 89.09 20.3
10 3 -2 92.59 20.3
9 -3 -2 140.39 17.2
9 3 -2 127.09 22.7
-9 3 2 180.58 22.3
-9 3 2 131.09 17.2
-8 -3 2 1010.1 30.8
8 -3 -2 1050.59 47
-8 3 2 1070.59 47.3
-8 3 2 1009 50.19
8 3 -2 1080.59 57.49
-8 3 2 1055.69 56.29
7 -3 -2 7 5.4
-7 -3 2 2.6 3.1
-7 3 2 3.7 5.5
7 3 -2 0.6 5.9
-7 3 2 9.5 5.1
6 -3 -2 71.89 12.9
-6 -3 2 56.99 8
-6 3 2 62.39 11
-6 3 2 70.49 14.9
6 3 -2 60.89 16.8
-6 3 2 53.79 13
5 -3 -2 2220.98 74.99
-5 -3 2 2173.48 57.79
5 -3 -2 2184.88 63.89
-5 3 2 2149.69 72.09
5 3 -2 2197.48 42.1
-5 3 2 2217.68 63.89
-5 3 2 2220.78 74.29
5 3 -2 2158.98 42.2
5 3 -2 2137.19 72.89
4 -3 -2 211.18 16.6
4 -3 -2 185.18 18.9
-4 -3 2 203.78 15
-4 3 2 210.98 16.4
4 3 -2 195.98 9.8
4 3 -2 183.48 9.4
-4 3 2 218.58 19.9
-4 3 2 180.08 18.1
4 3 -2 177.78 17.9
3 -3 -2 2817.72 79.09
3 -3 -2 2847.22 72.79
3 -3 -2 2716.43 80.09
-3 -3 2 2892.11 72.19
-3 3 2 2788.72 78.19
-3 3 2 2781.72 80.29
3 3 -2 2770.72 59.29
3 3 -2 2881.61 71.49
-3 3 2 2798.02 71.99
2 -3 -2 979.8 37.6
2 -3 -2 996.4 39.5
-2 -3 2 1058.69 39.2
2 -3 -2 1023.3 43.2
-2 3 2 985 42
-2 3 2 990 39.2
2 3 -2 1008.8 31.6
2 3 -2 1062.49 39.1
-2 3 2 1044.6 37.9
1 -3 -2 1819.02 59.69
-1 -3 2 1833.82 49.99
1 -3 -2 1816.62 52.89
-1 3 2 1839.32 54.29
1 3 -2 1870.21 56.69
-1 3 2 1838.32 59.29
-1 3 2 1766.52 61.09
1 3 -2 1835.42 49.6
0 -3 2 936.61 35.1
0 -3 -2 1000.8 33.1
0 -3 -2 968.3 40.2
0 3 -2 945.51 35.2
0 3 2 949.11 39.5
0 3 -2 885.61 37.9
0 3 -2 941.71 32.2
0 3 2 954.2 37.4
0 3 2 987.6 32.6
-1 -3 -2 2.8 2.2
-1 -3 -2 1.2 2.7
1 -3 2 6.9 3.6
1 3 2 4.5 2.3
-1 3 -2 2.4 2.8
-1 3 -2 5.1 2.8
-1 3 -2 14.3 5.4
1 3 2 1.6 2.6
1 3 2 1.5 3.5
-2 -3 -2 713.63 18.9
-2 -3 -2 679.93 32.8
2 -3 2 622.64 32.2
2 3 2 705.73 18.6
-2 3 -2 700.83 35.3
-2 3 -2 700.93 23.8
-2 3 -2 645.54 32.7
-3 -3 -2 1835.92 57.99
3 -3 2 1864.31 62.79
-3 3 -2 1842.92 63.79
-3 3 -2 1910.21 63.49
-3 3 -2 1819.82 44
-4 -3 -2 709.43 33.2
4 -3 2 773.02 40
4 -3 2 780.22 26.3
-4 3 -2 754.42 39.6
-4 3 -2 771.42 39.7
-4 3 -2 730.53 25.1
5 -3 2 1929.01 49.5
-5 -3 -2 1897.11 59.59
-5 3 -2 1953 70.39
-5 3 -2 1910.11 69.39
-5 3 -2 1872.21 49
-6 -3 -2 148.39 14.7
6 -3 2 122.39 11.6
-6 3 -2 128.29 11.8
-6 3 -2 108.79 19.7
-7 -3 -2 64.89 11.8
7 -3 2 87.39 10.1
-7 3 -2 94.49 18.7
7 3 2 78.29 17.1
-7 3 -2 81.39 16.3
-7 3 -2 76.09 9.8
8 -3 2 153.28 15.3
-8 -3 -2 154.68 16.1
-8 3 -2 180.38 22.6
8 3 2 160.48 26.2
-8 3 -2 160.98 20.1
-9 -3 -2 1.5 6.3
9 -3 2 -7.7 4.8
9 3 2 1.6 6.8
-9 3 -2 6.7 7.3
8 -4 -2 -1.5 5.9
-8 4 2 4.5 6.4
-8 4 2 13.1 8.2
7 -4 -2 351.26 26.2
7 4 -2 329.77 31.6
-7 4 2 341.57 25.6
-7 4 2 408.96 33.6
-7 4 2 366.56 33
-6 -4 2 866.51 37.4
6 -4 -2 843.22 39.8
-6 4 2 808.02 47.5
-6 4 2 779.62 38.8
6 4 -2 898.91 49.7
-6 4 2 802.22 46.8
5 -4 -2 86.99 14.5
-5 -4 2 61.39 11.1
-5 4 2 80.99 16.1
-5 4 2 73.89 16.1
5 4 -2 99.99 17.8
-5 4 2 55.99 11.5
-4 -4 2 672.33 34.6
4 -4 -2 720.43 35.4
-4 4 2 729.13 40.7
4 4 -2 717.53 20.9
4 4 -2 728.73 40.8
-4 4 2 755.32 35.1
-4 4 2 699.53 41.3
-3 -4 2 303.67 22.7
3 -4 -2 290.07 23.8
3 4 -2 328.97 23.5
-3 4 2 307.47 24.3
3 4 -2 313.67 16.2
-3 4 2 281.37 21.1
2 -4 -2 242.88 20.5
-2 4 2 230.88 19.9
2 4 -2 201.88 18.7
-2 4 2 211.28 18.2
-2 4 2 243.78 22.5
2 4 -2 187.28 14.4
-1 -4 2 681.63 30.7
1 -4 -2 652.23 38
1 -4 -2 649.93 32.3
1 4 -2 650.93 31.7
-1 4 2 631.24 37.1
1 4 -2 689.63 36.7
1 4 -2 701.23 31
-1 4 2 641.54 31.7
-1 4 2 606.64 32.6
0 -4 2 31.3 7.8
0 -4 -2 8.3 5.5
0 -4 -2 15.3 4.9
0 4 -2 16.2 6.7
0 4 2 5.1 4.2
0 4 2 9.7 4.4
0 4 -2 30.6 7.3
0 4 -2 20 6.9
0 4 2 12.5 5.8
-1 -4 -2 320.57 18.4
-1 -4 -2 341.87 26.2
1 -4 2 315.97 23.4
1 4 2 340.67 25.8
-1 4 -2 281.77 18.1
1 4 2 305.57 17.3
1 4 2 321.67 24.6
-1 4 -2 307.77 25.6
-1 4 -2 333.27 23.8
-2 -4 -2 1485.05 57.89
2 -4 2 1443.86 56.79
-2 -4 -2 1460.45 37.1
2 4 2 1464.15 36.4
-2 4 -2 1511.55 61.29
-2 4 -2 1481.95 43.9
-2 4 -2 1491.85 56.89
2 4 2 1397.56 56.29
-3 -4 -2 113.59 14.8
3 -4 2 160.48 18.9
-3 4 -2 169.18 19.1
-3 4 -2 143.29 17.9
-4 -4 -2 60.19 12.5
-4 4 -2 48.9 12.7
-4 4 -2 49.3 13
-5 -4 -2 171.38 18.3
-5 4 -2 178.18 21.7
-5 4 -2 203.38 22.9
-6 -4 -2 96.49 16.4
-6 4 -2 103.09 20
-6 4 -2 80.59 9.8
-6 4 -2 72.09 16.8
-7 -4 -2 199.38 20.7
7 -4 2 197.38 15.5
-7 4 -2 187.68 15.2
-7 4 -2 185.68 24.2
-7 4 -2 200.18 25
7 4 2 174.28 29
8 -4 2 19.6 7.3
-8 -4 -2 16.6 10.7
8 4 2 7.9 9.6
-8 4 -2 19.9 8.7
6 5 -2 617.24 44.3
-6 5 2 669.13 48.4
-5 5 2 169.58 23.5
-5 5 2 148.59 21.3
-5 5 2 145.59 16.8
5 5 -2 154.48 21
-4 5 2 -0.1 4.9
-4 5 2 13.2 8.9
4 5 -2 2.8 5.7
-4 5 2 10.7 7.6
4 5 -2 5.7 2.1
-3 5 2 14.5 7.3
-3 5 2 20.9 9.3
3 5 -2 23.3 5.6
-3 5 2 28 9.2
3 5 -2 6.2 6.3
2 5 -2 2404.86 82.69
2 5 -2 2433.86 65.89
-2 5 2 2350.96 78.39
-2 5 2 2372.86 75.79
-2 5 2 2392.86 88.69
1 -5 -2 67.49 14.2
1 5 -2 73.59 13.1
1 5 -2 93.99 12.7
-1 5 2 62.79 12.6
1 5 -2 102.39 18.8
-1 5 2 80.69 17.4
0 -5 -2 70.39 12.3
0 -5 2 54.79 11.5
0 5 2 67.89 11.9
0 5 -2 74.89 16.8
0 5 -2 57.19 11.9
0 5 -2 66.19 11.6
0 5 2 97.29 18.9
1 -5 2 237.48 22.8
-1 -5 -2 257.07 18.2
1 5 2 241.98 16.7
-1 5 -2 238.88 18.8
-1 5 -2 260.07 26.5
-1 5 -2 255.47 22.9
-2 5 -2 30.3 10.9
2 5 2 50.29 6.6
-2 5 -2 38.8 11.4
-2 5 -2 40 8.5
-3 5 -2 449.95 23.7
-3 5 -2 454.85 37.3
-3 5 -2 492.55 35.8
-4 5 -2 62.29 16.5
-4 5 -2 71.59 9.6
-4 5 -2 56.89 15.9
-5 5 -2 108.09 21.2
-5 5 -2 90.79 10.3
-6 5 -2 632.44 46.5
6 5 2 584.64 46.5
-6 5 -2 591.74 46.3
2 6 -2 431.46 33.8
-2 6 2 446.36 39.6
-2 6 2 430.16 32.9
2 6 -2 469.75 26.1
2 6 -2 457.55 37.4
1 6 -2 216.48 37
1 6 -2 187.58 19.1
-1 6 2 236.58 27.9
-1 6 2 180.48 20.1
0 -6 -2 5.8 9.2
0 6 2 -8.1 5.1
0 6 -2 3 5.6
0 6 -2 -10.2 4.6
0 6 2 -3.2 4.7
-1 6 -2 496.15 40.6
-1 6 -2 412.66 32.5
1 6 2 497.35 26.6
-2 6 -2 223.88 24.1
-2 6 -2 223.78 28.6
11 0 -3 8.2 6.7
-11 0 3 0.2 3
-11 0 3 6 6.3
-10 0 3 1.2 2.8
10 0 -3 4.6 5.7
9 0 -3 2.4 4.2
-9 0 3 1.1 5.8
-9 0 3 -0.2 2.3
9 0 -3 -6.8 3.8
-8 0 3 1.9 4.1
8 0 -3 2.8 5.3
-8 0 3 3.5 2.7
8 0 -3 6.9 5.3
-8 0 3 -5.8 2.8
7 0 -3 6.4 3.1
-7 0 3 1.7 1.6
-7 0 3 -0.4 2.7
7 0 -3 -0.5 2.4
-6 0 3 1 2.2
-6 0 3 0.9 1.5
-6 0 3 1.6 2.4
6 0 -3 2.5 3.4
6 0 -3 2.9 3.6
-5 0 3 5.4 3.4
5 0 -3 0.5 2.2
-5 0 3 0.5 1.2
-5 0 3 2.2 2.5
5 0 -3 -0.3 2.8
4 0 -3 1 2.1
-4 0 3 1.7 2.3
-4 0 3 1.2 2
-4 0 3 0.7 1
4 0 -3 12.4 4.2
-3 0 3 3.1 2.1
3 0 -3 1.2 0.9
3 0 -3 -0.8 1.5
3 0 -3 0.4 1.7
-3 0 3 3.8 2.3
2 0 -3 0.8 0.9
2 0 -3 0.9 2.1
-2 0 3 -0.2 1.7
2 0 -3 3.3 2.3
-1 0 3 0.7 1.5
1 0 -3 -0.2 1.2
0 0 -3 3.6 1.7
0 0 3 -0.1 1.1
-1 0 -3 3.7 2.2
2 0 3 1.2 1.7
-2 0 -3 2.3 1.8
3 0 3 -0.2 1.5
-3 0 -3 2.1 2
-4 0 -3 3.1 2.6
4 0 3 3.3 2.8
4 0 3 -1.7 1.9
5 0 3 -0.8 1.3
-5 0 -3 -1.5 1.8
5 0 3 -1.6 1.8
6 0 3 -3.4 1.9
-6 0 -3 0.1 3.2
6 0 3 -0.4 3
7 0 3 -4.8 2.9
7 0 3 -4.5 2.6
-7 0 -3 4.5 3.9
-8 0 -3 3.4 4.4
8 0 3 1.5 5.1
8 0 3 -1.3 4.6
9 0 3 -9.4 4.3
9 0 3 -3.6 5.1
-10 0 -3 -10.4 4.3
11 0 3 6.8 6.5
11 -1 -3 7.4 6.3
-11 1 3 10.5 6.1
-11 1 3 5.5 5.8
10 -1 -3 6.9 5.2
-10 1 3 6.4 6.4
10 1 -3 6.2 4.8
-10 1 3 -1.1 3.9
10 1 -3 -0.9 5.2
9 -1 -3 68.79 14.9
9 1 -3 64.99 15.2
-9 1 3 52.59 10
9 1 -3 99.49 12.6
-9 1 3 55.39 14
8 -1 -3 496.95 31.7
8 -1 -3 460.25 32.1
-8 1 3 520.35 32.6
8 1 -3 440.26 26.3
-8 1 3 535.55 25.8
-8 1 3 512.55 32.8
7 -1 -3 280.37 22
7 -1 -3 270.07 24.2
-7 1 3 298.27 23.1
-7 1 3 277.07 17.7
-7 1 3 304.17 23.9
7 1 -3 314.67 20.4
7 1 -3 312.47 24.7
6 -1 -3 480.35 28.5
6 -1 -3 477.85 27.1
-6 1 3 477.45 22.7
-6 1 3 523.15 29.7
6 1 -3 567.04 31.3
6 1 -3 529.75 24.7
-6 1 3 504.85 28
-5 -1 3 554.14 29.5
5 -1 -3 545.85 26.8
5 -1 -3 523.55 27.8
-5 1 3 505.85 22.3
5 1 -3 548.25 23.2
5 1 -3 559.24 28.7
-5 1 3 537.95 28.1
-5 1 3 516.05 26.1
-4 -1 3 958.3 36.4
4 -1 -3 886.11 34.8
4 -1 -3 878.71 32.7
-4 1 3 914.21 29.8
-4 1 3 858.21 32.4
-4 1 3 832.02 33.8
4 1 -3 936.51 35.4
4 1 -3 972.2 29.7
3 -1 -3 1711.93 46.4
-3 -1 3 1631.24 47.2
3 -1 -3 1834.82 44.6
3 -1 -3 1692.83 49.5
3 1 -3 1645.84 41.4
3 1 -3 1622.14 46.6
-3 1 3 1817.62 44.2
-3 1 3 1765.12 48.7
-3 1 3 1876.71 47.6
-1 -1 3 2439.56 49.1
1 -1 -3 2311.57 51.29
1 -1 -3 2270.47 51.99
1 -1 -3 2297.47 52.59
-1 1 3 2333.47 52.09
1 1 -3 2408.76 48.6
-1 1 3 2351.46 52.79
-1 1 3 2284.57 51.19
2 -1 3 1356.16 40.4
2 -1 3 1286.07 26.3
-2 -1 -3 1485.05 30.1
-2 1 -3 1276.97 39.5
3 -1 3 46.6 8.5
3 -1 3 37.4 4.2
-3 -1 -3 25.2 4.1
-3 1 -3 45.5 8.4
4 -1 3 95.39 8
-4 -1 -3 89.09 7.2
4 -1 3 75.59 9.8
4 1 3 87.09 7.3
-4 1 -3 71.89 9.7
5 -1 3 1183.18 45.6
5 -1 3 1205.58 37.9
-5 -1 -3 1309.97 36.2
-5 1 -3 1264.87 46.7
5 1 3 1298.07 36.3
6 -1 3 -0.7 3.4
6 -1 3 5.7 4.1
-6 -1 -3 20.5 5
6 1 3 11.4 4.6
6 1 3 27.2 8.6
7 -1 3 351.76 26
-7 -1 -3 338.87 25.2
7 -1 3 351.06 22.6
7 1 3 335.67 26.3
7 1 3 339.07 20.3
-7 1 -3 326.97 25.3
-8 -1 -3 115.09 12.7
8 -1 3 119.79 13.9
8 1 3 106.99 12.2
-8 1 -3 103.79 17.8
8 1 3 116.49 23.4
9 -1 3 32 9.8
-9 -1 -3 52.29 10.6
9 1 3 39.8 12.1
9 1 3 32.4 8.5
-9 1 -3 53.79 13.5
10 -1 3 18.7 8.1
-10 -1 -3 16.1 6.2
-10 1 -3 19.5 9.2
10 1 3 24.7 7.6
10 1 3 5.6 7.3
11 -2 -3 44.2 12.8
11 2 -3 22.9 9.8
-11 2 3 -0.3 7.4
10 -2 -3 62.49 14.4
10 2 -3 51.39 14
-10 2 3 74.19 17.8
10 2 -3 48.6 9.7
-10 2 3 73.09 13.4
9 -2 -3 12.5 7.4
9 2 -3 14.4 6.2
-9 2 3 23.1 9.8
-9 2 3 34.5 9.4
9 2 -3 17.4 8.4
8 -2 -3 50.79 11.9
-8 2 3 43.9 9.7
8 2 -3 44.1 12.1
-8 2 3 35.4 9.2
8 2 -3 47.7 9.1
-8 2 3 37 11.3
7 -2 -3 -1.5 3.8
7 2 -3 4.2 5.8
-7 2 3 0.5 3.1
7 2 -3 5.8 3.8
-7 2 3 3.5 3.7
-7 2 3 0.4 5
6 -2 -3 97.29 17.1
6 -2 -3 114.29 13.4
-6 2 3 89.29 13
6 2 -3 89.89 15.7
6 2 -3 117.89 9.9
-6 2 3 99.79 13
-6 2 3 83.49 11.3
5 -2 -3 5.8 3.6
5 -2 -3 6.6 3.7
-5 2 3 9.7 4.9
-5 2 3 12.7 5.2
-5 2 3 2.6 2.9
5 2 -3 7.9 4.6
5 2 -3 6.5 3.1
4 -2 -3 105.59 11.2
4 -2 -3 88.09 11.4
4 -2 -3 96.79 11.3
-4 2 3 92.99 10.4
4 2 -3 51.59 10.5
4 2 -3 70.29 6.9
-4 2 3 106.59 11.7
-4 2 3 94.39 11.7
3 -2 -3 2242.98 62.39
3 -2 -3 2317.87 63.99
3 -2 -3 2275.17 59.99
3 2 -3 2359.36 52.69
-3 2 3 2273.57 63.49
-3 2 3 2294.67 62.29
-3 2 3 2253.27 59.39
3 2 -3 2337.97 52.19
2 -2 -3 62.79 8
2 -2 -3 56.59 9.6
2 -2 -3 60.49 8
2 2 -3 38.8 5.4
-2 2 3 56.09 7.9
2 2 -3 45.9 8
-2 2 3 60.69 12.2
2 2 -3 47.5 6.2
-2 2 3 64.69 8.5
1 -2 -3 1521.55 47.1
1 -2 -3 1579.34 43.6
1 -2 -3 1604.54 46.4
-1 2 3 1571.44 47.4
1 2 -3 1654.43 44.7
1 2 -3 1600.14 41.4
-1 2 3 1606.24 43.7
1 2 -3 1618.14 43
0 -2 -3 382.96 20.6
0 -2 -3 407.56 16.9
0 -2 3 371.76 19
0 2 3 378.16 16.2
0 2 3 365.36 20.1
0 2 -3 370.26 19.7
0 2 -3 367.56 18.9
0 2 3 336.57 19
-1 -2 -3 895.91 33.7
-1 -2 -3 899.91 24.5
1 -2 3 1035 35.8
1 2 3 903.11 34.4
-1 2 -3 1023.6 35.6
-1 2 -3 1043 36.9
-1 2 -3 999.2 22.5
-2 -2 -3 21.7 5.7
2 -2 3 3.6 2.6
-2 -2 -3 13.4 1.8
-2 2 -3 4.9 4
-2 2 -3 7.9 1.6
3 -2 3 444.56 25.7
3 -2 3 423.66 13.6
-3 -2 -3 495.05 23.8
-3 2 -3 415.86 13.5
-3 2 -3 423.66 24.9
4 -2 3 1510.15 53.79
4 -2 3 1480.15 35.6
-4 2 -3 1520.55 36.6
-4 2 -3 1423.56 52.79
5 -2 3 14.9 4.2
-5 2 -3 12.2 5.8
6 -2 3 -2.5 2.2
6 -2 3 -0.9 4.1
-6 2 -3 8.4 4.3
7 -2 3 90.29 11.2
-7 -2 -3 80.49 6.5
-7 2 -3 130.39 17.2
7 2 3 91.79 17.8
8 -2 3 10.7 5.4
8 2 3 -6.2 4.5
-8 2 -3 2.4 4.5
-8 2 -3 0 5.2
9 -2 3 24.8 7.7
9 2 3 16 10.3
-9 2 -3 0.5 5
-9 2 -3 15.1 8.2
10 -2 3 105.59 17.7
10 2 3 113.59 23.7
-10 2 -3 108.49 19.7
-10 2 -3 98.79 20.5
10 -3 -3 36.3 12.1
-10 3 3 30.9 11.7
-10 3 3 26.3 10.9
10 3 -3 42.6 14.7
9 -3 -3 20.5 9.3
9 3 -3 11.5 7.1
-9 3 3 24.1 11.4
9 3 -3 10.1 3.5
-9 3 3 14.1 7.8
8 -3 -3 86.09 15.7
-8 3 3 76.99 15.4
8 3 -3 111.69 8.1
8 3 -3 122.79 8.3
8 3 -3 121.29 21.6
-8 3 3 91.19 18.9
7 -3 -3 586.84 33.6
7 3 -3 560.44 19.3
7 3 -3 559.04 19.3
-7 3 3 617.84 36.7
-7 3 3 597.44 33.9
7 3 -3 613.04 40.1
-7 3 3 624.94 40.4
6 -3 -3 650.93 33.9
6 3 -3 639.24 20.7
6 3 -3 638.54 21.1
6 3 -3 672.73 41.3
-6 3 3 658.53 37.2
-6 3 3 618.74 32.6
-6 3 3 629.54 38.8
5 -3 -3 246.78 19.4
5 -3 -3 218.18 21.2
5 3 -3 286.77 13.3
-5 3 3 249.88 22.8
5 3 -3 278.07 13.4
-5 3 3 254.97 21.9
-5 3 3 271.47 20.1
5 3 -3 268.77 23.3
4 -3 -3 17.5 6.3
4 -3 -3 24.5 8.6
4 -3 -3 18.2 8.3
-4 3 3 17.6 6.9
-4 3 3 17.4 6.9
4 3 -3 25.5 5.1
4 3 -3 23.8 5.9
4 3 -3 20.6 7.4
-4 3 3 20.2 6.4
3 -3 -3 1185.58 48.2
3 -3 -3 1170.08 43.4
3 -3 -3 1189.78 47
3 3 -3 1253.27 43
3 3 -3 1127.09 44.4
-3 3 3 1151.38 47.4
-3 3 3 1151.88 42.8
-3 3 3 1189.88 46.4
3 3 -3 1251.47 35.9
2 -3 -3 411.36 24.3
2 -3 -3 418.26 26.8
2 -3 -3 425.66 25
-2 3 3 416.76 26.6
-2 3 3 440.26 24.5
-2 3 3 453.25 25.3
2 3 -3 503.55 22.2
2 3 -3 492.45 25.3
1 -3 -3 364.76 20.9
1 -3 -3 323.27 22.9
-1 -3 3 328.47 19.4
-1 3 3 346.47 23.4
1 3 -3 333.27 19.1
-1 3 3 312.57 23.1
1 3 -3 312.27 20.8
-1 3 3 359.96 22.3
0 -3 -3 184.18 13.1
0 -3 3 177.38 14.9
0 -3 -3 156.28 15.4
0 3 3 136.89 11.2
0 3 -3 191.98 12.6
0 3 3 178.08 15.5
0 3 -3 168.78 14.4
0 3 -3 178.88 15.9
0 3 3 163.38 15.7
-1 -3 -3 20.6 4.2
-1 -3 -3 15.1 5.9
1 -3 3 25.5 7
-1 3 -3 23.4 7.5
-1 3 -3 12.6 5.1
1 3 3 23.2 4.7
-1 3 -3 17 4.2
1 3 3 13.9 5.2
-2 -3 -3 707.63 33.8
-2 -3 -3 726.63 18.6
2 -3 3 634.24 33
-2 3 -3 633.64 33
-2 3 -3 656.13 20.8
-2 3 -3 657.63 34.9
3 -3 3 40.7 10.3
-3 -3 -3 25.8 7.9
-3 3 -3 53.79 12
-3 3 -3 58.29 12.5
-3 3 -3 41.3 4.7
4 -3 3 473.15 31.3
-4 -3 -3 447.96 26.7
-4 3 -3 450.35 16.9
-4 3 -3 491.45 31.6
-4 3 -3 440.86 30.5
-5 -3 -3 6.8 3.4
5 -3 3 2.7 2.5
-5 3 -3 1.5 2.6
-5 3 -3 7.3 5.4
-5 3 -3 11.4 4.5
-6 -3 -3 0.7 3.5
6 -3 3 3.4 2.7
-6 3 -3 4.8 4.2
-6 3 -3 1.7 4.4
-7 -3 -3 189.88 18
7 3 3 187.38 23.6
-7 3 -3 213.98 23.2
-7 3 -3 171.08 22.1
-8 -3 -3 60.29 11.7
8 -3 3 81.09 10.6
8 3 3 49.3 13.9
-8 3 -3 53.89 14.2
-8 3 -3 60.59 14.3
9 -3 3 -3.8 5.9
-9 -3 -3 -4.1 7.9
9 3 3 5.4 6.5
-9 3 -3 -7.6 5.4
-9 3 -3 11 6.8
8 -4 -3 47.3 12.4
-8 4 3 54.39 15.3
-8 4 3 57.19 15.2
7 -4 -3 189.78 20.2
-7 4 3 235.78 26.1
7 4 -3 167.48 21.9
-7 4 3 206.58 24.4
6 -4 -3 284.17 23.9
-6 4 3 234.48 25.3
-6 4 3 285.67 27.4
6 4 -3 250.67 26.1
-6 4 3 275.17 22.2
5 -4 -3 560.64 32.5
-5 4 3 567.04 38.2
5 4 -3 543.75 17.1
-5 4 3 576.64 32.2
5 4 -3 597.04 37.2
5 4 -3 568.64 17
-5 4 3 621.44 39.2
4 -4 -3 376.16 25.9
-4 4 3 362.96 28.5
-4 4 3 368.46 29.7
4 4 -3 393.86 25
-4 4 3 353.76 24.5
4 4 -3 381.46 28.8
4 4 -3 406.96 18
3 -4 -3 13.8 5.5
-3 4 3 7.9 6.7
3 4 -3 23.6 8.2
3 4 -3 16.2 6.6
-3 4 3 13.2 6
3 4 -3 22.6 5.3
-3 4 3 9.5 6
2 -4 -3 575.44 31.8
2 4 -3 468.35 24.2
2 4 -3 438.96 28.6
-2 4 3 463.45 32
-2 4 3 482.25 29.2
-2 4 3 524.85 30.1
1 -4 -3 8.9 6.4
1 -4 -3 2 3.8
-1 4 3 5.7 4
-1 4 3 10.8 5.6
1 4 -3 4.9 4.1
-1 4 3 4.5 4.5
1 4 -3 -4.2 2.7
0 -4 -3 525.15 26.1
0 -4 -3 545.25 34.2
0 -4 3 466.45 28
0 4 -3 542.75 29.9
0 4 3 558.24 33.1
0 4 -3 502.05 25
0 4 -3 547.15 33.5
0 4 3 522.15 33.2
0 4 3 512.45 25.3
-1 -4 -3 6.6 4
-1 -4 -3 6.5 3.7
1 -4 3 10.2 5.3
-1 4 -3 17.5 6.8
-1 4 -3 15.9 7
1 4 3 4.7 4.5
1 4 3 10.3 3.9
-1 4 -3 2.9 3.7
-2 -4 -3 398.56 28.9
2 -4 3 426.96 29.2
-2 -4 -3 395.46 15.7
-2 4 -3 433.26 19.6
-2 4 -3 418.66 31.1
2 4 3 370.26 28.3
-2 4 -3 402.16 28.9
-3 -4 -3 482.85 31.4
-3 4 -3 488.75 33.1
-3 4 -3 449.56 33.1
-3 4 -3 488.45 19.4
-4 -4 -3 7 6.1
-4 4 -3 10.7 3.8
-4 4 -3 18 9.1
-4 4 -3 13.2 8.2
-5 -4 -3 242.48 23.4
-5 4 -3 259.17 26.4
-5 4 -3 228.88 12.7
-5 4 -3 252.77 26
-6 4 -3 6.4 8.5
-6 4 -3 5.8 3.3
-6 4 -3 4.7 5.6
-7 4 -3 201.88 25.7
-7 4 -3 166.68 22.8
7 4 3 175.38 28.5
-8 4 -3 72.99 17.9
-8 4 -3 73.69 17.7
8 4 3 83.39 19.6
6 5 -3 11 7.9
-6 5 3 5.4 7.5
-6 5 3 -1.3 5
5 5 -3 3.4 6.4
-5 5 3 6.7 6.8
-5 5 3 13.5 8.9
-4 5 3 808.92 50.49
-4 5 3 810.52 46.9
4 5 -3 753.02 25.6
4 5 -3 792.22 45.8
3 5 -3 25.5 6.5
3 5 -3 19.2 8.1
-3 5 3 14.8 9
-3 5 3 22.1 8.5
3 5 -3 14.4 7.6
-2 5 3 102.69 20.2
2 5 -3 112.59 15
-2 5 3 119.59 16.2
2 5 -3 128.49 16.5
2 5 -3 121.49 13.5
2 5 -3 132.79 17.3
1 -5 -3 592.04 33.4
-1 5 3 572.44 32.5
1 5 -3 567.04 36.5
-1 5 3 587.64 40.5
1 5 -3 569.54 31.7
1 5 -3 576.54 38.3
0 -5 -3 9.3 5
0 -5 3 -0.7 4.7
0 5 -3 -4 3.9
0 5 -3 5.6 5.1
0 5 -3 2.5 6.2
0 5 3 6.5 4.1
0 5 3 1.2 5
-1 -5 -3 -3.1 3.8
-1 5 -3 2.4 4.8
-1 5 -3 0.3 5.1
-1 5 -3 4.5 4
1 5 3 2.7 3
-2 5 -3 178.58 20.7
-2 5 -3 178.18 14.6
-2 5 -3 214.98 24.3
-3 5 -3 30.4 6.4
-3 5 -3 33.7 12.7
-3 5 -3 37.5 13.3
-4 5 -3 104.09 20.1
-4 5 -3 81.89 19.3
-4 5 -3 109.59 9.5
-5 5 -3 5.7 3.1
-5 5 -3 5.6 7
-5 5 -3 -0.5 5.9
-6 5 -3 207.58 26.7
-6 5 -3 153.08 26.9
2 6 -3 70.39 12.6
-2 6 3 47.2 13.2
-2 6 3 67.79 18.3
2 6 -3 95.69 19.6
2 6 -3 71.89 14.6
-1 6 3 7.4 5.5
1 6 -3 6.3 7.3
1 6 -3 7.8 4.5
-1 6 3 -6.1 6
0 6 -3 50.79 14.6
0 6 -3 41.5 12.1
0 6 3 31.5 9.4
-1 6 -3 8.2 8.2
1 6 3 0 4.3
-1 6 -3 -5.8 8.3
11 0 -4 549.15 41.9
-11 0 4 547.65 37.7
-10 0 4 356.06 28.4
10 0 -4 331.47 30
-9 0 4 2036.3 43.4
-9 0 4 2036.3 70.89
9 0 -4 2035.1 75.69
9 0 -4 2090.89 75.79
8 0 -4 5666.83 138.69
-8 0 4 5648.53 101.69
-8 0 4 5812.82 134.29
8 0 -4 5690.13 134.59
-7 0 4 490.75 30.5
7 0 -4 448.46 28.6
-7 0 4 458.95 15.4
-7 0 4 435.76 27.1
7 0 -4 438.06 27.3
-6 0 4 564.44 30.9
-6 0 4 548.35 16.4
-6 0 4 566.84 28.8
6 0 -4 519.55 29.2
6 0 -4 543.75 28.2
5 0 -4 1714.03 51.49
5 0 -4 1675.63 52.89
-5 0 4 1658.83 34.3
-5 0 4 1652.23 50.59
-5 0 4 1728.53 53.99
4 0 -4 3043.9 72.99
-4 0 4 3085.09 73.19
-4 0 4 3145.09 75.19
4 0 -4 3221.78 76.29
-3 0 4 506.85 22.3
3 0 -4 525.55 14.7
3 0 -4 554.84 22.5
3 0 -4 516.05 22.5
2 0 -4 2629.54 58.99
-2 0 4 2747.23 59.59
2 0 -4 2776.82 60.49
-1 0 4 1700.83 39.8
1 0 -4 1797.22 40.8
1 0 4 4390.86 81.89
-1 0 -4 4496.05 86.69
2 0 4 602.74 22.6
-2 0 -4 613.84 22.8
3 0 4 384.16 18.9
-3 0 -4 397.96 19
-4 0 -4 1189.08 38.3
4 0 4 1164.18 45.2
-5 0 -4 1716.73 51.79
5 0 4 1700.23 51.89
5 0 4 1701.83 51.69
6 0 4 264.97 19.7
6 0 4 260.87 19.9
-6 0 -4 236.58 18.2
7 0 4 92.29 15.2
-7 0 -4 102.29 12.6
7 0 4 87.19 12.1
-8 0 -4 5072.29 120.29
8 0 4 4821.22 121.29
8 0 4 4939.81 122.99
-9 0 -4 479.45 31.3
9 0 4 477.15 33
9 0 4 417.16 36.2
-10 0 -4 23.6 8.9
10 0 4 7.6 5.9
11 -1 -4 245.98 26.3
11 1 -4 246.98 28.8
-11 1 4 265.47 28
-11 1 4 288.17 18.7
10 -1 -4 80.79 16.5
-10 1 4 88.29 11
-10 1 4 89.29 17.8
10 1 -4 73.89 17.1
10 1 -4 64.29 13.8
9 -1 -4 544.35 36
-9 1 4 570.14 37.3
9 1 -4 590.64 38.9
-9 1 4 565.04 26.3
8 -1 -4 859.41 43.4
-8 1 4 935.01 45.7
-8 1 4 888.31 44.7
8 1 -4 871.71 38.7
8 1 -4 901.51 46.4
7 -1 -4 116.39 15.1
7 -1 -4 105.29 13.7
-7 1 4 116.09 11
7 1 -4 113.29 15.1
7 1 -4 126.09 12.8
-7 1 4 103.19 20
-7 1 4 99.29 13.7
6 -1 -4 1090.19 43.6
6 -1 -4 1133.99 46.4
-6 -1 4 1158.68 48
6 1 -4 1068.79 45.3
-6 1 4 1131.19 36.2
6 1 -4 1102.19 39.4
-6 1 4 1183.28 45.4
-6 1 4 1101.29 45.1
-5 -1 4 31 8
5 -1 -4 15.2 5.2
5 -1 -4 11.4 4.8
5 1 -4 21.9 7.4
-5 1 4 18.8 6
-5 1 4 15.1 4.4
5 1 -4 25 6
-5 1 4 22.7 6.4
-4 -1 4 5299.87 110.99
4 -1 -4 5053.39 109.79
4 -1 -4 4972.5 99.49
4 -1 -4 4731.13 108.49
-4 1 4 5035.6 107.09
-4 1 4 5022.8 109.39
4 1 -4 5131.09 101.49
4 1 -4 4954.6 108.39
-4 1 4 5076.49 99.59
-2 -1 4 1496.65 40.7
2 -1 -4 1628.14 43.8
2 -1 -4 1568.24 40.9
2 -1 -4 1577.84 43.1
-2 1 4 1565.74 43
-2 1 4 1590.14 43.4
2 1 -4 1520.65 40.4
-1 -1 4 6621.64 118.79
-1 1 4 6857.61 126.39
1 -1 4 9.2 3.7
1 1 4 2.2 1.9
-1 1 -4 5.3 2.9
2 -1 4 2820.12 49.9
-2 -1 -4 2938.11 57.39
-2 1 -4 2742.13 67.89
3 -1 4 468.95 15.6
-3 -1 -4 461.05 17.1
3 -1 4 463.25 24.1
4 -1 4 446.26 18.2
4 -1 4 466.85 25.9
-4 -1 -4 497.85 19
4 1 4 475.15 19.1
-4 1 -4 442.46 24.9
5 -1 4 143.29 14.9
-5 -1 -4 140.79 10.7
5 -1 4 130.69 11
5 1 4 155.78 11.5
-5 1 -4 137.79 14.9
6 -1 4 314.47 23.9
6 -1 4 336.07 19.7
-6 -1 -4 309.17 17.9
-6 1 -4 336.57 24.5
6 1 4 306.17 24.2
6 1 4 307.07 18.7
-7 -1 -4 678.53 29.2
7 -1 4 699.83 32.1
7 -1 4 618.34 36.5
7 1 4 719.03 39.2
-7 1 -4 647.84 36.5
7 1 4 641.54 29.2
8 -1 4 500.85 28.7
-8 -1 -4 450.15 25.1
8 1 4 415.26 24.6
8 1 4 428.66 32.6
9 -1 4 891.41 43.2
9 1 4 989.4 41.9
-9 1 -4 987.9 50.09
9 1 4 1012 53.19
-10 -1 -4 402.66 26.5
10 -1 4 408.46 30.4
10 1 4 377.86 33.2
-10 1 -4 418.46 33.4
10 1 4 379.06 26.4
11 -2 -4 -1.6 9.1
11 2 -4 20.9 9.1
-11 2 4 6.6 6.7
-11 2 4 -3 7.8
-10 2 4 1288.27 64.69
-10 2 4 1304.67 51.99
10 2 -4 1316.47 49
10 2 -4 1432.96 69.69
9 -2 -4 89.99 16.8
9 2 -4 81.99 17.5
-9 2 4 54.79 11.9
9 2 -4 96.69 12.3
-9 2 4 95.79 19
8 -2 -4 5 5
8 2 -4 -4.4 5.2
8 2 -4 4 4.1
-8 2 4 2.4 3.8
-8 2 4 6.1 4.5
7 -2 -4 1694.03 60.99
-7 2 4 1687.03 56.39
7 2 -4 1666.33 49
-7 2 4 1554.64 58.39
7 2 -4 1698.23 65.19
-7 2 4 1694.13 65.39
6 -2 -4 -0.5 2.2
6 -2 -4 2.3 3.5
6 2 -4 -2.2 3.3
-6 2 4 2.2 3.4
6 2 -4 4.6 3.4
-6 2 4 5.2 4.8
-6 2 4 -1 3.8
5 -2 -4 859.71 37.1
5 -2 -4 877.81 40.9
5 2 -4 868.71 39.8
5 2 -4 880.11 30.3
-5 2 4 933.81 38.2
-5 2 4 903.91 41.2
-5 2 4 922.91 37.4
4 -2 -4 831.22 37.1
4 -2 -4 790.22 33.7
4 -2 -4 767.02 33.5
-4 2 4 839.12 37
4 2 -4 805.72 35.1
-4 2 4 811.12 33.8
4 2 -4 810.32 23.5
-4 2 4 733.53 32.6
3 -2 -4 142.99 13.5
3 -2 -4 122.09 12.3
3 -2 -4 129.39 12.7
-3 2 4 126.99 12.6
3 2 -4 132.29 9.4
-3 2 4 129.09 12.3
-3 2 4 128.09 12.8
2 -2 -4 1318.17 43.3
2 -2 -4 1291.87 41.5
2 -2 -4 1289.67 43.5
-2 2 4 1229.28 41
2 2 -4 1221.78 36.1
-2 2 4 1255.97 42.3
2 2 -4 1214.58 37
-2 2 4 1223.18 40.5
2 2 -4 1227.18 38.3
1 -2 -4 995.9 35.8
1 -2 -4 999.1 32.7
1 -2 -4 961.4 35.7
-1 2 4 933.31 34.6
1 2 -4 945.01 29
1 2 -4 983.2 33
-1 2 4 945.11 31.9
1 2 -4 942.11 32.5
-1 2 4 902.21 42.1
0 -2 4 1463.45 45.8
0 -2 -4 1472.75 46
0 -2 -4 1451.85 38.3
0 2 -4 1420.66 44
0 2 4 1456.15 38.6
0 2 4 1460.35 45.4
0 2 -4 1467.55 33.6
-1 -2 -4 2522.55 52.69
-1 -2 -4 2508.55 65.59
1 -2 4 2548.15 66.39
-1 2 -4 2561.14 43.9
-1 2 -4 2529.55 43.8
1 2 4 2507.65 66.49
-2 -2 -4 1279.57 28.3
-2 -2 -4 1276.87 42.7
2 -2 4 1287.57 45.1
-2 2 -4 1276.27 45
-3 -2 -4 1234.18 23.6
3 -2 4 1250.57 46.9
3 -2 4 1220.88 23
-3 -2 -4 1248.28 23.6
-3 2 -4 1178.18 45.5
4 -2 4 40.5 4.3
4 -2 4 56.89 11.8
-4 2 -4 41.8 10.3
5 -2 4 182.88 19
-5 -2 -4 235.38 7.5
5 -2 4 224.18 12.3
-5 2 -4 227.48 21.2
6 -2 4 338.37 17.7
6 -2 4 364.96 29.2
-6 -2 -4 335.57 11.9
-6 2 -4 340.67 27
-7 -2 -4 304.87 13
7 -2 4 321.87 19.4
7 2 4 338.37 29.3
-7 2 -4 314.37 27.3
8 -2 4 269.47 19.5
-8 -2 -4 248.58 13
8 2 4 251.77 26.7
-8 2 -4 253.27 26.2
9 -2 4 1598.74 55.39
-9 -2 -4 1532.35 41
-9 2 -4 1618.34 70.89
9 2 4 1516.45 72.49
10 -2 4 105.49 17.4
10 2 4 86.69 20.4
-10 2 -4 73.39 22.4
-10 2 -4 69.99 16.1
10 -3 -4 7 7.1
-10 3 4 5 5.8
-10 3 4 6.9 7.8
10 3 -4 5.9 7.6
9 -3 -4 899.61 47.8
-9 3 4 804.92 44.4
9 3 -4 763.92 35.8
9 3 -4 915.81 53.69
-9 3 4 922.01 54.19
8 -3 -4 462.35 33.4
-8 3 4 436.76 35.3
-8 3 4 489.15 33.1
8 3 -4 452.05 35.6
8 3 -4 510.35 21.3
7 -3 -4 72.19 13.6
7 3 -4 79.09 8.5
-7 3 4 84.39 15.9
-7 3 4 95.89 18.2
-7 3 4 72.99 14.2
7 3 -4 90.29 18
7 3 -4 88.89 8.7
6 -3 -4 296.37 23.1
-6 3 4 233.88 22.5
6 3 -4 251.27 14.5
6 3 -4 259.97 24.3
-6 3 4 255.27 21.2
-6 3 4 258.67 24.5
6 3 -4 283.17 15.4
5 -3 -4 1.5 4.7
5 -3 -4 8.5 4.9
5 3 -4 0.9 2
-5 3 4 2.4 3.5
-5 3 4 3.8 4.4
5 3 -4 4.6 2.7
5 3 -4 -1.9 3
-5 3 4 0.8 2.9
4 -3 -4 2350.86 69.49
4 3 -4 2372.26 60.29
4 3 -4 2271.27 56.89
-4 3 4 2298.37 68.39
-4 3 4 2294.17 73.29
4 3 -4 2404.56 72.69
-4 3 4 2442.36 74.59
3 -3 -4 204.88 18.8
3 -3 -4 184.58 17.4
3 -3 -4 196.08 17.2
-3 3 4 178.38 17.6
3 3 -4 171.78 15.6
-3 3 4 214.78 17.7
3 3 -4 186.28 15.4
-3 3 4 186.78 17.5
3 3 -4 178.48 13.3
2 -3 -4 634.34 33.8
2 -3 -4 730.53 33.9
2 -3 -4 641.34 31.5
-2 3 4 693.73 32
-2 3 4 630.74 31.3
2 3 -4 687.03 30
2 3 -4 687.43 28.4
2 3 -4 754.22 32
-2 3 4 651.03 34.1
1 -3 -4 7702.93 152.18
1 -3 -4 7920.91 164.18
-1 3 4 7774.12 158.88
1 3 -4 7506.35 146.39
-1 3 4 7663.63 162.08
-1 3 4 7679.83 153.68
1 3 -4 7638.54 156.38
1 3 -4 7855.81 153.08
0 -3 4 240.98 18.1
0 -3 -4 217.28 19.1
0 -3 -4 234.08 15.1
0 3 4 232.48 18.7
0 3 -4 222.48 18.4
0 3 4 228.78 14.9
0 3 -4 230.58 17.7
-1 -3 -4 593.64 21.8
-1 -3 -4 584.54 31.2
1 -3 4 534.15 29.3
-1 3 -4 550.44 29.5
1 3 4 559.74 30.5
-1 3 -4 565.74 31.3
-1 3 -4 533.15 18.3
-2 -3 -4 218.08 9.6
-2 -3 -4 216.38 18.6
2 -3 4 192.58 18.1
2 3 4 220.88 19.1
-2 3 -4 203.68 19
-2 3 -4 207.68 8.4
-2 3 -4 233.78 19.6
-3 -3 -4 17.3 6.3
3 -3 4 12.2 6.1
-3 3 -4 11.2 1.9
-3 3 -4 14.6 6.3
-3 3 -4 10.7 6.1
4 -3 4 932.91 46.1
-4 -3 -4 914.41 40.7
-4 3 -4 869.61 44.3
-4 3 -4 898.51 45.3
-5 -3 -4 1226.08 48.7
5 -3 4 1239.88 29.8
-5 3 -4 1162.58 65.59
-5 3 -4 1187.18 63.39
-6 -3 -4 60.59 12.1
6 -3 4 59.19 6.4
-6 3 -4 52.69 13.8
-6 3 -4 71.59 15.6
-7 -3 -4 897.51 41.9
7 -3 4 902.61 30.7
-7 3 -4 918.01 50.49
-7 3 -4 904.71 51.59
7 3 4 975.3 55.59
8 -3 4 5.3 6.3
-8 -3 -4 -0.3 7.2
-8 3 -4 21.4 10.2
8 3 4 -12.2 4.9
-8 3 -4 11.6 6.6
9 -3 4 439.56 25
-9 3 -4 485.65 38.2
9 3 4 444.36 39.4
-9 3 -4 523.25 41.4
8 -4 -4 33.7 12.1
8 4 -4 36.8 14.9
-8 4 4 19.2 8.9
-8 4 4 48.9 15.1
-7 4 4 232.08 25.7
-7 4 4 245.28 26.8
7 4 -4 276.07 27.9
6 -4 -4 83.19 16.1
6 4 -4 75.79 6.3
-6 4 4 75.69 16.8
6 4 -4 82.89 17.4
-6 4 4 106.99 19.8
6 4 -4 81.29 6.3
5 -4 -4 273.67 23.1
-5 4 4 289.67 23.2
5 4 -4 266.07 14.4
-5 4 4 264.37 25.8
5 4 -4 256.17 14.4
-5 4 4 286.67 26.6
5 4 -4 239.68 24
4 -4 -4 536.35 32.4
-4 4 4 536.25 34.9
4 4 -4 599.34 35.2
-4 4 4 598.54 37.9
-4 4 4 535.95 32.1
4 4 -4 541.55 29.8
4 4 -4 550.64 24.2
3 -4 -4 507.75 32.2
-3 4 4 558.34 33.3
3 4 -4 480.55 28.8
-3 4 4 489.45 33.6
3 4 -4 505.05 30.4
-3 4 4 510.35 30.9
2 -4 -4 506.75 30.4
2 4 -4 534.85 31.3
-2 4 4 516.65 30.9
-2 4 4 523.35 30.4
-2 4 4 508.45 40.7
2 4 -4 503.95 26.6
2 4 -4 521.85 29.2
1 -4 -4 68.89 9.8
1 4 -4 38.1 10.4
-1 4 4 48.9 9.8
1 4 -4 62.59 10.8
1 4 -4 50.39 10.8
-1 4 4 61.09 12.3
-1 4 4 55.29 13
0 -4 4 3027.4 84.79
0 -4 -4 3110.19 76.39
0 4 -4 2977.8 72.09
0 4 -4 3015.1 89.89
0 4 -4 2953.9 83.19
0 4 4 2997.4 88.29
0 4 4 2994.4 74.59
-1 -4 -4 1174.38 62.69
-1 -4 -4 1107.79 35.9
1 -4 4 1138.09 48.8
-1 4 -4 1175.38 35.3
-1 4 -4 1140.59 48.8
1 4 4 1071.89 48.9
-1 4 -4 1078.99 50.69
1 4 4 1165.28 36.4
-2 -4 -4 21.4 9.4
-2 -4 -4 27.3 4.7
2 -4 4 10.2 6.1
-2 4 -4 21.1 8.1
-2 4 -4 19.3 4.4
-3 4 -4 1267.47 58.69
-3 4 -4 1307.67 30.3
-4 4 -4 196.38 7
-4 4 -4 189.88 22.6
-4 4 -4 191.08 21.7
-5 4 -4 885.01 51.19
-5 4 -4 906.51 51.09
-6 4 -4 247.08 27.5
-6 4 -4 206.28 25
-7 4 -4 71.09 18
8 4 4 551.94 45.7
-8 4 -4 485.05 41.1
6 5 -4 33.8 11.3
-6 5 4 30.9 12.2
5 5 -4 7.6 2.7
5 5 -4 6.7 6.8
-5 5 4 -2 5.7
-5 5 4 -3.4 6.4
5 5 -4 11.3 3.3
-4 5 4 130.89 18.9
4 5 -4 125.49 16.9
4 5 -4 118.89 11.3
4 5 -4 109.59 30.3
-4 5 4 133.29 23
3 5 -4 101.89 17.5
3 5 -4 90.69 11.4
-3 5 4 103.29 19.8
3 5 -4 60.19 16.3
-3 5 4 86.19 17
-2 5 4 549.25 34
2 5 -4 583.44 37.3
-2 5 4 534.65 39
2 5 -4 594.64 33.5
2 5 -4 545.35 30.4
2 5 -4 590.94 34.4
1 -5 -4 14.3 6.9
1 5 -4 24.3 9.6
1 5 -4 12 6
-1 5 4 9.5 5.4
1 5 -4 41.9 10.9
-1 5 4 22.4 8.1
1 5 -4 18.2 6.3
0 -5 4 269.57 23.5
0 -5 -4 273.37 20.5
0 5 -4 252.27 23
0 5 -4 257.77 19.6
0 5 -4 242.68 18.9
0 5 4 254.07 19.3
0 5 -4 246.58 24.9
-1 -5 -4 174.98 14.4
-1 5 -4 155.98 13.7
-1 5 -4 143.79 23.6
1 5 4 183.68 21.1
-1 5 -4 165.88 19.6
-2 -5 -4 201.38 11.2
-2 5 -4 205.68 23.6
-2 5 -4 189.98 23.2
-3 5 -4 19.5 4.3
-3 5 -4 29.3 11.1
-3 5 -4 37.1 12.1
-4 5 -4 379.76 35.5
-4 5 -4 414.36 35.4
-5 5 -4 453.35 39.7
-6 5 -4 0.5 5.6
-2 6 4 447.96 42
2 6 -4 433.56 36
2 6 -4 427.66 28.2
1 6 -4 9.2 6
1 6 -4 5.6 6.8
-1 6 4 1.9 6.8
0 6 -4 264.87 30.1
0 6 -4 281.67 26.1
0 6 -4 273.47 22
0 6 4 268.27 21.1
-1 6 -4 320.77 33.3
-1 6 -4 315.07 28.9
-1 6 -4 292.97 21
11 0 -5 -7.1 6.4
-11 0 5 4.4 5
-10 0 5 4.2 4.7
10 0 -5 8.3 7.5
9 0 -5 0.3 4.7
-9 0 5 5.4 4.6
8 0 -5 8.9 5
8 0 -5 1.2 3.7
-8 0 5 6.4 4.5
-7 0 5 -4.1 2
7 0 -5 6.3 3
6 0 -5 5 4.1
6 0 -5 3.9 4.7
-6 0 5 6.3 3.9
-6 0 5 3.1 2.6
-5 0 5 1.1 1.9
5 0 -5 -4.6 1.9
-5 0 5 -2.5 2.1
5 0 -5 4 3.3
4 0 -5 -3.4 1.4
-4 0 5 0.3 2.4
4 0 -5 3.3 1.5
4 0 -5 2.6 2.5
3 0 -5 -1.3 1
3 0 -5 0.6 2
3 0 -5 0.4 1.6
2 0 -5 2.6 2.3
-2 0 5 4.2 2.2
-1 0 5 4.7 2.3
1 0 -5 2.3 2.1
0 0 -5 1.5 1.7
1 0 5 1.2 1.4
-1 0 -5 0.1 1.6
-2 0 -5 2.2 2.3
3 0 5 -2.3 1.7
-3 0 -5 2.6 2.4
-4 0 -5 -0.1 2.1
4 0 5 0.8 2.5
5 0 5 1.7 2.6
5 0 5 -0.3 3.1
-5 0 -5 2.8 2.9
6 0 5 0 3.5
6 0 5 -3.3 3
-6 0 -5 -3.1 2.4
7 0 5 3.5 3.3
-7 0 -5 1.1 3
7 0 5 3.1 3.7
8 0 5 -2.2 3.5
8 0 5 -0.3 4.9
-8 0 -5 -1.1 4.8
9 0 5 -0.5 3.4
-9 0 -5 -1.4 3.7
10 0 5 -8.3 5.4
-10 0 -5 27.9 10.7
11 -1 -5 1.8 6.2
11 1 -5 10 8.2
10 -1 -5 12.7 8
-10 1 5 7.9 4.8
-10 1 5 8.8 7
10 1 -5 -5.5 5
9 -1 -5 3.9 5.2
-9 1 5 2.5 4.4
9 1 -5 -5.8 4.7
9 1 -5 3.7 4.5
8 -1 -5 303.27 25.4
-8 1 5 308.07 26.4
8 1 -5 296.97 26
-8 1 5 294.87 17.8
8 1 -5 317.07 22.7
7 -1 -5 220.08 20
-7 -1 5 271.97 23.6
7 -1 -5 210.18 20.3
7 1 -5 219.38 20.9
-7 1 5 205.68 19.7
7 1 -5 248.78 18.9
-7 1 5 204.18 14.3
-7 1 5 198.78 19.5
-6 -1 5 357.86 25.5
6 -1 -5 397.56 25.5
6 -1 -5 443.06 27.7
6 1 -5 318.27 20.9
-6 1 5 358.66 24.3
6 1 -5 328.27 24.1
-6 1 5 401.16 19.6
-6 1 5 417.06 26.7
5 -1 -5 52.79 6.9
5 -1 -5 49.4 10.1
5 -1 -5 59.39 11.2
-5 -1 5 46 9.6
-5 1 5 55.49 7.2
-5 1 5 47.5 9.5
-5 1 5 59.59 11.6
5 1 -5 53.29 10.7
5 1 -5 67.09 8.6
4 -1 -5 194.08 15.7
-4 -1 5 132.09 12.9
4 -1 -5 186.98 12.6
4 -1 -5 183.78 15.4
4 1 -5 128.89 12.7
-4 1 5 182.28 14.8
-4 1 5 204.98 16.3
-4 1 5 202.98 12.9
4 1 -5 137.19 14.5
3 -1 -5 119.79 9.9
3 -1 -5 111.69 11.6
3 -1 -5 116.09 11.5
-3 -1 5 133.69 12.1
-3 1 5 111.09 11
-3 1 5 104.29 10.7
3 1 -5 135.89 11.7
2 -1 -5 1608.44 45.9
2 -1 -5 1561.24 42.8
2 -1 -5 1604.24 45.3
-2 -1 5 1660.33 43.1
2 1 -5 1664.43 42.9
-2 1 5 1612.84 52.99
-2 1 5 1616.64 45.9
-1 -1 5 126.19 8.5
1 -1 -5 104.69 9.8
1 -1 -5 107.39 9.3
1 1 -5 122.99 8.3
-1 1 5 93.39 9.2
0 -1 -5 3230.78 71.19
0 -1 5 3046.5 57.39
0 1 -5 3094.49 71.09
0 1 5 3082.29 69.69
0 1 -5 3038.1 57.49
1 -1 5 262.27 17.2
1 -1 5 245.18 7.7
-1 1 -5 263.97 16.6
1 1 5 202.88 13.9
-2 -1 -5 159.38 10.3
2 -1 5 178.78 14.3
2 -1 5 172.88 7
-2 1 -5 174.28 14
3 -1 5 2033.5 59.39
-3 -1 -5 2022.3 48.6
3 -1 5 2105.09 44
-3 1 -5 2120.89 60.39
4 -1 5 4.6 2.8
-4 -1 -5 2.5 2.3
4 -1 5 0.9 1.6
-4 1 -5 -0.2 1.4
5 -1 5 176.18 12.6
-5 -1 -5 164.88 12.5
5 -1 5 174.48 17.1
-5 1 -5 194.78 17.8
-6 -1 -5 277.27 17.5
6 -1 5 326.67 19.8
-6 1 -5 357.06 25.7
6 1 5 272.87 23.4
6 1 5 270.27 17.5
7 -1 5 158.58 14.5
7 -1 5 147.09 17.6
-7 -1 -5 131.49 12.7
7 1 5 151.78 18.3
-7 1 -5 174.48 18.9
7 1 5 135.79 13.6
-8 -1 -5 7 4.4
8 -1 5 8.4 5
8 1 5 8.9 5.1
-8 1 -5 11.7 6.8
8 1 5 1.3 5.7
-9 -1 -5 4.2 4.4
9 -1 5 10.9 5
-9 1 -5 0.7 5.8
9 1 5 -5.1 5.6
9 1 5 -5.6 4
-10 -1 -5 8.2 6.5
10 -1 5 -10.4 5.5
10 1 5 7.9 7.3
10 1 5 4.1 7.5
-10 1 -5 -0.8 5.9
11 -2 -5 78.29 17.2
-11 2 5 67.39 17.8
11 2 -5 26.5 14.1
-11 2 5 34.3 11
10 -2 -5 181.78 23
-10 2 5 162.08 17.2
-10 2 5 175.88 23
10 2 -5 147.19 26.4
9 -2 -5 591.14 38.4
-9 2 5 567.34 40.2
9 2 -5 559.84 30
-9 2 5 535.85 30.5
9 2 -5 600.44 41.3
-8 2 5 2.2 4.4
8 2 -5 17.2 7.6
-8 2 5 8.1 5
8 2 -5 9.9 5
7 -2 -5 378.16 27.8
7 2 -5 397.66 22.8
7 2 -5 397.36 31.2
-7 2 5 398.46 24.9
-7 2 5 372.46 27.1
6 -2 -5 681.83 37.8
6 -2 -5 645.14 34.8
6 2 -5 622.94 35.3
-6 2 5 684.23 37.7
-6 2 5 672.33 34.9
6 2 -5 616.74 27.6
-6 2 5 690.63 32.5
5 -2 -5 776.12 36.1
5 -2 -5 728.33 33.6
5 -2 -5 758.12 38
-5 2 5 818.92 34.9
5 2 -5 679.43 34.9
-5 2 5 769.12 37.9
5 2 -5 727.23 29.1
-5 2 5 745.13 35.4
4 -2 -5 126.79 13.1
4 -2 -5 109.99 12.8
4 -2 -5 87.89 11.3
4 2 -5 95.89 7.2
-4 2 5 113.69 12
-4 2 5 120.19 12.7
-4 2 5 103.79 12.6
4 2 -5 97.29 11.8
3 -2 -5 226.98 17.1
3 -2 -5 224.18 17.6
3 -2 -5 231.48 17.6
3 2 -5 277.07 18.8
-3 2 5 227.28 17.2
-3 2 5 218.88 17.1
-3 2 5 224.98 17.1
3 2 -5 262.57 13.7
2 -2 -5 875.21 34.9
2 -2 -5 917.31 34.4
2 -2 -5 874.21 35.1
-2 2 5 882.11 34.9
2 2 -5 824.22 31.4
2 2 -5 801.02 29.5
2 2 -5 829.82 29.2
-2 2 5 893.61 35
1 -2 -5 109.69 11.6
1 -2 -5 98.89 10
1 -2 -5 90.99 10.7
-1 2 5 99.19 9.9
1 2 -5 128.39 11.7
1 2 -5 122.99 8.9
-1 2 5 97.59 10.7
0 -2 -5 0.7 1.5
0 -2 -5 4.6 3.3
0 2 -5 -1.5 2.1
0 2 5 1 2.2
1 -2 5 3510.15 84.99
-1 -2 -5 3376.66 69.99
-1 -2 -5 3479.45 83.99
-1 2 -5 3546.65 85.49
1 2 5 3424.96 84.69
2 -2 5 5.4 3.5
-2 -2 -5 11.7 3
2 2 5 12.6 5.6
-2 2 -5 11.5 5
-3 -2 -5 586.14 17.2
3 -2 5 597.14 31.7
-3 -2 -5 617.04 17.8
-3 2 -5 606.14 32.2
-4 -2 -5 681.03 18.3
4 -2 5 686.03 16.7
4 -2 5 664.53 35.7
-4 2 -5 685.33 35.9
5 -2 5 22.2 4.2
-5 -2 -5 17.8 3.2
5 -2 5 50.79 12.3
-5 2 -5 41 10.7
6 -2 5 9 3.8
-6 -2 -5 18.5 3.4
-6 2 -5 23.1 8.2
-7 -2 -5 815.32 24.7
-7 2 -5 826.32 46.2
7 2 5 864.31 49.3
-8 -2 -5 559.74 21
8 -2 5 619.34 29.3
-8 2 -5 663.03 42.5
8 2 5 591.54 41.8
-9 -2 -5 2.8 3.7
9 -2 5 7.7 5.2
9 2 5 3.9 6.5
-9 2 -5 4.8 7
10 -2 5 -11.3 6.3
10 2 5 -8.3 6.5
-10 2 -5 -1.8 6.1
-10 2 -5 -4.8 5.4
10 -3 -5 60.49 16.2
10 3 -5 62.69 17.1
-10 3 5 53.09 13.9
-10 3 5 57.39 16.2
9 -3 -5 21.7 9.9
9 3 -5 51.79 8.8
-9 3 5 29.6 12.4
-9 3 5 31.1 9.6
9 3 -5 42 12.2
8 -3 -5 712.33 41.4
-8 3 5 665.53 38.9
-8 3 5 644.14 43.6
8 3 -5 705.93 28.5
8 3 -5 689.13 44.5
7 -3 -5 486.65 32.8
7 3 -5 464.05 22.5
7 3 -5 482.15 34.8
-7 3 5 457.45 34.8
-7 3 5 538.65 34.1
6 -3 -5 558.54 33.5
-6 3 5 529.55 33
6 3 -5 590.44 25.1
6 3 -5 573.74 25.5
-6 3 5 556.24 36.2
6 3 -5 578.34 37.3
-6 3 5 534.95 32.4
5 -3 -5 292.27 23.1
5 -3 -5 306.07 24
5 -3 -5 242.18 22.8
-5 3 5 257.67 23.1
-5 3 5 306.07 24.4
5 3 -5 267.77 16.8
5 3 -5 265.57 22.7
5 3 -5 262.67 16.8
4 -3 -5 109.29 15.3
4 -3 -5 103.89 17.1
4 -3 -5 105.59 14
-4 3 5 110.09 14.2
4 3 -5 80.99 9.3
-4 3 5 134.99 15.6
-4 3 5 104.59 13
4 3 -5 87.29 14.4
4 3 -5 87.49 9.8
3 -3 -5 41.9 10.2
3 -3 -5 41.4 10
3 -3 -5 35.7 8.7
3 3 -5 52.59 10.6
-3 3 5 37.8 9.4
3 3 -5 42.7 8.4
3 3 -5 40.6 8.3
-3 3 5 48.2 10.9
-3 3 5 34.6 9.3
2 -3 -5 155.88 15
2 -3 -5 146.79 15.9
2 -3 -5 171.18 16.9
-2 3 5 164.88 15
-2 3 5 144.49 14.8
-2 3 5 130.59 14.8
2 3 -5 134.09 13.1
2 3 -5 138.49 13.3
2 3 -5 137.09 13.2
1 -3 -5 58.29 10.3
1 -3 -5 41.4 10.1
-1 3 5 56.19 9.9
-1 3 5 55.19 10.6
1 3 -5 88.39 10.6
0 -3 -5 4.8 4
0 -3 5 6.2 4.1
0 3 5 14.6 4.3
0 3 5 11.2 5.6
0 3 -5 6.2 4.4
0 3 -5 -0.1 2.5
0 3 -5 6.6 2.7
-1 -3 -5 19.1 4.7
-1 -3 -5 33 9
1 -3 5 25.3 7.1
-1 3 -5 35.7 9.4
-1 3 -5 28.7 3.4
-1 3 -5 29.2 3.5
1 3 5 20.2 6.8
-1 3 -5 42.5 10
2 -3 5 34.4 9.4
-2 -3 -5 20.5 7.1
-2 -3 -5 25.9 4.3
-2 3 -5 35 9.8
-2 3 -5 37 10.4
-3 -3 -5 41.3 9.8
3 -3 5 49.8 11.7
-3 3 -5 45.6 11.4
-3 3 -5 44.4 11.2
-4 -3 -5 1.4 4.6
-4 3 -5 10.9 5.6
-4 3 -5 8.8 5.7
-5 -3 -5 82.89 15
-5 3 -5 86.39 17.1
-5 3 -5 97.69 17.5
6 -3 5 3.1 1.7
-6 -3 -5 8 5.6
-6 3 -5 -5.1 3.7
-6 3 -5 1 3.6
7 -3 5 50.99 6
-7 3 -5 39.2 12.3
-7 3 -5 43.2 13.1
8 -3 5 68.59 8.9
-8 3 -5 57.29 14.7
-8 3 -5 57.89 15.4
8 3 5 94.19 20.4
9 -3 5 107.99 13.9
-9 3 -5 88.19 20.3
9 3 5 97.49 21.1
-8 4 5 176.68 22.1
-8 4 5 168.98 23.3
8 4 -5 196.48 33.6
7 -4 -5 68.49 14.4
7 4 -5 66.29 16.7
7 4 -5 61.19 6.3
-7 4 5 59.59 15.8
-7 4 5 62.39 14.3
7 4 -5 53.39 6.2
6 -4 -5 37.6 11.2
-6 4 5 19.7 9.1
6 4 -5 27.8 10.2
-6 4 5 31.9 10.8
6 4 -5 21.4 5.4
6 4 -5 22.5 5.7
5 -4 -5 396.46 29.3
-5 4 5 366.56 30.1
5 4 -5 347.87 19.3
5 4 -5 350.76 28.6
-5 4 5 427.36 32.4
4 -4 -5 34.9 9.5
4 4 -5 14.5 7.1
-4 4 5 21.5 7.9
4 4 -5 13.7 4.7
-4 4 5 17.6 7.5
-4 4 5 18.4 6.4
4 4 -5 11.8 5.8
3 -4 -5 56.79 12.7
-3 4 5 76.99 14.2
3 4 -5 74.49 13.6
-3 4 5 98.49 17.6
3 4 -5 63.49 12.9
-3 4 5 94.99 13.6
3 4 -5 70.39 9.4
2 -4 -5 337.67 24.4
2 4 -5 371.16 23.6
-2 4 5 289.57 23.8
2 4 -5 366.36 23.5
-2 4 5 334.67 28.6
2 4 -5 388.06 26.9
-2 4 5 356.56 25.1
1 -4 -5 72.89 12.6
-1 4 5 71.59 12.4
1 4 -5 76.79 14
-1 4 5 68.99 12.8
1 4 -5 80.79 11.5
1 4 -5 58.19 9.9
0 -4 5 245.08 21.3
0 -4 -5 189.98 15.8
0 4 -5 272.27 22.1
0 4 5 204.38 16
0 4 -5 215.18 21.3
0 4 -5 259.67 15.9
0 4 5 234.48 21.8
1 -4 5 570.04 34
-1 -4 -5 483.15 23.3
-1 4 -5 527.25 20.3
-1 4 -5 519.95 34.6
-1 4 -5 542.95 33.2
-1 4 -5 552.44 20.6
-2 -4 -5 579.14 19.4
-2 4 -5 549.65 36.6
-2 4 -5 581.04 36.3
-2 4 -5 580.44 16.5
-2 4 -5 568.14 15.9
-3 4 -5 315.67 28.2
-3 4 -5 286.17 26.7
-4 4 -5 227.38 25.1
-4 4 -5 263.97 26.3
-5 4 -5 137.89 20
-5 4 -5 160.28 21.7
-6 4 -5 448.16 37.2
-6 4 -5 423.46 36.1
-7 4 -5 142.59 32.3
-7 4 -5 204.28 26.5
6 -5 -5 133.29 20.9
6 5 -5 133.19 22.8
-6 5 5 165.28 27.8
5 5 -5 32 12.4
-5 5 5 31.1 12.2
-5 5 5 36.3 13.6
5 5 -5 24.7 6.5
4 5 -5 55.89 10.5
-4 5 5 54.79 14.5
-4 5 5 46.5 12.6
4 5 -5 72.89 15.5
4 5 -5 89.19 19.6
-3 5 5 7.9 5.2
3 5 -5 5.4 5
-3 5 5 -0.8 6.5
3 5 -5 -1.9 5.6
3 5 -5 9.3 5.3
-2 5 5 70.99 13.8
2 5 -5 50.79 12.5
2 5 -5 44.1 9.7
2 5 -5 41.2 10.2
-2 5 5 66.89 15.3
2 5 -5 38.3 9.5
1 -5 -5 46.1 10.7
1 5 -5 42.6 9.4
1 5 -5 58.19 12.8
1 5 -5 44.6 10.6
1 5 -5 49.5 13.1
-1 5 5 39.6 9.4
0 -5 -5 329.47 23
0 5 -5 365.76 28.5
0 5 -5 350.66 21.3
0 5 -5 354.36 31.1
0 5 -5 349.37 21.6
0 5 5 340.77 22.8
-1 -5 -5 221.98 16.6
-1 5 -5 274.97 16.5
-1 5 -5 275.47 25.7
-1 5 -5 252.97 26.7
-1 5 -5 295.47 17
-2 -5 -5 45.4 5.6
-2 5 -5 32.9 5.1
-2 5 -5 38.2 12.7
-2 5 -5 31 12.8
-2 5 -5 41.5 5
-3 5 -5 272.57 29.4
-3 5 -5 283.47 28
-4 5 -5 86.89 18.2
-5 5 -5 2 6.4
-5 5 -5 7.7 7.6
11 0 -6 588.74 52.29
10 0 -6 1202.08 60.89
9 0 -6 45.1 11.9
8 0 -6 2.8 4.1
-8 0 6 9.2 5.6
8 0 -6 20.6 6.6
-7 0 6 116.59 14.4
7 0 -6 110.39 14.6
7 0 -6 123.69 14.5
-7 0 6 109.99 14.7
6 0 -6 3097.99 82.59
-6 0 6 3059.99 85.39
6 0 -6 2923.61 83.69
5 0 -6 3781.72 90.69
5 0 -6 3656.63 91.29
-5 0 6 3525.35 90.39
4 0 -6 9999 188.18
4 0 -6 9739.03 166.48
-4 0 6 9953.4 188.38
3 0 -6 78.89 9.2
-3 0 6 70.69 8.7
3 0 -6 62.49 8.3
2 0 -6 1177.18 36.5
-2 0 6 1173.08 36.1
0 0 -6 520.95 20.1
0 0 6 517.75 19.9
-1 0 -6 5678.53 113.19
1 0 6 5601.24 106.09
-3 0 -6 2300.97 61.19
-4 0 -6 14.7 5.4
4 0 6 1.3 2.8
5 0 6 511.75 27.5
-5 0 -6 513.75 27.2
5 0 6 512.65 27
6 0 6 486.25 28
-6 0 -6 507.55 28.8
6 0 6 481.85 28.2
7 0 6 111.19 13.8
-7 0 -6 116.99 14.5
7 0 6 146.69 16
-8 0 -6 8.2 5.5
8 0 6 -5.8 4.1
8 0 6 6.2 5.1
-9 0 -6 82.89 18.3
9 0 6 56.99 13.4
-10 0 -6 93.49 17.1
10 0 6 108.09 18.6
-11 1 6 7.9 6.4
11 1 -6 16.2 7.6
10 -1 -6 404.46 33.5
-10 1 6 433.96 35.2
10 1 -6 431.46 35.8
9 -1 -6 166.28 19.9
9 1 -6 171.78 21
-9 1 6 181.58 21.1
9 1 -6 192.08 19.3
-9 1 6 186.88 13.4
8 1 -6 1189.48 54.89
-8 1 6 1209.58 38.1
8 1 -6 1188.28 48.1
7 -1 -6 752.42 39.9
7 -1 -6 713.03 38.6
-7 -1 6 714.13 40.2
7 1 -6 742.33 40.1
-7 1 6 670.93 37.5
-7 1 6 751.32 28.3
7 1 -6 792.52 36
-7 1 6 757.52 40
6 -1 -6 389.56 25.9
6 -1 -6 366.76 25.5
-6 -1 6 364.66 30.3
6 1 -6 392.66 26.6
-6 1 6 372.76 25.5
-6 1 6 386.66 26.4
6 1 -6 353.86 22.8
-6 1 6 377.76 19
5 -1 -6 120.99 13.5
-5 -1 6 125.49 13.8
5 -1 -6 121.69 10.7
5 -1 -6 111.59 13
5 1 -6 110.49 12.8
-5 1 6 130.69 14.1
5 1 -6 134.09 12.9
-5 1 6 125.19 13.6
-4 -1 6 1178.08 42.7
4 -1 -6 1265.87 45.1
4 -1 -6 1195.08 43.5
4 -1 -6 1170.28 36.6
-4 1 6 1189.18 44.1
-4 1 6 1253.47 44.2
4 1 -6 1169.48 40.3
4 1 -6 1137.59 23.7
4 1 -6 1216.08 42.9
-3 -1 6 15.2 5.1
3 -1 -6 18.9 5.8
3 -1 -6 7 4.7
3 -1 -6 7.6 3.7
-3 1 6 11.6 4.7
3 1 -6 10.1 3.6
-3 1 6 3.3 3.7
2 -1 -6 4220.18 91.69
2 -1 -6 4155.48 88.19
2 -1 -6 4128.99 92.09
-2 -1 6 4269.17 87.19
-2 1 6 4080.39 91.89
2 1 -6 4295.77 87.09
1 -1 -6 483.75 22
-1 -1 6 490.85 18.6
1 -1 -6 443.46 22.2
1 1 -6 519.55 18.8
-1 1 6 492.75 23.1
0 -1 6 135.19 7.9
0 -1 -6 161.18 12.9
0 1 6 123.79 13.4
0 1 -6 135.59 12.1
0 1 -6 139.69 8
1 -1 6 3373.36 61.09
-1 1 -6 3383.46 80.69
1 1 6 3399.46 77.69
2 -1 6 1172.58 42.2
-2 -1 -6 1226.28 36
2 -1 6 1251.87 27.5
2 1 6 1200.58 40.4
-2 1 -6 1228.78 43.3
3 -1 6 3916.41 96.19
3 -1 6 4081.29 76.39
-3 -1 -6 4119.39 85.39
3 -1 6 4127.09 76.99
-3 1 -6 4099.89 97.59
4 -1 6 3030.3 64.39
4 -1 6 3162.38 83.49
-4 -1 -6 2861.41 68.19
-4 1 -6 2982.6 81.59
5 -1 6 815.12 29.1
5 -1 6 759.72 37.8
-5 -1 -6 804.22 30.5
-5 1 -6 803.02 38.7
6 -1 6 3363.06 80.09
-6 -1 -6 3281.77 79.39
-6 1 -6 3280.67 93.89
7 -1 6 684.83 31.6
-7 -1 -6 651.83 30.3
-7 1 -6 714.63 40.1
7 1 6 662.53 39.2
8 -1 6 198.28 18.2
-8 -1 -6 215.78 17.8
-8 1 -6 203.88 21.9
8 1 6 204.48 17.7
8 1 6 223.18 23
-9 -1 -6 171.98 17.3
9 -1 6 181.58 18.5
9 1 6 163.68 17.5
-9 1 -6 208.18 23.1
9 1 6 201.98 22.8
-10 1 -6 258.87 26.2
10 1 6 215.28 26.4
10 -2 -6 10.7 7.3
-10 2 6 19.7 10
-10 2 6 5 4.8
9 -2 -6 34.2 11.4
9 2 -6 32.6 11
-9 2 6 25.4 8.5
9 2 -6 16.5 6.4
-9 2 6 9.8 6.8
8 -2 -6 537.65 36.1
8 2 -6 555.54 37.7
-8 2 6 580.54 31
-8 2 6 603.34 39.4
8 2 -6 632.24 31.5
7 -2 -6 737.43 40.5
-7 2 6 702.63 33.9
-7 2 6 725.63 41.8
7 2 -6 795.62 34.5
-7 2 6 745.83 39.9
6 -2 -6 3065.59 88.29
6 -2 -6 3135.89 93.49
6 2 -6 3110.49 90.29
6 2 -6 3094.49 77.69
-6 2 6 3038.5 91.39
-6 2 6 3187.78 82.19
-6 2 6 3084.99 88.19
5 -2 -6 21 6.5
5 -2 -6 18.9 6.7
5 2 -6 16.3 6.4
5 2 -6 26.1 6.8
-5 2 6 31.5 8.2
-5 2 6 20.9 7.6
-5 2 6 17.6 6.4
4 -2 -6 109.49 12.3
4 -2 -6 71.89 12.4
4 -2 -6 91.69 11.9
-4 2 6 97.29 12.6
4 2 -6 91.59 11.7
4 2 -6 108.09 8
-4 2 6 87.29 11
-4 2 6 102.39 11.6
3 -2 -6 4111.79 98.19
3 -2 -6 4057.89 96.59
3 -2 -6 3993.5 97.79
-3 2 6 4123.69 98.49
3 2 -6 4172.48 84.19
-3 2 6 4062.29 97.79
3 2 -6 4148.38 93.09
2 -2 -6 126.39 13.2
2 -2 -6 120.29 11.9
2 -2 -6 133.59 13.2
2 2 -6 102.09 9.6
2 2 -6 108.99 13.6
-2 2 6 122.69 13
-2 2 6 132.39 12.9
1 -2 -6 1832.92 56.19
1 -2 -6 1757.82 54.79
1 -2 -6 1784.82 50.69
1 2 -6 1783.32 53.49
-1 2 6 1739.73 54.39
1 2 -6 1788.32 43.4
0 -2 -6 812.12 29.1
0 -2 -6 814.72 34.7
0 2 -6 810.62 21.2
0 2 -6 783.12 33.9
0 2 6 806.92 34.7
-1 -2 -6 6371.86 135.09
1 -2 6 6453.15 136.89
-1 -2 -6 6524.25 120.49
1 2 6 6287.17 135.19
-1 2 -6 6418.66 137.19
2 -2 6 3338.77 87.19
-2 -2 -6 3311.87 67.69
2 2 6 3233.48 85.19
-2 2 -6 3256.17 86.89
3 -2 6 893.31 40.7
-3 -2 -6 793.52 24.4
-3 2 -6 828.62 39.3
-4 -2 -6 130.29 8.4
4 -2 6 114.39 14.2
-4 2 -6 108.79 14.4
5 -2 6 2006.1 41.9
5 -2 6 1902.31 69.59
-5 -2 -6 1965.3 44.3
-5 2 -6 2034 71.19
-6 -2 -6 221.38 11.8
6 -2 6 244.08 13.4
-6 2 -6 228.28 24.3
-7 -2 -6 478.65 18.8
7 -2 6 431.86 21.1
-7 2 -6 455.95 34.5
-8 -2 -6 126.19 10
8 -2 6 123.49 12.7
8 2 6 145.59 24.8
-8 2 -6 115.49 21.4
9 -2 6 174.98 17.1
-9 -2 -6 187.28 12.7
-9 2 -6 207.18 25.2
9 2 6 205.78 25.5
10 -3 -6 362.26 34
-10 3 6 393.86 30.3
-10 3 6 365.36 35.6
10 3 -6 349.57 34.7
9 -3 -6 99.09 19
-9 3 6 91.19 16
-9 3 6 77.09 22
9 3 -6 90.59 10.9
9 3 -6 85.99 20.2
8 -3 -6 172.88 20.8
8 3 -6 142.99 19.4
-8 3 6 154.58 21.3
8 3 -6 135.29 13.3
-8 3 6 151.38 17.9
7 -3 -6 1512.35 62.29
7 3 -6 1464.35 63.89
-7 3 6 1556.94 60.69
-7 3 6 1592.64 67.69
7 3 -6 1507.45 48
6 -3 -6 230.98 22
-6 3 6 234.28 22.9
-6 3 6 232.88 21.5
-6 3 6 223.58 23.2
6 3 -6 228.78 17.1
6 3 -6 234.18 27
6 3 -6 238.38 16.9
5 -3 -6 154.78 16.9
5 -3 -6 175.08 18.6
5 3 -6 147.79 11.2
-5 3 6 161.48 17
5 3 -6 143.99 13.3
5 3 -6 155.68 16.9
-5 3 6 144.99 16.9
-5 3 6 172.38 19.1
4 -3 -6 1874.01 64.09
4 -3 -6 1896.41 66.19
4 -3 -6 1789.92 64.89
-4 3 6 1719.73 72.09
-4 3 6 1895.11 65.19
4 3 -6 1880.71 51.69
4 3 -6 1859.41 55.39
-4 3 6 1876.11 65.39
4 3 -6 1908.41 62.19
3 -3 -6 429.46 27.5
3 -3 -6 413.56 32
3 -3 -6 469.75 29
3 3 -6 459.95 24.7
3 3 -6 422.16 23.1
3 3 -6 443.26 25.4
-3 3 6 416.26 27.7
-3 3 6 409.06 27.2
-3 3 6 442.96 27.7
2 -3 -6 781.92 35.8
2 -3 -6 753.72 45
2 -3 -6 831.82 39.4
2 3 -6 841.82 35.3
-2 3 6 749.33 36.8
2 3 -6 791.22 34.6
-2 3 6 792.32 35.7
1 -3 -6 916.11 36.6
1 -3 -6 943.71 43.1
1 3 -6 1006.4 32.4
-1 3 6 988.7 37.8
-1 3 6 960 42.1
1 3 -6 1001.1 40.9
1 3 -6 895.21 38.8
0 -3 -6 158.58 13
0 -3 -6 175.48 17.4
0 3 -6 171.68 16.5
0 3 -6 149.09 9.4
0 3 -6 162.18 16.2
0 3 6 170.48 17
-1 -3 -6 22.7 4.9
1 -3 6 14.7 5.9
-1 -3 -6 22.6 8.5
-1 3 -6 23.2 7.5
-1 3 -6 22.7 7.7
2 -3 6 580.04 33.7
-2 -3 -6 533.95 19.3
-2 -3 -6 544.55 33.2
2 3 6 490.95 31.4
-2 3 -6 588.64 34.1
-2 3 -6 540.65 33.1
-3 -3 -6 4134.79 69.89
-3 -3 -6 4135.09 69.89
-3 -3 -6 4032.4 106.19
3 -3 6 3950.1 109.89
3 3 6 4091.49 110.29
-3 3 -6 4087.69 110.79
-4 -3 -6 3.2 3.8
-4 3 -6 -1.4 2.8
-5 -3 -6 339.17 26.4
-5 3 -6 367.36 30.9
-6 3 -6 147.49 20.4
-7 3 -6 569.04 41.9
-7 3 -6 575.04 41.4
8 -3 6 74.69 6.9
-8 3 -6 66.39 16.3
8 -4 -6 176.78 23.4
-8 4 6 166.98 21.4
8 4 -6 179.28 12
-8 4 6 154.98 22.4
7 -4 -6 -3.7 3.7
7 4 -6 -2 5.1
7 4 -6 3.7 4
7 4 -6 5 3.5
-7 4 6 4.5 5.4
-7 4 6 1 5.9
6 -4 -6 1286.67 57.89
6 4 -6 1389.46 61.59
6 4 -6 1336.37 42.7
-6 4 6 1382.66 64.09
-6 4 6 1358.96 62.39
5 -4 -6 450.55 32.4
-5 4 6 456.45 33.9
5 4 -6 466.85 25.5
5 4 -6 468.35 24.7
5 4 -6 464.95 33.4
-5 4 6 443.96 33.3
4 -4 -6 150.98 17.8
-4 4 6 134.89 18.1
4 4 -6 144.89 16.9
4 4 -6 126.59 13
-4 4 6 115.19 23
4 4 -6 146.59 14.9
3 -4 -6 524.55 33.3
3 -4 -6 474.95 32.4
-3 4 6 538.25 33.3
-3 4 6 495.05 34.1
3 4 -6 469.55 28.9
3 4 -6 471.95 28.7
3 4 -6 509.15 28.1
2 -4 -6 1111.99 48.9
-2 4 6 1106.09 46.6
2 4 -6 1094.39 47.5
2 4 -6 1077.79 44.5
2 4 -6 1112.99 42.4
1 -4 -6 7.4 3.9
1 4 -6 0.7 3.4
-1 4 6 1.3 2.9
1 4 -6 4.5 3.5
0 -4 -6 47.9 9.4
0 4 -6 53.09 6.9
0 4 -6 46.8 7.5
0 4 -6 63.49 14.2
0 4 -6 59.59 13.4
-1 -4 -6 16.2 7.3
1 -4 6 7.6 5.8
-1 4 -6 8.8 2.7
-1 4 -6 15.7 7
-1 4 -6 9.2 2.8
-2 -4 -6 395.26 16.4
-2 4 -6 411.96 32.1
-3 4 -6 250.47 24.7
-3 4 -6 225.38 24.2
-4 4 -6 34.9 11.3
-4 4 -6 36.4 11.9
-5 4 -6 171.78 22.1
-5 4 -6 182.88 23.4
-6 4 -6 5.1 6.5
-6 4 -6 0.8 6.4
-7 4 -6 756.62 51.39
-7 4 -6 721.33 50.19
6 -5 -6 83.49 17.2
-6 5 6 60.99 16.5
6 5 -6 91.69 9.5
6 5 -6 72.49 17.1
-6 5 6 63.79 16.8
5 5 -6 204.08 15.8
5 5 -6 224.58 24.4
-5 5 6 232.68 24.9
4 5 -6 136.39 14.1
-4 5 6 120.89 21.5
-4 5 6 122.59 23.3
4 5 -6 130.39 17.5
-3 5 6 20.6 8.8
3 5 -6 19.2 8.8
3 5 -6 18.6 6.8
3 5 -6 22.3 7.7
-2 5 6 1155.88 51.29
2 5 -6 1169.88 47.8
2 5 -6 1179.68 49.6
2 5 -6 1149.89 54.59
1 -5 -6 23 8.6
1 5 -6 19.6 6.5
1 5 -6 33.5 10.1
1 5 -6 26.2 7.6
1 5 -6 21.8 8.5
-1 5 6 6.6 6.6
0 -5 -6 69.09 12.4
0 5 -6 45.4 12.9
0 5 -6 56.59 9.4
0 5 -6 61.29 15.1
-1 -5 -6 191.78 15.2
-1 5 -6 238.18 24.9
-1 5 -6 223.78 12.8
-1 5 -6 236.98 26.4
-1 5 -6 227.88 12.7
-2 -5 -6 114.29 7.7
-2 5 -6 99.99 21
-2 5 -6 114.99 21.2
-3 5 -6 146.29 25.3
-3 5 -6 115.09 20.8
-4 5 -6 51.09 14.3
-4 5 -6 43.1 14
-5 5 -6 13.6 9.4
-5 5 -6 24.2 11.6
11 0 -7 6.8 7.9
9 0 -7 -6.5 3.6
8 0 -7 1.4 4.3
8 0 -7 -5.7 3.5
-7 0 7 -1.4 2.9
7 0 -7 2.4 3.3
7 0 -7 0.6 3.9
6 0 -7 -0.9 3.4
6 0 -7 0.8 2.5
-5 0 7 3.5 3.2
5 0 -7 -1.7 2.2
5 0 -7 -0.4 1.9
5 0 -7 1.2 1.6
4 0 -7 4.2 3.7
4 0 -7 5.9 3.5
-4 0 7 -0.6 2.5
4 0 -7 1.9 1.9
3 0 -7 3.4 2.9
3 0 -7 -1.3 2.1
-3 0 7 0.4 1.7
-2 0 7 2.3 2.2
2 0 -7 1.4 2.2
1 0 -7 0.4 1.8
-1 0 7 1 2.3
0 0 -7 2.7 2.3
0 0 7 -0.9 1.6
1 0 7 0 2.2
-1 0 -7 3.5 2.5
-2 0 -7 5.1 3.2
2 0 7 5.1 2.6
3 0 7 0.5 1.8
-3 0 -7 -1.3 1.5
-4 0 -7 5.5 3.4
5 0 7 1.5 2.8
-5 0 -7 0 3.5
6 0 7 8.8 4.2
6 0 7 -0.1 2.7
-6 0 -7 -0.2 3.2
7 0 7 -1.1 2.9
7 0 7 -2 3.8
-7 0 -7 2 3.8
-8 0 -7 1.5 4.3
8 0 7 10.3 6.4
8 0 7 -1.7 3.8
-9 0 -7 -10.5 4.7
9 0 7 7.9 5.3
10 0 7 2.5 5.9
11 -1 -7 107.69 22.4
11 1 -7 106.29 22.2
-11 1 7 131.59 28.2
10 -1 -7 215.98 25.1
10 1 -7 203.88 25.2
-10 1 7 205.68 24.8
9 -1 -7 14.5 9.1
9 1 -7 6.1 5.5
-9 1 7 35.4 11.6
9 1 -7 12.6 8.7
8 -1 -7 382.36 29.4
-8 1 7 403.56 30.9
8 1 -7 262.17 25
8 1 -7 301.57 24.2
7 -1 -7 188.28 19.6
7 -1 -7 160.88 18.3
-7 1 7 180.98 19.4
7 1 -7 210.98 18.5
7 1 -7 226.28 21.6
-7 1 7 224.68 20.7
6 -1 -7 825.82 40.1
6 -1 -7 791.82 40
-6 -1 7 831.42 40.7
6 1 -7 790.22 39.1
6 1 -7 743.33 34.9
-6 1 7 841.12 40.3
-6 1 7 780.82 39.8
5 -1 -7 253.97 20.7
-5 -1 7 270.07 20.9
5 -1 -7 249.97 20.2
-5 1 7 253.87 20.9
5 1 -7 276.37 20.8
5 1 -7 257.97 18.8
4 -1 -7 224.68 18.2
-4 -1 7 279.47 19.6
4 -1 -7 244.38 18.8
-4 1 7 241.28 18.6
4 1 -7 256.67 18.1
4 1 -7 266.57 19
-4 1 7 239.08 18.9
3 -1 -7 879.51 35.7
-3 -1 7 858.41 33.2
3 -1 -7 821.52 37.3
3 -1 -7 923.81 36.6
-3 1 7 926.51 36.2
3 1 -7 799.72 38
-2 -1 7 8.3 3.3
2 -1 -7 3 3
2 -1 -7 -1.4 1.7
2 -1 -7 2.2 2.4
2 1 -7 7.4 3.6
-2 1 7 -0.9 2.6
1 -1 -7 528.85 31
1 -1 -7 502.45 23.8
-1 -1 7 523.35 20.2
-1 1 7 535.75 25.3
1 1 -7 516.25 20.2
0 -1 -7 1979.2 55.69
0 -1 7 1916.11 43.5
0 1 7 2029.1 55.39
0 1 -7 1975 44.1
0 1 -7 1947.91 57.09
1 -1 7 2304.77 46.1
-1 1 -7 2281.67 63.99
1 1 7 2184.18 59.69
2 -1 7 136.49 7.8
-2 -1 -7 109.19 10.4
2 1 7 103.39 11.2
-2 1 -7 124.79 13.1
3 -1 7 195.98 10.2
3 -1 7 193.98 17
-3 -1 -7 133.09 11.8
3 1 7 146.09 13.8
-3 1 -7 161.28 15.9
-4 -1 -7 216.48 15.2
4 -1 7 168.38 11.2
4 -1 7 187.18 17.6
-4 1 -7 180.28 17.6
-5 -1 -7 825.92 39.8
5 -1 7 740.03 60.59
5 -1 7 775.12 28.7
-5 1 -7 763.62 38.9
-6 -1 -7 492.75 26
6 -1 7 530.45 25.7
6 -1 7 507.45 32.6
-6 1 -7 571.44 34.6
7 -1 7 53.39 10.4
-7 -1 -7 59.29 10.8
7 1 7 66.39 14.6
8 -1 7 157.88 16.2
-8 -1 -7 172.58 16.4
-8 1 -7 177.98 20.9
8 1 7 177.28 20.7
9 -1 7 8.8 7
-9 -1 -7 12 6.5
-9 1 -7 12.4 6.9
9 1 7 20.7 8
10 -2 -7 27.5 10.6
10 2 -7 3.8 6.3
10 2 -7 6.3 8.3
-10 2 7 24.3 12.4
9 -2 -7 193.98 23.5
9 2 -7 198.08 19.1
-9 2 7 199.58 17.7
-9 2 7 175.08 22.9
9 2 -7 246.98 26.6
8 -2 -7 27.3 9.7
8 2 -7 34.9 10.2
-8 2 7 17.3 9.1
-8 2 7 17.2 6.2
8 2 -7 20.9 8.1
7 -2 -7 626.04 37.9
-7 2 7 641.64 39.9
7 2 -7 685.83 33.8
7 2 -7 645.74 38.7
-7 2 7 670.13 32.6
6 -2 -7 35.8 10.5
6 -2 -7 5.9 6.1
6 -2 -7 18.7 5.7
-6 2 7 20 6.5
-6 2 7 22.8 8.7
6 2 -7 35 9.6
6 2 -7 37.8 8.9
-6 2 7 25.6 8.3
5 -2 -7 1457.55 50.99
5 -2 -7 1448.56 54.89
5 -2 -7 1365.96 54.79
5 2 -7 1520.45 54.49
5 2 -7 1417.26 30.5
5 2 -7 1441.86 48.6
-5 2 7 1396.26 55.29
-4 -2 7 514.95 28.7
4 -2 -7 461.35 26.7
4 -2 -7 470.05 28.7
4 -2 -7 462.55 28.4
-4 2 7 479.95 29.3
4 2 -7 550.34 28.5
-4 2 7 481.15 28.2
4 2 -7 544.95 19.8
3 -2 -7 4.7 4
3 -2 -7 11.9 4.6
3 -2 -7 1.6 3
-3 -2 7 0.2 2
3 2 -7 1.3 2.5
-3 2 7 2.7 3.4
3 2 -7 0.3 1.6
-3 2 7 11.3 5.2
2 -2 -7 2571.64 70.79
-2 -2 7 2458.55 63.59
2 -2 -7 2456.65 71.19
2 -2 -7 2545.65 69.09
2 2 -7 2485.15 61.19
-2 2 7 2627.24 72.29
2 2 -7 2469.75 68.59
1 -2 -7 64.19 11.5
1 -2 -7 52.99 10.2
1 -2 -7 54.29 9.4
-1 2 7 64.69 11.6
1 2 -7 29.2 7.7
1 2 -7 40.1 6.3
0 -2 -7 217.78 15
0 -2 -7 209.28 17.3
0 2 7 248.08 18.8
0 2 -7 229.38 10.1
0 2 -7 199.88 17.3
-1 -2 -7 616.74 24.6
-1 2 -7 536.75 30.1
1 2 7 590.44 30.4
-2 -2 -7 1416.36 38.6
2 -2 7 1224.28 49.3
-2 2 -7 1271.97 50.19
2 2 7 1369.26 50.19
-3 -2 -7 14.9 4.2
3 -2 7 11 5
-3 2 -7 6.8 5.7
3 2 7 8.9 5.1
4 -2 7 332.97 25.8
-4 -2 -7 374.06 16.7
-4 2 -7 320.27 26
5 -2 7 116.29 6.3
5 -2 7 115.79 6.2
-5 -2 -7 90.49 8.3
-5 2 -7 130.69 16.5
6 -2 7 228.78 12
-6 -2 -7 210.48 12.7
-6 2 -7 254.27 24.6
-7 -2 -7 7 3.4
-7 2 -7 16.6 7.4
8 -2 7 17.8 5.7
-8 -2 -7 13.4 4.6
-8 2 -7 23.7 10.7
8 2 7 11.2 8.3
-9 -2 -7 5.2 4.6
9 -2 7 16.4 6.8
9 2 7 4.7 9.5
-9 2 -7 -1 8.1
9 -3 -7 79.09 17.2
9 3 -7 54.99 10.7
-9 3 7 64.09 14.9
9 3 -7 45.1 14.8
-9 3 7 35.2 12.5
8 -3 -7 18.7 9.2
8 3 -7 29.8 7.3
-8 3 7 26.1 8.9
8 3 -7 23.8 8.8
-8 3 7 27 11.3
7 -3 -7 11.4 8.8
-7 3 7 16.3 9
7 3 -7 12.4 7.4
-7 3 7 20.9 8.5
7 3 -7 8.8 4.5
6 -3 -7 133.79 16.8
6 3 -7 140.99 14
-6 3 7 146.49 17.1
-6 3 7 167.38 20.2
5 -3 -7 60.09 13
5 -3 -7 61.09 13.2
5 3 -7 55.59 10.7
5 3 -7 55.09 7.1
5 3 -7 45.5 11.8
-5 3 7 55.09 12.2
-5 3 7 65.79 14.6
-5 3 7 65.09 13.6
4 -3 -7 617.84 35.6
4 -3 -7 610.64 35.4
4 -3 -7 613.24 36
-4 3 7 658.33 36.9
4 3 -7 626.14 31
-4 3 7 619.64 34.9
4 3 -7 649.64 33.4
4 3 -7 594.84 26.5
3 -3 -7 31.4 9.7
3 -3 -7 33.7 9.6
3 -3 -7 23.8 8.3
-3 3 7 43 10.4
3 3 -7 23.9 7
3 3 -7 24.8 7
3 3 -7 29 7.2
-3 3 7 25.6 8.6
2 -3 -7 67.09 13.3
2 -3 -7 65.09 11.6
2 -3 -7 50.29 11.4
2 3 -7 52.79 10.7
-2 3 7 56.29 12.2
-2 3 7 66.69 12.4
2 3 -7 47 10.5
1 -3 -7 296.87 23.2
1 -3 -7 309.37 20.4
1 3 -7 303.67 22.3
-1 3 7 301.77 28.5
1 3 -7 308.07 16.4
1 3 -7 310.67 22.2
0 -3 -7 11.4 5
0 -3 -7 22.5 7.9
0 3 7 17.2 6.4
0 3 -7 16 3.8
0 3 -7 18.9 6.6
0 3 -7 21.5 7.4
-1 -3 -7 15.3 4.1
-1 -3 -7 20.9 6.9
-1 3 -7 20.4 7.6
1 3 7 20.4 6.6
-2 -3 -7 263.47 13.9
2 -3 7 278.87 23.9
-2 -3 -7 255.77 22.1
-2 3 -7 233.88 21.7
2 3 7 268.67 22.9
-3 -3 -7 244.18 11.3
-3 -3 -7 262.57 22.8
-3 -3 -7 263.17 11.4
-3 3 -7 242.08 23.6
-4 -3 -7 168.18 21.8
-4 3 -7 147.39 18.6
-5 3 -7 311.87 28.8
-6 3 -7 34.2 12
-7 3 -7 6.8 7.9
8 3 7 28.4 12.3
-8 3 -7 25.9 11.4
8 -4 -7 57.79 14.6
-8 4 7 56.19 15.1
8 4 -7 71.49 9.8
-8 4 7 86.49 18.3
7 -4 -7 -0.7 5.9
-7 4 7 5.2 6.2
-7 4 7 -5.9 4.5
7 4 -7 9.8 4.2
7 4 -7 4.8 6.6
7 4 -7 14.3 5.2
6 -4 -7 981.7 51.09
6 4 -7 1010.1 38.7
-6 4 7 971.6 53.79
6 4 -7 1021.3 51.89
6 4 -7 1053.89 40.6
-6 4 7 1006.8 52.99
5 -4 -7 7 5.9
5 4 -7 12.7 5.3
-5 4 7 17.1 6.9
5 4 -7 6 4.1
5 4 -7 6.6 6.1
-5 4 7 5 4.5
4 -4 -7 275.47 25.1
4 4 -7 215.88 18.6
-4 4 7 243.08 23.6
4 4 -7 238.18 21.3
4 4 -7 184.48 17.4
3 -4 -7 621.74 39.8
3 -4 -7 647.34 38.2
3 4 -7 673.93 34.1
3 4 -7 714.53 36.3
3 4 -7 663.53 34.2
-3 4 7 638.04 37
2 -4 -7 137.29 16.7
2 4 -7 123.69 15
-2 4 7 132.29 15.5
2 4 -7 124.39 15.7
2 4 -7 104.99 12.4
1 -4 -7 353.66 24.6
1 4 -7 339.97 25.7
1 4 -7 327.37 19
1 4 -7 373.86 27.8
0 -4 -7 85.39 10.7
0 4 -7 95.09 8.3
0 4 -7 85.69 16.2
0 4 -7 87.89 15.8
0 4 -7 85.79 8
-1 -4 -7 108.99 11
-1 4 -7 71.79 16
-1 4 -7 96.49 17.6
-2 -4 -7 52.09 6.4
-2 4 -7 39.9 12.2
-2 4 -7 44.2 12
-3 4 -7 97.89 19.2
-3 4 -7 69.79 15.7
-4 4 -7 36.5 11.7
-4 4 -7 31.8 11.1
-5 4 -7 -1.1 5.6
-5 4 -7 -0.4 4.8
-6 4 -7 58.19 19.6
-7 4 -7 5.8 9
-7 4 -7 20.1 12
6 -5 -7 222.38 26.5
6 5 -7 159.08 25.3
-6 5 7 149.59 26.4
-6 5 7 125.49 22.9
6 5 -7 154.48 14.2
5 5 -7 9.9 5.9
5 5 -7 6.6 5.6
5 5 -7 4.1 4.9
-5 5 7 -3.1 6.2
4 5 -7 265.47 21.3
4 5 -7 242.48 42
-4 5 7 248.18 25.3
4 5 -7 230.58 22.8
3 5 -7 129.19 16.8
3 5 -7 156.58 17.5
-3 5 7 154.48 19.6
3 5 -7 120.09 15.5
2 5 -7 103.99 19
-2 5 7 77.39 15.6
2 5 -7 88.19 15.3
2 5 -7 74.69 13.1
1 -5 -7 141.49 16.8
1 5 -7 109.49 18.5
1 5 -7 102.39 11.9
1 5 -7 113.59 12.6
1 5 -7 106.79 20
0 -5 -7 9.2 6.2
0 5 -7 6.5 5.4
0 5 -7 5.5 4.8
0 5 -7 2.3 3.3
-1 -5 -7 28.7 7.8
-1 5 -7 40.3 13
-1 5 -7 44.1 12.4
-2 -5 -7 60.39 6
-2 5 -7 48.7 13.6
-2 5 -7 47.5 14.2
-3 5 -7 321.57 31.4
-4 5 -7 235.58 28
-4 5 -7 245.08 27.6
11 0 -8 90.19 19.8
10 0 -8 662.73 44.7
9 0 -8 503.65 36.7
8 0 -8 2.4 4
7 0 -8 221.68 21.5
7 0 -8 206.78 20.3
6 0 -8 490.85 30.4
6 0 -8 470.35 29.1
-6 0 8 468.85 29.9
5 0 -8 1547.85 37.4
5 0 -8 1449.95 52.29
-5 0 8 1530.95 54.39
5 0 -8 1454.45 52.99
4 0 -8 3795.02 75.19
4 0 -8 3613.94 90.09
-4 0 8 3587.54 89.99
4 0 -8 3641.24 90.99
3 0 -8 1454.55 48.4
-3 0 8 1403.36 46.4
3 0 -8 1439.56 47.2
2 0 -8 1395.36 43.9
-2 0 8 1373.76 43.1
1 0 -8 3999.4 87.39
0 0 -8 2649.53 63.89
0 0 8 2757.72 64.29
-1 0 -8 996 37.9
1 0 8 942.61 32.1
2 0 8 14 4.5
-2 0 -8 5 3.9
-3 0 -8 1355.76 47.3
3 0 8 1254.27 40.6
-4 0 -8 484.25 27.6
4 0 8 498.05 24.9
-5 0 -8 2164.58 67.19
6 0 8 1742.53 58.39
6 0 8 1514.35 59.09
-6 0 -8 1593.64 57.79
7 0 8 27.8 7.8
-7 0 -8 26.1 8.8
7 0 8 15.5 6.3
-8 0 -8 2430.56 90.59
9 0 8 1508.55 62.09
-9 0 -8 1353.96 59.19
11 -1 -8 1277.47 66.89
11 1 -8 1216.38 66.49
10 -1 -8 73.89 17
-10 1 8 68.09 16.1
10 1 -8 63.49 16.6
9 -1 -8 31.4 11.2
-9 1 8 26 8.9
9 1 -8 30.8 10.1
8 -1 -8 2668.93 88.39
-8 1 8 2553.14 87.89
8 1 -8 2584.74 88.49
8 1 -8 2649.33 81.59
7 -1 -8 576.24 35.7
-7 1 8 531.15 34.7
7 1 -8 557.84 35.3
-6 -1 8 284.17 23.6
6 -1 -8 319.07 25.3
6 -1 -8 332.27 18.9
6 -1 -8 365.86 26.5
-6 1 8 333.97 25.2
6 1 -8 335.37 25.4
-6 1 8 321.67 25.4
6 1 -8 297.87 21.9
5 -1 -8 11.6 4.1
5 -1 -8 7.2 4.7
5 -1 -8 7.2 4.8
-5 -1 8 8.9 4.9
5 1 -8 3.5 3.4
-5 1 8 9.7 4.8
5 1 -8 8.1 4.4
5 1 -8 9.4 1.7
4 -1 -8 355.66 23.7
4 -1 -8 357.26 19.7
4 -1 -8 361.06 24
-4 -1 8 310.57 21.3
4 1 -8 317.67 21.4
-4 1 8 337.17 22.9
3 -1 -8 176.58 14
-3 -1 8 195.98 15.1
3 -1 -8 188.38 16.2
3 -1 -8 193.98 16.6
-3 1 8 216.58 17.2
3 1 -8 182.48 14.6
2 -1 -8 11.2 4.5
2 -1 -8 -0.3 2.3
-2 -1 8 3.1 3.2
2 1 -8 4.8 2.9
-2 1 8 11.2 4.8
1 -1 -8 3865.31 89.29
1 -1 -8 4001.7 92.09
-1 -1 8 3795.22 80.39
-1 1 8 3910.31 90.79
1 1 -8 3840.92 80.89
0 -1 8 1995.1 47
0 -1 -8 2077.99 59.49
0 1 -8 2050.29 47.7
0 1 8 2078.09 58.69
0 1 -8 2101.89 61.99
1 -1 8 163.68 9.4
-1 1 -8 157.08 15.1
1 1 8 137.59 13.2
-2 -1 -8 66.79 8.9
2 -1 8 75.19 6.4
-2 1 -8 66.39 12.2
2 1 8 82.19 9.8
-3 -1 -8 49.7 9.4
3 -1 8 50.59 5.6
3 1 8 55.89 10.8
-3 1 -8 59.29 12
4 -1 8 336.67 16.5
-4 -1 -8 334.97 20.4
4 -1 8 340.37 16.9
4 -1 8 358.86 25.8
-4 1 -8 372.66 26.2
5 -1 8 2931.01 69.59
5 -1 8 3089.09 90.49
-5 -1 -8 3030.4 76.59
-5 1 -8 2996.4 89.29
6 -1 8 59.79 9.9
-6 -1 -8 57.99 10.6
-6 1 -8 57.39 13.1
-7 -1 -8 105.99 13.1
7 -1 8 95.99 12.1
-7 1 -8 91.19 17.8
-8 -1 -8 1226.88 48.1
-8 1 -8 1269.27 59.69
-9 -1 -8 4.8 5.5
9 -1 8 8.4 6.2
-9 1 -8 1.3 6.1
9 1 8 6.8 7.7
10 -2 -8 362.46 33.9
10 2 -8 371.36 34.2
-10 2 8 345.07 35.1
9 -2 -8 823.52 48.6
-9 2 8 722.53 47.2
9 2 -8 714.23 38.3
9 2 -8 752.32 47.3
8 -2 -8 18.5 9.1
-8 2 8 23.7 9.8
8 2 -8 28.9 9.6
8 2 -8 14 7
7 -2 -8 185.98 20.5
7 2 -8 137.09 15.3
7 2 -8 125.89 20.8
-7 2 8 145.29 19.2
6 -2 -8 628.24 36.9
6 -2 -8 535.35 30.1
-6 -2 8 552.44 34.9
6 2 -8 599.84 31.4
-6 2 8 561.74 40.6
-6 2 8 542.75 35.4
6 2 -8 597.04 35.2
5 -2 -8 687.83 37.7
5 -2 -8 657.53 32.6
-5 -2 8 610.44 34.4
5 -2 -8 624.54 35.4
5 2 -8 610.84 31.2
5 2 -8 570.54 32.5
-5 2 8 635.44 36.7
-5 2 8 638.54 35.7
5 2 -8 599.54 18.3
4 -2 -8 4271.87 107.89
-4 -2 8 4233.38 103.39
4 -2 -8 4121.89 101.89
4 -2 -8 4186.78 107.29
-4 2 8 4160.58 107.59
4 2 -8 4242.58 85.19
-4 2 8 4259.57 109.59
4 2 -8 4255.07 101.69
3 -2 -8 110.19 12.6
-3 -2 8 116.89 12.1
3 -2 -8 120.59 13.5
3 -2 -8 109.89 13.5
3 2 -8 104.19 11.2
-3 2 8 99.59 12.5
2 -2 -8 733.93 34.3
2 -2 -8 725.93 33.4
-2 -2 8 675.93 28.8
2 -2 -8 744.83 36
-2 2 8 704.73 34.8
2 2 -8 693.13 27.6
2 2 -8 686.13 33.5
1 -2 -8 822.72 36.8
-1 -2 8 789.92 27
1 -2 -8 771.42 32.9
1 -2 -8 810.12 37.6
-1 2 8 770.52 36
1 2 -8 767.22 36
1 2 -8 796.92 26.1
0 -2 -8 297.97 21.3
0 -2 -8 298.67 18.9
0 2 8 288.47 21.4
0 2 -8 290.57 21.8
0 2 -8 285.97 12
-1 -2 -8 3335.97 75.99
1 2 8 3282.87 87.29
-1 2 -8 3145.59 88.49
2 -2 8 547.95 32.5
-2 -2 -8 604.14 24.9
-2 2 -8 573.84 33.3
2 2 8 569.94 31.6
3 -2 8 1191.18 51.39
-3 -2 -8 1210.48 37.5
3 2 8 1163.88 49.1
-3 2 -8 1242.68 52.49
-4 -2 -8 6.9 3
4 -2 8 -1.1 3.2
-4 2 -8 2 4.3
4 2 8 13.5 5.6
-5 -2 -8 0.9 2.5
-5 2 -8 8.9 5.6
6 -2 8 287.17 12.6
-6 -2 -8 297.97 16.7
6 -2 8 293.67 12.4
-6 2 -8 272.47 26.5
-7 -2 -8 109.79 10.4
7 -2 8 123.59 9.9
-7 2 -8 138.29 19.6
-8 -2 -8 829.92 30.7
-8 2 -8 756.82 49.5
8 2 8 845.02 52.39
9 2 8 534.25 43.1
-9 2 -8 550.64 42.5
9 -3 -8 506.75 39
-9 3 8 515.05 41.5
9 3 -8 447.56 28.2
8 -3 -8 415.86 34.5
-8 3 8 414.36 35.5
8 3 -8 506.85 37.2
8 3 -8 452.45 27.6
7 -3 -8 76.79 17.1
7 3 -8 55.29 10.4
-7 3 8 63.49 14.9
7 3 -8 67.09 15
6 -3 -8 258.37 24.3
6 3 -8 232.78 18.7
-6 3 8 244.18 24.6
6 3 -8 182.78 21.3
5 -3 -8 16.8 6
5 -3 -8 11 6.7
5 3 -8 9.4 3.6
-5 3 8 7.6 5.6
5 3 -8 8.4 4.9
5 3 -8 14.9 7.1
4 -3 -8 51.49 11.7
4 -3 -8 59.09 12.6
4 -3 -8 49.3 11.9
4 3 -8 41 9.9
-4 3 8 31.6 9.8
4 3 -8 35.3 9.1
-4 3 8 44.6 11.4
3 -3 -8 1463.35 66.79
3 -3 -8 1485.95 58.49
3 -3 -8 1358.56 55.99
3 3 -8 1439.76 48.4
-3 3 8 1430.46 57.39
3 3 -8 1359.36 51.79
3 3 -8 1524.75 49.9
-3 3 8 1475.65 56.29
2 -3 -8 201.68 19.9
2 -3 -8 191.58 19.6
2 -3 -8 163.98 16.3
2 3 -8 185.58 16.8
-2 3 8 216.78 20.1
2 3 -8 208.18 18.9
1 -3 -8 2855.61 76.09
1 -3 -8 2728.63 84.49
1 3 -8 2735.13 62.79
-1 3 8 2869.01 84.89
1 3 -8 2733.03 79.39
1 3 -8 2834.92 82.59
0 -3 -8 2266.27 62.69
0 -3 -8 2184.68 73.59
0 3 -8 2251.67 46
0 3 -8 2218.88 72.69
0 3 8 2308.67 74.79
-1 -3 -8 50.99 8.9
-1 -3 -8 39.4 10.4
-1 3 -8 32.9 9.9
1 3 8 36 9.6
2 -3 8 39.3 10.8
-2 -3 -8 8.7 5.3
-2 -3 -8 16.9 5.1
-2 3 -8 31.1 9.5
-3 -3 -8 670.83 22.5
-3 -3 -8 671.83 23.1
-3 3 -8 588.24 46.8
-4 -3 -8 881.51 21.4
-4 -3 -8 852.51 21.3
-4 3 -8 950.5 50.19
-5 3 -8 323.77 29.8
-6 3 -8 455.45 37.8
-8 3 -8 -5.1 9
8 3 8 18.7 8.9
8 -4 -8 -14.8 5.6
8 4 -8 5.3 5.4
-8 4 8 2.4 4.7
7 -4 -8 124.09 22
7 4 -8 133.09 13.7
-7 4 8 154.08 21.5
7 4 -8 112.39 14
7 4 -8 134.49 22.6
6 -4 -8 126.89 21.9
6 4 -8 117.69 13.8
-6 4 8 130.69 23.3
6 4 -8 105.79 13.4
6 4 -8 121.39 20.5
5 -4 -8 471.55 34.8
5 4 -8 447.66 28.2
-5 4 8 480.05 35.8
5 4 -8 497.45 34.3
5 4 -8 469.25 26.1
4 -4 -8 898.81 48.5
4 4 -8 851.31 41.7
4 4 -8 882.71 41.2
-4 4 8 851.21 46.4
4 4 -8 852.41 38.6
3 -4 -8 381.56 30.7
3 4 -8 385.56 25.3
3 4 -8 352.96 25.4
3 4 -8 395.86 27.5
-3 4 8 412.46 30.2
2 -4 -8 565.44 33.3
2 4 -8 609.94 35
2 4 -8 597.74 28.7
-2 4 8 585.94 33.9
2 4 -8 594.24 34.6
1 -4 -8 14.4 5.7
1 4 -8 4.1 5.7
1 4 -8 9 3.7
0 -4 -8 67.89 11.6
0 4 -8 51.89 5.6
0 4 -8 44 15.5
0 4 -8 60.09 13.5
0 4 -8 52.19 5.6
-1 -4 -8 2031 56.39
-1 4 -8 2000.2 74.69
-1 4 -8 1949.6 75.39
-2 -4 -8 9.1 3.8
-2 4 -8 6.7 6.6
-2 4 -8 18.5 7.2
-3 4 -8 210.38 23.9
-3 4 -8 213.48 24.6
-4 4 -8 355.56 32.7
-4 4 -8 348.57 32.2
-5 4 -8 16.1 10
-5 4 -8 39.6 14.2
-6 4 -8 204.68 26.3
-5 5 8 151.88 21.9
5 5 -8 168.48 16.5
5 5 -8 134.19 16.9
5 5 -8 166.18 20.6
4 5 -8 14.7 8.3
4 5 -8 28.2 10.2
-4 5 8 21.2 10.5
4 5 -8 24.3 8.9
3 5 -8 756.32 38.6
-3 5 8 833.02 45.7
3 5 -8 738.03 40.5
3 5 -8 718.93 41.8
2 5 -8 108.99 13.2
2 5 -8 114.29 16.5
2 5 -8 116.89 20.7
1 -5 -8 162.58 17.6
1 5 -8 122.39 17.6
1 5 -8 121.69 12.2
1 5 -8 143.69 19.4
1 5 -8 142.89 13
0 -5 -8 1337.47 49.2
0 5 -8 1349.27 64.39
0 5 -8 1306.07 34
0 5 -8 1260.57 33.7
0 5 -8 1260.17 59.39
-1 -5 -8 140.69 14
-1 5 -8 149.79 20.6
-1 5 -8 165.78 21.1
-2 -5 -8 170.98 10.1
-2 5 -8 157.58 22
-2 5 -8 135.79 24.7
-3 5 -8 42.8 13.5
-3 5 -8 13.8 9.5
-4 5 -8 27.8 11.5
-4 5 -8 33.9 12.5
11 0 -9 -1.1 6.9
10 0 -9 17 7.5
9 0 -9 0.2 2.9
8 0 -9 -1.5 5
7 0 -9 -0.8 4.2
7 0 -9 -3.1 1.2
6 0 -9 -1.6 3.2
6 0 -9 2.6 1.9
6 0 -9 6.3 4.1
-6 0 9 -2.3 2.2
5 0 -9 2.2 2
-5 0 9 -0.2 3.4
5 0 -9 1.2 2
5 0 -9 4.6 3.4
4 0 -9 0.2 2.7
4 0 -9 3.3 2.3
-4 0 9 1.5 2.5
3 0 -9 -0.7 1.7
-3 0 9 2.6 2.7
3 0 -9 4.8 3.2
2 0 -9 0.7 2.2
-2 0 9 3.2 3
1 0 -9 0.4 1.9
0 0 -9 2.1 2.8
0 0 9 1.1 2.7
-1 0 -9 -2.7 1.5
2 0 9 0.2 2.3
-2 0 -9 -1.3 2.1
3 0 9 -2.8 1.7
-3 0 -9 -1.9 1.8
4 0 9 -3.6 2.2
-4 0 -9 0.4 2.9
-5 0 -9 5.6 4.1
5 0 9 0.4 3.1
-6 0 -9 6.8 5.1
6 0 9 3.5 4.2
-7 0 -9 0.2 3.4
7 0 9 4.3 4.5
-8 0 -9 1.8 4.5
8 0 9 -0.9 5.5
9 0 9 -2.8 4.9
-9 0 -9 8.8 6.9
11 -1 -9 10.5 8.4
11 1 -9 27 13.8
10 -1 -9 189.48 23.9
10 1 -9 174.28 28.3
9 -1 -9 99.99 19.5
9 1 -9 69.99 16.4
8 -1 -9 132.49 17.7
8 1 -9 78.89 16
7 -1 -9 118.49 11.2
7 -1 -9 90.99 16.6
7 1 -9 135.49 18
7 1 -9 143.19 16.7
6 -1 -9 29 9.3
-6 -1 9 35.2 9.5
6 -1 -9 39.9 7.8
6 -1 -9 43.8 11
6 1 -9 44.4 12.3
6 1 -9 40.7 10.9
-6 1 9 42.2 10.5
5 -1 -9 923.91 34.5
5 -1 -9 851.01 41.2
-5 -1 9 859.41 40.1
5 -1 -9 874.51 42
5 1 -9 862.41 39.1
-5 1 9 855.81 40.8
5 1 -9 798.22 38.7
4 -1 -9 29.2 8.6
4 -1 -9 32 8.8
-4 -1 9 13.7 5.7
4 -1 -9 18.8 5.7
-4 1 9 23.1 7.1
4 1 -9 18.1 6.2
3 -1 -9 252.57 17.5
3 -1 -9 256.57 19.9
-3 -1 9 267.87 18.5
3 -1 -9 269.17 20.4
-3 1 9 235.98 18.7
3 1 -9 249.68 17.9
2 -1 -9 110.39 12.5
-2 -1 9 112.89 11
2 -1 -9 122.49 12.9
2 1 -9 100.39 10.4
-2 1 9 90.29 11.5
1 -1 -9 199.88 16.9
-1 -1 9 239.28 14.6
1 1 -9 232.28 14.4
-1 1 9 195.38 16.2
0 -1 9 177.98 11.4
0 -1 -9 127.89 13.4
0 1 -9 163.48 11.2
0 1 -9 151.38 15.4
0 1 9 154.08 14.2
1 -1 9 16.6 4
1 1 9 15 5.4
-1 1 -9 22 7
-2 -1 -9 159.38 14.5
2 -1 9 128.89 9.1
2 1 9 161.98 15
-2 1 -9 151.68 16
3 -1 9 255.37 13.6
-3 -1 -9 297.57 19.9
3 1 9 306.07 21.6
-3 1 -9 268.17 22.2
4 -1 9 253.17 14.5
-4 -1 -9 289.47 20.1
4 1 9 312.47 22.6
-4 1 -9 271.47 23.2
-5 -1 -9 429.16 25.7
5 -1 9 481.65 32.4
5 -1 9 558.14 24.1
-5 1 -9 537.75 34
5 1 9 463.35 29.6
-6 -1 -9 631.64 32
6 -1 9 684.93 29.2
6 -1 9 617.34 28.1
-6 1 -9 634.04 47.9
7 -1 9 93.49 11.5
-7 -1 -9 128.19 14.7
-7 1 -9 96.29 18.6
7 1 9 116.89 20.3
-8 -1 -9 2.1 4.3
8 -1 9 9.7 5.8
-8 1 -9 -3.3 5.7
9 -1 9 11.2 7.9
-9 -1 -9 12.9 8.3
-9 1 -9 16.2 9.5
9 1 9 25.1 11.8
-10 2 9 6.6 7.4
10 2 -9 2.2 4.8
9 -2 -9 6.7 8.3
9 2 -9 17.3 9.1
-9 2 9 10.9 7.6
8 -2 -9 340.17 29.6
8 2 -9 334.87 29.6
-8 2 9 366.36 32.2
8 2 -9 311.07 24.6
7 -2 -9 127.89 20.9
7 -2 -9 108.69 13.4
7 2 -9 156.28 16.3
7 2 -9 170.38 19.4
-7 2 9 127.49 22.6
-6 -2 9 190.98 20.3
6 -2 -9 157.28 16.4
6 2 -9 166.58 16.7
-6 2 9 192.28 21
6 2 -9 170.48 18.7
5 -2 -9 53.69 12.5
5 -2 -9 78.49 13.3
-5 -2 9 94.19 18.8
5 -2 -9 52.69 12.4
5 2 -9 83.79 6.9
-5 2 9 63.19 13.8
5 2 -9 107.19 16.7
-5 2 9 55.59 11.9
4 -2 -9 43.4 9.8
-4 -2 9 47.5 10.2
4 -2 -9 30.2 8.7
4 -2 -9 24.1 8.2
4 2 -9 53.29 10.8
-4 2 9 38.9 10
3 -2 -9 677.63 36.4
3 -2 -9 718.93 36.1
3 -2 -9 655.93 33.5
-3 -2 9 680.03 31.3
3 2 -9 694.03 31
-2 -2 9 175.78 13.6
2 -2 -9 200.58 18
2 -2 -9 224.78 18.5
2 -2 -9 180.38 17.8
2 2 -9 185.38 13.8
-2 2 9 202.68 18.8
2 2 -9 189.28 17.8
1 -2 -9 1713.13 58.29
-1 -2 9 1750.62 45.4
1 -2 -9 1726.33 54.79
1 -2 -9 1699.73 59.79
1 2 -9 1779.12 60.49
-1 2 9 1690.03 58.59
1 2 -9 1703.43 44.4
0 -2 -9 2080.99 60.29
0 -2 9 2137.49 47
0 2 -9 2193.38 69.69
0 2 -9 2175.28 46.5
0 2 9 2098.49 67.09
-1 -2 -9 30.1 7
-1 2 -9 44.6 11
1 2 9 24.5 7.2
-2 2 -9 170.28 18.3
2 2 9 123.09 15
-3 -2 -9 71.49 9.1
3 -2 9 81.29 15.2
-3 2 -9 79.89 15.5
3 2 9 75.99 13.6
-4 -2 -9 14.7 4.7
4 2 9 10.9 6.4
-4 2 -9 22.8 7.8
-5 -2 -9 6.7 4.2
-5 2 -9 10.8 6.3
6 -2 9 36.3 3.7
-6 -2 -9 44.4 8
6 -2 9 49.9 4.3
-6 2 -9 40.2 11.6
7 -2 9 96.79 8.5
7 -2 9 77.59 7.6
-7 2 -9 103.29 21.8
-8 -2 -9 59.69 10.2
8 -2 9 31.4 7.1
8 2 9 50.99 15
-8 2 -9 56.89 15.9
9 -3 -9 0 7.4
9 3 -9 3.7 6.9
-9 3 9 -2.8 5.9
9 3 -9 -5.3 6.9
8 -3 -9 5.8 8
8 3 -9 -0.5 5.1
-8 3 9 9.9 8.4
8 3 -9 1.4 5.3
7 -3 -9 0.9 6.3
7 3 -9 2.6 4.8
-7 3 9 5.8 5.7
7 3 -9 15.1 7.4
6 -3 -9 22 9.4
-6 3 9 19.5 7.9
6 3 -9 12.2 6.2
5 -3 -9 13.3 7.2
-5 3 9 23.7 8.7
5 3 -9 18.1 6.8
5 3 -9 20 7.5
5 3 -9 6.4 4.1
4 -3 -9 43.7 14.4
4 -3 -9 35 12.2
4 3 -9 47.5 10.8
4 3 -9 37.5 10.2
4 3 -9 47 9
-4 3 9 45.5 11.4
3 -3 -9 176.68 18.4
3 -3 -9 168.48 18.9
3 -3 -9 161.98 18.4
3 3 -9 235.68 20.9
3 3 -9 231.98 17.8
3 3 -9 214.88 17.5
2 -3 -9 548.35 34.1
2 -3 -9 571.04 35.3
2 -3 -9 597.94 32.9
2 3 -9 563.44 33.1
-2 3 9 538.35 35.4
2 3 -9 589.74 31.4
1 -3 -9 253.07 22.6
1 -3 -9 216.08 18.6
1 3 -9 265.57 23.1
-1 3 9 240.28 22.2
1 3 -9 286.37 15.2
0 -3 -9 808.22 50.79
0 -3 -9 803.82 34.6
0 3 -9 821.72 21.1
0 3 -9 835.02 43
0 3 9 778.22 49.5
-1 -3 -9 2021 57.09
-1 3 -9 1994.8 71.89
-2 -3 -9 30.2 7.1
-2 3 -9 24.1 14.5
-3 -3 -9 1184.48 35.9
-3 -3 -9 1181.38 35.2
-3 3 -9 1133.89 55.29
-4 -3 -9 153.88 9.7
-4 -3 -9 148.19 9.4
-4 3 -9 125.89 18
-5 3 -9 12.7 6.5
-6 3 -9 228.48 27.7
-7 3 -9 19.5 10.4
8 4 -9 29.3 8.3
-8 4 9 21.8 9.4
8 4 -9 9.4 9.4
7 -4 -9 9.5 7
7 4 -9 -8 4
7 4 -9 -8.4 5.8
7 4 -9 4.1 5
6 -4 -9 344.07 30.9
6 4 -9 322.97 28.4
-6 4 9 348.87 32.3
6 4 -9 329.07 24.3
6 4 -9 322.47 24.4
5 -4 -9 31.7 11.8
-5 4 9 39 11.4
5 4 -9 8.3 5.6
5 4 -9 9.4 5.9
5 4 -9 14.3 7.5
4 -4 -9 7.7 6.3
-4 4 9 -2.1 4.5
4 4 -9 8.7 5
4 4 -9 2.7 3.9
4 4 -9 2.9 4.6
3 -4 -9 167.48 20.6
3 4 -9 139.19 16.2
3 4 -9 159.98 15.6
3 4 -9 145.59 17.6
2 -4 -9 574.54 34.6
2 4 -9 594.74 28.2
2 4 -9 581.54 35.3
2 4 -9 600.54 36.2
1 -4 -9 172.88 17.1
1 4 -9 172.78 12.4
1 4 -9 178.88 19.7
1 4 -9 163.88 20.3
0 -4 -9 54.49 11.4
0 4 -9 61.89 14.4
0 4 -9 54.39 4.4
0 4 -9 84.99 16.7
0 4 -9 53.39 4.1
-1 -4 -9 424.66 23.6
-1 4 -9 500.75 35.4
-1 4 -9 474.85 35.5
-2 4 -9 1 6.2
-3 -4 -9 6.8 2.4
-3 -4 -9 9.6 2.5
-3 4 -9 8.9 6.1
-4 4 -9 13.5 7.7
-4 4 -9 9.9 6.3
-5 4 -9 57.09 19.9
-5 4 -9 53.49 15.9
-6 4 -9 138.09 27.1
-6 4 -9 133.39 26.3
5 5 -9 2.2 4.8
5 5 -9 0.8 5.3
5 5 -9 -3.2 6.3
-5 5 9 -0.6 6.3
-4 5 9 14.3 7.4
4 5 -9 -1.3 4.5
4 5 -9 -0.8 4.9
3 5 -9 67.99 15
3 5 -9 58.99 12.4
3 5 -9 44 12.7
2 5 -9 2.2 6.5
2 5 -9 0.1 4.7
2 5 -9 -4.5 5.3
1 -5 -9 -1 7.6
1 5 -9 7.3 5.9
1 5 -9 3 5.4
1 5 -9 -1.2 5.3
1 5 -9 -1.7 3.7
0 -5 -9 194.58 18.9
0 5 -9 241.18 26.8
0 5 -9 196.38 23.6
-1 -5 -9 129.19 13.7
-1 5 -9 117.99 22.4
-1 5 -9 124.49 22.3
-2 -5 -9 0.3 3.8
-2 5 -9 6.7 8.5
-3 5 -9 34.9 11.7
-3 5 -9 55.09 15.4
9 0 -10 59.49 15.1
8 0 -10 945.21 50.59
7 0 -10 123.39 20.8
-6 0 10 765.92 40.4
6 0 -10 770.52 40.7
6 0 -10 763.72 40
6 0 -10 764.62 25.4
5 0 -10 2543.85 78.29
5 0 -10 2723.03 61.59
5 0 -10 2607.44 79.09
-5 0 10 2504.35 77.49
-4 0 10 155.58 15.5
4 0 -10 148.49 15.6
4 0 -10 158.08 16
-3 0 10 30.5 8
3 0 -10 38.9 9.2
2 0 -10 6642.04 135.89
-2 0 10 6298.27 133.59
-1 0 10 467.05 23.9
1 0 -10 398.76 22.7
0 0 -10 338.87 21.1
0 0 10 330.27 19.9
-1 0 -10 1312.47 49.1
1 0 10 1253.57 41.5
-2 0 -10 2718.93 78.19
2 0 10 2746.33 69.39
3 0 10 7416.36 148.19
-3 0 -10 7447.15 160.28
4 0 10 451.05 25
-4 0 -10 483.45 30
-5 0 -10 16.1 7.8
5 0 10 18.5 6.2
-6 0 -10 1284.07 54.69
6 0 10 1328.97 50.69
6 0 10 1281.47 51.49
7 0 10 7.8 6.4
-7 0 -10 15.2 7.9
-8 0 -10 673.03 40.9
8 0 10 784.72 50.29
9 0 10 104.99 18.1
-9 0 -10 103.39 18.1
10 1 -10 92.99 20.7
9 -1 -10 95.89 20.2
9 1 -10 85.29 18.6
8 -1 -10 30 10.6
8 1 -10 35.5 11.4
7 -1 -10 2615.04 89.39
7 -1 -10 2722.73 69.29
7 1 -10 2808.72 89.79
7 1 -10 2914.41 89.19
6 -1 -10 1113.79 39.3
6 -1 -10 1083.19 50.89
-6 -1 10 1011.4 47.9
6 1 -10 1041.4 47
6 1 -10 1061.19 48.5
5 -1 -10 97.59 14.1
5 -1 -10 99.99 11.3
-5 -1 10 86.99 17.2
5 -1 -10 122.39 15.5
-5 1 10 133.29 15.7
5 1 -10 123.89 14.9
4 -1 -10 3187.38 79.49
-4 -1 10 3173.48 84.99
4 -1 -10 3093.59 88.29
4 1 -10 3272.97 85.49
3 -1 -10 17.6 6.1
-3 -1 10 18.5 6
3 -1 -10 17.2 5.8
3 -1 -10 17.7 6.2
3 1 -10 22 6.6
-3 1 10 24.2 6.7
2 -1 -10 2181.88 66.29
-2 -1 10 2151.08 58.59
2 -1 -10 2117.79 65.29
2 1 -10 2121.09 58.69
-2 1 10 2053.79 64.39
-1 -1 10 3346.47 75.89
1 -1 -10 3375.26 87.19
1 1 -10 3338.07 76.19
-1 1 10 3265.37 85.99
0 -1 -10 79.79 13.2
0 -1 10 60.79 7.4
0 1 10 78.99 10.4
0 1 -10 64.59 7.5
0 1 -10 62.29 12.3
1 -1 10 1645.24 42.6
-1 1 -10 1730.03 60.59
1 1 10 1664.23 55.09
2 -1 10 547.55 21
-2 -1 -10 541.05 28.7
-2 1 -10 473.05 30.5
2 1 10 554.14 29.7
-3 -1 -10 154.48 15.5
3 -1 10 139.89 10.5
-3 1 -10 135.19 16.7
3 1 10 156.58 15.7
-4 -1 -10 76.49 11.1
4 -1 10 70.39 7.9
-4 1 -10 81.09 15.6
4 1 10 78.69 16.6
5 -1 10 86.29 9.5
-5 -1 -10 77.09 10.8
5 -1 10 68.99 8.6
-5 1 -10 73.99 15.4
5 1 10 66.29 13.2
-6 -1 -10 468.35 28.7
6 -1 10 472.05 24.5
6 -1 10 463.55 24.2
-6 1 -10 500.35 35.1
7 -1 10 68.89 12.4
7 -1 10 62.99 11
-7 -1 -10 65.19 12.8
-7 1 -10 84.29 18
8 -1 10 73.99 12.8
8 -1 10 75.29 13.2
-8 -1 -10 75.39 14.2
8 1 10 48.3 13.6
-8 1 -10 84.59 18.4
10 -2 -10 128.59 24.6
10 2 -10 173.98 28.7
9 -2 -10 12.8 8.6
9 2 -10 1.7 6.2
8 -2 -10 743.53 46.3
8 2 -10 713.33 44.8
7 -2 -10 3.9 4.9
7 -2 -10 19.3 6.1
7 2 -10 16.3 8.6
7 2 -10 -3.3 5.7
6 -2 -10 519.65 30.1
6 -2 -10 501.55 34.4
6 2 -10 442.06 29.3
6 2 -10 449.76 31.1
5 -2 -10 278.27 24.8
5 -2 -10 277.87 21.5
-5 -2 10 255.57 22.2
5 2 -10 287.17 14.4
5 2 -10 291.47 23
-4 -2 10 644.14 33
4 -2 -10 607.14 32.7
4 -2 -10 615.64 36.4
4 -2 -10 564.44 34.4
-4 2 10 569.34 34.3
4 2 -10 628.54 32.2
3 -2 -10 1882.11 66.69
3 -2 -10 1820.12 61.89
-3 -2 10 1913.41 57.99
-3 2 10 1886.91 65.69
3 2 -10 1827.42 56.09
2 -2 -10 44.6 10
2 -2 -10 49.7 11.2
-2 -2 10 53.49 8.9
2 -2 -10 31.9 8.2
2 2 -10 30.1 11.8
-2 2 10 48.9 11.4
2 2 -10 44.7 11.1
1 -2 -10 -2.3 3.2
-1 -2 10 -2 2
1 -2 -10 -2 2.2
1 -2 -10 4 3.5
-1 2 10 2.1 3.5
1 2 -10 1.1 2.6
1 2 -10 3.8 2.6
0 -2 -10 376.56 23
0 -2 10 379.56 15.9
0 2 -10 400.96 28.2
0 2 10 358.96 25.6
0 2 -10 388.26 15.9
-1 -2 -10 760.32 33.2
1 2 10 764.52 38.7
-1 2 -10 764.72 40.6
-2 2 -10 2012.1 72.59
2 2 10 2084.09 69.79
-3 -2 -10 1214.58 42.8
-3 2 -10 1246.68 55.99
3 2 10 1167.48 51.39
-4 -2 -10 39 8.3
-4 2 -10 28.1 9.6
-5 -2 -10 2423.06 64.09
-5 2 -10 2240.48 84.49
-6 2 -10 21.5 9.9
7 -2 10 151.88 8.5
7 -2 10 140.09 7.9
-7 -2 -10 146.29 13.7
-7 2 -10 140.69 24.4
8 -2 10 165.58 11.3
-8 -2 -10 162.18 14.5
8 2 10 142.69 24.4
-8 2 -10 183.88 25
9 -3 -10 126.09 23.2
9 3 -10 131.29 23.7
-9 3 10 116.19 22.1
8 -3 -10 22.8 12
-8 3 10 30.5 10.9
8 3 -10 24.5 10.4
7 -3 -10 110.49 21
-7 3 10 126.39 22.6
7 3 -10 129.19 17.2
7 3 -10 83.49 17.2
6 -3 -10 2622.34 92.39
6 3 -10 2793.22 58.39
6 3 -10 2804.82 89.39
-6 3 10 2928.71 98.19
5 -3 -10 305.67 27.3
5 3 -10 316.47 18.3
5 3 -10 314.77 24.8
5 3 -10 312.97 25.3
4 -3 -10 44.8 11.9
4 3 -10 66.89 11.2
4 3 -10 74.69 13.8
4 3 -10 80.39 15.2
3 -3 -10 0.6 3.5
3 -3 -10 -2.5 3.3
3 3 -10 6.7 4.6
3 3 -10 0.1 3.3
3 3 -10 0.5 4
2 -3 -10 67.19 12.8
2 3 -10 81.19 15.7
2 3 -10 66.89 8.8
1 -3 -10 345.37 24
1 3 -10 370.36 28.4
1 3 -10 377.66 17.7
0 -3 -10 82.69 11.7
0 3 -10 102.79 5.8
0 3 -10 97.09 17.8
-1 -3 -10 2295.17 64.69
-2 -3 -10 -5.9 3
-2 3 -10 0.5 4.7
-3 -3 -10 151.68 12.7
-3 -3 -10 188.98 14
-3 3 -10 128.09 18.3
-4 -3 -10 560.04 22
-4 -3 -10 535.65 21.9
-4 3 -10 471.55 37.3
-5 -3 -10 4.9 3
-5 -3 -10 4.5 2.7
-6 3 -10 384.36 35.5
-7 3 -10 611.84 47.5
7 -4 -10 130.29 22.9
-7 4 10 100.29 21.3
7 4 -10 134.29 17.4
7 4 -10 106.59 21.3
6 -4 -10 96.49 19.7
6 4 -10 99.69 10.9
6 4 -10 71.99 15.8
6 4 -10 87.99 16.6
-6 4 10 72.99 16.4
5 -4 -10 658.13 44.1
-5 4 10 619.64 42.6
5 4 -10 663.33 38.6
5 4 -10 602.84 36.6
5 4 -10 651.83 31.7
4 -4 -10 55.59 14.6
4 4 -10 66.79 12.9
4 4 -10 89.09 16.2
4 4 -10 50.49 11
3 -4 -10 476.75 36.2
3 4 -10 434.16 26.4
3 4 -10 430.26 29.2
3 4 -10 425.76 32.6
2 -4 -10 411.16 31.4
2 4 -10 409.16 29.8
2 4 -10 403.86 22.8
2 4 -10 412.86 31.2
1 -4 -10 56.19 12.1
1 4 -10 55.69 7.1
1 4 -10 59.09 13.7
1 4 -10 67.29 15.8
0 -4 -10 166.38 16.6
0 4 -10 200.28 21.9
0 4 -10 170.78 21.1
-1 -4 -10 102.19 12.6
-1 4 -10 118.89 21.6
-1 4 -10 106.29 19.9
-2 -4 -10 348.97 19.6
-2 4 -10 312.67 29.9
-2 4 -10 296.77 29.5
-3 -4 -10 849.32 25.8
-3 -4 -10 831.62 25.7
-3 4 -10 896.91 52.79
-3 4 -10 901.61 53.79
-4 4 -10 -4.1 5.8
-4 4 -10 4.6 6.7
-5 4 -10 188.98 25.3
-5 4 -10 191.38 26.2
4 5 -10 -3.8 7
4 5 -10 1.7 6.5
4 5 -10 18.8 7
3 5 -10 -5.7 7.1
3 5 -10 10.6 5.8
3 5 -10 -11.2 4.5
2 5 -10 8.7 5.8
2 5 -10 17.3 8
2 5 -10 12.9 7.2
1 5 -10 125.19 9.9
1 5 -10 131.19 22.7
1 5 -10 122.99 17.8
1 5 -10 141.29 10.9
0 -5 -10 156.68 20.8
0 5 -10 143.49 20.7
0 5 -10 133.89 24.2
-1 -5 -10 72.69 18
-1 5 -10 88.19 18.1
-1 5 -10 89.49 23.6
-2 5 -10 87.99 19
-2 5 -10 60.09 17.7
10 0 -11 2.6 4.8
9 0 -11 10.4 7.2
8 0 -11 0.2 4.4
7 0 -11 2.9 2
7 0 -11 1 5
6 0 -11 0.7 2.4
6 0 -11 4.3 4.6
5 0 -11 7.8 4
-5 0 11 0.9 3.3
5 0 -11 1.3 2.5
5 0 -11 -0.1 2.8
-4 0 11 7.9 4.3
4 0 -11 5.4 4.4
3 0 -11 6.2 4.7
-3 0 11 4.1 3.4
-2 0 11 -1.6 2.8
2 0 -11 0.1 2.5
1 0 -11 -0.4 2.4
-1 0 11 -0.2 3.1
0 0 11 -3.1 3.2
0 0 -11 5.4 3.1
1 0 11 -2 2.2
-1 0 -11 1.7 3
-2 0 -11 0.4 2.9
2 0 11 1.5 2.9
3 0 11 0.5 3.4
-3 0 -11 0.5 3.8
-4 0 -11 7.9 5.2
4 0 11 -5.9 2.3
5 0 11 -3.7 3.8
-5 0 -11 6.2 5.4
-6 0 -11 -4.2 5
7 0 11 -0.9 7
7 0 11 -4.7 5
-7 0 -11 7.1 5.5
8 0 11 5.1 5.8
-8 0 -11 -4.4 5.7
10 -1 -11 25.9 10.8
10 1 -11 53.89 17
9 -1 -11 28.1 11.2
9 1 -11 31.5 10.6
8 -1 -11 293.57 28.7
8 1 -11 249.08 25.7
7 -1 -11 646.34 41.6
7 -1 -11 669.83 29.9
7 1 -11 723.73 42.2
6 -1 -11 45.9 9
6 -1 -11 21.8 8.6
6 1 -11 26.6 8.8
6 1 -11 36.6 9.7
6 1 -11 45.3 4.7
5 -1 -11 0.4 3.6
5 -1 -11 -4 4.2
5 -1 -11 4.6 3.5
-5 -1 11 5.2 4.5
5 1 -11 -4.3 4.6
-5 1 11 6.8 4.9
5 1 -11 6.3 5.2
4 -1 -11 20.3 8.1
-4 -1 11 28.4 7.9
4 -1 -11 21.2 7.7
4 -1 -11 20 6.9
-4 1 11 36 9.4
4 1 -11 18.2 6.5
3 -1 -11 373.86 26.4
-3 -1 11 363.96 23.2
-3 1 11 397.16 41.8
3 1 -11 377.86 23.8
2 -1 -11 25.3 8
-2 -1 11 13.8 4.7
2 -1 -11 16.4 6.5
-2 1 11 26.3 7.6
2 1 -11 8.5 4.3
-1 -1 11 18.7 5.4
1 -1 -11 41.1 9.9
1 1 -11 23.7 7
-1 1 11 40.6 9.6
0 -1 -11 8.7 4.7
0 1 -11 3.5 2.9
0 1 -11 -1.6 2.9
0 1 11 -2.4 2.7
1 -1 11 82.09 8.5
1 1 11 84.59 13.8
-1 1 -11 74.99 14.6
2 -1 11 96.39 9
-2 -1 -11 101.29 12.9
-2 1 -11 108.09 14.6
2 1 11 80.79 13.8
-3 -1 -11 476.85 28.5
3 -1 11 503.65 21.6
3 1 11 446.06 28.3
-3 1 -11 514.65 34
4 -1 11 97.79 9.9
-4 -1 -11 92.19 13.1
-4 1 -11 63.29 14.5
4 1 11 95.09 16
5 -1 11 257.17 16.6
-5 -1 -11 261.37 21.7
5 -1 11 242.78 16.8
5 1 11 241.48 21.9
-5 1 -11 253.77 24.8
-6 -1 -11 15.3 8.2
6 -1 11 29 6.4
6 -1 11 26.9 7.4
-6 1 -11 30 10.9
7 -1 11 300.87 21.3
-7 -1 -11 322.67 24.8
7 -1 11 306.57 21
-7 1 -11 312.37 29.3
8 -1 11 13 7.9
-8 -1 -11 11.3 7.6
8 1 11 35.1 11.3
-8 1 -11 22.9 10.6
10 -2 -11 255.77 30.2
10 2 -11 261.37 30.6
9 -2 -11 31.8 12.7
9 2 -11 6.8 7.9
8 -2 -11 130.29 23.5
8 2 -11 104.89 20.6
7 -2 -11 33.3 8.1
7 -2 -11 53.39 13.4
7 2 -11 36.4 11.3
6 -2 -11 253.37 25.1
6 -2 -11 240.88 24
6 2 -11 231.68 25.8
6 2 -11 196.08 8.1
5 -2 -11 -3.7 5.2
-5 -2 11 4.2 4.7
5 -2 -11 4.1 5.2
5 2 -11 0.5 3.7
5 2 -11 5.2 3
4 -2 -11 515.25 34.1
4 -2 -11 512.45 32.3
4 -2 -11 586.54 43
-4 -2 11 504.05 29.6
4 2 -11 525.05 29.8
3 -2 -11 8.1 5
3 -2 -11 9.1 5.5
3 -2 -11 5.3 3.9
-3 -2 11 15.6 5
-3 2 11 2.6 4
3 2 -11 15.4 5.7
2 -2 -11 38.9 10
-2 -2 11 27.9 7.5
2 -2 -11 26.9 9.3
2 2 -11 23.5 6.4
2 2 -11 27.6 9.1
-2 2 11 29.8 8.3
1 -2 -11 161.78 16.4
-1 -2 11 179.58 13.7
1 -2 -11 169.28 17.6
1 -2 -11 164.98 18.4
1 2 -11 190.28 13.2
-1 2 11 153.58 16.6
1 2 -11 210.38 20.8
0 -2 -11 15.3 5.4
0 -2 11 13.1 3.8
0 2 11 34.8 9.2
0 2 -11 11.4 6.1
0 2 -11 17 4.3
-1 -2 -11 -0.3 3.1
1 -2 11 5.3 2
-1 2 -11 7.3 5.5
2 2 11 41.1 9.7
-2 2 -11 44.3 12.6
-3 -2 -11 1278.47 47.1
-3 2 -11 1431.26 62.09
-4 -2 -11 715.23 33.3
-4 2 -11 757.82 45.4
-5 -2 -11 22.5 6.7
-5 2 -11 2.4 6.2
-6 -2 -11 196.98 16.7
-6 2 -11 206.48 24.5
-7 -2 -11 44.4 10.3
-7 2 -11 50.49 15.8
8 -3 -11 21.4 11.8
8 3 -11 8.8 8.8
7 -3 -11 76.49 17.4
7 3 -11 101.89 19.1
6 -3 -11 29 11.3
6 3 -11 33.7 10.7
6 3 -11 25.4 5.2
5 -3 -11 72.39 16
5 3 -11 54.59 13.1
5 3 -11 76.69 14.4
4 -3 -11 -1.3 3.8
4 3 -11 -4.3 5
4 3 -11 3.2 2.9
4 3 -11 -2.3 3.3
3 -3 -11 12.8 6.8
3 3 -11 7.9 4
3 3 -11 15 6.9
3 3 -11 7.7 5.1
2 -3 -11 363.06 27
2 -3 -11 369.56 29.8
2 3 -11 305.97 26.1
2 3 -11 285.97 18.1
1 3 -11 240.68 14.3
1 3 -11 234.38 24.2
0 -3 -11 8.2 5.1
0 3 -11 5.1 1.5
0 3 -11 -0.4 3.7
-1 -3 -11 102.99 12.5
-1 3 -11 102.99 18.7
-2 -3 -11 513.95 26.4
-2 3 -11 482.25 36.1
-3 -3 -11 -0.3 3.4
-3 -3 -11 -3.4 3.3
-3 3 -11 -1.3 3.4
-4 -3 -11 55.19 9
-4 -3 -11 67.99 9
-4 3 -11 90.89 19.8
-5 -3 -11 0.5 3.7
-5 -3 -11 2.8 3.1
-5 3 -11 0 6.4
-6 -3 -11 122.29 7
-6 -3 -11 130.69 7.4
-6 3 -11 170.28 22.8
7 -4 -11 12.1 9.5
7 4 -11 33.2 9.8
7 4 -11 24.5 8.5
6 -4 -11 -3.9 8.2
6 4 -11 9 4.6
6 4 -11 -0.4 6
6 4 -11 3.3 6.8
5 -4 -11 162.48 22.1
5 4 -11 156.58 18.6
5 4 -11 162.38 16.8
5 4 -11 182.38 20.1
4 -4 -11 105.49 21.5
4 4 -11 94.49 17.2
4 4 -11 90.99 15.6
4 4 -11 73.29 13.2
3 -4 -11 18.8 11.9
3 4 -11 54.59 11.3
3 4 -11 35 11.3
3 4 -11 47.6 11.6
2 4 -11 3.8 3.6
2 4 -11 2.8 5.7
1 -4 -11 150.08 17.1
1 4 -11 127.49 9.7
1 4 -11 139.69 19.8
1 4 -11 130.89 17.6
0 -4 -11 304.47 24.1
0 4 -11 341.57 30
0 4 -11 304.37 29.4
-1 -4 -11 75.39 12.9
-1 4 -11 68.39 15.3
-1 4 -11 102.09 20.2
-2 -4 -11 808.02 33.2
-2 4 -11 892.11 52.69
-2 4 -11 909.21 53.29
-3 -4 -11 0.2 3.7
-3 -4 -11 1.2 3.8
-3 4 -11 12.6 6.8
-3 4 -11 10.6 6.2
-4 4 -11 301.97 30.9
-4 4 -11 248.18 28.6
-5 4 -11 312.67 32.7
-5 4 -11 252.37 29.3
3 5 -11 271.37 21.5
3 5 -11 251.77 25.2
3 5 -11 236.18 25.6
2 5 -11 18.1 10.2
2 5 -11 29.8 11.3
2 5 -11 16.6 6
1 5 -11 259.87 27.6
1 5 -11 240.28 26.4
0 5 -11 6.8 8.2
-1 5 -11 -0.3 6.7
-1 5 -11 -13.8 5.5
10 0 -12 49.8 15.2
9 0 -12 308.17 30.4
8 0 -12 245.68 26.5
7 0 -12 24.3 9.5
6 0 -12 299.27 26.5
6 0 -12 303.47 26.2
-5 0 12 902.41 44.2
5 0 -12 898.31 33.9
5 0 -12 984.8 46.7
4 0 -12 987.6 46.7
4 0 -12 1087.19 47
-4 0 12 1005 45
3 0 -12 3.5 4.7
-3 0 12 -0.6 4.2
2 0 -12 2347.97 70.09
-2 0 12 2332.97 68.89
-1 0 12 1079.19 41.7
1 0 -12 1041.7 41.8
0 0 -12 129.69 13.7
0 0 12 125.59 13.3
-1 0 -12 657.43 36.8
1 0 12 714.73 32.4
-2 0 -12 465.95 30.9
2 0 12 469.35 25.9
-3 0 -12 385.66 28.3
3 0 12 350.86 22.7
-4 0 -12 162.68 19.1
4 0 12 158.88 15.4
5 0 12 1724.13 59.19
-5 0 -12 1892.61 72.69
6 0 12 1331.97 52.29
-6 0 -12 1261.97 57.79
7 0 12 42.5 10.8
-7 0 -12 25.9 9.1
-8 0 -12 52.69 14.7
8 0 12 55.89 13.5
10 -1 -12 355.16 35.5
10 1 -12 361.86 34.3
9 -1 -12 36.2 12.7
9 1 -12 23.3 10.2
8 -1 -12 453.15 37.1
8 1 -12 488.45 36.5
7 -1 -12 362.36 31.1
7 -1 -12 365.96 22.6
7 1 -12 396.96 31.5
6 -1 -12 -3.2 4.6
6 -1 -12 1.5 4.1
6 1 -12 3.3 2.2
6 1 -12 1.3 4
5 -1 -12 732.83 33.4
-5 -1 12 669.23 37.3
5 1 -12 643.34 36.5
4 -1 -12 684.23 38.4
-4 -1 12 677.43 41.8
4 -1 -12 711.23 39.9
4 -1 -12 698.73 33.6
-4 1 12 671.63 37.5
4 1 -12 681.13 35.8
-3 -1 12 1818.02 59.59
3 -1 -12 1967 67.59
3 -1 -12 1913.81 66.29
3 1 -12 1844.42 60.29
-3 1 12 1950.1 66.09
2 -1 -12 70.19 13.4
2 -1 -12 71.29 13.6
-2 -1 12 42.7 8.8
-2 1 12 63.39 12.9
2 1 -12 39 8.9
1 -1 -12 5.8 4.9
-1 -1 12 -1.8 2.7
-1 1 12 -1.7 3.6
1 1 -12 5.4 3.4
0 -1 12 2588.74 64.99
0 -1 -12 2694.83 79.19
0 1 -12 2597.94 65.79
0 1 -12 2595.34 83.29
0 1 12 2506.65 75.79
1 -1 12 1219.58 39
-1 1 -12 1320.67 55.69
1 1 12 1169.98 47.9
-2 -1 -12 714.93 37.2
2 -1 12 681.63 27.3
-2 1 -12 678.13 39.4
-3 -1 -12 336.77 24.9
3 -1 12 360.56 27.3
-3 1 -12 347.07 30
3 1 12 320.67 24.5
4 -1 12 553.64 24.6
-4 -1 -12 547.45 32.6
-4 1 -12 511.35 35.7
4 1 12 543.05 33.1
-5 -1 -12 1061.29 47.3
-5 1 -12 993.1 52.89
6 -1 12 282.27 19.4
-6 -1 -12 297.47 24.3
6 -1 12 313.67 20.2
-6 1 -12 298.67 29.2
7 -1 12 238.88 19.8
7 -1 12 219.88 18.6
-7 -1 -12 257.57 23.6
-7 1 -12 235.88 26.7
9 2 -12 597.44 45.9
8 -2 -12 514.45 31.5
8 -2 -12 554.04 41.3
8 2 -12 538.95 39
7 -2 -12 22.2 7.8
7 -2 -12 18.4 8.9
7 2 -12 32.6 10.8
6 -2 -12 424.36 28.3
6 -2 -12 409.96 33
6 2 -12 444.56 31.4
6 2 -12 406.16 15.6
-5 -2 12 769.12 40.4
5 -2 -12 702.83 42.9
5 -2 -12 705.93 37.9
5 2 -12 819.42 41.2
4 -2 -12 1275.67 56.89
4 -2 -12 1246.58 51.49
-4 -2 12 1119.39 55.59
4 2 -12 1135.29 47
3 -2 -12 193.28 25.5
3 -2 -12 195.78 19.4
-3 -2 12 206.58 18.1
3 -2 -12 221.48 21.2
3 2 -12 217.38 18.2
-2 -2 12 38.2 7.9
2 -2 -12 38.7 9.9
2 -2 -12 22.5 7.7
2 -2 -12 21.9 8.2
2 2 -12 28.6 7.2
2 2 -12 27.8 9.5
-1 -2 12 3066.39 72.09
1 -2 -12 2952.6 91.59
1 -2 -12 2855.41 86.29
1 2 -12 3059.59 94.19
1 2 -12 3037.1 70.99
0 -2 12 165.08 11.7
0 -2 -12 150.88 15.5
0 2 -12 151.68 18.7
0 2 -12 162.08 11.2
-1 -2 -12 576.54 31.4
1 -2 12 591.84 18.7
-1 2 -12 512.75 44
-2 2 -12 263.07 25.9
-3 -2 -12 92.49 12.5
-3 2 -12 119.49 21.1
-4 -2 -12 1214.58 47.2
-4 2 -12 1284.07 62.29
-5 -2 -12 99.59 12.6
-5 2 -12 69.89 17.5
-6 -2 -12 6.2 5
-7 -2 -12 445.36 26.6
-7 2 -12 412.96 37.1
8 -3 -12 367.46 36.1
8 3 -12 416.16 35.1
7 -3 -12 41.7 13.9
7 3 -12 41.7 12
6 -3 -12 4.3 5.4
6 3 -12 8 7.1
6 3 -12 8.5 5.9
6 3 -12 3.1 3.5
5 -3 -12 939.11 52.49
5 3 -12 889.61 35.5
5 3 -12 979.7 50.49
5 3 -12 949.51 45.7
4 -3 -12 0.8 4.6
4 3 -12 1.6 4.8
4 3 -12 6.2 4.4
3 -3 -12 38.5 11.2
3 3 -12 48 10.3
3 3 -12 51.09 13.2
2 -3 -12 1784.02 78.79
2 -3 -12 1819.52 73.79
2 3 -12 1833.72 53.29
2 3 -12 1823.72 71.69
1 -3 -12 932.41 44.7
1 3 -12 1016.5 52.09
1 3 -12 1028 32
0 3 -12 240.58 25
-1 -3 -12 474.05 28.2
-1 3 -12 487.15 36.6
-2 -3 -12 72.99 10.6
-2 3 -12 64.29 16.1
-3 -3 -12 427.26 24.8
-3 -3 -12 422.86 24.1
-3 3 -12 462.35 37.6
-4 -3 -12 156.28 14.1
-4 -3 -12 146.69 13.7
-4 3 -12 121.89 23.5
-5 -3 -12 312.97 20.8
-5 -3 -12 347.37 19.9
-5 3 -12 309.57 40.8
-6 -3 -12 33.2 7.7
-6 3 -12 40.8 14
6 -4 -12 183.58 25.1
6 4 -12 190.98 21.6
6 4 -12 155.28 13.9
6 4 -12 155.98 19.7
5 -4 -12 127.99 23.7
5 4 -12 155.58 18.6
5 4 -12 145.99 19.6
5 4 -12 126.99 15
4 -4 -12 343.37 33.2
4 4 -12 313.57 24.2
4 4 -12 303.37 27.2
4 4 -12 283.27 23.5
3 -4 -12 668.43 46.3
3 4 -12 637.84 42.2
3 4 -12 619.94 31.5
3 4 -12 675.33 38.7
2 4 -12 39.3 13.3
2 4 -12 55.79 9.6
2 4 -12 46.3 12.7
1 4 -12 326.07 14.1
1 4 -12 322.37 28.6
1 4 -12 318.77 29.6
0 -4 -12 133.79 16.7
0 4 -12 153.78 20.8
0 4 -12 149.39 20.2
-1 -4 -12 227.08 19.3
-1 4 -12 251.77 28.1
-1 4 -12 247.58 27
-2 -4 -12 2.4 5.3
-2 4 -12 -9.4 5.9
-2 4 -12 2 5.2
-3 -4 -12 57.49 11
-3 4 -12 66.79 16.8
-4 4 -12 309.87 32.6
10 0 -13 3 4.9
8 0 -13 5.9 6.1
7 0 -13 4.6 5.6
7 0 -13 -0.3 3.1
6 0 -13 11.1 3.9
6 0 -13 3.2 4.1
5 0 -13 -7.3 3.9
5 0 -13 0.6 3.4
-4 0 13 6.1 4.6
4 0 -13 1.7 4.1
3 0 -13 0.1 3.1
-3 0 13 -4.4 4
2 0 -13 -2.8 3.1
-2 0 13 4.2 3.7
-1 0 13 1.1 3
1 0 -13 7.3 3.5
0 0 13 4.8 4.7
0 0 -13 -0.2 2.8
-1 0 -13 2.2 4
1 0 13 -7.2 3.6
2 0 13 -7.4 3.4
-2 0 -13 -3.7 3.4
3 0 13 -4.8 3.3
-3 0 -13 1.3 5
4 0 13 8 5.2
-5 0 -13 -1.2 4.4
5 0 13 -9.1 4.9
-6 0 -13 -3.6 4.4
-7 0 -13 -5.1 4.4
9 -1 -13 32.1 12.5
8 -1 -13 0.5 6.6
8 -1 -13 4.6 4.3
8 1 -13 0.3 4.8
7 -1 -13 1.4 5
7 -1 -13 6.3 5.6
7 1 -13 8.1 6.4
6 -1 -13 26.6 9.1
6 -1 -13 38 9.5
6 1 -13 30 6
6 1 -13 22.1 8
5 -1 -13 181.98 20.7
5 -1 -13 184.38 16.8
5 1 -13 151.28 17.8
-4 -1 13 823.82 40.4
4 -1 -13 843.52 38.6
4 -1 -13 898.01 47.6
4 1 -13 849.12 41.4
3 -1 -13 1412.26 57.89
-3 -1 13 1527.35 54.19
3 1 -13 1494.05 53.59
-3 1 13 1424.56 57.19
-2 -1 13 977.3 39.8
2 -1 -13 950.9 45.3
2 -1 -13 937.31 45.2
-2 1 13 994.4 45.5
2 1 -13 990.3 40.4
-1 -1 13 229.88 17.3
1 -1 -13 239.98 21.5
-1 1 13 231.48 21
1 1 -13 207.58 16.9
0 -1 -13 1.9 4
0 -1 13 0.7 3.6
0 1 -13 8 5.8
0 1 13 1.9 4.9
0 1 -13 9 4.2
1 -1 13 27.5 6.9
1 1 13 19.9 6.3
-1 1 -13 20.7 9
-2 -1 -13 34.9 10.6
2 -1 13 39 7.8
2 1 13 38.3 10.2
-2 1 -13 31.8 10.2
3 -1 13 271.77 17
-3 -1 -13 262.77 23.2
3 1 13 260.87 22.6
-3 1 -13 272.67 26.5
-4 -1 -13 36.6 10.4
4 -1 13 28.2 7.5
-4 1 -13 21.2 9.6
-5 -1 -13 7.5 5.6
5 -1 13 10.5 5.1
5 -1 13 11.4 4.8
-5 1 -13 12.7 9.5
6 -1 13 65.49 12
6 -1 13 61.59 11.4
-6 1 -13 71.99 16.9
-7 -1 -13 18.4 8.8
7 -1 13 42.9 10.1
-7 1 -13 28.2 11.3
9 -2 -13 54.89 17.3
9 2 -13 51.59 15.5
8 -2 -13 26 8.8
8 2 -13 31 12.1
7 -2 -13 34.5 9.4
7 -2 -13 40.9 12.3
7 2 -13 24.6 9.6
6 -2 -13 33.3 12.5
6 -2 -13 24.9 9.1
6 2 -13 43.2 5.9
6 2 -13 41.4 11.8
5 -2 -13 17.7 7.2
5 -2 -13 26.3 8.8
5 2 -13 22.5 8.4
-4 -2 13 7.1 7.1
4 -2 -13 0.1 5.2
4 -2 -13 4.1 5
4 2 -13 34.6 9.5
-3 -2 13 265.47 21.3
3 -2 -13 296.77 26.3
3 2 -13 275.37 20.8
2 -2 -13 148.99 17.9
-2 -2 13 137.89 13.9
2 -2 -13 155.98 20.9
2 2 -13 128.79 13.2
2 2 -13 132.09 17.8
1 -2 -13 90.89 13.2
-1 -2 13 118.39 11.6
1 -2 -13 69.29 16.2
1 2 -13 103.09 19.4
0 -2 -13 1078.19 46.8
0 -2 13 1102.39 34.6
0 2 -13 1130.89 55.19
0 2 -13 1115.39 34.5
-1 -2 -13 3 4.7
1 -2 13 11.3 3
-1 2 -13 1.4 4.8
-2 -2 -13 8.6 5
-2 2 -13 5.7 7
-3 -2 -13 179.78 18.6
-3 2 -13 188.98 22.4
-4 -2 -13 75.09 14.4
-4 2 -13 60.49 16.4
-5 -2 -13 0.3 5.3
-5 2 -13 1.9 5.5
-6 -2 -13 11.4 7.1
-6 2 -13 16 11.2
8 -3 -13 26.2 11.6
7 -3 -13 272.97 31.7
7 3 -13 360.26 31
6 -3 -13 120.99 22.1
6 3 -13 61.89 14.9
6 3 -13 60.19 8.2
6 3 -13 76.39 16.8
5 -3 -13 355.76 32.6
5 3 -13 376.36 32.4
5 3 -13 379.16 23
4 -3 -13 11.1 7.8
4 3 -13 21 8.7
4 3 -13 13.5 6.5
4 3 -13 10.8 6.5
3 -3 -13 45.3 12.1
3 3 -13 57.49 11.3
3 3 -13 49.7 14.1
2 -3 -13 276.17 27.8
2 3 -13 281.17 18.9
2 3 -13 306.87 28.3
1 -3 -13 -6.4 4.3
1 3 -13 7 3.8
1 3 -13 13.8 8.1
0 -3 -13 356.66 26.9
0 3 -13 413.66 33.9
-1 -3 -13 90.69 13.2
-1 3 -13 115.69 21.9
-2 -3 -13 -0.7 5
-2 3 -13 -1.4 4.3
-3 -3 -13 83.19 11.4
-3 -3 -13 74.19 12.8
-3 3 -13 74.49 18.1
-4 -3 -13 3 5.1
-4 -3 -13 2.4 6
-4 3 -13 -6.8 9.4
-5 -3 -13 23.6 7.2
-5 3 -13 12.5 7.9
6 -4 -13 -7.2 6.4
6 4 -13 0.3 7
6 4 -13 10.6 7.8
5 -4 -13 27.2 11.5
5 4 -13 10.1 7.7
5 4 -13 32.6 9.1
5 4 -13 20.8 8.8
4 -4 -13 10.9 11.8
4 4 -13 7 7.3
4 4 -13 14.5 7.4
4 4 -13 13.4 5.7
3 4 -13 248.38 26.9
3 4 -13 277.77 20.5
3 4 -13 228.88 22.6
2 4 -13 21.1 6.4
2 4 -13 16.4 8
2 4 -13 7.5 8.7
1 4 -13 192.88 23
1 4 -13 206.68 24.7
1 4 -13 219.68 9.2
0 -4 -13 29.6 10.2
0 4 -13 17.6 7.9
0 4 -13 17.8 8.4
-1 -4 -13 373.66 26.3
-1 4 -13 312.27 32.4
-2 -4 -13 119.89 14.8
-2 4 -13 124.29 24.3
-3 -4 -13 163.68 15.1
-3 4 -13 181.28 25.4
9 0 -14 44.6 13.1
8 0 -14 331.47 31.7
7 0 -14 2419.66 61.49
7 0 -14 2452.65 90.09
6 0 -14 6.5 6.5
6 0 -14 15.6 6.2
5 0 -14 3854.51 93.09
5 0 -14 3922.71 111.29
4 0 -14 338.87 27
-3 0 14 175.28 18.3
3 0 -14 215.38 20.3
2 0 -14 801.22 39.7
-2 0 14 795.82 38.8
-1 0 14 1508.75 54.49
1 0 -14 1481.45 54.89
0 0 14 1157.68 46.1
0 0 -14 1160.68 47
1 0 14 -4.3 3.4
-1 0 -14 -0.2 4
2 0 14 330.57 23.6
3 0 14 1014.2 43
-3 0 -14 992.4 50.89
-4 0 -14 83.09 17.7
5 0 14 3 6.8
-5 0 -14 12.2 6.2
-6 0 -14 569.04 39.1
9 -1 -14 451.45 39.5
9 1 -14 439.16 38.3
8 -1 -14 96.89 19.6
8 -1 -14 107.59 12.9
8 1 -14 106.19 20.6
7 -1 -14 244.48 19.6
7 -1 -14 262.77 27.3
7 1 -14 304.07 28.1
7 1 -14 282.37 11.9
6 -1 -14 841.92 48.7
6 -1 -14 788.62 36.9
6 1 -14 778.02 44.9
6 1 -14 810.02 29.5
5 -1 -14 381.96 41.7
5 -1 -14 481.35 35.1
5 1 -14 435.96 39
4 -1 -14 -4 3.3
-4 -1 14 -0.1 3.5
4 -1 -14 5.6 3.7
4 1 -14 3.8 5
-3 -1 14 147.29 23.2
3 1 -14 135.59 16
2 -1 -14 11.2 5.7
-2 -1 14 3.6 4
2 1 -14 0.3 4.6
1 -1 -14 583.24 35.7
-1 -1 14 593.94 29.5
-1 1 14 620.64 36.2
1 1 -14 560.34 38.1
1 1 -14 568.04 29.6
0 -1 14 34.9 8.6
0 1 14 32.8 10.4
0 1 -14 25.3 10.1
1 -1 14 920.61 35.1
1 1 14 923.71 44.5
-1 1 -14 974.5 50.79
2 -1 14 566.04 26.2
-2 -1 -14 596.44 36.7
-2 1 -14 636.44 41
2 1 14 583.54 35.4
-3 -1 -14 617.84 37.1
3 -1 14 539.65 25.5
-3 1 -14 557.94 39.5
4 -1 14 1330.17 43.3
-4 -1 -14 1309.47 60.09
-4 1 -14 1342.67 64.29
5 -1 14 203.58 16.3
-5 -1 -14 208.38 22.3
5 -1 14 227.98 17.1
-5 1 -14 205.98 25.2
6 -1 14 224.68 19.6
6 -1 14 313.77 21.1
-6 -1 -14 303.77 25.9
-6 1 -14 274.37 29.8
8 -2 -14 388.86 35.9
8 2 -14 408.36 35
7 -2 -14 243.28 27.8
7 2 -14 253.87 25.6
6 -2 -14 -7.4 4.8
6 2 -14 0.9 3.2
6 2 -14 -3.6 4
5 -2 -14 364.96 31.6
4 -2 -14 433.16 34
-4 -2 14 422.66 30
4 2 -14 499.85 31
-3 -2 14 563.84 31.9
3 -2 -14 583.34 39
3 2 -14 580.74 31.4
3 2 -14 572.54 39.7
-2 -2 14 382.66 23.9
2 -2 -14 423.06 32.1
2 2 -14 376.36 23.1
2 2 -14 375.76 31.9
1 -2 -14 23 9.7
-1 -2 14 39 7.8
1 2 -14 39.3 11.5
1 2 -14 46.2 8.6
0 -2 -14 17 5.9
0 2 -14 0.9 2.9
0 2 -14 1.6 4.3
1 -2 14 161.28 10.7
-1 -2 -14 173.28 18.5
-1 2 -14 184.68 22.5
2 -2 14 935.71 20.4
-2 -2 -14 1025.6 47.5
-2 2 -14 1028.1 56.49
-3 -2 -14 284.57 24.2
-3 2 -14 291.77 29.4
-4 -2 -14 33.5 10.6
-4 2 -14 30.7 11.7
-5 -2 -14 271.07 23.3
-6 -2 -14 63.19 14.4
-6 2 -14 85.79 19.4
7 -3 -14 434.26 38.8
7 3 -14 403.46 32.9
6 3 -14 768.52 44
6 3 -14 750.72 47.7
5 -3 -14 -8.5 5.5
5 3 -14 -3.1 4.6
5 3 -14 7.6 4.3
5 3 -14 1.3 5.6
4 -3 -14 0.7 5.5
4 3 -14 -3.3 3.9
4 3 -14 4.4 4.1
3 -3 -14 436.06 36.2
3 3 -14 427.06 26.4
3 3 -14 447.16 35.8
2 -3 -14 224.58 25.7
2 3 -14 218.98 25
2 3 -14 203.98 16
1 3 -14 504.75 21.6
1 3 -14 435.26 36
0 3 -14 9.5 5.8
-1 -3 -14 281.27 23.8
-1 3 -14 310.97 31
-2 -3 -14 1749.43 63.09
-2 3 -14 1778.92 79.79
-3 -3 -14 103.39 14.1
-4 -3 -14 30.3 10.3
-4 -3 -14 37.6 12.3
-4 3 -14 15.5 10.6
5 -4 -14 305.67 33.2
5 4 -14 275.17 22.4
5 4 -14 252.37 28.1
5 4 -14 247.18 23.2
4 -4 -14 10.1 8.8
4 4 -14 36 13.5
4 4 -14 8.6 6.2
3 4 -14 200.38 25.2
3 4 -14 132.89 18.3
3 4 -14 219.98 17.9
2 4 -14 152.88 19.6
1 4 -14 48.8 14.4
1 4 -14 21.1 9.6
0 4 -14 127.89 22.2
-1 -4 -14 411.86 29.1
-1 4 -14 414.26 37.8
-2 -4 -14 116.09 15.8
-2 4 -14 105.79 22.1
9 0 -15 -12.9 5.8
8 0 -15 -5.9 2.9
8 0 -15 -4.2 6.2
7 0 -15 5.3 3.6
7 0 -15 9.1 5.9
6 0 -15 4 6.8
6 0 -15 -3.4 3.8
5 0 -15 2.3 4
4 0 -15 6.3 4.3
3 0 -15 -1.4 4.8
-2 0 15 1.3 4.5
2 0 -15 5.6 4.1
-1 0 15 -4.2 3.8
0 0 15 5.6 4.9
0 0 -15 -0.2 4
-1 0 -15 0 4.6
-2 0 -15 5.2 5.1
-3 0 -15 -7.7 4.4
3 0 15 3 5.4
4 0 15 -8 5.2
5 0 15 -4.9 7.2
-5 0 -15 3.5 6.4
-6 0 -15 -3.4 6.7
8 -1 -15 40.5 8.9
8 -1 -15 35.3 13
8 1 -15 22.3 10.7
7 -1 -15 -2.4 7.4
7 -1 -15 9.7 6.5
7 1 -15 -5.1 4.6
7 1 -15 1.1 2.8
6 -1 -15 71.49 13
6 -1 -15 65.99 15.9
6 1 -15 96.79 18.7
5 -1 -15 61.99 12.6
5 -1 -15 54.09 14.4
5 1 -15 42.9 12
4 -1 -15 34.6 11.1
4 -1 -15 12 7.6
4 1 -15 37.7 9.9
3 -1 -15 5.3 5
-3 -1 15 0.7 5.8
3 1 -15 10.2 5.9
-2 -1 15 16 6.7
2 -1 -15 32.1 10.4
2 1 -15 21.8 7
-1 -1 15 407.16 25.3
1 -1 -15 361.16 34.4
1 1 -15 439.16 34.7
1 1 -15 416.56 26
0 -1 15 295.27 20.6
0 1 -15 286.67 20.7
0 1 -15 279.67 27.8
1 -1 15 805.12 33.3
-1 -1 -15 672.33 41.1
-1 1 -15 742.63 45.8
-2 -1 -15 9 6.1
2 -1 15 6.4 3.7
-2 1 -15 0.9 5.1
3 -1 15 313.17 19.7
-3 -1 -15 280.77 25.8
-3 1 -15 246.18 27.3
-4 -1 -15 221.08 23.6
4 -1 15 263.97 18.6
-4 1 -15 206.98 25.8
5 -1 15 32.3 8.1
-5 -1 -15 28.1 10.4
5 -1 15 13.6 6.3
-5 1 -15 16.2 11.5
-6 -1 -15 12.1 7.4
6 -1 15 17.2 7.5
-6 1 -15 10.3 9.1
8 -2 -15 4.1 6.2
8 2 -15 -5.9 8.6
7 -2 -15 5 7.4
7 2 -15 -4.7 4.2
6 -2 -15 117.59 22.6
6 2 -15 117.69 20.5
5 -2 -15 290.27 30.3
5 2 -15 296.97 26.5
-4 -2 15 210.48 21.1
4 -2 -15 166.08 21.2
4 2 -15 138.89 17.8
3 -2 -15 86.39 17.8
-3 -2 15 64.89 13.1
3 2 -15 59.39 11.6
3 2 -15 70.39 16.5
-2 -2 15 3.9 4.8
2 -2 -15 7.9 7.2
2 2 -15 0.9 3.6
2 2 -15 5.9 6.6
1 -2 -15 67.89 15.7
-1 -2 15 71.19 11.4
1 2 -15 46.8 13.5
1 2 -15 61.49 10.3
0 -2 15 15.8 5.6
0 2 -15 3.4 4.3
1 -2 15 95.79 8.7
-1 2 -15 104.49 20.7
2 -2 15 0 1.8
-2 -2 -15 4.4 5
-3 -2 -15 165.38 18.6
-3 2 -15 226.78 25.7
-4 -2 -15 69.59 14.7
-5 2 -15 1.6 8
6 -3 -15 22.3 11.2
6 3 -15 1.1 6.9
6 3 -15 14.5 8.3
6 3 -15 17.6 5.7
5 -3 -15 82.19 21.1
5 3 -15 32.5 12.5
5 3 -15 41.2 10.1
5 3 -15 53.69 12.7
4 -3 -15 36.5 11.7
4 3 -15 19.9 8.7
4 3 -15 25.6 8.4
3 -3 -15 267.97 29.5
3 3 -15 266.67 21
3 3 -15 292.07 29.7
2 -3 -15 35.1 12.4
2 3 -15 41.7 13.4
2 3 -15 29.2 7.5
1 3 -15 15.4 9.6
1 3 -15 16.7 4.9
0 3 -15 94.79 20.4
-1 3 -15 7.4 6.1
-2 -3 -15 235.98 22.5
-2 3 -15 212.18 27.5
-3 -3 -15 39.6 10.7
-3 -3 -15 28.2 11.4
-3 3 -15 27.9 11.8
3 4 -15 -8.6 6.2
3 4 -15 5.1 6.2
2 4 -15 -3.8 5.1
2 4 -15 32.8 11.7
1 4 -15 10.1 6
1 4 -15 26.4 12.1
0 4 -15 28.3 12.2
8 0 -16 116.09 22.8
7 0 -16 177.38 23
7 0 -16 166.18 14.9
6 0 -16 295.47 28.6
6 0 -16 347.07 23.2
5 0 -16 148.49 23.1
4 0 -16 102.19 18.4
3 0 -16 3637.54 105.19
2 0 -16 366.76 27.9
1 0 -16 714.83 38.9
-1 0 16 667.63 37.3
0 0 16 86.89 14.5
0 0 -16 102.89 20.1
1 0 16 81.19 15
-1 0 -16 91.69 18.8
2 0 16 561.04 33.1
-2 0 -16 549.25 39.9
3 0 16 3.8 7.7
-3 0 -16 13.6 7
-4 0 -16 1654.23 73.39
4 0 16 1684.03 61.89
-5 0 -16 79.79 19.1
8 -1 -16 30.7 13.4
8 1 -16 41.6 11.6
7 -1 -16 262.47 22.1
7 1 -16 297.27 29.7
6 -1 -16 263.77 23.7
6 -1 -16 315.37 31.3
6 1 -16 349.27 30.1
5 -1 -16 1495.15 67.99
5 1 -16 1459.35 62.89
4 -1 -16 103.79 19.7
4 1 -16 113.39 19.2
-3 -1 16 199.88 20.9
3 -1 -16 210.28 22.7
3 1 -16 225.58 21.4
-2 -1 16 764.92 38.6
2 -1 -16 828.62 46.2
2 1 -16 798.52 39.8
-1 -1 16 394.16 25.7
1 -1 -16 334.47 28.1
1 1 -16 427.36 35
1 1 -16 368.36 25.2
0 -1 16 505.05 28.2
0 1 -16 489.95 37.9
-1 -1 -16 706.43 44
1 -1 16 764.82 34.2
-1 1 -16 763.72 48.3
2 -1 16 41.1 9.8
-2 -1 -16 64.09 15.5
-2 1 -16 49.99 15.5
3 -1 16 6.5 5.3
-3 -1 -16 9.4 7.5
-3 1 -16 2.5 7.7
4 -1 16 61.79 10.4
-4 -1 -16 50.09 12.4
-4 1 -16 29 11.8
-5 -1 -16 7.8 6.9
5 -1 16 2.3 5.6
-5 1 -16 7.9 8.2
7 -2 -16 83.79 19.1
7 2 -16 68.09 16.8
6 -2 -16 32.9 12.8
6 2 -16 24.7 9.8
5 -2 -16 410.96 36.4
5 2 -16 403.46 30.9
4 -2 -16 995.7 55.79
4 2 -16 1044.6 55.79
3 -2 -16 523.95 39.1
-3 -2 16 481.85 31.5
3 2 -16 514.85 39.9
3 2 -16 489.75 30.3
2 -2 -16 128.69 23.1
-2 -2 16 121.09 14
2 2 -16 124.19 14.2
2 2 -16 96.49 19.8
-1 -2 16 863.41 36.5
1 2 -16 830.82 35.2
1 2 -16 882.11 53.19
0 -2 16 730.93 30.2
0 2 -16 743.83 48.7
1 -2 16 49.1 7.7
-1 2 -16 63.19 16.7
2 -2 16 282.07 10.6
-2 -2 -16 318.57 27.7
-2 2 -16 257.27 28.8
-3 -2 -16 4.1 7
-3 2 -16 -9.3 6
-4 -2 -16 724.73 43
-4 2 -16 775.12 53.29
5 -3 -16 524.25 43.1
5 3 -16 482.95 40.1
5 3 -16 480.35 33.3
4 -3 -16 403.06 37
4 3 -16 392.96 28.1
4 3 -16 388.86 36.2
3 -3 -16 23.8 10.8
3 3 -16 20.3 10.7
3 3 -16 40.9 10.4
2 3 -16 174.78 15.2
2 3 -16 172.98 24
1 3 -16 64.59 16.8
1 3 -16 64.39 8.2
-1 3 -16 304.07 33.4
-2 -3 -16 13 7.7
-2 3 -16 -2.8 5.2
7 0 -17 0.7 5.2
6 0 -17 8.7 6
6 0 -17 14.3 6.2
5 0 -17 -13.9 5.1
4 0 -17 0.5 4.9
3 0 -17 -6.5 3.9
2 0 -17 -5 4.4
1 0 -17 -9.6 4.8
0 0 -17 -6.8 4.5
-1 0 -17 12.1 7.2
-2 0 -17 4.5 5.5
2 0 17 -6 8.1
-3 0 -17 6.4 6.7
-4 0 -17 5.7 8
7 -1 -17 34.2 12.2
7 1 -17 25.9 10.9
6 -1 -17 20.5 9.7
6 1 -17 21.7 10.3
5 -1 -17 135.79 23.3
5 1 -17 74.99 16.9
4 -1 -17 15.5 8.8
4 1 -17 19.9 9
3 -1 -17 177.08 21.7
2 -1 -17 6.9 6.5
-2 -1 17 6 5.3
2 1 -17 7 4.7
1 -1 -17 70.49 17
-1 -1 17 46.1 11.2
1 1 -17 36.2 12.2
1 1 -17 44.4 10.1
0 -1 17 565.74 31.2
0 1 -17 521.75 41.2
1 -1 17 12.6 6.3
-1 -1 -17 7.8 6.2
-1 1 -17 1.2 6.7
2 -1 17 8.1 6.5
-2 -1 -17 -9.5 4.5
-2 1 -17 -1.4 5.4
-3 -1 -17 87.99 17.9
3 -1 17 105.79 13.1
-3 1 -17 69.99 18.5
-4 -1 -17 40.2 11.7
-4 1 -17 26.6 12.1
6 -2 -17 33 13.7
6 2 -17 68.49 15.6
5 -2 -17 65.69 16.7
5 2 -17 38.4 11.6
4 -2 -17 80.29 17.7
4 2 -17 86.49 20
4 2 -17 65.09 14.2
-3 -2 17 145.59 18.8
3 -2 -17 98.49 21.2
3 2 -17 156.98 17.8
3 2 -17 138.09 25.4
2 -2 -17 0.1 6.3
2 2 -17 -1.7 7.5
2 2 -17 3.8 3.9
-1 -2 17 171.38 16.5
1 2 -17 164.98 27.8
1 2 -17 195.88 16.8
0 -2 17 1.6 4.6
0 2 -17 4.1 6.3
-1 -2 -17 7.4 6.7
1 -2 17 -3.4 5.8
2 -2 17 56.39 5
-2 -2 -17 46.2 13
-2 2 -17 41.2 14.2
-3 -2 -17 19.7 9.8
-3 2 -17 18.7 10.5
4 -3 -17 5.2 9.3
4 3 -17 -7.5 6.4
4 3 -17 18.4 7.3
3 -3 -17 112.49 23
3 3 -17 70.59 13.1
3 3 -17 56.69 16.7
2 3 -17 22.3 10.8
2 3 -17 12.9 5.9
1 3 -17 145.69 27
0 3 -17 -1.1 6.5
-1 3 -17 1 7.1
7 0 -18 490.65 39.9
6 0 -18 13 8.6
6 0 -18 24.9 10.7
5 0 -18 37 11.7
4 0 -18 3.9 6.6
3 0 -18 2.7 6.4
2 0 -18 704.43 42.4
1 0 -18 86.59 16.3
0 0 -18 176.08 23.6
-1 0 -18 1801.72 79.99
-2 0 -18 10.5 8.8
-3 0 -18 193.88 26.5
6 -1 -18 209.38 26.9
6 1 -18 190.28 22.6
5 -1 -18 1225.28 66.09
5 1 -18 1157.68 57.49
4 -1 -18 15.3 9
4 1 -18 17.5 8.3
3 -1 -18 517.95 37.8
3 1 -18 443.96 31.9
2 -1 -18 43.9 14.4
2 1 -18 75.39 18.7
2 1 -18 73.09 17
-1 -1 18 93.59 16.1
1 -1 -18 77.29 16.6
1 1 -18 60.89 16.3
1 1 -18 95.69 12.7
0 -1 18 37.8 9.4
0 1 -18 42.9 13.4
-1 -1 -18 274.47 28.3
-2 -1 -18 975.6 55.39
2 -1 18 879.11 39.2
-2 1 -18 915.91 57.69
-3 -1 -18 124.79 22.4
-3 1 -18 85.19 20.1
5 -2 -18 11.7 8.9
5 2 -18 16.2 8.6
4 -2 -18 6.6 8.4
4 2 -18 0.4 7.8
4 2 -18 -7.6 5.3
3 2 -18 13.8 7.6
3 2 -18 0.9 6.1
2 -2 -18 209.38 26.3
-2 -2 18 185.78 21
2 2 -18 223.48 20.4
2 2 -18 254.77 30
-1 -2 18 150.98 16.4
1 2 -18 132.79 26
1 2 -18 136.49 15.1
0 -2 18 272.87 23
0 2 -18 261.57 29.9
-1 -2 -18 72.09 17.8
-1 2 -18 105.69 21.8
5 0 -19 -5.8 5.6
4 0 -19 3.9 7.6
2 0 -19 0.6 5.1
-1 0 -19 1.6 7.8
-2 0 -19 1.7 8.7
5 -1 -19 80.69 18.1
5 1 -19 93.69 19.1
4 1 -19 89.19 16.9
3 -1 -19 -0.5 7.5
3 1 -19 -10 5.4
2 -1 -19 3.4 6.7
2 1 -19 8.3 6.9
2 1 -19 3.5 7.2
1 1 -19 68.29 16.4
1 1 -19 51.59 14.2
0 -1 -19 6.7 9.7
0 -1 19 14.7 10.5
0 1 -19 25.4 13.1
-1 -1 -19 14.7 10.5
-1 1 -19 81.19 19.4
3 -2 -19 62.09 16.2
3 2 -19 66.39 16.8
3 2 -19 76.29 15
2 -2 -19 85.09 19.9
2 2 -19 111.89 23.5
2 2 -19 141.19 16.5
1 2 -19 21.2 10.3
3 0 -20 361.46 33.4
2 0 -20 95.79 20.2
1 0 -20 -7.9 7.9
