#------------------------------------------------------------------------------
#$Date: 2023-12-01 18:11:06 +0200 (Fri, 01 Dec 2023) $
#$Revision: 287938 $
#$URL: file:///home/coder/svn-repositories/cod/cif/4/51/90/4519033.cif $
#------------------------------------------------------------------------------
#
# This file is available in the Crystallography Open Database (COD),
# http://www.crystallography.net/
#
# All data on this site have been placed in the public domain by the
# contributors.
#
data_4519033
loop_
_publ_author_name
'Hojamberdiev, Mirabbos'
'Mora-Hernandez, J. Manuel'
'Vargas, Ronald'
'Yamakata, Akira'
'Yubuta, Kunio'
'Heppke, Eva Maria'
'Torres-Mart\'inez, Leticia M.'
'Teshima, Katsuya'
'Lerch, Martin'
_publ_section_title
;
 Time-Retrenched Synthesis of BaTaO2N by Localizing an NH3 Delivery System
 for Visible-Light-Driven Photoelectrochemical Water Oxidation at Neutral
 pH: Solid-State Reaction or Flux Method?
;
_journal_issue                   9
_journal_name_full               'ACS Applied Energy Materials'
_journal_page_first              9315
_journal_page_last               9327
_journal_paper_doi               10.1021/acsaem.1c01539
_journal_volume                  4
_journal_year                    2021
_chemical_compound_source        synthetic
_chemical_formula_iupac          'Ba Ta O2.24 N0.76'
_chemical_formula_structural     'Ba Ta O2.24 N0.76'
_chemical_formula_sum            'Ba N0.76 O2.24 Ta'
_chemical_formula_weight         364.771648
_chemical_name_common            'barium tantalum oxynitride'
_chemical_name_systematic        'barium tantalum dioxide nitride'
_space_group_IT_number           221
_space_group_name_Hall           '-P 4 2 3'
_space_group_name_H-M_alt        'P m -3 m'
_symmetry_cell_setting           cubic
_symmetry_space_group_name_Hall  '-P 4 2 3'
_symmetry_space_group_name_H-M   'P m -3 m'
_atom_sites_solution_primary     other
_atom_sites_solution_secondary   difmap
_cell_angle_alpha                90.0000
_cell_angle_beta                 90.0000
_cell_angle_gamma                90.0000
_cell_formula_units_Z            1
_cell_length_a                   4.11296(7)
_cell_length_b                   4.11296(7)
_cell_length_c                   4.11296(7)
_cell_measurement_temperature    293
_cell_volume                     69.577(2)
_computing_cell_refinement       'FullProf (Rodr\'iguez-Carvajal, 1993)'
_computing_data_collection       'X'Pert Data Collector (PANalytical, 2008)'
_computing_data_reduction        'X'Pert Data Collector (PANalytical, 2008)'
_computing_molecular_graphics    'Diamond (Brandenburg, 2013)'
_computing_publication_material  'WinPLOTR (Roisnel, 2001)'
_computing_structure_refinement  'FULLPROF (Rodr\'iguez-Carvajal, 1993)'
_computing_structure_solution    'ICSD (Bergerhoff, 1987)'
_diffrn_ambient_temperature      293
_diffrn_detector                 'solid-state RTMS detector'
_diffrn_detector_type            'PANalytical PIXcel'
_diffrn_measurement_device       '\q-\q geometry diffractometer'
_diffrn_measurement_device_type  'PANalytical X'Pert Pro'
_diffrn_measurement_method       'profile data from \q/2\q scans'
_diffrn_radiation_monochromator  none
_diffrn_radiation_probe          x-ray
_diffrn_radiation_type           'Cu K\a'
_diffrn_source                   'sealed X-ray tube'
_diffrn_source_target            Cu
_diffrn_source_type              'Philips PW3373-10'
_exptl_absorpt_coefficient_mu    178.668
_exptl_absorpt_correction_type   refdelf
_exptl_absorpt_process_details
;
roughness/microabsorption correction according to Pitschke, Hermann, and
Mattern (Pitschke et al., 1993):  P~0~ = 0.718(7), C = 2.0708, \t = 0.0101
;
_exptl_crystal_density_diffrn    8.706
_exptl_crystal_density_method    'not measured'
_exptl_crystal_description       powder
_exptl_crystal_F_000             152
_pd_calc_method                  'Rietveld refinement'
_pd_char_colour                  red
_pd_instr_geometry               Bragg-Brentano
_pd_meas_2theta_range_inc        0.026008
_pd_meas_2theta_range_max        119.96713
_pd_meas_2theta_range_min        10.16913
_pd_meas_number_of_points        4224
_pd_meas_scan_method             step
_pd_proc_2theta_range_inc        0.026008
_pd_proc_2theta_range_max        119.9671
_pd_proc_2theta_range_min        10.1691
_pd_proc_ls_background_function
;
linear interpolation between 18 manually defined background points
with refined heights
;
_pd_proc_ls_peak_cutoff          0.005
_pd_proc_ls_profile_function
;
pseudo-Voigt function with U = 0.043(3), V = 0.003(3), W = 0.0210(8), 
\h~0~ = 0.664(11), X = 0.0028(2),
asymmetry correction (whole profile):
A~S~(z) = 1+[P~1~F~a~(z)+P~2~F~b~(z)]/tanh(\q~h~)
with P~1~ = -0.007(8), P~2~ = 0.0151(7)
;
_pd_proc_ls_prof_R_factor        0.018296
_pd_proc_ls_prof_wR_expected     0.017431
_pd_proc_ls_prof_wR_factor       0.024729
_pd_proc_number_of_points        4224
_pd_proc_wavelength              1.540560
_pd_spec_mounting                'drifted powder on off-cut Si'
_pd_spec_mount_mode              reflection
_pd_spec_size_axial              10
_pd_spec_size_thick              0.2
_refine_ls_extinction_method     none
_refine_ls_goodness_of_fit_all   1.42
_refine_ls_matrix_type           fullcycle
_refine_ls_number_constraints    1
_refine_ls_number_parameters     32
_refine_ls_number_reflns         46
_refine_ls_number_restraints     0
_refine_ls_R_I_factor            0.011351
_refine_ls_structure_factor_coef Inet
_refine_ls_weighting_scheme      sigma
_refine_ls_wR_factor_all         0.0320
_cod_data_source_file            ae1c01539_si_003.cif
_cod_data_source_block           BaTaO2Nsolid
_cod_database_code               4519033
_pd_proc_ls_prof_cr_factor       0.083865
_pd_proc_ls_prof_cwr_factor      0.060505
_pd_proc_ls_prof_cwr_expected    0.042648
_pd_proc_ls_prof_chi2            2.0127
_pd_proc_ls_prof_echi2           1.8802
loop_
_symmetry_equiv_pos_as_xyz
x,y,z
x,-y,-z
-x,y,-z
-x,-y,z
y,z,x
-y,-z,x
y,-z,-x
-y,z,-x
z,x,y
-z,x,-y
-z,-x,y
z,-x,-y
y,x,z
-y,x,-z
y,-x,-z
-y,-x,z
z,y,x
-z,-y,x
-z,y,-x
z,-y,-x
x,z,y
x,-z,-y
-x,-z,y
-x,z,-y
-x,-y,-z
-x,y,z
x,-y,z
x,y,-z
-y,-z,-x
y,z,-x
-y,z,x
y,-z,x
-z,-x,-y
z,-x,y
z,x,-y
-z,x,y
-y,-x,-z
y,-x,z
-y,x,z
y,x,-z
-z,-y,-x
z,y,-x
z,-y,x
-z,y,x
-x,-z,-y
-x,z,y
x,z,-y
x,-z,y
loop_
_atom_site_label
_atom_site_fract_x
_atom_site_fract_y
_atom_site_fract_z
_atom_site_U_iso_or_equiv
_atom_site_occupancy
_atom_site_adp_type
_atom_site_type_symbol
_atom_site_constraints
Ba1 0.00000 0.00000 0.00000 0.0047(3) 1.00000 Uiso Ba .
Ta1 0.50000 0.50000 0.50000 0.0069(3) 1.00000 Uiso Ta .
O1 0.50000 0.50000 0.00000 0.01267 0.74603 Uiso O .
N1 0.50000 0.50000 0.00000 0.01267 0.25397 Uiso N U=U(O1)
loop_
_atom_type_symbol
_atom_type_scat_Cromer_Mann_a1
_atom_type_scat_Cromer_Mann_b1
_atom_type_scat_Cromer_Mann_a2
_atom_type_scat_Cromer_Mann_b2
_atom_type_scat_Cromer_Mann_a3
_atom_type_scat_Cromer_Mann_b3
_atom_type_scat_Cromer_Mann_a4
_atom_type_scat_Cromer_Mann_b4
_atom_type_scat_Cromer_Mann_c
_atom_type_scat_dispersion_real
_atom_type_scat_dispersion_imag
_atom_type_scat_source
Ba 20.33610 3.21600 19.29700 0.27560 10.88800 20.20730 2.69590 167.20200 2.77310
-1.33400 8.46000
International_Tables_for_Crystallography_Vol.C(1991)_Tables_6.1.1.4_and_6.1.1.5
Ta 29.20240 1.77333 15.22930 9.37046 14.51350 0.29598 4.76492 63.36440 9.24354
-6.35100 5.27100
International_Tables_for_Crystallography_Vol.C(1991)_Tables_6.1.1.4_and_6.1.1.5
O 3.04850 13.27710 2.28680 5.70110 1.54630 0.32390 0.86700 32.90890 0.25080
0.04700 0.03200
International_Tables_for_Crystallography_Vol.C(1991)_Tables_6.1.1.4_and_6.1.1.5
N 12.21260 0.00570 3.13220 9.89330 2.01250 28.99750 1.16630 0.58260 -11.52900
0.02900 0.01800
International_Tables_for_Crystallography_Vol.C(1991)_Tables_6.1.1.4_and_6.1.1.5
loop_
_diffrn_radiation_wavelength_id
_diffrn_radiation_wavelength
_diffrn_radiation_wavelength_wt
_diffrn_radiation_wavelength_determination
\a1 1.54060 0.6667 fundamental
\a2 1.54439 0.3333 fundamental
loop_
_geom_angle_atom_site_label_1
_geom_angle_atom_site_label_2
_geom_angle_atom_site_label_3
_geom_angle
_geom_angle_site_symmetry_1
_geom_angle_site_symmetry_3
_geom_angle_publ_flag
Ta1 Ba1 Ta1 70.5288(15) 1_444 1_445 ?
Ta1 Ba1 Ta1 70.5288(15) 1_444 1_454 ?
Ta1 Ba1 Ta1 109.471(2) 1_444 1_455 ?
Ta1 Ba1 Ta1 70.5288(15) 1_444 1_544 ?
Ta1 Ba1 Ta1 109.471(2) 1_444 1_545 ?
Ta1 Ba1 Ta1 109.471(2) 1_444 1_554 ?
Ta1 Ba1 Ta1 180.000(2) 1_444 1_555 ?
Ta1 Ba1 O1 90.0000(19) 1_444 1_455 ?
Ta1 Ba1 O1 90.0000(19) 1_444 1_545 ?
Ta1 Ba1 O1 144.736(2) 1_444 1_555 ?
Ta1 Ba1 O1 90.0000(19) 1_444 5_455 ?
Ta1 Ba1 O1 90.0000(19) 1_444 5_554 ?
Ta1 Ba1 O1 144.736(2) 1_444 5_555 ?
Ta1 Ba1 O1 90.0000(19) 1_444 9_545 ?
Ta1 Ba1 O1 90.0000(19) 1_444 9_554 ?
Ta1 Ba1 O1 144.736(2) 1_444 9_555 ?
Ta1 Ba1 N1 90.0000(19) 1_444 1_455 ?
Ta1 Ba1 N1 90.0000(19) 1_444 1_545 ?
Ta1 Ba1 N1 144.736(2) 1_444 1_555 ?
Ta1 Ba1 N1 90.0000(19) 1_444 5_455 ?
Ta1 Ba1 N1 90.0000(19) 1_444 5_554 ?
Ta1 Ba1 N1 144.736(2) 1_444 5_555 ?
Ta1 Ba1 N1 90.0000(19) 1_444 9_545 ?
Ta1 Ba1 N1 90.0000(19) 1_444 9_554 ?
Ta1 Ba1 N1 144.736(2) 1_444 9_555 ?
Ta1 Ba1 Ta1 109.471(2) 1_445 1_454 ?
Ta1 Ba1 Ta1 70.5288(15) 1_445 1_455 ?
Ta1 Ba1 Ta1 109.471(2) 1_445 1_544 ?
Ta1 Ba1 Ta1 70.5288(15) 1_445 1_545 ?
Ta1 Ba1 Ta1 180.000(2) 1_445 1_554 ?
Ta1 Ba1 Ta1 109.471(2) 1_445 1_555 ?
Ta1 Ba1 O1 90.0000(19) 1_445 1_455 ?
Ta1 Ba1 O1 90.0000(19) 1_445 1_545 ?
Ta1 Ba1 O1 144.736(2) 1_445 1_555 ?
Ta1 Ba1 O1 90.0000(19) 1_445 5_454 ?
Ta1 Ba1 O1 144.736(2) 1_445 5_554 ?
Ta1 Ba1 O1 90.0000(19) 1_445 5_555 ?
Ta1 Ba1 O1 90.0000(19) 1_445 9_544 ?
Ta1 Ba1 O1 144.736(2) 1_445 9_554 ?
Ta1 Ba1 O1 90.0000(19) 1_445 9_555 ?
Ta1 Ba1 N1 90.0000(19) 1_445 1_455 ?
Ta1 Ba1 N1 90.0000(19) 1_445 1_545 ?
Ta1 Ba1 N1 144.736(2) 1_445 1_555 ?
Ta1 Ba1 N1 90.0000(19) 1_445 5_454 ?
Ta1 Ba1 N1 144.736(2) 1_445 5_554 ?
Ta1 Ba1 N1 90.0000(19) 1_445 5_555 ?
Ta1 Ba1 N1 90.0000(19) 1_445 9_544 ?
Ta1 Ba1 N1 144.736(2) 1_445 9_554 ?
Ta1 Ba1 N1 90.0000(19) 1_445 9_555 ?
Ta1 Ba1 Ta1 70.5288(15) 1_454 1_455 ?
Ta1 Ba1 Ta1 109.471(2) 1_454 1_544 ?
Ta1 Ba1 Ta1 180.000(2) 1_454 1_545 ?
Ta1 Ba1 Ta1 70.5288(15) 1_454 1_554 ?
Ta1 Ba1 Ta1 109.471(2) 1_454 1_555 ?
Ta1 Ba1 O1 90.0000(19) 1_454 1_445 ?
Ta1 Ba1 O1 144.736(2) 1_454 1_545 ?
Ta1 Ba1 O1 90.0000(19) 1_454 1_555 ?
Ta1 Ba1 O1 90.0000(19) 1_454 5_455 ?
Ta1 Ba1 O1 90.0000(19) 1_454 5_554 ?
Ta1 Ba1 O1 144.736(2) 1_454 5_555 ?
Ta1 Ba1 O1 90.0000(19) 1_454 9_544 ?
Ta1 Ba1 O1 144.736(2) 1_454 9_545 ?
Ta1 Ba1 O1 90.0000(19) 1_454 9_555 ?
Ta1 Ba1 N1 90.0000(19) 1_454 1_445 ?
Ta1 Ba1 N1 144.736(2) 1_454 1_545 ?
Ta1 Ba1 N1 90.0000(19) 1_454 1_555 ?
Ta1 Ba1 N1 90.0000(19) 1_454 5_455 ?
Ta1 Ba1 N1 90.0000(19) 1_454 5_554 ?
Ta1 Ba1 N1 144.736(2) 1_454 5_555 ?
Ta1 Ba1 N1 90.0000(19) 1_454 9_544 ?
Ta1 Ba1 N1 144.736(2) 1_454 9_545 ?
Ta1 Ba1 N1 90.0000(19) 1_454 9_555 ?
Ta1 Ba1 Ta1 180.000(2) 1_455 1_544 ?
Ta1 Ba1 Ta1 109.471(2) 1_455 1_545 ?
Ta1 Ba1 Ta1 109.471(2) 1_455 1_554 ?
Ta1 Ba1 Ta1 70.5288(15) 1_455 1_555 ?
Ta1 Ba1 O1 90.0000(19) 1_455 1_445 ?
Ta1 Ba1 O1 144.736(2) 1_455 1_545 ?
Ta1 Ba1 O1 90.0000(19) 1_455 1_555 ?
Ta1 Ba1 O1 90.0000(19) 1_455 5_454 ?
Ta1 Ba1 O1 144.736(2) 1_455 5_554 ?
Ta1 Ba1 O1 90.0000(19) 1_455 5_555 ?
Ta1 Ba1 O1 144.736(2) 1_455 9_544 ?
Ta1 Ba1 O1 90.0000(19) 1_455 9_545 ?
Ta1 Ba1 O1 90.0000(19) 1_455 9_554 ?
Ta1 Ba1 N1 90.0000(19) 1_455 1_445 ?
Ta1 Ba1 N1 144.736(2) 1_455 1_545 ?
Ta1 Ba1 N1 90.0000(19) 1_455 1_555 ?
Ta1 Ba1 N1 90.0000(19) 1_455 5_454 ?
Ta1 Ba1 N1 144.736(2) 1_455 5_554 ?
Ta1 Ba1 N1 90.0000(19) 1_455 5_555 ?
Ta1 Ba1 N1 144.736(2) 1_455 9_544 ?
Ta1 Ba1 N1 90.0000(19) 1_455 9_545 ?
Ta1 Ba1 N1 90.0000(19) 1_455 9_554 ?
Ta1 Ba1 Ta1 70.5288(15) 1_544 1_545 ?
Ta1 Ba1 Ta1 70.5288(15) 1_544 1_554 ?
Ta1 Ba1 Ta1 109.471(2) 1_544 1_555 ?
Ta1 Ba1 O1 90.0000(19) 1_544 1_445 ?
Ta1 Ba1 O1 144.736(2) 1_544 1_455 ?
Ta1 Ba1 O1 90.0000(19) 1_544 1_555 ?
Ta1 Ba1 O1 90.0000(19) 1_544 5_454 ?
Ta1 Ba1 O1 144.736(2) 1_544 5_455 ?
Ta1 Ba1 O1 90.0000(19) 1_544 5_555 ?
Ta1 Ba1 O1 90.0000(19) 1_544 9_545 ?
Ta1 Ba1 O1 90.0000(19) 1_544 9_554 ?
Ta1 Ba1 O1 144.736(2) 1_544 9_555 ?
Ta1 Ba1 N1 90.0000(19) 1_544 1_445 ?
Ta1 Ba1 N1 144.736(2) 1_544 1_455 ?
Ta1 Ba1 N1 90.0000(19) 1_544 1_555 ?
Ta1 Ba1 N1 90.0000(19) 1_544 5_454 ?
Ta1 Ba1 N1 144.736(2) 1_544 5_455 ?
Ta1 Ba1 N1 90.0000(19) 1_544 5_555 ?
Ta1 Ba1 N1 90.0000(19) 1_544 9_545 ?
Ta1 Ba1 N1 90.0000(19) 1_544 9_554 ?
Ta1 Ba1 N1 144.736(2) 1_544 9_555 ?
Ta1 Ba1 Ta1 109.471(2) 1_545 1_554 ?
Ta1 Ba1 Ta1 70.5288(15) 1_545 1_555 ?
Ta1 Ba1 O1 90.0000(19) 1_545 1_445 ?
Ta1 Ba1 O1 144.736(2) 1_545 1_455 ?
Ta1 Ba1 O1 90.0000(19) 1_545 1_555 ?
Ta1 Ba1 O1 144.736(2) 1_545 5_454 ?
Ta1 Ba1 O1 90.0000(19) 1_545 5_455 ?
Ta1 Ba1 O1 90.0000(19) 1_545 5_554 ?
Ta1 Ba1 O1 90.0000(19) 1_545 9_544 ?
Ta1 Ba1 O1 144.736(2) 1_545 9_554 ?
Ta1 Ba1 O1 90.0000(19) 1_545 9_555 ?
Ta1 Ba1 N1 90.0000(19) 1_545 1_445 ?
Ta1 Ba1 N1 144.736(2) 1_545 1_455 ?
Ta1 Ba1 N1 90.0000(19) 1_545 1_555 ?
Ta1 Ba1 N1 144.736(2) 1_545 5_454 ?
Ta1 Ba1 N1 90.0000(19) 1_545 5_455 ?
Ta1 Ba1 N1 90.0000(19) 1_545 5_554 ?
Ta1 Ba1 N1 90.0000(19) 1_545 9_544 ?
Ta1 Ba1 N1 144.736(2) 1_545 9_554 ?
Ta1 Ba1 N1 90.0000(19) 1_545 9_555 ?
Ta1 Ba1 Ta1 70.5288(15) 1_554 1_555 ?
Ta1 Ba1 O1 144.736(2) 1_554 1_445 ?
Ta1 Ba1 O1 90.0000(19) 1_554 1_455 ?
Ta1 Ba1 O1 90.0000(19) 1_554 1_545 ?
Ta1 Ba1 O1 90.0000(19) 1_554 5_454 ?
Ta1 Ba1 O1 144.736(2) 1_554 5_455 ?
Ta1 Ba1 O1 90.0000(19) 1_554 5_555 ?
Ta1 Ba1 O1 90.0000(19) 1_554 9_544 ?
Ta1 Ba1 O1 144.736(2) 1_554 9_545 ?
Ta1 Ba1 O1 90.0000(19) 1_554 9_555 ?
Ta1 Ba1 N1 144.736(2) 1_554 1_445 ?
Ta1 Ba1 N1 90.0000(19) 1_554 1_455 ?
Ta1 Ba1 N1 90.0000(19) 1_554 1_545 ?
Ta1 Ba1 N1 90.0000(19) 1_554 5_454 ?
Ta1 Ba1 N1 144.736(2) 1_554 5_455 ?
Ta1 Ba1 N1 90.0000(19) 1_554 5_555 ?
Ta1 Ba1 N1 90.0000(19) 1_554 9_544 ?
Ta1 Ba1 N1 144.736(2) 1_554 9_545 ?
Ta1 Ba1 N1 90.0000(19) 1_554 9_555 ?
Ta1 Ba1 O1 144.736(2) 1_555 1_445 ?
Ta1 Ba1 O1 90.0000(19) 1_555 1_455 ?
Ta1 Ba1 O1 90.0000(19) 1_555 1_545 ?
Ta1 Ba1 O1 144.736(2) 1_555 5_454 ?
Ta1 Ba1 O1 90.0000(19) 1_555 5_455 ?
Ta1 Ba1 O1 90.0000(19) 1_555 5_554 ?
Ta1 Ba1 O1 144.736(2) 1_555 9_544 ?
Ta1 Ba1 O1 90.0000(19) 1_555 9_545 ?
Ta1 Ba1 O1 90.0000(19) 1_555 9_554 ?
Ta1 Ba1 N1 144.736(2) 1_555 1_445 ?
Ta1 Ba1 N1 90.0000(19) 1_555 1_455 ?
Ta1 Ba1 N1 90.0000(19) 1_555 1_545 ?
Ta1 Ba1 N1 144.736(2) 1_555 5_454 ?
Ta1 Ba1 N1 90.0000(19) 1_555 5_455 ?
Ta1 Ba1 N1 90.0000(19) 1_555 5_554 ?
Ta1 Ba1 N1 144.736(2) 1_555 9_544 ?
Ta1 Ba1 N1 90.0000(19) 1_555 9_545 ?
Ta1 Ba1 N1 90.0000(19) 1_555 9_554 ?
O1 Ba1 O1 90.000(2) 1_445 1_455 ?
O1 Ba1 O1 90.000(2) 1_445 1_545 ?
O1 Ba1 O1 180.000(3) 1_445 1_555 ?
O1 Ba1 O1 60.0000(12) 1_445 5_454 ?
O1 Ba1 O1 60.0000(12) 1_445 5_455 ?
O1 Ba1 O1 120.000(2) 1_445 5_554 ?
O1 Ba1 O1 120.000(2) 1_445 5_555 ?
O1 Ba1 O1 60.0000(12) 1_445 9_544 ?
O1 Ba1 O1 60.0000(12) 1_445 9_545 ?
O1 Ba1 O1 120.000(2) 1_445 9_554 ?
O1 Ba1 O1 120.000(2) 1_445 9_555 ?
O1 Ba1 N1 90.000(2) 1_445 1_455 ?
O1 Ba1 N1 90.000(2) 1_445 1_545 ?
O1 Ba1 N1 180.000(3) 1_445 1_555 ?
O1 Ba1 N1 60.0000(12) 1_445 5_454 ?
O1 Ba1 N1 60.0000(12) 1_445 5_455 ?
O1 Ba1 N1 120.000(2) 1_445 5_554 ?
O1 Ba1 N1 120.000(2) 1_445 5_555 ?
O1 Ba1 N1 60.0000(12) 1_445 9_544 ?
O1 Ba1 N1 60.0000(12) 1_445 9_545 ?
O1 Ba1 N1 120.000(2) 1_445 9_554 ?
O1 Ba1 N1 120.000(2) 1_445 9_555 ?
O1 Ba1 O1 180.000(3) 1_455 1_545 ?
O1 Ba1 O1 90.000(2) 1_455 1_555 ?
O1 Ba1 O1 60.0000(12) 1_455 5_454 ?
O1 Ba1 O1 60.0000(12) 1_455 5_455 ?
O1 Ba1 O1 120.000(2) 1_455 5_554 ?
O1 Ba1 O1 120.000(2) 1_455 5_555 ?
O1 Ba1 O1 120.000(2) 1_455 9_544 ?
O1 Ba1 O1 120.000(2) 1_455 9_545 ?
O1 Ba1 O1 60.0000(12) 1_455 9_554 ?
O1 Ba1 O1 60.0000(12) 1_455 9_555 ?
O1 Ba1 N1 90.000(2) 1_455 1_445 ?
O1 Ba1 N1 180.000(3) 1_455 1_545 ?
O1 Ba1 N1 90.000(2) 1_455 1_555 ?
O1 Ba1 N1 60.0000(12) 1_455 5_454 ?
O1 Ba1 N1 60.0000(12) 1_455 5_455 ?
O1 Ba1 N1 120.000(2) 1_455 5_554 ?
O1 Ba1 N1 120.000(2) 1_455 5_555 ?
O1 Ba1 N1 120.000(2) 1_455 9_544 ?
O1 Ba1 N1 120.000(2) 1_455 9_545 ?
O1 Ba1 N1 60.0000(12) 1_455 9_554 ?
O1 Ba1 N1 60.0000(12) 1_455 9_555 ?
O1 Ba1 O1 90.000(2) 1_545 1_555 ?
O1 Ba1 O1 120.000(2) 1_545 5_454 ?
O1 Ba1 O1 120.000(2) 1_545 5_455 ?
O1 Ba1 O1 60.0000(12) 1_545 5_554 ?
O1 Ba1 O1 60.0000(12) 1_545 5_555 ?
O1 Ba1 O1 60.0000(12) 1_545 9_544 ?
O1 Ba1 O1 60.0000(12) 1_545 9_545 ?
O1 Ba1 O1 120.000(2) 1_545 9_554 ?
O1 Ba1 O1 120.000(2) 1_545 9_555 ?
O1 Ba1 N1 90.000(2) 1_545 1_445 ?
O1 Ba1 N1 180.000(3) 1_545 1_455 ?
O1 Ba1 N1 90.000(2) 1_545 1_555 ?
O1 Ba1 N1 120.000(2) 1_545 5_454 ?
O1 Ba1 N1 120.000(2) 1_545 5_455 ?
O1 Ba1 N1 60.0000(12) 1_545 5_554 ?
O1 Ba1 N1 60.0000(12) 1_545 5_555 ?
O1 Ba1 N1 60.0000(12) 1_545 9_544 ?
O1 Ba1 N1 60.0000(12) 1_545 9_545 ?
O1 Ba1 N1 120.000(2) 1_545 9_554 ?
O1 Ba1 N1 120.000(2) 1_545 9_555 ?
O1 Ba1 O1 120.000(2) 1_555 5_454 ?
O1 Ba1 O1 120.000(2) 1_555 5_455 ?
O1 Ba1 O1 60.0000(12) 1_555 5_554 ?
O1 Ba1 O1 60.0000(12) 1_555 5_555 ?
O1 Ba1 O1 120.000(2) 1_555 9_544 ?
O1 Ba1 O1 120.000(2) 1_555 9_545 ?
O1 Ba1 O1 60.0000(12) 1_555 9_554 ?
O1 Ba1 O1 60.0000(12) 1_555 9_555 ?
O1 Ba1 N1 180.000(3) 1_555 1_445 ?
O1 Ba1 N1 90.000(2) 1_555 1_455 ?
O1 Ba1 N1 90.000(2) 1_555 1_545 ?
O1 Ba1 N1 120.000(2) 1_555 5_454 ?
O1 Ba1 N1 120.000(2) 1_555 5_455 ?
O1 Ba1 N1 60.0000(12) 1_555 5_554 ?
O1 Ba1 N1 60.0000(12) 1_555 5_555 ?
O1 Ba1 N1 120.000(2) 1_555 9_544 ?
O1 Ba1 N1 120.000(2) 1_555 9_545 ?
O1 Ba1 N1 60.0000(12) 1_555 9_554 ?
O1 Ba1 N1 60.0000(12) 1_555 9_555 ?
O1 Ba1 O1 90.000(2) 5_454 5_455 ?
O1 Ba1 O1 90.000(2) 5_454 5_554 ?
O1 Ba1 O1 180.000(3) 5_454 5_555 ?
O1 Ba1 O1 60.0000(12) 5_454 9_544 ?
O1 Ba1 O1 120.000(2) 5_454 9_545 ?
O1 Ba1 O1 60.0000(12) 5_454 9_554 ?
O1 Ba1 O1 120.000(2) 5_454 9_555 ?
O1 Ba1 N1 60.0000(12) 5_454 1_445 ?
O1 Ba1 N1 60.0000(12) 5_454 1_455 ?
O1 Ba1 N1 120.000(2) 5_454 1_545 ?
O1 Ba1 N1 120.000(2) 5_454 1_555 ?
O1 Ba1 N1 90.000(2) 5_454 5_455 ?
O1 Ba1 N1 90.000(2) 5_454 5_554 ?
O1 Ba1 N1 180.000(3) 5_454 5_555 ?
O1 Ba1 N1 60.0000(12) 5_454 9_544 ?
O1 Ba1 N1 120.000(2) 5_454 9_545 ?
O1 Ba1 N1 60.0000(12) 5_454 9_554 ?
O1 Ba1 N1 120.000(2) 5_454 9_555 ?
O1 Ba1 O1 180.000(3) 5_455 5_554 ?
O1 Ba1 O1 90.000(2) 5_455 5_555 ?
O1 Ba1 O1 120.000(2) 5_455 9_544 ?
O1 Ba1 O1 60.0000(12) 5_455 9_545 ?
O1 Ba1 O1 120.000(2) 5_455 9_554 ?
O1 Ba1 O1 60.0000(12) 5_455 9_555 ?
O1 Ba1 N1 60.0000(12) 5_455 1_445 ?
O1 Ba1 N1 60.0000(12) 5_455 1_455 ?
O1 Ba1 N1 120.000(2) 5_455 1_545 ?
O1 Ba1 N1 120.000(2) 5_455 1_555 ?
O1 Ba1 N1 90.000(2) 5_455 5_454 ?
O1 Ba1 N1 180.000(3) 5_455 5_554 ?
O1 Ba1 N1 90.000(2) 5_455 5_555 ?
O1 Ba1 N1 120.000(2) 5_455 9_544 ?
O1 Ba1 N1 60.0000(12) 5_455 9_545 ?
O1 Ba1 N1 120.000(2) 5_455 9_554 ?
O1 Ba1 N1 60.0000(12) 5_455 9_555 ?
O1 Ba1 O1 90.000(2) 5_554 5_555 ?
O1 Ba1 O1 60.0000(12) 5_554 9_544 ?
O1 Ba1 O1 120.000(2) 5_554 9_545 ?
O1 Ba1 O1 60.0000(12) 5_554 9_554 ?
O1 Ba1 O1 120.000(2) 5_554 9_555 ?
O1 Ba1 N1 120.000(2) 5_554 1_445 ?
O1 Ba1 N1 120.000(2) 5_554 1_455 ?
O1 Ba1 N1 60.0000(12) 5_554 1_545 ?
O1 Ba1 N1 60.0000(12) 5_554 1_555 ?
O1 Ba1 N1 90.000(2) 5_554 5_454 ?
O1 Ba1 N1 180.000(3) 5_554 5_455 ?
O1 Ba1 N1 90.000(2) 5_554 5_555 ?
O1 Ba1 N1 60.0000(12) 5_554 9_544 ?
O1 Ba1 N1 120.000(2) 5_554 9_545 ?
O1 Ba1 N1 60.0000(12) 5_554 9_554 ?
O1 Ba1 N1 120.000(2) 5_554 9_555 ?
O1 Ba1 O1 120.000(2) 5_555 9_544 ?
O1 Ba1 O1 60.0000(12) 5_555 9_545 ?
O1 Ba1 O1 120.000(2) 5_555 9_554 ?
O1 Ba1 O1 60.0000(12) 5_555 9_555 ?
O1 Ba1 N1 120.000(2) 5_555 1_445 ?
O1 Ba1 N1 120.000(2) 5_555 1_455 ?
O1 Ba1 N1 60.0000(12) 5_555 1_545 ?
O1 Ba1 N1 60.0000(12) 5_555 1_555 ?
O1 Ba1 N1 180.000(3) 5_555 5_454 ?
O1 Ba1 N1 90.000(2) 5_555 5_455 ?
O1 Ba1 N1 90.000(2) 5_555 5_554 ?
O1 Ba1 N1 120.000(2) 5_555 9_544 ?
O1 Ba1 N1 60.0000(12) 5_555 9_545 ?
O1 Ba1 N1 120.000(2) 5_555 9_554 ?
O1 Ba1 N1 60.0000(12) 5_555 9_555 ?
O1 Ba1 O1 90.000(2) 9_544 9_545 ?
O1 Ba1 O1 90.000(2) 9_544 9_554 ?
O1 Ba1 O1 180.000(3) 9_544 9_555 ?
O1 Ba1 N1 60.0000(12) 9_544 1_445 ?
O1 Ba1 N1 120.000(2) 9_544 1_455 ?
O1 Ba1 N1 60.0000(12) 9_544 1_545 ?
O1 Ba1 N1 120.000(2) 9_544 1_555 ?
O1 Ba1 N1 60.0000(12) 9_544 5_454 ?
O1 Ba1 N1 120.000(2) 9_544 5_455 ?
O1 Ba1 N1 60.0000(12) 9_544 5_554 ?
O1 Ba1 N1 120.000(2) 9_544 5_555 ?
O1 Ba1 N1 90.000(2) 9_544 9_545 ?
O1 Ba1 N1 90.000(2) 9_544 9_554 ?
O1 Ba1 N1 180.000(3) 9_544 9_555 ?
O1 Ba1 O1 180.000(3) 9_545 9_554 ?
O1 Ba1 O1 90.000(2) 9_545 9_555 ?
O1 Ba1 N1 60.0000(12) 9_545 1_445 ?
O1 Ba1 N1 120.000(2) 9_545 1_455 ?
O1 Ba1 N1 60.0000(12) 9_545 1_545 ?
O1 Ba1 N1 120.000(2) 9_545 1_555 ?
O1 Ba1 N1 120.000(2) 9_545 5_454 ?
O1 Ba1 N1 60.0000(12) 9_545 5_455 ?
O1 Ba1 N1 120.000(2) 9_545 5_554 ?
O1 Ba1 N1 60.0000(12) 9_545 5_555 ?
O1 Ba1 N1 90.000(2) 9_545 9_544 ?
O1 Ba1 N1 180.000(3) 9_545 9_554 ?
O1 Ba1 N1 90.000(2) 9_545 9_555 ?
O1 Ba1 O1 90.000(2) 9_554 9_555 ?
O1 Ba1 N1 120.000(2) 9_554 1_445 ?
O1 Ba1 N1 60.0000(12) 9_554 1_455 ?
O1 Ba1 N1 120.000(2) 9_554 1_545 ?
O1 Ba1 N1 60.0000(12) 9_554 1_555 ?
O1 Ba1 N1 60.0000(12) 9_554 5_454 ?
O1 Ba1 N1 120.000(2) 9_554 5_455 ?
O1 Ba1 N1 60.0000(12) 9_554 5_554 ?
O1 Ba1 N1 120.000(2) 9_554 5_555 ?
O1 Ba1 N1 90.000(2) 9_554 9_544 ?
O1 Ba1 N1 180.000(3) 9_554 9_545 ?
O1 Ba1 N1 90.000(2) 9_554 9_555 ?
O1 Ba1 N1 120.000(2) 9_555 1_445 ?
O1 Ba1 N1 60.0000(12) 9_555 1_455 ?
O1 Ba1 N1 120.000(2) 9_555 1_545 ?
O1 Ba1 N1 60.0000(12) 9_555 1_555 ?
O1 Ba1 N1 120.000(2) 9_555 5_454 ?
O1 Ba1 N1 60.0000(12) 9_555 5_455 ?
O1 Ba1 N1 120.000(2) 9_555 5_554 ?
O1 Ba1 N1 60.0000(12) 9_555 5_555 ?
O1 Ba1 N1 180.000(3) 9_555 9_544 ?
O1 Ba1 N1 90.000(2) 9_555 9_545 ?
O1 Ba1 N1 90.000(2) 9_555 9_554 ?
N1 Ba1 N1 90.000(2) 1_445 1_455 ?
N1 Ba1 N1 90.000(2) 1_445 1_545 ?
N1 Ba1 N1 180.000(3) 1_445 1_555 ?
N1 Ba1 N1 60.0000(12) 1_445 5_454 ?
N1 Ba1 N1 60.0000(12) 1_445 5_455 ?
N1 Ba1 N1 120.000(2) 1_445 5_554 ?
N1 Ba1 N1 120.000(2) 1_445 5_555 ?
N1 Ba1 N1 60.0000(12) 1_445 9_544 ?
N1 Ba1 N1 60.0000(12) 1_445 9_545 ?
N1 Ba1 N1 120.000(2) 1_445 9_554 ?
N1 Ba1 N1 120.000(2) 1_445 9_555 ?
N1 Ba1 N1 180.000(3) 1_455 1_545 ?
N1 Ba1 N1 90.000(2) 1_455 1_555 ?
N1 Ba1 N1 60.0000(12) 1_455 5_454 ?
N1 Ba1 N1 60.0000(12) 1_455 5_455 ?
N1 Ba1 N1 120.000(2) 1_455 5_554 ?
N1 Ba1 N1 120.000(2) 1_455 5_555 ?
N1 Ba1 N1 120.000(2) 1_455 9_544 ?
N1 Ba1 N1 120.000(2) 1_455 9_545 ?
N1 Ba1 N1 60.0000(12) 1_455 9_554 ?
N1 Ba1 N1 60.0000(12) 1_455 9_555 ?
N1 Ba1 N1 90.000(2) 1_545 1_555 ?
N1 Ba1 N1 120.000(2) 1_545 5_454 ?
N1 Ba1 N1 120.000(2) 1_545 5_455 ?
N1 Ba1 N1 60.0000(12) 1_545 5_554 ?
N1 Ba1 N1 60.0000(12) 1_545 5_555 ?
N1 Ba1 N1 60.0000(12) 1_545 9_544 ?
N1 Ba1 N1 60.0000(12) 1_545 9_545 ?
N1 Ba1 N1 120.000(2) 1_545 9_554 ?
N1 Ba1 N1 120.000(2) 1_545 9_555 ?
N1 Ba1 N1 120.000(2) 1_555 5_454 ?
N1 Ba1 N1 120.000(2) 1_555 5_455 ?
N1 Ba1 N1 60.0000(12) 1_555 5_554 ?
N1 Ba1 N1 60.0000(12) 1_555 5_555 ?
N1 Ba1 N1 120.000(2) 1_555 9_544 ?
N1 Ba1 N1 120.000(2) 1_555 9_545 ?
N1 Ba1 N1 60.0000(12) 1_555 9_554 ?
N1 Ba1 N1 60.0000(12) 1_555 9_555 ?
N1 Ba1 N1 90.000(2) 5_454 5_455 ?
N1 Ba1 N1 90.000(2) 5_454 5_554 ?
N1 Ba1 N1 180.000(3) 5_454 5_555 ?
N1 Ba1 N1 60.0000(12) 5_454 9_544 ?
N1 Ba1 N1 120.000(2) 5_454 9_545 ?
N1 Ba1 N1 60.0000(12) 5_454 9_554 ?
N1 Ba1 N1 120.000(2) 5_454 9_555 ?
N1 Ba1 N1 180.000(3) 5_455 5_554 ?
N1 Ba1 N1 90.000(2) 5_455 5_555 ?
N1 Ba1 N1 120.000(2) 5_455 9_544 ?
N1 Ba1 N1 60.0000(12) 5_455 9_545 ?
N1 Ba1 N1 120.000(2) 5_455 9_554 ?
N1 Ba1 N1 60.0000(12) 5_455 9_555 ?
N1 Ba1 N1 90.000(2) 5_554 5_555 ?
N1 Ba1 N1 60.0000(12) 5_554 9_544 ?
N1 Ba1 N1 120.000(2) 5_554 9_545 ?
N1 Ba1 N1 60.0000(12) 5_554 9_554 ?
N1 Ba1 N1 120.000(2) 5_554 9_555 ?
N1 Ba1 N1 120.000(2) 5_555 9_544 ?
N1 Ba1 N1 60.0000(12) 5_555 9_545 ?
N1 Ba1 N1 120.000(2) 5_555 9_554 ?
N1 Ba1 N1 60.0000(12) 5_555 9_555 ?
N1 Ba1 N1 90.000(2) 9_544 9_545 ?
N1 Ba1 N1 90.000(2) 9_544 9_554 ?
N1 Ba1 N1 180.000(3) 9_544 9_555 ?
N1 Ba1 N1 180.000(3) 9_545 9_554 ?
N1 Ba1 N1 90.000(2) 9_545 9_555 ?
N1 Ba1 N1 90.000(2) 9_554 9_555 ?
Ba1 Ta1 Ba1 70.5288(15) 1_555 1_556 ?
Ba1 Ta1 Ba1 70.5288(15) 1_555 1_565 ?
Ba1 Ta1 Ba1 109.471(2) 1_555 1_566 ?
Ba1 Ta1 Ba1 70.5288(15) 1_555 1_655 ?
Ba1 Ta1 Ba1 109.471(2) 1_555 1_656 ?
Ba1 Ta1 Ba1 109.471(2) 1_555 1_665 ?
Ba1 Ta1 Ba1 180.000(2) 1_555 1_666 ?
Ba1 Ta1 O1 54.7356(14) 1_555 1_555 ?
Ba1 Ta1 O1 125.264(3) 1_555 1_556 ?
Ba1 Ta1 O1 54.7356(14) 1_555 5_555 ?
Ba1 Ta1 O1 125.264(3) 1_555 5_565 ?
Ba1 Ta1 O1 54.7356(14) 1_555 9_555 ?
Ba1 Ta1 O1 125.264(3) 1_555 9_655 ?
Ba1 Ta1 N1 54.7356(14) 1_555 1_555 ?
Ba1 Ta1 N1 125.264(3) 1_555 1_556 ?
Ba1 Ta1 N1 54.7356(14) 1_555 5_555 ?
Ba1 Ta1 N1 125.264(3) 1_555 5_565 ?
Ba1 Ta1 N1 54.7356(14) 1_555 9_555 ?
Ba1 Ta1 N1 125.264(3) 1_555 9_655 ?
Ba1 Ta1 Ba1 109.471(2) 1_556 1_565 ?
Ba1 Ta1 Ba1 70.5288(15) 1_556 1_566 ?
Ba1 Ta1 Ba1 109.471(2) 1_556 1_655 ?
Ba1 Ta1 Ba1 70.5288(15) 1_556 1_656 ?
Ba1 Ta1 Ba1 180.000(2) 1_556 1_665 ?
Ba1 Ta1 Ba1 109.471(2) 1_556 1_666 ?
Ba1 Ta1 O1 125.264(3) 1_556 1_555 ?
Ba1 Ta1 O1 54.7356(14) 1_556 1_556 ?
Ba1 Ta1 O1 54.7356(14) 1_556 5_555 ?
Ba1 Ta1 O1 125.264(3) 1_556 5_565 ?
Ba1 Ta1 O1 54.7356(14) 1_556 9_555 ?
Ba1 Ta1 O1 125.264(3) 1_556 9_655 ?
Ba1 Ta1 N1 125.264(3) 1_556 1_555 ?
Ba1 Ta1 N1 54.7356(14) 1_556 1_556 ?
Ba1 Ta1 N1 54.7356(14) 1_556 5_555 ?
Ba1 Ta1 N1 125.264(3) 1_556 5_565 ?
Ba1 Ta1 N1 54.7356(14) 1_556 9_555 ?
Ba1 Ta1 N1 125.264(3) 1_556 9_655 ?
Ba1 Ta1 Ba1 70.5288(15) 1_565 1_566 ?
Ba1 Ta1 Ba1 109.471(2) 1_565 1_655 ?
Ba1 Ta1 Ba1 180.000(2) 1_565 1_656 ?
Ba1 Ta1 Ba1 70.5288(15) 1_565 1_665 ?
Ba1 Ta1 Ba1 109.471(2) 1_565 1_666 ?
Ba1 Ta1 O1 54.7356(14) 1_565 1_555 ?
Ba1 Ta1 O1 125.264(3) 1_565 1_556 ?
Ba1 Ta1 O1 125.264(3) 1_565 5_555 ?
Ba1 Ta1 O1 54.7356(14) 1_565 5_565 ?
Ba1 Ta1 O1 54.7356(14) 1_565 9_555 ?
Ba1 Ta1 O1 125.264(3) 1_565 9_655 ?
Ba1 Ta1 N1 54.7356(14) 1_565 1_555 ?
Ba1 Ta1 N1 125.264(3) 1_565 1_556 ?
Ba1 Ta1 N1 125.264(3) 1_565 5_555 ?
Ba1 Ta1 N1 54.7356(14) 1_565 5_565 ?
Ba1 Ta1 N1 54.7356(14) 1_565 9_555 ?
Ba1 Ta1 N1 125.264(3) 1_565 9_655 ?
Ba1 Ta1 Ba1 180.000(2) 1_566 1_655 ?
Ba1 Ta1 Ba1 109.471(2) 1_566 1_656 ?
Ba1 Ta1 Ba1 109.471(2) 1_566 1_665 ?
Ba1 Ta1 Ba1 70.5288(15) 1_566 1_666 ?
Ba1 Ta1 O1 125.264(3) 1_566 1_555 ?
Ba1 Ta1 O1 54.7356(14) 1_566 1_556 ?
Ba1 Ta1 O1 125.264(3) 1_566 5_555 ?
Ba1 Ta1 O1 54.7356(14) 1_566 5_565 ?
Ba1 Ta1 O1 54.7356(14) 1_566 9_555 ?
Ba1 Ta1 O1 125.264(3) 1_566 9_655 ?
Ba1 Ta1 N1 125.264(3) 1_566 1_555 ?
Ba1 Ta1 N1 54.7356(14) 1_566 1_556 ?
Ba1 Ta1 N1 125.264(3) 1_566 5_555 ?
Ba1 Ta1 N1 54.7356(14) 1_566 5_565 ?
Ba1 Ta1 N1 54.7356(14) 1_566 9_555 ?
Ba1 Ta1 N1 125.264(3) 1_566 9_655 ?
Ba1 Ta1 Ba1 70.5288(15) 1_655 1_656 ?
Ba1 Ta1 Ba1 70.5288(15) 1_655 1_665 ?
Ba1 Ta1 Ba1 109.471(2) 1_655 1_666 ?
Ba1 Ta1 O1 54.7356(14) 1_655 1_555 ?
Ba1 Ta1 O1 125.264(3) 1_655 1_556 ?
Ba1 Ta1 O1 54.7356(14) 1_655 5_555 ?
Ba1 Ta1 O1 125.264(3) 1_655 5_565 ?
Ba1 Ta1 O1 125.264(3) 1_655 9_555 ?
Ba1 Ta1 O1 54.7356(14) 1_655 9_655 ?
Ba1 Ta1 N1 54.7356(14) 1_655 1_555 ?
Ba1 Ta1 N1 125.264(3) 1_655 1_556 ?
Ba1 Ta1 N1 54.7356(14) 1_655 5_555 ?
Ba1 Ta1 N1 125.264(3) 1_655 5_565 ?
Ba1 Ta1 N1 125.264(3) 1_655 9_555 ?
Ba1 Ta1 N1 54.7356(14) 1_655 9_655 ?
Ba1 Ta1 Ba1 109.471(2) 1_656 1_665 ?
Ba1 Ta1 Ba1 70.5288(15) 1_656 1_666 ?
Ba1 Ta1 O1 125.264(3) 1_656 1_555 ?
Ba1 Ta1 O1 54.7356(14) 1_656 1_556 ?
Ba1 Ta1 O1 54.7356(14) 1_656 5_555 ?
Ba1 Ta1 O1 125.264(3) 1_656 5_565 ?
Ba1 Ta1 O1 125.264(3) 1_656 9_555 ?
Ba1 Ta1 O1 54.7356(14) 1_656 9_655 ?
Ba1 Ta1 N1 125.264(3) 1_656 1_555 ?
Ba1 Ta1 N1 54.7356(14) 1_656 1_556 ?
Ba1 Ta1 N1 54.7356(14) 1_656 5_555 ?
Ba1 Ta1 N1 125.264(3) 1_656 5_565 ?
Ba1 Ta1 N1 125.264(3) 1_656 9_555 ?
Ba1 Ta1 N1 54.7356(14) 1_656 9_655 ?
Ba1 Ta1 Ba1 70.5288(15) 1_665 1_666 ?
Ba1 Ta1 O1 54.7356(14) 1_665 1_555 ?
Ba1 Ta1 O1 125.264(3) 1_665 1_556 ?
Ba1 Ta1 O1 125.264(3) 1_665 5_555 ?
Ba1 Ta1 O1 54.7356(14) 1_665 5_565 ?
Ba1 Ta1 O1 125.264(3) 1_665 9_555 ?
Ba1 Ta1 O1 54.7356(14) 1_665 9_655 ?
Ba1 Ta1 N1 54.7356(14) 1_665 1_555 ?
Ba1 Ta1 N1 125.264(3) 1_665 1_556 ?
Ba1 Ta1 N1 125.264(3) 1_665 5_555 ?
Ba1 Ta1 N1 54.7356(14) 1_665 5_565 ?
Ba1 Ta1 N1 125.264(3) 1_665 9_555 ?
Ba1 Ta1 N1 54.7356(14) 1_665 9_655 ?
Ba1 Ta1 O1 125.264(3) 1_666 1_555 ?
Ba1 Ta1 O1 54.7356(14) 1_666 1_556 ?
Ba1 Ta1 O1 125.264(3) 1_666 5_555 ?
Ba1 Ta1 O1 54.7356(14) 1_666 5_565 ?
Ba1 Ta1 O1 125.264(3) 1_666 9_555 ?
Ba1 Ta1 O1 54.7356(14) 1_666 9_655 ?
Ba1 Ta1 N1 125.264(3) 1_666 1_555 ?
Ba1 Ta1 N1 54.7356(14) 1_666 1_556 ?
Ba1 Ta1 N1 125.264(3) 1_666 5_555 ?
Ba1 Ta1 N1 54.7356(14) 1_666 5_565 ?
Ba1 Ta1 N1 125.264(3) 1_666 9_555 ?
Ba1 Ta1 N1 54.7356(14) 1_666 9_655 ?
O1 Ta1 O1 180.000(4) 1_555 1_556 ?
O1 Ta1 O1 90.0000(20) 1_555 5_555 ?
O1 Ta1 O1 90.0000(20) 1_555 5_565 ?
O1 Ta1 O1 90.0000(20) 1_555 9_555 ?
O1 Ta1 O1 90.0000(20) 1_555 9_655 ?
O1 Ta1 N1 180.000(4) 1_555 1_556 ?
O1 Ta1 N1 90.0000(20) 1_555 5_555 ?
O1 Ta1 N1 90.0000(20) 1_555 5_565 ?
O1 Ta1 N1 90.0000(20) 1_555 9_555 ?
O1 Ta1 N1 90.0000(20) 1_555 9_655 ?
O1 Ta1 O1 90.0000(20) 1_556 5_555 ?
O1 Ta1 O1 90.0000(20) 1_556 5_565 ?
O1 Ta1 O1 90.0000(20) 1_556 9_555 ?
O1 Ta1 O1 90.0000(20) 1_556 9_655 ?
O1 Ta1 N1 180.000(4) 1_556 1_555 ?
O1 Ta1 N1 90.0000(20) 1_556 5_555 ?
O1 Ta1 N1 90.0000(20) 1_556 5_565 ?
O1 Ta1 N1 90.0000(20) 1_556 9_555 ?
O1 Ta1 N1 90.0000(20) 1_556 9_655 ?
O1 Ta1 O1 180.000(4) 5_555 5_565 ?
O1 Ta1 O1 90.0000(20) 5_555 9_555 ?
O1 Ta1 O1 90.0000(20) 5_555 9_655 ?
O1 Ta1 N1 90.0000(20) 5_555 1_555 ?
O1 Ta1 N1 90.0000(20) 5_555 1_556 ?
O1 Ta1 N1 180.000(4) 5_555 5_565 ?
O1 Ta1 N1 90.0000(20) 5_555 9_555 ?
O1 Ta1 N1 90.0000(20) 5_555 9_655 ?
O1 Ta1 O1 90.0000(20) 5_565 9_555 ?
O1 Ta1 O1 90.0000(20) 5_565 9_655 ?
O1 Ta1 N1 90.0000(20) 5_565 1_555 ?
O1 Ta1 N1 90.0000(20) 5_565 1_556 ?
O1 Ta1 N1 180.000(4) 5_565 5_555 ?
O1 Ta1 N1 90.0000(20) 5_565 9_555 ?
O1 Ta1 N1 90.0000(20) 5_565 9_655 ?
O1 Ta1 O1 180.000(4) 9_555 9_655 ?
O1 Ta1 N1 90.0000(20) 9_555 1_555 ?
O1 Ta1 N1 90.0000(20) 9_555 1_556 ?
O1 Ta1 N1 90.0000(20) 9_555 5_555 ?
O1 Ta1 N1 90.0000(20) 9_555 5_565 ?
O1 Ta1 N1 180.000(4) 9_555 9_655 ?
O1 Ta1 N1 90.0000(20) 9_655 1_555 ?
O1 Ta1 N1 90.0000(20) 9_655 1_556 ?
O1 Ta1 N1 90.0000(20) 9_655 5_555 ?
O1 Ta1 N1 90.0000(20) 9_655 5_565 ?
O1 Ta1 N1 180.000(4) 9_655 9_555 ?
N1 Ta1 N1 180.000(4) 1_555 1_556 ?
N1 Ta1 N1 90.0000(20) 1_555 5_555 ?
N1 Ta1 N1 90.0000(20) 1_555 5_565 ?
N1 Ta1 N1 90.0000(20) 1_555 9_555 ?
N1 Ta1 N1 90.0000(20) 1_555 9_655 ?
N1 Ta1 N1 90.0000(20) 1_556 5_555 ?
N1 Ta1 N1 90.0000(20) 1_556 5_565 ?
N1 Ta1 N1 90.0000(20) 1_556 9_555 ?
N1 Ta1 N1 90.0000(20) 1_556 9_655 ?
N1 Ta1 N1 180.000(4) 5_555 5_565 ?
N1 Ta1 N1 90.0000(20) 5_555 9_555 ?
N1 Ta1 N1 90.0000(20) 5_555 9_655 ?
N1 Ta1 N1 90.0000(20) 5_565 9_555 ?
N1 Ta1 N1 90.0000(20) 5_565 9_655 ?
N1 Ta1 N1 180.000(4) 9_555 9_655 ?
Ba1 O1 Ba1 90.000(2) 1_555 1_565 ?
Ba1 O1 Ba1 90.000(2) 1_555 1_655 ?
Ba1 O1 Ba1 180.000(3) 1_555 1_665 ?
Ba1 O1 Ta1 90.0000(17) 1_555 1_554 ?
Ba1 O1 Ta1 90.0000(17) 1_555 1_555 ?
Ba1 O1 O1 60.0000(12) 1_555 5_554 ?
Ba1 O1 O1 60.0000(12) 1_555 5_555 ?
Ba1 O1 O1 120.000(2) 1_555 5_564 ?
Ba1 O1 O1 120.000(2) 1_555 5_565 ?
Ba1 O1 O1 60.0000(12) 1_555 9_554 ?
Ba1 O1 O1 60.0000(12) 1_555 9_555 ?
Ba1 O1 O1 120.000(2) 1_555 9_654 ?
Ba1 O1 O1 120.000(2) 1_555 9_655 ?
Ba1 O1 N1 60.0000(12) 1_555 5_554 ?
Ba1 O1 N1 60.0000(12) 1_555 5_555 ?
Ba1 O1 N1 120.000(2) 1_555 5_564 ?
Ba1 O1 N1 120.000(2) 1_555 5_565 ?
Ba1 O1 N1 60.0000(12) 1_555 9_554 ?
Ba1 O1 N1 60.0000(12) 1_555 9_555 ?
Ba1 O1 N1 120.000(2) 1_555 9_654 ?
Ba1 O1 N1 120.000(2) 1_555 9_655 ?
Ba1 O1 Ba1 180.000(3) 1_565 1_655 ?
Ba1 O1 Ba1 90.000(2) 1_565 1_665 ?
Ba1 O1 Ta1 90.0000(17) 1_565 1_554 ?
Ba1 O1 Ta1 90.0000(17) 1_565 1_555 ?
Ba1 O1 O1 120.000(2) 1_565 5_554 ?
Ba1 O1 O1 120.000(2) 1_565 5_555 ?
Ba1 O1 O1 60.0000(12) 1_565 5_564 ?
Ba1 O1 O1 60.0000(12) 1_565 5_565 ?
Ba1 O1 O1 60.0000(12) 1_565 9_554 ?
Ba1 O1 O1 60.0000(12) 1_565 9_555 ?
Ba1 O1 O1 120.000(2) 1_565 9_654 ?
Ba1 O1 O1 120.000(2) 1_565 9_655 ?
Ba1 O1 N1 120.000(2) 1_565 5_554 ?
Ba1 O1 N1 120.000(2) 1_565 5_555 ?
Ba1 O1 N1 60.0000(12) 1_565 5_564 ?
Ba1 O1 N1 60.0000(12) 1_565 5_565 ?
Ba1 O1 N1 60.0000(12) 1_565 9_554 ?
Ba1 O1 N1 60.0000(12) 1_565 9_555 ?
Ba1 O1 N1 120.000(2) 1_565 9_654 ?
Ba1 O1 N1 120.000(2) 1_565 9_655 ?
Ba1 O1 Ba1 90.000(2) 1_655 1_665 ?
Ba1 O1 Ta1 90.0000(17) 1_655 1_554 ?
Ba1 O1 Ta1 90.0000(17) 1_655 1_555 ?
Ba1 O1 O1 60.0000(12) 1_655 5_554 ?
Ba1 O1 O1 60.0000(12) 1_655 5_555 ?
Ba1 O1 O1 120.000(2) 1_655 5_564 ?
Ba1 O1 O1 120.000(2) 1_655 5_565 ?
Ba1 O1 O1 120.000(2) 1_655 9_554 ?
Ba1 O1 O1 120.000(2) 1_655 9_555 ?
Ba1 O1 O1 60.0000(12) 1_655 9_654 ?
Ba1 O1 O1 60.0000(12) 1_655 9_655 ?
Ba1 O1 N1 60.0000(12) 1_655 5_554 ?
Ba1 O1 N1 60.0000(12) 1_655 5_555 ?
Ba1 O1 N1 120.000(2) 1_655 5_564 ?
Ba1 O1 N1 120.000(2) 1_655 5_565 ?
Ba1 O1 N1 120.000(2) 1_655 9_554 ?
Ba1 O1 N1 120.000(2) 1_655 9_555 ?
Ba1 O1 N1 60.0000(12) 1_655 9_654 ?
Ba1 O1 N1 60.0000(12) 1_655 9_655 ?
Ba1 O1 Ta1 90.0000(17) 1_665 1_554 ?
Ba1 O1 Ta1 90.0000(17) 1_665 1_555 ?
Ba1 O1 O1 120.000(2) 1_665 5_554 ?
Ba1 O1 O1 120.000(2) 1_665 5_555 ?
Ba1 O1 O1 60.0000(12) 1_665 5_564 ?
Ba1 O1 O1 60.0000(12) 1_665 5_565 ?
Ba1 O1 O1 120.000(2) 1_665 9_554 ?
Ba1 O1 O1 120.000(2) 1_665 9_555 ?
Ba1 O1 O1 60.0000(12) 1_665 9_654 ?
Ba1 O1 O1 60.0000(12) 1_665 9_655 ?
Ba1 O1 N1 120.000(2) 1_665 5_554 ?
Ba1 O1 N1 120.000(2) 1_665 5_555 ?
Ba1 O1 N1 60.0000(12) 1_665 5_564 ?
Ba1 O1 N1 60.0000(12) 1_665 5_565 ?
Ba1 O1 N1 120.000(2) 1_665 9_554 ?
Ba1 O1 N1 120.000(2) 1_665 9_555 ?
Ba1 O1 N1 60.0000(12) 1_665 9_654 ?
Ba1 O1 N1 60.0000(12) 1_665 9_655 ?
Ta1 O1 Ta1 180.000(4) 1_554 1_555 ?
Ta1 O1 O1 45.0000(14) 1_554 5_554 ?
Ta1 O1 O1 135.000(3) 1_554 5_555 ?
Ta1 O1 O1 45.0000(14) 1_554 5_564 ?
Ta1 O1 O1 135.000(3) 1_554 5_565 ?
Ta1 O1 O1 45.0000(14) 1_554 9_554 ?
Ta1 O1 O1 135.000(3) 1_554 9_555 ?
Ta1 O1 O1 45.0000(14) 1_554 9_654 ?
Ta1 O1 O1 135.000(3) 1_554 9_655 ?
Ta1 O1 N1 45.0000(14) 1_554 5_554 ?
Ta1 O1 N1 135.000(3) 1_554 5_555 ?
Ta1 O1 N1 45.0000(14) 1_554 5_564 ?
Ta1 O1 N1 135.000(3) 1_554 5_565 ?
Ta1 O1 N1 45.0000(14) 1_554 9_554 ?
Ta1 O1 N1 135.000(3) 1_554 9_555 ?
Ta1 O1 N1 45.0000(14) 1_554 9_654 ?
Ta1 O1 N1 135.000(3) 1_554 9_655 ?
Ta1 O1 O1 135.000(3) 1_555 5_554 ?
Ta1 O1 O1 45.0000(14) 1_555 5_555 ?
Ta1 O1 O1 135.000(3) 1_555 5_564 ?
Ta1 O1 O1 45.0000(14) 1_555 5_565 ?
Ta1 O1 O1 135.000(3) 1_555 9_554 ?
Ta1 O1 O1 45.0000(14) 1_555 9_555 ?
Ta1 O1 O1 135.000(3) 1_555 9_654 ?
Ta1 O1 O1 45.0000(14) 1_555 9_655 ?
Ta1 O1 N1 135.000(3) 1_555 5_554 ?
Ta1 O1 N1 45.0000(14) 1_555 5_555 ?
Ta1 O1 N1 135.000(3) 1_555 5_564 ?
Ta1 O1 N1 45.0000(14) 1_555 5_565 ?
Ta1 O1 N1 135.000(3) 1_555 9_554 ?
Ta1 O1 N1 45.0000(14) 1_555 9_555 ?
Ta1 O1 N1 135.000(3) 1_555 9_654 ?
Ta1 O1 N1 45.0000(14) 1_555 9_655 ?
O1 O1 O1 90.000(2) 5_554 5_555 ?
O1 O1 O1 90.000(2) 5_554 5_564 ?
O1 O1 O1 180.000(3) 5_554 5_565 ?
O1 O1 O1 60.0000(12) 5_554 9_554 ?
O1 O1 O1 120.000(2) 5_554 9_555 ?
O1 O1 O1 60.0000(12) 5_554 9_654 ?
O1 O1 O1 120.000(2) 5_554 9_655 ?
O1 O1 N1 90.000(2) 5_554 5_555 ?
O1 O1 N1 90.000(2) 5_554 5_564 ?
O1 O1 N1 180.000(3) 5_554 5_565 ?
O1 O1 N1 60.0000(12) 5_554 9_554 ?
O1 O1 N1 120.000(2) 5_554 9_555 ?
O1 O1 N1 60.0000(12) 5_554 9_654 ?
O1 O1 N1 120.000(2) 5_554 9_655 ?
O1 O1 O1 180.000(3) 5_555 5_564 ?
O1 O1 O1 90.000(2) 5_555 5_565 ?
O1 O1 O1 120.000(2) 5_555 9_554 ?
O1 O1 O1 60.0000(12) 5_555 9_555 ?
O1 O1 O1 120.000(2) 5_555 9_654 ?
O1 O1 O1 60.0000(12) 5_555 9_655 ?
O1 O1 N1 90.000(2) 5_555 5_554 ?
O1 O1 N1 180.000(3) 5_555 5_564 ?
O1 O1 N1 90.000(2) 5_555 5_565 ?
O1 O1 N1 120.000(2) 5_555 9_554 ?
O1 O1 N1 60.0000(12) 5_555 9_555 ?
O1 O1 N1 120.000(2) 5_555 9_654 ?
O1 O1 N1 60.0000(12) 5_555 9_655 ?
O1 O1 O1 90.000(2) 5_564 5_565 ?
O1 O1 O1 60.0000(12) 5_564 9_554 ?
O1 O1 O1 120.000(2) 5_564 9_555 ?
O1 O1 O1 60.0000(12) 5_564 9_654 ?
O1 O1 O1 120.000(2) 5_564 9_655 ?
O1 O1 N1 90.000(2) 5_564 5_554 ?
O1 O1 N1 180.000(3) 5_564 5_555 ?
O1 O1 N1 90.000(2) 5_564 5_565 ?
O1 O1 N1 60.0000(12) 5_564 9_554 ?
O1 O1 N1 120.000(2) 5_564 9_555 ?
O1 O1 N1 60.0000(12) 5_564 9_654 ?
O1 O1 N1 120.000(2) 5_564 9_655 ?
O1 O1 O1 120.000(2) 5_565 9_554 ?
O1 O1 O1 60.0000(12) 5_565 9_555 ?
O1 O1 O1 120.000(2) 5_565 9_654 ?
O1 O1 O1 60.0000(12) 5_565 9_655 ?
O1 O1 N1 180.000(3) 5_565 5_554 ?
O1 O1 N1 90.000(2) 5_565 5_555 ?
O1 O1 N1 90.000(2) 5_565 5_564 ?
O1 O1 N1 120.000(2) 5_565 9_554 ?
O1 O1 N1 60.0000(12) 5_565 9_555 ?
O1 O1 N1 120.000(2) 5_565 9_654 ?
O1 O1 N1 60.0000(12) 5_565 9_655 ?
O1 O1 O1 90.000(2) 9_554 9_555 ?
O1 O1 O1 90.000(2) 9_554 9_654 ?
O1 O1 O1 180.000(3) 9_554 9_655 ?
O1 O1 N1 60.0000(12) 9_554 5_554 ?
O1 O1 N1 120.000(2) 9_554 5_555 ?
O1 O1 N1 60.0000(12) 9_554 5_564 ?
O1 O1 N1 120.000(2) 9_554 5_565 ?
O1 O1 N1 90.000(2) 9_554 9_555 ?
O1 O1 N1 90.000(2) 9_554 9_654 ?
O1 O1 N1 180.000(3) 9_554 9_655 ?
O1 O1 O1 180.000(3) 9_555 9_654 ?
O1 O1 O1 90.000(2) 9_555 9_655 ?
O1 O1 N1 120.000(2) 9_555 5_554 ?
O1 O1 N1 60.0000(12) 9_555 5_555 ?
O1 O1 N1 120.000(2) 9_555 5_564 ?
O1 O1 N1 60.0000(12) 9_555 5_565 ?
O1 O1 N1 90.000(2) 9_555 9_554 ?
O1 O1 N1 180.000(3) 9_555 9_654 ?
O1 O1 N1 90.000(2) 9_555 9_655 ?
O1 O1 O1 90.000(2) 9_654 9_655 ?
O1 O1 N1 60.0000(12) 9_654 5_554 ?
O1 O1 N1 120.000(2) 9_654 5_555 ?
O1 O1 N1 60.0000(12) 9_654 5_564 ?
O1 O1 N1 120.000(2) 9_654 5_565 ?
O1 O1 N1 90.000(2) 9_654 9_554 ?
O1 O1 N1 180.000(3) 9_654 9_555 ?
O1 O1 N1 90.000(2) 9_654 9_655 ?
O1 O1 N1 120.000(2) 9_655 5_554 ?
O1 O1 N1 60.0000(12) 9_655 5_555 ?
O1 O1 N1 120.000(2) 9_655 5_564 ?
O1 O1 N1 60.0000(12) 9_655 5_565 ?
O1 O1 N1 180.000(3) 9_655 9_554 ?
O1 O1 N1 90.000(2) 9_655 9_555 ?
O1 O1 N1 90.000(2) 9_655 9_654 ?
N1 O1 N1 90.000(2) 5_554 5_555 ?
N1 O1 N1 90.000(2) 5_554 5_564 ?
N1 O1 N1 180.000(3) 5_554 5_565 ?
N1 O1 N1 60.0000(12) 5_554 9_554 ?
N1 O1 N1 120.000(2) 5_554 9_555 ?
N1 O1 N1 60.0000(12) 5_554 9_654 ?
N1 O1 N1 120.000(2) 5_554 9_655 ?
N1 O1 N1 180.000(3) 5_555 5_564 ?
N1 O1 N1 90.000(2) 5_555 5_565 ?
N1 O1 N1 120.000(2) 5_555 9_554 ?
N1 O1 N1 60.0000(12) 5_555 9_555 ?
N1 O1 N1 120.000(2) 5_555 9_654 ?
N1 O1 N1 60.0000(12) 5_555 9_655 ?
N1 O1 N1 90.000(2) 5_564 5_565 ?
N1 O1 N1 60.0000(12) 5_564 9_554 ?
N1 O1 N1 120.000(2) 5_564 9_555 ?
N1 O1 N1 60.0000(12) 5_564 9_654 ?
N1 O1 N1 120.000(2) 5_564 9_655 ?
N1 O1 N1 120.000(2) 5_565 9_554 ?
N1 O1 N1 60.0000(12) 5_565 9_555 ?
N1 O1 N1 120.000(2) 5_565 9_654 ?
N1 O1 N1 60.0000(12) 5_565 9_655 ?
N1 O1 N1 90.000(2) 9_554 9_555 ?
N1 O1 N1 90.000(2) 9_554 9_654 ?
N1 O1 N1 180.000(3) 9_554 9_655 ?
N1 O1 N1 180.000(3) 9_555 9_654 ?
N1 O1 N1 90.000(2) 9_555 9_655 ?
N1 O1 N1 90.000(2) 9_654 9_655 ?
Ba1 N1 Ba1 90.000(2) 1_555 1_565 ?
Ba1 N1 Ba1 90.000(2) 1_555 1_655 ?
Ba1 N1 Ba1 180.000(3) 1_555 1_665 ?
Ba1 N1 Ta1 90.0000(17) 1_555 1_554 ?
Ba1 N1 Ta1 90.0000(17) 1_555 1_555 ?
Ba1 N1 O1 60.0000(12) 1_555 5_554 ?
Ba1 N1 O1 60.0000(12) 1_555 5_555 ?
Ba1 N1 O1 120.000(2) 1_555 5_564 ?
Ba1 N1 O1 120.000(2) 1_555 5_565 ?
Ba1 N1 O1 60.0000(12) 1_555 9_554 ?
Ba1 N1 O1 60.0000(12) 1_555 9_555 ?
Ba1 N1 O1 120.000(2) 1_555 9_654 ?
Ba1 N1 O1 120.000(2) 1_555 9_655 ?
Ba1 N1 N1 60.0000(12) 1_555 5_554 ?
Ba1 N1 N1 60.0000(12) 1_555 5_555 ?
Ba1 N1 N1 120.000(2) 1_555 5_564 ?
Ba1 N1 N1 120.000(2) 1_555 5_565 ?
Ba1 N1 N1 60.0000(12) 1_555 9_554 ?
Ba1 N1 N1 60.0000(12) 1_555 9_555 ?
Ba1 N1 N1 120.000(2) 1_555 9_654 ?
Ba1 N1 N1 120.000(2) 1_555 9_655 ?
Ba1 N1 Ba1 180.000(3) 1_565 1_655 ?
Ba1 N1 Ba1 90.000(2) 1_565 1_665 ?
Ba1 N1 Ta1 90.0000(17) 1_565 1_554 ?
Ba1 N1 Ta1 90.0000(17) 1_565 1_555 ?
Ba1 N1 O1 120.000(2) 1_565 5_554 ?
Ba1 N1 O1 120.000(2) 1_565 5_555 ?
Ba1 N1 O1 60.0000(12) 1_565 5_564 ?
Ba1 N1 O1 60.0000(12) 1_565 5_565 ?
Ba1 N1 O1 60.0000(12) 1_565 9_554 ?
Ba1 N1 O1 60.0000(12) 1_565 9_555 ?
Ba1 N1 O1 120.000(2) 1_565 9_654 ?
Ba1 N1 O1 120.000(2) 1_565 9_655 ?
Ba1 N1 N1 120.000(2) 1_565 5_554 ?
Ba1 N1 N1 120.000(2) 1_565 5_555 ?
Ba1 N1 N1 60.0000(12) 1_565 5_564 ?
Ba1 N1 N1 60.0000(12) 1_565 5_565 ?
Ba1 N1 N1 60.0000(12) 1_565 9_554 ?
Ba1 N1 N1 60.0000(12) 1_565 9_555 ?
Ba1 N1 N1 120.000(2) 1_565 9_654 ?
Ba1 N1 N1 120.000(2) 1_565 9_655 ?
Ba1 N1 Ba1 90.000(2) 1_655 1_665 ?
Ba1 N1 Ta1 90.0000(17) 1_655 1_554 ?
Ba1 N1 Ta1 90.0000(17) 1_655 1_555 ?
Ba1 N1 O1 60.0000(12) 1_655 5_554 ?
Ba1 N1 O1 60.0000(12) 1_655 5_555 ?
Ba1 N1 O1 120.000(2) 1_655 5_564 ?
Ba1 N1 O1 120.000(2) 1_655 5_565 ?
Ba1 N1 O1 120.000(2) 1_655 9_554 ?
Ba1 N1 O1 120.000(2) 1_655 9_555 ?
Ba1 N1 O1 60.0000(12) 1_655 9_654 ?
Ba1 N1 O1 60.0000(12) 1_655 9_655 ?
Ba1 N1 N1 60.0000(12) 1_655 5_554 ?
Ba1 N1 N1 60.0000(12) 1_655 5_555 ?
Ba1 N1 N1 120.000(2) 1_655 5_564 ?
Ba1 N1 N1 120.000(2) 1_655 5_565 ?
Ba1 N1 N1 120.000(2) 1_655 9_554 ?
Ba1 N1 N1 120.000(2) 1_655 9_555 ?
Ba1 N1 N1 60.0000(12) 1_655 9_654 ?
Ba1 N1 N1 60.0000(12) 1_655 9_655 ?
Ba1 N1 Ta1 90.0000(17) 1_665 1_554 ?
Ba1 N1 Ta1 90.0000(17) 1_665 1_555 ?
Ba1 N1 O1 120.000(2) 1_665 5_554 ?
Ba1 N1 O1 120.000(2) 1_665 5_555 ?
Ba1 N1 O1 60.0000(12) 1_665 5_564 ?
Ba1 N1 O1 60.0000(12) 1_665 5_565 ?
Ba1 N1 O1 120.000(2) 1_665 9_554 ?
Ba1 N1 O1 120.000(2) 1_665 9_555 ?
Ba1 N1 O1 60.0000(12) 1_665 9_654 ?
Ba1 N1 O1 60.0000(12) 1_665 9_655 ?
Ba1 N1 N1 120.000(2) 1_665 5_554 ?
Ba1 N1 N1 120.000(2) 1_665 5_555 ?
Ba1 N1 N1 60.0000(12) 1_665 5_564 ?
Ba1 N1 N1 60.0000(12) 1_665 5_565 ?
Ba1 N1 N1 120.000(2) 1_665 9_554 ?
Ba1 N1 N1 120.000(2) 1_665 9_555 ?
Ba1 N1 N1 60.0000(12) 1_665 9_654 ?
Ba1 N1 N1 60.0000(12) 1_665 9_655 ?
Ta1 N1 Ta1 180.000(4) 1_554 1_555 ?
Ta1 N1 O1 45.0000(14) 1_554 5_554 ?
Ta1 N1 O1 135.000(3) 1_554 5_555 ?
Ta1 N1 O1 45.0000(14) 1_554 5_564 ?
Ta1 N1 O1 135.000(3) 1_554 5_565 ?
Ta1 N1 O1 45.0000(14) 1_554 9_554 ?
Ta1 N1 O1 135.000(3) 1_554 9_555 ?
Ta1 N1 O1 45.0000(14) 1_554 9_654 ?
Ta1 N1 O1 135.000(3) 1_554 9_655 ?
Ta1 N1 N1 45.0000(14) 1_554 5_554 ?
Ta1 N1 N1 135.000(3) 1_554 5_555 ?
Ta1 N1 N1 45.0000(14) 1_554 5_564 ?
Ta1 N1 N1 135.000(3) 1_554 5_565 ?
Ta1 N1 N1 45.0000(14) 1_554 9_554 ?
Ta1 N1 N1 135.000(3) 1_554 9_555 ?
Ta1 N1 N1 45.0000(14) 1_554 9_654 ?
Ta1 N1 N1 135.000(3) 1_554 9_655 ?
Ta1 N1 O1 135.000(3) 1_555 5_554 ?
Ta1 N1 O1 45.0000(14) 1_555 5_555 ?
Ta1 N1 O1 135.000(3) 1_555 5_564 ?
Ta1 N1 O1 45.0000(14) 1_555 5_565 ?
Ta1 N1 O1 135.000(3) 1_555 9_554 ?
Ta1 N1 O1 45.0000(14) 1_555 9_555 ?
Ta1 N1 O1 135.000(3) 1_555 9_654 ?
Ta1 N1 O1 45.0000(14) 1_555 9_655 ?
Ta1 N1 N1 135.000(3) 1_555 5_554 ?
Ta1 N1 N1 45.0000(14) 1_555 5_555 ?
Ta1 N1 N1 135.000(3) 1_555 5_564 ?
Ta1 N1 N1 45.0000(14) 1_555 5_565 ?
Ta1 N1 N1 135.000(3) 1_555 9_554 ?
Ta1 N1 N1 45.0000(14) 1_555 9_555 ?
Ta1 N1 N1 135.000(3) 1_555 9_654 ?
Ta1 N1 N1 45.0000(14) 1_555 9_655 ?
O1 N1 O1 90.000(2) 5_554 5_555 ?
O1 N1 O1 90.000(2) 5_554 5_564 ?
O1 N1 O1 180.000(3) 5_554 5_565 ?
O1 N1 O1 60.0000(12) 5_554 9_554 ?
O1 N1 O1 120.000(2) 5_554 9_555 ?
O1 N1 O1 60.0000(12) 5_554 9_654 ?
O1 N1 O1 120.000(2) 5_554 9_655 ?
O1 N1 N1 90.000(2) 5_554 5_555 ?
O1 N1 N1 90.000(2) 5_554 5_564 ?
O1 N1 N1 180.000(3) 5_554 5_565 ?
O1 N1 N1 60.0000(12) 5_554 9_554 ?
O1 N1 N1 120.000(2) 5_554 9_555 ?
O1 N1 N1 60.0000(12) 5_554 9_654 ?
O1 N1 N1 120.000(2) 5_554 9_655 ?
O1 N1 O1 180.000(3) 5_555 5_564 ?
O1 N1 O1 90.000(2) 5_555 5_565 ?
O1 N1 O1 120.000(2) 5_555 9_554 ?
O1 N1 O1 60.0000(12) 5_555 9_555 ?
O1 N1 O1 120.000(2) 5_555 9_654 ?
O1 N1 O1 60.0000(12) 5_555 9_655 ?
O1 N1 N1 90.000(2) 5_555 5_554 ?
O1 N1 N1 180.000(3) 5_555 5_564 ?
O1 N1 N1 90.000(2) 5_555 5_565 ?
O1 N1 N1 120.000(2) 5_555 9_554 ?
O1 N1 N1 60.0000(12) 5_555 9_555 ?
O1 N1 N1 120.000(2) 5_555 9_654 ?
O1 N1 N1 60.0000(12) 5_555 9_655 ?
O1 N1 O1 90.000(2) 5_564 5_565 ?
O1 N1 O1 60.0000(12) 5_564 9_554 ?
O1 N1 O1 120.000(2) 5_564 9_555 ?
O1 N1 O1 60.0000(12) 5_564 9_654 ?
O1 N1 O1 120.000(2) 5_564 9_655 ?
O1 N1 N1 90.000(2) 5_564 5_554 ?
O1 N1 N1 180.000(3) 5_564 5_555 ?
O1 N1 N1 90.000(2) 5_564 5_565 ?
O1 N1 N1 60.0000(12) 5_564 9_554 ?
O1 N1 N1 120.000(2) 5_564 9_555 ?
O1 N1 N1 60.0000(12) 5_564 9_654 ?
O1 N1 N1 120.000(2) 5_564 9_655 ?
O1 N1 O1 120.000(2) 5_565 9_554 ?
O1 N1 O1 60.0000(12) 5_565 9_555 ?
O1 N1 O1 120.000(2) 5_565 9_654 ?
O1 N1 O1 60.0000(12) 5_565 9_655 ?
O1 N1 N1 180.000(3) 5_565 5_554 ?
O1 N1 N1 90.000(2) 5_565 5_555 ?
O1 N1 N1 90.000(2) 5_565 5_564 ?
O1 N1 N1 120.000(2) 5_565 9_554 ?
O1 N1 N1 60.0000(12) 5_565 9_555 ?
O1 N1 N1 120.000(2) 5_565 9_654 ?
O1 N1 N1 60.0000(12) 5_565 9_655 ?
O1 N1 O1 90.000(2) 9_554 9_555 ?
O1 N1 O1 90.000(2) 9_554 9_654 ?
O1 N1 O1 180.000(3) 9_554 9_655 ?
O1 N1 N1 60.0000(12) 9_554 5_554 ?
O1 N1 N1 120.000(2) 9_554 5_555 ?
O1 N1 N1 60.0000(12) 9_554 5_564 ?
O1 N1 N1 120.000(2) 9_554 5_565 ?
O1 N1 N1 90.000(2) 9_554 9_555 ?
O1 N1 N1 90.000(2) 9_554 9_654 ?
O1 N1 N1 180.000(3) 9_554 9_655 ?
O1 N1 O1 180.000(3) 9_555 9_654 ?
O1 N1 O1 90.000(2) 9_555 9_655 ?
O1 N1 N1 120.000(2) 9_555 5_554 ?
O1 N1 N1 60.0000(12) 9_555 5_555 ?
O1 N1 N1 120.000(2) 9_555 5_564 ?
O1 N1 N1 60.0000(12) 9_555 5_565 ?
O1 N1 N1 90.000(2) 9_555 9_554 ?
O1 N1 N1 180.000(3) 9_555 9_654 ?
O1 N1 N1 90.000(2) 9_555 9_655 ?
O1 N1 O1 90.000(2) 9_654 9_655 ?
O1 N1 N1 60.0000(12) 9_654 5_554 ?
O1 N1 N1 120.000(2) 9_654 5_555 ?
O1 N1 N1 60.0000(12) 9_654 5_564 ?
O1 N1 N1 120.000(2) 9_654 5_565 ?
O1 N1 N1 90.000(2) 9_654 9_554 ?
O1 N1 N1 180.000(3) 9_654 9_555 ?
O1 N1 N1 90.000(2) 9_654 9_655 ?
O1 N1 N1 120.000(2) 9_655 5_554 ?
O1 N1 N1 60.0000(12) 9_655 5_555 ?
O1 N1 N1 120.000(2) 9_655 5_564 ?
O1 N1 N1 60.0000(12) 9_655 5_565 ?
O1 N1 N1 180.000(3) 9_655 9_554 ?
O1 N1 N1 90.000(2) 9_655 9_555 ?
O1 N1 N1 90.000(2) 9_655 9_654 ?
N1 N1 N1 90.000(2) 5_554 5_555 ?
N1 N1 N1 90.000(2) 5_554 5_564 ?
N1 N1 N1 180.000(3) 5_554 5_565 ?
N1 N1 N1 60.0000(12) 5_554 9_554 ?
N1 N1 N1 120.000(2) 5_554 9_555 ?
N1 N1 N1 60.0000(12) 5_554 9_654 ?
N1 N1 N1 120.000(2) 5_554 9_655 ?
N1 N1 N1 180.000(3) 5_555 5_564 ?
N1 N1 N1 90.000(2) 5_555 5_565 ?
N1 N1 N1 120.000(2) 5_555 9_554 ?
N1 N1 N1 60.0000(12) 5_555 9_555 ?
N1 N1 N1 120.000(2) 5_555 9_654 ?
N1 N1 N1 60.0000(12) 5_555 9_655 ?
N1 N1 N1 90.000(2) 5_564 5_565 ?
N1 N1 N1 60.0000(12) 5_564 9_554 ?
N1 N1 N1 120.000(2) 5_564 9_555 ?
N1 N1 N1 60.0000(12) 5_564 9_654 ?
N1 N1 N1 120.000(2) 5_564 9_655 ?
N1 N1 N1 120.000(2) 5_565 9_554 ?
N1 N1 N1 60.0000(12) 5_565 9_555 ?
N1 N1 N1 120.000(2) 5_565 9_654 ?
N1 N1 N1 60.0000(12) 5_565 9_655 ?
N1 N1 N1 90.000(2) 9_554 9_555 ?
N1 N1 N1 90.000(2) 9_554 9_654 ?
N1 N1 N1 180.000(3) 9_554 9_655 ?
N1 N1 N1 180.000(3) 9_555 9_654 ?
N1 N1 N1 90.000(2) 9_555 9_655 ?
N1 N1 N1 90.000(2) 9_654 9_655 ?
loop_
_geom_bond_atom_site_label_1
_geom_bond_atom_site_label_2
_geom_bond_distance
_geom_bond_site_symmetry_2
_geom_bond_publ_flag
Ba1 Ta1 3.56193(4) 1_444 ?
Ba1 Ta1 3.56193(4) 1_445 ?
Ba1 Ta1 3.56193(4) 1_454 ?
Ba1 Ta1 3.56193(4) 1_455 ?
Ba1 Ta1 3.56193(4) 1_544 ?
Ba1 Ta1 3.56193(4) 1_545 ?
Ba1 Ta1 3.56193(4) 1_554 ?
Ba1 Ta1 3.56193(4) 1_555 ?
Ba1 O1 2.90830(4) 1_445 ?
Ba1 O1 2.90830(4) 1_455 ?
Ba1 O1 2.90830(4) 1_545 ?
Ba1 O1 2.90830(4) 1_555 ?
Ba1 O1 2.90830(4) 5_454 ?
Ba1 O1 2.90830(4) 5_455 ?
Ba1 O1 2.90830(4) 5_554 ?
Ba1 O1 2.90830(4) 5_555 ?
Ba1 O1 2.90830(4) 9_544 ?
Ba1 O1 2.90830(4) 9_545 ?
Ba1 O1 2.90830(4) 9_554 ?
Ba1 O1 2.90830(4) 9_555 ?
Ba1 N1 2.90830(4) 1_445 ?
Ba1 N1 2.90830(4) 1_455 ?
Ba1 N1 2.90830(4) 1_545 ?
Ba1 N1 2.90830(4) 1_555 ?
Ba1 N1 2.90830(4) 5_454 ?
Ba1 N1 2.90830(4) 5_455 ?
Ba1 N1 2.90830(4) 5_554 ?
Ba1 N1 2.90830(4) 5_555 ?
Ba1 N1 2.90830(4) 9_544 ?
Ba1 N1 2.90830(4) 9_545 ?
Ba1 N1 2.90830(4) 9_554 ?
Ba1 N1 2.90830(4) 9_555 ?
Ta1 Ba1 3.56193(4) 1_555 ?
Ta1 Ba1 3.56193(4) 1_556 ?
Ta1 Ba1 3.56193(4) 1_565 ?
Ta1 Ba1 3.56193(4) 1_566 ?
Ta1 Ba1 3.56193(4) 1_655 ?
Ta1 Ba1 3.56193(4) 1_656 ?
Ta1 Ba1 3.56193(4) 1_665 ?
Ta1 Ba1 3.56193(4) 1_666 ?
Ta1 O1 2.05648(4) 1_555 ?
Ta1 O1 2.05648(4) 1_556 ?
Ta1 O1 2.05648(4) 5_555 ?
Ta1 O1 2.05648(4) 5_565 ?
Ta1 O1 2.05648(4) 9_555 ?
Ta1 O1 2.05648(4) 9_655 ?
Ta1 N1 2.05648(4) 1_555 ?
Ta1 N1 2.05648(4) 1_556 ?
Ta1 N1 2.05648(4) 5_555 ?
Ta1 N1 2.05648(4) 5_565 ?
Ta1 N1 2.05648(4) 9_555 ?
Ta1 N1 2.05648(4) 9_655 ?
O1 Ba1 2.90830(4) 1_555 ?
O1 Ba1 2.90830(4) 1_565 ?
O1 Ba1 2.90830(4) 1_655 ?
O1 Ba1 2.90830(4) 1_665 ?
O1 Ta1 2.05648(4) 1_554 ?
O1 Ta1 2.05648(4) 1_555 ?
O1 O1 2.90830(4) 5_554 ?
O1 O1 2.90830(4) 5_555 ?
O1 O1 2.90830(4) 5_564 ?
O1 O1 2.90830(4) 5_565 ?
O1 O1 2.90830(4) 9_554 ?
O1 O1 2.90830(4) 9_555 ?
O1 O1 2.90830(4) 9_654 ?
O1 O1 2.90830(4) 9_655 ?
O1 N1 2.90830(4) 5_554 ?
O1 N1 2.90830(4) 5_555 ?
O1 N1 2.90830(4) 5_564 ?
O1 N1 2.90830(4) 5_565 ?
O1 N1 2.90830(4) 9_554 ?
O1 N1 2.90830(4) 9_555 ?
O1 N1 2.90830(4) 9_654 ?
O1 N1 2.90830(4) 9_655 ?
N1 Ba1 2.90830(4) 1_555 ?
N1 Ba1 2.90830(4) 1_565 ?
N1 Ba1 2.90830(4) 1_655 ?
N1 Ba1 2.90830(4) 1_665 ?
N1 Ta1 2.05648(4) 1_554 ?
N1 Ta1 2.05648(4) 1_555 ?
N1 O1 2.90830(4) 5_554 ?
N1 O1 2.90830(4) 5_555 ?
N1 O1 2.90830(4) 5_564 ?
N1 O1 2.90830(4) 5_565 ?
N1 O1 2.90830(4) 9_554 ?
N1 O1 2.90830(4) 9_555 ?
N1 O1 2.90830(4) 9_654 ?
N1 O1 2.90830(4) 9_655 ?
N1 N1 2.90830(4) 5_554 ?
N1 N1 2.90830(4) 5_555 ?
N1 N1 2.90830(4) 5_564 ?
N1 N1 2.90830(4) 5_565 ?
N1 N1 2.90830(4) 9_554 ?
N1 N1 2.90830(4) 9_555 ?
N1 N1 2.90830(4) 9_654 ?
N1 N1 2.90830(4) 9_655 ?
loop_
_pd_proc_point_id
_pd_proc_2theta_corrected
_pd_proc_intensity_total
_pd_calc_intensity_total
_pd_proc_intensity_bkg_calc
1 10.1691 8007(89) 8179.3784 8179.3784
2 10.1951 8178(90) 8169.9893 8169.9893
3 10.2211 8149(90) 8160.6001 8160.6001
4 10.2471 8055(90) 8151.2109 8151.2109
5 10.2731 8146(90) 8141.8218 8141.8218
6 10.2991 8205(91) 8132.4326 8132.4326
7 10.3251 8022(90) 8123.0435 8123.0435
8 10.3511 8125(90) 8113.6543 8113.6543
9 10.3771 8080(90) 8104.2651 8104.2651
10 10.4031 8169(90) 8094.8760 8094.8760
11 10.4291 8097(90) 8085.4868 8085.4868
12 10.4551 8101(90) 8076.0977 8076.0977
13 10.4811 8046(90) 8066.7080 8066.7080
14 10.5071 8112(90) 8057.3188 8057.3188
15 10.5331 8178(90) 8047.9297 8047.9297
16 10.5591 8139(90) 8038.5405 8038.5405
17 10.5851 8016(90) 8029.1514 8029.1514
18 10.6111 7952(89) 8019.7622 8019.7622
19 10.6371 8015(90) 8010.3730 8010.3730
20 10.6631 7921(89) 8000.9844 8000.9844
21 10.6891 7951(89) 7991.5952 7991.5952
22 10.7151 7905(89) 7982.2061 7982.2061
23 10.7411 8040(90) 7972.8164 7972.8164
24 10.7671 7942(89) 7963.4272 7963.4272
25 10.7931 7926(89) 7954.0381 7954.0381
26 10.8191 7876(89) 7944.6489 7944.6489
27 10.8451 7861(89) 7935.2598 7935.2598
28 10.8711 7949(89) 7925.8706 7925.8706
29 10.8971 8006(89) 7916.4814 7916.4814
30 10.9231 8026(90) 7907.0923 7907.0923
31 10.9491 8013(90) 7897.7031 7897.7031
32 10.9751 7931(89) 7888.3140 7888.3140
33 11.0011 7884(89) 7878.9248 7878.9248
34 11.0271 7897(89) 7869.5356 7869.5356
35 11.0531 7875(89) 7860.1465 7860.1465
36 11.0791 7820(88) 7850.7573 7850.7573
37 11.1051 7900(89) 7841.3677 7841.3677
38 11.1311 7896(89) 7831.9785 7831.9785
39 11.1571 7844(89) 7822.5894 7822.5894
40 11.1831 7764(88) 7813.2002 7813.2002
41 11.2091 7702(88) 7803.8110 7803.8110
42 11.2351 7750(88) 7794.4219 7794.4219
43 11.2611 7747(88) 7785.0327 7785.0327
44 11.2871 7738(88) 7775.6436 7775.6436
45 11.3131 7779(88) 7766.2544 7766.2544
46 11.3391 7822(88) 7756.8652 7756.8652
47 11.3651 7769(88) 7747.4761 7747.4761
48 11.3911 7751(88) 7738.0869 7738.0869
49 11.4171 7816(88) 7728.6978 7728.6978
50 11.4431 7757(88) 7719.3086 7719.3086
51 11.4691 7752(88) 7709.9189 7709.9189
52 11.4951 7742(88) 7700.5298 7700.5298
53 11.5211 7670(88) 7691.1406 7691.1406
54 11.5471 7713(88) 7681.7515 7681.7515
55 11.5731 7685(88) 7672.3623 7672.3623
56 11.5991 7635(87) 7662.9731 7662.9731
57 11.6251 7636(87) 7653.5840 7653.5840
58 11.6511 7622(87) 7644.1948 7644.1948
59 11.6771 7682(88) 7634.8057 7634.8057
60 11.7031 7670(88) 7625.4165 7625.4165
61 11.7291 7731(88) 7616.0273 7616.0273
62 11.7551 7693(88) 7606.6382 7606.6382
63 11.7811 7753(88) 7597.2490 7597.2490
64 11.8071 7608(87) 7587.8599 7587.8599
65 11.8331 7601(87) 7578.4707 7578.4707
66 11.8591 7604(87) 7569.0815 7569.0815
67 11.8851 7700(88) 7559.6924 7559.6924
68 11.9111 7611(87) 7550.3032 7550.3032
69 11.9371 7614(87) 7540.9141 7540.9141
70 11.9631 7674(88) 7531.5249 7531.5249
71 11.9891 7536(87) 7522.1357 7522.1357
72 12.0151 7468(86) 7512.7466 7512.7466
73 12.0411 7461(86) 7503.3574 7503.3574
74 12.0671 7490(87) 7493.9683 7493.9683
75 12.0931 7438(86) 7484.5791 7484.5791
76 12.1191 7396(86) 7475.1895 7475.1895
77 12.1451 7589(87) 7465.8003 7465.8003
78 12.1711 7663(88) 7456.4111 7456.4111
79 12.1971 7475(86) 7447.0220 7447.0220
80 12.2231 7471(86) 7437.6328 7437.6328
81 12.2491 7537(87) 7428.2437 7428.2437
82 12.2751 7347(86) 7418.8545 7418.8545
83 12.3011 7518(87) 7409.4653 7409.4653
84 12.3271 7461(86) 7400.0762 7400.0762
85 12.3531 7458(86) 7390.6870 7390.6870
86 12.3791 7518(87) 7381.2979 7381.2979
87 12.4051 7462(86) 7371.9087 7371.9087
88 12.4311 7350(86) 7362.5195 7362.5195
89 12.4571 7227(85) 7353.1304 7353.1304
90 12.4831 7375(86) 7343.7412 7343.7412
91 12.5091 7413(86) 7334.3516 7334.3516
92 12.5351 7322(86) 7324.9624 7324.9624
93 12.5611 7358(86) 7315.5732 7315.5732
94 12.5871 7120(84) 7306.1841 7306.1841
95 12.6131 7376(86) 7296.7949 7296.7949
96 12.6391 7316(86) 7287.4058 7287.4058
97 12.6651 7124(84) 7278.0166 7278.0166
98 12.6911 7411(86) 7268.6274 7268.6274
99 12.7171 7237(85) 7259.2383 7259.2383
100 12.7431 7295(85) 7249.8491 7249.8491
101 12.7691 7285(85) 7240.4600 7240.4600
102 12.7951 7453(86) 7231.0708 7231.0708
103 12.8211 7226(85) 7221.6816 7221.6816
104 12.8471 7260(85) 7212.2925 7212.2925
105 12.8731 7193(85) 7202.9033 7202.9033
106 12.8991 7283(85) 7193.5142 7193.5142
107 12.9251 7200(85) 7184.1250 7184.1250
108 12.9511 7144(85) 7174.7358 7174.7358
109 12.9771 7070(84) 7165.3467 7165.3467
110 13.0031 7126(84) 7155.9575 7155.9575
111 13.0291 7142(85) 7146.5684 7146.5684
112 13.0551 7200(85) 7137.1792 7137.1792
113 13.0811 7170(85) 7127.7900 7127.7900
114 13.1071 7117(84) 7118.4004 7118.4004
115 13.1331 6991(84) 7109.0117 7109.0117
116 13.1591 7029(84) 7099.6221 7099.6221
117 13.1851 7059(84) 7090.2329 7090.2329
118 13.2111 7111(84) 7080.8438 7080.8438
119 13.2371 7102(84) 7071.4546 7071.4546
120 13.2631 7084(84) 7062.0654 7062.0654
121 13.2891 7127(84) 7052.6763 7052.6763
122 13.3151 7101(84) 7043.2871 7043.2871
123 13.3411 7144(85) 7033.8979 7033.8979
124 13.3671 7124(84) 7024.5088 7024.5088
125 13.3931 7140(84) 7015.1196 7015.1196
126 13.4191 7044(84) 7005.7305 7005.7305
127 13.4451 6936(83) 6996.3413 6996.3413
128 13.4711 7028(84) 6986.9521 6986.9521
129 13.4971 7035(84) 6977.5625 6977.5625
130 13.5231 6973(84) 6968.1738 6968.1738
131 13.5491 6933(83) 6958.7842 6958.7842
132 13.5751 6912(83) 6949.3950 6949.3950
133 13.6011 6869(83) 6940.0059 6940.0059
134 13.6271 6821(83) 6930.6167 6930.6167
135 13.6531 6961(83) 6921.2275 6921.2275
136 13.6791 6891(83) 6911.8384 6911.8384
137 13.7051 6886(83) 6902.4492 6902.4492
138 13.7311 6989(84) 6893.0601 6893.0601
139 13.7571 6846(83) 6883.6709 6883.6709
140 13.7831 6813(83) 6874.2817 6874.2817
141 13.8091 6923(83) 6864.8926 6864.8926
142 13.8351 6961(83) 6855.5029 6855.5029
143 13.8611 6936(83) 6846.1143 6846.1143
144 13.8871 6898(83) 6836.7246 6836.7246
145 13.9131 6811(83) 6827.3359 6827.3359
146 13.9391 6736(82) 6817.9468 6817.9468
147 13.9651 6706(82) 6808.5576 6808.5576
148 13.9911 6769(82) 6799.1685 6799.1685
149 14.0171 6871(83) 6789.7793 6789.7793
150 14.0431 6845(83) 6780.3901 6780.3901
151 14.0691 6782(82) 6771.0010 6771.0010
152 14.0951 6800(82) 6761.6113 6761.6113
153 14.1211 6812(83) 6752.2227 6752.2227
154 14.1471 6762(82) 6742.8330 6742.8330
155 14.1731 6707(82) 6733.4443 6733.4443
156 14.1991 6616(81) 6724.0547 6724.0547
157 14.2251 6618(81) 6714.6655 6714.6655
158 14.2511 6568(81) 6705.2764 6705.2764
159 14.2771 6554(81) 6695.8872 6695.8872
160 14.3031 6570(81) 6686.4980 6686.4980
161 14.3291 6609(81) 6677.1089 6677.1089
162 14.3551 6543(81) 6667.7197 6667.7197
163 14.3811 6445(80) 6658.3306 6658.3306
164 14.4071 6449(80) 6648.9414 6648.9414
165 14.4331 6597(81) 6639.5522 6639.5522
166 14.4591 6630(81) 6630.1631 6630.1631
167 14.4851 6701(82) 6620.7734 6620.7734
168 14.5111 6648(82) 6611.3848 6611.3848
169 14.5371 6578(81) 6601.9951 6601.9951
170 14.5631 6554(81) 6592.6060 6592.6060
171 14.5891 6632(81) 6583.2168 6583.2168
172 14.6151 6521(81) 6573.8276 6573.8276
173 14.6411 6484(81) 6564.4385 6564.4385
174 14.6671 6387(80) 6555.0493 6555.0493
175 14.6931 6397(80) 6545.6602 6545.6602
176 14.7191 6414(80) 6536.2710 6536.2710
177 14.7451 6430(80) 6526.8818 6526.8818
178 14.7711 6386(80) 6517.4927 6517.4927
179 14.7971 6379(80) 6508.1035 6508.1035
180 14.8231 6471(80) 6498.7144 6498.7144
181 14.8491 6336(80) 6489.3252 6489.3252
182 14.8751 6428(80) 6479.9355 6479.9355
183 14.9011 6536(81) 6470.5469 6470.5469
184 14.9271 6472(80) 6461.1572 6461.1572
185 14.9531 6471(80) 6451.7681 6451.7681
186 14.9791 6493(81) 6442.3789 6442.3789
187 15.0051 6452(80) 6432.9902 6432.9902
188 15.0311 6492(81) 6423.6011 6423.6011
189 15.0571 6387(80) 6414.2119 6414.2119
190 15.0831 6293(79) 6404.8228 6404.8228
191 15.1091 6343(80) 6395.4336 6395.4336
192 15.1351 6310(79) 6386.0439 6386.0439
193 15.1611 6304(79) 6376.6553 6376.6553
194 15.1871 6395(80) 6367.2656 6367.2656
195 15.2131 6254(79) 6357.8765 6357.8765
196 15.2391 6340(80) 6348.4873 6348.4873
197 15.2651 6212(79) 6339.0981 6339.0981
198 15.2911 6144(78) 6329.7090 6329.7090
199 15.3171 6228(79) 6320.3198 6320.3198
200 15.3431 6226(79) 6310.9307 6310.9307
201 15.3691 6196(79) 6301.5415 6301.5415
202 15.3951 6204(79) 6292.1523 6292.1523
203 15.4211 6294(79) 6282.7632 6282.7632
204 15.4471 6374(80) 6273.3740 6273.3740
205 15.4731 6277(79) 6263.9849 6263.9849
206 15.4991 6263(79) 6254.5957 6254.5957
207 15.5251 6258(79) 6245.2061 6245.2061
208 15.5511 6190(79) 6235.8174 6235.8174
209 15.5771 6065(78) 6226.4277 6226.4277
210 15.6031 6063(78) 6217.0386 6217.0386
211 15.6291 6062(78) 6207.6494 6207.6494
212 15.6551 6182(79) 6198.2603 6198.2603
213 15.6811 6177(79) 6188.8711 6188.8711
214 15.7071 6007(78) 6179.4819 6179.4819
215 15.7331 6061(78) 6170.0928 6170.0928
216 15.7591 6013(78) 6160.7036 6160.7036
217 15.7851 6042(78) 6151.3145 6151.3145
218 15.8111 5996(77) 6141.9248 6141.9248
219 15.8371 6120(78) 6132.5361 6132.5361
220 15.8631 6090(78) 6123.1465 6123.1465
221 15.8891 6089(78) 6113.7578 6113.7578
222 15.9151 6082(78) 6104.3682 6104.3682
223 15.9411 6046(78) 6094.9795 6094.9795
224 15.9671 6122(78) 6085.5898 6085.5898
225 15.9931 6119(78) 6076.2012 6076.2012
226 16.0191 5931(77) 6066.8115 6066.8115
227 16.0451 5881(77) 6057.4229 6057.4229
228 16.0711 5844(76) 6048.0332 6048.0332
229 16.0971 5971(77) 6038.6445 6038.6445
230 16.1231 6008(78) 6029.2549 6029.2549
231 16.1491 6042(78) 6019.8662 6019.8662
232 16.1751 6044(78) 6010.4766 6010.4766
233 16.2011 6015(78) 6001.0879 6001.0879
234 16.2271 5978(77) 5991.6982 5991.6982
235 16.2531 5965(77) 5982.3096 5982.3096
236 16.2791 5891(77) 5972.9199 5972.9199
237 16.3051 5880(77) 5963.5308 5963.5308
238 16.3311 5993(77) 5954.1416 5954.1416
239 16.3571 6056(78) 5944.7524 5944.7524
240 16.3831 5987(77) 5935.3628 5935.3628
241 16.4091 5940(77) 5925.9741 5925.9741
242 16.4351 5896(77) 5916.5845 5916.5845
243 16.4611 5856(77) 5907.1953 5907.1953
244 16.4871 5852(76) 5897.8062 5897.8062
245 16.5131 5901(77) 5888.4170 5888.4170
246 16.5391 5917(77) 5879.0278 5879.0278
247 16.5651 5875(77) 5869.6387 5869.6387
248 16.5911 5873(77) 5860.2490 5860.2490
249 16.6171 5877(77) 5850.8604 5850.8604
250 16.6431 5828(76) 5841.4717 5841.4717
251 16.6691 5816(76) 5832.0820 5832.0820
252 16.6951 5877(77) 5822.6934 5822.6934
253 16.7211 5858(77) 5813.3037 5813.3037
254 16.7471 5861(77) 5803.9150 5803.9150
255 16.7731 5898(77) 5794.5254 5794.5254
256 16.7991 5789(76) 5785.1367 5785.1367
257 16.8251 5759(76) 5775.7471 5775.7471
258 16.8511 5857(77) 5766.3584 5766.3584
259 16.8771 5812(76) 5756.9688 5756.9688
260 16.9031 5764(76) 5747.5796 5747.5796
261 16.9291 5807(76) 5738.1904 5738.1904
262 16.9551 5758(76) 5728.8013 5728.8013
263 16.9811 5743(76) 5719.4121 5719.4121
264 17.0071 5682(75) 5710.0229 5710.0229
265 17.0331 5690(75) 5700.6333 5700.6333
266 17.0591 5766(76) 5691.2446 5691.2446
267 17.0851 5873(77) 5681.8550 5681.8550
268 17.1111 5770(76) 5672.4658 5672.4658
269 17.1371 5735(76) 5663.0767 5663.0767
270 17.1631 5713(76) 5653.6875 5653.6875
271 17.1891 5650(75) 5644.2983 5644.2983
272 17.2151 5708(76) 5634.9092 5634.9092
273 17.2411 5606(75) 5625.5195 5625.5195
274 17.2671 5652(75) 5616.1309 5616.1309
275 17.2931 5660(75) 5606.7412 5606.7412
276 17.3191 5647(75) 5597.3525 5597.3525
277 17.3451 5734(76) 5587.9629 5587.9629
278 17.3711 5625(75) 5578.5742 5578.5742
279 17.3971 5776(76) 5569.1846 5569.1846
280 17.4231 5724(76) 5559.7959 5559.7959
281 17.4491 5673(75) 5550.4062 5550.4062
282 17.4751 5505(74) 5541.0176 5541.0176
283 17.5011 5559(75) 5531.6279 5531.6279
284 17.5271 5596(75) 5522.2393 5522.2393
285 17.5531 5528(74) 5513.7808 5513.7808
286 17.5791 5529(74) 5506.8550 5506.8550
287 17.6051 5596(75) 5499.9287 5499.9287
288 17.6311 5670(75) 5493.0034 5493.0034
289 17.6571 5583(75) 5486.0771 5486.0771
290 17.6831 5374(73) 5479.1514 5479.1514
291 17.7091 5481(74) 5472.2256 5472.2256
292 17.7351 5514(74) 5465.2998 5465.2998
293 17.7611 5512(74) 5458.3740 5458.3740
294 17.7871 5457(74) 5451.4478 5451.4478
295 17.8131 5422(74) 5444.5220 5444.5220
296 17.8391 5464(74) 5437.5957 5437.5957
297 17.8651 5505(74) 5430.6704 5430.6704
298 17.8911 5394(73) 5423.7441 5423.7441
299 17.9171 5466(74) 5416.8184 5416.8184
300 17.9431 5468(74) 5409.8921 5409.8921
301 17.9691 5525(74) 5402.9663 5402.9663
302 17.9951 5464(74) 5396.0405 5396.0405
303 18.0211 5396(73) 5389.1147 5389.1147
304 18.0471 5375(73) 5382.1885 5382.1885
305 18.0731 5384(73) 5375.2627 5375.2627
306 18.0991 5446(74) 5368.3369 5368.3369
307 18.1251 5417(74) 5361.4111 5361.4111
308 18.1511 5344(73) 5354.4849 5354.4849
309 18.1771 5395(73) 5347.5591 5347.5591
310 18.2031 5290(73) 5340.6328 5340.6328
311 18.2291 5308(73) 5333.7075 5333.7075
312 18.2551 5351(73) 5326.7812 5326.7812
313 18.2811 5285(73) 5319.8555 5319.8555
314 18.3071 5313(73) 5312.9292 5312.9292
315 18.3331 5311(73) 5306.0039 5306.0039
316 18.3591 5399(73) 5299.0776 5299.0776
317 18.3851 5297(73) 5292.1519 5292.1519
318 18.4111 5320(73) 5285.2256 5285.2256
319 18.4371 5297(73) 5278.2998 5278.2998
320 18.4631 5285(73) 5271.3740 5271.3740
321 18.4891 5224(72) 5264.4482 5264.4482
322 18.5151 5098(71) 5257.5220 5257.5220
323 18.5411 5197(72) 5250.5962 5250.5962
324 18.5671 5251(72) 5243.6699 5243.6699
325 18.5931 5189(72) 5236.7446 5236.7446
326 18.6191 5190(72) 5229.8184 5229.8184
327 18.6451 5257(73) 5222.8926 5222.8926
328 18.6711 5186(72) 5215.9663 5215.9663
329 18.6971 5199(72) 5209.0410 5209.0410
330 18.7231 5218(72) 5202.1147 5202.1147
331 18.7491 5153(72) 5195.1890 5195.1890
332 18.7751 5120(72) 5188.2627 5188.2627
333 18.8011 5138(72) 5181.3369 5181.3369
334 18.8271 5199(72) 5174.4116 5174.4116
335 18.8531 5168(72) 5167.4854 5167.4854
336 18.8791 5091(71) 5160.5596 5160.5596
337 18.9051 5099(71) 5153.6333 5153.6333
338 18.9311 5140(72) 5146.7075 5146.7075
339 18.9571 5148(72) 5139.7817 5139.7817
340 18.9831 5122(72) 5132.8560 5132.8560
341 19.0091 5083(71) 5125.9297 5125.9297
342 19.0351 5120(72) 5119.0039 5119.0039
343 19.0611 5114(72) 5112.0781 5112.0781
344 19.0871 5079(71) 5105.1523 5105.1523
345 19.1131 5151(72) 5098.2261 5098.2261
346 19.1391 5104(71) 5091.3003 5091.3003
347 19.1651 5014(71) 5084.3740 5084.3740
348 19.1911 5049(71) 5077.4487 5077.4487
349 19.2171 5099(71) 5070.5225 5070.5225
350 19.2431 5110(71) 5063.5967 5063.5967
351 19.2691 5154(72) 5056.6704 5056.6704
352 19.2951 5135(72) 5049.7451 5049.7451
353 19.3211 5042(71) 5042.8188 5042.8188
354 19.3471 5022(71) 5035.8931 5035.8931
355 19.3731 4972(71) 5028.9668 5028.9668
356 19.3991 4956(70) 5022.0410 5022.0410
357 19.4251 4988(71) 5015.1152 5015.1152
358 19.4511 5061(71) 5008.1895 5008.1895
359 19.4771 5013(71) 5001.2632 5001.2632
360 19.5031 4943(70) 4994.3374 4994.3374
361 19.5291 5012(71) 4987.4111 4987.4111
362 19.5551 4994(71) 4980.4858 4980.4858
363 19.5811 4879(70) 4973.5596 4973.5596
364 19.6071 4841(70) 4966.6338 4966.6338
365 19.6331 4968(70) 4959.7075 4959.7075
366 19.6591 4955(70) 4952.7822 4952.7822
367 19.6851 4931(70) 4945.8560 4945.8560
368 19.7111 4993(71) 4938.9302 4938.9302
369 19.7371 4958(70) 4932.0039 4932.0039
370 19.7631 4973(71) 4925.0781 4925.0781
371 19.7891 4960(70) 4918.1523 4918.1523
372 19.8151 4917(70) 4911.2266 4911.2266
373 19.8411 4903(70) 4904.3003 4904.3003
374 19.8671 4950(70) 4897.3745 4897.3745
375 19.8931 4964(70) 4890.4492 4890.4492
376 19.9191 4879(70) 4883.5229 4883.5229
377 19.9451 4905(70) 4876.5972 4876.5972
378 19.9711 4872(70) 4869.6709 4869.6709
379 19.9971 4847(70) 4862.7451 4862.7451
380 20.0231 4818(69) 4855.8193 4855.8193
381 20.0491 4788(69) 4848.8936 4848.8936
382 20.0751 4891(70) 4841.9673 4841.9673
383 20.1011 4892(70) 4835.0415 4835.0415
384 20.1271 4799(69) 4828.1152 4828.1152
385 20.1531 4862(70) 4821.1899 4821.1899
386 20.1791 4854(70) 4814.2637 4814.2637
387 20.2051 4774(69) 4807.3379 4807.3379
388 20.2311 4752(69) 4800.4116 4800.4116
389 20.2571 4934(70) 4793.4863 4793.4863
390 20.2831 4801(69) 4786.5601 4786.5601
391 20.3091 4816(69) 4779.6343 4779.6343
392 20.3351 4871(70) 4772.7080 4772.7080
393 20.3611 4884(70) 4765.7822 4765.7822
394 20.3871 4732(69) 4758.8564 4758.8564
395 20.4131 4759(69) 4751.9307 4751.9307
396 20.4391 4840(70) 4753.5254 4745.0044
397 20.4651 4838(70) 4746.9800 4738.0786
398 20.4911 4827(69) 4744.6899 4731.1523
399 20.5171 4929(70) 4738.3887 4724.2271
400 20.5431 4805(69) 4732.1304 4717.3008
401 20.5691 4652(68) 4725.9214 4710.3750
402 20.5951 4792(69) 4722.8447 4706.5288
403 20.6211 4737(69) 4719.9854 4702.8413
404 20.6471 4642(68) 4717.1899 4699.1533
405 20.6731 4774(69) 4714.4663 4695.4658
406 20.6991 4728(69) 4711.8218 4691.7778
407 20.7251 4788(69) 4709.2661 4688.0903
408 20.7511 4645(68) 4706.8081 4684.4023
409 20.7771 4719(69) 4704.4609 4680.7148
410 20.8031 4620(68) 4702.2373 4677.0269
411 20.8291 4801(69) 4700.1528 4673.3394
412 20.8551 4659(68) 4698.2261 4669.6514
413 20.8811 4693(69) 4696.4785 4665.9639
414 20.9071 4764(69) 4694.9346 4662.2759
415 20.9331 4769(69) 4693.6245 4658.5884
416 20.9591 4786(69) 4692.5830 4654.9009
417 20.9851 4773(69) 4691.8516 4651.2129
418 21.0111 4722(69) 4691.4814 4647.5254
419 21.0371 4678(68) 4691.5332 4643.8374
420 21.0631 4773(69) 4692.0811 4640.1494
421 21.0891 4728(69) 4693.2183 4636.4619
422 21.1151 4712(69) 4695.0596 4632.7739
423 21.1411 4636(68) 4697.7549 4629.0864
424 21.1671 4724(69) 4701.4990 4625.3984
425 21.1931 4734(69) 4706.5630 4621.7109
426 21.2191 4720(69) 4713.3247 4618.0229
427 21.2451 4658(68) 4722.3403 4614.3354
428 21.2711 4733(69) 4734.4121 4610.6475
429 21.2971 4737(69) 4750.6909 4606.9600
430 21.3231 4704(69) 4772.7324 4603.2720
431 21.3491 4837(70) 4802.5254 4599.5845
432 21.3751 4826(69) 4842.4438 4595.8965
433 21.4011 4823(69) 4895.4492 4592.2085
434 21.4271 4996(71) 4966.1152 4588.5210
435 21.4531 5186(72) 5063.3535 4584.8330
436 21.4791 5313(73) 5204.1812 4581.1455
437 21.5051 5478(74) 5416.2100 4577.4575
438 21.5311 5703(76) 5738.6660 4573.7700
439 21.5571 6257(79) 6227.5601 4570.0820
440 21.5831 6907(83) 6951.1826 4566.3945
441 21.6091 7634(87) 7903.3135 4562.7065
442 21.6351 8379(92) 8796.0918 4559.0190
443 21.6611 8782(94) 9159.6484 4555.3311
444 21.6871 8599(93) 8874.6133 4551.6436
445 21.7131 7946(89) 8105.6274 4547.9556
446 21.7391 7201(85) 7136.8916 4544.2681
447 21.7651 6419(80) 6267.5054 4540.5801
448 21.7911 5836(76) 5633.9736 4536.8926
449 21.8171 5487(74) 5231.3252 4533.2046
450 21.8431 5219(72) 4996.7305 4529.5171
451 21.8691 5032(71) 4864.1904 4525.8291
452 21.8951 4899(70) 4786.8501 4522.1416
453 21.9211 4847(70) 4737.5938 4518.4536
454 21.9471 4814(69) 4702.4707 4514.7661
455 21.9731 4819(69) 4674.7407 4511.0781
456 21.9991 4769(69) 4651.3179 4507.3906
457 22.0251 4680(68) 4630.8359 4503.7026
458 22.0511 4633(68) 4612.6841 4500.0151
459 22.0771 4588(68) 4596.5249 4496.3276
460 22.1031 4512(67) 4582.1050 4492.6396
461 22.1291 4507(67) 4569.1948 4488.9521
462 22.1551 4535(67) 4557.5723 4485.2642
463 22.1811 4555(67) 4547.0381 4481.5767
464 22.2071 4513(67) 4537.4155 4477.8887
465 22.2331 4525(67) 4528.5581 4474.2012
466 22.2591 4491(67) 4520.3413 4470.5132
467 22.2851 4461(67) 4512.6660 4466.8252
468 22.3111 4537(67) 4505.4492 4463.1377
469 22.3371 4508(67) 4498.6235 4459.4497
470 22.3631 4558(68) 4492.1338 4455.7622
471 22.3891 4578(68) 4485.9336 4452.0742
472 22.4151 4534(67) 4479.9844 4448.3867
473 22.4411 4544(67) 4474.2539 4444.6987
474 22.4671 4520(67) 4468.7153 4441.0112
475 22.4931 4518(67) 4463.3447 4437.3232
476 22.5191 4365(66) 4458.1226 4433.6357
477 22.5451 4323(66) 4453.0322 4429.9478
478 22.5711 4392(66) 4448.0591 4426.2603
479 22.5971 4349(66) 4443.1895 4422.5723
480 22.6231 4431(67) 4438.4141 4418.8848
481 22.6491 4426(67) 4433.7222 4415.1968
482 22.6751 4400(66) 4429.1050 4411.5088
483 22.7011 4338(66) 4424.5571 4407.8213
484 22.7271 4366(66) 4420.0698 4404.1333
485 22.7531 4302(66) 4415.6392 4400.4458
486 22.7791 4350(66) 4411.2588 4396.7578
487 22.8051 4388(66) 4406.9248 4393.0703
488 22.8311 4459(67) 4402.6328 4389.3823
489 22.8571 4408(66) 4390.1729 4385.6948
490 22.8831 4387(66) 4386.2925 4382.0068
491 22.9091 4419(66) 4378.3193 4378.3193
492 22.9351 4417(66) 4374.6313 4374.6313
493 22.9611 4342(66) 4370.9438 4370.9438
494 22.9871 4331(66) 4367.2559 4367.2559
495 23.0131 4352(66) 4363.5684 4363.5684
496 23.0391 4315(66) 4359.8804 4359.8804
497 23.0651 4397(66) 4356.1929 4356.1929
498 23.0911 4315(66) 4352.5049 4352.5049
499 23.1171 4316(66) 4348.8174 4348.8174
500 23.1431 4481(67) 4345.1299 4345.1299
501 23.1691 4268(65) 4341.4419 4341.4419
502 23.1951 4200(65) 4337.7544 4337.7544
503 23.2211 4141(64) 4334.0664 4334.0664
504 23.2471 4233(65) 4330.3789 4330.3789
505 23.2731 4394(66) 4326.6909 4326.6909
506 23.2991 4338(66) 4323.0034 4323.0034
507 23.3251 4458(67) 4319.3154 4319.3154
508 23.3511 4296(66) 4315.6279 4315.6279
509 23.3771 4291(66) 4311.9399 4311.9399
510 23.4031 4280(65) 4308.2524 4308.2524
511 23.4291 4218(65) 4304.5645 4304.5645
512 23.4551 4260(65) 4300.8770 4300.8770
513 23.4811 4252(65) 4297.1890 4297.1890
514 23.5071 4133(64) 4293.5010 4293.5010
515 23.5331 4264(65) 4289.8135 4289.8135
516 23.5591 4171(65) 4286.1260 4286.1260
517 23.5851 4159(64) 4282.4380 4282.4380
518 23.6111 4254(65) 4278.7500 4278.7500
519 23.6371 4254(65) 4275.0625 4275.0625
520 23.6631 4151(64) 4271.3745 4271.3745
521 23.6891 4131(64) 4267.6870 4267.6870
522 23.7151 4223(65) 4263.9990 4263.9990
523 23.7411 4173(65) 4260.3115 4260.3115
524 23.7671 4117(64) 4256.6235 4256.6235
525 23.7931 4156(64) 4252.9360 4252.9360
526 23.8191 4180(65) 4249.2480 4249.2480
527 23.8451 4225(65) 4245.5605 4245.5605
528 23.8711 4141(64) 4241.8726 4241.8726
529 23.8971 4139(64) 4238.1846 4238.1846
530 23.9231 4258(65) 4234.4971 4234.4971
531 23.9491 4243(65) 4230.8096 4230.8096
532 23.9751 4186(65) 4227.1216 4227.1216
533 24.0011 4235(65) 4223.4336 4223.4336
534 24.0271 4163(65) 4219.7461 4219.7461
535 24.0531 4171(65) 4216.0581 4216.0581
536 24.0791 4226(65) 4212.3706 4212.3706
537 24.1051 4183(65) 4208.6826 4208.6826
538 24.1311 4157(64) 4204.9951 4204.9951
539 24.1571 4150(64) 4201.3071 4201.3071
540 24.1831 4116(64) 4197.6196 4197.6196
541 24.2091 4125(64) 4193.9321 4193.9321
542 24.2351 4118(64) 4190.2441 4190.2441
543 24.2611 4051(64) 4186.5566 4186.5566
544 24.2871 4045(64) 4182.8687 4182.8687
545 24.3131 4162(65) 4179.1812 4179.1812
546 24.3391 4188(65) 4175.4932 4175.4932
547 24.3651 4131(64) 4171.8057 4171.8057
548 24.3911 4143(64) 4168.1177 4168.1177
549 24.4171 4269(65) 4164.4302 4164.4302
550 24.4431 4336(66) 4160.7422 4160.7422
551 24.4691 4322(66) 4157.0547 4157.0547
552 24.4951 4352(66) 4153.3667 4153.3667
553 24.5211 4387(66) 4149.6792 4149.6792
554 24.5471 4365(66) 4145.9912 4145.9912
555 24.5731 4290(66) 4142.3037 4142.3037
556 24.5991 4319(66) 4138.6157 4138.6157
557 24.6251 4285(65) 4134.9282 4134.9282
558 24.6511 4168(65) 4131.2402 4131.2402
559 24.6771 4176(65) 4127.5527 4127.5527
560 24.7031 4184(65) 4123.8647 4123.8647
561 24.7291 4157(64) 4120.1768 4120.1768
562 24.7551 4112(64) 4116.4893 4116.4893
563 24.7811 4064(64) 4112.8018 4112.8018
564 24.8071 4065(64) 4109.1138 4109.1138
565 24.8331 4083(64) 4105.4258 4105.4258
566 24.8591 4033(64) 4101.7383 4101.7383
567 24.8851 3997(63) 4098.0508 4098.0508
568 24.9111 4040(64) 4094.3625 4094.3625
569 24.9371 4052(64) 4090.6750 4090.6750
570 24.9631 4034(64) 4086.9871 4086.9871
571 24.9891 3995(63) 4083.2996 4083.2996
572 25.0151 3999(63) 4079.6116 4079.6116
573 25.0411 4053(64) 4075.9241 4075.9241
574 25.0671 3997(63) 4072.2361 4072.2361
575 25.0931 4033(64) 4068.5486 4068.5486
576 25.1191 3993(63) 4064.8606 4064.8606
577 25.1451 4009(63) 4061.1729 4061.1729
578 25.1711 3979(63) 4057.4851 4057.4851
579 25.1971 3915(63) 4053.7974 4053.7974
580 25.2231 4013(63) 4050.1096 4050.1096
581 25.2491 3978(63) 4046.4219 4046.4219
582 25.2751 3944(63) 4042.7341 4042.7341
583 25.3011 3836(62) 4039.0464 4039.0464
584 25.3271 4030(63) 4035.3589 4035.3589
585 25.3531 4051(64) 4031.6709 4031.6709
586 25.3791 4030(63) 4027.9834 4027.9834
587 25.4051 4044(64) 4024.2954 4024.2954
588 25.4311 3924(63) 4020.6079 4020.6079
589 25.4571 3986(63) 4016.9199 4016.9199
590 25.4831 3985(63) 4013.2324 4013.2324
591 25.5091 3986(63) 4009.5444 4009.5444
592 25.5351 3958(63) 4005.8569 4005.8569
593 25.5611 3902(62) 4002.1689 4002.1689
594 25.5871 3857(62) 3998.4814 3998.4814
595 25.6131 3928(63) 3994.7935 3994.7935
596 25.6391 3932(63) 3991.1060 3991.1060
597 25.6651 3908(63) 3987.4180 3987.4180
598 25.6911 3902(62) 3983.7305 3983.7305
599 25.7171 3960(63) 3980.0425 3980.0425
600 25.7431 3942(63) 3976.3550 3976.3550
601 25.7691 3923(63) 3972.6670 3972.6670
602 25.7951 3903(62) 3968.9792 3968.9792
603 25.8211 3991(63) 3965.2915 3965.2915
604 25.8471 3874(62) 3961.6038 3961.6038
605 25.8731 3878(62) 3957.9160 3957.9160
606 25.8991 3964(63) 3954.2283 3954.2283
607 25.9251 3824(62) 3950.5405 3950.5405
608 25.9511 3891(62) 3946.8528 3946.8528
609 25.9771 3869(62) 3943.1650 3943.1650
610 26.0031 3870(62) 3939.4773 3939.4773
611 26.0291 3819(62) 3935.7896 3935.7896
612 26.0551 3911(63) 3932.1018 3932.1018
613 26.0811 3945(63) 3928.4141 3928.4141
614 26.1071 3834(62) 3924.7263 3924.7263
615 26.1331 3938(63) 3921.0386 3921.0386
616 26.1591 3994(63) 3917.3508 3917.3508
617 26.1851 3836(62) 3913.6628 3913.6628
618 26.2111 3753(61) 3909.9753 3909.9753
619 26.2371 3844(62) 3906.2874 3906.2874
620 26.2631 3796(62) 3902.5999 3902.5999
621 26.2891 3830(62) 3898.9119 3898.9119
622 26.3151 3808(62) 3895.2244 3895.2244
623 26.3411 3732(61) 3891.5364 3891.5364
624 26.3671 3797(62) 3887.8489 3887.8489
625 26.3931 3813(62) 3884.1611 3884.1611
626 26.4191 3852(62) 3880.4731 3880.4731
627 26.4451 3806(62) 3876.7856 3876.7856
628 26.4711 3778(61) 3873.0977 3873.0977
629 26.4971 3862(62) 3869.4102 3869.4102
630 26.5231 3873(62) 3866.1365 3866.1365
631 26.5491 3748(61) 3863.0430 3863.0430
632 26.5751 3769(61) 3859.9492 3859.9492
633 26.6011 3827(62) 3856.8557 3856.8557
634 26.6271 3743(61) 3853.7620 3853.7620
635 26.6531 3787(62) 3850.6685 3850.6685
636 26.6791 3868(62) 3847.5747 3847.5747
637 26.7051 3797(62) 3844.4812 3844.4812
638 26.7311 3722(61) 3841.3875 3841.3875
639 26.7571 3802(62) 3838.2939 3838.2939
640 26.7831 3724(61) 3835.2002 3835.2002
641 26.8091 3703(61) 3832.1067 3832.1067
642 26.8351 3714(61) 3829.0129 3829.0129
643 26.8611 3685(61) 3825.9194 3825.9194
644 26.8871 3685(61) 3822.8257 3822.8257
645 26.9131 3710(61) 3819.7322 3819.7322
646 26.9391 3695(61) 3816.6384 3816.6384
647 26.9651 3706(61) 3813.5449 3813.5449
648 26.9911 3691(61) 3810.4512 3810.4512
649 27.0171 3657(60) 3807.3574 3807.3574
650 27.0431 3704(61) 3804.2637 3804.2637
651 27.0691 3682(61) 3801.1702 3801.1702
652 27.0951 3689(61) 3798.0764 3798.0764
653 27.1211 3737(61) 3794.9829 3794.9829
654 27.1471 3740(61) 3791.8892 3791.8892
655 27.1731 3758(61) 3788.7957 3788.7957
656 27.1991 3777(61) 3785.7019 3785.7019
657 27.2251 3790(62) 3782.6084 3782.6084
658 27.2511 3751(61) 3779.5146 3779.5146
659 27.2771 3740(61) 3776.4211 3776.4211
660 27.3031 3698(61) 3773.3274 3773.3274
661 27.3291 3674(61) 3770.2339 3770.2339
662 27.3551 3695(61) 3767.1401 3767.1401
663 27.3811 3699(61) 3764.0466 3764.0466
664 27.4071 3654(60) 3760.9529 3760.9529
665 27.4331 3682(61) 3757.8594 3757.8594
666 27.4591 3602(60) 3754.7659 3754.7659
667 27.4851 3641(60) 3751.6721 3751.6721
668 27.5111 3659(60) 3748.5786 3748.5786
669 27.5371 3693(61) 3745.4849 3745.4849
670 27.5631 3741(61) 3742.3911 3742.3911
671 27.5891 3673(61) 3739.2974 3739.2974
672 27.6151 3728(61) 3736.2039 3736.2039
673 27.6411 3775(61) 3733.1101 3733.1101
674 27.6671 3822(62) 3730.0166 3730.0166
675 27.6931 3860(62) 3726.9229 3726.9229
676 27.7191 3880(62) 3723.8293 3723.8293
677 27.7451 3956(63) 3720.7356 3720.7356
678 27.7711 3912(63) 3717.6421 3717.6421
679 27.7971 3900(62) 3714.5483 3714.5483
680 27.8231 3864(62) 3711.4548 3711.4548
681 27.8491 3771(61) 3708.3611 3708.3611
682 27.8751 3675(61) 3705.2676 3705.2676
683 27.9011 3687(61) 3702.1738 3702.1738
684 27.9271 3715(61) 3699.0803 3699.0803
685 27.9531 3738(61) 3695.9866 3695.9866
686 27.9791 3684(61) 3692.8931 3692.8931
687 28.0051 3630(60) 3689.7993 3689.7993
688 28.0311 3700(61) 3686.7058 3686.7058
689 28.0571 3619(60) 3683.6121 3683.6121
690 28.0831 3667(61) 3680.5183 3680.5183
691 28.1091 3688(61) 3677.4246 3677.4246
692 28.1351 3793(62) 3674.3311 3674.3311
693 28.1611 3728(61) 3671.2373 3671.2373
694 28.1871 3705(61) 3668.1438 3668.1438
695 28.2131 3541(60) 3665.0500 3665.0500
696 28.2391 3605(60) 3661.9565 3661.9565
697 28.2651 3595(60) 3658.8628 3658.8628
698 28.2911 3667(61) 3655.7693 3655.7693
699 28.3171 3611(60) 3652.6755 3652.6755
700 28.3431 3658(60) 3649.5820 3649.5820
701 28.3691 3546(60) 3646.4883 3646.4883
702 28.3951 3537(59) 3643.3948 3643.3948
703 28.4211 3707(61) 3640.3010 3640.3010
704 28.4471 3569(60) 3637.2075 3637.2075
705 28.4731 3661(61) 3634.1138 3634.1138
706 28.4991 3670(61) 3631.0203 3631.0203
707 28.5251 3554(60) 3627.9265 3627.9265
708 28.5511 3626(60) 3624.8330 3624.8330
709 28.5771 3718(61) 3621.7393 3621.7393
710 28.6031 3650(60) 3618.6455 3618.6455
711 28.6291 3590(60) 3615.5520 3615.5520
712 28.6551 3714(61) 3612.4583 3612.4583
713 28.6811 3683(61) 3609.3647 3609.3647
714 28.7071 3605(60) 3606.2710 3606.2710
715 28.7331 3641(60) 3603.1775 3603.1775
716 28.7591 3676(61) 3600.0837 3600.0837
717 28.7851 3694(61) 3596.9902 3596.9902
718 28.8111 3789(62) 3593.8965 3593.8965
719 28.8371 3816(62) 3590.8030 3590.8030
720 28.8631 3824(62) 3587.7092 3587.7092
721 28.8891 3847(62) 3584.6157 3584.6157
722 28.9151 3876(62) 3581.5220 3581.5220
723 28.9411 3918(63) 3578.4285 3578.4285
724 28.9671 3900(62) 3575.3347 3575.3347
725 28.9931 3910(63) 3572.2412 3572.2412
726 29.0191 3885(62) 3569.1475 3569.1475
727 29.0451 3825(62) 3566.0540 3566.0540
728 29.0711 3900(62) 3562.9602 3562.9602
729 29.0971 3863(62) 3559.8667 3559.8667
730 29.1231 3778(61) 3556.7729 3556.7729
731 29.1491 3763(61) 3553.6792 3553.6792
732 29.1751 3703(61) 3550.5854 3550.5854
733 29.2011 3762(61) 3547.4919 3547.4919
734 29.2271 3780(61) 3544.3982 3544.3982
735 29.2531 3734(61) 3541.3047 3541.3047
736 29.2791 3768(61) 3538.2109 3538.2109
737 29.3051 3660(60) 3535.1174 3535.1174
738 29.3311 3713(61) 3532.0237 3532.0237
739 29.3571 3667(61) 3528.9302 3528.9302
740 29.3831 3624(60) 3525.8364 3525.8364
741 29.4091 3658(60) 3522.7429 3522.7429
742 29.4351 3727(61) 3519.6492 3519.6492
743 29.4611 3723(61) 3516.5557 3516.5557
744 29.4871 3745(61) 3513.4619 3513.4619
745 29.5131 3767(61) 3742.8435 3510.3684
746 29.5391 3734(61) 3749.6396 3507.2747
747 29.5651 3752(61) 3757.0791 3504.1812
748 29.5911 3753(61) 3880.9504 3501.0874
749 29.6171 3751(61) 3894.7766 3497.9939
750 29.6431 3813(62) 3909.7583 3494.9004
751 29.6691 3914(63) 3926.0039 3491.8066
752 29.6951 4084(64) 3943.6318 3488.7129
753 29.7211 4193(65) 3962.7793 3485.6191
754 29.7471 4246(65) 3983.5962 3482.5256
755 29.7731 4351(66) 4006.2559 3479.4319
756 29.7991 4361(66) 4030.9497 3476.3384
757 29.8251 4319(66) 4057.9014 3473.2446
758 29.8511 4355(66) 4087.3572 3470.1511
759 29.8771 4426(67) 4119.6079 3467.0574
760 29.9031 4467(67) 4154.9775 3463.9639
761 29.9291 4421(66) 4193.8496 3460.8701
762 29.9551 4433(67) 4236.6548 3457.7766
763 29.9811 4534(67) 4283.9067 3454.6829
764 30.0071 4510(67) 4336.1909 3451.5894
765 30.0331 4516(67) 4394.2075 3448.4956
766 30.0591 4572(68) 4458.7646 3445.4021
767 30.0851 4632(68) 4530.8394 3442.3083
768 30.1111 4707(69) 4611.5732 3439.2148
769 30.1371 4739(69) 4702.3594 3436.1211
770 30.1631 4847(70) 4804.8540 3433.0273
771 30.1891 4952(70) 4921.1074 3429.9336
772 30.2151 5063(71) 5053.6128 3426.8401
773 30.2411 5228(72) 5205.5293 3423.7463
774 30.2671 5475(74) 5380.8423 3420.6528
775 30.2931 5575(75) 5584.8223 3417.5591
776 30.3191 5586(75) 5824.4912 3414.4656
777 30.3451 6009(78) 6109.6133 3411.3718
778 30.3711 6166(79) 6453.7754 3408.2783
779 30.3971 6470(80) 6876.1221 3405.1846
780 30.4231 6923(83) 7402.8447 3402.0911
781 30.4491 7700(88) 8068.8730 3398.9973
782 30.4751 8538(92) 8918.5508 3395.9038
783 30.5011 9676(98) 10008.0566 3392.8101
784 30.5271 11108(105) 11413.9971 3389.7166
785 30.5531 13235(115) 13263.5664 3386.6228
786 30.5791 16066(127) 15796.9219 3383.5293
787 30.6051 20066(142) 19454.0625 3380.4355
788 30.6311 25573(160) 24932.6816 3377.3420
789 30.6571 34163(185) 33198.3633 3374.2483
790 30.6831 45661(214) 45475.5703 3371.1548
791 30.7091 62518(250) 63004.2188 3368.0610
792 30.7351 84274(290) 85372.9844 3364.9673
793 30.7611 106870(327) 106590.1953 3361.8738
794 30.7871 119055(345) 116348.1406 3358.7800
795 30.8131 114269(338) 112692.2891 3355.6865
796 30.8391 100293(317) 101322.2656 3352.5928
797 30.8651 83254(289) 84617.0469 3349.4993
798 30.8911 65384(256) 64910.9570 3346.4055
799 30.9171 46404(215) 46722.3477 3343.3120
800 30.9431 32146(179) 32703.6133 3340.2183
801 30.9691 23180(152) 23122.1309 3337.1248
802 30.9951 17461(132) 17089.2148 3334.0310
803 31.0211 14169(119) 13444.9385 3330.9375
804 31.0471 11893(109) 11224.1133 3327.8438
805 31.0731 9874(99) 9795.4980 3324.7502
806 31.0991 8627(93) 8801.0186 3321.6565
807 31.1251 7796(88) 8053.0981 3318.5630
808 31.1511 7174(85) 7456.0703 3315.4692
809 31.1771 6459(80) 6961.2427 3312.3755
810 31.2031 6178(79) 6542.5781 3309.2817
811 31.2291 5626(75) 6184.9185 3306.1885
812 31.2551 5501(74) 5877.9214 3303.0947
813 31.2811 5316(73) 5613.6768 3300.0010
814 31.3071 5198(72) 5385.4937 3296.9072
815 31.3331 4933(70) 5187.7139 3293.8137
816 31.3591 4769(69) 5015.4590 3290.7200
817 31.3851 4741(69) 4864.6787 3287.6265
818 31.4111 4721(69) 4731.9678 3284.5327
819 31.4371 4622(68) 4614.5566 3281.4392
820 31.4631 4547(67) 4510.1348 3278.3455
821 31.4891 4556(67) 4416.8286 3275.2520
822 31.5151 4450(67) 4333.0625 3272.1582
823 31.5411 4386(66) 4257.5498 3269.0647
824 31.5671 4358(66) 4189.1943 3265.9709
825 31.5931 4218(65) 4127.0928 3262.8774
826 31.6191 3983(63) 4070.4634 3259.7837
827 31.6451 3981(63) 4018.6582 3256.6902
828 31.6711 3851(62) 3971.1079 3253.5964
829 31.6971 3879(62) 3927.3379 3250.5029
830 31.7231 3825(62) 3886.9260 3247.4092
831 31.7491 3817(62) 3849.5176 3244.3154
832 31.7751 3834(62) 3814.7949 3241.2217
833 31.8011 3655(60) 3782.4895 3238.1284
834 31.8271 3659(60) 3752.3582 3235.0347
835 31.8531 3639(60) 3724.1895 3231.9409
836 31.8791 3585(60) 3697.8018 3228.8474
837 31.9051 3601(60) 3673.0264 3225.7537
838 31.9311 3599(60) 3649.7217 3222.6602
839 31.9571 3594(60) 3627.7544 3219.5664
840 31.9831 3570(60) 3607.0120 3216.4729
841 32.0091 3512(59) 3587.3894 3213.3794
842 32.0351 3518(59) 3339.7996 3210.2856
843 32.0611 3473(59) 3331.2383 3207.1919
844 32.0871 3446(59) 3323.0156 3204.0981
845 32.1131 3436(59) 3201.0049 3201.0049
846 32.1391 3408(58) 3197.9111 3197.9111
847 32.1651 3397(58) 3194.8174 3194.8174
848 32.1911 3426(59) 3191.7236 3191.7236
849 32.2171 3381(58) 3188.6304 3188.6304
850 32.2431 3408(58) 3185.5366 3185.5366
851 32.2691 3441(59) 3182.4429 3182.4429
852 32.2951 3376(58) 3179.3491 3179.3491
853 32.3211 3310(58) 3176.2559 3176.2559
854 32.3471 3256(57) 3173.1621 3173.1621
855 32.3731 3261(57) 3170.0684 3170.0684
856 32.3991 3253(57) 3166.9746 3166.9746
857 32.4251 3265(57) 3163.8811 3163.8811
858 32.4511 3293(57) 3160.7874 3160.7874
859 32.4771 3293(57) 3157.6936 3157.6936
860 32.5031 3272(57) 3154.5999 3154.5999
861 32.5291 3264(57) 3151.5066 3151.5066
862 32.5551 3294(57) 3148.4128 3148.4128
863 32.5811 3232(57) 3145.3191 3145.3191
864 32.6071 3208(57) 3142.2253 3142.2253
865 32.6331 3173(56) 3139.1321 3139.1321
866 32.6591 3209(57) 3136.0383 3136.0383
867 32.6851 3287(57) 3132.9446 3132.9446
868 32.7111 3212(57) 3129.8508 3129.8508
869 32.7371 3192(56) 3126.7576 3126.7576
870 32.7631 3170(56) 3123.6638 3123.6638
871 32.7891 3103(56) 3120.5698 3120.5698
872 32.8151 3124(56) 3117.4761 3117.4761
873 32.8411 3195(57) 3114.3828 3114.3828
874 32.8671 3141(56) 3111.2891 3111.2891
875 32.8931 3126(56) 3108.1953 3108.1953
876 32.9191 3144(56) 3105.1021 3105.1021
877 32.9451 3175(56) 3102.0083 3102.0083
878 32.9711 3172(56) 3098.9146 3098.9146
879 32.9971 3158(56) 3095.8208 3095.8208
880 33.0231 3165(56) 3092.7275 3092.7275
881 33.0491 3183(56) 3089.6338 3089.6338
882 33.0751 3166(56) 3086.5400 3086.5400
883 33.1011 3139(56) 3083.4463 3083.4463
884 33.1271 3056(55) 3080.3530 3080.3530
885 33.1531 3173(56) 3077.2593 3077.2593
886 33.1791 3176(56) 3074.1655 3074.1655
887 33.2051 3285(57) 3071.0718 3071.0718
888 33.2311 3256(57) 3067.9785 3067.9785
889 33.2571 3107(56) 3064.8848 3064.8848
890 33.2831 3079(55) 3061.7910 3061.7910
891 33.3091 3087(56) 3058.6973 3058.6973
892 33.3351 3114(56) 3055.6040 3055.6040
893 33.3611 3043(55) 3052.5103 3052.5103
894 33.3871 3107(56) 3049.4165 3049.4165
895 33.4131 3187(56) 3046.3228 3046.3228
896 33.4391 3095(56) 3043.2292 3043.2292
897 33.4651 3210(57) 3040.1355 3040.1355
898 33.4911 3157(56) 3037.0417 3037.0417
899 33.5171 3106(56) 3033.9480 3033.9480
900 33.5431 3097(56) 3030.8547 3030.8547
901 33.5691 3049(55) 3027.7610 3027.7610
902 33.5951 3082(56) 3024.6672 3024.6672
903 33.6211 3014(55) 3021.5735 3021.5735
904 33.6471 3068(55) 3018.4802 3018.4802
905 33.6731 2993(55) 3015.3865 3015.3865
906 33.6991 2912(54) 3012.2927 3012.2927
907 33.7251 2988(55) 3009.1990 3009.1990
908 33.7511 2840(53) 3006.1057 3006.1057
909 33.7771 2931(54) 3003.0120 3003.0120
910 33.8031 3011(55) 2999.9182 2999.9182
911 33.8291 2992(55) 2996.8245 2996.8245
912 33.8551 3015(55) 2993.7310 2993.7310
913 33.8811 2984(55) 2990.6372 2990.6372
914 33.9071 2939(54) 2987.5435 2987.5435
915 33.9331 2943(54) 2984.4497 2984.4497
916 33.9591 2905(54) 2981.3564 2981.3564
917 33.9851 2987(55) 2978.2627 2978.2627
918 34.0111 2915(54) 2975.1689 2975.1689
919 34.0371 2894(54) 2972.0757 2972.0757
920 34.0631 2887(54) 2968.9819 2968.9819
921 34.0891 2824(53) 2965.8882 2965.8882
922 34.1151 2942(54) 2962.7944 2962.7944
923 34.1411 2926(54) 2959.7012 2959.7012
924 34.1671 2918(54) 2956.6074 2956.6074
925 34.1931 2865(54) 2953.5137 2953.5137
926 34.2191 2885(54) 2950.3640 2950.3640
927 34.2451 2933(54) 2947.0701 2947.0701
928 34.2711 2898(54) 2943.7754 2943.7754
929 34.2971 2850(53) 2940.4810 2940.4810
930 34.3231 2808(53) 2937.1865 2937.1865
931 34.3491 2879(54) 2933.8923 2933.8923
932 34.3751 2853(53) 2930.5979 2930.5979
933 34.4011 2742(52) 2927.3032 2927.3032
934 34.4271 2761(53) 2924.0088 2924.0088
935 34.4531 2829(53) 2920.7148 2920.7148
936 34.4791 2834(53) 2917.4202 2917.4202
937 34.5051 2820(53) 2914.1257 2914.1257
938 34.5311 2831(53) 2910.8311 2910.8311
939 34.5571 2913(54) 2907.5371 2907.5371
940 34.5831 2843(53) 2904.2424 2904.2424
941 34.6091 2778(53) 2900.9480 2900.9480
942 34.6351 2787(53) 2897.6536 2897.6536
943 34.6611 2811(53) 2894.3594 2894.3594
944 34.6871 2803(53) 2891.0649 2891.0649
945 34.7131 2783(53) 2887.7703 2887.7703
946 34.7391 2797(53) 2884.4758 2884.4758
947 34.7651 2820(53) 2881.1816 2881.1816
948 34.7911 2842(53) 2877.8872 2877.8872
949 34.8171 2851(53) 2874.5928 2874.5928
950 34.8431 2786(53) 2871.2981 2871.2981
951 34.8691 2745(52) 2868.0042 2868.0042
952 34.8951 2854(53) 2864.7095 2864.7095
953 34.9211 2902(54) 2861.4150 2861.4150
954 34.9471 2889(54) 2858.1206 2858.1206
955 34.9731 2847(53) 2854.8264 2854.8264
956 34.9991 2842(53) 2851.5320 2851.5320
957 35.0251 2970(55) 2848.2373 2848.2373
958 35.0511 2993(55) 2844.9434 2844.9434
959 35.0771 2959(54) 2841.6489 2841.6489
960 35.1031 2929(54) 2838.3542 2838.3542
961 35.1291 2881(54) 2835.0598 2835.0598
962 35.1551 2829(53) 2831.7656 2831.7656
963 35.1811 2820(53) 2828.4712 2828.4712
964 35.2071 2800(53) 2825.1765 2825.1765
965 35.2331 2796(53) 2821.8821 2821.8821
966 35.2591 2817(53) 2818.5881 2818.5881
967 35.2851 2774(53) 2815.2935 2815.2935
968 35.3111 2790(53) 2811.9990 2811.9990
969 35.3371 2822(53) 2808.7043 2808.7043
970 35.3631 2769(53) 2805.4104 2805.4104
971 35.3891 2748(52) 2802.1157 2802.1157
972 35.4151 2676(52) 2798.8213 2798.8213
973 35.4411 2613(51) 2795.5269 2795.5269
974 35.4671 2629(51) 2792.2327 2792.2327
975 35.4931 2648(51) 2788.9382 2788.9382
976 35.5191 2675(52) 2785.6436 2785.6436
977 35.5451 2678(52) 2782.3491 2782.3491
978 35.5711 2774(53) 2779.0552 2779.0552
979 35.5971 2671(52) 2775.7605 2775.7605
980 35.6231 2677(52) 2772.4661 2772.4661
981 35.6491 2646(51) 2769.1714 2769.1714
982 35.6751 2687(52) 2765.8774 2765.8774
983 35.7011 2696(52) 2762.5830 2762.5830
984 35.7271 2743(52) 2759.2883 2759.2883
985 35.7531 2687(52) 2755.9939 2755.9939
986 35.7791 2643(51) 2752.6997 2752.6997
987 35.8051 2677(52) 2749.4053 2749.4053
988 35.8311 2738(52) 2746.1106 2746.1106
989 35.8571 2610(51) 2742.8162 2742.8162
990 35.8831 2638(51) 2739.5222 2739.5222
991 35.9091 2720(52) 2736.2275 2736.2275
992 35.9351 2676(52) 2732.9331 2732.9331
993 35.9611 2783(53) 2729.6384 2729.6384
994 35.9871 2814(53) 2726.3445 2726.3445
995 36.0131 2860(53) 2723.0498 2723.0498
996 36.0391 2978(55) 2719.7554 2719.7554
997 36.0651 2956(54) 2716.4609 2716.4609
998 36.0911 2823(53) 2713.1667 2713.1667
999 36.1171 2931(54) 2709.8723 2709.8723
1000 36.1431 2940(54) 2706.5776 2706.5776
1001 36.1691 2766(53) 2703.2837 2703.2837
1002 36.1951 2661(52) 2699.9893 2699.9893
1003 36.2211 2758(53) 2696.6946 2696.6946
1004 36.2471 2734(52) 2693.4001 2693.4001
1005 36.2731 2733(52) 2690.1060 2690.1060
1006 36.2991 2589(51) 2686.8115 2686.8115
1007 36.3251 2608(51) 2683.5171 2683.5171
1008 36.3511 2664(52) 2680.2224 2680.2224
1009 36.3771 2649(51) 2676.9285 2676.9285
1010 36.4031 2704(52) 2673.6338 2673.6338
1011 36.4291 2677(52) 2670.3394 2670.3394
1012 36.4551 2572(51) 2667.0447 2667.0447
1013 36.4811 2619(51) 2663.7507 2663.7507
1014 36.5071 2496(50) 2660.4563 2660.4563
1015 36.5331 2565(51) 2657.1616 2657.1616
1016 36.5591 2648(51) 2653.8672 2653.8672
1017 36.5851 2597(51) 2650.5730 2650.5730
1018 36.6111 2595(51) 2647.5469 2647.2786
1019 36.6371 2544(50) 2644.2632 2643.9839
1020 36.6631 2640(51) 2640.9805 2640.6895
1021 36.6891 2565(51) 2637.6990 2637.3955
1022 36.7151 2532(50) 2634.5522 2634.1008
1023 36.7411 2504(50) 2631.2776 2630.8064
1024 36.7671 2519(50) 2628.0039 2627.5117
1025 36.7931 2453(50) 2624.7324 2624.2178
1026 36.8191 2440(49) 2621.4622 2620.9233
1027 36.8451 2468(50) 2618.1931 2617.6287
1028 36.8711 2502(50) 2614.9265 2614.3342
1029 36.8971 2535(50) 2611.6621 2611.0400
1030 36.9231 2491(50) 2608.3997 2607.7456
1031 36.9491 2540(50) 2605.1399 2604.4512
1032 36.9751 2594(51) 2601.8826 2601.1565
1033 37.0011 2553(51) 2598.6292 2597.8625
1034 37.0271 2454(50) 2595.3787 2594.5679
1035 37.0531 2470(50) 2592.1321 2591.2734
1036 37.0791 2483(50) 2588.8896 2587.9788
1037 37.1051 2503(50) 2585.6531 2584.6848
1038 37.1311 2492(50) 2582.4214 2581.3904
1039 37.1571 2532(50) 2579.1958 2578.0957
1040 37.1831 2502(50) 2575.9778 2574.8013
1041 37.2091 2522(50) 2572.7681 2571.5071
1042 37.2351 2507(50) 2569.5676 2568.2126
1043 37.2611 2462(50) 2566.3779 2564.9180
1044 37.2871 2456(50) 2563.2014 2561.6240
1045 37.3131 2459(50) 2560.0393 2558.3296
1046 37.3391 2473(50) 2556.8943 2555.0349
1047 37.3651 2469(50) 2553.7703 2551.7405
1048 37.3911 2469(50) 2550.6709 2548.4463
1049 37.4171 2506(50) 2547.6013 2545.1519
1050 37.4431 2515(50) 2544.5684 2541.8574
1051 37.4691 2502(50) 2541.5815 2538.5627
1052 37.4951 2506(50) 2538.6541 2535.2688
1053 37.5211 2496(50) 2535.8022 2531.9741
1054 37.5471 2443(49) 2533.0505 2528.6797
1055 37.5731 2444(49) 2530.4299 2525.3853
1056 37.5991 2488(50) 2527.9807 2522.0911
1057 37.6251 2521(50) 2525.7539 2518.7966
1058 37.6511 2517(50) 2523.8179 2515.5020
1059 37.6771 2476(50) 2522.2812 2512.2075
1060 37.7031 2477(50) 2521.3367 2508.9133
1061 37.7291 2460(50) 2521.3386 2505.6189
1062 37.7551 2469(50) 2522.8738 2502.3245
1063 37.7811 2444(49) 2526.7854 2499.0298
1064 37.8071 2428(49) 2534.1455 2495.7358
1065 37.8331 2504(50) 2546.1440 2492.4412
1066 37.8591 2562(51) 2563.4009 2489.1467
1067 37.8851 2566(51) 2583.4763 2485.8521
1068 37.9111 2557(51) 2597.8359 2482.5581
1069 37.9371 2556(51) 2598.0945 2479.2637
1070 37.9631 2517(50) 2587.3674 2475.9690
1071 37.9891 2536(50) 2573.1379 2472.6746
1072 38.0151 2574(51) 2556.5967 2469.3804
1073 38.0411 2538(50) 2536.5242 2466.0859
1074 38.0671 2495(50) 2515.5574 2462.7915
1075 38.0931 2520(50) 2497.0950 2459.4968
1076 38.1191 2461(50) 2482.4446 2456.2029
1077 38.1451 2448(49) 2471.3928 2452.9082
1078 38.1711 2424(49) 2463.1062 2449.6138
1079 38.1971 2448(49) 2456.6633 2446.3193
1080 38.2231 2404(49) 2451.3391 2443.0251
1081 38.2491 2461(50) 2446.6624 2439.7307
1082 38.2751 2424(49) 2442.3621 2436.4360
1083 38.3011 2395(49) 2438.2920 2433.1421
1084 38.3271 2427(49) 2434.3708 2429.8477
1085 38.3531 2404(49) 2430.5554 2426.5530
1086 38.3791 2356(49) 2426.8206 2423.2583
1087 38.4051 2467(50) 2423.1509 2419.9644
1088 38.4311 2408(49) 2419.5334 2416.6699
1089 38.4571 2449(49) 2415.9602 2413.3752
1090 38.4831 2418(49) 2412.4248 2410.0808
1091 38.5091 2401(49) 2408.9209 2406.7866
1092 38.5351 2453(50) 2405.4434 2403.4922
1093 38.5611 2353(49) 2401.9880 2400.1978
1094 38.5871 2425(49) 2398.5518 2396.9031
1095 38.6131 2410(49) 2395.1321 2393.6091
1096 38.6391 2419(49) 2391.7258 2390.3145
1097 38.6651 2407(49) 2388.3313 2387.0200
1098 38.6911 2368(49) 2384.9473 2383.7256
1099 38.7171 2336(48) 2381.5723 2380.4314
1100 38.7431 2384(49) 2378.2048 2377.1370
1101 38.7691 2474(50) 2374.8440 2373.8423
1102 38.7951 2291(48) 2371.4893 2370.5479
1103 38.8211 2324(48) 2368.1404 2367.2539
1104 38.8471 2333(48) 2366.2920 2365.4558
1105 38.8731 2312(48) 2365.5579 2364.7678
1106 38.8991 2424(49) 2364.8271 2364.0796
1107 38.9251 2311(48) 2364.0999 2363.3914
1108 38.9511 2390(49) 2363.3757 2362.7034
1109 38.9771 2357(49) 2362.6541 2362.0151
1110 39.0031 2350(48) 2361.9348 2361.3269
1111 39.0291 2344(48) 2361.2180 2360.6389
1112 39.0551 2318(48) 2360.5032 2359.9507
1113 39.0811 2324(48) 2359.7898 2359.2625
1114 39.1071 2328(48) 2359.0784 2358.5742
1115 39.1331 2436(49) 2358.3687 2357.8862
1116 39.1591 2449(49) 2357.6599 2357.1980
1117 39.1851 2404(49) 2356.9526 2356.5098
1118 39.2111 2371(49) 2356.2463 2355.8215
1119 39.2371 2353(49) 2355.2832 2355.1335
1120 39.2631 2408(49) 2354.5889 2354.4453
1121 39.2891 2445(49) 2353.8950 2353.7571
1122 39.3151 2359(49) 2353.2014 2353.0691
1123 39.3411 2463(50) 2352.3809 2352.3809
1124 39.3671 2432(49) 2351.6929 2351.6929
1125 39.3931 2381(49) 2351.0046 2351.0046
1126 39.4191 2484(50) 2350.3164 2350.3164
1127 39.4451 2506(50) 2349.6284 2349.6284
1128 39.4711 2467(50) 2348.9402 2348.9402
1129 39.4971 2452(50) 2348.2520 2348.2520
1130 39.5231 2481(50) 2347.5640 2347.5640
1131 39.5491 2503(50) 2346.8757 2346.8757
1132 39.5751 2561(51) 2346.1875 2346.1875
1133 39.6011 2522(50) 2345.4993 2345.4993
1134 39.6271 2514(50) 2344.8113 2344.8113
1135 39.6531 2593(51) 2344.1230 2344.1230
1136 39.6791 2580(51) 2343.4348 2343.4348
1137 39.7051 2608(51) 2342.7466 2342.7466
1138 39.7311 2732(52) 2342.0586 2342.0586
1139 39.7571 2792(53) 2341.3704 2341.3704
1140 39.7831 2748(52) 2340.6821 2340.6821
1141 39.8091 2728(52) 2339.9941 2339.9941
1142 39.8351 2689(52) 2339.3059 2339.3059
1143 39.8611 2635(51) 2338.6177 2338.6177
1144 39.8871 2524(50) 2337.9297 2337.9297
1145 39.9131 2491(50) 2337.2415 2337.2415
1146 39.9391 2421(49) 2336.5535 2336.5535
1147 39.9651 2380(49) 2335.8652 2335.8652
1148 39.9911 2389(49) 2335.1770 2335.1770
1149 40.0171 2363(49) 2334.4888 2334.4888
1150 40.0431 2336(48) 2333.8008 2333.8008
1151 40.0691 2390(49) 2333.1125 2333.1125
1152 40.0951 2353(49) 2332.4243 2332.4243
1153 40.1211 2335(48) 2331.7361 2331.7361
1154 40.1471 2323(48) 2331.0481 2331.0481
1155 40.1731 2304(48) 2330.3599 2330.3599
1156 40.1991 2341(48) 2329.6716 2329.6716
1157 40.2251 2320(48) 2328.9836 2328.9836
1158 40.2511 2340(48) 2328.2954 2328.2954
1159 40.2771 2348(48) 2327.6072 2327.6072
1160 40.3031 2311(48) 2326.9192 2326.9192
1161 40.3291 2268(48) 2326.2310 2326.2310
1162 40.3551 2273(48) 2325.5427 2325.5427
1163 40.3811 2287(48) 2324.8547 2324.8547
1164 40.4071 2310(48) 2324.1665 2324.1665
1165 40.4331 2317(48) 2323.4783 2323.4783
1166 40.4591 2342(48) 2322.7903 2322.7903
1167 40.4851 2386(49) 2322.1021 2322.1021
1168 40.5111 2304(48) 2321.4138 2321.4138
1169 40.5371 2267(48) 2320.7258 2320.7258
1170 40.5631 2230(47) 2320.0376 2320.0376
1171 40.5891 2192(47) 2319.3494 2319.3494
1172 40.6151 2259(48) 2318.6611 2318.6611
1173 40.6411 2302(48) 2317.9731 2317.9731
1174 40.6671 2406(49) 2317.2849 2317.2849
1175 40.6931 2258(48) 2316.5967 2316.5967
1176 40.7191 2207(47) 2315.9087 2315.9087
1177 40.7451 2270(48) 2315.2205 2315.2205
1178 40.7711 2223(47) 2314.5322 2314.5322
1179 40.7971 2240(47) 2313.8442 2313.8442
1180 40.8231 2224(47) 2313.1560 2313.1560
1181 40.8491 2253(47) 2312.4678 2312.4678
1182 40.8751 2275(48) 2311.7798 2311.7798
1183 40.9011 2221(47) 2311.0916 2311.0916
1184 40.9271 2256(48) 2310.4033 2310.4033
1185 40.9531 2263(48) 2309.7153 2309.7153
1186 40.9791 2187(47) 2309.0271 2309.0271
1187 41.0051 2278(48) 2308.3389 2308.3389
1188 41.0311 2302(48) 2307.6506 2307.6506
1189 41.0571 2284(48) 2306.9626 2306.9626
1190 41.0831 2259(48) 2306.2744 2306.2744
1191 41.1091 2290(48) 2305.5862 2305.5862
1192 41.1351 2302(48) 2304.8982 2304.8982
1193 41.1611 2269(48) 2304.2100 2304.2100
1194 41.1871 2295(48) 2303.5217 2303.5217
1195 41.2131 2315(48) 2302.8337 2302.8337
1196 41.2391 2280(48) 2302.1455 2302.1455
1197 41.2651 2274(48) 2301.4573 2301.4573
1198 41.2911 2276(48) 2300.7693 2300.7693
1199 41.3171 2300(48) 2300.0811 2300.0811
1200 41.3431 2260(48) 2299.3928 2299.3928
1201 41.3691 2240(47) 2298.7048 2298.7048
1202 41.3951 2392(49) 2298.0166 2298.0166
1203 41.4211 2222(47) 2297.3284 2297.3284
1204 41.4471 2244(47) 2296.6401 2296.6401
1205 41.4731 2176(47) 2295.9521 2295.9521
1206 41.4991 2240(47) 2295.2639 2295.2639
1207 41.5251 2264(48) 2294.5757 2294.5757
1208 41.5511 2157(46) 2293.8877 2293.8877
1209 41.5771 2227(47) 2293.1995 2293.1995
1210 41.6031 2318(48) 2292.5112 2292.5112
1211 41.6291 2285(48) 2291.8232 2291.8232
1212 41.6551 2237(47) 2291.1350 2291.1350
1213 41.6811 2217(47) 2290.4468 2290.4468
1214 41.7071 2254(47) 2289.7588 2289.7588
1215 41.7331 2273(48) 2289.0706 2289.0706
1216 41.7591 2263(48) 2288.3823 2288.3823
1217 41.7851 2225(47) 2287.6943 2287.6943
1218 41.8111 2217(47) 2287.0061 2287.0061
1219 41.8371 2140(46) 2286.3179 2286.3179
1220 41.8631 2279(48) 2285.6299 2285.6299
1221 41.8891 2240(47) 2284.9417 2284.9417
1222 41.9151 2164(47) 2284.2534 2284.2534
1223 41.9411 2218(47) 2283.5652 2283.5652
1224 41.9671 2177(47) 2282.8772 2282.8772
1225 41.9931 2182(47) 2282.1890 2282.1890
1226 42.0191 2193(47) 2281.5007 2281.5007
1227 42.0451 2227(47) 2280.8125 2280.8125
1228 42.0711 2251(47) 2280.1245 2280.1245
1229 42.0971 2230(47) 2279.4363 2279.4363
1230 42.1231 2161(46) 2278.7480 2278.7480
1231 42.1491 2157(46) 2278.0601 2278.0601
1232 42.1751 2138(46) 2277.3718 2277.3718
1233 42.2011 2178(47) 2276.6836 2276.6836
1234 42.2271 2204(47) 2275.9956 2275.9956
1235 42.2531 2248(47) 2275.3074 2275.3074
1236 42.2791 2199(47) 2274.6194 2274.6194
1237 42.3051 2237(47) 2273.9312 2273.9312
1238 42.3311 2229(47) 2273.2429 2273.2429
1239 42.3571 2257(48) 2272.5547 2272.5547
1240 42.3831 2278(48) 2271.8667 2271.8667
1241 42.4091 2296(48) 2271.1785 2271.1785
1242 42.4351 2260(48) 2270.4902 2270.4902
1243 42.4611 2338(48) 2269.8020 2269.8020
1244 42.4871 2344(48) 2269.1140 2269.1140
1245 42.5131 2346(48) 2268.4258 2268.4258
1246 42.5391 2377(49) 2267.7375 2267.7375
1247 42.5651 2393(49) 2267.0496 2267.0496
1248 42.5911 2414(49) 2266.3613 2266.3613
1249 42.6171 2466(50) 2265.6731 2265.6731
1250 42.6431 2527(50) 2264.9851 2264.9851
1251 42.6691 2526(50) 2264.2969 2264.2969
1252 42.6951 2471(50) 2330.3486 2263.6086
1253 42.7211 2419(49) 2332.2830 2262.9207
1254 42.7471 2465(50) 2334.3748 2262.2324
1255 42.7731 2519(50) 2336.6365 2261.5444
1256 42.7991 2505(50) 2339.0828 2260.8562
1257 42.8251 2494(50) 2375.6975 2260.1680
1258 42.8511 2519(50) 2379.9111 2259.4797
1259 42.8771 2570(51) 2384.4431 2258.7917
1260 42.9031 2566(51) 2389.3228 2258.1035
1261 42.9291 2510(50) 2394.5806 2257.4153
1262 42.9551 2541(50) 2400.2520 2256.7271
1263 42.9811 2593(51) 2406.3755 2256.0391
1264 43.0071 2508(50) 2412.9963 2255.3508
1265 43.0331 2515(50) 2420.1636 2254.6626
1266 43.0591 2573(51) 2427.9331 2253.9746
1267 43.0851 2541(50) 2436.3662 2253.2864
1268 43.1111 2566(51) 2445.5374 2252.5981
1269 43.1371 2561(51) 2455.5273 2251.9102
1270 43.1631 2549(50) 2466.4282 2251.2219
1271 43.1891 2566(51) 2478.3455 2250.5337
1272 43.2151 2488(50) 2491.4058 2249.8457
1273 43.2411 2481(50) 2505.7483 2249.1575
1274 43.2671 2548(50) 2521.5383 2248.4692
1275 43.2931 2542(50) 2538.9651 2247.7812
1276 43.3191 2645(51) 2558.2581 2247.0930
1277 43.3451 2558(51) 2579.6792 2246.4048
1278 43.3711 2657(52) 2603.5420 2245.7166
1279 43.3971 2633(51) 2630.2153 2245.0286
1280 43.4231 2605(51) 2660.1550 2244.3403
1281 43.4491 2654(52) 2693.8992 2243.6521
1282 43.4751 2745(52) 2732.1123 2242.9641
1283 43.5011 2711(52) 2775.6106 2242.2759
1284 43.5271 2840(53) 2825.4473 2241.5876
1285 43.5531 2897(54) 2882.9551 2240.8997
1286 43.5791 2917(54) 2949.8899 2240.2114
1287 43.6051 2941(54) 3028.5835 2239.5232
1288 43.6311 3048(55) 3122.2129 2238.8352
1289 43.6571 3231(57) 3235.0034 2238.1470
1290 43.6831 3344(58) 3372.5698 2237.4587
1291 43.7091 3572(60) 3542.1711 2236.7708
1292 43.7351 3797(62) 3753.1470 2236.0825
1293 43.7611 4107(64) 4017.4644 2235.3943
1294 43.7871 4427(67) 4351.7754 2234.7063
1295 43.8131 4943(70) 4782.8701 2234.0181
1296 43.8391 5641(75) 5358.0566 2233.3298
1297 43.8651 6175(79) 6160.9180 2232.6416
1298 43.8911 7435(86) 7325.2720 2231.9536
1299 43.9171 9293(96) 9039.7471 2231.2654
1300 43.9431 11587(108) 11537.4297 2230.5771
1301 43.9691 15002(122) 15064.4902 2229.8892
1302 43.9951 19688(140) 19735.8652 2229.2009
1303 44.0211 24855(158) 25054.3164 2228.5127
1304 44.0471 29224(171) 29252.5566 2227.8247
1305 44.0731 30975(176) 30322.8926 2227.1365
1306 44.0991 28943(170) 28641.5547 2226.4482
1307 44.1251 25767(161) 26195.0723 2225.7603
1308 44.1511 23474(153) 23916.9785 2225.0720
1309 44.1771 21331(146) 21258.0820 2224.3838
1310 44.2031 18116(135) 17782.9824 2223.6958
1311 44.2291 14695(121) 14087.6621 2223.0076
1312 44.2551 11098(105) 10877.8252 2222.3193
1313 44.2811 8848(94) 8425.4873 2221.6311
1314 44.3071 7066(84) 6703.8848 2220.9431
1315 44.3331 5872(77) 5558.2383 2220.2549
1316 44.3591 5131(72) 4810.7026 2219.5667
1317 44.3851 4412(66) 4314.5859 2218.8784
1318 44.4111 3917(63) 3970.2686 2218.1904
1319 44.4371 3755(61) 3717.4263 2217.5022
1320 44.4631 3495(59) 3521.8135 2216.8140
1321 44.4891 3268(57) 3364.1580 2216.1260
1322 44.5151 3197(57) 3233.4272 2215.4377
1323 44.5411 2973(55) 3122.9553 2214.7495
1324 44.5671 2895(54) 3028.5190 2214.0615
1325 44.5931 2849(53) 2947.1814 2213.3733
1326 44.6191 2736(52) 2876.7583 2212.6853
1327 44.6451 2668(52) 2815.4910 2211.9971
1328 44.6711 2590(51) 2761.9626 2211.3088
1329 44.6971 2547(50) 2714.9834 2210.6206
1330 44.7231 2538(50) 2673.5637 2209.9326
1331 44.7491 2542(50) 2636.8616 2209.2444
1332 44.7751 2512(50) 2604.1917 2208.5562
1333 44.8011 2505(50) 2574.9836 2207.8682
1334 44.8271 2513(50) 2548.7495 2207.1799
1335 44.8531 2435(49) 2525.0942 2206.4917
1336 44.8791 2396(49) 2503.6819 2205.8035
1337 44.9051 2401(49) 2484.2327 2205.1155
1338 44.9311 2393(49) 2466.5005 2204.4272
1339 44.9571 2390(49) 2450.2844 2203.7390
1340 44.9831 2374(49) 2435.4102 2203.0510
1341 45.0091 2380(49) 2421.7285 2202.3628
1342 45.0351 2393(49) 2409.1064 2201.6748
1343 45.0611 2340(48) 2397.4329 2200.9866
1344 45.0871 2290(48) 2386.6099 2200.2983
1345 45.1131 2296(48) 2376.5537 2199.6104
1346 45.1391 2321(48) 2367.1855 2198.9221
1347 45.1651 2316(48) 2358.4412 2198.2339
1348 45.1911 2277(48) 2350.2622 2197.5457
1349 45.2171 2307(48) 2342.5981 2196.8577
1350 45.2431 2296(48) 2335.4004 2196.1694
1351 45.2691 2281(48) 2328.6294 2195.4812
1352 45.2951 2221(47) 2322.2488 2194.7930
1353 45.3211 2226(47) 2316.2266 2194.1050
1354 45.3471 2261(48) 2310.5317 2193.4167
1355 45.3731 2203(47) 2305.1387 2192.7285
1356 45.3991 2208(47) 2300.0237 2192.0405
1357 45.4251 2247(47) 2229.9900 2191.3523
1358 45.4511 2242(47) 2227.7595 2190.6641
1359 45.4771 2172(47) 2225.6196 2189.9761
1360 45.5031 2127(46) 2223.5632 2189.2878
1361 45.5291 2178(47) 2221.5840 2188.5996
1362 45.5551 2199(47) 2187.9116 2187.9116
1363 45.5811 2194(47) 2187.2234 2187.2234
1364 45.6071 2200(47) 2186.5352 2186.5352
1365 45.6331 2208(47) 2185.8472 2185.8472
1366 45.6591 2195(47) 2185.1589 2185.1589
1367 45.6851 2168(47) 2184.4707 2184.4707
1368 45.7111 2204(47) 2183.7825 2183.7825
1369 45.7371 2171(47) 2183.0945 2183.0945
1370 45.7631 2197(47) 2182.4062 2182.4062
1371 45.7891 2173(47) 2181.7180 2181.7180
1372 45.8151 2116(46) 2181.0300 2181.0300
1373 45.8411 2159(46) 2180.3418 2180.3418
1374 45.8671 2211(47) 2179.6536 2179.6536
1375 45.8931 2148(46) 2178.9656 2178.9656
1376 45.9191 2178(47) 2178.2773 2178.2773
1377 45.9451 2153(46) 2177.5891 2177.5891
1378 45.9711 2185(47) 2176.9011 2176.9011
1379 45.9971 2214(47) 2176.2129 2176.2129
1380 46.0231 2203(47) 2175.5247 2175.5247
1381 46.0491 2161(46) 2174.8367 2174.8367
1382 46.0751 2118(46) 2174.1484 2174.1484
1383 46.1011 2185(47) 2173.4602 2173.4602
1384 46.1271 2189(47) 2172.7722 2172.7722
1385 46.1531 2259(48) 2172.0840 2172.0840
1386 46.1791 2242(47) 2171.3958 2171.3958
1387 46.2051 2267(48) 2170.7075 2170.7075
1388 46.2311 2229(47) 2170.0195 2170.0195
1389 46.2571 2181(47) 2169.3313 2169.3313
1390 46.2831 2227(47) 2168.6431 2168.6431
1391 46.3091 2248(47) 2167.9551 2167.9551
1392 46.3351 2224(47) 2167.2668 2167.2668
1393 46.3611 2181(47) 2166.5786 2166.5786
1394 46.3871 2232(47) 2165.8906 2165.8906
1395 46.4131 2234(47) 2165.2024 2165.2024
1396 46.4391 2148(46) 2164.5142 2164.5142
1397 46.4651 2136(46) 2163.8262 2163.8262
1398 46.4911 2137(46) 2163.1379 2163.1379
1399 46.5171 2133(46) 2162.4497 2162.4497
1400 46.5431 2109(46) 2161.7617 2161.7617
1401 46.5691 2166(47) 2161.0735 2161.0735
1402 46.5951 2178(47) 2160.3853 2160.3853
1403 46.6211 2134(46) 2159.6970 2159.6970
1404 46.6471 2128(46) 2159.0090 2159.0090
1405 46.6731 2130(46) 2158.3208 2158.3208
1406 46.6991 2168(47) 2157.6326 2157.6326
1407 46.7251 2160(46) 2156.9443 2156.9443
1408 46.7511 2188(47) 2156.2563 2156.2563
1409 46.7771 2157(46) 2155.5681 2155.5681
1410 46.8031 2170(47) 2154.8799 2154.8799
1411 46.8291 2187(47) 2154.1919 2154.1919
1412 46.8551 2121(46) 2153.5037 2153.5037
1413 46.8811 2140(46) 2152.8154 2152.8154
1414 46.9071 2098(46) 2152.1274 2152.1274
1415 46.9331 2049(45) 2151.4392 2151.4392
1416 46.9591 2112(46) 2150.7512 2150.7512
1417 46.9851 2105(46) 2150.0630 2150.0630
1418 47.0111 2094(46) 2149.3748 2149.3748
1419 47.0371 2128(46) 2148.6868 2148.6868
1420 47.0631 2136(46) 2147.9985 2147.9985
1421 47.0891 2068(45) 2147.3103 2147.3103
1422 47.1151 2119(46) 2146.6221 2146.6221
1423 47.1411 2123(46) 2145.9341 2145.9341
1424 47.1671 2107(46) 2145.2458 2145.2458
1425 47.1931 2112(46) 2144.5576 2144.5576
1426 47.2191 2108(46) 2143.8694 2143.8694
1427 47.2451 2096(46) 2143.1814 2143.1814
1428 47.2711 2043(45) 2142.4932 2142.4932
1429 47.2971 2051(45) 2141.8049 2141.8049
1430 47.3231 2114(46) 2141.1169 2141.1169
1431 47.3491 2114(46) 2140.4287 2140.4287
1432 47.3751 2130(46) 2139.7407 2139.7407
1433 47.4011 2108(46) 2139.0525 2139.0525
1434 47.4271 2120(46) 2138.3643 2138.3643
1435 47.4531 2135(46) 2137.6763 2137.6763
1436 47.4791 2119(46) 2136.9880 2136.9880
1437 47.5051 2085(46) 2136.2998 2136.2998
1438 47.5311 2125(46) 2135.6116 2135.6116
1439 47.5571 2172(47) 2134.9236 2134.9236
1440 47.5831 2130(46) 2134.2354 2134.2354
1441 47.6091 2120(46) 2133.5471 2133.5471
1442 47.6351 2108(46) 2132.8589 2132.8589
1443 47.6611 2136(46) 2132.1709 2132.1709
1444 47.6871 2150(46) 2131.4827 2131.4827
1445 47.7131 2112(46) 2130.7944 2130.7944
1446 47.7391 2117(46) 2130.1064 2130.1064
1447 47.7651 2127(46) 2129.4182 2129.4182
1448 47.7911 2115(46) 2128.7300 2128.7300
1449 47.8171 2140(46) 2128.0420 2128.0420
1450 47.8431 2169(47) 2127.3538 2127.3538
1451 47.8691 2139(46) 2126.6655 2126.6655
1452 47.8951 2122(46) 2125.9775 2125.9775
1453 47.9211 2113(46) 2125.2893 2125.2893
1454 47.9471 2163(47) 2124.6011 2124.6011
1455 47.9731 2170(47) 2123.9131 2123.9131
1456 47.9991 2177(47) 2123.2249 2123.2249
1457 48.0251 2177(47) 2122.5366 2122.5366
1458 48.0511 2101(46) 2121.8486 2121.8486
1459 48.0771 2062(45) 2121.1604 2121.1604
1460 48.1031 2063(45) 2120.4722 2120.4722
1461 48.1291 2086(46) 2119.7839 2119.7839
1462 48.1551 2088(46) 2119.0959 2119.0959
1463 48.1811 2103(46) 2122.6917 2118.4077
1464 48.2071 2127(46) 2122.3296 2117.8818
1465 48.2331 2077(46) 2122.0977 2117.4763
1466 48.2591 2018(45) 2121.8762 2117.0710
1467 48.2851 2100(46) 2121.6658 2116.6655
1468 48.3111 2118(46) 2123.5959 2116.2600
1469 48.3371 2071(46) 2123.4919 2115.8545
1470 48.3631 2065(45) 2123.4072 2115.4492
1471 48.3891 2110(46) 2123.3430 2115.0437
1472 48.4151 2109(46) 2123.3010 2114.6382
1473 48.4411 2110(46) 2123.2837 2114.2327
1474 48.4671 2097(46) 2123.2930 2113.8274
1475 48.4931 2028(45) 2123.3315 2113.4219
1476 48.5191 2015(45) 2123.4019 2113.0164
1477 48.5451 2053(45) 2123.5073 2112.6108
1478 48.5711 2086(46) 2123.6519 2112.2056
1479 48.5971 2087(46) 2123.8386 2111.8000
1480 48.6231 2057(45) 2124.0728 2111.3945
1481 48.6491 2072(46) 2124.3594 2110.9890
1482 48.6751 2063(45) 2124.7043 2110.5837
1483 48.7011 2113(46) 2125.1140 2110.1782
1484 48.7271 2106(46) 2125.5967 2109.7727
1485 48.7531 2094(46) 2126.1609 2109.3672
1486 48.7791 2017(45) 2126.8171 2108.9619
1487 48.8051 2088(46) 2127.5771 2108.5564
1488 48.8311 2097(46) 2128.4553 2108.1509
1489 48.8571 2063(45) 2129.4678 2107.7454
1490 48.8831 1995(45) 2130.6340 2107.3398
1491 48.9091 2054(45) 2131.9778 2106.9346
1492 48.9351 2062(45) 2133.5264 2106.5291
1493 48.9611 2147(46) 2135.3130 2106.1235
1494 48.9871 2158(46) 2137.3784 2105.7180
1495 49.0131 2093(46) 2139.7744 2105.3127
1496 49.0391 2194(47) 2142.5637 2104.9072
1497 49.0651 2188(47) 2145.8286 2104.5017
1498 49.0911 2199(47) 2149.6743 2104.0962
1499 49.1171 2183(47) 2154.2424 2103.6907
1500 49.1431 2123(46) 2159.7188 2103.2854
1501 49.1691 2157(46) 2166.3472 2102.8799
1502 49.1951 2096(46) 2174.4512 2102.4744
1503 49.2211 2187(47) 2184.4412 2102.0688
1504 49.2471 2192(47) 2196.8406 2101.6636
1505 49.2731 2159(46) 2212.3242 2101.2581
1506 49.2991 2091(46) 2231.8455 2100.8525
1507 49.3251 2181(47) 2256.9004 2100.4470
1508 49.3511 2227(47) 2290.0767 2100.0417
1509 49.3771 2255(47) 2335.8237 2099.6362
1510 49.4031 2277(48) 2401.2305 2099.2307
1511 49.4291 2379(49) 2496.2581 2098.8252
1512 49.4551 2531(50) 2633.3123 2098.4197
1513 49.4811 2732(52) 2825.6492 2098.0144
1514 49.5071 2907(54) 3081.6582 2097.6089
1515 49.5331 3250(57) 3384.7183 2097.2034
1516 49.5591 3524(59) 3656.8882 2096.7979
1517 49.5851 3722(61) 3775.3008 2096.3926
1518 49.6111 3706(61) 3708.7632 2095.9871
1519 49.6371 3545(60) 3558.7810 2095.5815
1520 49.6631 3498(59) 3423.7441 2095.1760
1521 49.6891 3336(58) 3317.3738 2094.7708
1522 49.7151 3146(56) 3188.2778 2094.3652
1523 49.7411 2987(55) 3006.7197 2093.9597
1524 49.7671 2752(52) 2805.0859 2093.5542
1525 49.7931 2678(52) 2624.2676 2093.1489
1526 49.8191 2511(50) 2481.8606 2092.7434
1527 49.8451 2479(50) 2378.5779 2092.3379
1528 49.8711 2404(49) 2307.5034 2091.9324
1529 49.8971 2335(48) 2259.6921 2091.5271
1530 49.9231 2264(48) 2227.2207 2091.1216
1531 49.9491 2229(47) 2204.3765 2090.7161
1532 49.9751 2176(47) 2187.5051 2090.3105
1533 50.0011 2161(46) 2174.4309 2089.9053
1534 50.0271 2211(47) 2163.8813 2089.4998
1535 50.0531 2135(46) 2155.1128 2089.0942
1536 50.0791 2102(46) 2147.6704 2088.6887
1537 50.1051 2132(46) 2141.2634 2088.2832
1538 50.1311 2102(46) 2135.6919 2087.8779
1539 50.1571 2143(46) 2130.8115 2087.4724
1540 50.1831 2211(47) 2126.5107 2087.0669
1541 50.2091 2157(46) 2122.7002 2086.6614
1542 50.2351 2072(46) 2119.3052 2086.2561
1543 50.2611 2112(46) 2116.2634 2085.8506
1544 50.2871 2164(47) 2113.5237 2085.4451
1545 50.3131 2154(46) 2111.0422 2085.0396
1546 50.3391 2159(46) 2108.7827 2084.6340
1547 50.3651 2093(46) 2106.7151 2084.2288
1548 50.3911 2057(45) 2104.8137 2083.8232
1549 50.4171 2094(46) 2103.0569 2083.4177
1550 50.4431 2130(46) 2101.4268 2083.0122
1551 50.4691 2130(46) 2099.9082 2082.6069
1552 50.4951 2087(46) 2098.4875 2082.2014
1553 50.5211 2051(45) 2097.1538 2081.7959
1554 50.5471 2077(46) 2095.8972 2081.3904
1555 50.5731 2122(46) 2094.7097 2080.9849
1556 50.5991 2071(46) 2093.5842 2080.5796
1557 50.6251 2035(45) 2092.5137 2080.1741
1558 50.6511 2069(45) 2091.4929 2079.7686
1559 50.6771 2096(46) 2090.5171 2079.3630
1560 50.7031 2099(46) 2089.5823 2078.9578
1561 50.7291 2052(45) 2088.6841 2078.5522
1562 50.7551 2044(45) 2087.8193 2078.1467
1563 50.7811 2077(46) 2086.9854 2077.7412
1564 50.8071 2048(45) 2086.1794 2077.3359
1565 50.8331 1998(45) 2085.3987 2076.9304
1566 50.8591 1999(45) 2084.6414 2076.5249
1567 50.8851 2056(45) 2083.9055 2076.1194
1568 50.9111 2078(46) 2083.1897 2075.7141
1569 50.9371 2027(45) 2082.4919 2075.3086
1570 50.9631 2057(45) 2081.8110 2074.9031
1571 50.9891 2077(46) 2081.1455 2074.4976
1572 51.0151 2017(45) 2076.4990 2074.0923
1573 51.0411 2011(45) 2076.0012 2073.6868
1574 51.0671 2038(45) 2075.5085 2073.2812
1575 51.0931 1989(45) 2075.0208 2072.8757
1576 51.1191 2030(45) 2074.5376 2072.4705
1577 51.1451 2100(46) 2072.0649 2072.0649
1578 51.1711 2045(45) 2071.6594 2071.6594
1579 51.1971 2099(46) 2071.2539 2071.2539
1580 51.2231 2077(46) 2070.8484 2070.8484
1581 51.2491 1978(44) 2070.4431 2070.4431
1582 51.2751 2024(45) 2070.0376 2070.0376
1583 51.3011 2037(45) 2069.6321 2069.6321
1584 51.3271 1977(44) 2069.2266 2069.2266
1585 51.3531 2103(46) 2068.8213 2068.8213
1586 51.3791 2094(46) 2068.4158 2068.4158
1587 51.4051 2053(45) 2068.0103 2068.0103
1588 51.4311 2039(45) 2067.6047 2067.6047
1589 51.4571 2019(45) 2067.1995 2067.1995
1590 51.4831 2010(45) 2066.7939 2066.7939
1591 51.5091 2042(45) 2066.3884 2066.3884
1592 51.5351 1996(45) 2065.9829 2065.9829
1593 51.5611 2092(46) 2065.5774 2065.5774
1594 51.5871 2033(45) 2065.1721 2065.1721
1595 51.6131 2007(45) 2064.7666 2064.7666
1596 51.6391 2001(45) 2064.3611 2064.3611
1597 51.6651 2011(45) 2063.9556 2063.9556
1598 51.6911 2050(45) 2063.5503 2063.5503
1599 51.7171 2025(45) 2063.1448 2063.1448
1600 51.7431 2065(45) 2062.7393 2062.7393
1601 51.7691 1987(45) 2062.3337 2062.3337
1602 51.7951 2021(45) 2061.9282 2061.9282
1603 51.8211 2049(45) 2061.5229 2061.5229
1604 51.8471 2014(45) 2061.1174 2061.1174
1605 51.8731 1952(44) 2060.7119 2060.7119
1606 51.8991 2035(45) 2060.3064 2060.3064
1607 51.9251 2091(46) 2059.9011 2059.9011
1608 51.9511 2125(46) 2059.4956 2059.4956
1609 51.9771 2027(45) 2059.0901 2059.0901
1610 52.0031 1928(44) 2058.6846 2058.6846
1611 52.0291 1994(45) 2058.2793 2058.2793
1612 52.0551 2035(45) 2057.8738 2057.8738
1613 52.0811 2041(45) 2057.4683 2057.4683
1614 52.1071 2002(45) 2057.0627 2057.0627
1615 52.1331 1996(45) 2056.6575 2056.6575
1616 52.1591 2031(45) 2056.2520 2056.2520
1617 52.1851 2050(45) 2055.8464 2055.8464
1618 52.2111 1923(44) 2055.4409 2055.4409
1619 52.2371 2052(45) 2055.0356 2055.0356
1620 52.2631 2089(46) 2054.6301 2054.6301
1621 52.2891 2068(45) 2054.2246 2054.2246
1622 52.3151 2092(46) 2053.8191 2053.8191
1623 52.3411 2070(45) 2053.4138 2053.4138
1624 52.3671 2048(45) 2053.0083 2053.0083
1625 52.3931 2021(45) 2052.6028 2052.6028
1626 52.4191 1996(45) 2052.1973 2052.1973
1627 52.4451 2021(45) 2051.7917 2051.7917
1628 52.4711 2120(46) 2051.3865 2051.3865
1629 52.4971 2027(45) 2050.9810 2050.9810
1630 52.5231 2085(46) 2050.5754 2050.5754
1631 52.5491 2068(45) 2050.1699 2050.1699
1632 52.5751 2100(46) 2049.7646 2049.7646
1633 52.6011 2198(47) 2049.3591 2049.3591
1634 52.6271 2127(46) 2048.9536 2048.9536
1635 52.6531 2080(46) 2048.5481 2048.5481
1636 52.6791 2155(46) 2048.1426 2048.1426
1637 52.7051 2105(46) 2047.7372 2047.7372
1638 52.7311 2102(46) 2047.3318 2047.3318
1639 52.7571 2140(46) 2046.9263 2046.9263
1640 52.7831 2190(47) 2046.5209 2046.5209
1641 52.8091 2180(47) 2046.1154 2046.1154
1642 52.8351 2178(47) 2045.7100 2045.7100
1643 52.8611 2214(47) 2045.3044 2045.3044
1644 52.8871 2206(47) 2044.8990 2044.8990
1645 52.9131 2156(46) 2044.4935 2044.4935
1646 52.9391 2152(46) 2044.0881 2044.0881
1647 52.9651 2200(47) 2043.6826 2043.6826
1648 52.9911 2265(48) 2043.2772 2043.2772
1649 53.0171 2202(47) 2042.8717 2042.8717
1650 53.0431 2171(47) 2042.4663 2042.4663
1651 53.0691 2200(47) 2042.0608 2042.0608
1652 53.0951 2224(47) 2041.6553 2041.6553
1653 53.1211 2239(47) 2041.2499 2041.2499
1654 53.1471 2227(47) 2040.8445 2040.8445
1655 53.1731 2293(48) 2040.4390 2040.4390
1656 53.1991 2283(48) 2040.0334 2040.0334
1657 53.2251 2208(47) 2137.9094 2039.6281
1658 53.2511 2223(47) 2141.1177 2039.2227
1659 53.2771 2279(48) 2144.5291 2038.8171
1660 53.3031 2313(48) 2148.1587 2038.4116
1661 53.3291 2275(48) 2152.0234 2038.0061
1662 53.3551 2302(48) 2203.9485 2037.6007
1663 53.3811 2343(48) 2210.0784 2037.1953
1664 53.4071 2298(48) 2216.6011 2036.7898
1665 53.4331 2355(49) 2223.5491 2036.3843
1666 53.4591 2428(49) 2230.9565 2035.9789
1667 53.4851 2405(49) 2238.8657 2035.5735
1668 53.5111 2414(49) 2247.3181 2035.1680
1669 53.5371 2442(49) 2256.3618 2034.7626
1670 53.5631 2456(50) 2266.0527 2034.3571
1671 53.5891 2471(50) 2276.4504 2033.9515
1672 53.6151 2498(50) 2287.6226 2033.5461
1673 53.6411 2497(50) 2299.6426 2033.1407
1674 53.6671 2460(50) 2312.5996 2032.7352
1675 53.6931 2531(50) 2326.5881 2032.3297
1676 53.7191 2533(50) 2341.7175 2031.9243
1677 53.7451 2593(51) 2358.1086 2031.5188
1678 53.7711 2638(51) 2375.9080 2031.1134
1679 53.7971 2593(51) 2395.2742 2030.7079
1680 53.8231 2570(51) 2416.3926 2030.3024
1681 53.8491 2584(51) 2439.4729 2029.8970
1682 53.8751 2617(51) 2464.7690 2029.4916
1683 53.9011 2563(51) 2492.5640 2029.0861
1684 53.9271 2548(50) 2523.1936 2028.6805
1685 53.9531 2584(51) 2557.0457 2028.2751
1686 53.9791 2649(51) 2594.5938 2027.8696
1687 54.0051 2646(51) 2636.3855 2027.4642
1688 54.0311 2670(52) 2683.0811 2027.0587
1689 54.0571 2787(53) 2735.4722 2026.6533
1690 54.0831 2806(53) 2794.5518 2026.2478
1691 54.1091 2909(54) 2861.5254 2025.8424
1692 54.1351 2927(54) 2937.9214 2025.4369
1693 54.1611 3045(55) 3025.6802 2025.0315
1694 54.1871 3120(56) 3127.3604 2024.6260
1695 54.2131 3195(57) 3246.2593 2024.2206
1696 54.2391 3313(58) 3386.7046 2023.8151
1697 54.2651 3511(59) 3554.2930 2023.4097
1698 54.2911 3708(61) 3756.2893 2023.0042
1699 54.3171 4090(64) 4001.8188 2022.5986
1700 54.3431 4423(67) 4302.4985 2022.1932
1701 54.3691 4806(69) 4673.5747 2021.7878
1702 54.3951 5336(73) 5137.1455 2021.3823
1703 54.4211 5904(77) 5728.2964 2020.9768
1704 54.4471 6678(82) 6506.5991 2020.5714
1705 54.4731 7666(88) 7570.8301 2020.1659
1706 54.4991 8938(95) 9072.6719 2019.7605
1707 54.5251 10956(105) 11219.3242 2019.3550
1708 54.5511 13991(118) 14262.7197 2018.9496
1709 54.5771 17934(134) 18465.7656 2018.5441
1710 54.6031 23516(153) 23975.8086 2018.1387
1711 54.6291 30506(175) 30435.6387 2017.7332
1712 54.6551 36539(191) 36290.4062 2017.3278
1713 54.6811 39374(198) 39029.3828 2016.9222
1714 54.7071 37823(194) 37749.4531 2016.5168
1715 54.7331 33713(184) 34364.5469 2016.1113
1716 54.7591 30190(174) 31174.4375 2015.7059
1717 54.7851 28171(168) 29047.6738 2015.3004
1718 54.8111 27114(165) 27300.0566 2014.8949
1719 54.8371 25028(158) 24647.3262 2014.4895
1720 54.8631 21118(145) 20849.7305 2014.0841
1721 54.8891 16938(130) 16763.3965 2013.6786
1722 54.9151 13201(115) 13156.0889 2013.2731
1723 54.9411 10251(101) 10317.9238 2012.8677
1724 54.9671 8410(92) 8240.6875 2012.4622
1725 54.9931 7054(84) 6787.1797 2012.0568
1726 55.0191 5914(77) 5789.2705 2011.6512
1727 55.0451 5233(72) 5098.4551 2011.2457
1728 55.0711 4614(68) 4605.5967 2010.8403
1729 55.0971 4279(65) 4238.9214 2010.4349
1730 55.1231 3887(62) 3954.4473 2010.0294
1731 55.1491 3692(61) 3725.6987 2009.6239
1732 55.1751 3402(58) 3536.6606 2009.2185
1733 55.2011 3250(57) 3377.2620 2008.8130
1734 55.2271 3144(56) 3241.0024 2008.4076
1735 55.2531 2983(55) 3123.3984 2008.0021
1736 55.2791 2899(54) 3021.2095 2007.5967
1737 55.3051 2729(52) 2931.9187 2007.1912
1738 55.3311 2737(52) 2853.5571 2006.7858
1739 55.3571 2686(52) 2784.4956 2006.3802
1740 55.3831 2682(52) 2723.3850 2005.9749
1741 55.4091 2603(51) 2669.0693 2005.5693
1742 55.4351 2475(50) 2620.6011 2005.1638
1743 55.4611 2450(49) 2577.1765 2004.7584
1744 55.4871 2454(50) 2538.1240 2004.3530
1745 55.5131 2446(49) 2502.8625 2003.9475
1746 55.5391 2415(49) 2470.9170 2003.5420
1747 55.5651 2382(49) 2441.8792 2003.1366
1748 55.5911 2395(49) 2415.4053 2002.7312
1749 55.6171 2399(49) 2391.1904 2002.3257
1750 55.6431 2360(49) 2368.9836 2001.9202
1751 55.6691 2283(48) 2348.5676 2001.5148
1752 55.6951 2293(48) 2329.7456 2001.1093
1753 55.7211 2283(48) 2312.3552 2000.7039
1754 55.7471 2254(47) 2296.2510 2000.2983
1755 55.7731 2299(48) 2281.3083 1999.8929
1756 55.7991 2278(48) 2267.4114 1999.4874
1757 55.8251 2238(47) 2254.4636 1999.0820
1758 55.8511 2178(47) 2242.3779 1998.6765
1759 55.8771 2203(47) 2231.0786 1998.2711
1760 55.9031 2233(47) 2220.4937 1997.8656
1761 55.9291 2162(46) 2210.5630 1997.4602
1762 55.9551 2157(46) 2201.2317 1997.0547
1763 55.9811 2160(46) 2192.4517 1996.6493
1764 56.0071 2148(46) 2184.1760 1996.2438
1765 56.0331 2115(46) 2176.3662 1995.8383
1766 56.0591 2121(46) 2168.9863 1995.4329
1767 56.0851 2093(46) 2162.0042 1995.0273
1768 56.1111 2057(45) 2155.3884 1994.6219
1769 56.1371 2149(46) 2149.1133 1994.2164
1770 56.1631 2190(47) 2050.5378 1993.8110
1771 56.1891 2126(46) 2048.0090 1993.4055
1772 56.2151 2066(45) 2045.5968 1993.0001
1773 56.2411 2094(46) 2043.2931 1992.5946
1774 56.2671 2119(46) 2041.0901 1992.1891
1775 56.2931 2090(46) 2038.9813 1991.7837
1776 56.3191 2100(46) 1991.3783 1991.3783
1777 56.3451 2044(45) 1990.9728 1990.9728
1778 56.3711 2077(46) 1990.5673 1990.5673
1779 56.3971 2099(46) 1990.1619 1990.1619
1780 56.4231 2002(45) 1989.7563 1989.7563
1781 56.4491 2008(45) 1989.3510 1989.3510
1782 56.4751 2036(45) 1988.9454 1988.9454
1783 56.5011 2050(45) 1988.5400 1988.5400
1784 56.5271 2104(46) 1988.1345 1988.1345
1785 56.5531 2068(45) 1987.7291 1987.7291
1786 56.5791 2124(46) 1987.3236 1987.3236
1787 56.6051 2049(45) 1986.9182 1986.9182
1788 56.6311 2021(45) 1986.5127 1986.5127
1789 56.6571 2119(46) 1986.1072 1986.1072
1790 56.6831 2103(46) 1985.7018 1985.7018
1791 56.7091 2104(46) 1985.2964 1985.2964
1792 56.7351 2067(45) 1984.8909 1984.8909
1793 56.7611 2071(46) 1984.4854 1984.4854
1794 56.7871 2050(45) 1984.0800 1984.0800
1795 56.8131 2029(45) 1983.6746 1983.6746
1796 56.8391 2073(46) 1983.2690 1983.2690
1797 56.8651 2057(45) 1982.8635 1982.8635
1798 56.8911 2049(45) 1982.4581 1982.4581
1799 56.9171 2056(45) 1982.0526 1982.0526
1800 56.9431 1975(44) 1981.6472 1981.6472
1801 56.9691 1971(44) 1981.2417 1981.2417
1802 56.9951 1950(44) 1980.8363 1980.8363
1803 57.0211 2053(45) 1980.4308 1980.4308
1804 57.0471 1968(44) 1980.0254 1980.0254
1805 57.0731 1972(44) 1979.6199 1979.6199
1806 57.0991 2054(45) 1979.2145 1979.2145
1807 57.1251 2015(45) 1978.8090 1978.8090
1808 57.1511 2081(46) 1978.4036 1978.4036
1809 57.1771 2072(46) 1977.9980 1977.9980
1810 57.2031 1984(45) 1977.5927 1977.5927
1811 57.2291 2085(46) 1977.1871 1977.1871
1812 57.2551 2086(46) 1976.7816 1976.7816
1813 57.2811 2124(46) 1976.3762 1976.3762
1814 57.3071 2115(46) 1975.9707 1975.9707
1815 57.3331 2083(46) 1975.5653 1975.5653
1816 57.3591 2096(46) 1975.1598 1975.1598
1817 57.3851 2061(45) 1974.7544 1974.7544
1818 57.4111 2043(45) 1974.3489 1974.3489
1819 57.4371 2037(45) 1973.9435 1973.9435
1820 57.4631 2148(46) 1973.5380 1973.5380
1821 57.4891 2112(46) 1973.1324 1973.1324
1822 57.5151 2083(46) 1972.7271 1972.7271
1823 57.5411 2116(46) 1972.3215 1972.3215
1824 57.5671 2206(47) 1971.9161 1971.9161
1825 57.5931 2109(46) 1971.5106 1971.5106
1826 57.6191 2110(46) 1971.1052 1971.1052
1827 57.6451 2049(45) 1970.6997 1970.6997
1828 57.6711 2042(45) 1970.2943 1970.2943
1829 57.6971 2091(46) 1969.8888 1969.8888
1830 57.7231 2045(45) 1969.4834 1969.4834
1831 57.7491 1980(44) 1969.0779 1969.0779
1832 57.7751 2007(45) 1968.6725 1968.6725
1833 57.8011 2036(45) 1968.2670 1968.2670
1834 57.8271 1997(45) 1967.8616 1967.8616
1835 57.8531 1967(44) 1967.4561 1967.4561
1836 57.8791 1966(44) 1967.0505 1967.0505
1837 57.9051 2019(45) 1966.6451 1966.6451
1838 57.9311 2002(45) 1966.2397 1966.2397
1839 57.9571 1993(45) 1965.8342 1965.8342
1840 57.9831 1970(44) 1965.4287 1965.4287
1841 58.0091 1950(44) 1965.0233 1965.0233
1842 58.0351 1949(44) 1964.6179 1964.6179
1843 58.0611 1948(44) 1964.2124 1964.2124
1844 58.0871 1940(44) 1963.8069 1963.8069
1845 58.1131 1969(44) 1963.4015 1963.4015
1846 58.1391 1999(45) 1962.9960 1962.9960
1847 58.1651 1966(44) 1962.5906 1962.5906
1848 58.1911 1959(44) 1962.1851 1962.1851
1849 58.2171 1978(44) 1961.7797 1961.7797
1850 58.2431 1950(44) 1961.3741 1961.3741
1851 58.2691 1910(44) 1960.9688 1960.9688
1852 58.2951 1914(44) 1960.5632 1960.5632
1853 58.3211 1945(44) 1960.1578 1960.1578
1854 58.3471 1901(44) 1959.7523 1959.7523
1855 58.3731 1914(44) 1959.3468 1959.3468
1856 58.3991 1943(44) 1958.9414 1958.9414
1857 58.4251 1895(44) 1958.5360 1958.5360
1858 58.4511 1880(43) 1958.1305 1958.1305
1859 58.4771 1929(44) 1957.7250 1957.7250
1860 58.5031 1960(44) 1957.3196 1957.3196
1861 58.5291 1955(44) 1956.9141 1956.9141
1862 58.5551 1935(44) 1956.5087 1956.5087
1863 58.5811 1924(44) 1956.1031 1956.1031
1864 58.6071 1950(44) 1955.6978 1955.6978
1865 58.6331 1930(44) 1955.2922 1955.2922
1866 58.6591 1895(44) 1954.8868 1954.8868
1867 58.6851 1910(44) 1954.4813 1954.4813
1868 58.7111 1923(44) 1954.0758 1954.0758
1869 58.7371 1917(44) 1953.6704 1953.6704
1870 58.7631 1917(44) 1953.2649 1953.2649
1871 58.7891 1939(44) 1952.8595 1952.8595
1872 58.8151 1949(44) 1952.4540 1952.4540
1873 58.8411 1925(44) 1952.0486 1952.0486
1874 58.8671 1923(44) 1951.6431 1951.6431
1875 58.8931 1936(44) 1951.2377 1951.2377
1876 58.9191 1924(44) 1950.8323 1950.8323
1877 58.9451 1955(44) 1950.4268 1950.4268
1878 58.9711 1925(44) 1950.0212 1950.0212
1879 58.9971 1865(43) 1949.6157 1949.6157
1880 59.0231 1883(43) 1949.2103 1949.2103
1881 59.0491 1914(44) 1948.8049 1948.8049
1882 59.0751 1871(43) 1948.3994 1948.3994
1883 59.1011 1921(44) 1947.9939 1947.9939
1884 59.1271 1971(44) 1947.5885 1947.5885
1885 59.1531 1936(44) 1947.1831 1947.1831
1886 59.1791 1928(44) 1946.7776 1946.7776
1887 59.2051 1918(44) 1946.3721 1946.3721
1888 59.2311 1890(43) 1945.9667 1945.9667
1889 59.2571 1966(44) 1945.5613 1945.5613
1890 59.2831 1959(44) 1945.1558 1945.1558
1891 59.3091 1916(44) 1944.7502 1944.7502
1892 59.3351 1966(44) 1944.3448 1944.3448
1893 59.3611 2034(45) 1943.9393 1943.9393
1894 59.3871 1966(44) 1943.5339 1943.5339
1895 59.4131 1934(44) 1943.1284 1943.1284
1896 59.4391 1916(44) 1942.7230 1942.7230
1897 59.4651 2050(45) 1942.3175 1942.3175
1898 59.4911 2030(45) 1941.9121 1941.9121
1899 59.5171 2011(45) 1941.5066 1941.5066
1900 59.5431 2015(45) 1941.1012 1941.1012
1901 59.5691 2040(45) 1940.6957 1940.6957
1902 59.5951 2012(45) 1940.2902 1940.2902
1903 59.6211 1938(44) 1939.8848 1939.8848
1904 59.6471 1978(44) 1939.4792 1939.4792
1905 59.6731 2005(45) 1939.0739 1939.0739
1906 59.6991 2006(45) 1938.6683 1938.6683
1907 59.7251 1960(44) 1938.2629 1938.2629
1908 59.7511 2013(45) 1937.8574 1937.8574
1909 59.7771 1929(44) 1937.4520 1937.4520
1910 59.8031 1947(44) 1937.0465 1937.0465
1911 59.8291 1878(43) 1936.6410 1936.6410
1912 59.8551 1993(45) 1936.2356 1936.2356
1913 59.8811 1886(43) 1935.8302 1935.8302
1914 59.9071 1961(44) 1935.4247 1935.4247
1915 59.9331 1900(44) 1935.0192 1935.0192
1916 59.9591 1874(43) 1934.6138 1934.6138
1917 59.9851 1925(44) 1934.2083 1934.2083
1918 60.0111 1938(44) 1933.8029 1933.8029
1919 60.0371 1934(44) 1933.3975 1933.3975
1920 60.0631 1849(43) 1932.9919 1932.9919
1921 60.0891 1870(43) 1932.5864 1932.5864
1922 60.1151 1890(43) 1932.1810 1932.1810
1923 60.1411 1964(44) 1931.7756 1931.7756
1924 60.1671 1960(44) 1931.3701 1931.3701
1925 60.1931 1906(44) 1930.9646 1930.9646
1926 60.2191 1949(44) 1930.5591 1930.5591
1927 60.2451 1931(44) 1930.1537 1930.1537
1928 60.2711 1851(43) 1929.7483 1929.7483
1929 60.2971 1869(43) 1929.3428 1929.3428
1930 60.3231 1864(43) 1928.9373 1928.9373
1931 60.3491 1912(44) 1928.5319 1928.5319
1932 60.3751 1892(44) 1928.1265 1928.1265
1933 60.4011 1844(43) 1927.7209 1927.7209
1934 60.4271 1865(43) 1927.3154 1927.3154
1935 60.4531 1883(43) 1926.9100 1926.9100
1936 60.4791 1842(43) 1926.5045 1926.5045
1937 60.5051 1863(43) 1926.0991 1926.0991
1938 60.5311 1901(44) 1925.6936 1925.6936
1939 60.5571 1973(44) 1925.2882 1925.2882
1940 60.5831 1898(44) 1924.8827 1924.8827
1941 60.6091 1864(43) 1924.4773 1924.4773
1942 60.6351 1876(43) 1924.0718 1924.0718
1943 60.6611 1859(43) 1923.6664 1923.6664
1944 60.6871 1824(43) 1923.2609 1923.2609
1945 60.7131 1859(43) 1922.8555 1922.8555
1946 60.7391 1902(44) 1922.4500 1922.4500
1947 60.7651 1937(44) 1922.0446 1922.0446
1948 60.7911 1905(44) 1921.6365 1921.6365
1949 60.8171 1837(43) 1921.2278 1921.2278
1950 60.8431 1805(42) 1920.8191 1920.8191
1951 60.8691 1816(43) 1920.4104 1920.4104
1952 60.8951 1828(43) 1920.0017 1920.0017
1953 60.9211 1842(43) 1919.5929 1919.5929
1954 60.9471 1857(43) 1919.1842 1919.1842
1955 60.9731 1900(44) 1918.7755 1918.7755
1956 60.9991 1865(43) 1918.3668 1918.3668
1957 61.0251 1805(42) 1917.9580 1917.9580
1958 61.0511 1873(43) 1917.5493 1917.5493
1959 61.0771 1904(44) 1917.1406 1917.1406
1960 61.1031 1851(43) 1916.7319 1916.7319
1961 61.1291 1894(44) 1916.3231 1916.3231
1962 61.1551 1936(44) 1915.9146 1915.9146
1963 61.1811 1857(43) 1915.5057 1915.5057
1964 61.2071 1791(42) 1915.0970 1915.0970
1965 61.2331 1811(43) 1914.6882 1914.6882
1966 61.2591 1841(43) 1914.2797 1914.2797
1967 61.2851 1864(43) 1913.8708 1913.8708
1968 61.3111 1872(43) 1913.4622 1913.4622
1969 61.3371 1850(43) 1913.0535 1913.0535
1970 61.3631 1874(43) 1912.6448 1912.6448
1971 61.3891 1922(44) 1912.2360 1912.2360
1972 61.4151 1902(44) 1911.8273 1911.8273
1973 61.4411 1808(43) 1911.4186 1911.4186
1974 61.4671 1845(43) 1911.0099 1911.0099
1975 61.4931 1896(44) 1910.6011 1910.6011
1976 61.5191 1831(43) 1910.1924 1910.1924
1977 61.5451 1882(43) 1909.7837 1909.7837
1978 61.5711 1909(44) 1909.3750 1909.3750
1979 61.5971 1880(43) 1908.9663 1908.9663
1980 61.6231 1888(43) 1908.5575 1908.5575
1981 61.6491 1879(43) 1908.1488 1908.1488
1982 61.6751 1888(43) 1907.7401 1907.7401
1983 61.7011 1869(43) 1907.3314 1907.3314
1984 61.7271 1898(44) 1906.9226 1906.9226
1985 61.7531 1895(44) 1906.5139 1906.5139
1986 61.7791 1878(43) 1906.1052 1906.1052
1987 61.8051 1933(44) 1905.6965 1905.6965
1988 61.8311 1891(43) 1905.2877 1905.2877
1989 61.8571 1897(44) 1904.8790 1904.8790
1990 61.8831 1870(43) 1904.4703 1904.4703
1991 61.9091 1910(44) 1904.0616 1904.0616
1992 61.9351 1888(43) 1903.6528 1903.6528
1993 61.9611 1887(43) 1903.2441 1903.2441
1994 61.9871 1928(44) 1902.8354 1902.8354
1995 62.0131 1914(44) 1902.4268 1902.4268
1996 62.0391 1947(44) 1902.0181 1902.0181
1997 62.0651 1933(44) 1901.6093 1901.6093
1998 62.0911 1884(43) 1901.2006 1901.2006
1999 62.1171 1884(43) 1900.7919 1900.7919
2000 62.1431 1930(44) 1900.3832 1900.3832
2001 62.1691 1900(44) 1899.9745 1899.9745
2002 62.1951 1935(44) 1899.5657 1899.5657
2003 62.2211 1960(44) 1899.1570 1899.1570
2004 62.2471 1936(44) 1898.7483 1898.7483
2005 62.2731 1916(44) 1898.3396 1898.3396
2006 62.2991 1959(44) 1897.9309 1897.9309
2007 62.3251 1956(44) 1897.5221 1897.5221
2008 62.3511 1903(44) 1897.1134 1897.1134
2009 62.3771 1834(43) 1896.7047 1896.7047
2010 62.4031 1958(44) 1896.2960 1896.2960
2011 62.4291 1970(44) 1895.8872 1895.8872
2012 62.4551 1825(43) 1934.0696 1895.4785
2013 62.4811 2001(45) 1934.9591 1895.0698
2014 62.5071 1883(43) 1935.9153 1894.6611
2015 62.5331 1901(44) 1936.9425 1894.2523
2016 62.5591 1971(44) 1938.0461 1893.8436
2017 62.5851 1950(44) 1939.2311 1893.4349
2018 62.6111 1935(44) 1940.5039 1893.0262
2019 62.6371 1952(44) 1961.1954 1892.6174
2020 62.6631 1977(44) 1963.3157 1892.2087
2021 62.6891 1918(44) 1965.5781 1891.8000
2022 62.7151 2010(45) 1967.9946 1891.3914
2023 62.7411 1961(44) 1970.5768 1890.9827
2024 62.7671 2004(45) 1973.3376 1890.5739
2025 62.7931 1912(44) 1976.2915 1890.1652
2026 62.8191 1887(43) 1979.4554 1889.7565
2027 62.8451 1930(44) 1982.8467 1889.3478
2028 62.8711 2022(45) 1986.4849 1888.9390
2029 62.8971 1981(45) 1990.3915 1888.5303
2030 62.9231 1958(44) 1994.5920 1888.1216
2031 62.9491 1998(45) 1999.1130 1887.7129
2032 62.9751 1964(44) 2003.9851 1887.3041
2033 63.0011 1968(44) 2009.2417 1886.8955
2034 63.0271 1980(44) 2014.9225 1886.4867
2035 63.0531 2031(45) 2021.0703 1886.0780
2036 63.0791 2033(45) 2027.7343 1885.6692
2037 63.1051 2022(45) 2034.9689 1885.2606
2038 63.1311 1976(44) 2042.8396 1884.8518
2039 63.1571 1965(44) 2051.4180 1884.4431
2040 63.1831 2022(45) 2060.7869 1884.0344
2041 63.2091 1971(44) 2071.0405 1883.6257
2042 63.2351 1953(44) 2082.2925 1883.2169
2043 63.2611 1970(44) 2094.6699 1882.8082
2044 63.2871 2041(45) 2108.3206 1882.3995
2045 63.3131 2076(46) 2123.4243 1881.9908
2046 63.3391 2075(46) 2140.1870 1881.5820
2047 63.3651 2084(46) 2158.8574 1881.1733
2048 63.3911 2089(46) 2179.7292 1880.7646
2049 63.4171 2108(46) 2203.1714 1880.3560
2050 63.4431 2106(46) 2229.6257 1879.9473
2051 63.4691 2104(46) 2259.6470 1879.5385
2052 63.4951 2162(47) 2293.9290 1879.1298
2053 63.5211 2220(47) 2333.3699 1878.7211
2054 63.5471 2306(48) 2379.0999 1878.3124
2055 63.5731 2385(49) 2432.5681 1877.9036
2056 63.5991 2458(50) 2495.6047 1877.4949
2057 63.6251 2496(50) 2570.5447 1877.0862
2058 63.6511 2633(51) 2660.2783 1876.6775
2059 63.6771 2824(53) 2768.4526 1876.2687
2060 63.7031 2968(54) 2899.7852 1875.8601
2061 63.7291 3148(56) 3060.8887 1875.4513
2062 63.7551 3334(58) 3261.6626 1875.0426
2063 63.7811 3584(60) 3517.9626 1874.6338
2064 63.8071 3885(62) 3855.1743 1874.2252
2065 63.8331 4260(65) 4312.2656 1873.8164
2066 63.8591 4837(70) 4943.9546 1873.4077
2067 63.8851 5758(76) 5820.3696 1872.9990
2068 63.9111 7003(84) 7021.7397 1872.5903
2069 63.9371 8554(92) 8623.2988 1872.1815
2070 63.9631 10681(103) 10643.7139 1871.7728
2071 63.9891 13044(114) 12912.9268 1871.3641
2072 64.0151 15124(123) 14883.9404 1870.9554
2073 64.0411 16065(127) 15763.3379 1870.5466
2074 64.0671 15323(124) 15260.9092 1870.1379
2075 64.0931 13904(118) 13952.1348 1869.7292
2076 64.1191 12503(112) 12620.7217 1869.3204
2077 64.1451 11590(108) 11710.4453 1868.9117
2078 64.1711 11328(106) 11262.2529 1868.5032
2079 64.1971 11145(106) 10964.6465 1868.0944
2080 64.2231 10691(103) 10356.0127 1867.6857
2081 64.2491 9413(97) 9262.2461 1867.2770
2082 64.2751 7972(89) 7917.2314 1866.8682
2083 64.3011 6651(82) 6621.2334 1866.4595
2084 64.3271 5585(75) 5530.8721 1866.0508
2085 64.3531 4636(68) 4682.8379 1865.6421
2086 64.3791 4150(64) 4054.4707 1865.2334
2087 64.4051 3716(61) 3601.9531 1864.8246
2088 64.4311 3239(57) 3278.6150 1864.4159
2089 64.4571 3082(56) 3044.9197 1864.0072
2090 64.4831 2860(53) 2871.5745 1863.5984
2091 64.5091 2742(52) 2738.6821 1863.1897
2092 64.5351 2608(51) 2633.3821 1862.7810
2093 64.5611 2459(50) 2547.5332 1862.3723
2094 64.5871 2397(49) 2475.8696 1861.9636
2095 64.6131 2430(49) 2415.0056 1861.5549
2096 64.6391 2304(48) 2362.6326 1861.1461
2097 64.6651 2223(47) 2317.1289 1860.7374
2098 64.6911 2217(47) 2277.3069 1860.3287
2099 64.7171 2146(46) 2242.2603 1859.9199
2100 64.7431 2174(47) 2211.2712 1859.5112
2101 64.7691 2165(47) 2183.7634 1859.1027
2102 64.7951 2143(46) 2159.2341 1858.6938
2103 64.8211 2110(46) 2137.2839 1858.2852
2104 64.8471 2012(45) 2117.5671 1857.8765
2105 64.8731 2029(45) 2099.7903 1857.4677
2106 64.8991 2037(45) 2083.7051 1857.0590
2107 64.9251 2029(45) 2069.0996 1856.6501
2108 64.9511 1969(44) 2055.7937 1856.2415
2109 64.9771 2053(45) 2043.6365 1855.8329
2110 65.0031 1981(45) 2032.4888 1855.4241
2111 65.0291 1926(44) 2022.2408 1855.0154
2112 65.0551 2032(45) 2012.7944 1854.6067
2113 65.0811 1927(44) 2004.0645 1854.1979
2114 65.1071 2016(45) 1995.9771 1853.7892
2115 65.1331 1976(44) 1988.4673 1853.3805
2116 65.1591 2008(45) 1981.4783 1852.9717
2117 65.1851 1933(44) 1974.9624 1852.5631
2118 65.2111 1931(44) 1968.8715 1852.1544
2119 65.2371 1877(43) 1963.1685 1851.7456
2120 65.2631 1886(43) 1957.8188 1851.3369
2121 65.2891 1933(44) 1952.7917 1850.9282
2122 65.3151 1891(43) 1948.0596 1850.5194
2123 65.3411 1903(44) 1943.5977 1850.1107
2124 65.3671 1905(44) 1939.3838 1849.7019
2125 65.3931 1882(43) 1935.3995 1849.2933
2126 65.4191 1816(43) 1931.6243 1848.8846
2127 65.4451 1953(44) 1928.0431 1848.4758
2128 65.4711 1937(44) 1924.6415 1848.0671
2129 65.4971 1867(43) 1921.4059 1847.6584
2130 65.5231 1887(43) 1918.3242 1847.2496
2131 65.5491 1956(44) 1915.3857 1846.8409
2132 65.5751 1900(44) 1912.5811 1846.4324
2133 65.6011 1896(44) 1909.8990 1846.0236
2134 65.6271 1871(43) 1869.4866 1845.6149
2135 65.6531 1833(43) 1868.2286 1845.2062
2136 65.6791 1878(43) 1867.0151 1844.7974
2137 65.7051 1842(43) 1865.8430 1844.3887
2138 65.7311 1884(43) 1864.7096 1843.9800
2139 65.7571 1913(44) 1863.6122 1843.5712
2140 65.7831 1856(43) 1862.5488 1843.1626
2141 65.8091 1871(43) 1842.7538 1842.7538
2142 65.8351 1831(43) 1842.3451 1842.3451
2143 65.8611 1809(43) 1841.9364 1841.9364
2144 65.8871 1847(43) 1841.5276 1841.5276
2145 65.9131 1839(43) 1841.1189 1841.1189
2146 65.9391 1839(43) 1840.7102 1840.7102
2147 65.9651 1843(43) 1840.3014 1840.3014
2148 65.9911 1875(43) 1839.8928 1839.8928
2149 66.0171 1936(44) 1839.4841 1839.4841
2150 66.0431 1879(43) 1839.0753 1839.0753
2151 66.0691 1838(43) 1838.6666 1838.6666
2152 66.0951 1830(43) 1838.2579 1838.2579
2153 66.1211 1818(43) 1837.8491 1837.8491
2154 66.1471 1812(43) 1837.4404 1837.4404
2155 66.1731 1893(44) 1837.0317 1837.0317
2156 66.1991 1916(44) 1836.6230 1836.6230
2157 66.2251 1878(43) 1836.2144 1836.2144
2158 66.2511 1882(43) 1835.8055 1835.8055
2159 66.2771 1908(44) 1835.3969 1835.3969
2160 66.3031 1894(44) 1834.9882 1834.9882
2161 66.3291 1865(43) 1834.5793 1834.5793
2162 66.3551 1851(43) 1834.1707 1834.1707
2163 66.3811 1844(43) 1833.7620 1833.7620
2164 66.4071 1874(43) 1833.3533 1833.3533
2165 66.4331 1878(43) 1832.9446 1832.9446
2166 66.4591 1822(43) 1832.5359 1832.5359
2167 66.4851 1799(42) 1832.1271 1832.1271
2168 66.5111 1832(43) 1831.7184 1831.7184
2169 66.5371 1844(43) 1831.3097 1831.3097
2170 66.5631 1813(43) 1830.9009 1830.9009
2171 66.5891 1816(43) 1830.4923 1830.4923
2172 66.6151 1837(43) 1830.0835 1830.0835
2173 66.6411 1797(42) 1829.6748 1829.6748
2174 66.6671 1821(43) 1829.2661 1829.2661
2175 66.6931 1860(43) 1828.8574 1828.8574
2176 66.7191 1796(42) 1828.4569 1828.4569
2177 66.7451 1828(43) 1828.1451 1828.1451
2178 66.7711 1810(43) 1827.8334 1827.8334
2179 66.7971 1801(42) 1829.1296 1827.5217
2180 66.8231 1788(42) 1828.8701 1827.2100
2181 66.8491 1825(43) 1828.6132 1826.8981
2182 66.8751 1830(43) 1828.3590 1826.5863
2183 66.9011 1841(43) 1828.1078 1826.2745
2184 66.9271 1800(42) 1827.8599 1825.9628
2185 66.9531 1775(42) 1827.6152 1825.6510
2186 66.9791 1800(42) 1828.1644 1825.3392
2187 67.0051 1763(42) 1827.9529 1825.0276
2188 67.0311 1830(43) 1827.7467 1824.7158
2189 67.0571 1820(43) 1827.5463 1824.4041
2190 67.0831 1855(43) 1827.3521 1824.0922
2191 67.1091 1877(43) 1827.1647 1823.7804
2192 67.1351 1822(43) 1826.9846 1823.4686
2193 67.1611 1820(43) 1826.8124 1823.1569
2194 67.1871 1826(43) 1826.6486 1822.8451
2195 67.2131 1848(43) 1826.4941 1822.5334
2196 67.2391 1867(43) 1826.3495 1822.2217
2197 67.2651 1910(44) 1826.2157 1821.9099
2198 67.2911 1861(43) 1826.0938 1821.5981
2199 67.3171 1847(43) 1825.9845 1821.2863
2200 67.3431 1910(44) 1825.8894 1820.9745
2201 67.3691 1893(44) 1825.8098 1820.6627
2202 67.3951 1871(43) 1825.7469 1820.3510
2203 67.4211 1905(44) 1825.7026 1820.0393
2204 67.4471 1949(44) 1825.6788 1819.7275
2205 67.4731 1947(44) 1825.6775 1819.4158
2206 67.4991 1861(43) 1825.7012 1819.1040
2207 67.5251 1865(43) 1825.7527 1818.7922
2208 67.5511 1795(42) 1825.8350 1818.4803
2209 67.5771 1785(42) 1825.9519 1818.1686
2210 67.6031 1833(43) 1826.1074 1817.8569
2211 67.6291 1944(44) 1826.3066 1817.5452
2212 67.6551 1825(43) 1826.5548 1817.2334
2213 67.6811 1902(44) 1826.8586 1816.9216
2214 67.7071 1843(43) 1827.2257 1816.6099
2215 67.7331 1832(43) 1827.6652 1816.2981
2216 67.7591 1798(42) 1828.1877 1815.9863
2217 67.7851 1811(43) 1828.8064 1815.6744
2218 67.8111 1805(42) 1829.5371 1815.3628
2219 67.8371 1748(42) 1830.3995 1815.0510
2220 67.8631 1813(43) 1831.4178 1814.7393
2221 67.8891 1811(43) 1832.6228 1814.4275
2222 67.9151 1822(43) 1834.0527 1814.1157
2223 67.9411 1801(42) 1835.7566 1813.8040
2224 67.9671 1796(42) 1837.7959 1813.4922
2225 67.9931 1843(43) 1840.2474 1813.1804
2226 68.0191 1856(43) 1843.2061 1812.8687
2227 68.0451 1792(42) 1846.7931 1812.5569
2228 68.0711 1739(42) 1851.1584 1812.2451
2229 68.0971 1794(42) 1856.5020 1811.9333
2230 68.1231 1879(43) 1863.1068 1811.6216
2231 68.1491 1924(44) 1871.4027 1811.3098
2232 68.1751 1867(43) 1882.0654 1810.9980
2233 68.2011 1871(43) 1896.1436 1810.6863
2234 68.2271 1854(43) 1915.1720 1810.3745
2235 68.2531 1888(43) 1941.2610 1810.0627
2236 68.2791 1953(44) 1977.0234 1809.7510
2237 68.3051 1956(44) 2025.3850 1809.4392
2238 68.3311 2081(46) 2088.9207 1809.1274
2239 68.3571 2199(47) 2167.8491 1808.8157
2240 68.3831 2291(48) 2255.1492 1808.5039
2241 68.4091 2358(49) 2330.2517 1808.1921
2242 68.4351 2368(49) 2364.1167 1807.8804
2243 68.4611 2366(49) 2345.2842 1807.5686
2244 68.4871 2264(48) 2293.4331 1807.2568
2245 68.5131 2275(48) 2237.8091 1806.9451
2246 68.5391 2185(47) 2196.8992 1806.6333
2247 68.5651 2200(47) 2175.8118 1806.3215
2248 68.5911 2168(47) 2167.9866 1806.0098
2249 68.6171 2138(46) 2157.4707 1805.6980
2250 68.6431 2162(46) 2129.5452 1805.3862
2251 68.6691 2148(46) 2084.1348 1805.0745
2252 68.6951 2067(45) 2032.4376 1804.7627
2253 68.7211 2000(45) 1984.3831 1804.4509
2254 68.7471 1981(45) 1944.4026 1804.1392
2255 68.7731 1986(45) 1913.2111 1803.8274
2256 68.7991 1905(44) 1889.8174 1803.5156
2257 68.8251 1859(43) 1872.6384 1803.2040
2258 68.8511 1892(43) 1860.0538 1802.8922
2259 68.8771 1880(43) 1850.7144 1802.5803
2260 68.9031 1875(43) 1843.6061 1802.2686
2261 68.9291 1874(43) 1838.0266 1801.9568
2262 68.9551 1820(43) 1833.5103 1801.6450
2263 68.9811 1793(42) 1829.7543 1801.3333
2264 69.0071 1835(43) 1826.5603 1801.0215
2265 69.0331 1917(44) 1823.7969 1800.7098
2266 69.0591 1924(44) 1821.3717 1800.3981
2267 69.0851 1873(43) 1819.2213 1800.0863
2268 69.1111 1879(43) 1817.2981 1799.7744
2269 69.1371 1872(43) 1815.5663 1799.4626
2270 69.1631 1860(43) 1813.9972 1799.1509
2271 69.1891 1876(43) 1812.5676 1798.8391
2272 69.2151 1903(44) 1811.2587 1798.5273
2273 69.2411 1893(44) 1810.0543 1798.2157
2274 69.2671 1797(42) 1808.9402 1797.9039
2275 69.2931 1716(41) 1807.9050 1797.5922
2276 69.3191 1766(42) 1806.9391 1797.2804
2277 69.3451 1839(43) 1806.0336 1796.9685
2278 69.3711 1808(43) 1805.1815 1796.6567
2279 69.3971 1780(42) 1804.3767 1796.3450
2280 69.4231 1748(42) 1803.6138 1796.0332
2281 69.4491 1824(43) 1802.8882 1795.7216
2282 69.4751 1787(42) 1802.1956 1795.4098
2283 69.5011 1789(42) 1801.5326 1795.0980
2284 69.5271 1760(42) 1800.8965 1794.7863
2285 69.5531 1774(42) 1800.2843 1794.4745
2286 69.5791 1715(41) 1799.6937 1794.1626
2287 69.6051 1855(43) 1799.1230 1793.8508
2288 69.6311 1850(43) 1798.5701 1793.5391
2289 69.6571 1838(43) 1798.0336 1793.2274
2290 69.6831 1819(43) 1797.5117 1792.9156
2291 69.7091 1747(42) 1797.0034 1792.6039
2292 69.7351 1803(42) 1796.5074 1792.2921
2293 69.7611 1796(42) 1796.0228 1791.9803
2294 69.7871 1713(41) 1795.5487 1791.6686
2295 69.8131 1806(42) 1795.0841 1791.3567
2296 69.8391 1896(44) 1794.6287 1791.0450
2297 69.8651 1867(43) 1794.1812 1790.7333
2298 69.8911 1815(43) 1793.7413 1790.4215
2299 69.9171 1869(43) 1793.3085 1790.1097
2300 69.9431 1813(43) 1792.8822 1789.7980
2301 69.9691 1907(44) 1792.4619 1789.4862
2302 69.9951 1867(43) 1792.0474 1789.1744
2303 70.0211 1860(43) 1791.6379 1788.8627
2304 70.0471 1856(43) 1791.2335 1788.5509
2305 70.0731 1818(43) 1790.8336 1788.2391
2306 70.0991 1811(43) 1788.9043 1787.9274
2307 70.1251 1818(43) 1788.5592 1787.6156
2308 70.1511 1847(43) 1788.2158 1787.3038
2309 70.1771 1836(43) 1787.8739 1786.9921
2310 70.2031 1849(43) 1787.5334 1786.6803
2311 70.2291 1791(42) 1787.1945 1786.3685
2312 70.2551 1820(43) 1786.8567 1786.0568
2313 70.2811 1771(42) 1785.7450 1785.7450
2314 70.3071 1876(43) 1785.4332 1785.4332
2315 70.3331 1741(42) 1785.1215 1785.1215
2316 70.3591 1821(43) 1784.8097 1784.8097
2317 70.3851 1846(43) 1784.4979 1784.4979
2318 70.4111 1771(42) 1784.1862 1784.1862
2319 70.4371 1785(42) 1783.8744 1783.8744
2320 70.4631 1817(43) 1783.5626 1783.5626
2321 70.4891 1853(43) 1783.2509 1783.2509
2322 70.5151 1788(42) 1782.9391 1782.9391
2323 70.5411 1826(43) 1782.6273 1782.6273
2324 70.5671 1774(42) 1782.3156 1782.3156
2325 70.5931 1741(42) 1782.0038 1782.0038
2326 70.6191 1828(43) 1781.6920 1781.6920
2327 70.6451 1814(43) 1781.3802 1781.3802
2328 70.6711 1882(43) 1781.0685 1781.0685
2329 70.6971 1760(42) 1780.7567 1780.7567
2330 70.7231 1845(43) 1780.4449 1780.4449
2331 70.7491 1779(42) 1780.1332 1780.1332
2332 70.7751 1866(43) 1779.8214 1779.8214
2333 70.8011 1800(42) 1779.5096 1779.5096
2334 70.8271 1800(42) 1779.1979 1779.1979
2335 70.8531 1773(42) 1778.8862 1778.8862
2336 70.8791 1820(43) 1778.5745 1778.5745
2337 70.9051 1817(43) 1778.2626 1778.2626
2338 70.9311 1861(43) 1777.9508 1777.9508
2339 70.9571 1865(43) 1777.6390 1777.6390
2340 70.9831 1814(43) 1814.5989 1777.3273
2341 71.0091 1775(42) 1815.4420 1777.0155
2342 71.0351 1758(42) 1816.3397 1776.7037
2343 71.0611 1774(42) 1817.2949 1776.3921
2344 71.0871 1778(42) 1818.3123 1776.0803
2345 71.1131 1859(43) 1819.3951 1775.7686
2346 71.1391 1877(43) 1820.5481 1775.4567
2347 71.1651 1860(43) 1821.7761 1775.1449
2348 71.1911 1834(43) 1841.6405 1774.8331
2349 71.2171 1771(42) 1843.6089 1774.5214
2350 71.2431 1800(42) 1845.6962 1774.2096
2351 71.2691 1822(43) 1847.9102 1773.8979
2352 71.2951 1848(43) 1850.2614 1773.5862
2353 71.3211 1845(43) 1852.7592 1773.2744
2354 71.3471 1867(43) 1855.4146 1772.9626
2355 71.3731 1882(43) 1858.2395 1772.6508
2356 71.3991 1855(43) 1861.2473 1772.3390
2357 71.4251 1878(43) 1864.4524 1772.0272
2358 71.4511 1873(43) 1867.8708 1771.7155
2359 71.4771 1825(43) 1871.5193 1771.4038
2360 71.5031 1814(43) 1875.4189 1771.0920
2361 71.5291 1832(43) 1879.5908 1770.7803
2362 71.5551 1873(43) 1884.0586 1770.4685
2363 71.5811 1905(44) 1888.8492 1770.1567
2364 71.6071 1936(44) 1893.9921 1769.8448
2365 71.6331 1926(44) 1899.5209 1769.5331
2366 71.6591 1936(44) 1905.4728 1769.2213
2367 71.6851 1962(44) 1911.8878 1768.9097
2368 71.7111 1932(44) 1918.8169 1768.5979
2369 71.7371 1950(44) 1926.3118 1768.2861
2370 71.7631 1968(44) 1934.4331 1767.9744
2371 71.7891 1985(45) 1943.2498 1767.6626
2372 71.8151 1996(45) 1952.8406 1767.3508
2373 71.8411 2007(45) 1963.2955 1767.0389
2374 71.8671 1993(45) 1974.7190 1766.7272
2375 71.8931 1960(44) 1987.2269 1766.4155
2376 71.9191 2010(45) 2000.9661 1766.1038
2377 71.9451 2042(45) 2016.0958 1765.7920
2378 71.9711 2069(45) 2032.8080 1765.4802
2379 71.9971 2085(46) 2051.3296 1765.1685
2380 72.0231 2064(45) 2071.9321 1764.8567
2381 72.0491 2072(46) 2094.9438 1764.5449
2382 72.0751 2096(46) 2120.7563 1764.2332
2383 72.1011 2190(47) 2149.8774 1763.9214
2384 72.1271 2213(47) 2182.9111 1763.6096
2385 72.1531 2237(47) 2220.6216 1763.2979
2386 72.1791 2301(48) 2263.9644 1762.9861
2387 72.2051 2318(48) 2314.1340 1762.6743
2388 72.2311 2413(49) 2372.6162 1762.3625
2389 72.2571 2488(50) 2441.2498 1762.0508
2390 72.2831 2483(50) 2522.2793 1761.7390
2391 72.3091 2565(51) 2618.5808 1761.4272
2392 72.3351 2787(53) 2733.7563 1761.1155
2393 72.3611 2971(55) 2872.6970 1760.8037
2394 72.3871 3154(56) 3042.4395 1760.4919
2395 72.4131 3363(58) 3253.6362 1760.1802
2396 72.4391 3653(60) 3522.6499 1759.8684
2397 72.4651 4034(64) 3873.9805 1759.5566
2398 72.4911 4425(67) 4342.1875 1759.2449
2399 72.5171 5025(71) 4973.3350 1758.9331
2400 72.5431 5885(77) 5822.9800 1758.6213
2401 72.5691 6932(83) 6951.5781 1758.3096
2402 72.5951 8338(91) 8408.5605 1757.9978
2403 72.6211 10024(100) 10186.6719 1757.6860
2404 72.6471 11855(109) 12119.2588 1757.3743
2405 72.6731 13510(116) 13761.6826 1757.0625
2406 72.6991 14142(119) 14509.2900 1756.7507
2407 72.7251 13649(117) 14113.9062 1756.4390
2408 72.7511 12719(113) 12962.4590 1756.1272
2409 72.7771 11367(107) 11670.4023 1755.8154
2410 72.8031 10350(102) 10658.3066 1755.5037
2411 72.8291 9791(99) 10085.8809 1755.1919
2412 72.8551 9734(99) 9899.6494 1754.8801
2413 72.8811 9741(99) 9847.4287 1754.5684
2414 72.9071 9554(98) 9565.2383 1754.2567
2415 72.9331 8719(93) 8844.7637 1753.9448
2416 72.9591 7695(88) 7800.1982 1753.6331
2417 72.9851 6397(80) 6685.2637 1753.3213
2418 73.0111 5425(74) 5678.1069 1753.0095
2419 73.0371 4767(69) 4848.0254 1752.6978
2420 73.0631 4240(65) 4199.8838 1752.3860
2421 73.0891 3669(61) 3710.4961 1752.0743
2422 73.1151 3411(58) 3347.1724 1751.7626
2423 73.1411 3194(57) 3078.2334 1751.4508
2424 73.1671 2962(54) 2876.9866 1751.1389
2425 73.1931 2798(53) 2723.2319 1750.8271
2426 73.2191 2605(51) 2602.6934 1750.5154
2427 73.2451 2423(49) 2505.6863 1750.2036
2428 73.2711 2353(49) 2425.7502 1749.8918
2429 73.2971 2321(48) 2358.5833 1749.5802
2430 73.3231 2219(47) 2301.2100 1749.2684
2431 73.3491 2099(46) 2251.6062 1748.9567
2432 73.3751 2082(46) 2208.3069 1748.6449
2433 73.4011 2111(46) 2170.2288 1748.3330
2434 73.4271 2023(45) 2136.5457 1748.0212
2435 73.4531 2011(45) 2106.6074 1747.7095
2436 73.4791 2016(45) 2079.8875 1747.3977
2437 73.5051 2039(45) 2055.9575 1747.0861
2438 73.5311 1979(44) 2034.4382 1746.7743
2439 73.5571 1942(44) 2015.0271 1746.4625
2440 73.5831 1915(44) 1997.4595 1746.1508
2441 73.6091 1925(44) 1981.5092 1745.8390
2442 73.6351 1984(45) 1966.9817 1745.5271
2443 73.6611 1903(44) 1953.7104 1745.2153
2444 73.6871 1917(44) 1941.5516 1744.9036
2445 73.7131 1876(43) 1930.3844 1744.5919
2446 73.7391 1917(44) 1920.0947 1744.2802
2447 73.7651 1935(44) 1910.5929 1743.9684
2448 73.7911 1877(43) 1901.7976 1743.6566
2449 73.8171 1853(43) 1893.6379 1743.3448
2450 73.8431 1866(43) 1886.0514 1743.0330
2451 73.8691 1868(43) 1878.9835 1742.7212
2452 73.8951 1859(43) 1872.3857 1742.4094
2453 73.9211 1831(43) 1866.2172 1742.0978
2454 73.9471 1825(43) 1860.4359 1741.7860
2455 73.9731 1841(43) 1855.0100 1741.4742
2456 73.9991 1810(43) 1849.9093 1741.1625
2457 74.0251 1755(42) 1845.1066 1740.8507
2458 74.0511 1723(42) 1840.5774 1740.5389
2459 74.0771 1778(42) 1836.3000 1740.2271
2460 74.1031 1834(43) 1832.2561 1739.9154
2461 74.1291 1853(43) 1828.4252 1739.6036
2462 74.1551 1851(43) 1824.7922 1739.2919
2463 74.1811 1805(42) 1821.3429 1738.9801
2464 74.2071 1771(42) 1818.0637 1738.6683
2465 74.2331 1751(42) 1814.9425 1738.3566
2466 74.2591 1766(42) 1811.9683 1738.0448
2467 74.2851 1786(42) 1809.1309 1737.7330
2468 74.3111 1780(42) 1806.4219 1737.4213
2469 74.3371 1760(42) 1803.8312 1737.1095
2470 74.3631 1728(42) 1801.3519 1736.7977
2471 74.3891 1733(42) 1798.9768 1736.4860
2472 74.4151 1761(42) 1759.9233 1736.1742
2473 74.4411 1812(43) 1758.8193 1735.8624
2474 74.4671 1806(43) 1757.7543 1735.5507
2475 74.4931 1793(42) 1756.7257 1735.2389
2476 74.5191 1787(42) 1755.7314 1734.9271
2477 74.5451 1787(42) 1754.7689 1734.6154
2478 74.5711 1762(42) 1753.8364 1734.3036
2479 74.5971 1764(42) 1752.9321 1733.9918
2480 74.6231 1770(42) 1752.0543 1733.6801
2481 74.6491 1751(42) 1733.3683 1733.3683
2482 74.6751 1767(42) 1733.0565 1733.0565
2483 74.7011 1745(42) 1732.7448 1732.7448
2484 74.7271 1693(41) 1732.4330 1732.4330
2485 74.7531 1758(42) 1732.1212 1732.1212
2486 74.7791 1722(41) 1731.8094 1731.8094
2487 74.8051 1764(42) 1731.4977 1731.4977
2488 74.8311 1729(42) 1731.1859 1731.1859
2489 74.8571 1730(42) 1730.8741 1730.8741
2490 74.8831 1728(42) 1730.5624 1730.5624
2491 74.9091 1710(41) 1730.2506 1730.2506
2492 74.9351 1737(42) 1729.9390 1729.9390
2493 74.9611 1777(42) 1729.6271 1729.6271
2494 74.9871 1683(41) 1729.3153 1729.3153
2495 75.0131 1711(41) 1729.0035 1729.0035
2496 75.0391 1729(42) 1728.6918 1728.6918
2497 75.0651 1766(42) 1728.3800 1728.3800
2498 75.0911 1777(42) 1728.1417 1728.0682
2499 75.1171 1787(42) 1727.8322 1727.7565
2500 75.1431 1739(42) 1727.5228 1727.4448
2501 75.1691 1790(42) 1727.2134 1727.1331
2502 75.1951 1829(43) 1726.9041 1726.8212
2503 75.2211 1809(43) 1726.5950 1726.5094
2504 75.2471 1793(42) 1726.2859 1726.1976
2505 75.2731 1727(42) 1725.9771 1725.8859
2506 75.2991 1709(41) 1725.7042 1725.5741
2507 75.3251 1769(42) 1725.3969 1725.2625
2508 75.3511 1734(42) 1725.0896 1724.9507
2509 75.3771 1755(42) 1724.7825 1724.6389
2510 75.4031 1713(41) 1724.4757 1724.3271
2511 75.4291 1757(42) 1724.1691 1724.0153
2512 75.4551 1794(42) 1723.8628 1723.7035
2513 75.4811 1741(42) 1723.5568 1723.3917
2514 75.5071 1764(42) 1723.2511 1723.0800
2515 75.5331 1741(42) 1722.9459 1722.7683
2516 75.5591 1717(41) 1722.6410 1722.4565
2517 75.5851 1722(41) 1722.6724 1722.4807
2518 75.6111 1745(42) 1722.7051 1722.5057
2519 75.6371 1701(41) 1722.7383 1722.5308
2520 75.6631 1731(42) 1722.7721 1722.5559
2521 75.6891 1758(42) 1722.8063 1722.5809
2522 75.7151 1734(42) 1722.8412 1722.6060
2523 75.7411 1753(42) 1722.8767 1722.6311
2524 75.7671 1693(41) 1722.9130 1722.6561
2525 75.7931 1806(42) 1722.9500 1722.6812
2526 75.8191 1645(41) 1722.9879 1722.7063
2527 75.8451 1639(40) 1723.0267 1722.7313
2528 75.8711 1732(42) 1723.0665 1722.7563
2529 75.8971 1767(42) 1723.1077 1722.7815
2530 75.9231 1762(42) 1723.1499 1722.8065
2531 75.9491 1808(43) 1723.1936 1722.8315
2532 75.9751 1685(41) 1723.2388 1722.8566
2533 76.0011 1707(41) 1723.2859 1722.8817
2534 76.0271 1678(41) 1723.3347 1722.9067
2535 76.0531 1766(42) 1723.3859 1722.9318
2536 76.0791 1694(41) 1723.4396 1722.9569
2537 76.1051 1725(42) 1723.4958 1722.9819
2538 76.1311 1664(41) 1723.5554 1723.0070
2539 76.1571 1696(41) 1723.6187 1723.0321
2540 76.1831 1676(41) 1723.6860 1723.0571
2541 76.2091 1690(41) 1723.7582 1723.0822
2542 76.2351 1695(41) 1723.8361 1723.1073
2543 76.2611 1712(41) 1723.9204 1723.1323
2544 76.2871 1749(42) 1724.0125 1723.1573
2545 76.3131 1720(41) 1724.1139 1723.1824
2546 76.3391 1746(42) 1724.2266 1723.2075
2547 76.3651 1789(42) 1724.3524 1723.2325
2548 76.3911 1727(42) 1724.4945 1723.2576
2549 76.4171 1722(41) 1724.6565 1723.2827
2550 76.4431 1715(41) 1724.8422 1723.3077
2551 76.4691 1724(42) 1725.0569 1723.3328
2552 76.4951 1700(41) 1725.3077 1723.3579
2553 76.5211 1742(42) 1725.6036 1723.3829
2554 76.5471 1736(42) 1725.9576 1723.4080
2555 76.5731 1699(41) 1726.3895 1723.4331
2556 76.5991 1714(41) 1726.9285 1723.4581
2557 76.6251 1712(41) 1727.6172 1723.4832
2558 76.6511 1674(41) 1728.5151 1723.5082
2559 76.6771 1703(41) 1729.7002 1723.5333
2560 76.7031 1732(42) 1731.2660 1723.5583
2561 76.7291 1702(41) 1733.3157 1723.5834
2562 76.7551 1748(42) 1735.9364 1723.6085
2563 76.7811 1742(42) 1739.1351 1723.6335
2564 76.8071 1715(41) 1742.6818 1723.6586
2565 76.8331 1725(42) 1745.9075 1723.6837
2566 76.8591 1685(41) 1747.7749 1723.7087
2567 76.8851 1658(41) 1747.6077 1723.7338
2568 76.9111 1682(41) 1745.7856 1723.7589
2569 76.9371 1739(42) 1743.3470 1723.7839
2570 76.9631 1764(42) 1741.1741 1723.8090
2571 76.9891 1754(42) 1739.7124 1723.8340
2572 77.0151 1740(42) 1739.0546 1723.8591
2573 77.0411 1737(42) 1738.9966 1723.8842
2574 77.0671 1750(42) 1739.0406 1723.9092
2575 77.0931 1756(42) 1738.5684 1723.9343
2576 77.1191 1699(41) 1737.2834 1723.9594
2577 77.1451 1696(41) 1735.4240 1723.9844
2578 77.1711 1704(41) 1733.4347 1724.0095
2579 77.1971 1698(41) 1731.6240 1724.0345
2580 77.2231 1759(42) 1730.1176 1724.0596
2581 77.2491 1735(42) 1728.9290 1724.0847
2582 77.2751 1677(41) 1728.0216 1724.1097
2583 77.3011 1655(41) 1727.3429 1724.1348
2584 77.3271 1701(41) 1726.8391 1724.1599
2585 77.3531 1690(41) 1726.4637 1724.1849
2586 77.3791 1676(41) 1726.1807 1724.2100
2587 77.4051 1681(41) 1725.9633 1724.2350
2588 77.4311 1731(42) 1725.7933 1724.2601
2589 77.4571 1738(42) 1725.6577 1724.2852
2590 77.4831 1742(42) 1725.5480 1724.3102
2591 77.5091 1703(41) 1725.4583 1724.3353
2592 77.5351 1675(41) 1725.3842 1724.3604
2593 77.5611 1717(41) 1725.3228 1724.3854
2594 77.5871 1758(42) 1725.2720 1724.4105
2595 77.6131 1708(41) 1725.2297 1724.4355
2596 77.6391 1722(41) 1725.1951 1724.4606
2597 77.6651 1703(41) 1725.1667 1724.4856
2598 77.6911 1712(41) 1725.1440 1724.5107
2599 77.7171 1634(40) 1725.1261 1724.5358
2600 77.7431 1720(41) 1725.1124 1724.5608
2601 77.7691 1744(42) 1725.1025 1724.5859
2602 77.7951 1672(41) 1725.0957 1724.6110
2603 77.8211 1707(41) 1725.0918 1724.6360
2604 77.8471 1805(42) 1725.0906 1724.6611
2605 77.8731 1748(42) 1725.0914 1724.6862
2606 77.8991 1697(41) 1725.0942 1724.7112
2607 77.9251 1681(41) 1725.0990 1724.7363
2608 77.9511 1755(42) 1725.1052 1724.7614
2609 77.9771 1645(41) 1725.1129 1724.7864
2610 78.0031 1727(42) 1725.1219 1724.8114
2611 78.0291 1705(41) 1725.1321 1724.8365
2612 78.0551 1801(42) 1725.1433 1724.8616
2613 78.0811 1699(41) 1725.1554 1724.8866
2614 78.1071 1739(42) 1725.1686 1724.9117
2615 78.1331 1717(41) 1725.1824 1724.9368
2616 78.1591 1756(42) 1725.1969 1724.9618
2617 78.1851 1747(42) 1725.2122 1724.9869
2618 78.2111 1745(42) 1725.2280 1725.0120
2619 78.2371 1758(42) 1725.2444 1725.0370
2620 78.2631 1697(41) 1725.2614 1725.0621
2621 78.2891 1652(41) 1725.2787 1725.0872
2622 78.3151 1747(42) 1725.2965 1725.1122
2623 78.3411 1690(41) 1725.3148 1725.1373
2624 78.3671 1779(42) 1725.3334 1725.1624
2625 78.3931 1797(42) 1725.3523 1725.1874
2626 78.4191 1789(42) 1725.3715 1725.2124
2627 78.4451 1709(41) 1725.3911 1725.2375
2628 78.4711 1715(41) 1725.4109 1725.2626
2629 78.4971 1716(41) 1725.4310 1725.2876
2630 78.5231 1748(42) 1725.4514 1725.3127
2631 78.5491 1733(42) 1725.4720 1725.3378
2632 78.5751 1760(42) 1725.4928 1725.3628
2633 78.6011 1750(42) 1725.5138 1725.3879
2634 78.6271 1757(42) 1725.5350 1725.4130
2635 78.6531 1826(43) 1725.5563 1725.4380
2636 78.6791 1782(42) 1725.5084 1725.4631
2637 78.7051 1823(43) 1725.5320 1725.4882
2638 78.7311 1780(42) 1725.5557 1725.5132
2639 78.7571 1749(42) 1725.5793 1725.5382
2640 78.7831 1800(42) 1725.6033 1725.5634
2641 78.8091 1794(42) 1725.6271 1725.5884
2642 78.8351 1741(42) 1725.6510 1725.6134
2643 78.8611 1721(41) 1725.6750 1725.6385
2644 78.8871 1707(41) 1725.6636 1725.6636
2645 78.9131 1756(42) 1725.6886 1725.6886
2646 78.9391 1789(42) 1725.7137 1725.7137
2647 78.9651 1809(43) 1725.7388 1725.7388
2648 78.9911 1770(42) 1725.7638 1725.7638
2649 79.0171 1764(42) 1725.7889 1725.7889
2650 79.0431 1769(42) 1725.8140 1725.8140
2651 79.0691 1701(41) 1725.8390 1725.8390
2652 79.0951 1727(42) 1737.1367 1725.8640
2653 79.1211 1761(42) 1737.4819 1725.8892
2654 79.1471 1745(42) 1737.8409 1725.9142
2655 79.1731 1705(41) 1738.2145 1725.9392
2656 79.1991 1737(42) 1738.6036 1725.9644
2657 79.2251 1732(42) 1739.0090 1725.9894
2658 79.2511 1745(42) 1739.4320 1726.0144
2659 79.2771 1738(42) 1739.8734 1726.0396
2660 79.3031 1715(41) 1740.3345 1726.0646
2661 79.3291 1759(42) 1746.3940 1726.0896
2662 79.3551 1762(42) 1747.0559 1726.1147
2663 79.3811 1738(42) 1747.7483 1726.1398
2664 79.4071 1738(42) 1748.4728 1726.1648
2665 79.4331 1763(42) 1749.2322 1726.1898
2666 79.4591 1788(42) 1750.0287 1726.2150
2667 79.4851 1800(42) 1750.8645 1726.2400
2668 79.5111 1748(42) 1751.7426 1726.2650
2669 79.5371 1706(41) 1752.6659 1726.2902
2670 79.5631 1783(42) 1753.6377 1726.3152
2671 79.5891 1796(42) 1754.6611 1726.3402
2672 79.6151 1763(42) 1755.7408 1726.3654
2673 79.6411 1789(42) 1756.8807 1726.3904
2674 79.6671 1797(42) 1758.0854 1726.4154
2675 79.6931 1788(42) 1759.3602 1726.4406
2676 79.7191 1764(42) 1760.7106 1726.4656
2677 79.7451 1760(42) 1762.1428 1726.4906
2678 79.7711 1785(42) 1763.6641 1726.5157
2679 79.7971 1792(42) 1765.2811 1726.5408
2680 79.8231 1771(42) 1767.0035 1726.5658
2681 79.8491 1788(42) 1768.8405 1726.5908
2682 79.8751 1832(43) 1770.8025 1726.6160
2683 79.9011 1829(43) 1772.9010 1726.6410
2684 79.9271 1756(42) 1775.1495 1726.6660
2685 79.9531 1753(42) 1777.5630 1726.6912
2686 79.9791 1815(43) 1780.1578 1726.7162
2687 80.0051 1812(43) 1782.9524 1726.7412
2688 80.0311 1807(43) 1785.9696 1726.7664
2689 80.0571 1791(42) 1789.2332 1726.7914
2690 80.0831 1775(42) 1792.7710 1726.8164
2691 80.1091 1738(42) 1796.6151 1726.8416
2692 80.1351 1754(42) 1800.8022 1726.8666
2693 80.1611 1802(42) 1805.3752 1726.8916
2694 80.1871 1767(42) 1810.3838 1726.9166
2695 80.2131 1798(42) 1815.8850 1726.9418
2696 80.2391 1901(44) 1821.9506 1726.9668
2697 80.2651 1865(43) 1828.6616 1726.9918
2698 80.2911 1818(43) 1836.1171 1727.0170
2699 80.3171 1833(43) 1844.4364 1727.0420
2700 80.3431 1841(43) 1853.7656 1727.0670
2701 80.3691 1883(43) 1864.2837 1727.0922
2702 80.3951 1858(43) 1876.2095 1727.1172
2703 80.4211 1862(43) 1889.8081 1727.1422
2704 80.4471 1836(43) 1905.4169 1727.1674
2705 80.4731 1893(44) 1923.4338 1727.1924
2706 80.4991 1935(44) 1944.3484 1727.2174
2707 80.5251 1926(44) 1968.7588 1727.2424
2708 80.5511 2005(45) 1997.4066 1727.2676
2709 80.5771 2008(45) 2031.2383 1727.2926
2710 80.6031 2082(46) 2071.5051 1727.3176
2711 80.6291 2158(46) 2120.0005 1727.3428
2712 80.6551 2194(47) 2179.2842 1727.3678
2713 80.6811 2262(48) 2253.1260 1727.3928
2714 80.7071 2352(49) 2346.9563 1727.4180
2715 80.7331 2464(50) 2468.2910 1727.4430
2716 80.7591 2616(51) 2626.9968 1727.4680
2717 80.7851 2906(54) 2835.2415 1727.4932
2718 80.8111 3176(56) 3106.7739 1727.5182
2719 80.8371 3387(58) 3455.1638 1727.5432
2720 80.8631 3980(63) 3887.2734 1727.5682
2721 80.8891 4424(67) 4388.7510 1727.5934
2722 80.9151 5011(71) 4898.1992 1727.6184
2723 80.9411 5448(74) 5291.4912 1727.6434
2724 80.9671 5601(75) 5432.1421 1727.6686
2725 80.9931 5395(73) 5285.5415 1727.6936
2726 81.0191 5039(71) 4954.3496 1727.7186
2727 81.0451 4546(67) 4583.3838 1727.7438
2728 81.0711 4404(66) 4274.6309 1727.7688
2729 81.0971 4135(64) 4074.5464 1727.7938
2730 81.1231 4129(64) 3989.2720 1727.8190
2731 81.1491 4134(64) 3990.9500 1727.8440
2732 81.1751 4018(63) 4015.2783 1727.8690
2733 81.2011 4089(64) 3976.7183 1727.8942
2734 81.2271 3890(62) 3821.2739 1727.9192
2735 81.2531 3632(60) 3566.6929 1727.9442
2736 81.2791 3312(58) 3273.4844 1727.9692
2737 81.3051 2926(54) 2993.2222 1727.9944
2738 81.3311 2726(52) 2751.3171 1728.0194
2739 81.3571 2556(51) 2554.2644 1728.0444
2740 81.3831 2472(50) 2399.2319 1728.0696
2741 81.4091 2247(47) 2279.7432 1728.0946
2742 81.4351 2220(47) 2188.5154 1728.1196
2743 81.4611 2144(46) 2118.7400 1728.1448
2744 81.4871 2068(45) 2064.8438 1728.1698
2745 81.5131 2040(45) 2022.5139 1728.1948
2746 81.5391 2000(45) 1988.5969 1728.2200
2747 81.5651 1970(44) 1960.8586 1728.2450
2748 81.5911 1907(44) 1937.7394 1728.2700
2749 81.6171 1860(43) 1918.1498 1728.2950
2750 81.6431 1839(43) 1901.3257 1728.3202
2751 81.6691 1862(43) 1886.7048 1728.3452
2752 81.6951 1859(43) 1873.8877 1728.3702
2753 81.7211 1863(43) 1862.5703 1728.3954
2754 81.7471 1808(43) 1852.5189 1728.4204
2755 81.7731 1788(42) 1843.5493 1728.4454
2756 81.7991 1804(42) 1835.5132 1728.4706
2757 81.8251 1773(42) 1828.2899 1728.4956
2758 81.8511 1797(42) 1821.7728 1728.5206
2759 81.8771 1835(43) 1815.8774 1728.5458
2760 81.9031 1770(42) 1810.5288 1728.5708
2761 81.9291 1754(42) 1805.6631 1728.5958
2762 81.9551 1798(42) 1801.2247 1728.6208
2763 81.9811 1815(43) 1797.1659 1728.6460
2764 82.0071 1801(42) 1793.4446 1728.6710
2765 82.0331 1793(42) 1790.0259 1728.6960
2766 82.0591 1777(42) 1786.8761 1728.7212
2767 82.0851 1733(42) 1783.9684 1728.7462
2768 82.1111 1727(42) 1781.2789 1728.7712
2769 82.1371 1744(42) 1778.7865 1728.7964
2770 82.1631 1741(42) 1776.4720 1728.8214
2771 82.1891 1743(42) 1774.3192 1728.8464
2772 82.2151 1751(42) 1772.3136 1728.8716
2773 82.2411 1720(41) 1770.4424 1728.8966
2774 82.2671 1712(41) 1768.6929 1728.9216
2775 82.2931 1740(42) 1767.0554 1728.9467
2776 82.3191 1738(42) 1765.5208 1728.9718
2777 82.3451 1771(42) 1764.0804 1728.9968
2778 82.3711 1756(42) 1762.7269 1729.0219
2779 82.3971 1743(42) 1761.4537 1729.0470
2780 82.4231 1746(42) 1760.2543 1729.0720
2781 82.4491 1723(42) 1759.1237 1729.0970
2782 82.4751 1729(42) 1758.0563 1729.1222
2783 82.5011 1695(41) 1757.0476 1729.1472
2784 82.5271 1685(41) 1756.0935 1729.1722
2785 82.5531 1641(41) 1755.1906 1729.1974
2786 82.5791 1724(42) 1754.3347 1729.2224
2787 82.6051 1743(42) 1753.5232 1729.2474
2788 82.6311 1686(41) 1752.7531 1729.2726
2789 82.6571 1742(42) 1752.0215 1729.2976
2790 82.6831 1739(42) 1751.3259 1729.3226
2791 82.7091 1697(41) 1750.6643 1729.3477
2792 82.7351 1707(41) 1750.0344 1729.3728
2793 82.7611 1711(41) 1749.4343 1729.3978
2794 82.7871 1716(41) 1748.8622 1729.4229
2795 82.8131 1764(42) 1748.2518 1729.3832
2796 82.8391 1705(41) 1736.6127 1729.3408
2797 82.8651 1687(41) 1736.3461 1729.2986
2798 82.8911 1706(41) 1736.0896 1729.2562
2799 82.9171 1745(42) 1735.8429 1729.2140
2800 82.9431 1686(41) 1735.6051 1729.1718
2801 82.9691 1738(42) 1735.3757 1729.1294
2802 82.9951 1723(42) 1735.1545 1729.0872
2803 83.0211 1737(42) 1734.9408 1729.0448
2804 83.0471 1738(42) 1734.7344 1729.0026
2805 83.0731 1653(41) 1735.0682 1728.9603
2806 83.0991 1683(41) 1729.4661 1728.9180
2807 83.1251 1658(41) 1729.4391 1728.8757
2808 83.1511 1654(41) 1729.4126 1728.8335
2809 83.1771 1692(41) 1729.3867 1728.7911
2810 83.2031 1724(42) 1729.3617 1728.7489
2811 83.2291 1699(41) 1729.3374 1728.7065
2812 83.2551 1701(41) 1729.3138 1728.6643
2813 83.2811 1728(42) 1729.2913 1728.6221
2814 83.3071 1674(41) 1729.2694 1728.5797
2815 83.3331 1685(41) 1729.5153 1728.5375
2816 83.3591 1735(42) 1729.5027 1728.4952
2817 83.3851 1749(42) 1729.4915 1728.4529
2818 83.4111 1787(42) 1729.4819 1728.4106
2819 83.4371 1682(41) 1729.4736 1728.3683
2820 83.4631 1676(41) 1729.4673 1728.3260
2821 83.4891 1712(41) 1729.4626 1728.2838
2822 83.5151 1716(41) 1729.4598 1728.2415
2823 83.5411 1693(41) 1729.4591 1728.1992
2824 83.5671 1679(41) 1729.4606 1728.1570
2825 83.5931 1706(41) 1729.4642 1728.1146
2826 83.6191 1693(41) 1729.4705 1728.0724
2827 83.6451 1784(42) 1729.4794 1728.0300
2828 83.6711 1711(41) 1729.4911 1727.9878
2829 83.6971 1724(42) 1729.5061 1727.9456
2830 83.7231 1677(41) 1729.5242 1727.9032
2831 83.7491 1670(41) 1729.5460 1727.8610
2832 83.7751 1639(40) 1729.5717 1727.8187
2833 83.8011 1700(41) 1729.6016 1727.7764
2834 83.8271 1705(41) 1729.6360 1727.7341
2835 83.8531 1689(41) 1729.6753 1727.6918
2836 83.8791 1654(41) 1729.7202 1727.6495
2837 83.9051 1742(42) 1729.7709 1727.6073
2838 83.9311 1715(41) 1729.8279 1727.5649
2839 83.9571 1661(41) 1729.8921 1727.5227
2840 83.9831 1700(41) 1729.9640 1727.4805
2841 84.0091 1692(41) 1730.0443 1727.4381
2842 84.0351 1708(41) 1730.1340 1727.3959
2843 84.0611 1686(41) 1730.2339 1727.3535
2844 84.0871 1627(40) 1730.3455 1727.3113
2845 84.1131 1631(40) 1730.4696 1727.2690
2846 84.1391 1687(41) 1730.6079 1727.2267
2847 84.1651 1726(42) 1730.7621 1727.1844
2848 84.1911 1663(41) 1730.9340 1727.1422
2849 84.2171 1647(41) 1731.1256 1727.0999
2850 84.2431 1730(42) 1731.3401 1727.0576
2851 84.2691 1746(42) 1731.5800 1727.0153
2852 84.2951 1726(42) 1731.8492 1726.9730
2853 84.3211 1694(41) 1732.1522 1726.9308
2854 84.3471 1736(42) 1732.4939 1726.8884
2855 84.3731 1761(42) 1732.8810 1726.8462
2856 84.3991 1767(42) 1733.3207 1726.8038
2857 84.4251 1740(42) 1733.8229 1726.7616
2858 84.4511 1757(42) 1734.3986 1726.7194
2859 84.4771 1763(42) 1735.0614 1726.6770
2860 84.5031 1733(42) 1735.8285 1726.6348
2861 84.5291 1719(41) 1736.7198 1726.5925
2862 84.5551 1793(42) 1737.7599 1726.5502
2863 84.5811 1828(43) 1738.9789 1726.5079
2864 84.6071 1791(42) 1740.4146 1726.4656
2865 84.6331 1758(42) 1742.1166 1726.4233
2866 84.6591 1719(41) 1744.1527 1726.3811
2867 84.6851 1730(42) 1746.6173 1726.3387
2868 84.7111 1741(42) 1749.6492 1726.2965
2869 84.7371 1736(42) 1753.4423 1726.2543
2870 84.7631 1754(42) 1758.2662 1726.2119
2871 84.7891 1745(42) 1764.4788 1726.1697
2872 84.8151 1748(42) 1772.5304 1726.1273
2873 84.8411 1779(42) 1782.9559 1726.0851
2874 84.8671 1792(42) 1796.3290 1726.0428
2875 84.8931 1790(42) 1813.1238 1726.0005
2876 84.9191 1813(43) 1833.3832 1725.9583
2877 84.9451 1850(43) 1855.9385 1725.9160
2878 84.9711 1858(43) 1877.4054 1725.8737
2879 84.9971 1875(43) 1892.1462 1725.8314
2880 85.0231 1930(44) 1895.1841 1725.7891
2881 85.0491 1952(44) 1886.4498 1725.7468
2882 85.0751 1927(44) 1870.8531 1725.7046
2883 85.1011 1868(43) 1854.2085 1725.6622
2884 85.1271 1867(43) 1840.4146 1725.6200
2885 85.1531 1877(43) 1831.2448 1725.5778
2886 85.1791 1885(43) 1827.0127 1725.5354
2887 85.2051 1888(43) 1826.8744 1725.4932
2888 85.2311 1797(42) 1828.6796 1725.4508
2889 85.2571 1833(43) 1829.0984 1725.4086
2890 85.2831 1863(43) 1825.0798 1725.3663
2891 85.3091 1861(43) 1815.9886 1725.3240
2892 85.3351 1815(43) 1803.7628 1725.2817
2893 85.3611 1909(44) 1790.9442 1725.2395
2894 85.3871 1847(43) 1779.2100 1725.1971
2895 85.4131 1813(43) 1769.2504 1725.1549
2896 85.4391 1855(43) 1761.1569 1725.1125
2897 85.4651 1888(43) 1754.7489 1725.0703
2898 85.4911 1898(44) 1749.7491 1725.0281
2899 85.5171 1804(42) 1745.8649 1724.9857
2900 85.5431 1846(43) 1742.8374 1724.9435
2901 85.5691 1855(43) 1740.4521 1724.9012
2902 85.5951 1854(43) 1738.5427 1724.8589
2903 85.6211 1823(43) 1736.9863 1724.8167
2904 85.6471 1787(42) 1735.6937 1724.7743
2905 85.6731 1834(43) 1734.6016 1724.7321
2906 85.6991 1801(42) 1733.6648 1724.6898
2907 85.7251 1869(43) 1732.8501 1724.6475
2908 85.7511 1739(42) 1732.1342 1724.6052
2909 85.7771 1802(42) 1731.4993 1724.5629
2910 85.8031 1756(42) 1730.9320 1724.5206
2911 85.8291 1773(42) 1730.4220 1724.4784
2912 85.8551 1757(42) 1729.9608 1724.4360
2913 85.8811 1832(43) 1729.5422 1724.3938
2914 85.9071 1831(43) 1729.1606 1724.3516
2915 85.9331 1729(42) 1728.8112 1724.3092
2916 85.9591 1780(42) 1728.4902 1724.2670
2917 85.9851 1779(42) 1728.1942 1724.2246
2918 86.0111 1776(42) 1727.9207 1724.1824
2919 86.0371 1771(42) 1727.6669 1724.1401
2920 86.0631 1718(41) 1727.4305 1724.0978
2921 86.0891 1781(42) 1727.2101 1724.0555
2922 86.1151 1758(42) 1727.0035 1724.0133
2923 86.1411 1753(42) 1726.8096 1723.9709
2924 86.1671 1745(42) 1726.6271 1723.9287
2925 86.1931 1779(42) 1726.4547 1723.8864
2926 86.2191 1855(43) 1726.2917 1723.8441
2927 86.2451 1748(42) 1726.1371 1723.8019
2928 86.2711 1785(42) 1725.9900 1723.7595
2929 86.2971 1810(43) 1725.8500 1723.7173
2930 86.3231 1808(43) 1725.7163 1723.6750
2931 86.3491 1823(43) 1725.5883 1723.6327
2932 86.3751 1788(42) 1725.4657 1723.5905
2933 86.4011 1774(42) 1725.3479 1723.5481
2934 86.4271 1676(41) 1725.2346 1723.5059
2935 86.4531 1745(42) 1725.1256 1723.4636
2936 86.4791 1773(42) 1725.0203 1723.4213
2937 86.5051 1758(42) 1724.9186 1723.3790
2938 86.5311 1698(41) 1724.8202 1723.3368
2939 86.5571 1787(42) 1724.7246 1723.2944
2940 86.5831 1758(42) 1724.6321 1723.2522
2941 86.6091 1794(42) 1724.5420 1723.2098
2942 86.6351 1751(42) 1724.4545 1723.1676
2943 86.6611 1746(42) 1724.3693 1723.1254
2944 86.6871 1722(41) 1724.2861 1723.0830
2945 86.7131 1724(42) 1724.2050 1723.0408
2946 86.7391 1743(42) 1724.1257 1722.9985
2947 86.7651 1758(42) 1724.0481 1722.9562
2948 86.7911 1764(42) 1723.9723 1722.9139
2949 86.8171 1740(42) 1723.8978 1722.8716
2950 86.8431 1778(42) 1723.8250 1722.8293
2951 86.8691 1796(42) 1723.7534 1722.7871
2952 86.8951 1730(42) 1723.6831 1722.7448
2953 86.9211 1772(42) 1723.6140 1722.7025
2954 86.9471 1832(43) 1723.5460 1722.6602
2955 86.9731 1784(42) 1722.9617 1722.6179
2956 86.9991 1755(42) 1762.4757 1722.5757
2957 87.0251 1715(41) 1763.4507 1722.5333
2958 87.0511 1766(42) 1764.4668 1722.4911
2959 87.0771 1795(42) 1765.5259 1722.4489
2960 87.1031 1805(42) 1766.6298 1722.4065
2961 87.1291 1761(42) 1767.7817 1722.3643
2962 87.1551 1758(42) 1768.9840 1722.3219
2963 87.1811 1745(42) 1770.2395 1722.2797
2964 87.2071 1733(42) 1771.5511 1722.2374
2965 87.2331 1744(42) 1772.6628 1722.1951
2966 87.2591 1742(42) 1774.1031 1722.1528
2967 87.2851 1768(42) 1795.5403 1722.1106
2968 87.3111 1794(42) 1797.6351 1722.0682
2969 87.3371 1755(42) 1799.8257 1722.0260
2970 87.3631 1751(42) 1802.1168 1721.9836
2971 87.3891 1809(43) 1804.5149 1721.9414
2972 87.4151 1802(42) 1807.0265 1721.8992
2973 87.4411 1797(42) 1809.6587 1721.8568
2974 87.4671 1806(42) 1812.4193 1721.8146
2975 87.4931 1787(42) 1815.3165 1721.7722
2976 87.5191 1811(43) 1818.3589 1721.7300
2977 87.5451 1830(43) 1821.5577 1721.6877
2978 87.5711 1817(43) 1824.9229 1721.6454
2979 87.5971 1825(43) 1828.4661 1721.6031
2980 87.6231 1807(43) 1832.1997 1721.5609
2981 87.6491 1827(43) 1836.1378 1721.5186
2982 87.6751 1843(43) 1840.2953 1721.4763
2983 87.7011 1847(43) 1844.6887 1721.4340
2984 87.7271 1832(43) 1849.3347 1721.3917
2985 87.7531 1797(42) 1854.2559 1721.3495
2986 87.7791 1877(43) 1859.4724 1721.3071
2987 87.8051 1857(43) 1865.0088 1721.2649
2988 87.8311 1916(44) 1870.8911 1721.2227
2989 87.8571 1888(43) 1877.1487 1721.1803
2990 87.8831 1872(43) 1883.8142 1721.1381
2991 87.9091 1863(43) 1890.9237 1721.0957
2992 87.9351 1892(43) 1898.5150 1721.0535
2993 87.9611 1870(43) 1906.6375 1721.0112
2994 87.9871 1861(43) 1915.3390 1720.9689
2995 88.0131 1918(44) 1924.6758 1720.9266
2996 88.0391 1926(44) 1934.7114 1720.8844
2997 88.0651 1976(44) 1945.5168 1720.8420
2998 88.0911 1946(44) 1957.1735 1720.7998
2999 88.1171 1933(44) 1969.7726 1720.7574
3000 88.1431 1935(44) 1983.4153 1720.7152
3001 88.1691 2016(45) 1998.2292 1720.6730
3002 88.1951 2031(45) 2014.3491 1720.6306
3003 88.2211 2052(45) 2031.9353 1720.5884
3004 88.2471 2117(46) 2051.1741 1720.5461
3005 88.2731 2078(46) 2072.2847 1720.5038
3006 88.2991 2166(47) 2095.5254 1720.4615
3007 88.3251 2133(46) 2121.1953 1720.4192
3008 88.3511 2105(46) 2149.6768 1720.3770
3009 88.3771 2248(47) 2181.4028 1720.3347
3010 88.4031 2228(47) 2216.9036 1720.2924
3011 88.4291 2193(47) 2256.8184 1720.2501
3012 88.4551 2375(49) 2301.9172 1720.2079
3013 88.4811 2443(49) 2353.1260 1720.1655
3014 88.5071 2446(49) 2411.5569 1720.1233
3015 88.5331 2462(50) 2478.5244 1720.0809
3016 88.5591 2594(51) 2555.6768 1720.0387
3017 88.5851 2655(52) 2644.9578 1719.9965
3018 88.6111 2778(53) 2748.8091 1719.9541
3019 88.6371 2878(54) 2870.3691 1719.9119
3020 88.6631 3069(55) 3013.8174 1719.8696
3021 88.6891 3276(57) 3184.9033 1719.8273
3022 88.7151 3387(58) 3391.6792 1719.7850
3023 88.7411 3664(61) 3645.3330 1719.7427
3024 88.7671 4141(64) 3961.4961 1719.7004
3025 88.7931 4401(66) 4360.7148 1719.6582
3026 88.8191 4879(70) 4869.3374 1719.6158
3027 88.8451 5523(74) 5519.4409 1719.5736
3028 88.8711 6448(80) 6347.5210 1719.5312
3029 88.8971 7434(86) 7389.8887 1719.4890
3030 88.9231 8849(94) 8669.8027 1719.4468
3031 88.9491 10461(102) 10166.6270 1719.4044
3032 88.9751 12036(110) 11762.4971 1719.3622
3033 89.0011 13454(116) 13184.4219 1719.3199
3034 89.0271 14165(119) 14048.1396 1719.2776
3035 89.0531 14272(119) 14081.5244 1719.2354
3036 89.0791 13421(116) 13353.5176 1719.1930
3037 89.1051 12077(110) 12212.1875 1719.1508
3038 89.1311 10805(104) 11028.1367 1719.1085
3039 89.1571 9954(100) 10042.8008 1719.0662
3040 89.1831 9292(96) 9366.8496 1719.0239
3041 89.2091 9030(95) 9025.9326 1718.9817
3042 89.2351 9060(95) 8982.3760 1718.9393
3043 89.2611 9047(95) 9128.4131 1718.8971
3044 89.2871 9204(96) 9275.5547 1718.8547
3045 89.3131 9181(96) 9200.2500 1718.8125
3046 89.3391 8795(94) 8770.1299 1718.7703
3047 89.3651 8009(89) 8032.2876 1718.7279
3048 89.3911 7000(84) 7149.0986 1718.6857
3049 89.4171 6216(79) 6272.6382 1718.6434
3050 89.4431 5519(74) 5489.1240 1718.6011
3051 89.4691 4803(69) 4828.9521 1718.5588
3052 89.4951 4241(65) 4291.6221 1718.5165
3053 89.5211 3856(62) 3863.1821 1718.4742
3054 89.5471 3468(59) 3525.4180 1718.4320
3055 89.5731 3279(57) 3259.8606 1718.3896
3056 89.5991 3042(55) 3050.4004 1718.3474
3057 89.6251 2862(53) 2883.6565 1718.3052
3058 89.6511 2767(53) 2749.1479 1718.2628
3059 89.6771 2633(51) 2638.9639 1718.2206
3060 89.7031 2538(50) 2547.2712 1718.1782
3061 89.7291 2422(49) 2469.8169 1718.1360
3062 89.7551 2404(49) 2403.5225 1718.0938
3063 89.7811 2368(49) 2346.0801 1718.0514
3064 89.8071 2284(48) 2295.8286 1718.0092
3065 89.8331 2240(47) 2251.5015 1717.9669
3066 89.8591 2165(47) 2212.1304 1717.9246
3067 89.8851 2103(46) 2176.9612 1717.8823
3068 89.9111 2098(46) 2145.3958 1717.8400
3069 89.9371 2080(46) 2116.9507 1717.7977
3070 89.9631 2068(45) 2091.2356 1717.7555
3071 89.9891 2055(45) 2067.9021 1717.7131
3072 90.0151 1972(44) 2046.6768 1717.6709
3073 90.0411 1935(44) 2027.3176 1717.6287
3074 90.0671 1976(44) 2009.6157 1717.5863
3075 90.0931 1982(45) 1993.3900 1717.5441
3076 90.1191 1964(44) 1978.4822 1717.5017
3077 90.1451 1955(44) 1964.7540 1717.4595
3078 90.1711 1931(44) 1952.0881 1717.4172
3079 90.1971 1926(44) 1940.3702 1717.3749
3080 90.2231 1905(44) 1929.5110 1717.3326
3081 90.2491 1884(43) 1919.4276 1717.2903
3082 90.2751 1930(44) 1910.0474 1717.2480
3083 90.3011 1881(43) 1901.3057 1717.2058
3084 90.3271 1859(43) 1893.1450 1717.1635
3085 90.3531 1845(43) 1885.5166 1717.1212
3086 90.3791 1851(43) 1878.3706 1717.0790
3087 90.4051 1838(43) 1871.6685 1717.0366
3088 90.4311 1842(43) 1865.3738 1716.9944
3089 90.4571 1853(43) 1859.4535 1716.9520
3090 90.4831 1815(43) 1853.8784 1716.9098
3091 90.5091 1864(43) 1848.6218 1716.8676
3092 90.5351 1803(42) 1843.6593 1716.8252
3093 90.5611 1769(42) 1838.9706 1716.7830
3094 90.5871 1804(42) 1834.5330 1716.7407
3095 90.6131 1829(43) 1830.3297 1716.6984
3096 90.6391 1832(43) 1826.3445 1716.6561
3097 90.6651 1789(42) 1822.5621 1716.6138
3098 90.6911 1824(43) 1818.9690 1716.5715
3099 90.7171 1783(42) 1815.5525 1716.5293
3100 90.7431 1778(42) 1812.3008 1716.4869
3101 90.7691 1766(42) 1809.2043 1716.4447
3102 90.7951 1831(43) 1806.2516 1716.4025
3103 90.8211 1812(43) 1803.4342 1716.3601
3104 90.8471 1814(43) 1800.7441 1716.3179
3105 90.8731 1748(42) 1798.1736 1716.2755
3106 90.8991 1765(42) 1795.7153 1716.2333
3107 90.9251 1740(42) 1793.3630 1716.1910
3108 90.9511 1774(42) 1791.1102 1716.1487
3109 90.9771 1782(42) 1788.9523 1716.1064
3110 91.0031 1736(42) 1786.8823 1716.0642
3111 91.0291 1769(42) 1784.8961 1716.0219
3112 91.0551 1824(43) 1782.9893 1715.9796
3113 91.0811 1806(42) 1742.1310 1715.9373
3114 91.1071 1772(42) 1741.3389 1715.8950
3115 91.1331 1697(41) 1740.5784 1715.8528
3116 91.1591 1702(41) 1739.8477 1715.8104
3117 91.1851 1738(42) 1739.1456 1715.7682
3118 91.2111 1838(43) 1738.4701 1715.7260
3119 91.2371 1837(43) 1737.8198 1715.6836
3120 91.2631 1770(42) 1737.1937 1715.6414
3121 91.2891 1761(42) 1736.5902 1715.5990
3122 91.3151 1744(42) 1736.0085 1715.5568
3123 91.3411 1726(42) 1735.4473 1715.5145
3124 91.3671 1654(41) 1715.4722 1715.4722
3125 91.3931 1714(41) 1715.4299 1715.4299
3126 91.4191 1697(41) 1715.3877 1715.3877
3127 91.4451 1695(41) 1715.3453 1715.3453
3128 91.4711 1756(42) 1715.3031 1715.3031
3129 91.4971 1745(42) 1715.2607 1715.2607
3130 91.5231 1757(42) 1715.2185 1715.2185
3131 91.5491 1665(41) 1715.1763 1715.1763
3132 91.5751 1717(41) 1715.1339 1715.1339
3133 91.6011 1755(42) 1715.0917 1715.0917
3134 91.6271 1709(41) 1715.0493 1715.0493
3135 91.6531 1692(41) 1715.0071 1715.0071
3136 91.6791 1752(42) 1714.9648 1714.9648
3137 91.7051 1744(42) 1714.9225 1714.9225
3138 91.7311 1740(42) 1714.8802 1714.8802
3139 91.7571 1718(41) 1714.8380 1714.8380
3140 91.7831 1754(42) 1714.7957 1714.7957
3141 91.8091 1756(42) 1714.7534 1714.7534
3142 91.8351 1725(42) 1714.7111 1714.7111
3143 91.8611 1721(41) 1714.6688 1714.6688
3144 91.8871 1741(42) 1714.6266 1714.6266
3145 91.9131 1685(41) 1714.5842 1714.5842
3146 91.9391 1689(41) 1714.5420 1714.5420
3147 91.9651 1718(41) 1714.4996 1714.4996
3148 91.9911 1740(42) 1714.4574 1714.4574
3149 92.0171 1748(42) 1714.4152 1714.4152
3150 92.0431 1768(42) 1714.3728 1714.3728
3151 92.0691 1714(41) 1714.3306 1714.3306
3152 92.0951 1688(41) 1714.2883 1714.2883
3153 92.1211 1728(42) 1714.2416 1714.2416
3154 92.1471 1683(41) 1714.1281 1714.1281
3155 92.1731 1642(41) 1714.0146 1714.0146
3156 92.1991 1727(42) 1713.9011 1713.9011
3157 92.2251 1744(42) 1713.7877 1713.7877
3158 92.2511 1724(42) 1713.6742 1713.6742
3159 92.2771 1706(41) 1713.5608 1713.5608
3160 92.3031 1704(41) 1713.4473 1713.4473
3161 92.3291 1691(41) 1713.3339 1713.3339
3162 92.3551 1725(42) 1713.2203 1713.2203
3163 92.3811 1752(42) 1713.1069 1713.1069
3164 92.4071 1678(41) 1712.9934 1712.9934
3165 92.4331 1681(41) 1712.8800 1712.8800
3166 92.4591 1716(41) 1712.7665 1712.7665
3167 92.4851 1723(42) 1712.6531 1712.6531
3168 92.5111 1727(42) 1712.5396 1712.5396
3169 92.5371 1659(41) 1712.4261 1712.4261
3170 92.5631 1661(41) 1712.3126 1712.3126
3171 92.5891 1723(42) 1712.1992 1712.1992
3172 92.6151 1742(42) 1712.0857 1712.0857
3173 92.6411 1735(42) 1711.9723 1711.9723
3174 92.6671 1728(42) 1711.8588 1711.8588
3175 92.6931 1745(42) 1711.7454 1711.7454
3176 92.7191 1713(41) 1711.6318 1711.6318
3177 92.7451 1687(41) 1711.5184 1711.5184
3178 92.7711 1715(41) 1711.4049 1711.4049
3179 92.7971 1750(42) 1711.2915 1711.2915
3180 92.8231 1733(42) 1711.1780 1711.1780
3181 92.8491 1698(41) 1711.0646 1711.0646
3182 92.8751 1705(41) 1710.9510 1710.9510
3183 92.9011 1693(41) 1710.8376 1710.8376
3184 92.9271 1688(41) 1710.7241 1710.7241
3185 92.9531 1684(41) 1710.6106 1710.6106
3186 92.9791 1727(42) 1710.4972 1710.4972
3187 93.0051 1739(42) 1710.3838 1710.3838
3188 93.0311 1679(41) 1710.2703 1710.2703
3189 93.0571 1698(41) 1710.1569 1710.1569
3190 93.0831 1753(42) 1710.0433 1710.0433
3191 93.1091 1716(41) 1709.9298 1709.9298
3192 93.1351 1686(41) 1709.8164 1709.8164
3193 93.1611 1681(41) 1709.7029 1709.7029
3194 93.1871 1704(41) 1709.5895 1709.5895
3195 93.2131 1740(42) 1709.4761 1709.4761
3196 93.2391 1746(42) 1709.3625 1709.3625
3197 93.2651 1681(41) 1709.2491 1709.2491
3198 93.2911 1702(41) 1709.1356 1709.1356
3199 93.3171 1767(42) 1709.0221 1709.0221
3200 93.3431 1696(41) 1708.9087 1708.9087
3201 93.3691 1637(40) 1708.7952 1708.7952
3202 93.3951 1662(41) 1708.6818 1708.6818
3203 93.4211 1699(41) 1708.5684 1708.5684
3204 93.4471 1665(41) 1708.4548 1708.4548
3205 93.4731 1690(41) 1708.3413 1708.3413
3206 93.4991 1723(42) 1708.2279 1708.2279
3207 93.5251 1716(41) 1708.1144 1708.1144
3208 93.5511 1666(41) 1708.0010 1708.0010
3209 93.5771 1758(42) 1707.8875 1707.8875
3210 93.6031 1775(42) 1707.7740 1707.7740
3211 93.6291 1690(41) 1707.6606 1707.6606
3212 93.6551 1724(42) 1707.5471 1707.5471
3213 93.6811 1721(41) 1707.4336 1707.4336
3214 93.7071 1715(41) 1707.3202 1707.3202
3215 93.7331 1616(40) 1707.2067 1707.2067
3216 93.7591 1681(41) 1707.0933 1707.0933
3217 93.7851 1742(42) 1706.9797 1706.9797
3218 93.8111 1601(40) 1706.8663 1706.8663
3219 93.8371 1719(41) 1706.7528 1706.7528
3220 93.8631 1700(41) 1706.6394 1706.6394
3221 93.8891 1767(42) 1706.5259 1706.5259
3222 93.9151 1761(42) 1706.4125 1706.4125
3223 93.9411 1703(41) 1706.2990 1706.2990
3224 93.9671 1734(42) 1706.1855 1706.1855
3225 93.9931 1691(41) 1706.0720 1706.0720
3226 94.0191 1710(41) 1705.9586 1705.9586
3227 94.0451 1668(41) 1705.8451 1705.8451
3228 94.0711 1656(41) 1705.7317 1705.7317
3229 94.0971 1705(41) 1705.6182 1705.6182
3230 94.1231 1741(42) 1705.5048 1705.5048
3231 94.1491 1742(42) 1705.3912 1705.3912
3232 94.1751 1706(41) 1705.2778 1705.2778
3233 94.2011 1726(42) 1705.1643 1705.1643
3234 94.2271 1676(41) 1705.0509 1705.0509
3235 94.2531 1710(41) 1704.9374 1704.9374
3236 94.2791 1701(41) 1704.8240 1704.8240
3237 94.3051 1697(41) 1704.7104 1704.7104
3238 94.3311 1735(42) 1704.5970 1704.5970
3239 94.3571 1677(41) 1704.4835 1704.4835
3240 94.3831 1688(41) 1704.3701 1704.3701
3241 94.4091 1647(41) 1704.2566 1704.2566
3242 94.4351 1714(41) 1704.1432 1704.1432
3243 94.4611 1806(42) 1704.0297 1704.0297
3244 94.4871 1773(42) 1703.9163 1703.9163
3245 94.5131 1669(41) 1703.8027 1703.8027
3246 94.5391 1727(42) 1703.6893 1703.6893
3247 94.5651 1698(41) 1703.5758 1703.5758
3248 94.5911 1666(41) 1703.4624 1703.4624
3249 94.6171 1689(41) 1703.3489 1703.3489
3250 94.6431 1704(41) 1703.2355 1703.2355
3251 94.6691 1699(41) 1703.1219 1703.1219
3252 94.6951 1733(42) 1703.0085 1703.0085
3253 94.7211 1740(42) 1702.8950 1702.8950
3254 94.7471 1734(42) 1702.7816 1702.7816
3255 94.7731 1710(41) 1702.6681 1702.6681
3256 94.7991 1726(42) 1702.5547 1702.5547
3257 94.8251 1731(42) 1702.4412 1702.4412
3258 94.8511 1703(41) 1707.3844 1702.3278
3259 94.8771 1683(41) 1707.3901 1702.2142
3260 94.9031 1708(41) 1707.4001 1702.1008
3261 94.9291 1713(41) 1707.4146 1701.9873
3262 94.9551 1718(41) 1707.4338 1701.8739
3263 94.9811 1738(42) 1707.4578 1701.7604
3264 95.0071 1732(42) 1707.4871 1701.6470
3265 95.0331 1706(41) 1707.5216 1701.5334
3266 95.0591 1685(41) 1707.5620 1701.4200
3267 95.0851 1718(41) 1707.6083 1701.3065
3268 95.1111 1764(42) 1707.6610 1701.1931
3269 95.1371 1744(42) 1707.7202 1701.0796
3270 95.1631 1718(41) 1710.3035 1700.9662
3271 95.1891 1700(41) 1710.4360 1700.8527
3272 95.2151 1681(41) 1710.5787 1700.7393
3273 95.2411 1678(41) 1710.7316 1700.6257
3274 95.2671 1701(41) 1710.8958 1700.5123
3275 95.2931 1713(41) 1711.0713 1700.3988
3276 95.3191 1696(41) 1711.2593 1700.2854
3277 95.3451 1737(42) 1711.4602 1700.1719
3278 95.3711 1718(41) 1711.6749 1700.0585
3279 95.3971 1638(40) 1711.9042 1699.9449
3280 95.4231 1679(41) 1712.1488 1699.8314
3281 95.4491 1733(42) 1712.4098 1699.7180
3282 95.4751 1726(42) 1712.6884 1699.6046
3283 95.5011 1700(41) 1712.9852 1699.4911
3284 95.5271 1676(41) 1713.3020 1699.3777
3285 95.5531 1663(41) 1713.6395 1699.2642
3286 95.5791 1721(41) 1713.9996 1699.1508
3287 95.6051 1699(41) 1714.3834 1699.0372
3288 95.6311 1647(41) 1714.7927 1698.9237
3289 95.6571 1687(41) 1715.2294 1698.8103
3290 95.6831 1680(41) 1715.6953 1698.6969
3291 95.7091 1658(41) 1716.1924 1698.5834
3292 95.7351 1664(41) 1716.7234 1698.4700
3293 95.7611 1711(41) 1717.2904 1698.3564
3294 95.7871 1721(41) 1717.8964 1698.2429
3295 95.8131 1672(41) 1718.5443 1698.1295
3296 95.8391 1718(41) 1719.2374 1698.0161
3297 95.8651 1715(41) 1719.9797 1697.9026
3298 95.8911 1693(41) 1720.7751 1697.7892
3299 95.9171 1631(40) 1721.6279 1697.6757
3300 95.9431 1740(42) 1722.5435 1697.5623
3301 95.9691 1747(42) 1723.5270 1697.4487
3302 95.9951 1716(41) 1724.5847 1697.3352
3303 96.0211 1690(41) 1725.7238 1697.2218
3304 96.0471 1647(41) 1726.9512 1697.1084
3305 96.0731 1746(42) 1728.2762 1696.9949
3306 96.0991 1732(42) 1729.7087 1696.8815
3307 96.1251 1734(42) 1731.2594 1696.7679
3308 96.1511 1737(42) 1732.9407 1696.6544
3309 96.1771 1702(41) 1734.7671 1696.5410
3310 96.2031 1743(42) 1736.7548 1696.4275
3311 96.2291 1720(41) 1738.9225 1696.3141
3312 96.2551 1680(41) 1741.2914 1696.2007
3313 96.2811 1719(41) 1743.8877 1696.0872
3314 96.3071 1762(42) 1746.7407 1695.9736
3315 96.3331 1771(42) 1749.8849 1695.8602
3316 96.3591 1749(42) 1753.3611 1695.7467
3317 96.3851 1817(43) 1757.2177 1695.6333
3318 96.4111 1694(41) 1761.5114 1695.5198
3319 96.4371 1801(42) 1766.3103 1695.4064
3320 96.4631 1741(42) 1771.6926 1695.2930
3321 96.4891 1766(42) 1777.7560 1695.1794
3322 96.5151 1776(42) 1784.6111 1695.0659
3323 96.5411 1758(42) 1792.3906 1694.9525
3324 96.5671 1770(42) 1801.2517 1694.8390
3325 96.5931 1787(42) 1811.3837 1694.7256
3326 96.6191 1753(42) 1823.0164 1694.6121
3327 96.6451 1808(43) 1836.4369 1694.4987
3328 96.6711 1805(42) 1852.0065 1694.3853
3329 96.6971 1890(43) 1870.2139 1694.2717
3330 96.7231 1892(43) 1891.6953 1694.1582
3331 96.7491 1855(43) 1917.3125 1694.0448
3332 96.7751 2055(45) 1948.2190 1693.9313
3333 96.8011 2003(45) 1985.9385 1693.8179
3334 96.8271 2028(45) 2032.4358 1693.7043
3335 96.8531 2090(46) 2090.1553 1693.5909
3336 96.8791 2179(47) 2162.1047 1693.4774
3337 96.9051 2239(47) 2251.6729 1693.3640
3338 96.9311 2341(48) 2362.3662 1693.2505
3339 96.9571 2501(50) 2496.9004 1693.1371
3340 96.9831 2641(51) 2655.1409 1693.0236
3341 97.0091 2762(53) 2830.2451 1692.9102
3342 97.0351 2967(54) 3003.5913 1692.7966
3343 97.0611 3073(55) 3143.0076 1692.6832
3344 97.0871 3165(56) 3212.7598 1692.5697
3345 97.1131 3167(56) 3194.7476 1692.4563
3346 97.1391 3077(55) 3102.3938 1692.3428
3347 97.1651 3003(55) 2970.2861 1692.2294
3348 97.1911 2820(53) 2833.0930 1692.1158
3349 97.2171 2660(52) 2713.9531 1692.0024
3350 97.2431 2605(51) 2624.4392 1691.8889
3351 97.2691 2587(51) 2568.5371 1691.7755
3352 97.2951 2540(50) 2545.5544 1691.6620
3353 97.3211 2551(51) 2550.8804 1691.5486
3354 97.3471 2597(51) 2574.6384 1691.4351
3355 97.3731 2588(51) 2600.2991 1691.3217
3356 97.3991 2544(50) 2607.0273 1691.2081
3357 97.4251 2533(50) 2578.5908 1691.0947
3358 97.4511 2460(50) 2513.0764 1690.9812
3359 97.4771 2372(49) 2422.6489 1690.8678
3360 97.5031 2315(48) 2323.7485 1690.7543
3361 97.5291 2237(47) 2228.9087 1690.6409
3362 97.5551 2083(46) 2144.6147 1690.5273
3363 97.5811 2045(45) 2072.9248 1690.4139
3364 97.6071 2051(45) 2013.5044 1690.3004
3365 97.6331 1972(44) 1964.9812 1690.1870
3366 97.6591 1959(44) 1925.6597 1690.0735
3367 97.6851 1911(44) 1893.8722 1689.9601
3368 97.7111 1822(43) 1868.0972 1689.8466
3369 97.7371 1829(43) 1847.0730 1689.7332
3370 97.7631 1792(42) 1829.7656 1689.6196
3371 97.7891 1767(42) 1815.3600 1689.5062
3372 97.8151 1771(42) 1803.2261 1689.3927
3373 97.8411 1761(42) 1792.8840 1689.2793
3374 97.8671 1783(42) 1783.9691 1689.1658
3375 97.8931 1790(42) 1776.2074 1689.0524
3376 97.9191 1805(42) 1769.3829 1688.9388
3377 97.9451 1779(42) 1763.3362 1688.8254
3378 97.9711 1730(42) 1757.9408 1688.7119
3379 97.9971 1723(42) 1753.0978 1688.5985
3380 98.0231 1737(42) 1748.7277 1688.4850
3381 98.0491 1755(42) 1744.7671 1688.3716
3382 98.0751 1739(42) 1741.1644 1688.2581
3383 98.1011 1724(42) 1737.8746 1688.1447
3384 98.1271 1753(42) 1734.8621 1688.0311
3385 98.1531 1751(42) 1732.0957 1687.9177
3386 98.1791 1716(41) 1729.5487 1687.8042
3387 98.2051 1672(41) 1727.1982 1687.6908
3388 98.2311 1733(42) 1725.0237 1687.5773
3389 98.2571 1713(41) 1723.0074 1687.4639
3390 98.2831 1729(42) 1721.1343 1687.3503
3391 98.3091 1703(41) 1719.3895 1687.2369
3392 98.3351 1748(42) 1717.7612 1687.1234
3393 98.3611 1754(42) 1716.2388 1687.0100
3394 98.3871 1759(42) 1714.8123 1686.8965
3395 98.4131 1774(42) 1713.4734 1686.7831
3396 98.4391 1676(41) 1712.2142 1686.6696
3397 98.4651 1680(41) 1711.0281 1686.5560
3398 98.4911 1736(42) 1709.9093 1686.4426
3399 98.5171 1757(42) 1708.8516 1686.3292
3400 98.5431 1705(41) 1707.8501 1686.2157
3401 98.5691 1690(41) 1706.9008 1686.1023
3402 98.5951 1741(42) 1705.9994 1685.9888
3403 98.6211 1716(41) 1705.1422 1685.8752
3404 98.6471 1812(43) 1704.3263 1685.7618
3405 98.6731 1715(41) 1703.5483 1685.6483
3406 98.6991 1722(41) 1702.8060 1685.5349
3407 98.7251 1700(41) 1702.0963 1685.4215
3408 98.7511 1649(41) 1701.4171 1685.3080
3409 98.7771 1717(41) 1700.7666 1685.1946
3410 98.8031 1724(42) 1700.7375 1685.0811
3411 98.8291 1729(42) 1700.1516 1684.9675
3412 98.8551 1672(41) 1699.5896 1684.8541
3413 98.8811 1681(41) 1699.0498 1684.7406
3414 98.9071 1697(41) 1698.5311 1684.6272
3415 98.9331 1693(41) 1698.0320 1684.5138
3416 98.9591 1648(41) 1697.5514 1684.4003
3417 98.9851 1705(41) 1697.0883 1684.2867
3418 99.0111 1644(41) 1696.6418 1684.1733
3419 99.0371 1743(42) 1696.2109 1684.0598
3420 99.0631 1759(42) 1695.7950 1683.9464
3421 99.0891 1665(41) 1695.3933 1683.8330
3422 99.1151 1619(40) 1695.0048 1683.7195
3423 99.1411 1655(41) 1694.9264 1683.6061
3424 99.1671 1690(41) 1694.5693 1683.4926
3425 99.1931 1712(41) 1694.2240 1683.3790
3426 99.2191 1636(40) 1693.8901 1683.2656
3427 99.2451 1704(41) 1693.5669 1683.1521
3428 99.2711 1736(42) 1693.2543 1683.0387
3429 99.2971 1680(41) 1692.9602 1682.9338
3430 99.3231 1677(41) 1692.8347 1682.9880
3431 99.3491 1701(41) 1687.7777 1683.0422
3432 99.3751 1719(41) 1687.7817 1683.0964
3433 99.4011 1736(42) 1687.7909 1683.1505
3434 99.4271 1638(40) 1687.8049 1683.2047
3435 99.4531 1717(41) 1687.8240 1683.2589
3436 99.4791 1678(41) 1687.8479 1683.3131
3437 99.5051 1651(41) 1687.8766 1683.3673
3438 99.5311 1738(42) 1687.9100 1683.4215
3439 99.5571 1771(42) 1687.9484 1683.4757
3440 99.5831 1687(41) 1687.9916 1683.5299
3441 99.6091 1680(41) 1688.0397 1683.5841
3442 99.6351 1673(41) 1688.0928 1683.6383
3443 99.6611 1695(41) 1688.1509 1683.6925
3444 99.6871 1683(41) 1685.7649 1683.7467
3445 99.7131 1708(41) 1685.8882 1683.8009
3446 99.7391 1684(41) 1686.0151 1683.8551
3447 99.7651 1734(42) 1686.1460 1683.9093
3448 99.7911 1721(41) 1686.2809 1683.9634
3449 99.8171 1727(42) 1686.4204 1684.0176
3450 99.8431 1673(41) 1686.5647 1684.0718
3451 99.8691 1681(41) 1686.7142 1684.1260
3452 99.8951 1700(41) 1686.8693 1684.1802
3453 99.9211 1694(41) 1687.0304 1684.2344
3454 99.9471 1690(41) 1687.1981 1684.2886
3455 99.9731 1650(41) 1687.3729 1684.3428
3456 99.9991 1663(41) 1687.5554 1684.3970
3457 100.0251 1678(41) 1687.7462 1684.4512
3458 100.0511 1654(41) 1687.9462 1684.5054
3459 100.0771 1651(41) 1688.1561 1684.5596
3460 100.1031 1679(41) 1688.3768 1684.6138
3461 100.1291 1725(42) 1688.6095 1684.6680
3462 100.1551 1733(42) 1688.8553 1684.7222
3463 100.1811 1730(42) 1689.1155 1684.7762
3464 100.2071 1688(41) 1689.3916 1684.8304
3465 100.2331 1674(41) 1689.6854 1684.8846
3466 100.2591 1712(41) 1689.9988 1684.9388
3467 100.2851 1748(42) 1690.3341 1684.9930
3468 100.3111 1745(42) 1690.6937 1685.0472
3469 100.3371 1723(42) 1691.0809 1685.1014
3470 100.3631 1719(41) 1691.4991 1685.1556
3471 100.3891 1682(41) 1691.9525 1685.2098
3472 100.4151 1662(41) 1692.4457 1685.2640
3473 100.4411 1662(41) 1692.9845 1685.3182
3474 100.4671 1681(41) 1693.5754 1685.3724
3475 100.4931 1726(42) 1694.2263 1685.4266
3476 100.5191 1707(41) 1694.9460 1685.4808
3477 100.5451 1679(41) 1695.7457 1685.5350
3478 100.5711 1662(41) 1696.6376 1685.5891
3479 100.5971 1681(41) 1697.6366 1685.6433
3480 100.6231 1699(41) 1698.7603 1685.6975
3481 100.6491 1656(41) 1700.0295 1685.7517
3482 100.6751 1687(41) 1701.4697 1685.8059
3483 100.7011 1733(42) 1703.1124 1685.8601
3484 100.7271 1720(41) 1704.9971 1685.9143
3485 100.7531 1730(42) 1707.1764 1685.9685
3486 100.7791 1752(42) 1709.7177 1686.0227
3487 100.8051 1723(42) 1712.7101 1686.0769
3488 100.8311 1742(42) 1716.2708 1686.1311
3489 100.8571 1674(41) 1720.5520 1686.1853
3490 100.8831 1757(42) 1725.7474 1686.2395
3491 100.9091 1784(42) 1732.0986 1686.2937
3492 100.9351 1792(42) 1739.8940 1686.3479
3493 100.9611 1752(42) 1749.4736 1686.4020
3494 100.9871 1772(42) 1761.1895 1686.4562
3495 101.0131 1789(42) 1775.3434 1686.5104
3496 101.0391 1833(43) 1792.0223 1686.5646
3497 101.0651 1864(43) 1810.7864 1686.6188
3498 101.0911 1852(43) 1830.2136 1686.6730
3499 101.1171 1849(43) 1847.5598 1686.7272
3500 101.1431 1887(43) 1859.1730 1686.7814
3501 101.1691 1926(44) 1862.1389 1686.8356
3502 101.1951 1871(43) 1856.1509 1686.8898
3503 101.2211 1859(43) 1843.7385 1686.9440
3504 101.2471 1793(42) 1828.5927 1686.9982
3505 101.2731 1857(43) 1813.8274 1687.0524
3506 101.2991 1861(43) 1801.3541 1687.1066
3507 101.3251 1784(42) 1792.0801 1687.1608
3508 101.3511 1837(43) 1786.2817 1687.2148
3509 101.3771 1792(42) 1783.8722 1687.2690
3510 101.4031 1804(42) 1784.4420 1687.3232
3511 101.4291 1814(43) 1787.1477 1687.3774
3512 101.4551 1796(42) 1790.5439 1687.4316
3513 101.4811 1818(43) 1792.6445 1687.4858
3514 101.5071 1810(43) 1791.5381 1687.5400
3515 101.5331 1822(43) 1786.3740 1687.5942
3516 101.5591 1779(42) 1777.8048 1687.6484
3517 101.5851 1765(42) 1767.4094 1687.7026
3518 101.6111 1833(43) 1756.7393 1687.7568
3519 101.6371 1792(42) 1746.8079 1687.8110
3520 101.6631 1772(42) 1738.0835 1687.8652
3521 101.6891 1761(42) 1730.6761 1687.9194
3522 101.7151 1767(42) 1724.5121 1687.9736
3523 101.7411 1742(42) 1719.4426 1688.0278
3524 101.7671 1659(41) 1715.2948 1688.0819
3525 101.7931 1736(42) 1711.9072 1688.1361
3526 101.8191 1722(41) 1709.1351 1688.1903
3527 101.8451 1716(41) 1706.8553 1688.2445
3528 101.8711 1678(41) 1704.9673 1688.2987
3529 101.8971 1682(41) 1703.3900 1688.3529
3530 101.9231 1720(41) 1702.0604 1688.4071
3531 101.9491 1733(42) 1700.9291 1688.4613
3532 101.9751 1723(42) 1699.9573 1688.5155
3533 102.0011 1720(41) 1699.1157 1688.5697
3534 102.0271 1700(41) 1698.3813 1688.6239
3535 102.0531 1751(42) 1697.7362 1688.6781
3536 102.0791 1718(41) 1697.1664 1688.7323
3537 102.1051 1685(41) 1696.6603 1688.7865
3538 102.1311 1689(41) 1696.2092 1688.8407
3539 102.1571 1689(41) 1695.8057 1688.8948
3540 102.1831 1686(41) 1695.4436 1688.9490
3541 102.2091 1754(42) 1695.1182 1689.0032
3542 102.2351 1770(42) 1694.8251 1689.0574
3543 102.2611 1729(42) 1694.5608 1689.1116
3544 102.2871 1728(42) 1694.3221 1689.1658
3545 102.3131 1733(42) 1694.1067 1689.2200
3546 102.3391 1718(41) 1693.9119 1689.2742
3547 102.3651 1719(41) 1693.7357 1689.3284
3548 102.3911 1736(42) 1693.5764 1689.3826
3549 102.4171 1745(42) 1693.4325 1689.4368
3550 102.4431 1709(41) 1693.3024 1689.4910
3551 102.4691 1775(42) 1693.1848 1689.5452
3552 102.4951 1714(41) 1693.0789 1689.5994
3553 102.5211 1708(41) 1692.9833 1689.6536
3554 102.5471 1701(41) 1692.8972 1689.7076
3555 102.5731 1754(42) 1692.8199 1689.7618
3556 102.5991 1777(42) 1692.7509 1689.8160
3557 102.6251 1709(41) 1692.6891 1689.8702
3558 102.6511 1714(41) 1692.6342 1689.9244
3559 102.6771 1747(42) 1692.5854 1689.9786
3560 102.7031 1746(42) 1692.5426 1690.0328
3561 102.7291 1710(41) 1692.5051 1690.0870
3562 102.7551 1717(41) 1692.4727 1690.1412
3563 102.7811 1737(42) 1712.8239 1690.1954
3564 102.8071 1769(42) 1713.2288 1690.2496
3565 102.8331 1759(42) 1713.6512 1690.3038
3566 102.8591 1775(42) 1714.0918 1690.3580
3567 102.8851 1737(42) 1714.5505 1690.4122
3568 102.9111 1699(41) 1715.0281 1690.4664
3569 102.9371 1729(42) 1715.5248 1690.5206
3570 102.9631 1708(41) 1716.0410 1690.5747
3571 102.9891 1653(41) 1716.5779 1690.6289
3572 103.0151 1676(41) 1717.1968 1690.7443
3573 103.0411 1740(42) 1717.8815 1690.9037
3574 103.0671 1789(42) 1718.5885 1691.0630
3575 103.0931 1774(42) 1719.3187 1691.2223
3576 103.1191 1736(42) 1720.0731 1691.3816
3577 103.1451 1748(42) 1731.0569 1691.5409
3578 103.1711 1749(42) 1732.0760 1691.7002
3579 103.1971 1718(41) 1733.1295 1691.8595
3580 103.2231 1689(41) 1734.2185 1692.0188
3581 103.2491 1709(41) 1735.3447 1692.1781
3582 103.2751 1726(42) 1736.5098 1692.3374
3583 103.3011 1740(42) 1737.7153 1692.4967
3584 103.3271 1745(42) 1738.9636 1692.6560
3585 103.3531 1749(42) 1740.2562 1692.8153
3586 103.3791 1746(42) 1741.5962 1692.9746
3587 103.4051 1752(42) 1742.9854 1693.1339
3588 103.4311 1795(42) 1744.4263 1693.2932
3589 103.4571 1765(42) 1745.9220 1693.4526
3590 103.4831 1738(42) 1747.4751 1693.6119
3591 103.5091 1721(41) 1749.0889 1693.7712
3592 103.5351 1710(41) 1750.1843 1693.9305
3593 103.5611 1770(42) 1751.9418 1694.0898
3594 103.5871 1769(42) 1753.7709 1694.2491
3595 103.6131 1784(42) 1755.6754 1694.4084
3596 103.6391 1741(42) 1757.6598 1694.5677
3597 103.6651 1660(41) 1759.7290 1694.7271
3598 103.6911 1692(41) 1761.8883 1694.8864
3599 103.7171 1718(41) 1764.1433 1695.0457
3600 103.7431 1769(42) 1766.5002 1695.2050
3601 103.7691 1774(42) 1768.9652 1695.3643
3602 103.7951 1742(42) 1771.5465 1695.5236
3603 103.8211 1758(42) 1774.2515 1695.6829
3604 103.8471 1720(41) 1777.0887 1695.8423
3605 103.8731 1708(41) 1780.0674 1696.0016
3606 103.8991 1724(42) 1782.9084 1696.1609
3607 103.9251 1713(41) 1786.2074 1696.3202
3608 103.9511 1732(42) 1789.6807 1696.4795
3609 103.9771 1719(41) 1793.3407 1696.6388
3610 104.0031 1793(42) 1797.2039 1696.7981
3611 104.0291 1756(42) 1801.2850 1696.9574
3612 104.0551 1763(42) 1805.6019 1697.1167
3613 104.0811 1793(42) 1810.1738 1697.2760
3614 104.1071 1797(42) 1815.0220 1697.4353
3615 104.1331 1796(42) 1820.1703 1697.5946
3616 104.1591 1780(42) 1825.6449 1697.7540
3617 104.1851 1843(43) 1831.4734 1697.9132
3618 104.2111 1772(42) 1837.6918 1698.0725
3619 104.2371 1785(42) 1844.3352 1698.2318
3620 104.2631 1885(43) 1851.4448 1698.3912
3621 104.2891 1804(42) 1859.0670 1698.5505
3622 104.3151 1828(43) 1867.2543 1698.7098
3623 104.3411 1807(43) 1876.0664 1698.8691
3624 104.3671 1838(43) 1885.5718 1699.0284
3625 104.3931 1826(43) 1895.8453 1699.1877
3626 104.4191 1851(43) 1906.9830 1699.3470
3627 104.4451 1930(44) 1919.0858 1699.5063
3628 104.4711 1880(43) 1932.2739 1699.6656
3629 104.4971 1875(43) 1946.6868 1699.8250
3630 104.5231 1979(44) 1962.4867 1699.9843
3631 104.5491 1942(44) 1979.8623 1700.1436
3632 104.5751 1997(45) 1999.0273 1700.3029
3633 104.6011 1961(44) 2020.2485 1700.4622
3634 104.6271 1946(44) 2043.8181 1700.6215
3635 104.6531 2073(46) 2070.0823 1700.7809
3636 104.6791 2093(46) 2099.4446 1700.9402
3637 104.7051 2116(46) 2132.3774 1701.0995
3638 104.7311 2142(46) 2169.4385 1701.2588
3639 104.7571 2134(46) 2211.2900 1701.4181
3640 104.7831 2168(47) 2258.7190 1701.5774
3641 104.8091 2263(48) 2312.7361 1701.7367
3642 104.8351 2346(48) 2374.5581 1701.8960
3643 104.8611 2395(49) 2445.7476 1702.0553
3644 104.8871 2568(51) 2528.3118 1702.2146
3645 104.9131 2591(51) 2624.8440 1702.3739
3646 104.9391 2746(52) 2738.6885 1702.5332
3647 104.9651 2889(54) 2874.1235 1702.6926
3648 104.9911 3043(55) 3036.5000 1702.8518
3649 105.0171 3255(57) 3232.6118 1703.0111
3650 105.0431 3507(59) 3470.5249 1703.1704
3651 105.0691 3740(61) 3759.6990 1703.3298
3652 105.0951 4086(64) 4110.4727 1703.4891
3653 105.1211 4553(67) 4532.6523 1703.6484
3654 105.1471 4964(70) 5032.2090 1703.8077
3655 105.1731 5474(74) 5604.6885 1703.9670
3656 105.1991 6140(78) 6224.3110 1704.1263
3657 105.2251 6695(82) 6832.6108 1704.2856
3658 105.2511 7162(85) 7334.8574 1704.4449
3659 105.2771 7392(86) 7624.9414 1704.6042
3660 105.3031 7399(86) 7636.6792 1704.7635
3661 105.3291 7242(85) 7385.2715 1704.9229
3662 105.3551 6898(83) 6957.0664 1705.0822
3663 105.3811 6442(80) 6459.8140 1705.2416
3664 105.4071 5914(77) 5980.4995 1705.4008
3665 105.4331 5610(75) 5571.7988 1705.5601
3666 105.4591 5324(73) 5259.2959 1705.7195
3667 105.4851 5082(71) 5051.4277 1705.8788
3668 105.5111 5005(71) 4946.9229 1706.0381
3669 105.5371 4959(70) 4937.2690 1706.1974
3670 105.5631 5051(71) 5004.7539 1706.3567
3671 105.5891 5104(71) 5117.6260 1706.5160
3672 105.6151 5170(72) 5227.0225 1706.6753
3673 105.6411 5216(72) 5273.3472 1706.8346
3674 105.6671 5136(72) 5207.8340 1706.9939
3675 105.6931 4946(70) 5017.2871 1707.1532
3676 105.7191 4647(68) 4729.0498 1707.3125
3677 105.7451 4340(66) 4391.1675 1707.4718
3678 105.7711 4034(64) 4047.9146 1707.6312
3679 105.7971 3731(61) 3728.0422 1707.7904
3680 105.8231 3448(59) 3444.8379 1707.9497
3681 105.8491 3251(57) 3201.7815 1708.1091
3682 105.8751 3047(55) 2996.9006 1708.2684
3683 105.9011 2848(53) 2825.9233 1708.4277
3684 105.9271 2662(52) 2683.9233 1708.5870
3685 105.9531 2571(51) 2566.1143 1708.7463
3686 105.9791 2504(50) 2468.1919 1708.9056
3687 106.0051 2425(49) 2386.4780 1709.0649
3688 106.0311 2321(48) 2317.8374 1709.2242
3689 106.0571 2274(48) 2259.7729 1709.3835
3690 106.0831 2293(48) 2210.2549 1709.5428
3691 106.1091 2213(47) 2167.6682 1709.7021
3692 106.1351 2103(46) 2130.7344 1709.8615
3693 106.1611 2050(45) 2098.4448 1710.0208
3694 106.1871 2057(45) 2070.0027 1710.1802
3695 106.2131 2037(45) 2044.7827 1710.3394
3696 106.2391 2008(45) 2022.2673 1710.4987
3697 106.2651 2013(45) 2002.0605 1710.6581
3698 106.2911 1929(44) 1983.8362 1710.8174
3699 106.3171 1933(44) 1967.3286 1710.9767
3700 106.3431 1947(44) 1952.3192 1711.1360
3701 106.3691 1904(44) 1938.6268 1711.2953
3702 106.3951 1929(44) 1926.0994 1711.4546
3703 106.4211 1938(44) 1914.6112 1711.6139
3704 106.4471 1875(43) 1904.0452 1711.7732
3705 106.4731 1903(44) 1894.3097 1711.9325
3706 106.4991 1843(43) 1885.3218 1712.0918
3707 106.5251 1895(44) 1877.0088 1712.2511
3708 106.5511 1876(43) 1869.3069 1712.4104
3709 106.5771 1869(43) 1862.1591 1712.5698
3710 106.6031 1759(42) 1855.5166 1712.7290
3711 106.6291 1765(42) 1849.3308 1712.8883
3712 106.6551 1832(43) 1843.5636 1713.0476
3713 106.6811 1843(43) 1838.1791 1713.2070
3714 106.7071 1863(43) 1833.1445 1713.3663
3715 106.7331 1887(43) 1828.4312 1713.5256
3716 106.7591 1797(42) 1824.0129 1713.6849
3717 106.7851 1824(43) 1819.8663 1713.8442
3718 106.8111 1887(43) 1815.9712 1714.0035
3719 106.8371 1792(42) 1812.3495 1714.1628
3720 106.8631 1815(43) 1808.8989 1714.3221
3721 106.8891 1782(42) 1805.6461 1714.4814
3722 106.9151 1701(41) 1802.5771 1714.6407
3723 106.9411 1832(43) 1799.6786 1714.8000
3724 106.9671 1773(42) 1796.9388 1714.9594
3725 106.9931 1800(42) 1794.3469 1715.1188
3726 107.0191 1760(42) 1791.8932 1715.2780
3727 107.0451 1792(42) 1789.5676 1715.4373
3728 107.0711 1776(42) 1787.3624 1715.5967
3729 107.0971 1804(42) 1785.2698 1715.7560
3730 107.1231 1827(43) 1783.2826 1715.9153
3731 107.1491 1740(42) 1781.3944 1716.0746
3732 107.1751 1814(43) 1779.5992 1716.2339
3733 107.2011 1806(43) 1777.8914 1716.3932
3734 107.2271 1789(42) 1776.2881 1716.5525
3735 107.2531 1726(42) 1774.7402 1716.7118
3736 107.2791 1762(42) 1773.2655 1716.8711
3737 107.3051 1780(42) 1771.8596 1717.0304
3738 107.3311 1747(42) 1770.5188 1717.1897
3739 107.3571 1721(41) 1769.2394 1717.3490
3740 107.3831 1723(42) 1768.0183 1717.5084
3741 107.4091 1771(42) 1766.8523 1717.6677
3742 107.4351 1693(41) 1765.7385 1717.8269
3743 107.4611 1715(41) 1764.6742 1717.9863
3744 107.4871 1783(42) 1763.6567 1718.1456
3745 107.5131 1743(42) 1762.6838 1718.3049
3746 107.5391 1730(42) 1761.7532 1718.4642
3747 107.5651 1731(42) 1760.8629 1718.6235
3748 107.5911 1709(41) 1760.0110 1718.7828
3749 107.6171 1682(41) 1759.1956 1718.9421
3750 107.6431 1759(42) 1758.4150 1719.1014
3751 107.6691 1732(42) 1757.7233 1719.3164
3752 107.6951 1759(42) 1757.1675 1719.6359
3753 107.7211 1793(42) 1756.6420 1719.9553
3754 107.7471 1759(42) 1756.1453 1720.2748
3755 107.7731 1800(42) 1755.6761 1720.5944
3756 107.7991 1768(42) 1735.0662 1720.9138
3757 107.8251 1732(42) 1735.0575 1721.2332
3758 107.8511 1742(42) 1735.0609 1721.5527
3759 107.8771 1735(42) 1735.0754 1721.8722
3760 107.9031 1766(42) 1735.1008 1722.1917
3761 107.9291 1757(42) 1735.1366 1722.5111
3762 107.9551 1763(42) 1735.1825 1722.8307
3763 107.9811 1757(42) 1735.2377 1723.1501
3764 108.0071 1716(41) 1735.3020 1723.4696
3765 108.0331 1750(42) 1735.3751 1723.7891
3766 108.0591 1768(42) 1735.4567 1724.1085
3767 108.0851 1788(42) 1735.5463 1724.4280
3768 108.1111 1816(43) 1735.6439 1724.7476
3769 108.1371 1791(42) 1735.7488 1725.0670
3770 108.1631 1770(42) 1735.8610 1725.3865
3771 108.1891 1797(42) 1725.9379 1725.7059
3772 108.2151 1829(43) 1726.2664 1726.0255
3773 108.2411 1783(42) 1726.5951 1726.3448
3774 108.2671 1762(42) 1726.9246 1726.6643
3775 108.2931 1793(42) 1727.2546 1726.9839
3776 108.3191 1802(42) 1727.5853 1727.3033
3777 108.3451 1805(42) 1727.9167 1727.6228
3778 108.3711 1786(42) 1728.2490 1727.9424
3779 108.3971 1780(42) 1728.5820 1728.2618
3780 108.4231 1787(42) 1728.9160 1728.5813
3781 108.4491 1790(42) 1729.2510 1728.9008
3782 108.4751 1763(42) 1729.5870 1729.2202
3783 108.5011 1690(41) 1729.9244 1729.5397
3784 108.5271 1718(41) 1730.2631 1729.8591
3785 108.5531 1804(42) 1730.6034 1730.1787
3786 108.5791 1795(42) 1730.9452 1730.4982
3787 108.6051 1770(42) 1731.2889 1730.8176
3788 108.6311 1769(42) 1731.6349 1731.1372
3789 108.6571 1817(43) 1731.9828 1731.4565
3790 108.6831 1783(42) 1732.3335 1731.7760
3791 108.7091 1719(41) 1732.6873 1732.0956
3792 108.7351 1704(41) 1733.0442 1732.4150
3793 108.7611 1696(41) 1733.4049 1732.7345
3794 108.7871 1688(41) 1733.7699 1733.0540
3795 108.8131 1747(42) 1734.1399 1733.3735
3796 108.8391 1737(42) 1734.5151 1733.6929
3797 108.8651 1736(42) 1734.8969 1734.0123
3798 108.8911 1776(42) 1735.2860 1734.3319
3799 108.9171 1742(42) 1735.6832 1734.6514
3800 108.9431 1654(41) 1736.0901 1734.9708
3801 108.9691 1738(42) 1736.5081 1735.2904
3802 108.9951 1714(41) 1736.9390 1735.6099
3803 109.0211 1730(42) 1737.3850 1735.9293
3804 109.0471 1751(42) 1737.8491 1736.2488
3805 109.0731 1773(42) 1738.3348 1736.5682
3806 109.0991 1816(43) 1738.8466 1736.8877
3807 109.1251 1719(41) 1739.3901 1737.2072
3808 109.1511 1754(42) 1739.9729 1737.5267
3809 109.1771 1790(42) 1740.6035 1737.8462
3810 109.2031 1740(42) 1741.2932 1738.1656
3811 109.2291 1681(41) 1742.0557 1738.4851
3812 109.2551 1742(42) 1742.9065 1738.8046
3813 109.2811 1786(42) 1743.8641 1739.1240
3814 109.3071 1751(42) 1744.9470 1739.4436
3815 109.3331 1761(42) 1746.1703 1739.7631
3816 109.3591 1714(41) 1747.5385 1740.0825
3817 109.3851 1741(42) 1749.0314 1740.4020
3818 109.4111 1794(42) 1750.5853 1740.7216
3819 109.4371 1689(41) 1752.0753 1741.0410
3820 109.4631 1729(42) 1753.3215 1741.3604
3821 109.4891 1771(42) 1754.1414 1741.6799
3822 109.5151 1749(42) 1754.4325 1741.9994
3823 109.5411 1721(41) 1754.2349 1742.3188
3824 109.5671 1780(42) 1753.7048 1742.6384
3825 109.5931 1753(42) 1753.0343 1742.9579
3826 109.6191 1755(42) 1752.3820 1743.2773
3827 109.6451 1711(41) 1751.8489 1743.5968
3828 109.6711 1724(42) 1751.4871 1743.9163
3829 109.6971 1858(43) 1751.3158 1744.2357
3830 109.7231 1762(42) 1751.3374 1744.5552
3831 109.7491 1698(41) 1751.5431 1744.8748
3832 109.7751 1714(41) 1751.9133 1745.1942
3833 109.8011 1756(42) 1752.4122 1745.5137
3834 109.8271 1755(42) 1752.9791 1745.8331
3835 109.8531 1732(42) 1753.5249 1746.1526
3836 109.8791 1779(42) 1753.9443 1746.4720
3837 109.9051 1740(42) 1754.1521 1746.7916
3838 109.9311 1784(42) 1754.1219 1747.1111
3839 109.9571 1754(42) 1753.8975 1747.4305
3840 109.9831 1722(41) 1753.5623 1747.7500
3841 110.0091 1754(42) 1753.1998 1748.0696
3842 110.0351 1797(42) 1752.8690 1748.3890
3843 110.0611 1777(42) 1752.6012 1748.7084
3844 110.0871 1770(42) 1752.4077 1749.0280
3845 110.1131 1754(42) 1752.2878 1749.3474
3846 110.1391 1781(42) 1752.2351 1749.6669
3847 110.1651 1798(42) 1752.2411 1749.9863
3848 110.1911 1734(42) 1752.2971 1750.3059
3849 110.2171 1736(42) 1752.3949 1750.6254
3850 110.2431 1747(42) 1752.5275 1750.9448
3851 110.2691 1798(42) 1752.6885 1751.2643
3852 110.2951 1796(42) 1752.8730 1751.5837
3853 110.3211 1736(42) 1753.0768 1751.9032
3854 110.3471 1686(41) 1753.2966 1752.2228
3855 110.3731 1748(42) 1753.5293 1752.5422
3856 110.3991 1728(42) 1753.7727 1752.8617
3857 110.4251 1751(42) 1754.0253 1753.1812
3858 110.4511 1795(42) 1754.2855 1753.5007
3859 110.4771 1772(42) 1754.5518 1753.8201
3860 110.5031 1758(42) 1754.8237 1754.1395
3861 110.5291 1781(42) 1755.1003 1754.4591
3862 110.5551 1743(42) 1755.3810 1754.7786
3863 110.5811 1727(42) 1755.6650 1755.0980
3864 110.6071 1768(42) 1755.9524 1755.4176
3865 110.6331 1723(42) 1756.2423 1755.7371
3866 110.6591 1703(41) 1756.5345 1756.0565
3867 110.6851 1752(42) 1756.8290 1756.3760
3868 110.7111 1743(42) 1757.1254 1756.6954
3869 110.7371 1758(42) 1757.4235 1757.0149
3870 110.7631 1780(42) 1757.7231 1757.3344
3871 110.7891 1787(42) 1758.0243 1757.6539
3872 110.8151 1835(43) 1758.3267 1757.9734
3873 110.8411 1837(43) 1758.6301 1758.2928
3874 110.8671 1840(43) 1758.9348 1758.6124
3875 110.8931 1828(43) 1759.2404 1758.9318
3876 110.9191 1758(42) 1759.5468 1759.2512
3877 110.9451 1741(42) 1759.8541 1759.5708
3878 110.9711 1788(42) 1775.2550 1759.8903
3879 110.9971 1795(42) 1775.8424 1760.2097
3880 111.0231 1798(42) 1776.4382 1760.5292
3881 111.0491 1848(43) 1777.0428 1760.8488
3882 111.0751 1805(42) 1777.6560 1761.1681
3883 111.1011 1762(42) 1778.2787 1761.4875
3884 111.1271 1805(42) 1778.9109 1761.8071
3885 111.1531 1769(42) 1779.5529 1762.1266
3886 111.1791 1734(42) 1780.2048 1762.4460
3887 111.2051 1797(42) 1780.8676 1762.7656
3888 111.2311 1776(42) 1781.5411 1763.0851
3889 111.2571 1776(42) 1782.2258 1763.4045
3890 111.2831 1819(43) 1782.9222 1763.7240
3891 111.3091 1768(42) 1783.6310 1764.0435
3892 111.3351 1764(42) 1784.3524 1764.3629
3893 111.3611 1804(42) 1785.0869 1764.6824
3894 111.3871 1831(43) 1793.3733 1765.0020
3895 111.4131 1831(43) 1794.2740 1765.3214
3896 111.4391 1777(42) 1795.1934 1765.6409
3897 111.4651 1783(42) 1796.1322 1765.9603
3898 111.4911 1761(42) 1797.0912 1766.2798
3899 111.5171 1762(42) 1798.0714 1766.5992
3900 111.5431 1790(42) 1799.0740 1766.9188
3901 111.5691 1720(41) 1800.0994 1767.2383
3902 111.5951 1793(42) 1801.1489 1767.5577
3903 111.6211 1785(42) 1802.2472 1767.9009
3904 111.6471 1760(42) 1803.4395 1768.3116
3905 111.6731 1798(42) 1804.6592 1768.7223
3906 111.6991 1822(43) 1805.9075 1769.1329
3907 111.7251 1797(42) 1807.1862 1769.5437
3908 111.7511 1813(43) 1808.4966 1769.9545
3909 111.7771 1728(42) 1809.8401 1770.3651
3910 111.8031 1732(42) 1811.2184 1770.7759
3911 111.8291 1821(43) 1812.6333 1771.1866
3912 111.8551 1840(43) 1814.0867 1771.5974
3913 111.8811 1782(42) 1815.5802 1772.0081
3914 111.9071 1770(42) 1817.1158 1772.4187
3915 111.9331 1740(42) 1818.6968 1772.8295
3916 111.9591 1803(42) 1820.3247 1773.2402
3917 111.9851 1862(43) 1822.0023 1773.6510
3918 112.0111 1790(42) 1823.7322 1774.0616
3919 112.0371 1832(43) 1825.5175 1774.4724
3920 112.0631 1813(43) 1827.3612 1774.8832
3921 112.0891 1790(42) 1829.2661 1775.2938
3922 112.1151 1812(43) 1831.2371 1775.7045
3923 112.1411 1794(42) 1833.2772 1776.1152
3924 112.1671 1809(43) 1835.3479 1776.5260
3925 112.1931 1857(43) 1837.5403 1776.9368
3926 112.2191 1892(43) 1839.8154 1777.3474
3927 112.2451 1797(42) 1842.1786 1777.7582
3928 112.2711 1844(43) 1844.6354 1778.1689
3929 112.2971 1768(42) 1847.1912 1778.5796
3930 112.3231 1839(43) 1849.8540 1778.9904
3931 112.3491 1786(42) 1852.6301 1779.4010
3932 112.3751 1824(43) 1855.5277 1779.8118
3933 112.4011 1918(44) 1858.5549 1780.2225
3934 112.4271 1827(43) 1861.7212 1780.6333
3935 112.4531 1863(43) 1865.0364 1781.0439
3936 112.4791 1821(43) 1868.5116 1781.4547
3937 112.5051 1799(42) 1872.1577 1781.8654
3938 112.5311 1931(44) 1875.9901 1782.2761
3939 112.5571 1904(44) 1880.0221 1782.6868
3940 112.5831 1877(43) 1884.2482 1783.0975
3941 112.6091 1786(42) 1888.7295 1783.5083
3942 112.6351 1891(43) 1893.4636 1783.9191
3943 112.6611 1877(43) 1898.4720 1784.3298
3944 112.6871 1899(44) 1903.7787 1784.7405
3945 112.7131 1904(44) 1909.4089 1785.1511
3946 112.7391 1991(45) 1915.3959 1785.5619
3947 112.7651 1835(43) 1921.7715 1785.9727
3948 112.7911 1857(43) 1928.5737 1786.3833
3949 112.8171 1916(44) 1935.8455 1786.7941
3950 112.8431 1880(43) 1943.6350 1787.2048
3951 112.8691 1916(44) 1951.9973 1787.6156
3952 112.8951 1962(44) 1960.9946 1788.0262
3953 112.9211 2013(45) 1970.6956 1788.4369
3954 112.9471 2002(45) 1981.1870 1788.8477
3955 112.9731 2029(45) 1992.5588 1789.2584
3956 112.9991 1985(45) 2004.9176 1789.6692
3957 113.0251 1990(45) 2018.3844 1790.0798
3958 113.0511 2005(45) 2033.0984 1790.4906
3959 113.0771 2022(45) 2049.2185 1790.9014
3960 113.1031 2008(45) 2066.9216 1791.3120
3961 113.1291 2111(46) 2086.4265 1791.7227
3962 113.1551 2133(46) 2107.9690 1792.1334
3963 113.1811 2172(47) 2131.8262 1792.5442
3964 113.2071 2197(47) 2158.3208 1792.9550
3965 113.2331 2198(47) 2187.8301 1793.3656
3966 113.2591 2244(47) 2220.8005 1793.7764
3967 113.2851 2289(48) 2257.7651 1794.1871
3968 113.3111 2341(48) 2299.3557 1794.5978
3969 113.3371 2304(48) 2346.3833 1795.0085
3970 113.3631 2326(48) 2399.8071 1795.4192
3971 113.3891 2464(50) 2460.8298 1795.8300
3972 113.4151 2592(51) 2530.9495 1796.2407
3973 113.4411 2658(52) 2612.0273 1796.6515
3974 113.4671 2707(52) 2706.3735 1797.0621
3975 113.4931 2842(53) 2816.8320 1797.4729
3976 113.5191 2961(54) 2946.8218 1797.8835
3977 113.5451 3091(56) 3100.5552 1798.2943
3978 113.5711 3305(57) 3282.7959 1798.7050
3979 113.5971 3542(60) 3498.8196 1799.1157
3980 113.6231 3859(62) 3753.8450 1799.5265
3981 113.6491 4163(65) 4051.8398 1799.9373
3982 113.6751 4442(67) 4393.2300 1800.3480
3983 113.7011 4807(69) 4771.1235 1800.7587
3984 113.7271 5120(72) 5166.1860 1801.1693
3985 113.7531 5486(74) 5542.9507 1801.5801
3986 113.7791 5949(77) 5850.5820 1801.9908
3987 113.8051 6109(78) 6035.7061 1802.4015
3988 113.8311 6081(78) 6063.8975 1802.8123
3989 113.8571 6068(78) 5937.1616 1803.2230
3990 113.8831 5878(77) 5692.7603 1803.6338
3991 113.9091 5617(75) 5384.7559 1804.0444
3992 113.9351 5292(73) 5063.7080 1804.4551
3993 113.9611 4966(70) 4765.5771 1804.8658
3994 113.9871 4738(69) 4511.5215 1805.2766
3995 114.0131 4459(67) 4311.4531 1805.6874
3996 114.0391 4328(66) 4168.5439 1806.0980
3997 114.0651 4176(65) 4082.3086 1806.5088
3998 114.0911 4259(65) 4050.0103 1806.9196
3999 114.1171 4264(65) 4066.5398 1807.3303
4000 114.1431 4255(65) 4122.9639 1807.7408
4001 114.1691 4211(65) 4204.3652 1808.1516
4002 114.1951 4415(66) 4288.0933 1808.5624
4003 114.2211 4402(66) 4345.3433 1808.9731
4004 114.2471 4421(66) 4348.1035 1809.3838
4005 114.2731 4279(65) 4279.7900 1809.7946
4006 114.2991 4242(65) 4142.4863 1810.2053
4007 114.3251 4132(64) 3954.6985 1810.6160
4008 114.3511 3869(62) 3741.4189 1811.0267
4009 114.3771 3718(61) 3525.0063 1811.4374
4010 114.4031 3445(59) 3320.5156 1811.8481
4011 114.4291 3184(56) 3135.7991 1812.2589
4012 114.4551 3017(55) 2973.5312 1812.6697
4013 114.4811 2970(54) 2833.3381 1813.0803
4014 114.5071 2792(53) 2713.3467 1813.4911
4015 114.5331 2641(51) 2611.1467 1813.9017
4016 114.5591 2501(50) 2524.1772 1814.3125
4017 114.5851 2457(50) 2450.1382 1814.7231
4018 114.6111 2482(50) 2386.9639 1815.1339
4019 114.6371 2400(49) 2332.8750 1815.5447
4020 114.6631 2333(48) 2286.3655 1815.9554
4021 114.6891 2263(48) 2246.1772 1816.3662
4022 114.7151 2223(47) 2211.2659 1816.7769
4023 114.7411 2178(47) 2180.7783 1817.1875
4024 114.7671 2161(46) 2153.9883 1817.5983
4025 114.7931 2139(46) 2130.3237 1818.0090
4026 114.8191 2037(45) 2109.3059 1818.4197
4027 114.8451 2021(45) 2090.5425 1818.8304
4028 114.8711 2069(45) 2073.7100 1819.2412
4029 114.8971 2014(45) 2058.5405 1819.6520
4030 114.9231 1971(44) 2044.8132 1820.0626
4031 114.9491 1918(44) 2032.3472 1820.4733
4032 114.9751 1967(44) 2020.9810 1820.8840
4033 115.0011 1971(44) 2010.5886 1821.2948
4034 115.0271 2009(45) 2001.0610 1821.7056
4035 115.0531 1958(44) 1992.3044 1822.1162
4036 115.0791 1977(44) 1984.2391 1822.5270
4037 115.1051 1960(44) 1976.7961 1822.9377
4038 115.1311 1927(44) 1969.9152 1823.3485
4039 115.1571 1940(44) 1963.5454 1823.7590
4040 115.1831 1946(44) 1957.6372 1824.1698
4041 115.2091 1881(43) 1952.1510 1824.5806
4042 115.2351 1910(44) 1947.4681 1824.9913
4043 115.2611 1929(44) 1942.7277 1825.4020
4044 115.2871 1949(44) 1938.3110 1825.8127
4045 115.3131 1904(44) 1934.1919 1826.2235
4046 115.3391 1886(43) 1930.3474 1826.6342
4047 115.3651 1956(44) 1926.7540 1827.0449
4048 115.3911 1875(43) 1923.3931 1827.4556
4049 115.4171 1781(42) 1920.2473 1827.8663
4050 115.4431 1840(43) 1917.3005 1828.2771
4051 115.4691 1851(43) 1914.5382 1828.6879
4052 115.4951 1773(42) 1911.9468 1829.0985
4053 115.5211 1857(43) 1909.5144 1829.5093
4054 115.5471 1846(43) 1907.2307 1829.9199
4055 115.5731 1785(42) 1905.0842 1830.3307
4056 115.5991 1815(43) 1903.0662 1830.7413
4057 115.6251 1887(43) 1901.1682 1831.1521
4058 115.6511 1877(43) 1899.3827 1831.5629
4059 115.6771 1872(43) 1897.9099 1831.9736
4060 115.7031 1852(43) 1896.3314 1832.3843
4061 115.7291 1897(44) 1894.8456 1832.7950
4062 115.7551 1908(44) 1893.4473 1833.2057
4063 115.7811 1899(44) 1892.1302 1833.6165
4064 115.8071 1855(43) 1890.8901 1834.0272
4065 115.8331 1830(43) 1889.7225 1834.4379
4066 115.8591 1860(43) 1888.6237 1834.8486
4067 115.8851 1915(44) 1887.5892 1835.2594
4068 115.9111 1863(43) 1886.6160 1835.6702
4069 115.9371 1883(43) 1885.7004 1836.0808
4070 115.9631 1906(44) 1884.8400 1836.4915
4071 115.9891 1859(43) 1884.0311 1836.9022
4072 116.0151 1844(43) 1883.2715 1837.3130
4073 116.0411 1851(43) 1882.5585 1837.7236
4074 116.0671 1889(43) 1881.8900 1838.1344
4075 116.0931 1902(44) 1881.2638 1838.5452
4076 116.1191 1861(43) 1880.6777 1838.9559
4077 116.1451 1838(43) 1880.1299 1839.3667
4078 116.1711 1860(43) 1879.6187 1839.7772
4079 116.1971 1858(43) 1879.1423 1840.1880
4080 116.2231 1808(43) 1878.6992 1840.5988
4081 116.2491 1858(43) 1878.2878 1841.0095
4082 116.2751 1915(44) 1877.9069 1841.4202
4083 116.3011 1917(44) 1877.5552 1841.8309
4084 116.3271 1905(44) 1877.2314 1842.2417
4085 116.3531 1835(43) 1876.9347 1842.6523
4086 116.3791 1849(43) 1876.6633 1843.0630
4087 116.4051 1839(43) 1876.4170 1843.4738
4088 116.4311 1827(43) 1876.1943 1843.8845
4089 116.4571 1850(43) 1875.9948 1844.2953
4090 116.4831 1882(43) 1875.8173 1844.7061
4091 116.5091 1872(43) 1875.6610 1845.1167
4092 116.5351 1818(43) 1875.5255 1845.5275
4093 116.5611 1863(43) 1875.4102 1845.9381
4094 116.5871 1886(43) 1875.3140 1846.3489
4095 116.6131 1867(43) 1875.2366 1846.7595
4096 116.6391 1817(43) 1875.1775 1847.1703
4097 116.6651 1840(43) 1860.1119 1847.5811
4098 116.6911 1833(43) 1860.3574 1847.9918
4099 116.7171 1850(43) 1860.6125 1848.4026
4100 116.7431 1833(43) 1860.8773 1848.8132
4101 116.7691 1820(43) 1861.1517 1849.2239
4102 116.7951 1816(43) 1861.4357 1849.6346
4103 116.8211 1831(43) 1861.7291 1850.0454
4104 116.8471 1830(43) 1862.0320 1850.4561
4105 116.8731 1943(44) 1862.3358 1850.8582
4106 116.8991 1857(43) 1862.4567 1851.0676
4107 116.9251 1913(44) 1862.5873 1851.2772
4108 116.9511 1847(43) 1862.7279 1851.4868
4109 116.9771 1899(44) 1862.8784 1851.6963
4110 117.0031 1891(43) 1863.0394 1851.9059
4111 117.0291 1938(44) 1863.2108 1852.1154
4112 117.0551 1946(44) 1863.3934 1852.3250
4113 117.0811 1961(44) 1863.5873 1852.5345
4114 117.1071 1881(43) 1863.7928 1852.7440
4115 117.1331 1862(43) 1856.5507 1852.9536
4116 117.1591 1872(43) 1856.9141 1853.1632
4117 117.1851 1905(44) 1857.2876 1853.3727
4118 117.2111 1940(44) 1857.6724 1853.5823
4119 117.2371 1877(43) 1858.0692 1853.7917
4120 117.2631 1843(43) 1858.4797 1854.0013
4121 117.2891 1805(42) 1858.9049 1854.2109
4122 117.3151 1889(43) 1859.3463 1854.4204
4123 117.3411 1860(43) 1859.8059 1854.6300
4124 117.3671 1852(43) 1860.2854 1854.8396
4125 117.3931 1854(43) 1860.7869 1855.0491
4126 117.4191 1941(44) 1861.3131 1855.2587
4127 117.4451 1959(44) 1861.8667 1855.4681
4128 117.4711 1925(44) 1862.4512 1855.6777
4129 117.4971 1932(44) 1863.0699 1855.8873
4130 117.5231 1944(44) 1863.7271 1856.0968
4131 117.5491 1889(43) 1864.4275 1856.3064
4132 117.5751 1822(43) 1865.1761 1856.5159
4133 117.6011 1886(43) 1865.9796 1856.7255
4134 117.6271 1866(43) 1866.8447 1856.9351
4135 117.6531 1935(44) 1867.7795 1857.1445
4136 117.6791 1925(44) 1868.7936 1857.3541
4137 117.7051 1879(43) 1869.8979 1857.5637
4138 117.7311 1882(43) 1871.1053 1857.7732
4139 117.7571 1838(43) 1872.4318 1857.9828
4140 117.7831 1914(44) 1873.8950 1858.1923
4141 117.8091 1823(43) 1875.5188 1858.4019
4142 117.8351 1891(43) 1877.3301 1858.6115
4143 117.8611 1858(43) 1879.3624 1858.8209
4144 117.8871 1881(43) 1881.6571 1859.0305
4145 117.9131 1969(44) 1884.2646 1859.2401
4146 117.9391 1985(45) 1887.2463 1859.4497
4147 117.9651 1873(43) 1890.6765 1859.6592
4148 117.9911 1976(44) 1894.6429 1859.8687
4149 118.0171 1932(44) 1899.2511 1860.0782
4150 118.0431 1922(44) 1904.6155 1860.2878
4151 118.0691 1944(44) 1910.8550 1860.4973
4152 118.0951 1932(44) 1918.0746 1860.7069
4153 118.1211 1971(44) 1926.3284 1860.9165
4154 118.1471 1953(44) 1935.5596 1861.1261
4155 118.1731 1952(44) 1945.5118 1861.3356
4156 118.1991 1958(44) 1955.6284 1861.5450
4157 118.2251 1972(44) 1965.0092 1861.7546
4158 118.2511 2025(45) 1972.4772 1861.9642
4159 118.2771 1999(45) 1976.8870 1862.1738
4160 118.3031 1971(44) 1977.5543 1862.3833
4161 118.3291 1968(44) 1974.5685 1862.5929
4162 118.3551 1951(44) 1968.7471 1862.8025
4163 118.3811 1962(44) 1961.2766 1863.0120
4164 118.4071 1929(44) 1953.3081 1863.2214
4165 118.4331 1932(44) 1945.7058 1863.4310
4166 118.4591 1901(44) 1939.0159 1863.6406
4167 118.4851 1883(43) 1933.5209 1863.8502
4168 118.5111 1947(44) 1929.3326 1864.0597
4169 118.5371 1973(44) 1926.4679 1864.2693
4170 118.5631 1915(44) 1924.8921 1864.4789
4171 118.5891 1856(43) 1924.5370 1864.6884
4172 118.6151 1922(44) 1925.2915 1864.8979
4173 118.6411 1972(44) 1926.9714 1865.1074
4174 118.6671 1945(44) 1929.2739 1865.3170
4175 118.6931 1876(43) 1931.7402 1865.5266
4176 118.7191 1888(43) 1933.7667 1865.7361
4177 118.7451 1936(44) 1934.7103 1865.9457
4178 118.7711 1905(44) 1934.0814 1866.1553
4179 118.7971 1922(44) 1931.7329 1866.3647
4180 118.8231 1961(44) 1927.9039 1866.5743
4181 118.8491 1949(44) 1923.0955 1866.7838
4182 118.8751 1931(44) 1917.8634 1866.9934
4183 118.9011 1906(44) 1912.6625 1867.2030
4184 118.9271 1891(43) 1907.7891 1867.4125
4185 118.9531 1908(44) 1903.3960 1867.6221
4186 118.9791 1892(44) 1899.5327 1867.8317
4187 119.0051 1920(44) 1896.1891 1868.0411
4188 119.0311 1939(44) 1893.3209 1868.2507
4189 119.0571 1880(43) 1890.8749 1868.4602
4190 119.0831 1894(44) 1888.7953 1868.6698
4191 119.1091 1882(43) 1887.0295 1868.8794
4192 119.1351 1914(44) 1885.5309 1869.0889
4193 119.1611 1919(44) 1884.2589 1869.2985
4194 119.1871 1883(43) 1883.1788 1869.5081
4195 119.2131 1869(43) 1882.2615 1869.7175
4196 119.2391 1840(43) 1881.4816 1869.9271
4197 119.2651 1827(43) 1880.8186 1870.1366
4198 119.2911 1795(42) 1880.2554 1870.3462
4199 119.3171 1850(43) 1879.7773 1870.5558
4200 119.3431 1924(44) 1879.3721 1870.7653
4201 119.3691 1886(43) 1879.0297 1870.9749
4202 119.3951 1865(43) 1878.7415 1871.1844
4203 119.4211 1833(43) 1878.5001 1871.3939
4204 119.4471 1901(44) 1878.2998 1871.6035
4205 119.4731 1871(43) 1878.1353 1871.8130
4206 119.4991 1859(43) 1878.0022 1872.0226
4207 119.5251 1911(44) 1877.8971 1872.2322
4208 119.5511 1868(43) 1877.8168 1872.4418
4209 119.5771 1947(44) 1877.7584 1872.6512
4210 119.6031 1868(43) 1877.7200 1872.8607
4211 119.6291 1825(43) 1877.6995 1873.0703
4212 119.6551 1836(43) 1889.1625 1873.2799
4213 119.6811 1878(43) 1889.3550 1873.4895
4214 119.7071 1857(43) 1889.5651 1873.6990
4215 119.7331 1904(44) 1889.7920 1873.9086
4216 119.7591 1789(42) 1890.0345 1874.1182
4217 119.7851 1893(44) 1890.2921 1874.3276
4218 119.8111 1879(43) 1890.5640 1874.5371
4219 119.8371 1907(44) 1890.8497 1874.7467
4220 119.8631 1964(44) 1891.1178 1874.9254
4221 119.8891 1852(43) 1891.2201 1874.9254
4222 119.9151 1948(44) 1891.3347 1874.9254
4223 119.9411 1907(44) 1891.4615 1874.9254
4224 119.9671 1907(44) 1891.6003 1874.9254
loop_
_refln_index_h
_refln_index_k
_refln_index_l
_refln_mult
_pd_refln_phase_id
_refln_observed_status
_refln_F_squared_meas
_refln_F_squared_calc
_refln_phase_calc
_refln_d_spacing
1 0 0 6 1 o 376.5739 374.4851 170.53 4.11296
1 1 0 12 1 o 9414.6416 9403.2236 8.08 2.90830
1 1 1 8 1 o 24.1851 24.1851 41.92 2.37462
2 0 0 6 1 o 11141.1748 11091.9805 7.40 2.05648
2 1 0 24 1 o 205.1881 225.7681 167.82 1.83937
2 1 1 24 1 o 6509.2207 6501.7876 9.49 1.67911
2 2 0 12 1 o 7529.5342 7579.5190 8.73 1.45415
2 2 1 24 1 o 155.3108 146.0616 164.87 1.37099
3 0 0 6 1 o 155.3108 146.0616 164.87 1.37099
3 1 0 24 1 o 4888.4360 4937.2852 10.62 1.30063
3 1 1 24 1 o 10.8579 10.8579 100.16 1.24011
2 2 2 8 1 o 5690.8906 5667.1445 9.85 1.18731
3 2 0 24 1 o 110.6384 96.9528 161.42 1.14073
3 2 1 48 1 o 3922.8853 3916.9343 11.64 1.09924
4 0 0 6 1 o 4348.5415 4450.1191 10.84 1.02824
3 2 2 24 1 o 81.3859 67.5768 157.70 0.99754
4 1 0 24 1 o 81.3859 67.5768 157.70 0.99754
3 3 0 12 1 o 3146.7371 3190.1794 12.58 0.96943
4 1 1 24 1 o 3146.7371 3190.1794 12.58 0.96943
3 3 1 24 1 o 23.1410 10.3495 96.39 0.94358
4 2 0 24 1 o 3616.8652 3602.1729 11.76 0.91969
4 2 1 48 1 o 57.0230 49.2484 153.78 0.89752
3 3 2 24 1 o 0.0000 2645.3318 13.48 0.87689
